AV-unprocessed.smi:1389|AV-procd|sdf|5649|dock6
  -GOLD-   22720 5273D 1   1.00000     0.00000
 Structure written by MMmdl.
 52 54  0  0  0  0  0  0  0  0  2 V2000
  147.5847  135.7294  155.1612 C   0  0  0  0  0  0  0  0  0  0  0  0
  149.1131  135.7848  155.4025 C   0  0  1  0  0  0  0  0  0  0  0  0
  149.7663  134.4304  155.0171 C   0  0  0  0  0  0  0  0  0  0  0  0
  149.0173  133.7209  153.9856 N   0  0  0  0  0  0  0  0  0  0  0  0
  148.5000  132.4953  154.1388 C   0  0  0  0  0  0  0  0  0  0  0  0
  148.5990  131.8437  155.1785 O   0  0  0  0  0  0  0  0  0  0  0  0
  147.8573  132.0946  153.0290 N   0  0  0  0  0  0  0  0  0  0  0  0
  147.1407  130.8821  152.8218 C   0  0  0  0  0  0  0  0  0  0  0  0
  147.5780  129.6599  153.3888 C   0  0  0  0  0  0  0  0  0  0  0  0
  146.8781  128.4757  153.1014 C   0  0  0  0  0  0  0  0  0  0  0  0
  145.7706  128.5511  152.2410 C   0  0  0  0  0  0  0  0  0  0  0  0
  145.3506  129.7030  151.6811 N   0  0  0  0  0  0  0  0  0  0  0  0
  146.0065  130.8567  151.9595 C   0  0  0  0  0  0  0  0  0  0  0  0
  145.5104  132.0339  151.3529 N   0  0  0  0  0  0  0  0  0  0  0  0
  145.0066  133.0973  152.2174 C   0  0  0  0  0  0  0  0  0  0  0  0
  143.8118  133.7209  151.4881 C   0  0  0  0  0  0  0  0  0  0  0  0
  144.0379  133.3346  150.0299 C   0  0  0  0  0  0  0  0  0  0  0  0
  144.6802  131.9563  150.1553 C   0  0  0  0  0  0  0  0  0  0  0  0
  149.7276  136.9525  154.6851 N   0  3  0  0  0  0  0  0  0  0  0  0
  149.0601  138.2477  154.9965 C   0  0  0  0  0  0  0  0  0  0  0  0
  149.6922  139.4099  154.2132 C   0  0  0  0  0  0  0  0  0  0  0  0
  151.0771  139.4857  154.5101 O   0  0  0  0  0  0  0  0  0  0  0  0
  151.7537  138.3064  154.1053 C   0  0  0  0  0  0  0  0  0  0  0  0
  151.1994  137.0936  154.8728 C   0  0  0  0  0  0  0  0  0  0  0  0
  147.1248  134.8567  155.6241 H   0  0  0  0  0  0  0  0  0  0  0  0
  147.3556  135.6910  154.0958 H   0  0  0  0  0  0  0  0  0  0  0  0
  147.0633  136.5847  155.5873 H   0  0  0  0  0  0  0  0  0  0  0  0
  149.2814  135.9314  156.4708 H   0  0  0  0  0  0  0  0  0  0  0  0
  150.7915  134.5927  154.6790 H   0  0  0  0  0  0  0  0  0  0  0  0
  149.8058  133.7551  155.8717 H   0  0  0  0  0  0  0  0  0  0  0  0
  148.8863  134.1913  153.1018 H   0  0  0  0  0  0  0  0  0  0  0  0
  147.7774  132.7748  152.2870 H   0  0  0  0  0  0  0  0  0  0  0  0
  148.4521  129.6074  154.0199 H   0  0  0  0  0  0  0  0  0  0  0  0
  147.1911  127.5308  153.5204 H   0  0  0  0  0  0  0  0  0  0  0  0
  145.2106  127.6625  151.9898 H   0  0  0  0  0  0  0  0  0  0  0  0
  144.7226  132.7269  153.2035 H   0  0  0  0  0  0  0  0  0  0  0  0
  145.7903  133.8437  152.3480 H   0  0  0  0  0  0  0  0  0  0  0  0
  142.8865  133.2682  151.8467 H   0  0  0  0  0  0  0  0  0  0  0  0
  143.7389  134.7982  151.6382 H   0  0  0  0  0  0  0  0  0  0  0  0
  143.1202  133.3246  149.4413 H   0  0  0  0  0  0  0  0  0  0  0  0
  144.7355  134.0314  149.5632 H   0  0  0  0  0  0  0  0  0  0  0  0
  145.2725  131.7028  149.2757 H   0  0  0  0  0  0  0  0  0  0  0  0
  143.8999  131.2031  150.2735 H   0  0  0  0  0  0  0  0  0  0  0  0
  148.0032  138.2193  154.7403 H   0  0  0  0  0  0  0  0  0  0  0  0
  149.1258  138.4444  156.0677 H   0  0  0  0  0  0  0  0  0  0  0  0
  149.5392  139.2875  153.1396 H   0  0  0  0  0  0  0  0  0  0  0  0
  149.2207  140.3516  154.4952 H   0  0  0  0  0  0  0  0  0  0  0  0
  151.6536  138.1653  153.0277 H   0  0  0  0  0  0  0  0  0  0  0  0
  152.8179  138.4243  154.3108 H   0  0  0  0  0  0  0  0  0  0  0  0
  151.4257  137.1875  155.9361 H   0  0  0  0  0  0  0  0  0  0  0  0
  151.7269  136.2169  154.5004 H   0  0  0  0  0  0  0  0  0  0  0  0
  149.5887  136.7854  153.6986 H   0  0  0  0  0  0  0  0  0  0  0  0
  1  2  1  0  0  0  0
  1 25  1  0  0  0  0
  1 26  1  0  0  0  0
  1 27  1  0  0  0  0
  2  3  1  0  0  0  0
  2 19  1  0  0  0  0
  2 28  1  0  0  0  0
  3  4  1  0  0  0  0
  3 29  1  0  0  0  0
  3 30  1  0  0  0  0
  4  5  1  0  0  0  0
  4 31  1  0  0  0  0
  5  6  2  0  0  0  0
  5  7  1  0  0  0  0
  7  8  1  0  0  0  0
  7 32  1  0  0  0  0
  8 13  1  0  0  0  0
  8  9  2  0  0  0  0
  9 10  1  0  0  0  0
  9 33  1  0  0  0  0
 10 11  2  0  0  0  0
 10 34  1  0  0  0  0
 11 12  1  0  0  0  0
 11 35  1  0  0  0  0
 12 13  2  0  0  0  0
 13 14  1  0  0  0  0
 14 18  1  0  0  0  0
 14 15  1  0  0  0  0
 15 16  1  0  0  0  0
 15 36  1  0  0  0  0
 15 37  1  0  0  0  0
 16 17  1  0  0  0  0
 16 38  1  0  0  0  0
 16 39  1  0  0  0  0
 17 18  1  0  0  0  0
 17 40  1  0  0  0  0
 17 41  1  0  0  0  0
 18 42  1  0  0  0  0
 18 43  1  0  0  0  0
 19 24  1  0  0  0  0
 19 20  1  0  0  0  0
 19 52  1  0  0  0  0
 20 21  1  0  0  0  0
 20 44  1  0  0  0  0
 20 45  1  0  0  0  0
 21 22  1  0  0  0  0
 21 46  1  0  0  0  0
 21 47  1  0  0  0  0
 22 23  1  0  0  0  0
 23 24  1  0  0  0  0
 23 48  1  0  0  0  0
 23 49  1  0  0  0  0
 24 50  1  0  0  0  0
 24 51  1  0  0  0  0
M  CHG  1  19   1
M  END
> <s_m_source_file>
AV-unprocessed.smi

> <i_m_source_file_index>
1389

> <i_lp_mmshare_version>
43012

> <i_f3d_flags>
0

> <s_epik_input>
W0NIMl0xW0NIMl1PW0NIMl1bQ0gyXU4xW0NASF0oW0NIM10pW0NIMl1bTkhdQyg9TylbTkhdYzJbY0hdW2NIXVtjSF1uYzJOM1tDSDJdW0NIMl1bQ0gyXVtDSDJdMw==

> <s_epik_cmdline>
J2VwaWtfcHl0aG9uJywgJy1waCcsICc3LjAnLCAnLXRuJywgJzgnLCAnLW1hJywgJzIwMCcsICctbWV0YWxfYmluZGluZycsICctaW1hZScsICc8aW5maWxlLm1hZT4nLCAnLW9tYWUnLCAnPG91dGZpbGUubWFlPic=

> <r_lp_tautomer_probability>
1

> <r_epik_Ionization_Penalty>
0.686

> <r_epik_Ionization_Penalty_Charging>
0.602531

> <r_epik_Ionization_Penalty_Neutral>
0.08347

> <r_epik_State_Penalty>
0.679975

> <r_epik_Charging_Adjusted_Penalty>
1.28251

> <i_epik_Tot_Q>
1

> <i_epik_Tot_abs_Q>
1

> <r_epik_Metal_State_Penalty>
0.679055

> <b_epik_Metal_Only>
0

> <s_lp_Force_Field>
OPLS_2005

> <r_lp_Energy>
49.8528

> <b_lp_Chiralities_Consistent>
1

> <s_lp_Variant>
AV-unprocessed.smi:1389-4

> <Gold.Version>
5.8.1

> <Gold.Id.Protein>
6NUR|6NUR_protein|mol2

> <Gold.PLP.Fitness>
44.7205

> <Gold.PLP.PLP>
-37.1158

> <Gold.PLP.part.hbond>
-3.0436

> <Gold.PLP.part.metal>
0.0000

> <Gold.PLP.part.buried>
-5.4434

> <Gold.PLP.part.nonpolar>
-29.1886

> <Gold.PLP.part.repulsive>
0.3790

> <Gold.PLP.ligand.clash>
0.6214

> <Gold.PLP.ligand.torsion>
1.0290

> <Gold.PLP.Chemscore.Hbond>
3.3039

> <Gold.PLP.Chemscore.CHOScore>
0.0000

> <Gold.PLP.Chemscore.Metal>
0.0000

> <Gold.Chemscore.Hbonds>
donor molecule, donor type, donor heavy atom, donor atom, acceptor molecule, acceptor atom, score
      L1  H     4    31       P1  7948  0.12
      L1  H    19    52       P1  7948  2.00
      P1  H  7989  7998       L1    22  1.00

> <Gold.PLP.Chemscore.Internal.Correction>
0.3725

> <Gold.Rescore>
     Score         DG    S(hbond)    S(metal)    S(lipo)     H(rot)  DE(clash)    DE(int)     intcor
     13.50     -17.54       1.51        0.00      95.69       1.63       1.64       2.40       ----

> <Gold.Chemscore.Fitness>
13.5018

> <Gold.Chemscore.DG>
-17.5439

> <Gold.Chemscore.ZeroCoef>
-5.4800

> <Gold.Chemscore.Hbond>
1.5098

> <Gold.Chemscore.Metal>
0.0000

> <Gold.Chemscore.Lipo>
95.6908

> <Gold.Chemscore.Internal_Hbond>
0.0000

> <Gold.Chemscore.DEClash>
1.6431

> <Gold.Chemscore.DEInternal>
2.3990

> <Gold.Chemscore.Rot>
1.6307

> <Gold.Chemscore.Internal.Correction>
   9.000000E+99

> <Gold.Chemscore.Hbonds>
donor molecule, donor type, donor heavy atom, donor atom, acceptor molecule, acceptor atom, score
      L1  H     4    31       P1  7948  0.01
      L1  H    19    52       P1  7948  0.76
      P1  H  7989  7998       L1    22  0.28

> <Gold.Chemscore.Hbond.Weighted>
-5.0426

> <Gold.Chemscore.Metal.Weighted>
-0.0000

> <Gold.Chemscore.Lipo.Weighted>
-11.1958

> <Gold.Chemscore.Internal_Hbond.Weighted>
0.0000

> <Gold.Chemscore.DEClash.Weighted>
1.6431

> <Gold.Chemscore.DEInternal.Weighted>
2.3990

> <Gold.Chemscore.Rot.Weighted>
4.1746

> <Gold.Chemscore.Internal.Correction.Weighted>
   9.000000E+99

> <Gold.Protein.RotatedTorsions>
[ 6907 6896 6895 6894 ] final -151.85 input  -60.11 | X-H torsion
[ 7974 7965 7964 7962 ] final    8.94 input  175.53 | X-H torsion
[ 8008 7997 7996 7995 ] final  -53.11 input   59.86 | X-H torsion
[ 10167 10162 10161 10158 ] final   55.59 input  -65.29 | X-H torsion
[ 10718 10713 10712 10709 ] final  -89.59 input   66.30 | X-H torsion
[ 10763 10752 10751 10750 ] final -154.77 input  -60.55 | X-H torsion
[ 11005 11000 10999 10996 ] final -169.52 input  -57.11 | X-H torsion

> <Gold.Protein.ActiveResidues>
 VAL166  LYS551  ARG553  GLY616  TRP617  ASP618  TYR619  PRO620  LYS621  CYS622 
 ASP623  PHE694  ASN695  SER759  ASP760  ASP761  ALA762  ILE779  LEU786  VAL792 
 PHE793  MET794  SER795  GLU796  ALA797  LYS798  CYS799  TRP800  GLU811  SER814 

> <Gold.Protein.RotatedAtoms>
  151.2192  133.4512  159.2599 H   0  0  0  0  0  0  0  0  0  0  0  0  # atno 6907 bound_to 6896
  151.0902  134.9911  159.8409 H   0  0  0  0  0  0  0  0  0  0  0  0  # atno 6908 bound_to 6896
  152.5434  134.2126  159.8809 H   0  0  0  0  0  0  0  0  0  0  0  0  # atno 6909 bound_to 6896
  146.2410  139.9858  142.8431 H   0  0  0  0  0  0  0  0  0  0  0  0  # atno 7974 bound_to 7965
  154.4124  140.1207  156.5101 H   0  0  0  0  0  0  0  0  0  0  0  0  # atno 8008 bound_to 7997
  155.6807  140.3496  155.4835 H   0  0  0  0  0  0  0  0  0  0  0  0  # atno 8009 bound_to 7997
  155.9554  140.1112  157.0931 H   0  0  0  0  0  0  0  0  0  0  0  0  # atno 8010 bound_to 7997
  140.2178  144.3821  150.6463 H   0  0  0  0  0  0  0  0  0  0  0  0  # atno 10167 bound_to 10162
  155.9985  130.4878  150.5195 H   0  0  0  0  0  0  0  0  0  0  0  0  # atno 10718 bound_to 10713
  154.7835  135.3182  154.7938 H   0  0  0  0  0  0  0  0  0  0  0  0  # atno 10763 bound_to 10752
  153.8644  135.6850  153.4784 H   0  0  0  0  0  0  0  0  0  0  0  0  # atno 10764 bound_to 10752
  153.1479  135.4712  154.9531 H   0  0  0  0  0  0  0  0  0  0  0  0  # atno 10765 bound_to 10752
  140.5299  134.5627  157.5072 H   0  0  0  0  0  0  0  0  0  0  0  0  # atno 11005 bound_to 11000
  145.1549  140.9643  143.4411 LP  0  0  0  0  0  0  0  0  0  0  0  0  # atno 17320 bound_to 7965
  145.0170  139.3458  143.6091 LP  0  0  0  0  0  0  0  0  0  0  0  0  # atno 17321 bound_to 7965
  140.6277  143.2183  151.6562 LP  0  0  0  0  0  0  0  0  0  0  0  0  # atno 17342 bound_to 10162
  139.5155  144.3375  152.0770 LP  0  0  0  0  0  0  0  0  0  0  0  0  # atno 17343 bound_to 10162
  157.3158  131.0672  151.1968 LP  0  0  0  0  0  0  0  0  0  0  0  0  # atno 17370 bound_to 10713
  157.2898  130.6790  149.6108 LP  0  0  0  0  0  0  0  0  0  0  0  0  # atno 17371 bound_to 10713
  139.9560  134.7534  156.0341 LP  0  0  0  0  0  0  0  0  0  0  0  0  # atno 17394 bound_to 11000
  141.1287  133.6592  156.3406 LP  0  0  0  0  0  0  0  0  0  0  0  0  # atno 17395 bound_to 11000

$$$$
