AV-unprocessed.smi:1423|AV-procd|sdf|5795|dock2
  -GOLD-   22720 5443D 1   1.00000     0.00000
 Structure written by MMmdl.
 44 45  0  0  0  0  0  0  0  0  2 V2000
  152.8798  138.9477  158.8034 C   0  0  0  0  0  0  0  0  0  0  0  0
  152.5989  139.2597  157.4433 O   0  0  0  0  0  0  0  0  0  0  0  0
  151.7392  138.4356  156.7463 C   0  0  0  0  0  0  0  0  0  0  0  0
  150.9545  137.5145  157.4679 C   0  0  0  0  0  0  0  0  0  0  0  0
  150.0790  136.6656  156.7643 C   0  0  0  0  0  0  0  0  0  0  0  0
  150.0093  136.7707  155.3541 C   0  0  0  0  0  0  0  0  0  0  0  0
  149.1874  135.9604  154.5236 N   0  0  0  0  0  0  0  0  0  0  0  0
  148.7071  134.7268  154.7568 C   0  0  0  0  0  0  0  0  0  0  0  0
  148.8478  134.0897  155.8002 O   0  0  0  0  0  0  0  0  0  0  0  0
  148.0263  134.2639  153.6982 N   0  0  0  0  0  0  0  0  0  0  0  0
  147.3808  132.9562  153.6209 C   0  0  2  0  0  0  0  0  0  0  0  0
  148.4268  131.8251  153.6243 C   0  0  0  0  0  0  0  0  0  0  0  0
  147.7640  130.4507  153.4327 C   0  0  0  0  0  0  0  0  0  0  0  0
  146.9600  130.4153  152.1848 N   0  3  1  0  0  0  0  0  0  0  0  0
  146.4258  129.0614  151.8876 C   0  0  0  0  0  0  0  0  0  0  0  0
  147.5098  127.9787  151.9014 C   0  0  0  0  0  0  0  0  0  0  0  0
  148.4612  128.0655  150.9692 N   0  0  0  0  0  0  0  0  0  0  0  0
  147.4835  127.0687  152.7282 O   0  0  0  0  0  0  0  0  0  0  0  0
  145.9113  131.4699  152.1823 C   0  0  0  0  0  0  0  0  0  0  0  0
  146.5321  132.8676  152.3422 C   0  0  0  0  0  0  0  0  0  0  0  0
  150.8426  137.7205  154.7270 C   0  0  0  0  0  0  0  0  0  0  0  0
  151.6848  138.5361  155.3953 N   0  0  0  0  0  0  0  0  0  0  0  0
  153.5695  139.6881  159.2081 H   0  0  0  0  0  0  0  0  0  0  0  0
  153.3513  137.9687  158.9001 H   0  0  0  0  0  0  0  0  0  0  0  0
  151.9751  138.9717  159.4126 H   0  0  0  0  0  0  0  0  0  0  0  0
  151.0274  137.4546  158.5439 H   0  0  0  0  0  0  0  0  0  0  0  0
  149.4965  135.9483  157.3202 H   0  0  0  0  0  0  0  0  0  0  0  0
  148.9158  136.3831  153.6481 H   0  0  0  0  0  0  0  0  0  0  0  0
  147.9522  134.8583  152.8856 H   0  0  0  0  0  0  0  0  0  0  0  0
  146.7192  132.8340  154.4808 H   0  0  0  0  0  0  0  0  0  0  0  0
  149.1534  131.9896  152.8272 H   0  0  0  0  0  0  0  0  0  0  0  0
  148.9885  131.8309  154.5591 H   0  0  0  0  0  0  0  0  0  0  0  0
  148.5388  129.6843  153.3944 H   0  0  0  0  0  0  0  0  0  0  0  0
  147.1258  130.2162  154.2861 H   0  0  0  0  0  0  0  0  0  0  0  0
  145.6951  128.7790  152.6468 H   0  0  0  0  0  0  0  0  0  0  0  0
  145.8986  129.0674  150.9321 H   0  0  0  0  0  0  0  0  0  0  0  0
  149.2028  127.3809  150.9330 H   0  0  0  0  0  0  0  0  0  0  0  0
  148.4380  128.8226  150.3008 H   0  0  0  0  0  0  0  0  0  0  0  0
  145.3453  131.4354  151.2512 H   0  0  0  0  0  0  0  0  0  0  0  0
  145.2015  131.2806  152.9892 H   0  0  0  0  0  0  0  0  0  0  0  0
  145.7431  133.6207  152.3639 H   0  0  0  0  0  0  0  0  0  0  0  0
  147.1482  133.0903  151.4695 H   0  0  0  0  0  0  0  0  0  0  0  0
  150.8345  137.8315  153.6523 H   0  0  0  0  0  0  0  0  0  0  0  0
  147.5973  130.6323  151.4313 H   0  0  0  0  0  0  0  0  0  0  0  0
  1  2  1  0  0  0  0
  1 23  1  0  0  0  0
  1 24  1  0  0  0  0
  1 25  1  0  0  0  0
  2  3  1  0  0  0  0
  3 22  1  0  0  0  0
  3  4  2  0  0  0  0
  4  5  1  0  0  0  0
  4 26  1  0  0  0  0
  5  6  2  0  0  0  0
  5 27  1  0  0  0  0
  6  7  1  0  0  0  0
  6 21  1  0  0  0  0
  7  8  1  0  0  0  0
  7 28  1  0  0  0  0
  8  9  2  0  0  0  0
  8 10  1  0  0  0  0
 10 11  1  0  0  0  0
 10 29  1  0  0  0  0
 11 20  1  0  0  0  0
 11 12  1  0  0  0  0
 11 30  1  0  0  0  0
 12 13  1  0  0  0  0
 12 31  1  0  0  0  0
 12 32  1  0  0  0  0
 13 14  1  0  0  0  0
 13 33  1  0  0  0  0
 13 34  1  0  0  0  0
 14 15  1  0  0  0  0
 14 19  1  0  0  0  0
 14 44  1  0  0  0  0
 15 16  1  0  0  0  0
 15 35  1  0  0  0  0
 15 36  1  0  0  0  0
 16 17  1  0  0  0  0
 16 18  2  0  0  0  0
 17 37  1  0  0  0  0
 17 38  1  0  0  0  0
 19 20  1  0  0  0  0
 19 39  1  0  0  0  0
 19 40  1  0  0  0  0
 20 41  1  0  0  0  0
 20 42  1  0  0  0  0
 21 22  2  0  0  0  0
 21 43  1  0  0  0  0
M  CHG  1  14   1
M  END
> <s_m_source_file>
AV-unprocessed.smi

> <i_m_source_file_index>
1423

> <i_lp_mmshare_version>
43012

> <i_f3d_flags>
0

> <s_epik_input>
W0NIM11PYzFbY0hdW2NIXWMoW2NIXW4xKVtOSF1DKD1PKVtOSF1bQ0hdMltDSDJdW0NIMl1OKFtDSDJdW0NIMl0yKVtDSDJdQyg9TylbTkgyXQ==

> <s_epik_cmdline>
J2VwaWtfcHl0aG9uJywgJy1waCcsICc3LjAnLCAnLXRuJywgJzgnLCAnLW1hJywgJzIwMCcsICctbWV0YWxfYmluZGluZycsICctaW1hZScsICc8aW5maWxlLm1hZT4nLCAnLW9tYWUnLCAnPG91dGZpbGUubWFlPic=

> <r_lp_tautomer_probability>
1

> <r_epik_Ionization_Penalty>
0.838963

> <r_epik_Ionization_Penalty_Charging>
0.838844

> <r_epik_Ionization_Penalty_Neutral>
0.0001192

> <r_epik_State_Penalty>
0.8734

> <r_epik_Charging_Adjusted_Penalty>
1.71224

> <i_epik_Tot_Q>
1

> <i_epik_Tot_abs_Q>
1

> <r_epik_Metal_State_Penalty>
0.890706

> <b_epik_Metal_Only>
0

> <s_lp_Force_Field>
OPLS_2005

> <r_lp_Energy>
16.4152

> <b_lp_Chiralities_Consistent>
1

> <s_lp_Variant>
AV-unprocessed.smi:1423-2

> <Gold.Version>
5.8.1

> <Gold.Id.Protein>
6NUR|6NUR_protein|mol2

> <Gold.PLP.Fitness>
46.7741

> <Gold.PLP.PLP>
-32.4301

> <Gold.PLP.part.hbond>
-5.2490

> <Gold.PLP.part.metal>
0.0000

> <Gold.PLP.part.buried>
-3.4130

> <Gold.PLP.part.nonpolar>
-23.3429

> <Gold.PLP.part.repulsive>
0.3115

> <Gold.PLP.ligand.clash>
0.1201

> <Gold.PLP.ligand.torsion>
0.4054

> <Gold.PLP.Chemscore.Hbond>
4.0909

> <Gold.PLP.Chemscore.CHOScore>
0.9941

> <Gold.PLP.Chemscore.Metal>
0.0000

> <Gold.Chemscore.Hbonds>
donor molecule, donor type, donor heavy atom, donor atom, acceptor molecule, acceptor atom, score
      L1  H     7    28       P1  7948  0.90
      L1  H    10    29       P1  7948  0.83
      L1  H    14    44       P1 10747  1.00
      L1  H    17    38       P1 10747  0.18
      P1  H  7997  8008       L1     2  0.81
      L1  C    21    43       P1  7949  0.17

> <Gold.PLP.Chemscore.Internal.Correction>
0.0199

> <Gold.Rescore>
     Score         DG    S(hbond)    S(metal)    S(lipo)     H(rot)  DE(clash)    DE(int)     intcor
     16.73     -18.40       3.58        0.00      59.06       2.33       0.00       1.67       ----

> <Gold.Chemscore.Fitness>
16.7275

> <Gold.Chemscore.DG>
-18.4027

> <Gold.Chemscore.ZeroCoef>
-5.4800

> <Gold.Chemscore.Hbond>
3.5838

> <Gold.Chemscore.Metal>
0.0000

> <Gold.Chemscore.Lipo>
59.0595

> <Gold.Chemscore.Internal_Hbond>
0.0000

> <Gold.Chemscore.DEClash>
0.0004

> <Gold.Chemscore.DEInternal>
1.6747

> <Gold.Chemscore.Rot>
2.3271

> <Gold.Chemscore.Internal.Correction>
   9.000000E+99

> <Gold.Chemscore.Hbonds>
donor molecule, donor type, donor heavy atom, donor atom, acceptor molecule, acceptor atom, score
      L1  H     7    28       P1  7948  0.86
      L1  H    10    29       P1  7948  0.76
      L1  H    14    44       P1 10747  1.00
      P1  H  7997  8008       L1     2  0.32

> <Gold.Chemscore.Hbond.Weighted>
-11.9700

> <Gold.Chemscore.Metal.Weighted>
-0.0000

> <Gold.Chemscore.Lipo.Weighted>
-6.9100

> <Gold.Chemscore.Internal_Hbond.Weighted>
0.0000

> <Gold.Chemscore.DEClash.Weighted>
0.0004

> <Gold.Chemscore.DEInternal.Weighted>
1.6747

> <Gold.Chemscore.Rot.Weighted>
5.9573

> <Gold.Chemscore.Internal.Correction.Weighted>
   9.000000E+99

> <Gold.Protein.RotatedTorsions>
[ 6907 6896 6895 6894 ] final  179.43 input  -60.11 | X-H torsion
[ 7974 7965 7964 7962 ] final   -6.02 input  175.53 | X-H torsion
[ 8008 7997 7996 7995 ] final  -66.71 input   59.86 | X-H torsion
[ 10167 10162 10161 10158 ] final -127.83 input  -65.29 | X-H torsion
[ 10718 10713 10712 10709 ] final  171.01 input   66.30 | X-H torsion
[ 10763 10752 10751 10750 ] final  -80.57 input  -60.55 | X-H torsion
[ 11005 11000 10999 10996 ] final   71.89 input  -57.11 | X-H torsion

> <Gold.Protein.ActiveResidues>
 VAL166  LYS551  ARG553  GLY616  TRP617  ASP618  TYR619  PRO620  LYS621  CYS622 
 ASP623  PHE694  ASN695  SER759  ASP760  ASP761  ALA762  ILE779  LEU786  VAL792 
 PHE793  MET794  SER795  GLU796  ALA797  LYS798  CYS799  TRP800  GLU811  SER814 

> <Gold.Protein.RotatedAtoms>
  151.6718  133.3314  159.3198 H   0  0  0  0  0  0  0  0  0  0  0  0  # atno 6907 bound_to 6896
  150.7864  134.6856  159.6477 H   0  0  0  0  0  0  0  0  0  0  0  0  # atno 6908 bound_to 6896
  152.3935  134.6407  160.0150 H   0  0  0  0  0  0  0  0  0  0  0  0  # atno 6909 bound_to 6896
  146.2340  140.2108  142.8335 H   0  0  0  0  0  0  0  0  0  0  0  0  # atno 7974 bound_to 7965
  154.4752  140.0907  156.7244 H   0  0  0  0  0  0  0  0  0  0  0  0  # atno 8008 bound_to 7997
  155.4615  140.3461  155.4295 H   0  0  0  0  0  0  0  0  0  0  0  0  # atno 8009 bound_to 7997
  156.1105  140.1446  156.9333 H   0  0  0  0  0  0  0  0  0  0  0  0  # atno 8010 bound_to 7997
  139.9567  143.5995  152.2458 H   0  0  0  0  0  0  0  0  0  0  0  0  # atno 10167 bound_to 10162
  156.9998  131.0172  151.2834 H   0  0  0  0  0  0  0  0  0  0  0  0  # atno 10718 bound_to 10713
  154.5528  135.5656  153.6937 H   0  0  0  0  0  0  0  0  0  0  0  0  # atno 10763 bound_to 10752
  152.9995  135.6255  154.2350 H   0  0  0  0  0  0  0  0  0  0  0  0  # atno 10764 bound_to 10752
  154.2286  135.2867  155.2878 H   0  0  0  0  0  0  0  0  0  0  0  0  # atno 10765 bound_to 10752
  139.9520  134.7211  156.0841 H   0  0  0  0  0  0  0  0  0  0  0  0  # atno 11005 bound_to 11000
  144.9708  140.8366  143.5456 LP  0  0  0  0  0  0  0  0  0  0  0  0  # atno 17320 bound_to 7965
  145.2090  139.2214  143.5153 LP  0  0  0  0  0  0  0  0  0  0  0  0  # atno 17321 bound_to 7965
  139.6586  144.7662  151.2007 LP  0  0  0  0  0  0  0  0  0  0  0  0  # atno 17342 bound_to 10162
  140.7566  143.6046  150.8665 LP  0  0  0  0  0  0  0  0  0  0  0  0  # atno 17343 bound_to 10162
  157.5398  130.8113  149.8016 LP  0  0  0  0  0  0  0  0  0  0  0  0  # atno 17370 bound_to 10713
  156.0175  130.3808  150.2064 LP  0  0  0  0  0  0  0  0  0  0  0  0  # atno 17371 bound_to 10713
  141.1184  133.6620  156.3152 LP  0  0  0  0  0  0  0  0  0  0  0  0  # atno 17394 bound_to 11000
  140.5698  134.5852  157.5454 LP  0  0  0  0  0  0  0  0  0  0  0  0  # atno 17395 bound_to 11000

$$$$
