AV-unprocessed.smi:162|AV-procd|sdf|1376|dock9
  -GOLD-   2262019103D 1   1.00000     0.00000
 Structure written by MMmdl.
 54 57  0  0  0  0  0  0  0  0  1 V2000
  146.8222  141.8907  154.5862 C   0  0  0  0  0  0  0  0  0  0  0  0
  147.6251  141.5481  155.7049 O   0  0  0  0  0  0  0  0  0  0  0  0
  148.9298  141.0983  155.3665 C   0  0  0  0  0  0  0  0  0  0  0  0
  149.8295  140.9404  156.6118 C   0  0  2  0  0  0  0  0  0  0  0  0
  149.9534  142.2259  157.4385 C   0  0  0  0  0  0  0  0  0  0  0  0
  151.3499  142.1519  158.0791 C   0  0  1  0  0  0  0  0  0  0  0  0
  151.3006  142.0668  159.4965 O   0  0  0  0  0  0  0  0  0  0  0  0
  152.5703  142.1981  160.1156 C   0  0  0  0  0  0  0  0  0  0  0  0
  151.9565  140.8625  157.5142 C   0  0  0  0  0  0  0  0  0  0  0  0
  151.2054  140.5773  156.2994 N   0  0  0  0  0  0  0  0  0  0  0  0
  151.3689  139.3481  155.7554 C   0  0  0  0  0  0  0  0  0  0  0  0
  151.6222  139.2065  154.4270 N   0  0  0  0  0  0  0  0  0  0  0  0
  151.8132  137.9896  153.9077 C   0  0  0  0  0  0  0  0  0  0  0  0
  151.8022  136.8066  154.5259 N   0  0  0  0  0  0  0  0  0  0  0  0
  151.5500  136.9469  155.8590 C   0  0  0  0  0  0  0  0  0  0  0  0
  151.3220  138.1705  156.5477 C   0  0  0  0  0  0  0  0  0  0  0  0
  151.1065  137.9249  157.8976 N   0  0  0  0  0  0  0  0  0  0  0  0
  151.2098  136.6281  158.0030 C   0  0  0  0  0  0  0  0  0  0  0  0
  151.4652  135.9602  156.8259 N   0  0  0  0  0  0  0  0  0  0  0  0
  151.6383  134.5261  156.6557 C   0  0  0  0  0  0  0  0  0  0  0  0
  150.4459  133.8096  155.9730 C   0  0  0  0  0  0  0  0  0  0  0  0
  149.3420  134.0186  156.8354 O   0  0  0  0  0  0  0  0  0  0  0  0
  150.0989  134.4042  154.5911 C   0  0  0  0  0  0  0  0  0  0  0  0
  148.9682  133.6216  153.8988 C   0  0  0  0  0  0  0  0  0  0  0  0
  149.3229  132.2475  153.7907 O   0  0  0  0  0  0  0  0  0  0  0  0
  149.5011  131.6209  155.0560 C   0  0  0  0  0  0  0  0  0  0  0  0
  150.6614  132.2885  155.8164 C   0  0  0  0  0  0  0  0  0  0  0  0
  149.4288  140.1542  157.2534 H   0  0  0  0  0  0  0  0  0  0  0  0
  151.9554  143.0027  157.7614 H   0  0  0  0  0  0  0  0  0  0  0  0
  145.8676  142.2852  154.9336 H   0  0  0  0  0  0  0  0  0  0  0  0
  146.6110  141.0252  153.9587 H   0  0  0  0  0  0  0  0  0  0  0  0
  147.2983  142.6587  153.9758 H   0  0  0  0  0  0  0  0  0  0  0  0
  148.8605  140.1674  154.8024 H   0  0  0  0  0  0  0  0  0  0  0  0
  149.3702  141.8337  154.6923 H   0  0  0  0  0  0  0  0  0  0  0  0
  149.8993  143.1044  156.7941 H   0  0  0  0  0  0  0  0  0  0  0  0
  149.1471  142.3038  158.1682 H   0  0  0  0  0  0  0  0  0  0  0  0
  152.4569  142.1279  161.1972 H   0  0  0  0  0  0  0  0  0  0  0  0
  153.0336  143.1590  159.8903 H   0  0  0  0  0  0  0  0  0  0  0  0
  153.2455  141.4026  159.7984 H   0  0  0  0  0  0  0  0  0  0  0  0
  153.0204  140.9764  157.3047 H   0  0  0  0  0  0  0  0  0  0  0  0
  151.8421  140.0547  158.2387 H   0  0  0  0  0  0  0  0  0  0  0  0
  152.0058  137.9599  152.8455 H   0  0  0  0  0  0  0  0  0  0  0  0
  151.0987  136.1189  158.9494 H   0  0  0  0  0  0  0  0  0  0  0  0
  152.5506  134.3655  156.0794 H   0  0  0  0  0  0  0  0  0  0  0  0
  151.8237  134.0917  157.6392 H   0  0  0  0  0  0  0  0  0  0  0  0
  149.5061  133.5657  157.6485 H   0  0  0  0  0  0  0  0  0  0  0  0
  149.8264  135.4564  154.6831 H   0  0  0  0  0  0  0  0  0  0  0  0
  150.9731  134.3687  153.9415 H   0  0  0  0  0  0  0  0  0  0  0  0
  148.0266  133.7256  154.4402 H   0  0  0  0  0  0  0  0  0  0  0  0
  148.7998  134.0190  152.8979 H   0  0  0  0  0  0  0  0  0  0  0  0
  148.5748  131.6647  155.6306 H   0  0  0  0  0  0  0  0  0  0  0  0
  149.7208  130.5654  154.8951 H   0  0  0  0  0  0  0  0  0  0  0  0
  151.5776  132.0997  155.2570 H   0  0  0  0  0  0  0  0  0  0  0  0
  150.7943  131.8168  156.7907 H   0  0  0  0  0  0  0  0  0  0  0  0
  1  2  1  0  0  0  0
  1 30  1  0  0  0  0
  1 31  1  0  0  0  0
  1 32  1  0  0  0  0
  2  3  1  0  0  0  0
  3  4  1  0  0  0  0
  3 33  1  0  0  0  0
  3 34  1  0  0  0  0
  4 28  1  0  0  0  0
  4 10  1  0  0  0  0
  4  5  1  0  0  0  0
  5  6  1  0  0  0  0
  5 35  1  0  0  0  0
  5 36  1  0  0  0  0
  6 29  1  0  0  0  0
  6  7  1  0  0  0  0
  6  9  1  0  0  0  0
  7  8  1  0  0  0  0
  8 37  1  0  0  0  0
  8 38  1  0  0  0  0
  8 39  1  0  0  0  0
  9 10  1  0  0  0  0
  9 40  1  0  0  0  0
  9 41  1  0  0  0  0
 10 11  1  0  0  0  0
 11 16  1  0  0  0  0
 11 12  2  0  0  0  0
 12 13  1  0  0  0  0
 13 14  2  0  0  0  0
 13 42  1  0  0  0  0
 14 15  1  0  0  0  0
 15 19  1  0  0  0  0
 15 16  2  0  0  0  0
 16 17  1  0  0  0  0
 17 18  2  0  0  0  0
 18 19  1  0  0  0  0
 18 43  1  0  0  0  0
 19 20  1  0  0  0  0
 20 21  1  0  0  0  0
 20 44  1  0  0  0  0
 20 45  1  0  0  0  0
 21 27  1  0  0  0  0
 21 22  1  0  0  0  0
 21 23  1  0  0  0  0
 22 46  1  0  0  0  0
 23 24  1  0  0  0  0
 23 47  1  0  0  0  0
 23 48  1  0  0  0  0
 24 25  1  0  0  0  0
 24 49  1  0  0  0  0
 24 50  1  0  0  0  0
 25 26  1  0  0  0  0
 26 27  1  0  0  0  0
 26 51  1  0  0  0  0
 26 52  1  0  0  0  0
 27 53  1  0  0  0  0
 27 54  1  0  0  0  0
M  END
> <s_m_source_file>
AV-unprocessed.smi

> <i_m_source_file_index>
162

> <i_lp_mmshare_version>
43012

> <i_f3d_flags>
0

> <s_epik_input>
W0NIM11PW0NIMl1bQ0BASF0xW0NIMl1bQ0BASF0oT1tDSDNdKVtDSDJdTjFjKG5bY0hdbjIpYyhjMjMpbltjSF1uM1tDSDJdQzQoW09IXSlbQ0gyXVtDSDJdT1tDSDJdW0NIMl00

> <s_epik_cmdline>
J2VwaWtfcHl0aG9uJywgJy1waCcsICc3LjAnLCAnLXRuJywgJzgnLCAnLW1hJywgJzIwMCcsICctbWV0YWxfYmluZGluZycsICctaW1hZScsICc8aW5maWxlLm1hZT4nLCAnLW9tYWUnLCAnPG91dGZpbGUubWFlPic=

> <r_lp_tautomer_probability>
1

> <r_epik_Ionization_Penalty>
0.00660334

> <r_epik_Ionization_Penalty_Charging>
0

> <r_epik_Ionization_Penalty_Neutral>
0.00660334

> <r_epik_State_Penalty>
0.00469459

> <r_epik_Charging_Adjusted_Penalty>
0.00469459

> <i_epik_Tot_Q>
0

> <i_epik_Tot_abs_Q>
0

> <r_epik_Metal_State_Penalty>
-0

> <b_epik_Metal_Only>
0

> <s_lp_Force_Field>
OPLS_2005

> <r_lp_Energy>
45.7705

> <b_lp_Chiralities_Consistent>
1

> <s_lp_Variant>
AV-unprocessed.smi:162-1

> <Gold.Version>
5.8.1

> <Gold.Id.Protein>
6NUR|6NUR_protein|mol2

> <Gold.PLP.Fitness>
42.6320

> <Gold.PLP.PLP>
-35.3878

> <Gold.PLP.part.hbond>
-2.7614

> <Gold.PLP.part.metal>
0.0000

> <Gold.PLP.part.buried>
-2.7153

> <Gold.PLP.part.nonpolar>
-30.9747

> <Gold.PLP.part.repulsive>
0.5297

> <Gold.PLP.ligand.clash>
0.0000

> <Gold.PLP.ligand.torsion>
0.6184

> <Gold.PLP.Chemscore.Hbond>
2.0000

> <Gold.PLP.Chemscore.CHOScore>
0.8011

> <Gold.PLP.Chemscore.Metal>
0.0000

> <Gold.Chemscore.Hbonds>
donor molecule, donor type, donor heavy atom, donor atom, acceptor molecule, acceptor atom, score
      P1  H  7989  7998       L1    12  1.00
      P1  H 10752 10764       L1    14  1.00
      L1  C    13    42       P1  7949  0.80

> <Gold.PLP.Chemscore.Internal.Correction>
0.0778

> <Gold.Rescore>
     Score         DG    S(hbond)    S(metal)    S(lipo)     H(rot)  DE(clash)    DE(int)     intcor
     12.91     -13.45       1.83        0.00      78.65       2.86       0.06       0.48       ----

> <Gold.Chemscore.Fitness>
12.9132

> <Gold.Chemscore.DG>
-13.4491

> <Gold.Chemscore.ZeroCoef>
-5.4800

> <Gold.Chemscore.Hbond>
1.8261

> <Gold.Chemscore.Metal>
0.0000

> <Gold.Chemscore.Lipo>
78.6534

> <Gold.Chemscore.Internal_Hbond>
0.0000

> <Gold.Chemscore.DEClash>
0.0588

> <Gold.Chemscore.DEInternal>
0.4771

> <Gold.Chemscore.Rot>
2.8642

> <Gold.Chemscore.Internal.Correction>
   9.000000E+99

> <Gold.Chemscore.Hbonds>
donor molecule, donor type, donor heavy atom, donor atom, acceptor molecule, acceptor atom, score
      P1  H  7989  7998       L1    12  0.86
      P1  H 10752 10764       L1    14  0.69

> <Gold.Chemscore.Hbond.Weighted>
-6.0990

> <Gold.Chemscore.Metal.Weighted>
-0.0000

> <Gold.Chemscore.Lipo.Weighted>
-9.2025

> <Gold.Chemscore.Internal_Hbond.Weighted>
0.0000

> <Gold.Chemscore.DEClash.Weighted>
0.0588

> <Gold.Chemscore.DEInternal.Weighted>
0.4771

> <Gold.Chemscore.Rot.Weighted>
7.3324

> <Gold.Chemscore.Internal.Correction.Weighted>
   9.000000E+99

> <Gold.Protein.RotatedTorsions>
[ 6907 6896 6895 6894 ] final -115.10 input  -60.11 | X-H torsion
[ 7974 7965 7964 7962 ] final -150.27 input  175.53 | X-H torsion
[ 8008 7997 7996 7995 ] final -147.41 input   59.86 | X-H torsion
[ 10167 10162 10161 10158 ] final   51.27 input  -65.29 | X-H torsion
[ 10718 10713 10712 10709 ] final -119.97 input   66.30 | X-H torsion
[ 10763 10752 10751 10750 ] final  -76.72 input  -60.55 | X-H torsion
[ 11005 11000 10999 10996 ] final -128.23 input  -57.11 | X-H torsion

> <Gold.Protein.ActiveResidues>
 VAL166  LYS551  ARG553  GLY616  TRP617  ASP618  TYR619  PRO620  LYS621  CYS622 
 ASP623  PHE694  ASN695  SER759  ASP760  ASP761  ALA762  ILE779  LEU786  VAL792 
 PHE793  MET794  SER795  GLU796  ALA797  LYS798  CYS799  TRP800  GLU811  SER814 

> <Gold.Protein.RotatedAtoms>
  150.7952  133.8706  159.3257 H   0  0  0  0  0  0  0  0  0  0  0  0  # atno 6907 bound_to 6896
  151.6534  135.0997  160.0174 H   0  0  0  0  0  0  0  0  0  0  0  0  # atno 6908 bound_to 6896
  152.4033  133.6811  159.6370 H   0  0  0  0  0  0  0  0  0  0  0  0  # atno 6909 bound_to 6896
  144.7917  140.4953  143.5768 H   0  0  0  0  0  0  0  0  0  0  0  0  # atno 7974 bound_to 7965
  155.5752  140.0638  157.2797 H   0  0  0  0  0  0  0  0  0  0  0  0  # atno 8008 bound_to 7997
  154.4349  140.1862  156.0966 H   0  0  0  0  0  0  0  0  0  0  0  0  # atno 8009 bound_to 7997
  156.0347  140.3302  155.7181 H   0  0  0  0  0  0  0  0  0  0  0  0  # atno 8010 bound_to 7997
  140.2637  144.3344  150.6310 H   0  0  0  0  0  0  0  0  0  0  0  0  # atno 10167 bound_to 10162
  156.1222  130.6331  150.9482 H   0  0  0  0  0  0  0  0  0  0  0  0  # atno 10718 bound_to 10713
  154.5036  135.5788  153.6550 H   0  0  0  0  0  0  0  0  0  0  0  0  # atno 10763 bound_to 10752
  152.9883  135.6141  154.2970 H   0  0  0  0  0  0  0  0  0  0  0  0  # atno 10764 bound_to 10752
  154.2880  135.2849  155.2647 H   0  0  0  0  0  0  0  0  0  0  0  0  # atno 10765 bound_to 10752
  140.9533  134.1035  157.4040 H   0  0  0  0  0  0  0  0  0  0  0  0  # atno 11005 bound_to 11000
  145.5777  139.1487  143.3253 LP  0  0  0  0  0  0  0  0  0  0  0  0  # atno 17320 bound_to 7965
  146.2172  140.5908  142.9033 LP  0  0  0  0  0  0  0  0  0  0  0  0  # atno 17321 bound_to 7965
  140.5945  143.2167  151.7189 LP  0  0  0  0  0  0  0  0  0  0  0  0  # atno 17342 bound_to 10162
  139.5009  144.3888  152.0301 LP  0  0  0  0  0  0  0  0  0  0  0  0  # atno 17343 bound_to 10162
  157.6405  131.0911  150.8261 LP  0  0  0  0  0  0  0  0  0  0  0  0  # atno 17370 bound_to 10713
  156.8356  130.5031  149.5326 LP  0  0  0  0  0  0  0  0  0  0  0  0  # atno 17371 bound_to 10713
  139.8854  135.0072  156.6434 LP  0  0  0  0  0  0  0  0  0  0  0  0  # atno 17394 bound_to 11000
  140.7571  133.8848  155.8390 LP  0  0  0  0  0  0  0  0  0  0  0  0  # atno 17395 bound_to 11000

$$$$
