AV-unprocessed.smi:1026|AV-procd|sdf|4468|dock4
  -GOLD-   22720 2443D 1   1.00000     0.00000
 Structure written by MMmdl.
 40 41  0  0  0  0  0  0  0  0  1 V2000
  143.8458  146.5771  155.3137 C   0  0  0  0  0  0  0  0  0  0  0  0
  143.8851  145.6016  154.1325 C   0  0  0  0  0  0  0  0  0  0  0  0
  144.6243  144.3453  154.4514 C   0  0  0  0  0  0  0  0  0  0  0  0
  145.5966  143.8487  153.6823 N   0  0  0  0  0  0  0  0  0  0  0  0
  146.1116  142.6448  154.1732 C   0  0  0  0  0  0  0  0  0  0  0  0
  147.2177  141.9514  153.4373 C   0  0  0  0  0  0  0  0  0  0  0  0
  148.1654  141.1976  154.3850 C   0  0  0  0  0  0  0  0  0  0  0  0
  148.7792  142.0972  155.3548 N   0  0  0  0  0  0  0  0  0  0  0  0
  149.5279  141.7077  156.4007 C   0  0  0  0  0  0  0  0  0  0  0  0
  149.7887  140.5313  156.6450 O   0  0  0  0  0  0  0  0  0  0  0  0
  149.9839  142.7088  157.1753 N   0  0  0  0  0  0  0  0  0  0  0  0
  150.8165  142.6286  158.3775 C   0  0  0  0  0  0  0  0  0  0  0  0
  151.4815  143.9916  158.6651 C   0  0  0  0  0  0  0  0  0  0  0  0
  152.3236  143.9757  159.9493 C   0  0  0  0  0  0  0  0  0  0  0  0
  153.6946  142.7951  159.8249 S   0  0  0  0  0  0  0  0  0  0  0  0
  152.7334  141.3069  159.4392 C   0  0  0  0  0  0  0  0  0  0  0  0
  151.8636  141.5138  158.1906 C   0  0  0  0  0  0  0  0  0  0  0  0
  145.5028  142.2284  155.3309 C   0  0  0  0  0  0  0  0  0  0  0  0
  144.2557  143.3324  155.8428 S   0  0  0  0  0  0  0  0  0  0  0  0
  143.2974  147.4821  155.0520 H   0  0  0  0  0  0  0  0  0  0  0  0
  144.8517  146.8715  155.6143 H   0  0  0  0  0  0  0  0  0  0  0  0
  143.3549  146.1282  156.1778 H   0  0  0  0  0  0  0  0  0  0  0  0
  142.8698  145.3455  153.8272 H   0  0  0  0  0  0  0  0  0  0  0  0
  144.3589  146.0769  153.2731 H   0  0  0  0  0  0  0  0  0  0  0  0
  146.7998  141.2524  152.7120 H   0  0  0  0  0  0  0  0  0  0  0  0
  147.7827  142.6808  152.8557 H   0  0  0  0  0  0  0  0  0  0  0  0
  147.6345  140.3965  154.9025 H   0  0  0  0  0  0  0  0  0  0  0  0
  148.9619  140.7220  153.8123 H   0  0  0  0  0  0  0  0  0  0  0  0
  148.6195  143.0856  155.2268 H   0  0  0  0  0  0  0  0  0  0  0  0
  149.7327  143.6427  156.8843 H   0  0  0  0  0  0  0  0  0  0  0  0
  150.1918  142.3506  159.2284 H   0  0  0  0  0  0  0  0  0  0  0  0
  152.1067  144.2872  157.8214 H   0  0  0  0  0  0  0  0  0  0  0  0
  150.7169  144.7633  158.7602 H   0  0  0  0  0  0  0  0  0  0  0  0
  152.7350  144.9664  160.1424 H   0  0  0  0  0  0  0  0  0  0  0  0
  151.7043  143.7135  160.8075 H   0  0  0  0  0  0  0  0  0  0  0  0
  153.4232  140.4770  159.2844 H   0  0  0  0  0  0  0  0  0  0  0  0
  152.1130  141.0507  160.2987 H   0  0  0  0  0  0  0  0  0  0  0  0
  151.3572  140.5762  157.9575 H   0  0  0  0  0  0  0  0  0  0  0  0
  152.5010  141.7371  157.3338 H   0  0  0  0  0  0  0  0  0  0  0  0
  145.7089  141.3404  155.9099 H   0  0  0  0  0  0  0  0  0  0  0  0
  1  2  1  0  0  0  0
  1 20  1  0  0  0  0
  1 21  1  0  0  0  0
  1 22  1  0  0  0  0
  2  3  1  0  0  0  0
  2 23  1  0  0  0  0
  2 24  1  0  0  0  0
  3 19  1  0  0  0  0
  3  4  2  0  0  0  0
  4  5  1  0  0  0  0
  5  6  1  0  0  0  0
  5 18  2  0  0  0  0
  6  7  1  0  0  0  0
  6 25  1  0  0  0  0
  6 26  1  0  0  0  0
  7  8  1  0  0  0  0
  7 27  1  0  0  0  0
  7 28  1  0  0  0  0
  8  9  1  0  0  0  0
  8 29  1  0  0  0  0
  9 10  2  0  0  0  0
  9 11  1  0  0  0  0
 11 12  1  0  0  0  0
 11 30  1  0  0  0  0
 12 17  1  0  0  0  0
 12 13  1  0  0  0  0
 12 31  1  0  0  0  0
 13 14  1  0  0  0  0
 13 32  1  0  0  0  0
 13 33  1  0  0  0  0
 14 15  1  0  0  0  0
 14 34  1  0  0  0  0
 14 35  1  0  0  0  0
 15 16  1  0  0  0  0
 16 17  1  0  0  0  0
 16 36  1  0  0  0  0
 16 37  1  0  0  0  0
 17 38  1  0  0  0  0
 17 39  1  0  0  0  0
 18 19  1  0  0  0  0
 18 40  1  0  0  0  0
M  END
> <s_m_source_file>
AV-unprocessed.smi

> <i_m_source_file_index>
1026

> <i_lp_mmshare_version>
43012

> <i_f3d_flags>
0

> <s_epik_input>
W0NIM11bQ0gyXWMxbmMoW2NIXXMxKVtDSDJdW0NIMl1bTkhdQyg9TylbTkhdW0NIXTJbQ0gyXVtDSDJdU1tDSDJdW0NIMl0y

> <s_epik_cmdline>
J2VwaWtfcHl0aG9uJywgJy1waCcsICc3LjAnLCAnLXRuJywgJzgnLCAnLW1hJywgJzIwMCcsICctbWV0YWxfYmluZGluZycsICctaW1hZScsICc8aW5maWxlLm1hZT4nLCAnLW9tYWUnLCAnPG91dGZpbGUubWFlPic=

> <r_epik_Ionization_Penalty>
0.00199316

> <r_epik_Ionization_Penalty_Charging>
0

> <r_epik_Ionization_Penalty_Neutral>
0.00199316

> <r_epik_State_Penalty>
0.00132065

> <r_epik_Charging_Adjusted_Penalty>
0.00132065

> <i_epik_Tot_Q>
0

> <i_epik_Tot_abs_Q>
0

> <r_epik_Metal_State_Penalty>
-0

> <b_epik_Metal_Only>
0

> <s_lp_Force_Field>
OPLS_2005

> <r_lp_Energy>
4.0728

> <b_lp_Chiralities_Consistent>
1

> <s_lp_Variant>
AV-unprocessed.smi:1026-1

> <Gold.Version>
5.8.1

> <Gold.Id.Protein>
6NUR|6NUR_protein|mol2

> <Gold.PLP.Fitness>
44.8086

> <Gold.PLP.PLP>
-40.2741

> <Gold.PLP.part.hbond>
-2.0000

> <Gold.PLP.part.metal>
0.0000

> <Gold.PLP.part.buried>
-6.1052

> <Gold.PLP.part.nonpolar>
-31.7321

> <Gold.PLP.part.repulsive>
0.4127

> <Gold.PLP.ligand.clash>
0.0000

> <Gold.PLP.ligand.torsion>
0.7493

> <Gold.PLP.Chemscore.Hbond>
2.0000

> <Gold.PLP.Chemscore.CHOScore>
0.0000

> <Gold.PLP.Chemscore.Metal>
0.0000

> <Gold.Chemscore.Hbonds>
donor molecule, donor type, donor heavy atom, donor atom, acceptor molecule, acceptor atom, score
      L1  H     8    29       P1  8028  1.00
      L1  H    11    30       P1  8028  0.98

> <Gold.PLP.Chemscore.Internal.Correction>
0.0331

> <Gold.Rescore>
     Score         DG    S(hbond)    S(metal)    S(lipo)     H(rot)  DE(clash)    DE(int)     intcor
     18.40     -19.83       1.89        0.00     103.32       1.58       0.02       1.41       ----

> <Gold.Chemscore.Fitness>
18.3998

> <Gold.Chemscore.DG>
-19.8334

> <Gold.Chemscore.ZeroCoef>
-5.4800

> <Gold.Chemscore.Hbond>
1.8866

> <Gold.Chemscore.Metal>
0.0000

> <Gold.Chemscore.Lipo>
103.3237

> <Gold.Chemscore.Internal_Hbond>
0.0000

> <Gold.Chemscore.DEClash>
0.0249

> <Gold.Chemscore.DEInternal>
1.4087

> <Gold.Chemscore.Rot>
1.5768

> <Gold.Chemscore.Internal.Correction>
   9.000000E+99

> <Gold.Chemscore.Hbonds>
donor molecule, donor type, donor heavy atom, donor atom, acceptor molecule, acceptor atom, score
      L1  H     8    29       P1  8028  0.97
      L1  H    11    30       P1  8028  0.92

> <Gold.Chemscore.Hbond.Weighted>
-6.3012

> <Gold.Chemscore.Metal.Weighted>
-0.0000

> <Gold.Chemscore.Lipo.Weighted>
-12.0889

> <Gold.Chemscore.Internal_Hbond.Weighted>
0.0000

> <Gold.Chemscore.DEClash.Weighted>
0.0249

> <Gold.Chemscore.DEInternal.Weighted>
1.4087

> <Gold.Chemscore.Rot.Weighted>
4.0367

> <Gold.Chemscore.Internal.Correction.Weighted>
   9.000000E+99

> <Gold.Protein.RotatedTorsions>
[ 6907 6896 6895 6894 ] final  -79.93 input  -60.11 | X-H torsion
[ 7974 7965 7964 7962 ] final  -81.12 input  175.53 | X-H torsion
[ 8008 7997 7996 7995 ] final   14.29 input   59.86 | X-H torsion
[ 10167 10162 10161 10158 ] final  127.27 input  -65.29 | X-H torsion
[ 10718 10713 10712 10709 ] final  -31.71 input   66.30 | X-H torsion
[ 10763 10752 10751 10750 ] final -158.19 input  -60.55 | X-H torsion
[ 11005 11000 10999 10996 ] final -132.38 input  -57.11 | X-H torsion

> <Gold.Protein.ActiveResidues>
 VAL166  LYS551  ARG553  GLY616  TRP617  ASP618  TYR619  PRO620  LYS621  CYS622 
 ASP623  PHE694  ASN695  SER759  ASP760  ASP761  ALA762  ILE779  LEU786  VAL792 
 PHE793  MET794  SER795  GLU796  ALA797  LYS798  CYS799  TRP800  GLU811  SER814 

> <Gold.Protein.RotatedAtoms>
  150.6939  134.4046  159.5133 H   0  0  0  0  0  0  0  0  0  0  0  0  # atno 6907 bound_to 6896
  152.1814  134.8748  160.0535 H   0  0  0  0  0  0  0  0  0  0  0  0  # atno 6908 bound_to 6896
  151.9737  133.3699  159.4118 H   0  0  0  0  0  0  0  0  0  0  0  0  # atno 6909 bound_to 6896
  145.5509  140.9496  143.1499 H   0  0  0  0  0  0  0  0  0  0  0  0  # atno 7974 bound_to 7965
  154.8464  140.2922  155.5626 H   0  0  0  0  0  0  0  0  0  0  0  0  # atno 8008 bound_to 7997
  156.3014  140.2504  156.3347 H   0  0  0  0  0  0  0  0  0  0  0  0  # atno 8009 bound_to 7997
  154.9069  140.0389  157.1914 H   0  0  0  0  0  0  0  0  0  0  0  0  # atno 8010 bound_to 7997
  139.5587  144.6867  151.4106 H   0  0  0  0  0  0  0  0  0  0  0  0  # atno 10167 bound_to 10162
  156.3839  130.4361  149.7447 H   0  0  0  0  0  0  0  0  0  0  0  0  # atno 10718 bound_to 10713
  154.7576  135.3109  154.8440 H   0  0  0  0  0  0  0  0  0  0  0  0  # atno 10763 bound_to 10752
  153.9209  135.6795  153.4752 H   0  0  0  0  0  0  0  0  0  0  0  0  # atno 10764 bound_to 10752
  153.1174  135.4838  154.9069 H   0  0  0  0  0  0  0  0  0  0  0  0  # atno 10765 bound_to 10752
  140.9175  134.1487  157.4340 H   0  0  0  0  0  0  0  0  0  0  0  0  # atno 11005 bound_to 11000
  144.7530  139.7146  143.7265 LP  0  0  0  0  0  0  0  0  0  0  0  0  # atno 17320 bound_to 7965
  146.1917  139.5161  142.9801 LP  0  0  0  0  0  0  0  0  0  0  0  0  # atno 17321 bound_to 7965
  140.6864  143.7964  150.7192 LP  0  0  0  0  0  0  0  0  0  0  0  0  # atno 17342 bound_to 10162
  140.1433  143.4422  152.2179 LP  0  0  0  0  0  0  0  0  0  0  0  0  # atno 17343 bound_to 10162
  156.4527  130.7914  151.2935 LP  0  0  0  0  0  0  0  0  0  0  0  0  # atno 17370 bound_to 10713
  157.7494  131.0090  150.3251 LP  0  0  0  0  0  0  0  0  0  0  0  0  # atno 17371 bound_to 10713
  139.8769  134.9959  156.5768 LP  0  0  0  0  0  0  0  0  0  0  0  0  # atno 17394 bound_to 11000
  140.8030  133.8490  155.8743 LP  0  0  0  0  0  0  0  0  0  0  0  0  # atno 17395 bound_to 11000

$$$$
