AV-unprocessed.smi:438|AV-procd|sdf|2571|dock1
  -GOLD-   2262022543D 1   1.00000     0.00000
 Structure written by MMmdl.
 47 48  0  0  0  0  0  0  0  0  2 V2000
  147.6507  133.2452  159.8966 C   0  0  0  0  0  0  0  0  0  0  0  0
  147.5709  134.7455  160.1160 C   0  0  0  0  0  0  0  0  0  0  0  0
  148.3111  135.5357  159.2204 N   0  0  0  0  0  0  0  0  0  0  0  0
  148.2940  136.8075  159.3385 C   0  0  0  0  0  0  0  0  0  0  0  0
  149.2560  137.7593  158.1473 S   0  0  0  0  0  0  0  0  0  0  0  0
  150.9747  137.2421  158.4383 C   0  0  0  0  0  0  0  0  0  0  0  0
  151.8971  138.4311  158.6905 C   0  0  0  0  0  0  0  0  0  0  0  0
  153.0250  138.2477  159.1473 O   0  0  0  0  0  0  0  0  0  0  0  0
  151.3964  139.6427  158.3924 N   0  0  0  0  0  0  0  0  0  0  0  0
  152.0391  140.9463  158.5793 C   0  0  2  0  0  0  0  0  0  0  0  0
  152.2369  141.2822  160.0740 C   0  0  0  0  0  0  0  0  0  0  0  0
  152.9931  142.6071  160.2504 C   0  0  0  0  0  0  0  0  0  0  0  0
  152.2774  143.7498  159.5153 C   0  0  0  0  0  0  0  0  0  0  0  0
  152.0903  143.4225  158.0252 C   0  0  0  0  0  0  0  0  0  0  0  0
  151.3269  142.0981  157.8185 C   0  0  1  0  0  0  0  0  0  0  0  0
  151.1550  141.8022  156.3177 C   0  0  0  0  0  0  0  0  0  0  0  0
  147.5884  137.4773  160.3137 N   0  5  0  0  0  0  0  0  0  0  0  0
  146.8448  136.7820  161.2206 C   0  0  0  0  0  0  0  0  0  0  0  0
  146.2022  137.3430  162.1074 O   0  0  0  0  0  0  0  0  0  0  0  0
  146.8356  135.3125  161.1145 C   0  0  0  0  0  0  0  0  0  0  0  0
  145.9973  134.5073  162.1046 C   0  0  0  0  0  0  0  0  0  0  0  0
  144.5007  134.8307  161.9930 C   0  0  0  0  0  0  0  0  0  0  0  0
  143.7436  133.8305  162.6398 O   0  0  0  0  0  0  0  0  0  0  0  0
  147.9191  132.7343  160.8214 H   0  0  0  0  0  0  0  0  0  0  0  0
  148.4028  132.9952  159.1474 H   0  0  0  0  0  0  0  0  0  0  0  0
  146.6907  132.8611  159.5515 H   0  0  0  0  0  0  0  0  0  0  0  0
  151.3389  136.6840  157.5749 H   0  0  0  0  0  0  0  0  0  0  0  0
  151.0071  136.5701  159.2970 H   0  0  0  0  0  0  0  0  0  0  0  0
  150.4578  139.6650  158.0205 H   0  0  0  0  0  0  0  0  0  0  0  0
  153.0321  140.8334  158.1419 H   0  0  0  0  0  0  0  0  0  0  0  0
  151.2742  141.3558  160.5806 H   0  0  0  0  0  0  0  0  0  0  0  0
  152.7855  140.4799  160.5685 H   0  0  0  0  0  0  0  0  0  0  0  0
  153.0834  142.8455  161.3104 H   0  0  0  0  0  0  0  0  0  0  0  0
  154.0094  142.5045  159.8680 H   0  0  0  0  0  0  0  0  0  0  0  0
  151.3048  143.9289  159.9756 H   0  0  0  0  0  0  0  0  0  0  0  0
  152.8457  144.6741  159.6237 H   0  0  0  0  0  0  0  0  0  0  0  0
  151.5568  144.2403  157.5397 H   0  0  0  0  0  0  0  0  0  0  0  0
  153.0670  143.3644  157.5428 H   0  0  0  0  0  0  0  0  0  0  0  0
  150.3303  142.2313  158.2409 H   0  0  0  0  0  0  0  0  0  0  0  0
  152.1177  141.6301  155.8355 H   0  0  0  0  0  0  0  0  0  0  0  0
  150.6724  142.6363  155.8077 H   0  0  0  0  0  0  0  0  0  0  0  0
  150.5354  140.9215  156.1484 H   0  0  0  0  0  0  0  0  0  0  0  0
  146.3363  134.6981  163.1225 H   0  0  0  0  0  0  0  0  0  0  0  0
  146.1658  133.4414  161.9441 H   0  0  0  0  0  0  0  0  0  0  0  0
  144.2801  135.7945  162.4520 H   0  0  0  0  0  0  0  0  0  0  0  0
  144.1928  134.8878  160.9486 H   0  0  0  0  0  0  0  0  0  0  0  0
  143.4724  134.1593  163.4829 H   0  0  0  0  0  0  0  0  0  0  0  0
  1 24  1  0  0  0  0
  1 25  1  0  0  0  0
  1 26  1  0  0  0  0
  1  2  1  0  0  0  0
  2 20  2  0  0  0  0
  2  3  1  0  0  0  0
  3  4  2  0  0  0  0
  4  5  1  0  0  0  0
  4 17  1  0  0  0  0
  5  6  1  0  0  0  0
  6  7  1  0  0  0  0
  6 27  1  0  0  0  0
  6 28  1  0  0  0  0
  7  8  2  0  0  0  0
  7  9  1  0  0  0  0
  9 10  1  0  0  0  0
  9 29  1  0  0  0  0
 10 15  1  0  0  0  0
 10 11  1  0  0  0  0
 10 30  1  0  0  0  0
 11 12  1  0  0  0  0
 11 31  1  0  0  0  0
 11 32  1  0  0  0  0
 12 13  1  0  0  0  0
 12 33  1  0  0  0  0
 12 34  1  0  0  0  0
 13 14  1  0  0  0  0
 13 35  1  0  0  0  0
 13 36  1  0  0  0  0
 14 15  1  0  0  0  0
 14 37  1  0  0  0  0
 14 38  1  0  0  0  0
 15 16  1  0  0  0  0
 15 39  1  0  0  0  0
 16 40  1  0  0  0  0
 16 41  1  0  0  0  0
 16 42  1  0  0  0  0
 17 18  1  0  0  0  0
 18 19  2  0  0  0  0
 18 20  1  0  0  0  0
 20 21  1  0  0  0  0
 21 22  1  0  0  0  0
 21 43  1  0  0  0  0
 21 44  1  0  0  0  0
 22 23  1  0  0  0  0
 22 45  1  0  0  0  0
 22 46  1  0  0  0  0
 23 47  1  0  0  0  0
M  CHG  1  17  -1
M  END
> <s_m_source_file>
AV-unprocessed.smi

> <i_m_source_file_index>
438

> <i_lp_mmshare_version>
43012

> <i_f3d_flags>
0

> <s_epik_input>
W09IXVtDSDJdW0NIMl1jMWMoW09IXSluYyhuYzFbQ0gzXSlTW0NIMl1DKD1PKVtOSF1bQ0BASF0yW0NIMl1bQ0gyXVtDSDJdW0NIMl1bQ0BIXTJbQ0gzXQ==

> <s_epik_cmdline>
J2VwaWtfcHl0aG9uJywgJy1waCcsICc3LjAnLCAnLXRuJywgJzgnLCAnLW1hJywgJzIwMCcsICctbWV0YWxfYmluZGluZycsICctaW1hZScsICc8aW5maWxlLm1hZT4nLCAnLW9tYWUnLCAnPG91dGZpbGUubWFlPic=

> <r_lp_tautomer_probability>
1

> <r_epik_Ionization_Penalty>
3.69231

> <r_epik_Ionization_Penalty_Charging>
0.00434774

> <r_epik_Ionization_Penalty_Neutral>
3.68796

> <r_epik_State_Penalty>
2.13826

> <r_epik_Charging_Adjusted_Penalty>
2.14261

> <i_epik_Tot_Q>
-1

> <i_epik_Tot_abs_Q>
1

> <r_epik_Metal_State_Penalty>
0.260979

> <b_epik_Metal_Only>
0

> <s_lp_Force_Field>
OPLS_2005

> <r_lp_Energy>
19.4347

> <b_lp_Chiralities_Consistent>
1

> <s_lp_Variant>
AV-unprocessed.smi:438-9

> <Gold.Version>
5.8.1

> <Gold.Id.Protein>
6NUR|6NUR_protein|mol2

> <Gold.PLP.Fitness>
53.2874

> <Gold.PLP.PLP>
-44.0649

> <Gold.PLP.part.hbond>
-4.3755

> <Gold.PLP.part.metal>
0.0000

> <Gold.PLP.part.buried>
-5.8913

> <Gold.PLP.part.nonpolar>
-36.7432

> <Gold.PLP.part.repulsive>
0.1220

> <Gold.PLP.ligand.clash>
0.0000

> <Gold.PLP.ligand.torsion>
0.7040

> <Gold.PLP.Chemscore.Hbond>
3.4966

> <Gold.PLP.Chemscore.CHOScore>
0.0000

> <Gold.PLP.Chemscore.Metal>
0.0000

> <Gold.Chemscore.Hbonds>
donor molecule, donor type, donor heavy atom, donor atom, acceptor molecule, acceptor atom, score
      P1  H  6931  6943       L1    17  0.31
      P1  H  6934  6947       L1    17  1.46

> <Gold.PLP.Chemscore.Internal.Correction>
0.1406

> <Gold.Rescore>
     Score         DG    S(hbond)    S(metal)    S(lipo)     H(rot)  DE(clash)    DE(int)     intcor
     11.16     -12.63       0.58        0.00     105.52       2.79       0.56       0.91       ----

> <Gold.Chemscore.Fitness>
11.1616

> <Gold.Chemscore.DG>
-12.6268

> <Gold.Chemscore.ZeroCoef>
-5.4800

> <Gold.Chemscore.Hbond>
0.5839

> <Gold.Chemscore.Metal>
0.0000

> <Gold.Chemscore.Lipo>
105.5191

> <Gold.Chemscore.Internal_Hbond>
0.0000

> <Gold.Chemscore.DEClash>
0.5554

> <Gold.Chemscore.DEInternal>
0.9099

> <Gold.Chemscore.Rot>
2.7927

> <Gold.Chemscore.Internal.Correction>
   9.000000E+99

> <Gold.Chemscore.Hbonds>
donor molecule, donor type, donor heavy atom, donor atom, acceptor molecule, acceptor atom, score
      P1  H  6931  6943       L1    17  0.01
      P1  H  6934  6947       L1    17  0.11

> <Gold.Chemscore.Hbond.Weighted>
-1.9504

> <Gold.Chemscore.Metal.Weighted>
-0.0000

> <Gold.Chemscore.Lipo.Weighted>
-12.3457

> <Gold.Chemscore.Internal_Hbond.Weighted>
0.0000

> <Gold.Chemscore.DEClash.Weighted>
0.5554

> <Gold.Chemscore.DEInternal.Weighted>
0.9099

> <Gold.Chemscore.Rot.Weighted>
7.1492

> <Gold.Chemscore.Internal.Correction.Weighted>
   9.000000E+99

> <Gold.Protein.RotatedTorsions>
[ 6907 6896 6895 6894 ] final   56.35 input  -60.11 | X-H torsion
[ 7974 7965 7964 7962 ] final  136.59 input  175.53 | X-H torsion
[ 8008 7997 7996 7995 ] final  174.71 input   59.86 | X-H torsion
[ 10167 10162 10161 10158 ] final   77.51 input  -65.29 | X-H torsion
[ 10718 10713 10712 10709 ] final  -65.11 input   66.30 | X-H torsion
[ 10763 10752 10751 10750 ] final   80.95 input  -60.55 | X-H torsion
[ 11005 11000 10999 10996 ] final  -85.72 input  -57.11 | X-H torsion

> <Gold.Protein.ActiveResidues>
 VAL166  LYS551  ARG553  GLY616  TRP617  ASP618  TYR619  PRO620  LYS621  CYS622 
 ASP623  PHE694  ASN695  SER759  ASP760  ASP761  ALA762  ILE779  LEU786  VAL792 
 PHE793  MET794  SER795  GLU796  ALA797  LYS798  CYS799  TRP800  GLU811  SER814 

> <Gold.Protein.RotatedAtoms>
  152.3628  134.6847  160.0201 H   0  0  0  0  0  0  0  0  0  0  0  0  # atno 6907 bound_to 6896
  151.7165  133.3308  159.3312 H   0  0  0  0  0  0  0  0  0  0  0  0  # atno 6908 bound_to 6896
  150.7617  134.6420  159.6287 H   0  0  0  0  0  0  0  0  0  0  0  0  # atno 6909 bound_to 6896
  144.9550  139.4775  143.5507 H   0  0  0  0  0  0  0  0  0  0  0  0  # atno 7974 bound_to 7965
  156.0946  140.1427  156.9547 H   0  0  0  0  0  0  0  0  0  0  0  0  # atno 8008 bound_to 7997
  154.4663  140.0925  156.7076 H   0  0  0  0  0  0  0  0  0  0  0  0  # atno 8009 bound_to 7997
  155.4862  140.3446  155.4350 H   0  0  0  0  0  0  0  0  0  0  0  0  # atno 8010 bound_to 7997
  139.9808  144.5827  150.7902 H   0  0  0  0  0  0  0  0  0  0  0  0  # atno 10167 bound_to 10162
  156.0689  130.4242  150.1517 H   0  0  0  0  0  0  0  0  0  0  0  0  # atno 10718 bound_to 10713
  153.1076  135.4783  154.8979 H   0  0  0  0  0  0  0  0  0  0  0  0  # atno 10763 bound_to 10752
  154.7447  135.3091  154.8668 H   0  0  0  0  0  0  0  0  0  0  0  0  # atno 10764 bound_to 10752
  153.9267  135.6849  153.4800 H   0  0  0  0  0  0  0  0  0  0  0  0  # atno 10765 bound_to 10752
  141.1638  133.7415  156.9056 H   0  0  0  0  0  0  0  0  0  0  0  0  # atno 11005 bound_to 11000
  146.3334  139.8662  142.8848 LP  0  0  0  0  0  0  0  0  0  0  0  0  # atno 17320 bound_to 7965
  145.2786  141.0131  143.3730 LP  0  0  0  0  0  0  0  0  0  0  0  0  # atno 17321 bound_to 7965
  140.7489  143.2931  151.3278 LP  0  0  0  0  0  0  0  0  0  0  0  0  # atno 17342 bound_to 10162
  139.6411  144.0538  152.2555 LP  0  0  0  0  0  0  0  0  0  0  0  0  # atno 17343 bound_to 10162
  156.9571  130.9793  151.3486 LP  0  0  0  0  0  0  0  0  0  0  0  0  # atno 17370 bound_to 10713
  157.5748  130.8335  149.8440 LP  0  0  0  0  0  0  0  0  0  0  0  0  # atno 17371 bound_to 10713
  140.1552  134.9203  157.2644 LP  0  0  0  0  0  0  0  0  0  0  0  0  # atno 17394 bound_to 11000
  140.2676  134.3498  155.7385 LP  0  0  0  0  0  0  0  0  0  0  0  0  # atno 17395 bound_to 11000

$$$$
