AV-unprocessed.smi:2350|AV-procd|sdf|9373|dock3
  -GOLD-   2272013 03D 1   1.00000     0.00000
 Structure written by MMmdl.
 30 31  0  0  0  0  0  0  0  0  1 V2000
  153.1148  144.8141  157.7170 C   0  0  0  0  0  0  0  0  0  0  0  0
  151.7870  144.3295  158.3093 C   0  0  0  0  0  0  0  0  0  0  0  0
  150.9576  143.7312  157.2603 N   0  0  0  0  0  0  0  0  0  0  0  0
  150.9291  142.4358  156.9084 C   0  0  0  0  0  0  0  0  0  0  0  0
  151.6101  141.5673  157.4536 O   0  0  0  0  0  0  0  0  0  0  0  0
  150.0557  142.2264  155.9084 N   0  0  0  0  0  0  0  0  0  0  0  0
  149.7464  141.0142  155.2326 C   0  0  0  0  0  0  0  0  0  0  0  0
  150.6015  139.8860  155.1904 C   0  0  0  0  0  0  0  0  0  0  0  0
  150.1853  138.7506  154.4663 C   0  0  0  0  0  0  0  0  0  0  0  0
  149.0131  138.6804  153.8008 N   0  0  0  0  0  0  0  0  0  0  0  0
  148.2064  139.7621  153.8326 C   0  0  0  0  0  0  0  0  0  0  0  0
  148.5274  140.9471  154.5248 C   0  0  0  0  0  0  0  0  0  0  0  0
  147.6741  141.9999  154.5100 F   0  0  0  0  0  0  0  0  0  0  0  0
  151.8464  143.3980  159.5348 C   0  0  0  0  0  0  0  0  0  0  0  0
  151.6583  144.6341  160.4192 C   0  0  0  0  0  0  0  0  0  0  0  0
  150.9837  145.2905  159.2123 C   0  0  0  0  0  0  0  0  0  0  0  0
  153.7880  145.1819  158.4916 H   0  0  0  0  0  0  0  0  0  0  0  0
  152.9672  145.6299  157.0091 H   0  0  0  0  0  0  0  0  0  0  0  0
  153.6339  144.0115  157.1924 H   0  0  0  0  0  0  0  0  0  0  0  0
  150.3562  144.3647  156.7542 H   0  0  0  0  0  0  0  0  0  0  0  0
  149.5087  143.0257  155.6241 H   0  0  0  0  0  0  0  0  0  0  0  0
  151.5624  139.8708  155.6811 H   0  0  0  0  0  0  0  0  0  0  0  0
  150.8164  137.8757  154.4155 H   0  0  0  0  0  0  0  0  0  0  0  0
  147.2774  139.6821  153.2876 H   0  0  0  0  0  0  0  0  0  0  0  0
  151.0047  142.7056  159.6046 H   0  0  0  0  0  0  0  0  0  0  0  0
  152.7976  142.8834  159.6746 H   0  0  0  0  0  0  0  0  0  0  0  0
  151.0084  144.4861  161.2819 H   0  0  0  0  0  0  0  0  0  0  0  0
  152.5998  145.1117  160.6951 H   0  0  0  0  0  0  0  0  0  0  0  0
  151.2204  146.3468  159.0801 H   0  0  0  0  0  0  0  0  0  0  0  0
  149.9055  145.1179  159.1945 H   0  0  0  0  0  0  0  0  0  0  0  0
  1  2  1  0  0  0  0
  1 17  1  0  0  0  0
  1 18  1  0  0  0  0
  1 19  1  0  0  0  0
  2 16  1  0  0  0  0
  2  3  1  0  0  0  0
  2 14  1  0  0  0  0
  3  4  1  0  0  0  0
  3 20  1  0  0  0  0
  4  5  2  0  0  0  0
  4  6  1  0  0  0  0
  6  7  1  0  0  0  0
  6 21  1  0  0  0  0
  7 12  1  0  0  0  0
  7  8  2  0  0  0  0
  8  9  1  0  0  0  0
  8 22  1  0  0  0  0
  9 10  2  0  0  0  0
  9 23  1  0  0  0  0
 10 11  1  0  0  0  0
 11 12  2  0  0  0  0
 11 24  1  0  0  0  0
 12 13  1  0  0  0  0
 14 15  1  0  0  0  0
 14 25  1  0  0  0  0
 14 26  1  0  0  0  0
 15 16  1  0  0  0  0
 15 27  1  0  0  0  0
 15 28  1  0  0  0  0
 16 29  1  0  0  0  0
 16 30  1  0  0  0  0
M  END
> <s_m_source_file>
AV-unprocessed.smi

> <i_m_source_file_index>
2350

> <i_lp_mmshare_version>
43012

> <i_f3d_flags>
0

> <s_epik_input>
W0NIMl0xW0NIMl1bQ0gyXUMxKFtDSDNdKVtOSF1DKD1PKVtOSF1jMltjSF1bY0hdbltjSF1jMkY=

> <s_epik_cmdline>
J2VwaWtfcHl0aG9uJywgJy1waCcsICc3LjAnLCAnLXRuJywgJzgnLCAnLW1hJywgJzIwMCcsICctbWV0YWxfYmluZGluZycsICctaW1hZScsICc8aW5maWxlLm1hZT4nLCAnLW9tYWUnLCAnPG91dGZpbGUubWFlPic=

> <r_epik_Ionization_Penalty>
0.00347391

> <r_epik_Ionization_Penalty_Charging>
0

> <r_epik_Ionization_Penalty_Neutral>
0.00347391

> <r_epik_State_Penalty>
0.00243273

> <r_epik_Charging_Adjusted_Penalty>
0.00243273

> <i_epik_Tot_Q>
0

> <i_epik_Tot_abs_Q>
0

> <r_epik_Metal_State_Penalty>
-0

> <b_epik_Metal_Only>
0

> <s_lp_Force_Field>
OPLS_2005

> <r_lp_Energy>
20.3652

> <b_lp_Chiralities_Consistent>
1

> <s_lp_Variant>
AV-unprocessed.smi:2350-1

> <Gold.Version>
5.8.1

> <Gold.Id.Protein>
6NUR|6NUR_protein|mol2

> <Gold.PLP.Fitness>
43.5890

> <Gold.PLP.PLP>
-38.3009

> <Gold.PLP.part.hbond>
-2.0000

> <Gold.PLP.part.metal>
0.0000

> <Gold.PLP.part.buried>
-2.8835

> <Gold.PLP.part.nonpolar>
-33.6898

> <Gold.PLP.part.repulsive>
1.2691

> <Gold.PLP.ligand.clash>
0.0000

> <Gold.PLP.ligand.torsion>
0.5045

> <Gold.PLP.Chemscore.Hbond>
2.0000

> <Gold.PLP.Chemscore.CHOScore>
0.0000

> <Gold.PLP.Chemscore.Metal>
0.0000

> <Gold.Chemscore.Hbonds>
donor molecule, donor type, donor heavy atom, donor atom, acceptor molecule, acceptor atom, score
      L1  H     3    20       P1  8028  1.00
      L1  H     6    21       P1  8028  1.00

> <Gold.PLP.Chemscore.Internal.Correction>
0.2971

> <Gold.Rescore>
     Score         DG    S(hbond)    S(metal)    S(lipo)     H(rot)  DE(clash)    DE(int)     intcor
     17.35     -20.36       1.91        0.00      94.61       1.00       0.13       2.89       ----

> <Gold.Chemscore.Fitness>
17.3505

> <Gold.Chemscore.DG>
-20.3648

> <Gold.Chemscore.ZeroCoef>
-5.4800

> <Gold.Chemscore.Hbond>
1.9089

> <Gold.Chemscore.Metal>
0.0000

> <Gold.Chemscore.Lipo>
94.6079

> <Gold.Chemscore.Internal_Hbond>
0.0000

> <Gold.Chemscore.DEClash>
0.1272

> <Gold.Chemscore.DEInternal>
2.8872

> <Gold.Chemscore.Rot>
1.0000

> <Gold.Chemscore.Internal.Correction>
   9.000000E+99

> <Gold.Chemscore.Hbonds>
donor molecule, donor type, donor heavy atom, donor atom, acceptor molecule, acceptor atom, score
      L1  H     3    20       P1  8028  0.93
      L1  H     6    21       P1  8028  0.99

> <Gold.Chemscore.Hbond.Weighted>
-6.3757

> <Gold.Chemscore.Metal.Weighted>
-0.0000

> <Gold.Chemscore.Lipo.Weighted>
-11.0691

> <Gold.Chemscore.Internal_Hbond.Weighted>
0.0000

> <Gold.Chemscore.DEClash.Weighted>
0.1272

> <Gold.Chemscore.DEInternal.Weighted>
2.8872

> <Gold.Chemscore.Rot.Weighted>
2.5600

> <Gold.Chemscore.Internal.Correction.Weighted>
   9.000000E+99

> <Gold.Protein.RotatedTorsions>
[ 6907 6896 6895 6894 ] final  123.60 input  -60.11 | X-H torsion
[ 7974 7965 7964 7962 ] final   37.56 input  175.53 | X-H torsion
[ 8008 7997 7996 7995 ] final   56.68 input   59.86 | X-H torsion
[ 10167 10162 10161 10158 ] final  -36.85 input  -65.29 | X-H torsion
[ 10718 10713 10712 10709 ] final -146.22 input   66.30 | X-H torsion
[ 10763 10752 10751 10750 ] final  -27.67 input  -60.55 | X-H torsion
[ 11005 11000 10999 10996 ] final -133.79 input  -57.11 | X-H torsion

> <Gold.Protein.ActiveResidues>
 VAL166  LYS551  ARG553  GLY616  TRP617  ASP618  TYR619  PRO620  LYS621  CYS622 
 ASP623  PHE694  ASN695  SER759  ASP760  ASP761  ALA762  ILE779  LEU786  VAL792 
 PHE793  MET794  SER795  GLU796  ALA797  LYS798  CYS799  TRP800  GLU811  SER814 

> <Gold.Protein.RotatedAtoms>
  152.4148  133.7021  159.6429 H   0  0  0  0  0  0  0  0  0  0  0  0  # atno 6907 bound_to 6896
  150.8026  133.8559  159.3227 H   0  0  0  0  0  0  0  0  0  0  0  0  # atno 6908 bound_to 6896
  151.6291  135.1026  160.0169 H   0  0  0  0  0  0  0  0  0  0  0  0  # atno 6909 bound_to 6896
  146.1128  139.5879  142.9341 H   0  0  0  0  0  0  0  0  0  0  0  0  # atno 7974 bound_to 7965
  155.5214  140.3480  155.4407 H   0  0  0  0  0  0  0  0  0  0  0  0  # atno 8008 bound_to 7997
  156.0782  140.1380  156.9772 H   0  0  0  0  0  0  0  0  0  0  0  0  # atno 8009 bound_to 7997
  154.4565  140.0951  156.6747 H   0  0  0  0  0  0  0  0  0  0  0  0  # atno 8010 bound_to 7997
  140.7132  143.3381  151.2418 H   0  0  0  0  0  0  0  0  0  0  0  0  # atno 10167 bound_to 10162
  156.3922  130.7891  151.2094 H   0  0  0  0  0  0  0  0  0  0  0  0  # atno 10718 bound_to 10713
  153.7359  135.6935  153.4978 H   0  0  0  0  0  0  0  0  0  0  0  0  # atno 10763 bound_to 10752
  153.2103  135.4405  155.0370 H   0  0  0  0  0  0  0  0  0  0  0  0  # atno 10764 bound_to 10752
  154.8237  135.3435  154.6887 H   0  0  0  0  0  0  0  0  0  0  0  0  # atno 10765 bound_to 10752
  140.9049  134.1643  157.4433 H   0  0  0  0  0  0  0  0  0  0  0  0  # atno 11005 bound_to 11000
  145.5628  141.0402  143.2217 LP  0  0  0  0  0  0  0  0  0  0  0  0  # atno 17320 bound_to 7965
  144.7527  139.7153  143.7266 LP  0  0  0  0  0  0  0  0  0  0  0  0  # atno 17321 bound_to 7965
  139.6881  143.9739  152.2845 LP  0  0  0  0  0  0  0  0  0  0  0  0  # atno 17342 bound_to 10162
  139.9391  144.6693  150.8284 LP  0  0  0  0  0  0  0  0  0  0  0  0  # atno 17343 bound_to 10162
  157.7499  131.0312  150.4171 LP  0  0  0  0  0  0  0  0  0  0  0  0  # atno 17370 bound_to 10713
  156.4435  130.3996  149.6682 LP  0  0  0  0  0  0  0  0  0  0  0  0  # atno 17371 bound_to 10713
  139.8748  134.9913  156.5541 LP  0  0  0  0  0  0  0  0  0  0  0  0  # atno 17394 bound_to 11000
  140.8184  133.8373  155.8873 LP  0  0  0  0  0  0  0  0  0  0  0  0  # atno 17395 bound_to 11000

$$$$
