AV-unprocessed.smi:807|AV-procd|sdf|3802|dock9
  -GOLD-   22720 1243D 1   1.00000     0.00000
 Structure written by MMmdl.
 35 37  0  0  0  0  0  0  0  0  1 V2000
  148.6710  140.5182  155.7414 C   0  0  0  0  0  0  0  0  0  0  0  0
  150.0646  140.4839  156.1550 N   0  0  0  0  0  0  0  0  0  0  0  0
  150.8453  139.3413  155.9314 C   0  0  0  0  0  0  0  0  0  0  0  0
  150.5933  138.5478  154.8646 N   0  0  0  0  0  0  0  0  0  0  0  0
  151.3650  137.4665  154.6923 C   0  0  0  0  0  0  0  0  0  0  0  0
  152.3907  137.0313  155.4406 N   0  0  0  0  0  0  0  0  0  0  0  0
  152.6480  137.8107  156.4998 C   0  0  0  0  0  0  0  0  0  0  0  0
  153.6415  137.6015  157.4407 N   0  0  0  0  0  0  0  0  0  0  0  0
  153.4621  138.6361  158.2578 C   0  0  0  0  0  0  0  0  0  0  0  0
  152.4664  139.4954  157.9641 N   0  0  0  0  0  0  0  0  0  0  0  0
  152.0850  140.6725  158.7248 C   0  0  0  0  0  0  0  0  0  0  0  0
  153.1809  141.7574  158.7131 C   0  0  2  0  0  0  0  0  0  0  0  0
  154.2894  141.2663  159.4394 O   0  0  0  0  0  0  0  0  0  0  0  0
  152.6799  143.0959  159.2555 C   0  0  0  0  0  0  0  0  0  0  0  0
  151.8180  143.8829  158.4574 C   0  0  0  0  0  0  0  0  0  0  0  0
  151.3488  145.1277  158.9169 C   0  0  0  0  0  0  0  0  0  0  0  0
  151.7398  145.6019  160.1816 C   0  0  0  0  0  0  0  0  0  0  0  0
  152.6019  144.8309  160.9825 C   0  0  0  0  0  0  0  0  0  0  0  0
  153.0760  143.5836  160.5283 C   0  0  0  0  0  0  0  0  0  0  0  0
  154.1472  142.6957  161.5559 Cl  0  0  0  0  0  0  0  0  0  0  0  0
  151.8998  138.9893  156.7968 C   0  0  0  0  0  0  0  0  0  0  0  0
  148.2228  141.4703  156.0252 H   0  0  0  0  0  0  0  0  0  0  0  0
  148.1054  139.7190  156.2214 H   0  0  0  0  0  0  0  0  0  0  0  0
  148.5850  140.4088  154.6599 H   0  0  0  0  0  0  0  0  0  0  0  0
  150.4363  141.2537  156.6926 H   0  0  0  0  0  0  0  0  0  0  0  0
  151.1293  136.8608  153.8300 H   0  0  0  0  0  0  0  0  0  0  0  0
  154.0862  138.7726  159.1291 H   0  0  0  0  0  0  0  0  0  0  0  0
  151.1503  141.0650  158.3213 H   0  0  0  0  0  0  0  0  0  0  0  0
  151.8696  140.3576  159.7463 H   0  0  0  0  0  0  0  0  0  0  0  0
  153.5469  141.8829  157.6958 H   0  0  0  0  0  0  0  0  0  0  0  0
  155.0805  141.5151  158.9865 H   0  0  0  0  0  0  0  0  0  0  0  0
  151.5140  143.5361  157.4809 H   0  0  0  0  0  0  0  0  0  0  0  0
  150.6903  145.7193  158.2979 H   0  0  0  0  0  0  0  0  0  0  0  0
  151.3819  146.5575  160.5355 H   0  0  0  0  0  0  0  0  0  0  0  0
  152.9041  145.2014  161.9511 H   0  0  0  0  0  0  0  0  0  0  0  0
  1  2  1  0  0  0  0
  1 22  1  0  0  0  0
  1 23  1  0  0  0  0
  1 24  1  0  0  0  0
  2  3  1  0  0  0  0
  2 25  1  0  0  0  0
  3 21  1  0  0  0  0
  3  4  2  0  0  0  0
  4  5  1  0  0  0  0
  5  6  2  0  0  0  0
  5 26  1  0  0  0  0
  6  7  1  0  0  0  0
  7 21  2  0  0  0  0
  7  8  1  0  0  0  0
  8  9  2  0  0  0  0
  9 10  1  0  0  0  0
  9 27  1  0  0  0  0
 10 11  1  0  0  0  0
 10 21  1  0  0  0  0
 11 12  1  0  0  0  0
 11 28  1  0  0  0  0
 11 29  1  0  0  0  0
 12 13  1  0  0  0  0
 12 14  1  0  0  0  0
 12 30  1  0  0  0  0
 13 31  1  0  0  0  0
 14 19  1  0  0  0  0
 14 15  2  0  0  0  0
 15 16  1  0  0  0  0
 15 32  1  0  0  0  0
 16 17  2  0  0  0  0
 16 33  1  0  0  0  0
 17 18  1  0  0  0  0
 17 34  1  0  0  0  0
 18 19  2  0  0  0  0
 18 35  1  0  0  0  0
 19 20  1  0  0  0  0
M  END
> <s_m_source_file>
AV-unprocessed.smi

> <i_m_source_file_index>
807

> <i_lp_mmshare_version>
43012

> <i_f3d_flags>
0

> <s_epik_input>
bjFbY0hdbmMoW05IXVtDSDNdKWMoYzEyKW4oW2NIXW4yKVtDSDJdW0NASF0oW09IXSljM1tjSF1bY0hdW2NIXVtjSF1jM0Ns

> <s_epik_cmdline>
J2VwaWtfcHl0aG9uJywgJy1waCcsICc3LjAnLCAnLXRuJywgJzgnLCAnLW1hJywgJzIwMCcsICctbWV0YWxfYmluZGluZycsICctaW1hZScsICc8aW5maWxlLm1hZT4nLCAnLW9tYWUnLCAnPG91dGZpbGUubWFlPic=

> <r_lp_tautomer_probability>
1

> <r_epik_Ionization_Penalty>
0.00695285

> <r_epik_Ionization_Penalty_Charging>
0

> <r_epik_Ionization_Penalty_Neutral>
0.00695285

> <r_epik_State_Penalty>
-0

> <r_epik_Charging_Adjusted_Penalty>
0

> <i_epik_Tot_Q>
0

> <i_epik_Tot_abs_Q>
0

> <r_epik_Metal_State_Penalty>
-0

> <b_epik_Metal_Only>
0

> <s_lp_Force_Field>
OPLS_2005

> <r_lp_Energy>
11.3951

> <b_lp_Chiralities_Consistent>
1

> <s_lp_Variant>
AV-unprocessed.smi:807-1

> <Gold.Version>
5.8.1

> <Gold.Id.Protein>
6NUR|6NUR_protein|mol2

> <Gold.PLP.Fitness>
51.0514

> <Gold.PLP.PLP>
-46.2931

> <Gold.PLP.part.hbond>
-1.0000

> <Gold.PLP.part.metal>
0.0000

> <Gold.PLP.part.buried>
-7.3515

> <Gold.PLP.part.nonpolar>
-39.5088

> <Gold.PLP.part.repulsive>
0.3157

> <Gold.PLP.ligand.clash>
0.0079

> <Gold.PLP.ligand.torsion>
0.6320

> <Gold.PLP.Chemscore.Hbond>
1.0000

> <Gold.PLP.Chemscore.CHOScore>
1.0000

> <Gold.PLP.Chemscore.Metal>
0.0000

> <Gold.Chemscore.Hbonds>
donor molecule, donor type, donor heavy atom, donor atom, acceptor molecule, acceptor atom, score
      P1  H 10752 10764       L1     6  0.74
      L1  C     5    26       P1  7949  1.00

> <Gold.PLP.Chemscore.Internal.Correction>
0.0303

> <Gold.Rescore>
     Score         DG    S(hbond)    S(metal)    S(lipo)     H(rot)  DE(clash)    DE(int)     intcor
     12.28     -14.34       0.94        0.00      99.57       2.31       0.02       2.04       ----

> <Gold.Chemscore.Fitness>
12.2827

> <Gold.Chemscore.DG>
-14.3434

> <Gold.Chemscore.ZeroCoef>
-5.4800

> <Gold.Chemscore.Hbond>
0.9376

> <Gold.Chemscore.Metal>
0.0000

> <Gold.Chemscore.Lipo>
99.5657

> <Gold.Chemscore.Internal_Hbond>
0.0000

> <Gold.Chemscore.DEClash>
0.0202

> <Gold.Chemscore.DEInternal>
2.0405

> <Gold.Chemscore.Rot>
2.3115

> <Gold.Chemscore.Internal.Correction>
   9.000000E+99

> <Gold.Chemscore.Hbonds>
donor molecule, donor type, donor heavy atom, donor atom, acceptor molecule, acceptor atom, score
      P1  H 10752 10764       L1     6  0.70

> <Gold.Chemscore.Hbond.Weighted>
-3.1317

> <Gold.Chemscore.Metal.Weighted>
-0.0000

> <Gold.Chemscore.Lipo.Weighted>
-11.6492

> <Gold.Chemscore.Internal_Hbond.Weighted>
0.0000

> <Gold.Chemscore.DEClash.Weighted>
0.0202

> <Gold.Chemscore.DEInternal.Weighted>
2.0405

> <Gold.Chemscore.Rot.Weighted>
5.9174

> <Gold.Chemscore.Internal.Correction.Weighted>
   9.000000E+99

> <Gold.Protein.RotatedTorsions>
[ 6907 6896 6895 6894 ] final  119.76 input  -60.11 | X-H torsion
[ 7974 7965 7964 7962 ] final -117.78 input  175.53 | X-H torsion
[ 8008 7997 7996 7995 ] final   42.13 input   59.86 | X-H torsion
[ 10167 10162 10161 10158 ] final  164.00 input  -65.29 | X-H torsion
[ 10718 10713 10712 10709 ] final -170.63 input   66.30 | X-H torsion
[ 10763 10752 10751 10750 ] final  -34.15 input  -60.55 | X-H torsion
[ 11005 11000 10999 10996 ] final   37.34 input  -57.11 | X-H torsion

> <Gold.Protein.ActiveResidues>
 VAL166  LYS551  ARG553  GLY616  TRP617  ASP618  TYR619  PRO620  LYS621  CYS622 
 ASP623  PHE694  ASN695  SER759  ASP760  ASP761  ALA762  ILE779  LEU786  VAL792 
 PHE793  MET794  SER795  GLU796  ALA797  LYS798  CYS799  TRP800  GLU811  SER814 

> <Gold.Protein.RotatedAtoms>
  152.4448  133.7515  159.6696 H   0  0  0  0  0  0  0  0  0  0  0  0  # atno 6907 bound_to 6896
  150.8345  133.8025  159.3091 H   0  0  0  0  0  0  0  0  0  0  0  0  # atno 6908 bound_to 6896
  151.5669  135.1066  160.0037 H   0  0  0  0  0  0  0  0  0  0  0  0  # atno 6909 bound_to 6896
  145.0813  140.8428  143.4037 H   0  0  0  0  0  0  0  0  0  0  0  0  # atno 7974 bound_to 7965
  155.2811  140.3372  155.4258 H   0  0  0  0  0  0  0  0  0  0  0  0  # atno 8008 bound_to 7997
  156.2089  140.1762  156.7779 H   0  0  0  0  0  0  0  0  0  0  0  0  # atno 8009 bound_to 7997
  154.5659  140.0679  156.8875 H   0  0  0  0  0  0  0  0  0  0  0  0  # atno 8010 bound_to 7997
  139.4882  144.4280  151.9105 H   0  0  0  0  0  0  0  0  0  0  0  0  # atno 10167 bound_to 10162
  156.7289  130.9299  151.3103 H   0  0  0  0  0  0  0  0  0  0  0  0  # atno 10718 bound_to 10713
  153.8420  135.6856  153.4802 H   0  0  0  0  0  0  0  0  0  0  0  0  # atno 10763 bound_to 10752
  153.1448  135.4642  154.9547 H   0  0  0  0  0  0  0  0  0  0  0  0  # atno 10764 bound_to 10752
  154.7840  135.3278  154.7873 H   0  0  0  0  0  0  0  0  0  0  0  0  # atno 10765 bound_to 10752
  140.2235  134.3613  155.7994 H   0  0  0  0  0  0  0  0  0  0  0  0  # atno 11005 bound_to 11000
  145.1174  139.2716  143.5606 LP  0  0  0  0  0  0  0  0  0  0  0  0  # atno 17320 bound_to 7965
  146.3531  140.0788  142.8619 LP  0  0  0  0  0  0  0  0  0  0  0  0  # atno 17321 bound_to 7965
  140.3727  144.2835  150.5918 LP  0  0  0  0  0  0  0  0  0  0  0  0  # atno 17342 bound_to 10162
  140.5305  143.2244  151.8247 LP  0  0  0  0  0  0  0  0  0  0  0  0  # atno 17343 bound_to 10162
  157.6867  130.9192  150.0405 LP  0  0  0  0  0  0  0  0  0  0  0  0  # atno 17370 bound_to 10713
  156.1542  130.3643  149.9393 LP  0  0  0  0  0  0  0  0  0  0  0  0  # atno 17371 bound_to 10713
  141.2222  133.7206  156.8614 LP  0  0  0  0  0  0  0  0  0  0  0  0  # atno 17394 bound_to 11000
  140.1825  134.9023  157.2965 LP  0  0  0  0  0  0  0  0  0  0  0  0  # atno 17395 bound_to 11000

$$$$
