AV-unprocessed.smi:1954|AV-procd|sdf|7895|dock2
  -GOLD-   2272010 53D 1   1.00000     0.00000
 Structure written by MMmdl.
 44 46  0  0  0  0  0  0  0  0  1 V2000
  144.6741  136.4186  152.9947 O   0  0  0  0  0  0  0  0  0  0  0  0
  145.8678  136.2550  152.7409 C   0  0  0  0  0  0  0  0  0  0  0  0
  146.8446  137.0234  153.2438 N   0  0  0  0  0  0  0  0  0  0  0  0
  146.6613  138.1502  154.1582 C   0  0  0  0  0  0  0  0  0  0  0  0
  147.9711  138.9806  154.3691 C   0  0  2  0  0  0  0  0  0  0  0  0
  149.1616  138.0754  154.3949 N   0  0  0  0  0  0  0  0  0  0  0  0
  149.1203  136.9803  155.3748 C   0  0  0  0  0  0  0  0  0  0  0  0
  150.3443  136.0546  155.2717 C   0  0  0  0  0  0  0  0  0  0  0  0
  151.5358  136.8132  155.4272 O   0  0  0  0  0  0  0  0  0  0  0  0
  151.6516  137.8349  154.4467 C   0  0  0  0  0  0  0  0  0  0  0  0
  150.4426  138.7809  154.5387 C   0  0  0  0  0  0  0  0  0  0  0  0
  147.8056  139.8214  155.6687 C   0  0  0  0  0  0  0  0  0  0  0  0
  146.7746  140.9284  155.4259 C   0  0  0  0  0  0  0  0  0  0  0  0
  146.9245  141.4291  153.6952 S   0  0  0  0  0  0  0  0  0  0  0  0
  148.0380  140.0633  153.2613 C   0  0  0  0  0  0  0  0  0  0  0  0
  146.3685  135.2983  151.9399 N   0  0  0  0  0  0  0  0  0  0  0  0
  145.6639  134.2884  151.2320 C   0  0  0  0  0  0  0  0  0  0  0  0
  146.4776  133.3720  150.5278 C   0  0  0  0  0  0  0  0  0  0  0  0
  145.8748  132.3327  149.7930 C   0  0  0  0  0  0  0  0  0  0  0  0
  144.4721  132.2353  149.7823 C   0  0  0  0  0  0  0  0  0  0  0  0
  143.7359  133.1876  150.5111 C   0  0  0  0  0  0  0  0  0  0  0  0
  144.3113  134.1846  151.2157 N   0  0  0  0  0  0  0  0  0  0  0  0
  147.7965  136.8052  152.9879 H   0  0  0  0  0  0  0  0  0  0  0  0
  145.8659  138.7733  153.7521 H   0  0  0  0  0  0  0  0  0  0  0  0
  146.2452  137.8020  155.1034 H   0  0  0  0  0  0  0  0  0  0  0  0
  149.0637  137.3733  156.3891 H   0  0  0  0  0  0  0  0  0  0  0  0
  148.2463  136.3516  155.2232 H   0  0  0  0  0  0  0  0  0  0  0  0
  150.3061  135.2894  156.0472 H   0  0  0  0  0  0  0  0  0  0  0  0
  150.3562  135.5359  154.3117 H   0  0  0  0  0  0  0  0  0  0  0  0
  152.5767  138.3860  154.6157 H   0  0  0  0  0  0  0  0  0  0  0  0
  151.7202  137.3913  153.4522 H   0  0  0  0  0  0  0  0  0  0  0  0
  150.5656  139.5341  153.7637 H   0  0  0  0  0  0  0  0  0  0  0  0
  150.4742  139.3047  155.4946 H   0  0  0  0  0  0  0  0  0  0  0  0
  147.5529  139.2162  156.5390 H   0  0  0  0  0  0  0  0  0  0  0  0
  148.7255  140.3447  155.9195 H   0  0  0  0  0  0  0  0  0  0  0  0
  145.7626  140.5637  155.6012 H   0  0  0  0  0  0  0  0  0  0  0  0
  146.9307  141.7795  156.0892 H   0  0  0  0  0  0  0  0  0  0  0  0
  149.0345  140.4947  153.1829 H   0  0  0  0  0  0  0  0  0  0  0  0
  147.7851  139.6708  152.2759 H   0  0  0  0  0  0  0  0  0  0  0  0
  147.3706  135.2919  151.8214 H   0  0  0  0  0  0  0  0  0  0  0  0
  147.5541  133.4616  150.5464 H   0  0  0  0  0  0  0  0  0  0  0  0
  146.4792  131.6231  149.2475 H   0  0  0  0  0  0  0  0  0  0  0  0
  143.9735  131.4524  149.2305 H   0  0  0  0  0  0  0  0  0  0  0  0
  142.6569  133.1481  150.5298 H   0  0  0  0  0  0  0  0  0  0  0  0
  1  2  2  0  0  0  0
  2  3  1  0  0  0  0
  2 16  1  0  0  0  0
  3  4  1  0  0  0  0
  3 23  1  0  0  0  0
  4  5  1  0  0  0  0
  4 24  1  0  0  0  0
  4 25  1  0  0  0  0
  5 15  1  0  0  0  0
  5  6  1  0  0  0  0
  5 12  1  0  0  0  0
  6 11  1  0  0  0  0
  6  7  1  0  0  0  0
  7  8  1  0  0  0  0
  7 26  1  0  0  0  0
  7 27  1  0  0  0  0
  8  9  1  0  0  0  0
  8 28  1  0  0  0  0
  8 29  1  0  0  0  0
  9 10  1  0  0  0  0
 10 11  1  0  0  0  0
 10 30  1  0  0  0  0
 10 31  1  0  0  0  0
 11 32  1  0  0  0  0
 11 33  1  0  0  0  0
 12 13  1  0  0  0  0
 12 34  1  0  0  0  0
 12 35  1  0  0  0  0
 13 14  1  0  0  0  0
 13 36  1  0  0  0  0
 13 37  1  0  0  0  0
 14 15  1  0  0  0  0
 15 38  1  0  0  0  0
 15 39  1  0  0  0  0
 16 17  1  0  0  0  0
 16 40  1  0  0  0  0
 17 22  1  0  0  0  0
 17 18  2  0  0  0  0
 18 19  1  0  0  0  0
 18 41  1  0  0  0  0
 19 20  2  0  0  0  0
 19 42  1  0  0  0  0
 20 21  1  0  0  0  0
 20 43  1  0  0  0  0
 21 22  2  0  0  0  0
 21 44  1  0  0  0  0
M  END
> <s_m_source_file>
AV-unprocessed.smi

> <i_m_source_file_index>
1954

> <i_lp_mmshare_version>
43012

> <i_f3d_flags>
0

> <s_epik_input>
bjFbY0hdW2NIXVtjSF1bY0hdYzFbTkhdQyg9TylbTkhdW0NIMl1bQ0BdMihbQ0gyXVtDSDJdU1tDSDJdMilOM1tDSDJdW0NIMl1PW0NIMl1bQ0gyXTM=

> <s_epik_cmdline>
J2VwaWtfcHl0aG9uJywgJy1waCcsICc3LjAnLCAnLXRuJywgJzgnLCAnLW1hJywgJzIwMCcsICctbWV0YWxfYmluZGluZycsICctaW1hZScsICc8aW5maWxlLm1hZT4nLCAnLW9tYWUnLCAnPG91dGZpbGUubWFlPic=

> <r_epik_Ionization_Penalty>
0.0195535

> <r_epik_Ionization_Penalty_Charging>
0

> <r_epik_Ionization_Penalty_Neutral>
0.0195535

> <r_epik_State_Penalty>
0.0155843

> <r_epik_Charging_Adjusted_Penalty>
0.0155843

> <i_epik_Tot_Q>
0

> <i_epik_Tot_abs_Q>
0

> <r_epik_Metal_State_Penalty>
0.0155842

> <b_epik_Metal_Only>
0

> <s_lp_Force_Field>
OPLS_2005

> <r_lp_Energy>
55.0934

> <b_lp_Chiralities_Consistent>
1

> <s_lp_Variant>
AV-unprocessed.smi:1954-2

> <Gold.Version>
5.8.1

> <Gold.Id.Protein>
6NUR|6NUR_protein|mol2

> <Gold.PLP.Fitness>
44.0538

> <Gold.PLP.PLP>
-32.9262

> <Gold.PLP.part.hbond>
-3.0000

> <Gold.PLP.part.metal>
0.0000

> <Gold.PLP.part.buried>
-2.8328

> <Gold.PLP.part.nonpolar>
-28.2715

> <Gold.PLP.part.repulsive>
0.6898

> <Gold.PLP.ligand.clash>
0.0000

> <Gold.PLP.ligand.torsion>
0.4372

> <Gold.PLP.Chemscore.Hbond>
2.9920

> <Gold.PLP.Chemscore.CHOScore>
0.9858

> <Gold.PLP.Chemscore.Metal>
0.0000

> <Gold.Chemscore.Hbonds>
donor molecule, donor type, donor heavy atom, donor atom, acceptor molecule, acceptor atom, score
      L1  H     3    23       P1  7948  1.00
      L1  H    16    40       P1  7948  0.99
      P1  H 10752 10764       L1     9  0.99
      L1  C    21    44       P1 10186  1.00

> <Gold.PLP.Chemscore.Internal.Correction>
0.0686

> <Gold.Rescore>
     Score         DG    S(hbond)    S(metal)    S(lipo)     H(rot)  DE(clash)    DE(int)     intcor
     16.41     -19.67       2.27        0.00      89.06       1.49       1.57       1.69       ----

> <Gold.Chemscore.Fitness>
16.4082

> <Gold.Chemscore.DG>
-19.6727

> <Gold.Chemscore.ZeroCoef>
-5.4800

> <Gold.Chemscore.Hbond>
2.2745

> <Gold.Chemscore.Metal>
0.0000

> <Gold.Chemscore.Lipo>
89.0630

> <Gold.Chemscore.Internal_Hbond>
0.0000

> <Gold.Chemscore.DEClash>
1.5700

> <Gold.Chemscore.DEInternal>
1.6945

> <Gold.Chemscore.Rot>
1.4940

> <Gold.Chemscore.Internal.Correction>
   9.000000E+99

> <Gold.Chemscore.Hbonds>
donor molecule, donor type, donor heavy atom, donor atom, acceptor molecule, acceptor atom, score
      L1  H     3    23       P1  7948  0.95
      L1  H    16    40       P1  7948  0.91
      P1  H 10752 10764       L1     9  0.12

> <Gold.Chemscore.Hbond.Weighted>
-7.5970

> <Gold.Chemscore.Metal.Weighted>
-0.0000

> <Gold.Chemscore.Lipo.Weighted>
-10.4204

> <Gold.Chemscore.Internal_Hbond.Weighted>
0.0000

> <Gold.Chemscore.DEClash.Weighted>
1.5700

> <Gold.Chemscore.DEInternal.Weighted>
1.6945

> <Gold.Chemscore.Rot.Weighted>
3.8246

> <Gold.Chemscore.Internal.Correction.Weighted>
   9.000000E+99

> <Gold.Protein.RotatedTorsions>
[ 6907 6896 6895 6894 ] final   31.13 input  -60.11 | X-H torsion
[ 7974 7965 7964 7962 ] final   33.60 input  175.53 | X-H torsion
[ 8008 7997 7996 7995 ] final  -66.21 input   59.86 | X-H torsion
[ 10167 10162 10161 10158 ] final -171.15 input  -65.29 | X-H torsion
[ 10718 10713 10712 10709 ] final  166.96 input   66.30 | X-H torsion
[ 10763 10752 10751 10750 ] final  -44.45 input  -60.55 | X-H torsion
[ 11005 11000 10999 10996 ] final  109.48 input  -57.11 | X-H torsion

> <Gold.Protein.ActiveResidues>
 VAL166  LYS551  ARG553  GLY616  TRP617  ASP618  TYR619  PRO620  LYS621  CYS622 
 ASP623  PHE694  ASN695  SER759  ASP760  ASP761  ALA762  ILE779  LEU786  VAL792 
 PHE793  MET794  SER795  GLU796  ALA797  LYS798  CYS799  TRP800  GLU811  SER814 

> <Gold.Protein.RotatedAtoms>
  152.0558  134.9625  160.0574 H   0  0  0  0  0  0  0  0  0  0  0  0  # atno 6907 bound_to 6896
  152.1008  133.4244  159.4594 H   0  0  0  0  0  0  0  0  0  0  0  0  # atno 6908 bound_to 6896
  150.6839  134.2682  159.4620 H   0  0  0  0  0  0  0  0  0  0  0  0  # atno 6909 bound_to 6896
  146.1410  139.6376  142.9163 H   0  0  0  0  0  0  0  0  0  0  0  0  # atno 7974 bound_to 7965
  154.4720  140.0917  156.7168 H   0  0  0  0  0  0  0  0  0  0  0  0  # atno 8008 bound_to 7997
  155.4698  140.3464  155.4306 H   0  0  0  0  0  0  0  0  0  0  0  0  # atno 8009 bound_to 7997
  156.1054  140.1433  156.9399 H   0  0  0  0  0  0  0  0  0  0  0  0  # atno 8010 bound_to 7997
  139.5819  144.1404  152.1526 H   0  0  0  0  0  0  0  0  0  0  0  0  # atno 10167 bound_to 10162
  157.0584  131.0333  151.2656 H   0  0  0  0  0  0  0  0  0  0  0  0  # atno 10718 bound_to 10713
  154.0123  135.6680  153.4766 H   0  0  0  0  0  0  0  0  0  0  0  0  # atno 10763 bound_to 10752
  153.0615  135.5025  154.8101 H   0  0  0  0  0  0  0  0  0  0  0  0  # atno 10764 bound_to 10752
  154.6988  135.3075  154.9336 H   0  0  0  0  0  0  0  0  0  0  0  0  # atno 10765 bound_to 10752
  139.8863  134.9459  156.6132 H   0  0  0  0  0  0  0  0  0  0  0  0  # atno 11005 bound_to 11000
  145.5048  141.0437  143.2520 LP  0  0  0  0  0  0  0  0  0  0  0  0  # atno 17320 bound_to 7965
  144.7792  139.6563  143.7162 LP  0  0  0  0  0  0  0  0  0  0  0  0  # atno 17321 bound_to 7965
  140.0959  144.5581  150.7022 LP  0  0  0  0  0  0  0  0  0  0  0  0  # atno 17342 bound_to 10162
  140.7096  143.2494  151.4621 LP  0  0  0  0  0  0  0  0  0  0  0  0  # atno 17343 bound_to 10162
  157.4975  130.7859  149.7570 LP  0  0  0  0  0  0  0  0  0  0  0  0  # atno 17370 bound_to 10713
  155.9986  130.3893  150.2696 LP  0  0  0  0  0  0  0  0  0  0  0  0  # atno 17371 bound_to 10713
  140.7796  133.8671  155.8557 LP  0  0  0  0  0  0  0  0  0  0  0  0  # atno 17394 bound_to 11000
  140.9772  134.1453  157.4526 LP  0  0  0  0  0  0  0  0  0  0  0  0  # atno 17395 bound_to 11000

$$$$
