AV-unprocessed.smi:1555|AV-procd|sdf|6267|dock9
  -GOLD-   22720 6453D 1   1.00000     0.00000
 Structure written by MMmdl.
 41 42  0  0  0  0  0  0  0  0  1 V2000
  151.4422  140.0921  156.4891 C   0  0  0  0  0  0  0  0  0  0  0  0
  150.5863  141.1903  157.1395 C   0  0  1  0  0  0  0  0  0  0  0  0
  151.2781  142.5645  157.0600 C   0  0  0  0  0  0  0  0  0  0  0  0
  151.8899  142.9479  158.3191 N   0  0  0  0  0  0  0  0  0  0  0  0
  152.8144  142.2209  159.0582 C   0  0  0  0  0  0  0  0  0  0  0  0
  153.1109  142.9775  160.1692 C   0  0  0  0  0  0  0  0  0  0  0  0
  152.3838  144.1650  160.1357 N   0  0  0  0  0  0  0  0  0  0  0  0
  151.6832  144.0756  159.0125 C   0  0  0  0  0  0  0  0  0  0  0  0
  149.2773  141.2562  156.4941 N   0  0  0  0  0  0  0  0  0  0  0  0
  149.0542  141.4611  155.1850 C   0  0  0  0  0  0  0  0  0  0  0  0
  149.9718  141.6659  154.3891 O   0  0  0  0  0  0  0  0  0  0  0  0
  147.7469  141.4261  154.8221 N   0  0  0  0  0  0  0  0  0  0  0  0
  146.5897  141.3091  155.7255 C   0  0  0  0  0  0  0  0  0  0  0  0
  145.8551  142.6607  155.7635 C   0  0  0  0  0  0  0  0  0  0  0  0
  145.4186  143.1023  154.3487 C   0  0  0  0  0  0  0  0  0  0  0  0
  144.7711  144.4988  154.3774 C   0  0  0  0  0  0  0  0  0  0  0  0
  144.2807  144.8498  153.1003 O   0  0  0  0  0  0  0  0  0  0  0  0
  146.6102  143.0278  153.3651 C   0  0  0  0  0  0  0  0  0  0  0  0
  147.3153  141.6610  153.4391 C   0  0  0  0  0  0  0  0  0  0  0  0
  152.4188  140.0221  156.9688 H   0  0  0  0  0  0  0  0  0  0  0  0
  151.6053  140.2909  155.4294 H   0  0  0  0  0  0  0  0  0  0  0  0
  150.9653  139.1151  156.5750 H   0  0  0  0  0  0  0  0  0  0  0  0
  150.4521  140.9390  158.1935 H   0  0  0  0  0  0  0  0  0  0  0  0
  152.0578  142.5503  156.2973 H   0  0  0  0  0  0  0  0  0  0  0  0
  150.5665  143.3374  156.7656 H   0  0  0  0  0  0  0  0  0  0  0  0
  153.1763  141.2542  158.7402 H   0  0  0  0  0  0  0  0  0  0  0  0
  153.7860  142.7602  160.9836 H   0  0  0  0  0  0  0  0  0  0  0  0
  151.0061  144.8504  158.6840 H   0  0  0  0  0  0  0  0  0  0  0  0
  148.4737  141.1014  157.0852 H   0  0  0  0  0  0  0  0  0  0  0  0
  145.9204  140.5337  155.3497 H   0  0  0  0  0  0  0  0  0  0  0  0
  146.8454  140.9973  156.7381 H   0  0  0  0  0  0  0  0  0  0  0  0
  144.9847  142.5876  156.4163 H   0  0  0  0  0  0  0  0  0  0  0  0
  146.5096  143.4150  156.2029 H   0  0  0  0  0  0  0  0  0  0  0  0
  144.6637  142.3902  154.0106 H   0  0  0  0  0  0  0  0  0  0  0  0
  143.9347  144.5150  155.0768 H   0  0  0  0  0  0  0  0  0  0  0  0
  145.4849  145.2527  154.7111 H   0  0  0  0  0  0  0  0  0  0  0  0
  143.9773  144.0657  152.6688 H   0  0  0  0  0  0  0  0  0  0  0  0
  146.2692  143.2069  152.3452 H   0  0  0  0  0  0  0  0  0  0  0  0
  147.3281  143.8169  153.5933 H   0  0  0  0  0  0  0  0  0  0  0  0
  148.1410  141.6324  152.7267 H   0  0  0  0  0  0  0  0  0  0  0  0
  146.6325  140.8681  153.1312 H   0  0  0  0  0  0  0  0  0  0  0  0
  1  2  1  0  0  0  0
  1 20  1  0  0  0  0
  1 21  1  0  0  0  0
  1 22  1  0  0  0  0
  2  3  1  0  0  0  0
  2  9  1  0  0  0  0
  2 23  1  0  0  0  0
  3  4  1  0  0  0  0
  3 24  1  0  0  0  0
  3 25  1  0  0  0  0
  4  8  1  0  0  0  0
  4  5  1  0  0  0  0
  5  6  2  0  0  0  0
  5 26  1  0  0  0  0
  6  7  1  0  0  0  0
  6 27  1  0  0  0  0
  7  8  2  0  0  0  0
  8 28  1  0  0  0  0
  9 10  1  0  0  0  0
  9 29  1  0  0  0  0
 10 11  2  0  0  0  0
 10 12  1  0  0  0  0
 12 19  1  0  0  0  0
 12 13  1  0  0  0  0
 13 14  1  0  0  0  0
 13 30  1  0  0  0  0
 13 31  1  0  0  0  0
 14 15  1  0  0  0  0
 14 32  1  0  0  0  0
 14 33  1  0  0  0  0
 15 16  1  0  0  0  0
 15 18  1  0  0  0  0
 15 34  1  0  0  0  0
 16 17  1  0  0  0  0
 16 35  1  0  0  0  0
 16 36  1  0  0  0  0
 17 37  1  0  0  0  0
 18 19  1  0  0  0  0
 18 38  1  0  0  0  0
 18 39  1  0  0  0  0
 19 40  1  0  0  0  0
 19 41  1  0  0  0  0
M  END
> <s_m_source_file>
AV-unprocessed.smi

> <i_m_source_file_index>
1555

> <i_lp_mmshare_version>
43012

> <i_f3d_flags>
0

> <s_epik_input>
W2NIXTFuW2NIXVtjSF1uMVtDSDJdW0NAQEhdKFtDSDNdKVtOSF1DKD1PKU4yW0NIMl1bQ0gyXVtDSF0oW0NIMl1bT0hdKVtDSDJdW0NIMl0y

> <s_epik_cmdline>
J2VwaWtfcHl0aG9uJywgJy1waCcsICc3LjAnLCAnLXRuJywgJzgnLCAnLW1hJywgJzIwMCcsICctbWV0YWxfYmluZGluZycsICctaW1hZScsICc8aW5maWxlLm1hZT4nLCAnLW9tYWUnLCAnPG91dGZpbGUubWFlPic=

> <r_lp_tautomer_probability>
1

> <r_epik_Ionization_Penalty>
0.625883

> <r_epik_Ionization_Penalty_Charging>
0.625812

> <r_epik_Ionization_Penalty_Neutral>
7.07114e-05

> <r_epik_State_Penalty>
0.642234

> <r_epik_Charging_Adjusted_Penalty>
1.26805

> <i_epik_Tot_Q>
0

> <i_epik_Tot_abs_Q>
0

> <r_epik_Metal_State_Penalty>
0.307949

> <b_epik_Metal_Only>
0

> <s_lp_Force_Field>
OPLS_2005

> <r_lp_Energy>
32.573

> <b_lp_Chiralities_Consistent>
1

> <s_lp_Variant>
AV-unprocessed.smi:1555-4

> <Gold.Version>
5.8.1

> <Gold.Id.Protein>
6NUR|6NUR_protein|mol2

> <Gold.PLP.Fitness>
42.3698

> <Gold.PLP.PLP>
-39.3980

> <Gold.PLP.part.hbond>
-4.0000

> <Gold.PLP.part.metal>
0.0000

> <Gold.PLP.part.buried>
-5.9487

> <Gold.PLP.part.nonpolar>
-29.5523

> <Gold.PLP.part.repulsive>
0.2401

> <Gold.PLP.ligand.clash>
0.0000

> <Gold.PLP.ligand.torsion>
0.6807

> <Gold.PLP.Chemscore.Hbond>
1.4300

> <Gold.PLP.Chemscore.CHOScore>
0.0000

> <Gold.PLP.Chemscore.Metal>
0.0000

> <Gold.Chemscore.Hbonds>
donor molecule, donor type, donor heavy atom, donor atom, acceptor molecule, acceptor atom, score
      L1  H    17    37       P1 10174  0.84
      P1  H  7989  7998       L1    11  0.24
      P1  H  8011  8017       L1    11  0.28

> <Gold.PLP.Chemscore.Internal.Correction>
0.0432

> <Gold.Rescore>
     Score         DG    S(hbond)    S(metal)    S(lipo)     H(rot)  DE(clash)    DE(int)     intcor
      9.47     -11.14       1.12        0.00      70.80       2.49       0.08       1.58       ----

> <Gold.Chemscore.Fitness>
9.4712

> <Gold.Chemscore.DG>
-11.1366

> <Gold.Chemscore.ZeroCoef>
-5.4800

> <Gold.Chemscore.Hbond>
1.1195

> <Gold.Chemscore.Metal>
0.0000

> <Gold.Chemscore.Lipo>
70.7995

> <Gold.Chemscore.Internal_Hbond>
0.0000

> <Gold.Chemscore.DEClash>
0.0848

> <Gold.Chemscore.DEInternal>
1.5805

> <Gold.Chemscore.Rot>
2.4867

> <Gold.Chemscore.Internal.Correction>
   9.000000E+99

> <Gold.Chemscore.Hbonds>
donor molecule, donor type, donor heavy atom, donor atom, acceptor molecule, acceptor atom, score
      L1  H    17    37       P1 10174  0.57
      P1  H  7989  7998       L1    11  0.23
      P1  H  8011  8017       L1    11  0.27

> <Gold.Chemscore.Hbond.Weighted>
-3.7391

> <Gold.Chemscore.Metal.Weighted>
-0.0000

> <Gold.Chemscore.Lipo.Weighted>
-8.2835

> <Gold.Chemscore.Internal_Hbond.Weighted>
0.0000

> <Gold.Chemscore.DEClash.Weighted>
0.0848

> <Gold.Chemscore.DEInternal.Weighted>
1.5805

> <Gold.Chemscore.Rot.Weighted>
6.3660

> <Gold.Chemscore.Internal.Correction.Weighted>
   9.000000E+99

> <Gold.Protein.RotatedTorsions>
[ 6907 6896 6895 6894 ] final  -82.83 input  -60.11 | X-H torsion
[ 7974 7965 7964 7962 ] final -158.79 input  175.53 | X-H torsion
[ 8008 7997 7996 7995 ] final   64.07 input   59.86 | X-H torsion
[ 10167 10162 10161 10158 ] final   31.51 input  -65.29 | X-H torsion
[ 10718 10713 10712 10709 ] final  153.68 input   66.30 | X-H torsion
[ 10763 10752 10751 10750 ] final   20.88 input  -60.55 | X-H torsion
[ 11005 11000 10999 10996 ] final  108.80 input  -57.11 | X-H torsion

> <Gold.Protein.ActiveResidues>
 VAL166  LYS551  ARG553  GLY616  TRP617  ASP618  TYR619  PRO620  LYS621  CYS622 
 ASP623  PHE694  ASN695  SER759  ASP760  ASP761  ALA762  ILE779  LEU786  VAL792 
 PHE793  MET794  SER795  GLU796  ALA797  LYS798  CYS799  TRP800  GLU811  SER814 

> <Gold.Protein.RotatedAtoms>
  150.6892  134.3605  159.4948 H   0  0  0  0  0  0  0  0  0  0  0  0  # atno 6907 bound_to 6896
  152.1434  134.9042  160.0561 H   0  0  0  0  0  0  0  0  0  0  0  0  # atno 6908 bound_to 6896
  152.0167  133.3847  159.4278 H   0  0  0  0  0  0  0  0  0  0  0  0  # atno 6909 bound_to 6896
  144.7491  140.3777  143.6062 H   0  0  0  0  0  0  0  0  0  0  0  0  # atno 7974 bound_to 7965
  155.6402  140.3497  155.4712 H   0  0  0  0  0  0  0  0  0  0  0  0  # atno 8008 bound_to 7997
  155.9932  140.1198  157.0641 H   0  0  0  0  0  0  0  0  0  0  0  0  # atno 8009 bound_to 7997
  154.4225  140.1115  156.5581 H   0  0  0  0  0  0  0  0  0  0  0  0  # atno 8010 bound_to 7997
  140.4582  144.0946  150.6206 H   0  0  0  0  0  0  0  0  0  0  0  0  # atno 10167 bound_to 10162
  157.2415  131.0760  151.1789 H   0  0  0  0  0  0  0  0  0  0  0  0  # atno 10718 bound_to 10713
  153.1041  135.6680  153.9619 H   0  0  0  0  0  0  0  0  0  0  0  0  # atno 10763 bound_to 10752
  153.9181  135.3017  155.3449 H   0  0  0  0  0  0  0  0  0  0  0  0  # atno 10764 bound_to 10752
  154.7462  135.5056  153.9284 H   0  0  0  0  0  0  0  0  0  0  0  0  # atno 10765 bound_to 10752
  139.8850  134.9440  156.6027 H   0  0  0  0  0  0  0  0  0  0  0  0  # atno 11005 bound_to 11000
  145.7011  139.1661  143.2592 LP  0  0  0  0  0  0  0  0  0  0  0  0  # atno 17320 bound_to 7965
  146.1415  140.7051  142.9365 LP  0  0  0  0  0  0  0  0  0  0  0  0  # atno 17321 bound_to 7965
  140.4125  143.2650  151.9815 LP  0  0  0  0  0  0  0  0  0  0  0  0  # atno 17342 bound_to 10162
  139.4803  144.5902  151.7784 LP  0  0  0  0  0  0  0  0  0  0  0  0  # atno 17343 bound_to 10162
  157.3373  130.7015  149.6360 LP  0  0  0  0  0  0  0  0  0  0  0  0  # atno 17370 bound_to 10713
  155.9670  130.4290  150.4813 LP  0  0  0  0  0  0  0  0  0  0  0  0  # atno 17371 bound_to 10713
  140.7871  133.8612  155.8615 LP  0  0  0  0  0  0  0  0  0  0  0  0  # atno 17394 bound_to 11000
  140.9710  134.1532  157.4576 LP  0  0  0  0  0  0  0  0  0  0  0  0  # atno 17395 bound_to 11000

$$$$
