AV-unprocessed.smi:2896|AV-procd|sdf|11137|dock9
  -GOLD-   2272016 13D 1   1.00000     0.00000
 Structure written by MMmdl.
 50 51  0  0  0  0  0  0  0  0  2 V2000
  146.2362  138.1186  155.0817 C   0  0  0  0  0  0  0  0  0  0  0  0
  147.4994  137.3029  154.7410 C   0  0  1  0  0  0  0  0  0  0  0  0
  148.5887  137.4662  155.8234 C   0  0  0  0  0  0  0  0  0  0  0  0
  149.3633  138.6894  155.6447 N   0  0  0  0  0  0  0  0  0  0  0  0
  149.8502  139.4519  156.6394 C   0  0  0  0  0  0  0  0  0  0  0  0
  149.6328  139.2015  157.8260 O   0  0  0  0  0  0  0  0  0  0  0  0
  150.7149  140.6724  156.2362 C   0  0  0  0  0  0  0  0  0  0  0  0
  151.8783  140.1489  155.3615 C   0  0  0  0  0  0  0  0  0  0  0  0
  149.8929  141.6566  155.3680 C   0  0  0  0  0  0  0  0  0  0  0  0
  151.1876  141.3988  157.5132 C   0  0  0  0  0  0  0  0  0  0  0  0
  151.9866  140.7222  158.4668 C   0  0  0  0  0  0  0  0  0  0  0  0
  152.4232  141.4033  159.6178 C   0  0  0  0  0  0  0  0  0  0  0  0
  152.0420  142.7474  159.7835 C   0  0  0  0  0  0  0  0  0  0  0  0
  151.2804  143.4128  158.8911 N   0  0  0  0  0  0  0  0  0  0  0  0
  150.8659  142.7513  157.7893 C   0  0  0  0  0  0  0  0  0  0  0  0
  147.1651  135.8089  154.5389 C   0  0  0  0  0  0  0  0  0  0  0  0
  146.8351  135.4730  153.1299 N   0  3  0  0  0  0  0  0  0  0  0  0
  146.7370  134.0145  152.8718 C   0  0  0  0  0  0  0  0  0  0  0  0
  146.4365  133.7511  151.3866 C   0  0  0  0  0  0  0  0  0  0  0  0
  145.2404  134.4239  151.0141 O   0  0  0  0  0  0  0  0  0  0  0  0
  145.3511  135.8325  151.1735 C   0  0  0  0  0  0  0  0  0  0  0  0
  145.6147  136.1653  152.6519 C   0  0  0  0  0  0  0  0  0  0  0  0
  145.7862  137.7790  156.0151 H   0  0  0  0  0  0  0  0  0  0  0  0
  145.4825  138.0324  154.2991 H   0  0  0  0  0  0  0  0  0  0  0  0
  146.4592  139.1795  155.1902 H   0  0  0  0  0  0  0  0  0  0  0  0
  147.9103  137.6960  153.8117 H   0  0  0  0  0  0  0  0  0  0  0  0
  148.1319  137.4950  156.8134 H   0  0  0  0  0  0  0  0  0  0  0  0
  149.2616  136.6068  155.8234 H   0  0  0  0  0  0  0  0  0  0  0  0
  149.5778  138.9609  154.6957 H   0  0  0  0  0  0  0  0  0  0  0  0
  152.4985  139.4251  155.8924 H   0  0  0  0  0  0  0  0  0  0  0  0
  152.5247  140.9622  155.0294 H   0  0  0  0  0  0  0  0  0  0  0  0
  151.5077  139.6507  154.4644 H   0  0  0  0  0  0  0  0  0  0  0  0
  148.9813  141.9894  155.8650 H   0  0  0  0  0  0  0  0  0  0  0  0
  149.5940  141.2066  154.4200 H   0  0  0  0  0  0  0  0  0  0  0  0
  150.4766  142.5465  155.1296 H   0  0  0  0  0  0  0  0  0  0  0  0
  152.2772  139.6929  158.3166 H   0  0  0  0  0  0  0  0  0  0  0  0
  153.0363  140.9077  160.3558 H   0  0  0  0  0  0  0  0  0  0  0  0
  152.3582  143.3026  160.6541 H   0  0  0  0  0  0  0  0  0  0  0  0
  150.2639  143.3425  157.1170 H   0  0  0  0  0  0  0  0  0  0  0  0
  147.9926  135.1793  154.8702 H   0  0  0  0  0  0  0  0  0  0  0  0
  146.3193  135.5581  155.1814 H   0  0  0  0  0  0  0  0  0  0  0  0
  147.6650  133.5122  153.1420 H   0  0  0  0  0  0  0  0  0  0  0  0
  145.9491  133.5839  153.4917 H   0  0  0  0  0  0  0  0  0  0  0  0
  147.2649  134.0794  150.7568 H   0  0  0  0  0  0  0  0  0  0  0  0
  146.3091  132.6824  151.2136 H   0  0  0  0  0  0  0  0  0  0  0  0
  146.1480  136.2218  150.5378 H   0  0  0  0  0  0  0  0  0  0  0  0
  144.4231  136.2993  150.8427 H   0  0  0  0  0  0  0  0  0  0  0  0
  144.7605  135.8663  153.2617 H   0  0  0  0  0  0  0  0  0  0  0  0
  145.7307  137.2434  152.7677 H   0  0  0  0  0  0  0  0  0  0  0  0
  147.5959  135.8237  152.5656 H   0  0  0  0  0  0  0  0  0  0  0  0
  1  2  1  0  0  0  0
  1 23  1  0  0  0  0
  1 24  1  0  0  0  0
  1 25  1  0  0  0  0
  2  3  1  0  0  0  0
  2 16  1  0  0  0  0
  2 26  1  0  0  0  0
  3  4  1  0  0  0  0
  3 27  1  0  0  0  0
  3 28  1  0  0  0  0
  4  5  1  0  0  0  0
  4 29  1  0  0  0  0
  5  6  2  0  0  0  0
  5  7  1  0  0  0  0
  7  8  1  0  0  0  0
  7  9  1  0  0  0  0
  7 10  1  0  0  0  0
  8 30  1  0  0  0  0
  8 31  1  0  0  0  0
  8 32  1  0  0  0  0
  9 33  1  0  0  0  0
  9 34  1  0  0  0  0
  9 35  1  0  0  0  0
 10 15  1  0  0  0  0
 10 11  2  0  0  0  0
 11 12  1  0  0  0  0
 11 36  1  0  0  0  0
 12 13  2  0  0  0  0
 12 37  1  0  0  0  0
 13 14  1  0  0  0  0
 13 38  1  0  0  0  0
 14 15  2  0  0  0  0
 15 39  1  0  0  0  0
 16 17  1  0  0  0  0
 16 40  1  0  0  0  0
 16 41  1  0  0  0  0
 17 22  1  0  0  0  0
 17 18  1  0  0  0  0
 17 50  1  0  0  0  0
 18 19  1  0  0  0  0
 18 42  1  0  0  0  0
 18 43  1  0  0  0  0
 19 20  1  0  0  0  0
 19 44  1  0  0  0  0
 19 45  1  0  0  0  0
 20 21  1  0  0  0  0
 21 22  1  0  0  0  0
 21 46  1  0  0  0  0
 21 47  1  0  0  0  0
 22 48  1  0  0  0  0
 22 49  1  0  0  0  0
M  CHG  1  17   1
M  END
> <s_m_source_file>
AV-unprocessed.smi

> <i_m_source_file_index>
2896

> <i_lp_mmshare_version>
43012

> <i_f3d_flags>
0

> <s_epik_input>
W0NIMl0xW0NIMl1PW0NIMl1bQ0gyXU4xW0NIMl1bQ0BIXShbQ0gzXSlbQ0gyXVtOSF1DKD1PKUMoW0NIM10pKFtDSDNdKWMyW2NIXVtjSF1bY0hdbltjSF0y

> <s_epik_cmdline>
J2VwaWtfcHl0aG9uJywgJy1waCcsICc3LjAnLCAnLXRuJywgJzgnLCAnLW1hJywgJzIwMCcsICctbWV0YWxfYmluZGluZycsICctaW1hZScsICc8aW5maWxlLm1hZT4nLCAnLW9tYWUnLCAnPG91dGZpbGUubWFlPic=

> <r_epik_Ionization_Penalty>
0.378644

> <r_epik_Ionization_Penalty_Charging>
0.372108

> <r_epik_Ionization_Penalty_Neutral>
0.0065361

> <r_epik_State_Penalty>
0.380038

> <r_epik_Charging_Adjusted_Penalty>
0.752147

> <i_epik_Tot_Q>
1

> <i_epik_Tot_abs_Q>
1

> <r_epik_Metal_State_Penalty>
0.375202

> <b_epik_Metal_Only>
0

> <s_lp_Force_Field>
OPLS_2005

> <r_lp_Energy>
23.8301

> <b_lp_Chiralities_Consistent>
1

> <s_lp_Variant>
AV-unprocessed.smi:2896-2

> <Gold.Version>
5.8.1

> <Gold.Id.Protein>
6NUR|6NUR_protein|mol2

> <Gold.PLP.Fitness>
37.7167

> <Gold.PLP.PLP>
-30.3382

> <Gold.PLP.part.hbond>
-1.0000

> <Gold.PLP.part.metal>
0.0000

> <Gold.PLP.part.buried>
-2.7059

> <Gold.PLP.part.nonpolar>
-26.3440

> <Gold.PLP.part.repulsive>
0.2346

> <Gold.PLP.ligand.clash>
0.0000

> <Gold.PLP.ligand.torsion>
0.8996

> <Gold.PLP.Chemscore.Hbond>
2.0000

> <Gold.PLP.Chemscore.CHOScore>
0.9994

> <Gold.PLP.Chemscore.Metal>
0.0000

> <Gold.Chemscore.Hbonds>
donor molecule, donor type, donor heavy atom, donor atom, acceptor molecule, acceptor atom, score
      L1  H    17    50       P1  7948  2.00
      L1  C    15    39       P1  8028  1.00

> <Gold.PLP.Chemscore.Internal.Correction>
0.1794

> <Gold.Rescore>
     Score         DG    S(hbond)    S(metal)    S(lipo)     H(rot)  DE(clash)    DE(int)     intcor
     12.05     -14.44       0.99        0.00      87.32       1.78       0.25       2.14       ----

> <Gold.Chemscore.Fitness>
12.0536

> <Gold.Chemscore.DG>
-14.4414

> <Gold.Chemscore.ZeroCoef>
-5.4800

> <Gold.Chemscore.Hbond>
0.9863

> <Gold.Chemscore.Metal>
0.0000

> <Gold.Chemscore.Lipo>
87.3199

> <Gold.Chemscore.Internal_Hbond>
0.0000

> <Gold.Chemscore.DEClash>
0.2509

> <Gold.Chemscore.DEInternal>
2.1369

> <Gold.Chemscore.Rot>
1.7771

> <Gold.Chemscore.Internal.Correction>
   9.000000E+99

> <Gold.Chemscore.Hbonds>
donor molecule, donor type, donor heavy atom, donor atom, acceptor molecule, acceptor atom, score
      L1  H    17    50       P1  7948  0.97

> <Gold.Chemscore.Hbond.Weighted>
-3.2944

> <Gold.Chemscore.Metal.Weighted>
-0.0000

> <Gold.Chemscore.Lipo.Weighted>
-10.2164

> <Gold.Chemscore.Internal_Hbond.Weighted>
0.0000

> <Gold.Chemscore.DEClash.Weighted>
0.2509

> <Gold.Chemscore.DEInternal.Weighted>
2.1369

> <Gold.Chemscore.Rot.Weighted>
4.5494

> <Gold.Chemscore.Internal.Correction.Weighted>
   9.000000E+99

> <Gold.Protein.RotatedTorsions>
[ 6907 6896 6895 6894 ] final  -34.47 input  -60.11 | X-H torsion
[ 7974 7965 7964 7962 ] final  179.22 input  175.53 | X-H torsion
[ 8008 7997 7996 7995 ] final  -98.67 input   59.86 | X-H torsion
[ 10167 10162 10161 10158 ] final  -72.73 input  -65.29 | X-H torsion
[ 10718 10713 10712 10709 ] final  172.45 input   66.30 | X-H torsion
[ 10763 10752 10751 10750 ] final  -53.13 input  -60.55 | X-H torsion
[ 11005 11000 10999 10996 ] final  -42.91 input  -57.11 | X-H torsion

> <Gold.Protein.ActiveResidues>
 VAL166  LYS551  ARG553  GLY616  TRP617  ASP618  TYR619  PRO620  LYS621  CYS622 
 ASP623  PHE694  ASN695  SER759  ASP760  ASP761  ALA762  ILE779  LEU786  VAL792 
 PHE793  MET794  SER795  GLU796  ALA797  LYS798  CYS799  TRP800  GLU811  SER814 

> <Gold.Protein.RotatedAtoms>
  151.0521  134.9680  159.8216 H   0  0  0  0  0  0  0  0  0  0  0  0  # atno 6907 bound_to 6896
  152.5382  134.2523  159.8914 H   0  0  0  0  0  0  0  0  0  0  0  0  # atno 6908 bound_to 6896
  151.2540  133.4293  159.2646 H   0  0  0  0  0  0  0  0  0  0  0  0  # atno 6909 bound_to 6896
  144.7148  140.0515  143.6435 H   0  0  0  0  0  0  0  0  0  0  0  0  # atno 7974 bound_to 7965
  154.8043  140.0453  157.1296 H   0  0  0  0  0  0  0  0  0  0  0  0  # atno 8008 bound_to 7997
  154.9442  140.3056  155.5086 H   0  0  0  0  0  0  0  0  0  0  0  0  # atno 8009 bound_to 7997
  156.2965  140.2300  156.4514 H   0  0  0  0  0  0  0  0  0  0  0  0  # atno 8010 bound_to 7997
  140.5168  143.2337  151.7498 H   0  0  0  0  0  0  0  0  0  0  0  0  # atno 10167 bound_to 10162
  156.9788  131.0112  151.2887 H   0  0  0  0  0  0  0  0  0  0  0  0  # atno 10718 bound_to 10713
  154.1538  135.6486  153.4970 H   0  0  0  0  0  0  0  0  0  0  0  0  # atno 10763 bound_to 10752
  153.0130  135.5344  154.6781 H   0  0  0  0  0  0  0  0  0  0  0  0  # atno 10764 bound_to 10752
  154.6076  135.2950  155.0439 H   0  0  0  0  0  0  0  0  0  0  0  0  # atno 10765 bound_to 10752
  141.0348  133.6804  156.2660 H   0  0  0  0  0  0  0  0  0  0  0  0  # atno 11005 bound_to 11000
  145.9940  139.3037  143.0968 LP  0  0  0  0  0  0  0  0  0  0  0  0  # atno 17320 bound_to 7965
  145.8870  140.9327  143.0572 LP  0  0  0  0  0  0  0  0  0  0  0  0  # atno 17321 bound_to 7965
  139.4912  144.4312  151.9870 LP  0  0  0  0  0  0  0  0  0  0  0  0  # atno 17342 bound_to 10162
  140.3406  144.3207  150.5968 LP  0  0  0  0  0  0  0  0  0  0  0  0  # atno 17343 bound_to 10162
  157.5541  130.8202  149.8182 LP  0  0  0  0  0  0  0  0  0  0  0  0  # atno 17370 bound_to 10713
  156.0253  130.3781  150.1842 LP  0  0  0  0  0  0  0  0  0  0  0  0  # atno 17371 bound_to 10713
  140.6342  134.5232  157.5563 LP  0  0  0  0  0  0  0  0  0  0  0  0  # atno 17394 bound_to 11000
  139.9233  134.8106  156.1145 LP  0  0  0  0  0  0  0  0  0  0  0  0  # atno 17395 bound_to 11000

$$$$
