AV-unprocessed.smi:221|AV-procd|sdf|1693|dock6
  -GOLD-   2262020143D 1   1.00000     0.00000
 Structure written by MMmdl.
 50 53  0  0  0  0  0  0  0  0  1 V2000
  145.6744  136.7792  161.4142 N   0  0  0  0  0  0  0  0  0  0  0  0
  146.9468  136.3909  161.3050 C   0  0  0  0  0  0  0  0  0  0  0  0
  147.8757  137.1965  161.2714 O   0  0  0  0  0  0  0  0  0  0  0  0
  147.2033  134.8787  161.2036 C   0  0  1  0  0  0  0  0  0  0  0  0
  146.5590  134.1231  162.3776 C   0  0  0  0  0  0  0  0  0  0  0  0
  146.2789  132.7356  161.8087 C   0  0  2  0  0  0  0  0  0  0  0  0
  147.3927  132.0029  161.8555 F   0  0  0  0  0  0  0  0  0  0  0  0
  145.9170  133.0200  160.3511 C   0  0  0  0  0  0  0  0  0  0  0  0
  146.5782  134.2772  160.0211 N   0  0  0  0  0  0  0  0  0  0  0  0
  147.0541  134.4699  158.7618 C   0  0  0  0  0  0  0  0  0  0  0  0
  148.2958  134.9972  158.5893 N   0  0  0  0  0  0  0  0  0  0  0  0
  148.7846  135.1967  157.3623 C   0  0  0  0  0  0  0  0  0  0  0  0
  148.2093  134.9489  156.1851 N   0  0  0  0  0  0  0  0  0  0  0  0
  146.9596  134.4285  156.3475 C   0  0  0  0  0  0  0  0  0  0  0  0
  146.3109  134.1574  157.5864 C   0  0  0  0  0  0  0  0  0  0  0  0
  145.0409  133.6432  157.3474 N   0  0  0  0  0  0  0  0  0  0  0  0
  144.9446  133.6137  156.0465 C   0  0  0  0  0  0  0  0  0  0  0  0
  146.0495  134.0724  155.3678 N   0  0  0  0  0  0  0  0  0  0  0  0
  146.2052  134.1597  153.9268 C   0  0  0  0  0  0  0  0  0  0  0  0
  144.8747  134.0200  153.1395 C   0  0  1  0  0  0  0  0  0  0  0  0
  143.9452  135.2466  153.3293 C   0  0  0  0  0  0  0  0  0  0  0  0
  142.5851  134.9080  153.1493 O   0  0  0  0  0  0  0  0  0  0  0  0
  145.1673  133.7608  151.6379 C   0  0  2  0  0  0  0  0  0  0  0  0
  143.9562  133.3928  150.7951 C   0  0  0  0  0  0  0  0  0  0  0  0
  144.5924  132.7528  149.5663 C   0  0  0  0  0  0  0  0  0  0  0  0
  145.7854  132.1321  150.0292 O   0  0  0  0  0  0  0  0  0  0  0  0
  146.0635  132.5472  151.3620 C   0  0  0  0  0  0  0  0  0  0  0  0
  148.2757  134.6736  161.1900 H   0  0  0  0  0  0  0  0  0  0  0  0
  145.5031  132.1919  162.3482 H   0  0  0  0  0  0  0  0  0  0  0  0
  145.4563  137.7621  161.4898 H   0  0  0  0  0  0  0  0  0  0  0  0
  144.9364  136.0905  161.4269 H   0  0  0  0  0  0  0  0  0  0  0  0
  147.1981  134.0932  163.2608 H   0  0  0  0  0  0  0  0  0  0  0  0
  145.6141  134.5860  162.6684 H   0  0  0  0  0  0  0  0  0  0  0  0
  146.2153  132.1958  159.7009 H   0  0  0  0  0  0  0  0  0  0  0  0
  144.8406  133.1611  160.2478 H   0  0  0  0  0  0  0  0  0  0  0  0
  149.7787  135.6163  157.3177 H   0  0  0  0  0  0  0  0  0  0  0  0
  144.0563  133.2622  155.5422 H   0  0  0  0  0  0  0  0  0  0  0  0
  146.6835  135.1103  153.6873 H   0  0  0  0  0  0  0  0  0  0  0  0
  146.9098  133.3817  153.6329 H   0  0  0  0  0  0  0  0  0  0  0  0
  144.3494  133.1419  153.5190 H   0  0  0  0  0  0  0  0  0  0  0  0
  144.0861  135.6917  154.3147 H   0  0  0  0  0  0  0  0  0  0  0  0
  144.1587  136.0277  152.6020 H   0  0  0  0  0  0  0  0  0  0  0  0
  142.4595  134.0117  153.4217 H   0  0  0  0  0  0  0  0  0  0  0  0
  145.6362  134.6445  151.2014 H   0  0  0  0  0  0  0  0  0  0  0  0
  143.3353  132.6633  151.3171 H   0  0  0  0  0  0  0  0  0  0  0  0
  143.3321  134.2460  150.5300 H   0  0  0  0  0  0  0  0  0  0  0  0
  143.9309  132.0355  149.0802 H   0  0  0  0  0  0  0  0  0  0  0  0
  144.8602  133.5167  148.8353 H   0  0  0  0  0  0  0  0  0  0  0  0
  147.1231  132.7730  151.4831 H   0  0  0  0  0  0  0  0  0  0  0  0
  145.8159  131.7230  152.0324 H   0  0  0  0  0  0  0  0  0  0  0  0
  1  2  1  0  0  0  0
  1 30  1  0  0  0  0
  1 31  1  0  0  0  0
  2  3  2  0  0  0  0
  2  4  1  0  0  0  0
  4 28  1  0  0  0  0
  4  9  1  0  0  0  0
  4  5  1  0  0  0  0
  5  6  1  0  0  0  0
  5 32  1  0  0  0  0
  5 33  1  0  0  0  0
  6 29  1  0  0  0  0
  6  7  1  0  0  0  0
  6  8  1  0  0  0  0
  8  9  1  0  0  0  0
  8 34  1  0  0  0  0
  8 35  1  0  0  0  0
  9 10  1  0  0  0  0
 10 15  1  0  0  0  0
 10 11  2  0  0  0  0
 11 12  1  0  0  0  0
 12 13  2  0  0  0  0
 12 36  1  0  0  0  0
 13 14  1  0  0  0  0
 14 18  1  0  0  0  0
 14 15  2  0  0  0  0
 15 16  1  0  0  0  0
 16 17  2  0  0  0  0
 17 18  1  0  0  0  0
 17 37  1  0  0  0  0
 18 19  1  0  0  0  0
 19 20  1  0  0  0  0
 19 38  1  0  0  0  0
 19 39  1  0  0  0  0
 20 21  1  0  0  0  0
 20 23  1  0  0  0  0
 20 40  1  0  0  0  0
 21 22  1  0  0  0  0
 21 41  1  0  0  0  0
 21 42  1  0  0  0  0
 22 43  1  0  0  0  0
 23 27  1  0  0  0  0
 23 24  1  0  0  0  0
 23 44  1  0  0  0  0
 24 25  1  0  0  0  0
 24 45  1  0  0  0  0
 24 46  1  0  0  0  0
 25 26  1  0  0  0  0
 25 47  1  0  0  0  0
 25 48  1  0  0  0  0
 26 27  1  0  0  0  0
 27 49  1  0  0  0  0
 27 50  1  0  0  0  0
M  END
> <s_m_source_file>
AV-unprocessed.smi

> <i_m_source_file_index>
221

> <i_lp_mmshare_version>
43012

> <i_f3d_flags>
0

> <s_epik_input>
W05IMl1DKD1PKVtDQEBIXTFbQ0gyXVtDQEBIXShGKVtDSDJdTjFjKG5bY0hdbjIpYyhjMjMpbltjSF1uM1tDSDJdW0NASF0oW0NIMl1bT0hdKVtDQEBIXTRbQ0gyXVtDSDJdT1tDSDJdNA==

> <s_epik_cmdline>
J2VwaWtfcHl0aG9uJywgJy1waCcsICc3LjAnLCAnLXRuJywgJzgnLCAnLW1hJywgJzIwMCcsICctbWV0YWxfYmluZGluZycsICctaW1hZScsICc8aW5maWxlLm1hZT4nLCAnLW9tYWUnLCAnPG91dGZpbGUubWFlPic=

> <r_lp_tautomer_probability>
1

> <r_epik_Ionization_Penalty>
0.000818822

> <r_epik_Ionization_Penalty_Charging>
0

> <r_epik_Ionization_Penalty_Neutral>
0.000818822

> <r_epik_State_Penalty>
0.000440551

> <r_epik_Charging_Adjusted_Penalty>
0.000440551

> <i_epik_Tot_Q>
0

> <i_epik_Tot_abs_Q>
0

> <r_epik_Metal_State_Penalty>
-0

> <b_epik_Metal_Only>
0

> <s_lp_Force_Field>
OPLS_2005

> <r_lp_Energy>
48.2465

> <b_lp_Chiralities_Consistent>
1

> <s_lp_Variant>
AV-unprocessed.smi:221-8

> <Gold.Version>
5.8.1

> <Gold.Id.Protein>
6NUR|6NUR_protein|mol2

> <Gold.PLP.Fitness>
42.0593

> <Gold.PLP.PLP>
-32.1226

> <Gold.PLP.part.hbond>
-2.9256

> <Gold.PLP.part.metal>
0.0000

> <Gold.PLP.part.buried>
-4.9635

> <Gold.PLP.part.nonpolar>
-24.2910

> <Gold.PLP.part.repulsive>
0.3245

> <Gold.PLP.ligand.clash>
0.0000

> <Gold.PLP.ligand.torsion>
1.0124

> <Gold.PLP.Chemscore.Hbond>
2.8577

> <Gold.PLP.Chemscore.CHOScore>
1.0000

> <Gold.PLP.Chemscore.Metal>
0.0000

> <Gold.Chemscore.Hbonds>
donor molecule, donor type, donor heavy atom, donor atom, acceptor molecule, acceptor atom, score
      P1  H  6931  6943       L1     3  1.00
      P1  H  6934  6947       L1     3  0.75
      L1  C    17    37       P1 10957  1.00

> <Gold.PLP.Chemscore.Internal.Correction>
0.3884

> <Gold.Rescore>
     Score         DG    S(hbond)    S(metal)    S(lipo)     H(rot)  DE(clash)    DE(int)     intcor
     13.03     -14.17       2.77        0.00      67.48       3.31       0.01       1.13       ----

> <Gold.Chemscore.Fitness>
13.0299

> <Gold.Chemscore.DG>
-14.1660

> <Gold.Chemscore.ZeroCoef>
-5.4800

> <Gold.Chemscore.Hbond>
2.7731

> <Gold.Chemscore.Metal>
0.0000

> <Gold.Chemscore.Lipo>
67.4767

> <Gold.Chemscore.Internal_Hbond>
0.0000

> <Gold.Chemscore.DEClash>
0.0074

> <Gold.Chemscore.DEInternal>
1.1287

> <Gold.Chemscore.Rot>
3.3089

> <Gold.Chemscore.Internal.Correction>
   9.000000E+99

> <Gold.Chemscore.Hbonds>
donor molecule, donor type, donor heavy atom, donor atom, acceptor molecule, acceptor atom, score
      P1  H  6931  6943       L1     3  0.95
      P1  H  6934  6947       L1     3  0.57

> <Gold.Chemscore.Hbond.Weighted>
-9.2621

> <Gold.Chemscore.Metal.Weighted>
-0.0000

> <Gold.Chemscore.Lipo.Weighted>
-7.8948

> <Gold.Chemscore.Internal_Hbond.Weighted>
0.0000

> <Gold.Chemscore.DEClash.Weighted>
0.0074

> <Gold.Chemscore.DEInternal.Weighted>
1.1287

> <Gold.Chemscore.Rot.Weighted>
8.4709

> <Gold.Chemscore.Internal.Correction.Weighted>
   9.000000E+99

> <Gold.Protein.RotatedTorsions>
[ 6907 6896 6895 6894 ] final  159.11 input  -60.11 | X-H torsion
[ 7974 7965 7964 7962 ] final -103.65 input  175.53 | X-H torsion
[ 8008 7997 7996 7995 ] final -168.72 input   59.86 | X-H torsion
[ 10167 10162 10161 10158 ] final -110.44 input  -65.29 | X-H torsion
[ 10718 10713 10712 10709 ] final   24.86 input   66.30 | X-H torsion
[ 10763 10752 10751 10750 ] final   -6.17 input  -60.55 | X-H torsion
[ 11005 11000 10999 10996 ] final  119.74 input  -57.11 | X-H torsion

> <Gold.Protein.ActiveResidues>
 VAL166  LYS551  ARG553  GLY616  TRP617  ASP618  TYR619  PRO620  LYS621  CYS622 
 ASP623  PHE694  ASN695  SER759  ASP760  ASP761  ALA762  ILE779  LEU786  VAL792 
 PHE793  MET794  SER795  GLU796  ALA797  LYS798  CYS799  TRP800  GLU811  SER814 

> <Gold.Protein.RotatedAtoms>
  151.9904  133.3789  159.4141 H   0  0  0  0  0  0  0  0  0  0  0  0  # atno 6907 bound_to 6896
  150.6922  134.3943  159.5099 H   0  0  0  0  0  0  0  0  0  0  0  0  # atno 6908 bound_to 6896
  152.1675  134.8861  160.0587 H   0  0  0  0  0  0  0  0  0  0  0  0  # atno 6909 bound_to 6896
  145.2532  140.9245  143.3083 H   0  0  0  0  0  0  0  0  0  0  0  0  # atno 7974 bound_to 7965
  155.8952  140.1031  157.1390 H   0  0  0  0  0  0  0  0  0  0  0  0  # atno 8008 bound_to 7997
  154.4019  140.1303  156.4430 H   0  0  0  0  0  0  0  0  0  0  0  0  # atno 8009 bound_to 7997
  155.7487  140.3465  155.5142 H   0  0  0  0  0  0  0  0  0  0  0  0  # atno 8010 bound_to 7997
  140.1445  143.4251  152.1539 H   0  0  0  0  0  0  0  0  0  0  0  0  # atno 10167 bound_to 10162
  157.1855  130.6822  149.6129 H   0  0  0  0  0  0  0  0  0  0  0  0  # atno 10718 bound_to 10713
  153.4087  135.7007  153.6375 H   0  0  0  0  0  0  0  0  0  0  0  0  # atno 10763 bound_to 10752
  153.4878  135.3679  155.2476 H   0  0  0  0  0  0  0  0  0  0  0  0  # atno 10764 bound_to 10752
  154.8715  135.4081  154.3435 H   0  0  0  0  0  0  0  0  0  0  0  0  # atno 10765 bound_to 10752
  139.9158  134.9630  156.7701 H   0  0  0  0  0  0  0  0  0  0  0  0  # atno 11005 bound_to 11000
  144.9484  139.4110  143.6414 LP  0  0  0  0  0  0  0  0  0  0  0  0  # atno 17320 bound_to 7965
  146.3296  139.8479  142.8878 LP  0  0  0  0  0  0  0  0  0  0  0  0  # atno 17321 bound_to 7965
  139.5456  144.7295  151.4595 LP  0  0  0  0  0  0  0  0  0  0  0  0  # atno 17342 bound_to 10162
  140.6740  143.8230  150.7035 LP  0  0  0  0  0  0  0  0  0  0  0  0  # atno 17343 bound_to 10162
  155.9718  130.4632  150.6174 LP  0  0  0  0  0  0  0  0  0  0  0  0  # atno 17370 bound_to 10713
  157.3912  131.0796  151.1392 LP  0  0  0  0  0  0  0  0  0  0  0  0  # atno 17371 bound_to 10713
  140.6627  133.9630  155.7814 LP  0  0  0  0  0  0  0  0  0  0  0  0  # atno 17394 bound_to 11000
  141.0632  134.0315  157.3630 LP  0  0  0  0  0  0  0  0  0  0  0  0  # atno 17395 bound_to 11000

$$$$
