AV-unprocessed.smi:3124|AV-procd|sdf|11903|dock1
  -GOLD-   2272017283D 1   1.00000     0.00000
 Structure written by MMmdl.
 24 24  0  0  0  0  0  0  0  0  2 V2000
  148.7034  132.6366  153.8934 C   0  0  0  0  0  0  0  0  0  0  0  0
  147.6615  132.7298  152.8309 C   0  0  0  0  0  0  0  0  0  0  0  0
  146.7898  131.8021  152.3340 C   0  0  0  0  0  0  0  0  0  0  0  0
  146.0570  132.5067  151.3338 C   0  0  0  0  0  0  0  0  0  0  0  0
  144.9575  131.9830  150.4493 C   0  0  0  0  0  0  0  0  0  0  0  0
  143.5539  132.4100  150.9209 C   0  0  1  0  0  0  0  0  0  0  0  0
  143.5801  133.7787  151.6148 C   0  0  0  0  0  0  0  0  0  0  0  0
  142.5996  132.4288  149.7967 N   0  3  0  0  0  0  0  0  0  0  0  0
  146.4421  133.7695  151.2212 N   0  0  0  0  0  0  0  0  0  0  0  0
  147.4193  133.8937  152.1387 N   0  0  0  0  0  0  0  0  0  0  0  0
  147.9096  134.7664  152.2770 H   0  0  0  0  0  0  0  0  0  0  0  0
  148.8424  131.6037  154.2136 H   0  0  0  0  0  0  0  0  0  0  0  0
  148.4201  133.2248  154.7663 H   0  0  0  0  0  0  0  0  0  0  0  0
  149.6624  133.0077  153.5312 H   0  0  0  0  0  0  0  0  0  0  0  0
  146.6922  130.7702  152.6375 H   0  0  0  0  0  0  0  0  0  0  0  0
  145.0124  130.8945  150.4002 H   0  0  0  0  0  0  0  0  0  0  0  0
  145.1182  132.3327  149.4284 H   0  0  0  0  0  0  0  0  0  0  0  0
  143.1887  131.6762  151.6405 H   0  0  0  0  0  0  0  0  0  0  0  0
  144.2480  133.7689  152.4768 H   0  0  0  0  0  0  0  0  0  0  0  0
  142.5885  134.0583  151.9729 H   0  0  0  0  0  0  0  0  0  0  0  0
  143.9240  134.5621  150.9383 H   0  0  0  0  0  0  0  0  0  0  0  0
  141.8861  133.1221  149.9694 H   0  0  0  0  0  0  0  0  0  0  0  0
  142.1702  131.5194  149.7033 H   0  0  0  0  0  0  0  0  0  0  0  0
  143.0913  132.6573  148.9442 H   0  0  0  0  0  0  0  0  0  0  0  0
  1 12  1  0  0  0  0
  1 13  1  0  0  0  0
  1 14  1  0  0  0  0
  1  2  1  0  0  0  0
  2 10  1  0  0  0  0
  2  3  2  0  0  0  0
  3  4  1  0  0  0  0
  3 15  1  0  0  0  0
  4  5  1  0  0  0  0
  4  9  2  0  0  0  0
  5  6  1  0  0  0  0
  5 16  1  0  0  0  0
  5 17  1  0  0  0  0
  6  7  1  0  0  0  0
  6  8  1  0  0  0  0
  6 18  1  0  0  0  0
  7 19  1  0  0  0  0
  7 20  1  0  0  0  0
  7 21  1  0  0  0  0
  8 22  1  0  0  0  0
  8 23  1  0  0  0  0
  8 24  1  0  0  0  0
  9 10  1  0  0  0  0
 10 11  1  0  0  0  0
M  CHG  1   8   1
M  END
> <s_m_source_file>
AV-unprocessed.smi

> <i_m_source_file_index>
3124

> <i_lp_mmshare_version>
43012

> <i_f3d_flags>
0

> <s_epik_input>
W0NIM11jMVtjSF1jKFtuSF1uMSlbQ0gyXVtDQEhdKFtDSDNdKVtOSDJd

> <s_epik_cmdline>
J2VwaWtfcHl0aG9uJywgJy1waCcsICc3LjAnLCAnLXRuJywgJzgnLCAnLW1hJywgJzIwMCcsICctbWV0YWxfYmluZGluZycsICctaW1hZScsICc8aW5maWxlLm1hZT4nLCAnLW9tYWUnLCAnPG91dGZpbGUubWFlPic=

> <r_lp_tautomer_probability>
0.5

> <r_epik_Ionization_Penalty>
0.00151643

> <r_epik_Ionization_Penalty_Charging>
0.00146569

> <r_epik_Ionization_Penalty_Neutral>
5.07401e-05

> <r_epik_State_Penalty>
0.379573

> <r_epik_Charging_Adjusted_Penalty>
0.381038

> <i_epik_Tot_Q>
1

> <i_epik_Tot_abs_Q>
1

> <r_epik_Metal_State_Penalty>
0.378341

> <b_epik_Metal_Only>
0

> <s_lp_Force_Field>
OPLS_2005

> <r_lp_Energy>
2.04404

> <b_lp_Chiralities_Consistent>
1

> <s_lp_Variant>
AV-unprocessed.smi:3124-2

> <Gold.Version>
5.8.1

> <Gold.Id.Protein>
6NUR|6NUR_protein|mol2

> <Gold.PLP.Fitness>
33.2802

> <Gold.PLP.PLP>
-22.4080

> <Gold.PLP.part.hbond>
-3.0000

> <Gold.PLP.part.metal>
0.0000

> <Gold.PLP.part.buried>
-2.6797

> <Gold.PLP.part.nonpolar>
-16.5880

> <Gold.PLP.part.repulsive>
0.3540

> <Gold.PLP.ligand.clash>
0.0000

> <Gold.PLP.ligand.torsion>
0.5655

> <Gold.PLP.Chemscore.Hbond>
4.0000

> <Gold.PLP.Chemscore.CHOScore>
0.0000

> <Gold.PLP.Chemscore.Metal>
0.0000

> <Gold.Chemscore.Hbonds>
donor molecule, donor type, donor heavy atom, donor atom, acceptor molecule, acceptor atom, score
      L1  H     8    22       P1 10186  2.00
      L1  H     8    23       P1 10952  1.00
      L1  H    10    11       P1  7948  1.00

> <Gold.PLP.Chemscore.Internal.Correction>
0.0031

> <Gold.Rescore>
     Score         DG    S(hbond)    S(metal)    S(lipo)     H(rot)  DE(clash)    DE(int)     intcor
     15.82     -17.79       2.82        0.00      53.00       1.30       0.12       1.84       ----

> <Gold.Chemscore.Fitness>
15.8240

> <Gold.Chemscore.DG>
-17.7895

> <Gold.Chemscore.ZeroCoef>
-5.4800

> <Gold.Chemscore.Hbond>
2.8242

> <Gold.Chemscore.Metal>
0.0000

> <Gold.Chemscore.Lipo>
53.0021

> <Gold.Chemscore.Internal_Hbond>
0.0000

> <Gold.Chemscore.DEClash>
0.1213

> <Gold.Chemscore.DEInternal>
1.8442

> <Gold.Chemscore.Rot>
1.2987

> <Gold.Chemscore.Internal.Correction>
   9.000000E+99

> <Gold.Chemscore.Hbonds>
donor molecule, donor type, donor heavy atom, donor atom, acceptor molecule, acceptor atom, score
      L1  H     8    22       P1 10186  0.96
      L1  H     8    23       P1 10952  0.98
      L1  H    10    11       P1  7948  0.59

> <Gold.Chemscore.Hbond.Weighted>
-9.4329

> <Gold.Chemscore.Metal.Weighted>
-0.0000

> <Gold.Chemscore.Lipo.Weighted>
-6.2012

> <Gold.Chemscore.Internal_Hbond.Weighted>
0.0000

> <Gold.Chemscore.DEClash.Weighted>
0.1213

> <Gold.Chemscore.DEInternal.Weighted>
1.8442

> <Gold.Chemscore.Rot.Weighted>
3.3246

> <Gold.Chemscore.Internal.Correction.Weighted>
   9.000000E+99

> <Gold.Protein.RotatedTorsions>
[ 6907 6896 6895 6894 ] final  -59.66 input  -60.11 | X-H torsion
[ 7974 7965 7964 7962 ] final -123.24 input  175.53 | X-H torsion
[ 8008 7997 7996 7995 ] final  179.22 input   59.86 | X-H torsion
[ 10167 10162 10161 10158 ] final   74.90 input  -65.29 | X-H torsion
[ 10718 10713 10712 10709 ] final  149.81 input   66.30 | X-H torsion
[ 10763 10752 10751 10750 ] final  -96.19 input  -60.55 | X-H torsion
[ 11005 11000 10999 10996 ] final   85.44 input  -57.11 | X-H torsion

> <Gold.Protein.ActiveResidues>
 VAL166  LYS551  ARG553  GLY616  TRP617  ASP618  TYR619  PRO620  LYS621  CYS622 
 ASP623  PHE694  ASN695  SER759  ASP760  ASP761  ALA762  ILE779  LEU786  VAL792 
 PHE793  MET794  SER795  GLU796  ALA797  LYS798  CYS799  TRP800  GLU811  SER814 

> <Gold.Protein.RotatedAtoms>
  150.7914  134.6939  159.6512 H   0  0  0  0  0  0  0  0  0  0  0  0  # atno 6907 bound_to 6896
  152.4019  134.6268  160.0075 H   0  0  0  0  0  0  0  0  0  0  0  0  # atno 6908 bound_to 6896
  151.6537  133.3283  159.3194 H   0  0  0  0  0  0  0  0  0  0  0  0  # atno 6909 bound_to 6896
  145.0208  140.7986  143.4382 H   0  0  0  0  0  0  0  0  0  0  0  0  # atno 7974 bound_to 7965
  156.0458  140.1314  157.0105 H   0  0  0  0  0  0  0  0  0  0  0  0  # atno 8008 bound_to 7997
  154.4412  140.1021  156.6374 H   0  0  0  0  0  0  0  0  0  0  0  0  # atno 8009 bound_to 7997
  155.5598  140.3464  155.4491 H   0  0  0  0  0  0  0  0  0  0  0  0  # atno 8010 bound_to 7997
  140.0088  144.5630  150.7676 H   0  0  0  0  0  0  0  0  0  0  0  0  # atno 10167 bound_to 10162
  157.2913  131.0854  151.1459 H   0  0  0  0  0  0  0  0  0  0  0  0  # atno 10718 bound_to 10713
  154.7217  135.5092  153.8823 H   0  0  0  0  0  0  0  0  0  0  0  0  # atno 10763 bound_to 10752
  153.0868  135.6648  153.9941 H   0  0  0  0  0  0  0  0  0  0  0  0  # atno 10764 bound_to 10752
  153.9762  135.3033  155.3403 H   0  0  0  0  0  0  0  0  0  0  0  0  # atno 10765 bound_to 10752
  139.8971  134.8287  156.2582 H   0  0  0  0  0  0  0  0  0  0  0  0  # atno 11005 bound_to 11000
  145.1898  139.2307  143.5249 LP  0  0  0  0  0  0  0  0  0  0  0  0  # atno 17320 bound_to 7965
  146.3485  140.1691  142.8590 LP  0  0  0  0  0  0  0  0  0  0  0  0  # atno 17321 bound_to 7965
  140.7390  143.2785  151.3669 LP  0  0  0  0  0  0  0  0  0  0  0  0  # atno 17342 bound_to 10162
  139.6220  144.0889  152.2400 LP  0  0  0  0  0  0  0  0  0  0  0  0  # atno 17343 bound_to 10162
  157.2854  130.6770  149.6087 LP  0  0  0  0  0  0  0  0  0  0  0  0  # atno 17370 bound_to 10713
  155.9667  130.4437  150.5431 LP  0  0  0  0  0  0  0  0  0  0  0  0  # atno 17371 bound_to 10713
  141.0179  133.7058  156.1220 LP  0  0  0  0  0  0  0  0  0  0  0  0  # atno 17394 bound_to 11000
  140.7275  134.4291  157.5569 LP  0  0  0  0  0  0  0  0  0  0  0  0  # atno 17395 bound_to 11000

$$$$
