AV-unprocessed.smi:1260|AV-procd|sdf|5294|dock2
  -GOLD-   22720 4413D 1   1.00000     0.00000
 Structure written by MMmdl.
 37 39  0  0  0  0  0  0  0  0  2 V2000
  151.0271  140.0890  154.7626 O   0  0  0  0  0  0  0  0  0  0  0  0
  151.4937  139.7667  155.8547 C   0  0  0  0  0  0  0  0  0  0  0  0
  152.4234  138.5597  155.9662 C   0  0  0  0  0  0  0  0  0  0  0  0
  151.8083  137.5301  156.7823 N   0  0  0  0  0  0  0  0  0  0  0  0
  151.2595  137.5862  157.9975 C   0  0  0  0  0  0  0  0  0  0  0  0
  150.7692  136.4127  158.3664 N   0  0  0  0  0  0  0  0  0  0  0  0
  151.0534  135.5978  157.2833 N   0  0  0  0  0  0  0  0  0  0  0  0
  151.6698  136.2551  156.3398 N   0  0  0  0  0  0  0  0  0  0  0  0
  151.2676  140.4510  156.9864 N   0  0  0  0  0  0  0  0  0  0  0  0
  150.5465  141.7178  157.0616 C   0  0  1  0  0  0  0  0  0  0  0  0
  149.3904  141.7008  158.0705 C   0  0  0  0  0  0  0  0  0  0  0  0
  149.3091  143.1397  158.6121 C   0  0  0  0  0  0  0  0  0  0  0  0
  150.4077  143.8890  157.9621 N   0  3  1  0  0  0  0  0  0  0  0  0
  150.9282  145.0706  158.6969 C   0  0  0  0  0  0  0  0  0  0  0  0
  151.8909  144.6881  159.8337 C   0  0  0  0  0  0  0  0  0  0  0  0
  153.0161  143.7895  159.3113 C   0  0  0  0  0  0  0  0  0  0  0  0
  152.4141  142.5390  158.6634 C   0  0  0  0  0  0  0  0  0  0  0  0
  151.4175  142.8975  157.5292 C   0  0  1  0  0  0  0  0  0  0  0  0
  152.6493  138.1568  154.9776 H   0  0  0  0  0  0  0  0  0  0  0  0
  153.3695  138.8541  156.4224 H   0  0  0  0  0  0  0  0  0  0  0  0
  151.2090  138.4810  158.6002 H   0  0  0  0  0  0  0  0  0  0  0  0
  151.6881  140.1101  157.8393 H   0  0  0  0  0  0  0  0  0  0  0  0
  150.1315  141.9555  156.0797 H   0  0  0  0  0  0  0  0  0  0  0  0
  148.4562  141.3818  157.6069 H   0  0  0  0  0  0  0  0  0  0  0  0
  149.5996  141.0133  158.8917 H   0  0  0  0  0  0  0  0  0  0  0  0
  148.3524  143.6087  158.3808 H   0  0  0  0  0  0  0  0  0  0  0  0
  149.4248  143.1366  159.6965 H   0  0  0  0  0  0  0  0  0  0  0  0
  151.4551  145.7027  157.9811 H   0  0  0  0  0  0  0  0  0  0  0  0
  150.0962  145.6633  159.0789 H   0  0  0  0  0  0  0  0  0  0  0  0
  152.3129  145.5894  160.2792 H   0  0  0  0  0  0  0  0  0  0  0  0
  151.3497  144.1774  160.6309 H   0  0  0  0  0  0  0  0  0  0  0  0
  153.6234  144.3312  158.5850 H   0  0  0  0  0  0  0  0  0  0  0  0
  153.6811  143.5055  160.1277 H   0  0  0  0  0  0  0  0  0  0  0  0
  153.2184  141.9130  158.2756 H   0  0  0  0  0  0  0  0  0  0  0  0
  151.9146  141.9495  159.4332 H   0  0  0  0  0  0  0  0  0  0  0  0
  151.9779  143.3116  156.6897 H   0  0  0  0  0  0  0  0  0  0  0  0
  150.0029  144.2463  157.1084 H   0  0  0  0  0  0  0  0  0  0  0  0
  1  2  2  0  0  0  0
  2  3  1  0  0  0  0
  2  9  1  0  0  0  0
  3  4  1  0  0  0  0
  3 19  1  0  0  0  0
  3 20  1  0  0  0  0
  4  8  1  0  0  0  0
  4  5  1  0  0  0  0
  5  6  2  0  0  0  0
  5 21  1  0  0  0  0
  6  7  1  0  0  0  0
  7  8  2  0  0  0  0
  9 10  1  0  0  0  0
  9 22  1  0  0  0  0
 10 18  1  0  0  0  0
 10 11  1  0  0  0  0
 10 23  1  0  0  0  0
 11 12  1  0  0  0  0
 11 24  1  0  0  0  0
 11 25  1  0  0  0  0
 12 13  1  0  0  0  0
 12 26  1  0  0  0  0
 12 27  1  0  0  0  0
 13 18  1  0  0  0  0
 13 14  1  0  0  0  0
 13 37  1  0  0  0  0
 14 15  1  0  0  0  0
 14 28  1  0  0  0  0
 14 29  1  0  0  0  0
 15 16  1  0  0  0  0
 15 30  1  0  0  0  0
 15 31  1  0  0  0  0
 16 17  1  0  0  0  0
 16 32  1  0  0  0  0
 16 33  1  0  0  0  0
 17 18  1  0  0  0  0
 17 34  1  0  0  0  0
 17 35  1  0  0  0  0
 18 36  1  0  0  0  0
M  CHG  1  13   1
M  END
> <s_m_source_file>
AV-unprocessed.smi

> <i_m_source_file_index>
1260

> <i_lp_mmshare_version>
43012

> <i_f3d_flags>
0

> <s_epik_input>
bjFubltjSF1uMVtDSDJdQyg9TylbTkhdW0NASF0oW0NIMl1bQ0gyXTIpW0NAQEhdKE4yMylbQ0gyXVtDSDJdW0NIMl1bQ0gyXTM=

> <s_epik_cmdline>
J2VwaWtfcHl0aG9uJywgJy1waCcsICc3LjAnLCAnLXRuJywgJzgnLCAnLW1hJywgJzIwMCcsICctbWV0YWxfYmluZGluZycsICctaW1hZScsICc8aW5maWxlLm1hZT4nLCAnLW9tYWUnLCAnPG91dGZpbGUubWFlPic=

> <r_lp_tautomer_probability>
1

> <r_epik_Ionization_Penalty>
0.00234324

> <r_epik_Ionization_Penalty_Charging>
0.00233897

> <r_epik_Ionization_Penalty_Neutral>
4.26861e-06

> <r_epik_State_Penalty>
0.00161477

> <r_epik_Charging_Adjusted_Penalty>
0.00395374

> <i_epik_Tot_Q>
1

> <i_epik_Tot_abs_Q>
1

> <r_epik_Metal_State_Penalty>
-0

> <b_epik_Metal_Only>
0

> <s_lp_Force_Field>
OPLS_2005

> <r_lp_Energy>
37.4375

> <b_lp_Chiralities_Consistent>
1

> <s_lp_Variant>
AV-unprocessed.smi:1260-2

> <Gold.Version>
5.8.1

> <Gold.Id.Protein>
6NUR|6NUR_protein|mol2

> <Gold.PLP.Fitness>
47.5543

> <Gold.PLP.PLP>
-33.5409

> <Gold.PLP.part.hbond>
-4.8709

> <Gold.PLP.part.metal>
0.0000

> <Gold.PLP.part.buried>
-6.3069

> <Gold.PLP.part.nonpolar>
-23.3558

> <Gold.PLP.part.repulsive>
0.1996

> <Gold.PLP.ligand.clash>
0.0000

> <Gold.PLP.ligand.torsion>
0.1186

> <Gold.PLP.Chemscore.Hbond>
4.7454

> <Gold.PLP.Chemscore.CHOScore>
0.0000

> <Gold.PLP.Chemscore.Metal>
0.0000

> <Gold.Chemscore.Hbonds>
donor molecule, donor type, donor heavy atom, donor atom, acceptor molecule, acceptor atom, score
      L1  H    13    37       P1  8028  2.00
      P1  H  6896  6907       L1     6  0.68
      P1  H  7989  7998       L1     1  1.00
      P1  H 10752 10763       L1     8  0.81

> <Gold.PLP.Chemscore.Internal.Correction>
0.0143

> <Gold.Rescore>
     Score         DG    S(hbond)    S(metal)    S(lipo)     H(rot)  DE(clash)    DE(int)     intcor
     20.51     -20.68       3.42        0.00      75.51       1.98       0.01       0.15       ----

> <Gold.Chemscore.Fitness>
20.5107

> <Gold.Chemscore.DG>
-20.6789

> <Gold.Chemscore.ZeroCoef>
-5.4800

> <Gold.Chemscore.Hbond>
3.4196

> <Gold.Chemscore.Metal>
0.0000

> <Gold.Chemscore.Lipo>
75.5138

> <Gold.Chemscore.Internal_Hbond>
0.0000

> <Gold.Chemscore.DEClash>
0.0149

> <Gold.Chemscore.DEInternal>
0.1533

> <Gold.Chemscore.Rot>
1.9757

> <Gold.Chemscore.Internal.Correction>
   9.000000E+99

> <Gold.Chemscore.Hbonds>
donor molecule, donor type, donor heavy atom, donor atom, acceptor molecule, acceptor atom, score
      L1  H    13    37       P1  8028  0.74
      P1  H  6896  6907       L1     6  0.11
      P1  H  7989  7998       L1     1  0.99
      P1  H 10752 10763       L1     8  0.76

> <Gold.Chemscore.Hbond.Weighted>
-11.4215

> <Gold.Chemscore.Metal.Weighted>
-0.0000

> <Gold.Chemscore.Lipo.Weighted>
-8.8351

> <Gold.Chemscore.Internal_Hbond.Weighted>
0.0000

> <Gold.Chemscore.DEClash.Weighted>
0.0149

> <Gold.Chemscore.DEInternal.Weighted>
0.1533

> <Gold.Chemscore.Rot.Weighted>
5.0578

> <Gold.Chemscore.Internal.Correction.Weighted>
   9.000000E+99

> <Gold.Protein.RotatedTorsions>
[ 6907 6896 6895 6894 ] final  -29.95 input  -60.11 | X-H torsion
[ 7974 7965 7964 7962 ] final  168.68 input  175.53 | X-H torsion
[ 8008 7997 7996 7995 ] final  -92.47 input   59.86 | X-H torsion
[ 10167 10162 10161 10158 ] final  -12.90 input  -65.29 | X-H torsion
[ 10718 10713 10712 10709 ] final   77.31 input   66.30 | X-H torsion
[ 10763 10752 10751 10750 ] final   81.81 input  -60.55 | X-H torsion
[ 11005 11000 10999 10996 ] final -137.37 input  -57.11 | X-H torsion

> <Gold.Protein.ActiveResidues>
 VAL166  LYS551  ARG553  GLY616  TRP617  ASP618  TYR619  PRO620  LYS621  CYS622 
 ASP623  PHE694  ASN695  SER759  ASP760  ASP761  ALA762  ILE779  LEU786  VAL792 
 PHE793  MET794  SER795  GLU796  ALA797  LYS798  CYS799  TRP800  GLU811  SER814 

> <Gold.Protein.RotatedAtoms>
  151.1122  135.0033  159.8499 H   0  0  0  0  0  0  0  0  0  0  0  0  # atno 6907 bound_to 6896
  152.5444  134.1822  159.8650 H   0  0  0  0  0  0  0  0  0  0  0  0  # atno 6908 bound_to 6896
  151.1873  133.4644  159.2627 H   0  0  0  0  0  0  0  0  0  0  0  0  # atno 6909 bound_to 6896
  144.7380  139.8943  143.6405 H   0  0  0  0  0  0  0  0  0  0  0  0  # atno 7974 bound_to 7965
  154.7235  140.0508  157.0661 H   0  0  0  0  0  0  0  0  0  0  0  0  # atno 8008 bound_to 7997
  155.0396  140.3167  155.4710 H   0  0  0  0  0  0  0  0  0  0  0  0  # atno 8009 bound_to 7997
  156.2823  140.2135  156.5519 H   0  0  0  0  0  0  0  0  0  0  0  0  # atno 8010 bound_to 7997
  140.7171  143.5483  150.9330 H   0  0  0  0  0  0  0  0  0  0  0  0  # atno 10167 bound_to 10162
  157.6706  130.9816  150.1623 H   0  0  0  0  0  0  0  0  0  0  0  0  # atno 10718 bound_to 10713
  153.1149  135.4751  154.9098 H   0  0  0  0  0  0  0  0  0  0  0  0  # atno 10763 bound_to 10752
  154.7518  135.3108  154.8546 H   0  0  0  0  0  0  0  0  0  0  0  0  # atno 10764 bound_to 10752
  153.9125  135.6863  153.4804 H   0  0  0  0  0  0  0  0  0  0  0  0  # atno 10765 bound_to 10752
  140.8717  134.2042  157.4646 H   0  0  0  0  0  0  0  0  0  0  0  0  # atno 11005 bound_to 11000
  146.1119  139.4124  143.0282 LP  0  0  0  0  0  0  0  0  0  0  0  0  # atno 17320 bound_to 7965
  145.7431  141.0001  143.1290 LP  0  0  0  0  0  0  0  0  0  0  0  0  # atno 17321 bound_to 7965
  139.9207  143.6610  152.3097 LP  0  0  0  0  0  0  0  0  0  0  0  0  # atno 17342 bound_to 10162
  139.7025  144.7633  151.1248 LP  0  0  0  0  0  0  0  0  0  0  0  0  # atno 17343 bound_to 10162
  156.2397  130.3690  149.8351 LP  0  0  0  0  0  0  0  0  0  0  0  0  # atno 17370 bound_to 10713
  156.6155  130.8604  151.3464 LP  0  0  0  0  0  0  0  0  0  0  0  0  # atno 17371 bound_to 10713
  139.8712  134.9777  156.4970 LP  0  0  0  0  0  0  0  0  0  0  0  0  # atno 17394 bound_to 11000
  140.8565  133.8092  155.9221 LP  0  0  0  0  0  0  0  0  0  0  0  0  # atno 17395 bound_to 11000

$$$$
