AV-unprocessed.smi:1362|AV-procd|sdf|5558|dock5
  -GOLD-   22720 5153D 1   1.00000     0.00000
 Structure written by MMmdl.
 39 39  0  0  0  0  0  0  0  0  1 V2000
  146.3717  137.8495  152.6335 C   0  0  0  0  0  0  0  0  0  0  0  0
  147.1512  138.9851  153.2618 C   0  0  0  0  0  0  0  0  0  0  0  0
  146.6214  140.1038  153.6339 N   0  0  0  0  0  0  0  0  0  0  0  0
  147.4469  141.0837  154.2027 C   0  0  0  0  0  0  0  0  0  0  0  0
  146.7519  142.3716  154.6107 C   0  0  0  0  0  0  0  0  0  0  0  0
  148.7866  140.8810  154.3719 C   0  0  0  0  0  0  0  0  0  0  0  0
  149.7112  141.9319  154.9850 C   0  0  0  0  0  0  0  0  0  0  0  0
  150.1433  141.6788  156.4314 C   0  0  0  0  0  0  0  0  0  0  0  0
  150.5802  140.5782  156.7689 O   0  0  0  0  0  0  0  0  0  0  0  0
  150.0247  142.7173  157.2725 N   0  0  0  0  0  0  0  0  0  0  0  0
  150.4323  142.7290  158.6767 C   0  0  2  0  0  0  0  0  0  0  0  0
  149.6468  143.8293  159.4150 C   0  0  0  0  0  0  0  0  0  0  0  0
  151.9715  142.8955  158.7813 C   0  0  0  0  0  0  0  0  0  0  0  0
  152.4813  142.7130  160.2249 C   0  0  0  0  0  0  0  0  0  0  0  0
  152.4552  144.2511  158.2349 C   0  0  0  0  0  0  0  0  0  0  0  0
  149.3806  139.5996  153.9441 C   0  0  0  0  0  0  0  0  0  0  0  0
  150.5727  139.3137  154.0459 O   0  0  0  0  0  0  0  0  0  0  0  0
  148.5109  138.7150  153.4072 N   0  0  0  0  0  0  0  0  0  0  0  0
  148.8692  137.8231  153.0978 H   0  0  0  0  0  0  0  0  0  0  0  0
  145.9133  138.1807  151.7013 H   0  0  0  0  0  0  0  0  0  0  0  0
  145.5804  137.5196  153.3071 H   0  0  0  0  0  0  0  0  0  0  0  0
  147.0122  136.9941  152.4138 H   0  0  0  0  0  0  0  0  0  0  0  0
  146.8199  142.5175  155.6886 H   0  0  0  0  0  0  0  0  0  0  0  0
  145.6950  142.3538  154.3421 H   0  0  0  0  0  0  0  0  0  0  0  0
  147.2049  143.2297  154.1137 H   0  0  0  0  0  0  0  0  0  0  0  0
  150.6038  142.0053  154.3626 H   0  0  0  0  0  0  0  0  0  0  0  0
  149.2569  142.9219  154.9350 H   0  0  0  0  0  0  0  0  0  0  0  0
  149.6499  143.5795  156.9043 H   0  0  0  0  0  0  0  0  0  0  0  0
  150.1716  141.7678  159.1240 H   0  0  0  0  0  0  0  0  0  0  0  0
  149.8197  143.7968  160.4903 H   0  0  0  0  0  0  0  0  0  0  0  0
  148.5727  143.7130  159.2675 H   0  0  0  0  0  0  0  0  0  0  0  0
  149.9238  144.8222  159.0594 H   0  0  0  0  0  0  0  0  0  0  0  0
  152.4374  142.1171  158.1751 H   0  0  0  0  0  0  0  0  0  0  0  0
  152.0203  143.4341  160.9007 H   0  0  0  0  0  0  0  0  0  0  0  0
  153.5616  142.8519  160.2797 H   0  0  0  0  0  0  0  0  0  0  0  0
  152.2714  141.7151  160.6101 H   0  0  0  0  0  0  0  0  0  0  0  0
  151.9756  145.0818  158.7534 H   0  0  0  0  0  0  0  0  0  0  0  0
  152.2506  144.3561  157.1699 H   0  0  0  0  0  0  0  0  0  0  0  0
  153.5327  144.3619  158.3593 H   0  0  0  0  0  0  0  0  0  0  0  0
  1  2  1  0  0  0  0
  1 20  1  0  0  0  0
  1 21  1  0  0  0  0
  1 22  1  0  0  0  0
  2 18  1  0  0  0  0
  2  3  2  0  0  0  0
  3  4  1  0  0  0  0
  4  5  1  0  0  0  0
  4  6  2  0  0  0  0
  5 23  1  0  0  0  0
  5 24  1  0  0  0  0
  5 25  1  0  0  0  0
  6  7  1  0  0  0  0
  6 16  1  0  0  0  0
  7  8  1  0  0  0  0
  7 26  1  0  0  0  0
  7 27  1  0  0  0  0
  8  9  2  0  0  0  0
  8 10  1  0  0  0  0
 10 11  1  0  0  0  0
 10 28  1  0  0  0  0
 11 12  1  0  0  0  0
 11 13  1  0  0  0  0
 11 29  1  0  0  0  0
 12 30  1  0  0  0  0
 12 31  1  0  0  0  0
 12 32  1  0  0  0  0
 13 14  1  0  0  0  0
 13 15  1  0  0  0  0
 13 33  1  0  0  0  0
 14 34  1  0  0  0  0
 14 35  1  0  0  0  0
 14 36  1  0  0  0  0
 15 37  1  0  0  0  0
 15 38  1  0  0  0  0
 15 39  1  0  0  0  0
 16 17  2  0  0  0  0
 16 18  1  0  0  0  0
 18 19  1  0  0  0  0
M  END
> <s_m_source_file>
AV-unprocessed.smi

> <i_m_source_file_index>
1362

> <i_lp_mmshare_version>
43012

> <i_f3d_flags>
0

> <s_epik_input>
W0NIM11jMW5jKFtDSDNdKWMoYyg9TylbbkhdMSlbQ0gyXUMoPU8pW05IXVtDQEhdKFtDSDNdKVtDSF0oW0NIM10pW0NIM10=

> <s_epik_cmdline>
J2VwaWtfcHl0aG9uJywgJy1waCcsICc3LjAnLCAnLXRuJywgJzgnLCAnLW1hJywgJzIwMCcsICctbWV0YWxfYmluZGluZycsICctaW1hZScsICc8aW5maWxlLm1hZT4nLCAnLW9tYWUnLCAnPG91dGZpbGUubWFlPic=

> <r_lp_tautomer_probability>
0.839158

> <r_epik_Ionization_Penalty>
0.000388977

> <r_epik_Ionization_Penalty_Charging>
0.000356458

> <r_epik_Ionization_Penalty_Neutral>
3.25191e-05

> <r_epik_State_Penalty>
0.0469868

> <r_epik_Charging_Adjusted_Penalty>
0.0473433

> <i_epik_Tot_Q>
0

> <i_epik_Tot_abs_Q>
0

> <r_epik_Metal_State_Penalty>
0.223288

> <b_epik_Metal_Only>
0

> <s_lp_Force_Field>
OPLS_2005

> <r_lp_Energy>
7.29912

> <b_lp_Chiralities_Consistent>
1

> <s_lp_Variant>
AV-unprocessed.smi:1362-1

> <Gold.Version>
5.8.1

> <Gold.Id.Protein>
6NUR|6NUR_protein|mol2

> <Gold.PLP.Fitness>
41.7921

> <Gold.PLP.PLP>
-34.1143

> <Gold.PLP.part.hbond>
-4.0000

> <Gold.PLP.part.metal>
0.0000

> <Gold.PLP.part.buried>
1.4592

> <Gold.PLP.part.nonpolar>
-32.5395

> <Gold.PLP.part.repulsive>
0.4321

> <Gold.PLP.ligand.clash>
0.0000

> <Gold.PLP.ligand.torsion>
0.6421

> <Gold.PLP.Chemscore.Hbond>
2.9750

> <Gold.PLP.Chemscore.CHOScore>
0.0000

> <Gold.PLP.Chemscore.Metal>
0.0000

> <Gold.Chemscore.Hbonds>
donor molecule, donor type, donor heavy atom, donor atom, acceptor molecule, acceptor atom, score
      L1  H    10    28       P1  8028  1.00
      L1  H    18    19       P1  7948  1.00
      P1  H  7989  7998       L1    17  1.00

> <Gold.PLP.Chemscore.Internal.Correction>
0.0369

> <Gold.Rescore>
     Score         DG    S(hbond)    S(metal)    S(lipo)     H(rot)  DE(clash)    DE(int)     intcor
     17.87     -18.98       2.53        0.00      80.20       1.69       0.52       0.59       ----

> <Gold.Chemscore.Fitness>
17.8713

> <Gold.Chemscore.DG>
-18.9808

> <Gold.Chemscore.ZeroCoef>
-5.4800

> <Gold.Chemscore.Hbond>
2.5292

> <Gold.Chemscore.Metal>
0.0000

> <Gold.Chemscore.Lipo>
80.2036

> <Gold.Chemscore.Internal_Hbond>
0.0000

> <Gold.Chemscore.DEClash>
0.5197

> <Gold.Chemscore.DEInternal>
0.5898

> <Gold.Chemscore.Rot>
1.6916

> <Gold.Chemscore.Internal.Correction>
   9.000000E+99

> <Gold.Chemscore.Hbonds>
donor molecule, donor type, donor heavy atom, donor atom, acceptor molecule, acceptor atom, score
      L1  H    10    28       P1  8028  0.97
      L1  H    18    19       P1  7948  0.94
      P1  H  7989  7998       L1    17  0.64

> <Gold.Chemscore.Hbond.Weighted>
-8.4476

> <Gold.Chemscore.Metal.Weighted>
-0.0000

> <Gold.Chemscore.Lipo.Weighted>
-9.3838

> <Gold.Chemscore.Internal_Hbond.Weighted>
0.0000

> <Gold.Chemscore.DEClash.Weighted>
0.5197

> <Gold.Chemscore.DEInternal.Weighted>
0.5898

> <Gold.Chemscore.Rot.Weighted>
4.3305

> <Gold.Chemscore.Internal.Correction.Weighted>
   9.000000E+99

> <Gold.Protein.RotatedTorsions>
[ 6907 6896 6895 6894 ] final   94.00 input  -60.11 | X-H torsion
[ 7974 7965 7964 7962 ] final -159.09 input  175.53 | X-H torsion
[ 8008 7997 7996 7995 ] final  -51.85 input   59.86 | X-H torsion
[ 10167 10162 10161 10158 ] final   67.43 input  -65.29 | X-H torsion
[ 10718 10713 10712 10709 ] final  153.14 input   66.30 | X-H torsion
[ 10763 10752 10751 10750 ] final -147.19 input  -60.55 | X-H torsion
[ 11005 11000 10999 10996 ] final  -73.24 input  -57.11 | X-H torsion

> <Gold.Protein.ActiveResidues>
 VAL166  LYS551  ARG553  GLY616  TRP617  ASP618  TYR619  PRO620  LYS621  CYS622 
 ASP623  PHE694  ASN695  SER759  ASP760  ASP761  ALA762  ILE779  LEU786  VAL792 
 PHE793  MET794  SER795  GLU796  ALA797  LYS798  CYS799  TRP800  GLU811  SER814 

> <Gold.Protein.RotatedAtoms>
  152.5451  134.1262  159.8419 H   0  0  0  0  0  0  0  0  0  0  0  0  # atno 6907 bound_to 6896
  151.1312  133.5028  159.2606 H   0  0  0  0  0  0  0  0  0  0  0  0  # atno 6908 bound_to 6896
  151.1673  135.0311  159.8791 H   0  0  0  0  0  0  0  0  0  0  0  0  # atno 6909 bound_to 6896
  144.7479  140.3734  143.6071 H   0  0  0  0  0  0  0  0  0  0  0  0  # atno 7974 bound_to 7965
  154.4092  140.1238  156.4896 H   0  0  0  0  0  0  0  0  0  0  0  0  # atno 8008 bound_to 7997
  155.7003  140.3495  155.4911 H   0  0  0  0  0  0  0  0  0  0  0  0  # atno 8009 bound_to 7997
  155.9391  140.1083  157.1060 H   0  0  0  0  0  0  0  0  0  0  0  0  # atno 8010 bound_to 7997
  140.0896  144.5000  150.7107 H   0  0  0  0  0  0  0  0  0  0  0  0  # atno 10167 bound_to 10162
  157.2486  131.0774  151.1745 H   0  0  0  0  0  0  0  0  0  0  0  0  # atno 10718 bound_to 10713
  154.8298  135.3367  154.6779 H   0  0  0  0  0  0  0  0  0  0  0  0  # atno 10763 bound_to 10752
  153.7400  135.6946  153.4973 H   0  0  0  0  0  0  0  0  0  0  0  0  # atno 10764 bound_to 10752
  153.2250  135.4436  155.0483 H   0  0  0  0  0  0  0  0  0  0  0  0  # atno 10765 bound_to 10752
  141.1620  133.6872  156.7181 H   0  0  0  0  0  0  0  0  0  0  0  0  # atno 11005 bound_to 11000
  145.7053  139.1671  143.2569 LP  0  0  0  0  0  0  0  0  0  0  0  0  # atno 17320 bound_to 7965
  146.1386  140.7089  142.9378 LP  0  0  0  0  0  0  0  0  0  0  0  0  # atno 17321 bound_to 7965
  140.7035  143.2451  151.4794 LP  0  0  0  0  0  0  0  0  0  0  0  0  # atno 17342 bound_to 10162
  139.5732  144.1879  152.1866 LP  0  0  0  0  0  0  0  0  0  0  0  0  # atno 17343 bound_to 10162
  157.3302  130.6981  149.6320 LP  0  0  0  0  0  0  0  0  0  0  0  0  # atno 17370 bound_to 10713
  155.9667  130.4309  150.4899 LP  0  0  0  0  0  0  0  0  0  0  0  0  # atno 17371 bound_to 10713
  140.2837  134.8296  157.3955 LP  0  0  0  0  0  0  0  0  0  0  0  0  # atno 17394 bound_to 11000
  140.1410  134.4972  155.8031 LP  0  0  0  0  0  0  0  0  0  0  0  0  # atno 17395 bound_to 11000

$$$$
