AV-unprocessed.smi:1036|AV-procd|sdf|4519|dock10
  -GOLD-   22720 2533D 1   1.00000     0.00000
 Structure written by MMmdl.
 41 43  0  0  0  0  0  0  0  0  1 V2000
  155.3769  139.0944  158.9226 O   0  0  0  0  0  0  0  0  0  0  0  0
  154.5278  138.5160  159.8910 C   0  0  0  0  0  0  0  0  0  0  0  0
  153.3331  137.8387  159.2051 C   0  0  0  0  0  0  0  0  0  0  0  0
  152.4227  138.8059  158.6207 N   0  0  0  0  0  0  0  0  0  0  0  0
  152.2957  140.1813  158.7735 C   0  0  0  0  0  0  0  0  0  0  0  0
  153.0783  140.9164  159.5620 N   0  0  0  0  0  0  0  0  0  0  0  0
  152.5758  142.1896  159.3690 C   0  0  0  0  0  0  0  0  0  0  0  0
  152.9731  143.4274  159.9238 C   0  0  0  0  0  0  0  0  0  0  0  0
  152.3016  144.6166  159.5712 C   0  0  0  0  0  0  0  0  0  0  0  0
  151.2258  144.5862  158.6602 C   0  0  0  0  0  0  0  0  0  0  0  0
  150.8127  143.3641  158.0956 C   0  0  0  0  0  0  0  0  0  0  0  0
  151.4848  142.1797  158.4518 C   0  0  0  0  0  0  0  0  0  0  0  0
  151.3338  140.8452  158.0885 N   0  0  0  0  0  0  0  0  0  0  0  0
  150.3440  140.3133  157.1604 C   0  0  0  0  0  0  0  0  0  0  0  0
  150.5571  140.8126  155.7180 C   0  0  1  0  0  0  0  0  0  0  0  0
  151.6544  140.1386  155.1307 O   0  0  0  0  0  0  0  0  0  0  0  0
  149.2819  140.6766  154.8969 C   0  0  0  0  0  0  0  0  0  0  0  0
  148.4204  141.7833  154.7217 C   0  0  0  0  0  0  0  0  0  0  0  0
  147.2462  141.6577  153.9544 C   0  0  0  0  0  0  0  0  0  0  0  0
  146.4257  142.7227  153.7932 F   0  0  0  0  0  0  0  0  0  0  0  0
  146.9265  140.4261  153.3528 C   0  0  0  0  0  0  0  0  0  0  0  0
  147.7839  139.3216  153.5160 C   0  0  0  0  0  0  0  0  0  0  0  0
  148.9592  139.4449  154.2829 C   0  0  0  0  0  0  0  0  0  0  0  0
  149.7776  138.3741  154.4211 F   0  0  0  0  0  0  0  0  0  0  0  0
  156.2277  138.6891  158.9897 H   0  0  0  0  0  0  0  0  0  0  0  0
  155.1090  137.7702  160.4332 H   0  0  0  0  0  0  0  0  0  0  0  0
  154.2093  139.2645  160.6176 H   0  0  0  0  0  0  0  0  0  0  0  0
  153.6642  137.1303  158.4453 H   0  0  0  0  0  0  0  0  0  0  0  0
  152.7710  137.2657  159.9431 H   0  0  0  0  0  0  0  0  0  0  0  0
  151.8114  138.4075  157.9225 H   0  0  0  0  0  0  0  0  0  0  0  0
  153.7965  143.4619  160.6220 H   0  0  0  0  0  0  0  0  0  0  0  0
  152.6141  145.5568  160.0014 H   0  0  0  0  0  0  0  0  0  0  0  0
  150.7173  145.5016  158.3951 H   0  0  0  0  0  0  0  0  0  0  0  0
  149.9895  143.3377  157.3971 H   0  0  0  0  0  0  0  0  0  0  0  0
  150.3543  139.2234  157.1978 H   0  0  0  0  0  0  0  0  0  0  0  0
  149.3577  140.6164  157.5143 H   0  0  0  0  0  0  0  0  0  0  0  0
  150.8347  141.8668  155.7503 H   0  0  0  0  0  0  0  0  0  0  0  0
  151.9648  139.4844  155.7380 H   0  0  0  0  0  0  0  0  0  0  0  0
  148.6575  142.7361  155.1723 H   0  0  0  0  0  0  0  0  0  0  0  0
  146.0263  140.3294  152.7641 H   0  0  0  0  0  0  0  0  0  0  0  0
  147.5410  138.3780  153.0500 H   0  0  0  0  0  0  0  0  0  0  0  0
  1  2  1  0  0  0  0
  1 25  1  0  0  0  0
  2  3  1  0  0  0  0
  2 26  1  0  0  0  0
  2 27  1  0  0  0  0
  3  4  1  0  0  0  0
  3 28  1  0  0  0  0
  3 29  1  0  0  0  0
  4  5  1  0  0  0  0
  4 30  1  0  0  0  0
  5 13  1  0  0  0  0
  5  6  2  0  0  0  0
  6  7  1  0  0  0  0
  7 12  2  0  0  0  0
  7  8  1  0  0  0  0
  8  9  2  0  0  0  0
  8 31  1  0  0  0  0
  9 10  1  0  0  0  0
  9 32  1  0  0  0  0
 10 11  2  0  0  0  0
 10 33  1  0  0  0  0
 11 12  1  0  0  0  0
 11 34  1  0  0  0  0
 12 13  1  0  0  0  0
 13 14  1  0  0  0  0
 14 15  1  0  0  0  0
 14 35  1  0  0  0  0
 14 36  1  0  0  0  0
 15 16  1  0  0  0  0
 15 17  1  0  0  0  0
 15 37  1  0  0  0  0
 16 38  1  0  0  0  0
 17 23  1  0  0  0  0
 17 18  2  0  0  0  0
 18 19  1  0  0  0  0
 18 39  1  0  0  0  0
 19 20  1  0  0  0  0
 19 21  2  0  0  0  0
 21 22  1  0  0  0  0
 21 40  1  0  0  0  0
 22 23  2  0  0  0  0
 22 41  1  0  0  0  0
 23 24  1  0  0  0  0
M  END
> <s_m_source_file>
AV-unprocessed.smi

> <i_m_source_file_index>
1036

> <i_lp_mmshare_version>
43012

> <i_f3d_flags>
0

> <s_epik_input>
W09IXVtDSDJdW0NIMl1bTkhdYyhuMSluKGMoYzEyKVtjSF1bY0hdW2NIXVtjSF0yKVtDSDJdW0NASF0oW09IXSljM1tjSF1jKEYpW2NIXVtjSF1jM0Y=

> <s_epik_cmdline>
J2VwaWtfcHl0aG9uJywgJy1waCcsICc3LjAnLCAnLXRuJywgJzgnLCAnLW1hJywgJzIwMCcsICctbWV0YWxfYmluZGluZycsICctaW1hZScsICc8aW5maWxlLm1hZT4nLCAnLW9tYWUnLCAnPG91dGZpbGUubWFlPic=

> <r_epik_Ionization_Penalty>
1.30972

> <r_epik_Ionization_Penalty_Charging>
0

> <r_epik_Ionization_Penalty_Neutral>
1.30972

> <r_epik_State_Penalty>
1.38438

> <r_epik_Charging_Adjusted_Penalty>
1.38438

> <i_epik_Tot_Q>
0

> <i_epik_Tot_abs_Q>
0

> <r_epik_Metal_State_Penalty>
0.00551145

> <b_epik_Metal_Only>
0

> <s_lp_Force_Field>
OPLS_2005

> <r_lp_Energy>
10.9481

> <b_lp_Chiralities_Consistent>
1

> <s_lp_Variant>
AV-unprocessed.smi:1036-4

> <Gold.Version>
5.8.1

> <Gold.Id.Protein>
6NUR|6NUR_protein|mol2

> <Gold.PLP.Fitness>
55.0796

> <Gold.PLP.PLP>
-50.9939

> <Gold.PLP.part.hbond>
-2.0000

> <Gold.PLP.part.metal>
0.0000

> <Gold.PLP.part.buried>
-5.2844

> <Gold.PLP.part.nonpolar>
-44.7127

> <Gold.PLP.part.repulsive>
0.0812

> <Gold.PLP.ligand.clash>
0.0000

> <Gold.PLP.ligand.torsion>
0.8935

> <Gold.PLP.Chemscore.Hbond>
1.9440

> <Gold.PLP.Chemscore.CHOScore>
0.0000

> <Gold.PLP.Chemscore.Metal>
0.0000

> <Gold.Chemscore.Hbonds>
donor molecule, donor type, donor heavy atom, donor atom, acceptor molecule, acceptor atom, score
      P1  H  7989  7998       L1    16  0.96
      P1  H  7997  8009       L1     1  1.00

> <Gold.PLP.Chemscore.Internal.Correction>
0.0407

> <Gold.Rescore>
     Score         DG    S(hbond)    S(metal)    S(lipo)     H(rot)  DE(clash)    DE(int)     intcor
     14.18     -17.48       1.72        0.00     124.07       3.22       0.03       3.28       ----

> <Gold.Chemscore.Fitness>
14.1798

> <Gold.Chemscore.DG>
-17.4844

> <Gold.Chemscore.ZeroCoef>
-5.4800

> <Gold.Chemscore.Hbond>
1.7154

> <Gold.Chemscore.Metal>
0.0000

> <Gold.Chemscore.Lipo>
124.0736

> <Gold.Chemscore.Internal_Hbond>
0.0000

> <Gold.Chemscore.DEClash>
0.0262

> <Gold.Chemscore.DEInternal>
3.2784

> <Gold.Chemscore.Rot>
3.2194

> <Gold.Chemscore.Internal.Correction>
   9.000000E+99

> <Gold.Chemscore.Hbonds>
donor molecule, donor type, donor heavy atom, donor atom, acceptor molecule, acceptor atom, score
      P1  H  7989  7998       L1    16  0.28
      P1  H  7997  8009       L1     1  0.45

> <Gold.Chemscore.Hbond.Weighted>
-5.7294

> <Gold.Chemscore.Metal.Weighted>
-0.0000

> <Gold.Chemscore.Lipo.Weighted>
-14.5166

> <Gold.Chemscore.Internal_Hbond.Weighted>
0.0000

> <Gold.Chemscore.DEClash.Weighted>
0.0262

> <Gold.Chemscore.DEInternal.Weighted>
3.2784

> <Gold.Chemscore.Rot.Weighted>
8.2416

> <Gold.Chemscore.Internal.Correction.Weighted>
   9.000000E+99

> <Gold.Protein.RotatedTorsions>
[ 6907 6896 6895 6894 ] final  147.37 input  -60.11 | X-H torsion
[ 7974 7965 7964 7962 ] final   40.76 input  175.53 | X-H torsion
[ 8008 7997 7996 7995 ] final  100.34 input   59.86 | X-H torsion
[ 10167 10162 10161 10158 ] final  164.35 input  -65.29 | X-H torsion
[ 10718 10713 10712 10709 ] final  -54.50 input   66.30 | X-H torsion
[ 10763 10752 10751 10750 ] final   40.28 input  -60.55 | X-H torsion
[ 11005 11000 10999 10996 ] final  171.15 input  -57.11 | X-H torsion

> <Gold.Protein.ActiveResidues>
 VAL166  LYS551  ARG553  GLY616  TRP617  ASP618  TYR619  PRO620  LYS621  CYS622 
 ASP623  PHE694  ASN695  SER759  ASP760  ASP761  ALA762  ILE779  LEU786  VAL792 
 PHE793  MET794  SER795  GLU796  ALA797  LYS798  CYS799  TRP800  GLU811  SER814 

> <Gold.Protein.RotatedAtoms>
  152.1556  133.4549  159.4835 H   0  0  0  0  0  0  0  0  0  0  0  0  # atno 6907 bound_to 6896
  150.6900  134.2135  159.4377 H   0  0  0  0  0  0  0  0  0  0  0  0  # atno 6908 bound_to 6896
  152.0034  134.9915  160.0616 H   0  0  0  0  0  0  0  0  0  0  0  0  # atno 6909 bound_to 6896
  146.0878  139.5495  142.9495 H   0  0  0  0  0  0  0  0  0  0  0  0  # atno 7974 bound_to 7965
  156.1194  140.3215  155.8186 H   0  0  0  0  0  0  0  0  0  0  0  0  # atno 8008 bound_to 7997
  155.4532  140.0534  157.3016 H   0  0  0  0  0  0  0  0  0  0  0  0  # atno 8009 bound_to 7997
  154.4816  140.2055  155.9764 H   0  0  0  0  0  0  0  0  0  0  0  0  # atno 8010 bound_to 7997
  139.4887  144.4244  151.9147 H   0  0  0  0  0  0  0  0  0  0  0  0  # atno 10167 bound_to 10162
  156.1446  130.4153  150.0046 H   0  0  0  0  0  0  0  0  0  0  0  0  # atno 10718 bound_to 10713
  152.9941  135.6196  154.2600 H   0  0  0  0  0  0  0  0  0  0  0  0  # atno 10763 bound_to 10752
  154.2336  135.2791  155.2882 H   0  0  0  0  0  0  0  0  0  0  0  0  # atno 10764 bound_to 10752
  154.5428  135.5756  153.6912 H   0  0  0  0  0  0  0  0  0  0  0  0  # atno 10765 bound_to 10752
  140.3160  134.7477  157.4027 H   0  0  0  0  0  0  0  0  0  0  0  0  # atno 11005 bound_to 11000
  145.6096  141.0342  143.1974 LP  0  0  0  0  0  0  0  0  0  0  0  0  # atno 17320 bound_to 7965
  144.7338  139.7645  143.7337 LP  0  0  0  0  0  0  0  0  0  0  0  0  # atno 17321 bound_to 7965
  140.3689  144.2880  150.5922 LP  0  0  0  0  0  0  0  0  0  0  0  0  # atno 17342 bound_to 10162
  140.5336  143.2238  151.8198 LP  0  0  0  0  0  0  0  0  0  0  0  0  # atno 17343 bound_to 10162
  156.7921  130.9260  151.3646 LP  0  0  0  0  0  0  0  0  0  0  0  0  # atno 17370 bound_to 10713
  157.6605  130.8962  149.9820 LP  0  0  0  0  0  0  0  0  0  0  0  0  # atno 17371 bound_to 10713
  140.0983  134.5507  155.8377 LP  0  0  0  0  0  0  0  0  0  0  0  0  # atno 17394 bound_to 11000
  141.2097  133.6687  156.6461 LP  0  0  0  0  0  0  0  0  0  0  0  0  # atno 17395 bound_to 11000

$$$$
