AV-unprocessed.smi:1824|AV-procd|sdf|7400|dock7
  -GOLD-   22720 9 73D 1   1.00000     0.00000
 Structure written by MMmdl.
 45 47  0  0  0  0  0  0  0  0  2 V2000
  145.8666  131.4574  150.1630 C   0  0  0  0  0  0  0  0  0  0  0  0
  145.8394  132.4403  151.3386 C   0  0  1  0  0  0  0  0  0  0  0  0
  147.0458  133.4004  151.3189 C   0  0  0  0  0  0  0  0  0  0  0  0
  146.9589  134.3969  152.4137 N   0  3  2  0  0  0  0  0  0  0  0  0
  147.3430  133.8575  153.7464 C   0  0  0  0  0  0  0  0  0  0  0  0
  147.6011  134.9705  154.7813 C   0  0  2  0  0  0  0  0  0  0  0  0
  148.7609  135.6851  154.3986 O   0  0  0  0  0  0  0  0  0  0  0  0
  147.8000  134.3976  156.1981 C   0  0  0  0  0  0  0  0  0  0  0  0
  149.1378  133.8691  156.3994 N   0  0  0  0  0  0  0  0  0  0  0  0
  150.1041  134.3919  157.1787 C   0  0  0  0  0  0  0  0  0  0  0  0
  151.2677  133.7501  157.2196 N   0  0  0  0  0  0  0  0  0  0  0  0
  151.0288  132.6824  156.3716 C   0  0  0  0  0  0  0  0  0  0  0  0
  151.8697  131.6162  155.9805 C   0  0  0  0  0  0  0  0  0  0  0  0
  151.4033  130.6272  155.0896 C   0  0  0  0  0  0  0  0  0  0  0  0
  152.2224  129.6119  154.7260 F   0  0  0  0  0  0  0  0  0  0  0  0
  150.0908  130.6906  154.5758 C   0  0  0  0  0  0  0  0  0  0  0  0
  149.6513  129.7383  153.7195 F   0  0  0  0  0  0  0  0  0  0  0  0
  149.2344  131.7437  154.9513 C   0  0  0  0  0  0  0  0  0  0  0  0
  149.7038  132.7271  155.8416 C   0  0  0  0  0  0  0  0  0  0  0  0
  145.6489  135.0959  152.3756 C   0  0  0  0  0  0  0  0  0  0  0  0
  144.4698  134.0989  152.3407 C   0  0  1  0  0  0  0  0  0  0  0  0
  143.1227  134.8081  152.1658 C   0  0  0  0  0  0  0  0  0  0  0  0
  144.6422  133.2049  151.2465 O   0  0  0  0  0  0  0  0  0  0  0  0
  146.7657  130.8410  150.1871 H   0  0  0  0  0  0  0  0  0  0  0  0
  145.8466  131.9827  149.2076 H   0  0  0  0  0  0  0  0  0  0  0  0
  145.0055  130.7894  150.1931 H   0  0  0  0  0  0  0  0  0  0  0  0
  145.8315  131.8667  152.2670 H   0  0  0  0  0  0  0  0  0  0  0  0
  147.9858  132.8500  151.3763 H   0  0  0  0  0  0  0  0  0  0  0  0
  147.0665  133.9391  150.3706 H   0  0  0  0  0  0  0  0  0  0  0  0
  146.5744  133.1753  154.1092 H   0  0  0  0  0  0  0  0  0  0  0  0
  148.2514  133.2604  153.6525 H   0  0  0  0  0  0  0  0  0  0  0  0
  146.7646  135.6683  154.8055 H   0  0  0  0  0  0  0  0  0  0  0  0
  148.7787  135.7477  153.4550 H   0  0  0  0  0  0  0  0  0  0  0  0
  147.6264  135.1739  156.9448 H   0  0  0  0  0  0  0  0  0  0  0  0
  147.0760  133.6067  156.3993 H   0  0  0  0  0  0  0  0  0  0  0  0
  149.9448  135.2973  157.7462 H   0  0  0  0  0  0  0  0  0  0  0  0
  152.8767  131.5583  156.3664 H   0  0  0  0  0  0  0  0  0  0  0  0
  148.2300  131.7933  154.5579 H   0  0  0  0  0  0  0  0  0  0  0  0
  145.5462  135.7835  153.2140 H   0  0  0  0  0  0  0  0  0  0  0  0
  145.6257  135.7120  151.4754 H   0  0  0  0  0  0  0  0  0  0  0  0
  144.4313  133.5248  153.2672 H   0  0  0  0  0  0  0  0  0  0  0  0
  142.9347  135.5027  152.9847 H   0  0  0  0  0  0  0  0  0  0  0  0
  142.3038  134.0886  152.1468 H   0  0  0  0  0  0  0  0  0  0  0  0
  143.0913  135.3726  151.2333 H   0  0  0  0  0  0  0  0  0  0  0  0
  147.6639  135.0908  152.2070 H   0  0  0  0  0  0  0  0  0  0  0  0
  1  2  1  0  0  0  0
  1 24  1  0  0  0  0
  1 25  1  0  0  0  0
  1 26  1  0  0  0  0
  2 23  1  0  0  0  0
  2  3  1  0  0  0  0
  2 27  1  0  0  0  0
  3  4  1  0  0  0  0
  3 28  1  0  0  0  0
  3 29  1  0  0  0  0
  4  5  1  0  0  0  0
  4 20  1  0  0  0  0
  4 45  1  0  0  0  0
  5  6  1  0  0  0  0
  5 30  1  0  0  0  0
  5 31  1  0  0  0  0
  6  7  1  0  0  0  0
  6  8  1  0  0  0  0
  6 32  1  0  0  0  0
  7 33  1  0  0  0  0
  8  9  1  0  0  0  0
  8 34  1  0  0  0  0
  8 35  1  0  0  0  0
  9 19  1  0  0  0  0
  9 10  1  0  0  0  0
 10 11  2  0  0  0  0
 10 36  1  0  0  0  0
 11 12  1  0  0  0  0
 12 19  2  0  0  0  0
 12 13  1  0  0  0  0
 13 14  2  0  0  0  0
 13 37  1  0  0  0  0
 14 15  1  0  0  0  0
 14 16  1  0  0  0  0
 16 17  1  0  0  0  0
 16 18  2  0  0  0  0
 18 19  1  0  0  0  0
 18 38  1  0  0  0  0
 20 21  1  0  0  0  0
 20 39  1  0  0  0  0
 20 40  1  0  0  0  0
 21 22  1  0  0  0  0
 21 23  1  0  0  0  0
 21 41  1  0  0  0  0
 22 42  1  0  0  0  0
 22 43  1  0  0  0  0
 22 44  1  0  0  0  0
M  CHG  1   4   1
M  END
> <s_m_source_file>
AV-unprocessed.smi

> <i_m_source_file_index>
1824

> <i_lp_mmshare_version>
43012

> <i_f3d_flags>
0

> <s_epik_input>
W0NIM11bQ0BASF0xW0NIMl1OKFtDSDJdW0NASF0oTzEpW0NIM10pW0NIMl1bQ0BIXShbT0hdKVtDSDJdbihbY0hdbjIpYyhjMjMpW2NIXWMoRiljKEYpW2NIXTM=

> <s_epik_cmdline>
J2VwaWtfcHl0aG9uJywgJy1waCcsICc3LjAnLCAnLXRuJywgJzgnLCAnLW1hJywgJzIwMCcsICctbWV0YWxfYmluZGluZycsICctaW1hZScsICc8aW5maWxlLm1hZT4nLCAnLW9tYWUnLCAnPG91dGZpbGUubWFlPic=

> <r_epik_Ionization_Penalty>
0.61967

> <r_epik_Ionization_Penalty_Charging>
0.608065

> <r_epik_Ionization_Penalty_Neutral>
0.0116057

> <r_epik_State_Penalty>
0.664205

> <r_epik_Charging_Adjusted_Penalty>
1.27227

> <i_epik_Tot_Q>
1

> <i_epik_Tot_abs_Q>
1

> <r_epik_Metal_State_Penalty>
0.654947

> <b_epik_Metal_Only>
0

> <s_lp_Force_Field>
OPLS_2005

> <r_lp_Energy>
21.7037

> <b_lp_Chiralities_Consistent>
1

> <s_lp_Variant>
AV-unprocessed.smi:1824-8

> <Gold.Version>
5.8.1

> <Gold.Id.Protein>
6NUR|6NUR_protein|mol2

> <Gold.PLP.Fitness>
42.3609

> <Gold.PLP.PLP>
-33.0340

> <Gold.PLP.part.hbond>
-2.9110

> <Gold.PLP.part.metal>
0.0000

> <Gold.PLP.part.buried>
-4.2176

> <Gold.PLP.part.nonpolar>
-27.2564

> <Gold.PLP.part.repulsive>
0.1359

> <Gold.PLP.ligand.clash>
0.0000

> <Gold.PLP.ligand.torsion>
0.3692

> <Gold.PLP.Chemscore.Hbond>
3.3432

> <Gold.PLP.Chemscore.CHOScore>
0.0000

> <Gold.PLP.Chemscore.Metal>
0.0000

> <Gold.Chemscore.Hbonds>
donor molecule, donor type, donor heavy atom, donor atom, acceptor molecule, acceptor atom, score
      L1  H     4    45       P1  7948  2.00
      L1  H     7    33       P1  7948  1.00
      P1  H  6896  6908       L1    11  0.36

> <Gold.PLP.Chemscore.Internal.Correction>
0.0357

> <Gold.Rescore>
     Score         DG    S(hbond)    S(metal)    S(lipo)     H(rot)  DE(clash)    DE(int)     intcor
     15.47     -16.01       2.39        0.00      72.67       2.33       0.01       0.53       ----

> <Gold.Chemscore.Fitness>
15.4687

> <Gold.Chemscore.DG>
-16.0100

> <Gold.Chemscore.ZeroCoef>
-5.4800

> <Gold.Chemscore.Hbond>
2.3890

> <Gold.Chemscore.Metal>
0.0000

> <Gold.Chemscore.Lipo>
72.6746

> <Gold.Chemscore.Internal_Hbond>
0.0000

> <Gold.Chemscore.DEClash>
0.0130

> <Gold.Chemscore.DEInternal>
0.5282

> <Gold.Chemscore.Rot>
2.3251

> <Gold.Chemscore.Internal.Correction>
   9.000000E+99

> <Gold.Chemscore.Hbonds>
donor molecule, donor type, donor heavy atom, donor atom, acceptor molecule, acceptor atom, score
      L1  H     4    45       P1  7948  0.96
      L1  H     7    33       P1  7948  0.97
      P1  H  6896  6908       L1    11  0.15

> <Gold.Chemscore.Hbond.Weighted>
-7.9794

> <Gold.Chemscore.Metal.Weighted>
-0.0000

> <Gold.Chemscore.Lipo.Weighted>
-8.5029

> <Gold.Chemscore.Internal_Hbond.Weighted>
0.0000

> <Gold.Chemscore.DEClash.Weighted>
0.0130

> <Gold.Chemscore.DEInternal.Weighted>
0.5282

> <Gold.Chemscore.Rot.Weighted>
5.9523

> <Gold.Chemscore.Internal.Correction.Weighted>
   9.000000E+99

> <Gold.Protein.RotatedTorsions>
[ 6907 6896 6895 6894 ] final   66.96 input  -60.11 | X-H torsion
[ 7974 7965 7964 7962 ] final -149.16 input  175.53 | X-H torsion
[ 8008 7997 7996 7995 ] final -130.76 input   59.86 | X-H torsion
[ 10167 10162 10161 10158 ] final  -68.45 input  -65.29 | X-H torsion
[ 10718 10713 10712 10709 ] final  -65.77 input   66.30 | X-H torsion
[ 10763 10752 10751 10750 ] final  -11.40 input  -60.55 | X-H torsion
[ 11005 11000 10999 10996 ] final  -69.50 input  -57.11 | X-H torsion

> <Gold.Protein.ActiveResidues>
 VAL166  LYS551  ARG553  GLY616  TRP617  ASP618  TYR619  PRO620  LYS621  CYS622 
 ASP623  PHE694  ASN695  SER759  ASP760  ASP761  ALA762  ILE779  LEU786  VAL792 
 PHE793  MET794  SER795  GLU796  ALA797  LYS798  CYS799  TRP800  GLU811  SER814 

> <Gold.Protein.RotatedAtoms>
  152.4518  134.5376  159.9829 H   0  0  0  0  0  0  0  0  0  0  0  0  # atno 6907 bound_to 6896
  151.5447  133.3421  159.2950 H   0  0  0  0  0  0  0  0  0  0  0  0  # atno 6908 bound_to 6896
  150.8450  134.7787  159.7026 H   0  0  0  0  0  0  0  0  0  0  0  0  # atno 6909 bound_to 6896
  144.7984  140.5101  143.5724 H   0  0  0  0  0  0  0  0  0  0  0  0  # atno 7974 bound_to 7965
  155.3011  140.0453  157.3029 H   0  0  0  0  0  0  0  0  0  0  0  0  # atno 8008 bound_to 7997
  154.5486  140.2310  155.8489 H   0  0  0  0  0  0  0  0  0  0  0  0  # atno 8009 bound_to 7997
  156.1946  140.3041  155.9409 H   0  0  0  0  0  0  0  0  0  0  0  0  # atno 8010 bound_to 7997
  140.5507  143.2312  151.6917 H   0  0  0  0  0  0  0  0  0  0  0  0  # atno 10167 bound_to 10162
  156.0650  130.4252  150.1612 H   0  0  0  0  0  0  0  0  0  0  0  0  # atno 10718 bound_to 10713
  153.4832  135.7017  153.5926 H   0  0  0  0  0  0  0  0  0  0  0  0  # atno 10763 bound_to 10752
  153.4130  135.3844  155.2062 H   0  0  0  0  0  0  0  0  0  0  0  0  # atno 10764 bound_to 10752
  154.8720  135.3909  154.4284 H   0  0  0  0  0  0  0  0  0  0  0  0  # atno 10765 bound_to 10752
  141.1555  133.6766  156.6609 H   0  0  0  0  0  0  0  0  0  0  0  0  # atno 11005 bound_to 11000
  145.5614  139.1479  143.3339 LP  0  0  0  0  0  0  0  0  0  0  0  0  # atno 17320 bound_to 7965
  146.2259  140.5750  142.8996 LP  0  0  0  0  0  0  0  0  0  0  0  0  # atno 17321 bound_to 7965
  139.5026  144.3823  152.0363 LP  0  0  0  0  0  0  0  0  0  0  0  0  # atno 17342 bound_to 10162
  140.2940  144.3722  150.6080 LP  0  0  0  0  0  0  0  0  0  0  0  0  # atno 17343 bound_to 10162
  156.9673  130.9823  151.3466 LP  0  0  0  0  0  0  0  0  0  0  0  0  # atno 17370 bound_to 10713
  157.5686  130.8295  149.8361 LP  0  0  0  0  0  0  0  0  0  0  0  0  # atno 17371 bound_to 10713
  140.3248  134.7978  157.4280 LP  0  0  0  0  0  0  0  0  0  0  0  0  # atno 17394 bound_to 11000
  140.1066  134.5401  155.8303 LP  0  0  0  0  0  0  0  0  0  0  0  0  # atno 17395 bound_to 11000

$$$$
