AV-unprocessed.smi:2542|AV-procd|sdf|9992|dock4
  -GOLD-   2272014 43D 1   1.00000     0.00000
 Structure written by MMmdl.
 42 43  0  0  0  0  0  0  0  0  2 V2000
  147.9926  132.8226  152.2646 C   0  0  0  0  0  0  0  0  0  0  0  0
  146.6805  132.2271  152.8171 C   0  0  0  0  0  0  0  0  0  0  0  0
  146.8434  130.6875  152.8000 C   0  0  0  0  0  0  0  0  0  0  0  0
  146.5004  132.6934  154.2876 C   0  0  0  0  0  0  0  0  0  0  0  0
  147.7472  132.6388  155.0482 N   0  0  0  0  0  0  0  0  0  0  0  0
  148.1204  131.6605  155.8895 C   0  0  0  0  0  0  0  0  0  0  0  0
  147.4509  130.6404  156.0565 O   0  0  0  0  0  0  0  0  0  0  0  0
  149.4358  131.8674  156.6718 C   0  0  0  0  0  0  0  0  0  0  0  0
  149.3908  133.0664  157.5351 C   0  0  0  0  0  0  0  0  0  0  0  0
  149.3526  134.0062  158.2104 N   0  0  0  0  0  0  0  0  0  0  0  0
  149.7933  130.6377  157.5275 C   0  0  0  0  0  0  0  0  0  0  0  0
  151.3099  130.7112  157.7372 C   0  0  0  0  0  0  0  0  0  0  0  0
  151.8602  131.5318  156.5633 C   0  0  0  0  0  0  0  0  0  0  0  0
  150.6447  131.9446  155.7238 C   0  0  0  0  0  0  0  0  0  0  0  0
  145.4936  132.7069  151.9564 C   0  0  0  0  0  0  0  0  0  0  0  0
  145.1747  134.0797  151.7883 C   0  0  0  0  0  0  0  0  0  0  0  0
  144.0924  134.4526  150.9658 C   0  0  0  0  0  0  0  0  0  0  0  0
  143.3622  133.5056  150.3411 N   0  3  0  0  0  0  0  0  0  0  0  0
  143.6198  132.1876  150.4679 C   0  0  0  0  0  0  0  0  0  0  0  0
  144.6899  131.7570  151.2774 C   0  0  0  0  0  0  0  0  0  0  0  0
  148.8547  132.4834  152.8404 H   0  0  0  0  0  0  0  0  0  0  0  0
  147.9968  133.9121  152.2982 H   0  0  0  0  0  0  0  0  0  0  0  0
  148.1556  132.5265  151.2276 H   0  0  0  0  0  0  0  0  0  0  0  0
  147.6833  130.3736  153.4210 H   0  0  0  0  0  0  0  0  0  0  0  0
  147.0354  130.3144  151.7933 H   0  0  0  0  0  0  0  0  0  0  0  0
  145.9609  130.1742  153.1823 H   0  0  0  0  0  0  0  0  0  0  0  0
  146.0553  133.6892  154.3248 H   0  0  0  0  0  0  0  0  0  0  0  0
  145.7930  132.0428  154.8026 H   0  0  0  0  0  0  0  0  0  0  0  0
  148.3616  133.4355  154.9592 H   0  0  0  0  0  0  0  0  0  0  0  0
  149.2555  130.6217  158.4764 H   0  0  0  0  0  0  0  0  0  0  0  0
  149.5564  129.7071  157.0093 H   0  0  0  0  0  0  0  0  0  0  0  0
  151.5347  131.2167  158.6771 H   0  0  0  0  0  0  0  0  0  0  0  0
  151.7551  129.7169  157.7864 H   0  0  0  0  0  0  0  0  0  0  0  0
  152.3772  132.4150  156.9406 H   0  0  0  0  0  0  0  0  0  0  0  0
  152.5768  130.9637  155.9694 H   0  0  0  0  0  0  0  0  0  0  0  0
  150.5338  131.2476  154.8910 H   0  0  0  0  0  0  0  0  0  0  0  0
  150.7716  132.9396  155.2950 H   0  0  0  0  0  0  0  0  0  0  0  0
  145.7411  134.8621  152.2693 H   0  0  0  0  0  0  0  0  0  0  0  0
  143.7928  135.4752  150.7883 H   0  0  0  0  0  0  0  0  0  0  0  0
  142.9693  131.5221  149.9196 H   0  0  0  0  0  0  0  0  0  0  0  0
  144.8909  130.6996  151.3655 H   0  0  0  0  0  0  0  0  0  0  0  0
  142.5848  133.7983  149.7485 H   0  0  0  0  0  0  0  0  0  0  0  0
  1  2  1  0  0  0  0
  1 21  1  0  0  0  0
  1 22  1  0  0  0  0
  1 23  1  0  0  0  0
  2  3  1  0  0  0  0
  2  4  1  0  0  0  0
  2 15  1  0  0  0  0
  3 24  1  0  0  0  0
  3 25  1  0  0  0  0
  3 26  1  0  0  0  0
  4  5  1  0  0  0  0
  4 27  1  0  0  0  0
  4 28  1  0  0  0  0
  5  6  1  0  0  0  0
  5 29  1  0  0  0  0
  6  7  2  0  0  0  0
  6  8  1  0  0  0  0
  8 14  1  0  0  0  0
  8  9  1  0  0  0  0
  8 11  1  0  0  0  0
  9 10  3  0  0  0  0
 11 12  1  0  0  0  0
 11 30  1  0  0  0  0
 11 31  1  0  0  0  0
 12 13  1  0  0  0  0
 12 32  1  0  0  0  0
 12 33  1  0  0  0  0
 13 14  1  0  0  0  0
 13 34  1  0  0  0  0
 13 35  1  0  0  0  0
 14 36  1  0  0  0  0
 14 37  1  0  0  0  0
 15 20  1  0  0  0  0
 15 16  2  0  0  0  0
 16 17  1  0  0  0  0
 16 38  1  0  0  0  0
 17 18  2  0  0  0  0
 17 39  1  0  0  0  0
 18 19  1  0  0  0  0
 18 42  1  0  0  0  0
 19 20  2  0  0  0  0
 19 40  1  0  0  0  0
 20 41  1  0  0  0  0
M  CHG  1  18   1
M  END
> <s_m_source_file>
AV-unprocessed.smi

> <i_m_source_file_index>
2542

> <i_lp_mmshare_version>
43012

> <i_f3d_flags>
0

> <s_epik_input>
W2NIXTFbY0hdbltjSF1bY0hdYzFDKFtDSDNdKShbQ0gzXSlbQ0gyXVtOSF1DKD1PKUMyKEMjTilbQ0gyXVtDSDJdW0NIMl1bQ0gyXTI=

> <s_epik_cmdline>
J2VwaWtfcHl0aG9uJywgJy1waCcsICc3LjAnLCAnLXRuJywgJzgnLCAnLW1hJywgJzIwMCcsICctbWV0YWxfYmluZGluZycsICctaW1hZScsICc8aW5maWxlLm1hZT4nLCAnLW9tYWUnLCAnPG91dGZpbGUubWFlPic=

> <r_epik_Ionization_Penalty>
1.51272

> <r_epik_Ionization_Penalty_Charging>
1.51272

> <r_epik_Ionization_Penalty_Neutral>
6.26824e-07

> <r_epik_State_Penalty>
1.60388

> <r_epik_Charging_Adjusted_Penalty>
3.1166

> <i_epik_Tot_Q>
1

> <i_epik_Tot_abs_Q>
1

> <r_epik_Metal_State_Penalty>
1.64935

> <b_epik_Metal_Only>
0

> <s_lp_Force_Field>
OPLS_2005

> <r_lp_Energy>
37.2322

> <b_lp_Chiralities_Consistent>
1

> <s_lp_Variant>
AV-unprocessed.smi:2542-2

> <Gold.Version>
5.8.1

> <Gold.Id.Protein>
6NUR|6NUR_protein|mol2

> <Gold.PLP.Fitness>
33.2553

> <Gold.PLP.PLP>
-24.9830

> <Gold.PLP.part.hbond>
-2.0000

> <Gold.PLP.part.metal>
0.0000

> <Gold.PLP.part.buried>
-3.5807

> <Gold.PLP.part.nonpolar>
-19.7536

> <Gold.PLP.part.repulsive>
0.0458

> <Gold.PLP.ligand.clash>
0.0000

> <Gold.PLP.ligand.torsion>
0.3771

> <Gold.PLP.Chemscore.Hbond>
2.9840

> <Gold.PLP.Chemscore.CHOScore>
0.0000

> <Gold.PLP.Chemscore.Metal>
0.0000

> <Gold.Chemscore.Hbonds>
donor molecule, donor type, donor heavy atom, donor atom, acceptor molecule, acceptor atom, score
      L1  H    18    42       P1 10186  2.00
      P1  H  6896  6908       L1    10  1.00

> <Gold.PLP.Chemscore.Internal.Correction>
0.0745

> <Gold.Rescore>
     Score         DG    S(hbond)    S(metal)    S(lipo)     H(rot)  DE(clash)    DE(int)     intcor
     16.20     -16.56       1.95        0.00      73.27       1.56       0.03       0.32       ----

> <Gold.Chemscore.Fitness>
16.2003

> <Gold.Chemscore.DG>
-16.5577

> <Gold.Chemscore.ZeroCoef>
-5.4800

> <Gold.Chemscore.Hbond>
1.9496

> <Gold.Chemscore.Metal>
0.0000

> <Gold.Chemscore.Lipo>
73.2652

> <Gold.Chemscore.Internal_Hbond>
0.0000

> <Gold.Chemscore.DEClash>
0.0330

> <Gold.Chemscore.DEInternal>
0.3244

> <Gold.Chemscore.Rot>
1.5649

> <Gold.Chemscore.Internal.Correction>
   9.000000E+99

> <Gold.Chemscore.Hbonds>
donor molecule, donor type, donor heavy atom, donor atom, acceptor molecule, acceptor atom, score
      L1  H    18    42       P1 10186  0.95
      P1  H  6896  6908       L1    10  0.88

> <Gold.Chemscore.Hbond.Weighted>
-6.5118

> <Gold.Chemscore.Metal.Weighted>
-0.0000

> <Gold.Chemscore.Lipo.Weighted>
-8.5720

> <Gold.Chemscore.Internal_Hbond.Weighted>
0.0000

> <Gold.Chemscore.DEClash.Weighted>
0.0330

> <Gold.Chemscore.DEInternal.Weighted>
0.3244

> <Gold.Chemscore.Rot.Weighted>
4.0061

> <Gold.Chemscore.Internal.Correction.Weighted>
   9.000000E+99

> <Gold.Protein.RotatedTorsions>
[ 6907 6896 6895 6894 ] final  140.63 input  -60.11 | X-H torsion
[ 7974 7965 7964 7962 ] final  112.61 input  175.53 | X-H torsion
[ 8008 7997 7996 7995 ] final  136.59 input   59.86 | X-H torsion
[ 10167 10162 10161 10158 ] final -168.01 input  -65.29 | X-H torsion
[ 10718 10713 10712 10709 ] final  175.89 input   66.30 | X-H torsion
[ 10763 10752 10751 10750 ] final  -58.26 input  -60.55 | X-H torsion
[ 11005 11000 10999 10996 ] final  152.88 input  -57.11 | X-H torsion

> <Gold.Protein.ActiveResidues>
 VAL166  LYS551  ARG553  GLY616  TRP617  ASP618  TYR619  PRO620  LYS621  CYS622 
 ASP623  PHE694  ASN695  SER759  ASP760  ASP761  ALA762  ILE779  LEU786  VAL792 
 PHE793  MET794  SER795  GLU796  ALA797  LYS798  CYS799  TRP800  GLU811  SER814 

> <Gold.Protein.RotatedAtoms>
  152.2407  133.5133  159.5268 H   0  0  0  0  0  0  0  0  0  0  0  0  # atno 6907 bound_to 6896
  150.7063  134.1092  159.4003 H   0  0  0  0  0  0  0  0  0  0  0  0  # atno 6908 bound_to 6896
  151.9013  135.0377  160.0557 H   0  0  0  0  0  0  0  0  0  0  0  0  # atno 6909 bound_to 6896
  145.2273  139.2835  143.4186 H   0  0  0  0  0  0  0  0  0  0  0  0  # atno 7974 bound_to 7965
  156.3004  140.2441  156.3770 H   0  0  0  0  0  0  0  0  0  0  0  0  # atno 8008 bound_to 7997
  154.8736  140.0415  157.1759 H   0  0  0  0  0  0  0  0  0  0  0  0  # atno 8009 bound_to 7997
  154.8769  140.2943  155.5452 H   0  0  0  0  0  0  0  0  0  0  0  0  # atno 8010 bound_to 7997
  139.6013  144.1006  152.1745 H   0  0  0  0  0  0  0  0  0  0  0  0  # atno 10167 bound_to 10162
  156.9281  130.9962  151.2992 H   0  0  0  0  0  0  0  0  0  0  0  0  # atno 10718 bound_to 10713
  154.2354  135.6353  153.5189 H   0  0  0  0  0  0  0  0  0  0  0  0  # atno 10763 bound_to 10752
  152.9940  135.5529  154.5968 H   0  0  0  0  0  0  0  0  0  0  0  0  # atno 10764 bound_to 10752
  154.5460  135.2898  155.1026 H   0  0  0  0  0  0  0  0  0  0  0  0  # atno 10765 bound_to 10752
  140.1347  134.8778  157.2252 H   0  0  0  0  0  0  0  0  0  0  0  0  # atno 11005 bound_to 11000
  146.3361  140.2598  142.8601 LP  0  0  0  0  0  0  0  0  0  0  0  0  # atno 17320 bound_to 7965
  144.9709  140.8367  143.5456 LP  0  0  0  0  0  0  0  0  0  0  0  0  # atno 17321 bound_to 7965
  140.0602  144.5862  150.7268 LP  0  0  0  0  0  0  0  0  0  0  0  0  # atno 17342 bound_to 10162
  140.7251  143.2628  151.4147 LP  0  0  0  0  0  0  0  0  0  0  0  0  # atno 17343 bound_to 10162
  157.5864  130.8413  149.8596 LP  0  0  0  0  0  0  0  0  0  0  0  0  # atno 17370 bound_to 10713
  156.0459  130.3728  150.1318 LP  0  0  0  0  0  0  0  0  0  0  0  0  # atno 17371 bound_to 10713
  140.2797  134.3364  155.7347 LP  0  0  0  0  0  0  0  0  0  0  0  0  # atno 17394 bound_to 11000
  141.2176  133.7471  156.9345 LP  0  0  0  0  0  0  0  0  0  0  0  0  # atno 17395 bound_to 11000

$$$$
