AV-unprocessed.smi:2544|AV-procd|sdf|9994|dock9
  -GOLD-   2272014 43D 1   1.00000     0.00000
 Structure written by MMmdl.
 40 41  0  0  0  0  0  0  0  0  1 V2000
  151.8170  137.8403  154.6528 C   0  0  0  0  0  0  0  0  0  0  0  0
  150.3745  137.6227  154.1822 C   0  0  0  0  0  0  0  0  0  0  0  0
  149.5812  138.8384  154.2931 N   0  0  0  0  0  0  0  0  0  0  0  0
  148.3835  138.9838  153.6009 C   0  0  0  0  0  0  0  0  0  0  0  0
  147.6300  140.1000  153.6226 C   0  0  0  0  0  0  0  0  0  0  0  0
  148.0797  141.2614  154.4169 C   0  0  0  0  0  0  0  0  0  0  0  0
  147.4117  142.2941  154.4651 O   0  0  0  0  0  0  0  0  0  0  0  0
  149.3679  141.1123  155.1451 C   0  0  0  0  0  0  0  0  0  0  0  0
  149.7867  142.2215  155.8992 N   0  0  0  0  0  0  0  0  0  0  0  0
  150.7200  142.2937  156.8662 C   0  0  0  0  0  0  0  0  0  0  0  0
  151.4257  141.3652  157.2591 O   0  0  0  0  0  0  0  0  0  0  0  0
  150.7990  143.5369  157.3630 N   0  0  0  0  0  0  0  0  0  0  0  0
  151.6941  143.9613  158.4360 C   0  0  0  0  0  0  0  0  0  0  0  0
  151.7407  142.8786  159.5308 C   0  0  0  0  0  0  0  0  0  0  0  0
  152.6366  143.3064  160.7047 C   0  0  0  0  0  0  0  0  0  0  0  0
  152.1870  144.6556  161.2870 C   0  0  0  0  0  0  0  0  0  0  0  0
  152.1362  145.7405  160.1995 C   0  0  0  0  0  0  0  0  0  0  0  0
  151.2414  145.3138  159.0243 C   0  0  0  0  0  0  0  0  0  0  0  0
  150.0246  139.9283  155.0401 C   0  0  0  0  0  0  0  0  0  0  0  0
  152.3987  136.9238  154.5549 H   0  0  0  0  0  0  0  0  0  0  0  0
  151.8482  138.1444  155.6994 H   0  0  0  0  0  0  0  0  0  0  0  0
  152.3109  138.6133  154.0635 H   0  0  0  0  0  0  0  0  0  0  0  0
  150.3715  137.2788  153.1471 H   0  0  0  0  0  0  0  0  0  0  0  0
  149.9089  136.8299  154.7688 H   0  0  0  0  0  0  0  0  0  0  0  0
  148.0884  138.1124  153.0342 H   0  0  0  0  0  0  0  0  0  0  0  0
  146.7033  140.1656  153.0716 H   0  0  0  0  0  0  0  0  0  0  0  0
  149.3180  143.0845  155.6648 H   0  0  0  0  0  0  0  0  0  0  0  0
  150.1859  144.2413  156.9794 H   0  0  0  0  0  0  0  0  0  0  0  0
  152.7026  144.0740  158.0328 H   0  0  0  0  0  0  0  0  0  0  0  0
  150.7331  142.6798  159.8988 H   0  0  0  0  0  0  0  0  0  0  0  0
  152.1083  141.9404  159.1134 H   0  0  0  0  0  0  0  0  0  0  0  0
  152.6210  142.5422  161.4822 H   0  0  0  0  0  0  0  0  0  0  0  0
  153.6706  143.3809  160.3660 H   0  0  0  0  0  0  0  0  0  0  0  0
  151.2018  144.5480  161.7424 H   0  0  0  0  0  0  0  0  0  0  0  0
  152.8653  144.9604  162.0847 H   0  0  0  0  0  0  0  0  0  0  0  0
  151.7715  146.6760  160.6246 H   0  0  0  0  0  0  0  0  0  0  0  0
  153.1449  145.9395  159.8353 H   0  0  0  0  0  0  0  0  0  0  0  0
  151.2599  146.0860  158.2543 H   0  0  0  0  0  0  0  0  0  0  0  0
  150.2072  145.2420  159.3645 H   0  0  0  0  0  0  0  0  0  0  0  0
  150.9535  139.7239  155.5478 H   0  0  0  0  0  0  0  0  0  0  0  0
  1  2  1  0  0  0  0
  1 20  1  0  0  0  0
  1 21  1  0  0  0  0
  1 22  1  0  0  0  0
  2  3  1  0  0  0  0
  2 23  1  0  0  0  0
  2 24  1  0  0  0  0
  3 19  1  0  0  0  0
  3  4  1  0  0  0  0
  4  5  2  0  0  0  0
  4 25  1  0  0  0  0
  5  6  1  0  0  0  0
  5 26  1  0  0  0  0
  6  7  2  0  0  0  0
  6  8  1  0  0  0  0
  8  9  1  0  0  0  0
  8 19  2  0  0  0  0
  9 10  1  0  0  0  0
  9 27  1  0  0  0  0
 10 11  2  0  0  0  0
 10 12  1  0  0  0  0
 12 13  1  0  0  0  0
 12 28  1  0  0  0  0
 13 18  1  0  0  0  0
 13 14  1  0  0  0  0
 13 29  1  0  0  0  0
 14 15  1  0  0  0  0
 14 30  1  0  0  0  0
 14 31  1  0  0  0  0
 15 16  1  0  0  0  0
 15 32  1  0  0  0  0
 15 33  1  0  0  0  0
 16 17  1  0  0  0  0
 16 34  1  0  0  0  0
 16 35  1  0  0  0  0
 17 18  1  0  0  0  0
 17 36  1  0  0  0  0
 17 37  1  0  0  0  0
 18 38  1  0  0  0  0
 18 39  1  0  0  0  0
 19 40  1  0  0  0  0
M  END
> <s_m_source_file>
AV-unprocessed.smi

> <i_m_source_file_index>
2544

> <i_lp_mmshare_version>
43012

> <i_f3d_flags>
0

> <s_epik_input>
W0NIM11bQ0gyXW4xW2NIXVtjSF1jKD1PKWMoW2NIXTEpW05IXUMoPU8pW05IXVtDSF0yW0NIMl1bQ0gyXVtDSDJdW0NIMl1bQ0gyXTI=

> <s_epik_cmdline>
J2VwaWtfcHl0aG9uJywgJy1waCcsICc3LjAnLCAnLXRuJywgJzgnLCAnLW1hJywgJzIwMCcsICctbWV0YWxfYmluZGluZycsICctaW1hZScsICc8aW5maWxlLm1hZT4nLCAnLW9tYWUnLCAnPG91dGZpbGUubWFlPic=

> <r_lp_tautomer_probability>
1

> <r_epik_Ionization_Penalty>
0.00144746

> <r_epik_Ionization_Penalty_Charging>
0.00142605

> <r_epik_Ionization_Penalty_Neutral>
2.14089e-05

> <r_epik_State_Penalty>
0.000952116

> <r_epik_Charging_Adjusted_Penalty>
0.00237816

> <i_epik_Tot_Q>
0

> <i_epik_Tot_abs_Q>
0

> <r_epik_Metal_State_Penalty>
-0

> <b_epik_Metal_Only>
0

> <s_lp_Force_Field>
OPLS_2005

> <r_lp_Energy>
3.66557

> <b_lp_Chiralities_Consistent>
1

> <s_lp_Variant>
AV-unprocessed.smi:2544-1

> <Gold.Version>
5.8.1

> <Gold.Id.Protein>
6NUR|6NUR_protein|mol2

> <Gold.PLP.Fitness>
48.8515

> <Gold.PLP.PLP>
-40.9510

> <Gold.PLP.part.hbond>
-2.0000

> <Gold.PLP.part.metal>
0.0000

> <Gold.PLP.part.buried>
0.4749

> <Gold.PLP.part.nonpolar>
-40.2725

> <Gold.PLP.part.repulsive>
0.8586

> <Gold.PLP.ligand.clash>
0.0817

> <Gold.PLP.ligand.torsion>
0.5020

> <Gold.PLP.Chemscore.Hbond>
1.9920

> <Gold.PLP.Chemscore.CHOScore>
1.0000

> <Gold.PLP.Chemscore.Metal>
0.0000

> <Gold.Chemscore.Hbonds>
donor molecule, donor type, donor heavy atom, donor atom, acceptor molecule, acceptor atom, score
      L1  H     9    27       P1  8028  1.00
      L1  H    12    28       P1  8028  0.99
      L1  C     4    25       P1  7948  1.00

> <Gold.PLP.Chemscore.Internal.Correction>
0.0102

> <Gold.Rescore>
     Score         DG    S(hbond)    S(metal)    S(lipo)     H(rot)  DE(clash)    DE(int)     intcor
     18.56     -21.72       1.95        0.00     108.59       1.17       0.26       2.90       ----

> <Gold.Chemscore.Fitness>
18.5586

> <Gold.Chemscore.DG>
-21.7164

> <Gold.Chemscore.ZeroCoef>
-5.4800

> <Gold.Chemscore.Hbond>
1.9510

> <Gold.Chemscore.Metal>
0.0000

> <Gold.Chemscore.Lipo>
108.5905

> <Gold.Chemscore.Internal_Hbond>
0.0000

> <Gold.Chemscore.DEClash>
0.2627

> <Gold.Chemscore.DEInternal>
2.8951

> <Gold.Chemscore.Rot>
1.1660

> <Gold.Chemscore.Internal.Correction>
   9.000000E+99

> <Gold.Chemscore.Hbonds>
donor molecule, donor type, donor heavy atom, donor atom, acceptor molecule, acceptor atom, score
      L1  H     9    27       P1  8028  1.00
      L1  H    12    28       P1  8028  0.85

> <Gold.Chemscore.Hbond.Weighted>
-6.5163

> <Gold.Chemscore.Metal.Weighted>
-0.0000

> <Gold.Chemscore.Lipo.Weighted>
-12.7051

> <Gold.Chemscore.Internal_Hbond.Weighted>
0.0000

> <Gold.Chemscore.DEClash.Weighted>
0.2627

> <Gold.Chemscore.DEInternal.Weighted>
2.8951

> <Gold.Chemscore.Rot.Weighted>
2.9850

> <Gold.Chemscore.Internal.Correction.Weighted>
   9.000000E+99

> <Gold.Protein.RotatedTorsions>
[ 6907 6896 6895 6894 ] final -140.16 input  -60.11 | X-H torsion
[ 7974 7965 7964 7962 ] final -146.14 input  175.53 | X-H torsion
[ 8008 7997 7996 7995 ] final   30.60 input   59.86 | X-H torsion
[ 10167 10162 10161 10158 ] final  -54.36 input  -65.29 | X-H torsion
[ 10718 10713 10712 10709 ] final   92.37 input   66.30 | X-H torsion
[ 10763 10752 10751 10750 ] final  -48.93 input  -60.55 | X-H torsion
[ 11005 11000 10999 10996 ] final   -0.16 input  -57.11 | X-H torsion

> <Gold.Protein.ActiveResidues>
 VAL166  LYS551  ARG553  GLY616  TRP617  ASP618  TYR619  PRO620  LYS621  CYS622 
 ASP623  PHE694  ASN695  SER759  ASP760  ASP761  ALA762  ILE779  LEU786  VAL792 
 PHE793  MET794  SER795  GLU796  ALA797  LYS798  CYS799  TRP800  GLU811  SER814 

> <Gold.Protein.RotatedAtoms>
  151.0571  133.5575  159.2637 H   0  0  0  0  0  0  0  0  0  0  0  0  # atno 6907 bound_to 6896
  151.2565  135.0639  159.9091 H   0  0  0  0  0  0  0  0  0  0  0  0  # atno 6908 bound_to 6896
  152.5391  134.0323  159.8084 H   0  0  0  0  0  0  0  0  0  0  0  0  # atno 6909 bound_to 6896
  144.8180  140.5494  143.5598 H   0  0  0  0  0  0  0  0  0  0  0  0  # atno 7974 bound_to 7965
  155.0931  140.3222  155.4568 H   0  0  0  0  0  0  0  0  0  0  0  0  # atno 8008 bound_to 7997
  156.2737  140.2074  156.6004 H   0  0  0  0  0  0  0  0  0  0  0  0  # atno 8009 bound_to 7997
  154.6888  140.0518  157.0329 H   0  0  0  0  0  0  0  0  0  0  0  0  # atno 8010 bound_to 7997
  140.6435  143.2521  151.4924 H   0  0  0  0  0  0  0  0  0  0  0  0  # atno 10167 bound_to 10162
  157.6959  131.0441  150.3871 H   0  0  0  0  0  0  0  0  0  0  0  0  # atno 10718 bound_to 10713
  154.0857  135.6584  153.4844 H   0  0  0  0  0  0  0  0  0  0  0  0  # atno 10763 bound_to 10752
  153.0339  135.5190  154.7430 H   0  0  0  0  0  0  0  0  0  0  0  0  # atno 10764 bound_to 10752
  154.6538  135.3005  154.9921 H   0  0  0  0  0  0  0  0  0  0  0  0  # atno 10765 bound_to 10752
  140.6331  133.9557  155.8285 H   0  0  0  0  0  0  0  0  0  0  0  0  # atno 11005 bound_to 11000
  145.5171  139.1477  143.3573 LP  0  0  0  0  0  0  0  0  0  0  0  0  # atno 17320 bound_to 7965
  146.2484  140.5312  142.8904 LP  0  0  0  0  0  0  0  0  0  0  0  0  # atno 17321 bound_to 7965
  139.5645  144.2077  152.1743 LP  0  0  0  0  0  0  0  0  0  0  0  0  # atno 17342 bound_to 10162
  140.1354  144.5250  150.6776 LP  0  0  0  0  0  0  0  0  0  0  0  0  # atno 17343 bound_to 10162
  156.4279  130.3966  149.6780 LP  0  0  0  0  0  0  0  0  0  0  0  0  # atno 17370 bound_to 10713
  156.4008  130.7674  151.2681 LP  0  0  0  0  0  0  0  0  0  0  0  0  # atno 17371 bound_to 10713
  141.0661  134.0275  157.3592 LP  0  0  0  0  0  0  0  0  0  0  0  0  # atno 17394 bound_to 11000
  139.9108  135.0189  156.7684 LP  0  0  0  0  0  0  0  0  0  0  0  0  # atno 17395 bound_to 11000

$$$$
