AV-unprocessed.smi:683|AV-procd|sdf|3330|dock3
  -GOLD-   22720 0293D 1   1.00000     0.00000
 Structure written by MMmdl.
 30 31  0  0  0  0  0  0  0  0  1 V2000
  154.7113  139.4218  160.7731 N   0  0  0  0  0  0  0  0  0  0  0  0
  154.1031  140.4040  160.7097 C   0  0  0  0  0  0  0  0  0  0  0  0
  153.3395  141.6381  160.6300 C   0  0  0  0  0  0  0  0  0  0  0  0
  153.2946  142.5111  161.7350 C   0  0  0  0  0  0  0  0  0  0  0  0
  152.5537  143.7046  161.6554 C   0  0  0  0  0  0  0  0  0  0  0  0
  151.8593  144.0249  160.4734 C   0  0  0  0  0  0  0  0  0  0  0  0
  151.8941  143.1622  159.3585 C   0  0  0  0  0  0  0  0  0  0  0  0
  151.1850  143.5544  158.2433 O   0  0  0  0  0  0  0  0  0  0  0  0
  151.4385  142.8862  157.0154 C   0  0  0  0  0  0  0  0  0  0  0  0
  150.6641  141.5592  157.0131 C   0  0  0  0  0  0  0  0  0  0  0  0
  149.7381  141.4525  155.9133 N   0  0  0  0  0  0  0  0  0  0  0  0
  148.5886  142.2231  155.8301 C   0  0  0  0  0  0  0  0  0  0  0  0
  147.7005  142.1240  154.8115 C   0  0  0  0  0  0  0  0  0  0  0  0
  146.2891  143.1195  154.7786 Cl  0  0  0  0  0  0  0  0  0  0  0  0
  147.9310  141.1667  153.7299 C   0  0  0  0  0  0  0  0  0  0  0  0
  147.1948  140.9972  152.7600 O   0  0  0  0  0  0  0  0  0  0  0  0
  149.0968  140.4060  153.8601 N   0  0  0  0  0  0  0  0  0  0  0  0
  150.0149  140.4992  154.9065 C   0  0  0  0  0  0  0  0  0  0  0  0
  151.0057  139.7685  154.9210 O   0  0  0  0  0  0  0  0  0  0  0  0
  152.6429  141.9609  159.4467 C   0  0  0  0  0  0  0  0  0  0  0  0
  149.2898  139.7301  153.1352 H   0  0  0  0  0  0  0  0  0  0  0  0
  153.8254  142.2718  162.6456 H   0  0  0  0  0  0  0  0  0  0  0  0
  152.5180  144.3753  162.5011 H   0  0  0  0  0  0  0  0  0  0  0  0
  151.2940  144.9439  160.4214 H   0  0  0  0  0  0  0  0  0  0  0  0
  151.1203  143.5101  156.1789 H   0  0  0  0  0  0  0  0  0  0  0  0
  152.5064  142.6885  156.9076 H   0  0  0  0  0  0  0  0  0  0  0  0
  151.3481  140.7142  156.9199 H   0  0  0  0  0  0  0  0  0  0  0  0
  150.1035  141.3989  157.9366 H   0  0  0  0  0  0  0  0  0  0  0  0
  148.3848  142.9379  156.6148 H   0  0  0  0  0  0  0  0  0  0  0  0
  152.6945  141.2731  158.6155 H   0  0  0  0  0  0  0  0  0  0  0  0
  1  2  3  0  0  0  0
  2  3  1  0  0  0  0
  3 20  1  0  0  0  0
  3  4  2  0  0  0  0
  4  5  1  0  0  0  0
  4 22  1  0  0  0  0
  5  6  2  0  0  0  0
  5 23  1  0  0  0  0
  6  7  1  0  0  0  0
  6 24  1  0  0  0  0
  7  8  1  0  0  0  0
  7 20  2  0  0  0  0
  8  9  1  0  0  0  0
  9 10  1  0  0  0  0
  9 25  1  0  0  0  0
  9 26  1  0  0  0  0
 10 11  1  0  0  0  0
 10 27  1  0  0  0  0
 10 28  1  0  0  0  0
 11 18  1  0  0  0  0
 11 12  1  0  0  0  0
 12 13  2  0  0  0  0
 12 29  1  0  0  0  0
 13 14  1  0  0  0  0
 13 15  1  0  0  0  0
 15 16  2  0  0  0  0
 15 17  1  0  0  0  0
 17 21  1  0  0  0  0
 17 18  1  0  0  0  0
 18 19  2  0  0  0  0
 20 30  1  0  0  0  0
M  END
> <s_m_source_file>
AV-unprocessed.smi

> <i_m_source_file_index>
683

> <i_lp_mmshare_version>
43012

> <i_f3d_flags>
0

> <s_epik_input>
TiNDYzFbY0hdW2NIXVtjSF1jKFtjSF0xKU9bQ0gyXVtDSDJdbjJbY0hdYyhDbCljKD1PKVtuSF1jMj1P

> <s_epik_cmdline>
J2VwaWtfcHl0aG9uJywgJy1waCcsICc3LjAnLCAnLXRuJywgJzgnLCAnLW1hJywgJzIwMCcsICctbWV0YWxfYmluZGluZycsICctaW1hZScsICc8aW5maWxlLm1hZT4nLCAnLW9tYWUnLCAnPG91dGZpbGUubWFlPic=

> <r_lp_tautomer_probability>
0.999537

> <r_epik_Ionization_Penalty>
0.0498777

> <r_epik_Ionization_Penalty_Charging>
0.0498777

> <r_epik_Ionization_Penalty_Neutral>
0

> <r_epik_State_Penalty>
0.042632

> <r_epik_Charging_Adjusted_Penalty>
0.0925097

> <i_epik_Tot_Q>
0

> <i_epik_Tot_abs_Q>
0

> <r_epik_Metal_State_Penalty>
2.56282

> <b_epik_Metal_Only>
0

> <s_lp_Force_Field>
OPLS_2005

> <r_lp_Energy>
12.7666

> <b_lp_Chiralities_Consistent>
1

> <s_lp_Variant>
AV-unprocessed.smi:683-1

> <Gold.Version>
5.8.1

> <Gold.Id.Protein>
6NUR|6NUR_protein|mol2

> <Gold.PLP.Fitness>
46.2476

> <Gold.PLP.PLP>
-41.7374

> <Gold.PLP.part.hbond>
-1.9961

> <Gold.PLP.part.metal>
0.0000

> <Gold.PLP.part.buried>
-0.8943

> <Gold.PLP.part.nonpolar>
-38.3307

> <Gold.PLP.part.repulsive>
0.5655

> <Gold.PLP.ligand.clash>
0.0000

> <Gold.PLP.ligand.torsion>
0.7251

> <Gold.PLP.Chemscore.Hbond>
1.7980

> <Gold.PLP.Chemscore.CHOScore>
0.1819

> <Gold.PLP.Chemscore.Metal>
0.0000

> <Gold.Chemscore.Hbonds>
donor molecule, donor type, donor heavy atom, donor atom, acceptor molecule, acceptor atom, score
      L1  H    17    21       P1  7957  0.58
      P1  H  7989  7998       L1    19  0.25
      L1  C    12    29       P1  8028  0.43

> <Gold.PLP.Chemscore.Internal.Correction>
0.0207

> <Gold.Rescore>
     Score         DG    S(hbond)    S(metal)    S(lipo)     H(rot)  DE(clash)    DE(int)     intcor
     13.78     -15.93       1.38        0.00      94.29       2.03       1.52       0.63       ----

> <Gold.Chemscore.Fitness>
13.7785

> <Gold.Chemscore.DG>
-15.9333

> <Gold.Chemscore.ZeroCoef>
-5.4800

> <Gold.Chemscore.Hbond>
1.3794

> <Gold.Chemscore.Metal>
0.0000

> <Gold.Chemscore.Lipo>
94.2906

> <Gold.Chemscore.Internal_Hbond>
0.0000

> <Gold.Chemscore.DEClash>
1.5214

> <Gold.Chemscore.DEInternal>
0.6335

> <Gold.Chemscore.Rot>
2.0258

> <Gold.Chemscore.Internal.Correction>
   9.000000E+99

> <Gold.Chemscore.Hbonds>
donor molecule, donor type, donor heavy atom, donor atom, acceptor molecule, acceptor atom, score
      L1  H    17    21       P1  7957  0.54

> <Gold.Chemscore.Hbond.Weighted>
-4.6073

> <Gold.Chemscore.Metal.Weighted>
-0.0000

> <Gold.Chemscore.Lipo.Weighted>
-11.0320

> <Gold.Chemscore.Internal_Hbond.Weighted>
0.0000

> <Gold.Chemscore.DEClash.Weighted>
1.5214

> <Gold.Chemscore.DEInternal.Weighted>
0.6335

> <Gold.Chemscore.Rot.Weighted>
5.1860

> <Gold.Chemscore.Internal.Correction.Weighted>
   9.000000E+99

> <Gold.Protein.RotatedTorsions>
[ 6907 6896 6895 6894 ] final -161.39 input  -60.11 | X-H torsion
[ 7974 7965 7964 7962 ] final  -83.90 input  175.53 | X-H torsion
[ 8008 7997 7996 7995 ] final  133.20 input   59.86 | X-H torsion
[ 10167 10162 10161 10158 ] final -147.34 input  -65.29 | X-H torsion
[ 10718 10713 10712 10709 ] final  -60.51 input   66.30 | X-H torsion
[ 10763 10752 10751 10750 ] final -111.72 input  -60.55 | X-H torsion
[ 11005 11000 10999 10996 ] final  -11.94 input  -57.11 | X-H torsion

> <Gold.Protein.ActiveResidues>
 VAL166  LYS551  ARG553  GLY616  TRP617  ASP618  TYR619  PRO620  LYS621  CYS622 
 ASP623  PHE694  ASN695  SER759  ASP760  ASP761  ALA762  ILE779  LEU786  VAL792 
 PHE793  MET794  SER795  GLU796  ALA797  LYS798  CYS799  TRP800  GLU811  SER814 

> <Gold.Protein.RotatedAtoms>
  151.3639  133.3879  159.2692 H   0  0  0  0  0  0  0  0  0  0  0  0  # atno 6907 bound_to 6896
  150.9704  134.9079  159.7795 H   0  0  0  0  0  0  0  0  0  0  0  0  # atno 6908 bound_to 6896
  152.5182  134.3600  159.9334 H   0  0  0  0  0  0  0  0  0  0  0  0  # atno 6909 bound_to 6896
  145.5138  140.9537  143.1693 H   0  0  0  0  0  0  0  0  0  0  0  0  # atno 7974 bound_to 7965
  156.2990  140.2527  156.3214 H   0  0  0  0  0  0  0  0  0  0  0  0  # atno 8008 bound_to 7997
  154.9232  140.0400  157.2028 H   0  0  0  0  0  0  0  0  0  0  0  0  # atno 8009 bound_to 7997
  154.8291  140.2872  155.5739 H   0  0  0  0  0  0  0  0  0  0  0  0  # atno 8010 bound_to 7997
  139.7631  143.8348  152.2611 H   0  0  0  0  0  0  0  0  0  0  0  0  # atno 10167 bound_to 10162
  156.0985  130.4189  150.0864 H   0  0  0  0  0  0  0  0  0  0  0  0  # atno 10718 bound_to 10713
  154.8314  135.4517  154.1083 H   0  0  0  0  0  0  0  0  0  0  0  0  # atno 10763 bound_to 10752
  153.2353  135.6910  153.7850 H   0  0  0  0  0  0  0  0  0  0  0  0  # atno 10764 bound_to 10752
  153.7218  135.3340  155.3244 H   0  0  0  0  0  0  0  0  0  0  0  0  # atno 10765 bound_to 10752
  140.7605  133.8519  155.9121 H   0  0  0  0  0  0  0  0  0  0  0  0  # atno 11005 bound_to 11000
  144.7713  139.6729  143.7193 LP  0  0  0  0  0  0  0  0  0  0  0  0  # atno 17320 bound_to 7965
  146.2150  139.5533  142.9656 LP  0  0  0  0  0  0  0  0  0  0  0  0  # atno 17321 bound_to 7965
  139.8360  144.7232  150.9390 LP  0  0  0  0  0  0  0  0  0  0  0  0  # atno 17342 bound_to 10162
  140.7808  143.4026  151.1123 LP  0  0  0  0  0  0  0  0  0  0  0  0  # atno 17343 bound_to 10162
  156.8857  130.9572  151.3594 LP  0  0  0  0  0  0  0  0  0  0  0  0  # atno 17370 bound_to 10713
  157.6151  130.8612  149.9015 LP  0  0  0  0  0  0  0  0  0  0  0  0  # atno 17371 bound_to 10713
  140.9667  134.1584  157.4610 LP  0  0  0  0  0  0  0  0  0  0  0  0  # atno 17394 bound_to 11000
  139.8771  134.9964  156.5794 LP  0  0  0  0  0  0  0  0  0  0  0  0  # atno 17395 bound_to 11000

$$$$
