AV-unprocessed.smi:275|AV-procd|sdf|2064|dock8
  -GOLD-   2262021313D 1   1.00000     0.00000
 Structure written by MMmdl.
 65 69  0  0  0  0  0  0  0  0  1 V2000
  146.9813  134.7700  155.1957 C   0  0  0  0  0  0  0  0  0  0  0  0
  145.9683  134.1005  154.2517 C   0  0  0  0  0  0  0  0  0  0  0  0
  146.1395  132.5742  154.3309 C   0  0  0  0  0  0  0  0  0  0  0  0
  146.0909  134.5988  152.7998 C   0  0  2  0  0  0  0  0  0  0  0  0
  145.2843  135.7836  152.5140 N   0  0  0  0  0  0  0  0  0  0  0  0
  145.8911  137.0703  152.5814 C   0  0  0  0  0  0  0  0  0  0  0  0
  146.2383  137.7565  151.4592 N   0  0  0  0  0  0  0  0  0  0  0  0
  146.8076  138.9626  151.5387 C   0  0  0  0  0  0  0  0  0  0  0  0
  147.1174  139.6679  152.6272 N   0  0  0  0  0  0  0  0  0  0  0  0
  146.7744  138.9922  153.7601 C   0  0  0  0  0  0  0  0  0  0  0  0
  146.1671  137.7063  153.8229 C   0  0  0  0  0  0  0  0  0  0  0  0
  145.9708  137.3390  155.1482 N   0  0  0  0  0  0  0  0  0  0  0  0
  146.4350  138.3498  155.8308 C   0  0  0  0  0  0  0  0  0  0  0  0
  146.9196  139.3950  155.0765 N   0  0  0  0  0  0  0  0  0  0  0  0
  147.4989  140.6306  155.5748 C   0  0  0  0  0  0  0  0  0  0  0  0
  148.9743  140.5102  156.0392 C   0  0  1  0  0  0  0  0  0  0  0  0
  149.8432  140.1951  154.7967 C   0  0  0  0  0  0  0  0  0  0  0  0
  149.4779  140.9829  153.6824 O   0  0  0  0  0  0  0  0  0  0  0  0
  149.4751  141.7761  156.8006 C   0  0  2  0  0  0  0  0  0  0  0  0
  150.9161  141.7217  157.2839 C   0  0  0  0  0  0  0  0  0  0  0  0
  150.9536  142.8353  158.3198 C   0  0  0  0  0  0  0  0  0  0  0  0
  149.6941  142.7567  158.9686 O   0  0  0  0  0  0  0  0  0  0  0  0
  148.7574  142.0961  158.1225 C   0  0  0  0  0  0  0  0  0  0  0  0
  145.0566  135.3524  151.1467 C   0  0  0  0  0  0  0  0  0  0  0  0
  145.3250  133.9195  151.6349 C   0  0  0  0  0  0  0  0  0  0  0  0
  144.0562  133.1059  151.9777 C   0  0  0  0  0  0  0  0  0  0  0  0
  143.2672  132.6746  150.7293 C   0  0  0  0  0  0  0  0  0  0  0  0
  144.1470  131.8629  149.7699 C   0  0  0  0  0  0  0  0  0  0  0  0
  145.4392  132.6168  149.4314 C   0  0  0  0  0  0  0  0  0  0  0  0
  146.1838  133.0448  150.7072 C   0  0  0  0  0  0  0  0  0  0  0  0
  148.0058  134.6073  154.8597 H   0  0  0  0  0  0  0  0  0  0  0  0
  146.8973  134.3743  156.2081 H   0  0  0  0  0  0  0  0  0  0  0  0
  146.8161  135.8453  155.2597 H   0  0  0  0  0  0  0  0  0  0  0  0
  144.9728  134.3351  154.6298 H   0  0  0  0  0  0  0  0  0  0  0  0
  147.1330  132.2739  153.9965 H   0  0  0  0  0  0  0  0  0  0  0  0
  145.4153  132.0467  153.7130 H   0  0  0  0  0  0  0  0  0  0  0  0
  146.0122  132.2170  155.3530 H   0  0  0  0  0  0  0  0  0  0  0  0
  147.1308  134.7465  152.5033 H   0  0  0  0  0  0  0  0  0  0  0  0
  147.0478  139.4290  150.5946 H   0  0  0  0  0  0  0  0  0  0  0  0
  146.4291  138.3636  156.9109 H   0  0  0  0  0  0  0  0  0  0  0  0
  147.4166  141.3579  154.7664 H   0  0  0  0  0  0  0  0  0  0  0  0
  146.8815  141.0119  156.3890 H   0  0  0  0  0  0  0  0  0  0  0  0
  149.0404  139.6513  156.7088 H   0  0  0  0  0  0  0  0  0  0  0  0
  150.8943  140.4099  154.9916 H   0  0  0  0  0  0  0  0  0  0  0  0
  149.7831  139.1377  154.5372 H   0  0  0  0  0  0  0  0  0  0  0  0
  149.3387  140.4114  152.9425 H   0  0  0  0  0  0  0  0  0  0  0  0
  149.3811  142.6417  156.1426 H   0  0  0  0  0  0  0  0  0  0  0  0
  151.1242  140.7639  157.7629 H   0  0  0  0  0  0  0  0  0  0  0  0
  151.6448  141.8752  156.4874 H   0  0  0  0  0  0  0  0  0  0  0  0
  151.7769  142.7278  159.0262 H   0  0  0  0  0  0  0  0  0  0  0  0
  151.0425  143.8084  157.8352 H   0  0  0  0  0  0  0  0  0  0  0  0
  147.8841  142.7298  157.9733 H   0  0  0  0  0  0  0  0  0  0  0  0
  148.4343  141.1853  158.6273 H   0  0  0  0  0  0  0  0  0  0  0  0
  144.0424  135.5400  150.7937 H   0  0  0  0  0  0  0  0  0  0  0  0
  145.8111  135.7235  150.4499 H   0  0  0  0  0  0  0  0  0  0  0  0
  144.3144  132.2136  152.5459 H   0  0  0  0  0  0  0  0  0  0  0  0
  143.3949  133.6839  152.6243 H   0  0  0  0  0  0  0  0  0  0  0  0
  142.3980  132.0856  151.0234 H   0  0  0  0  0  0  0  0  0  0  0  0
  142.8807  133.5545  150.2143 H   0  0  0  0  0  0  0  0  0  0  0  0
  144.3967  130.9059  150.2294 H   0  0  0  0  0  0  0  0  0  0  0  0
  143.5954  131.6339  148.8578 H   0  0  0  0  0  0  0  0  0  0  0  0
  146.0846  131.9893  148.8162 H   0  0  0  0  0  0  0  0  0  0  0  0
  145.2038  133.4977  148.8329 H   0  0  0  0  0  0  0  0  0  0  0  0
  147.0918  133.5770  150.4213 H   0  0  0  0  0  0  0  0  0  0  0  0
  146.5217  132.1552  151.2401 H   0  0  0  0  0  0  0  0  0  0  0  0
  1  2  1  0  0  0  0
  1 31  1  0  0  0  0
  1 32  1  0  0  0  0
  1 33  1  0  0  0  0
  2  3  1  0  0  0  0
  2  4  1  0  0  0  0
  2 34  1  0  0  0  0
  3 35  1  0  0  0  0
  3 36  1  0  0  0  0
  3 37  1  0  0  0  0
  4 25  1  0  0  0  0
  4  5  1  0  0  0  0
  4 38  1  0  0  0  0
  5  6  1  0  0  0  0
  5 24  1  0  0  0  0
  6 11  1  0  0  0  0
  6  7  2  0  0  0  0
  7  8  1  0  0  0  0
  8  9  2  0  0  0  0
  8 39  1  0  0  0  0
  9 10  1  0  0  0  0
 10 14  1  0  0  0  0
 10 11  2  0  0  0  0
 11 12  1  0  0  0  0
 12 13  2  0  0  0  0
 13 14  1  0  0  0  0
 13 40  1  0  0  0  0
 14 15  1  0  0  0  0
 15 16  1  0  0  0  0
 15 41  1  0  0  0  0
 15 42  1  0  0  0  0
 16 17  1  0  0  0  0
 16 19  1  0  0  0  0
 16 43  1  0  0  0  0
 17 18  1  0  0  0  0
 17 44  1  0  0  0  0
 17 45  1  0  0  0  0
 18 46  1  0  0  0  0
 19 23  1  0  0  0  0
 19 20  1  0  0  0  0
 19 47  1  0  0  0  0
 20 21  1  0  0  0  0
 20 48  1  0  0  0  0
 20 49  1  0  0  0  0
 21 22  1  0  0  0  0
 21 50  1  0  0  0  0
 21 51  1  0  0  0  0
 22 23  1  0  0  0  0
 23 52  1  0  0  0  0
 23 53  1  0  0  0  0
 24 25  1  0  0  0  0
 24 54  1  0  0  0  0
 24 55  1  0  0  0  0
 25 30  1  0  0  0  0
 25 26  1  0  0  0  0
 26 27  1  0  0  0  0
 26 56  1  0  0  0  0
 26 57  1  0  0  0  0
 27 28  1  0  0  0  0
 27 58  1  0  0  0  0
 27 59  1  0  0  0  0
 28 29  1  0  0  0  0
 28 60  1  0  0  0  0
 28 61  1  0  0  0  0
 29 30  1  0  0  0  0
 29 62  1  0  0  0  0
 29 63  1  0  0  0  0
 30 64  1  0  0  0  0
 30 65  1  0  0  0  0
M  END
> <s_m_source_file>
AV-unprocessed.smi

> <i_m_source_file_index>
275

> <i_lp_mmshare_version>
43012

> <i_f3d_flags>
0

> <s_epik_input>
W0NIMl0xW0NIMl1bQ0gyXVtDSDJdW0NIMl1DMTJbQ0BIXShbQ0hdKFtDSDNdKVtDSDNdKU4oW0NIMl0yKWMobltjSF1uMyljKGMzNCluW2NIXW40W0NIMl1bQ0BIXShbQ0gyXVtPSF0pW0NAQEhdNVtDSDJdW0NIMl1PW0NIMl01

> <s_epik_cmdline>
J2VwaWtfcHl0aG9uJywgJy1waCcsICc3LjAnLCAnLXRuJywgJzgnLCAnLW1hJywgJzIwMCcsICctbWV0YWxfYmluZGluZycsICctaW1hZScsICc8aW5maWxlLm1hZT4nLCAnLW9tYWUnLCAnPG91dGZpbGUubWFlPic=

> <r_lp_tautomer_probability>
1

> <r_epik_Ionization_Penalty>
0.00375122

> <r_epik_Ionization_Penalty_Charging>
0

> <r_epik_Ionization_Penalty_Neutral>
0.00375122

> <r_epik_State_Penalty>
0.00260593

> <r_epik_Charging_Adjusted_Penalty>
0.00260593

> <i_epik_Tot_Q>
0

> <i_epik_Tot_abs_Q>
0

> <r_epik_Metal_State_Penalty>
-0

> <b_epik_Metal_Only>
0

> <s_lp_Force_Field>
OPLS_2005

> <r_lp_Energy>
64.5971

> <b_lp_Chiralities_Consistent>
1

> <s_lp_Variant>
AV-unprocessed.smi:275-3

> <Gold.Version>
5.8.1

> <Gold.Id.Protein>
6NUR|6NUR_protein|mol2

> <Gold.PLP.Fitness>
42.0084

> <Gold.PLP.PLP>
-38.9427

> <Gold.PLP.part.hbond>
-3.5038

> <Gold.PLP.part.metal>
0.0000

> <Gold.PLP.part.buried>
-0.6586

> <Gold.PLP.part.nonpolar>
-36.7410

> <Gold.PLP.part.repulsive>
3.3522

> <Gold.PLP.ligand.clash>
0.0000

> <Gold.PLP.ligand.torsion>
1.1534

> <Gold.PLP.Chemscore.Hbond>
1.3760

> <Gold.PLP.Chemscore.CHOScore>
0.2091

> <Gold.PLP.Chemscore.Metal>
0.0000

> <Gold.Chemscore.Hbonds>
donor molecule, donor type, donor heavy atom, donor atom, acceptor molecule, acceptor atom, score
      L1  H    18    46       P1  7957  0.98
      P1  H  8011  8017       L1    18  0.30
      L1  C     8    39       P1  7957  0.29

> <Gold.PLP.Chemscore.Internal.Correction>
0.6173

> <Gold.Rescore>
     Score         DG    S(hbond)    S(metal)    S(lipo)     H(rot)  DE(clash)    DE(int)     intcor
     10.56     -14.11       0.97        0.00     101.51       2.54       1.00       2.55       ----

> <Gold.Chemscore.Fitness>
10.5586

> <Gold.Chemscore.DG>
-14.1085

> <Gold.Chemscore.ZeroCoef>
-5.4800

> <Gold.Chemscore.Hbond>
0.9726

> <Gold.Chemscore.Metal>
0.0000

> <Gold.Chemscore.Lipo>
101.5089

> <Gold.Chemscore.Internal_Hbond>
0.0000

> <Gold.Chemscore.DEClash>
1.0030

> <Gold.Chemscore.DEInternal>
2.5468

> <Gold.Chemscore.Rot>
2.5377

> <Gold.Chemscore.Internal.Correction>
   9.000000E+99

> <Gold.Chemscore.Hbonds>
donor molecule, donor type, donor heavy atom, donor atom, acceptor molecule, acceptor atom, score
      L1  H    18    46       P1  7957  0.93

> <Gold.Chemscore.Hbond.Weighted>
-3.2485

> <Gold.Chemscore.Metal.Weighted>
-0.0000

> <Gold.Chemscore.Lipo.Weighted>
-11.8765

> <Gold.Chemscore.Internal_Hbond.Weighted>
0.0000

> <Gold.Chemscore.DEClash.Weighted>
1.0030

> <Gold.Chemscore.DEInternal.Weighted>
2.5468

> <Gold.Chemscore.Rot.Weighted>
6.4966

> <Gold.Chemscore.Internal.Correction.Weighted>
   9.000000E+99

> <Gold.Protein.RotatedTorsions>
[ 6907 6896 6895 6894 ] final  -13.49 input  -60.11 | X-H torsion
[ 7974 7965 7964 7962 ] final  154.87 input  175.53 | X-H torsion
[ 8008 7997 7996 7995 ] final  108.21 input   59.86 | X-H torsion
[ 10167 10162 10161 10158 ] final  -39.74 input  -65.29 | X-H torsion
[ 10718 10713 10712 10709 ] final   51.25 input   66.30 | X-H torsion
[ 10763 10752 10751 10750 ] final  113.42 input  -60.55 | X-H torsion
[ 11005 11000 10999 10996 ] final   44.02 input  -57.11 | X-H torsion

> <Gold.Protein.ActiveResidues>
 VAL166  LYS551  ARG553  GLY616  TRP617  ASP618  TYR619  PRO620  LYS621  CYS622 
 ASP623  PHE694  ASN695  SER759  ASP760  ASP761  ALA762  ILE779  LEU786  VAL792 
 PHE793  MET794  SER795  GLU796  ALA797  LYS798  CYS799  TRP800  GLU811  SER814 

> <Gold.Protein.RotatedAtoms>
  151.3541  135.0890  159.9412 H   0  0  0  0  0  0  0  0  0  0  0  0  # atno 6907 bound_to 6896
  152.5179  133.9323  159.7597 H   0  0  0  0  0  0  0  0  0  0  0  0  # atno 6908 bound_to 6896
  150.9704  133.6296  159.2768 H   0  0  0  0  0  0  0  0  0  0  0  0  # atno 6909 bound_to 6896
  144.8060  139.6992  143.6161 H   0  0  0  0  0  0  0  0  0  0  0  0  # atno 7974 bound_to 7965
  156.1885  140.3080  155.9285 H   0  0  0  0  0  0  0  0  0  0  0  0  # atno 8008 bound_to 7997
  155.3227  140.0456  157.3057 H   0  0  0  0  0  0  0  0  0  0  0  0  # atno 8009 bound_to 7997
  154.5424  140.2265  155.8629 H   0  0  0  0  0  0  0  0  0  0  0  0  # atno 8010 bound_to 7997
  140.7055  143.3195  151.2826 H   0  0  0  0  0  0  0  0  0  0  0  0  # atno 10167 bound_to 10162
  157.4963  130.8408  149.8262 H   0  0  0  0  0  0  0  0  0  0  0  0  # atno 10718 bound_to 10713
  153.4922  135.3656  155.2497 H   0  0  0  0  0  0  0  0  0  0  0  0  # atno 10763 bound_to 10752
  154.8751  135.3980  154.3575 H   0  0  0  0  0  0  0  0  0  0  0  0  # atno 10764 bound_to 10752
  153.4197  135.7080  153.6368 H   0  0  0  0  0  0  0  0  0  0  0  0  # atno 10765 bound_to 10752
  140.1591  134.4364  155.8330 H   0  0  0  0  0  0  0  0  0  0  0  0  # atno 11005 bound_to 11000
  146.2352  139.5891  142.9528 LP  0  0  0  0  0  0  0  0  0  0  0  0  # atno 17320 bound_to 7965
  145.5436  141.0419  143.2317 LP  0  0  0  0  0  0  0  0  0  0  0  0  # atno 17321 bound_to 7965
  139.6645  144.0130  152.2714 LP  0  0  0  0  0  0  0  0  0  0  0  0  # atno 17342 bound_to 10162
  139.9708  144.6495  150.7991 LP  0  0  0  0  0  0  0  0  0  0  0  0  # atno 17343 bound_to 10162
  156.0202  130.3798  150.1984 LP  0  0  0  0  0  0  0  0  0  0  0  0  # atno 17370 bound_to 10713
  157.0174  130.9969  151.3349 LP  0  0  0  0  0  0  0  0  0  0  0  0  # atno 17371 bound_to 10713
  141.2207  133.6905  156.7560 LP  0  0  0  0  0  0  0  0  0  0  0  0  # atno 17394 bound_to 11000
  140.2512  134.8539  157.3669 LP  0  0  0  0  0  0  0  0  0  0  0  0  # atno 17395 bound_to 11000

$$$$
