AV-unprocessed.smi:3068|AV-procd|sdf|11704|dock5
  -GOLD-   2272017103D 1   1.00000     0.00000
 Structure written by MMmdl.
 40 42  0  0  0  0  0  0  0  0  2 V2000
  151.4945  137.1225  154.2405 N   0  0  0  0  0  0  0  0  0  0  0  0
  150.8384  138.0691  154.3535 C   0  0  0  0  0  0  0  0  0  0  0  0
  150.0138  139.2622  154.4953 C   0  0  0  0  0  0  0  0  0  0  0  0
  150.5443  140.2881  155.2001 N   0  0  0  0  0  0  0  0  0  0  0  0
  149.7881  141.3975  155.3421 C   0  0  0  0  0  0  0  0  0  0  0  0
  148.4991  141.4881  154.7816 C   0  0  0  0  0  0  0  0  0  0  0  0
  147.9615  140.4698  154.0765 N   0  0  0  0  0  0  0  0  0  0  0  0
  148.7112  139.3491  153.9272 C   0  0  0  0  0  0  0  0  0  0  0  0
  148.1620  138.2803  153.1969 N   0  0  0  0  0  0  0  0  0  0  0  0
  146.7549  138.2702  152.8227 C   0  0  0  0  0  0  0  0  0  0  0  0
  145.9377  137.3211  153.7213 C   0  0  2  0  0  0  0  0  0  0  0  0
  146.7109  136.0489  154.1168 C   0  0  0  0  0  0  0  0  0  0  0  0
  146.8659  135.1304  152.9640 N   0  3  1  0  0  0  0  0  0  0  0  0
  147.6419  133.9143  153.3175 C   0  0  0  0  0  0  0  0  0  0  0  0
  147.8643  133.0194  152.0880 C   0  0  0  0  0  0  0  0  0  0  0  0
  146.5266  132.6466  151.4371 C   0  0  0  0  0  0  0  0  0  0  0  0
  145.7353  133.9178  151.1030 C   0  0  0  0  0  0  0  0  0  0  0  0
  145.5500  134.8093  152.3476 C   0  0  2  0  0  0  0  0  0  0  0  0
  144.8025  136.1081  151.9903 C   0  0  0  0  0  0  0  0  0  0  0  0
  144.6907  136.9492  153.1333 O   0  0  0  0  0  0  0  0  0  0  0  0
  150.2128  142.2150  155.9055 H   0  0  0  0  0  0  0  0  0  0  0  0
  147.8986  142.3778  154.8997 H   0  0  0  0  0  0  0  0  0  0  0  0
  148.7179  137.4543  153.0241 H   0  0  0  0  0  0  0  0  0  0  0  0
  146.3528  139.2828  152.8547 H   0  0  0  0  0  0  0  0  0  0  0  0
  146.6809  137.9395  151.7859 H   0  0  0  0  0  0  0  0  0  0  0  0
  145.7012  137.8611  154.6390 H   0  0  0  0  0  0  0  0  0  0  0  0
  147.6907  136.3144  154.5160 H   0  0  0  0  0  0  0  0  0  0  0  0
  146.1759  135.5310  154.9142 H   0  0  0  0  0  0  0  0  0  0  0  0
  148.6066  134.2055  153.7347 H   0  0  0  0  0  0  0  0  0  0  0  0
  147.1154  133.3575  154.0948 H   0  0  0  0  0  0  0  0  0  0  0  0
  148.4945  133.5383  151.3643 H   0  0  0  0  0  0  0  0  0  0  0  0
  148.4023  132.1161  152.3769 H   0  0  0  0  0  0  0  0  0  0  0  0
  146.6972  132.0600  150.5337 H   0  0  0  0  0  0  0  0  0  0  0  0
  145.9475  132.0172  152.1142 H   0  0  0  0  0  0  0  0  0  0  0  0
  146.2582  134.4746  150.3239 H   0  0  0  0  0  0  0  0  0  0  0  0
  144.7636  133.6468  150.6887 H   0  0  0  0  0  0  0  0  0  0  0  0
  144.9569  134.2633  153.0837 H   0  0  0  0  0  0  0  0  0  0  0  0
  145.2942  136.6363  151.1730 H   0  0  0  0  0  0  0  0  0  0  0  0
  143.7969  135.8743  151.6397 H   0  0  0  0  0  0  0  0  0  0  0  0
  147.4019  135.6253  152.2654 H   0  0  0  0  0  0  0  0  0  0  0  0
  1  2  3  0  0  0  0
  2  3  1  0  0  0  0
  3  8  1  0  0  0  0
  3  4  2  0  0  0  0
  4  5  1  0  0  0  0
  5  6  2  0  0  0  0
  5 21  1  0  0  0  0
  6  7  1  0  0  0  0
  6 22  1  0  0  0  0
  7  8  2  0  0  0  0
  8  9  1  0  0  0  0
  9 10  1  0  0  0  0
  9 23  1  0  0  0  0
 10 11  1  0  0  0  0
 10 24  1  0  0  0  0
 10 25  1  0  0  0  0
 11 20  1  0  0  0  0
 11 12  1  0  0  0  0
 11 26  1  0  0  0  0
 12 13  1  0  0  0  0
 12 27  1  0  0  0  0
 12 28  1  0  0  0  0
 13 18  1  0  0  0  0
 13 14  1  0  0  0  0
 13 40  1  0  0  0  0
 14 15  1  0  0  0  0
 14 29  1  0  0  0  0
 14 30  1  0  0  0  0
 15 16  1  0  0  0  0
 15 31  1  0  0  0  0
 15 32  1  0  0  0  0
 16 17  1  0  0  0  0
 16 33  1  0  0  0  0
 16 34  1  0  0  0  0
 17 18  1  0  0  0  0
 17 35  1  0  0  0  0
 17 36  1  0  0  0  0
 18 19  1  0  0  0  0
 18 37  1  0  0  0  0
 19 20  1  0  0  0  0
 19 38  1  0  0  0  0
 19 39  1  0  0  0  0
M  CHG  1  13   1
M  END
> <s_m_source_file>
AV-unprocessed.smi

> <i_m_source_file_index>
3068

> <i_lp_mmshare_version>
43012

> <i_f3d_flags>
0

> <s_epik_input>
TiNDYzFuW2NIXVtjSF1uYzFbTkhdW0NIMl1bQ0BIXShbQ0gyXTIpT1tDSDJdW0NAQEhdKE4yMylbQ0gyXVtDSDJdW0NIMl1bQ0gyXTM=

> <s_epik_cmdline>
J2VwaWtfcHl0aG9uJywgJy1waCcsICc3LjAnLCAnLXRuJywgJzgnLCAnLW1hJywgJzIwMCcsICctbWV0YWxfYmluZGluZycsICctaW1hZScsICc8aW5maWxlLm1hZT4nLCAnLW9tYWUnLCAnPG91dGZpbGUubWFlPic=

> <r_epik_Ionization_Penalty>
0.0804321

> <r_epik_Ionization_Penalty_Charging>
0.0803403

> <r_epik_Ionization_Penalty_Neutral>
9.17277e-05

> <r_epik_State_Penalty>
0.0711481

> <r_epik_Charging_Adjusted_Penalty>
0.151488

> <i_epik_Tot_Q>
1

> <i_epik_Tot_abs_Q>
1

> <r_epik_Metal_State_Penalty>
0.0711481

> <b_epik_Metal_Only>
0

> <s_lp_Force_Field>
OPLS_2005

> <r_lp_Energy>
40.024

> <b_lp_Chiralities_Consistent>
1

> <s_lp_Variant>
AV-unprocessed.smi:3068-7

> <Gold.Version>
5.8.1

> <Gold.Id.Protein>
6NUR|6NUR_protein|mol2

> <Gold.PLP.Fitness>
46.4536

> <Gold.PLP.PLP>
-31.1338

> <Gold.PLP.part.hbond>
-4.6689

> <Gold.PLP.part.metal>
0.0000

> <Gold.PLP.part.buried>
-0.1588

> <Gold.PLP.part.nonpolar>
-26.4504

> <Gold.PLP.part.repulsive>
0.6132

> <Gold.PLP.ligand.clash>
0.0000

> <Gold.PLP.ligand.torsion>
0.3531

> <Gold.PLP.Chemscore.Hbond>
3.9883

> <Gold.PLP.Chemscore.CHOScore>
1.3517

> <Gold.PLP.Chemscore.Metal>
0.0000

> <Gold.Chemscore.Hbonds>
donor molecule, donor type, donor heavy atom, donor atom, acceptor molecule, acceptor atom, score
      L1  H     9    23       P1  7948  0.83
      L1  H    13    40       P1  7948  1.82
      P1  H  7989  7998       L1     4  0.37
      P1  H 10752 10763       L1     1  0.94
      L1  C     5    21       P1  8028  0.16
      L1  C     6    22       P1  8028  0.67

> <Gold.PLP.Chemscore.Internal.Correction>
0.0062

> <Gold.Rescore>
     Score         DG    S(hbond)    S(metal)    S(lipo)     H(rot)  DE(clash)    DE(int)     intcor
     17.95     -18.40       2.79        0.00      59.62       1.32       0.01       0.44       ----

> <Gold.Chemscore.Fitness>
17.9491

> <Gold.Chemscore.DG>
-18.3963

> <Gold.Chemscore.ZeroCoef>
-5.4800

> <Gold.Chemscore.Hbond>
2.7899

> <Gold.Chemscore.Metal>
0.0000

> <Gold.Chemscore.Lipo>
59.6185

> <Gold.Chemscore.Internal_Hbond>
0.0000

> <Gold.Chemscore.DEClash>
0.0117

> <Gold.Chemscore.DEInternal>
0.4355

> <Gold.Chemscore.Rot>
1.3193

> <Gold.Chemscore.Internal.Correction>
   9.000000E+99

> <Gold.Chemscore.Hbonds>
donor molecule, donor type, donor heavy atom, donor atom, acceptor molecule, acceptor atom, score
      L1  H     9    23       P1  7948  0.81
      L1  H    13    40       P1  7948  0.90
      P1  H 10752 10763       L1     1  0.90

> <Gold.Chemscore.Hbond.Weighted>
-9.3183

> <Gold.Chemscore.Metal.Weighted>
-0.0000

> <Gold.Chemscore.Lipo.Weighted>
-6.9754

> <Gold.Chemscore.Internal_Hbond.Weighted>
0.0000

> <Gold.Chemscore.DEClash.Weighted>
0.0117

> <Gold.Chemscore.DEInternal.Weighted>
0.4355

> <Gold.Chemscore.Rot.Weighted>
3.3774

> <Gold.Chemscore.Internal.Correction.Weighted>
   9.000000E+99

> <Gold.Protein.RotatedTorsions>
[ 6907 6896 6895 6894 ] final -112.88 input  -60.11 | X-H torsion
[ 7974 7965 7964 7962 ] final   46.16 input  175.53 | X-H torsion
[ 8008 7997 7996 7995 ] final -115.89 input   59.86 | X-H torsion
[ 10167 10162 10161 10158 ] final  -48.80 input  -65.29 | X-H torsion
[ 10718 10713 10712 10709 ] final -166.39 input   66.30 | X-H torsion
[ 10763 10752 10751 10750 ] final   38.53 input  -60.55 | X-H torsion
[ 11005 11000 10999 10996 ] final -160.64 input  -57.11 | X-H torsion

> <Gold.Protein.ActiveResidues>
 VAL166  LYS551  ARG553  GLY616  TRP617  ASP618  TYR619  PRO620  LYS621  CYS622 
 ASP623  PHE694  ASN695  SER759  ASP760  ASP761  ALA762  ILE779  LEU786  VAL792 
 PHE793  MET794  SER795  GLU796  ALA797  LYS798  CYS799  TRP800  GLU811  SER814 

> <Gold.Protein.RotatedAtoms>
  150.7790  133.9025  159.3345 H   0  0  0  0  0  0  0  0  0  0  0  0  # atno 6907 bound_to 6896
  151.6893  135.0947  160.0240 H   0  0  0  0  0  0  0  0  0  0  0  0  # atno 6908 bound_to 6896
  152.3835  133.6540  159.6215 H   0  0  0  0  0  0  0  0  0  0  0  0  # atno 6909 bound_to 6896
  146.0415  139.4886  142.9775 H   0  0  0  0  0  0  0  0  0  0  0  0  # atno 7974 bound_to 7965
  155.0592  140.0393  157.2571 H   0  0  0  0  0  0  0  0  0  0  0  0  # atno 8008 bound_to 7997
  154.7073  140.2685  155.6638 H   0  0  0  0  0  0  0  0  0  0  0  0  # atno 8009 bound_to 7997
  156.2779  140.2728  156.1704 H   0  0  0  0  0  0  0  0  0  0  0  0  # atno 8010 bound_to 7997
  140.6715  143.2725  151.4122 H   0  0  0  0  0  0  0  0  0  0  0  0  # atno 10167 bound_to 10162
  156.6672  130.9069  151.3038 H   0  0  0  0  0  0  0  0  0  0  0  0  # atno 10718 bound_to 10713
  152.9998  135.6246  154.2320 H   0  0  0  0  0  0  0  0  0  0  0  0  # atno 10763 bound_to 10752
  154.2062  135.2802  155.2976 H   0  0  0  0  0  0  0  0  0  0  0  0  # atno 10764 bound_to 10752
  154.5644  135.5695  153.7095 H   0  0  0  0  0  0  0  0  0  0  0  0  # atno 10765 bound_to 10752
  140.6293  134.4668  157.5228 H   0  0  0  0  0  0  0  0  0  0  0  0  # atno 11005 bound_to 11000
  145.6876  141.0173  143.1572 LP  0  0  0  0  0  0  0  0  0  0  0  0  # atno 17320 bound_to 7965
  144.7077  139.8495  143.7425 LP  0  0  0  0  0  0  0  0  0  0  0  0  # atno 17321 bound_to 7965
  139.5985  144.1346  152.2171 LP  0  0  0  0  0  0  0  0  0  0  0  0  # atno 17342 bound_to 10162
  140.0722  144.5769  150.7183 LP  0  0  0  0  0  0  0  0  0  0  0  0  # atno 17343 bound_to 10162
  157.7089  130.9418  150.1024 LP  0  0  0  0  0  0  0  0  0  0  0  0  # atno 17370 bound_to 10713
  156.1966  130.3657  149.8841 LP  0  0  0  0  0  0  0  0  0  0  0  0  # atno 17371 bound_to 10713
  139.9122  134.8320  156.1487 LP  0  0  0  0  0  0  0  0  0  0  0  0  # atno 17394 bound_to 11000
  141.0687  133.6807  156.2096 LP  0  0  0  0  0  0  0  0  0  0  0  0  # atno 17395 bound_to 11000

$$$$
