AV-unprocessed.smi:814|AV-procd|sdf|3821|dock1
  -GOLD-   22720 1263D 1   1.00000     0.00000
 Structure written by MMmdl.
 37 38  0  0  0  0  0  0  0  0  2 V2000
  152.8851  142.2182  159.5845 C   0  0  0  0  0  0  0  0  0  0  0  0
  152.0646  143.3339  159.1088 N   0  0  0  0  0  0  0  0  0  0  0  0
  151.9163  144.5556  159.7145 C   0  0  0  0  0  0  0  0  0  0  0  0
  151.0617  145.2831  158.9280 C   0  0  0  0  0  0  0  0  0  0  0  0
  150.7226  144.4757  157.8766 N   0  3  0  0  0  0  0  0  0  0  0  0
  151.3353  143.2907  157.9815 C   0  0  0  0  0  0  0  0  0  0  0  0
  151.1904  142.1537  157.0196 C   0  0  0  0  0  0  0  0  0  0  0  0
  149.7867  141.5281  157.0483 C   0  0  0  0  0  0  0  0  0  0  0  0
  148.7895  142.4264  156.4800 N   0  0  0  0  0  0  0  0  0  0  0  0
  147.5384  142.0727  156.1469 C   0  0  0  0  0  0  0  0  0  0  0  0
  147.0973  140.9337  156.3048 O   0  0  0  0  0  0  0  0  0  0  0  0
  146.6536  143.1696  155.5401 C   0  0  2  0  0  0  0  0  0  0  0  0
  145.2741  143.2325  156.2362 C   0  0  0  0  0  0  0  0  0  0  0  0
  144.2981  144.1276  155.4923 C   0  0  0  0  0  0  0  0  0  0  0  0
  144.4871  144.5352  154.2255 C   0  0  0  0  0  0  0  0  0  0  0  0
  145.6943  144.1421  153.3926 C   0  0  0  0  0  0  0  0  0  0  0  0
  146.4797  142.9749  154.0206 C   0  0  0  0  0  0  0  0  0  0  0  0
  153.3521  142.4865  160.5328 H   0  0  0  0  0  0  0  0  0  0  0  0
  153.6611  142.0009  158.8502 H   0  0  0  0  0  0  0  0  0  0  0  0
  152.2559  141.3401  159.7302 H   0  0  0  0  0  0  0  0  0  0  0  0
  152.4165  144.8112  160.6377 H   0  0  0  0  0  0  0  0  0  0  0  0
  150.6782  146.2874  159.0351 H   0  0  0  0  0  0  0  0  0  0  0  0
  151.4220  142.5493  156.0298 H   0  0  0  0  0  0  0  0  0  0  0  0
  151.9574  141.4167  157.2589 H   0  0  0  0  0  0  0  0  0  0  0  0
  149.7749  140.6024  156.4731 H   0  0  0  0  0  0  0  0  0  0  0  0
  149.5077  141.2609  158.0690 H   0  0  0  0  0  0  0  0  0  0  0  0
  149.0726  143.3821  156.3157 H   0  0  0  0  0  0  0  0  0  0  0  0
  147.1509  144.1296  155.6932 H   0  0  0  0  0  0  0  0  0  0  0  0
  144.8231  142.2426  156.3181 H   0  0  0  0  0  0  0  0  0  0  0  0
  145.3901  143.6131  157.2518 H   0  0  0  0  0  0  0  0  0  0  0  0
  143.4083  144.4283  156.0258 H   0  0  0  0  0  0  0  0  0  0  0  0
  143.7616  145.1833  153.7559 H   0  0  0  0  0  0  0  0  0  0  0  0
  145.3674  143.8722  152.3881 H   0  0  0  0  0  0  0  0  0  0  0  0
  146.3358  145.0182  153.2935 H   0  0  0  0  0  0  0  0  0  0  0  0
  147.4482  142.8780  153.5279 H   0  0  0  0  0  0  0  0  0  0  0  0
  145.9441  142.0428  153.8316 H   0  0  0  0  0  0  0  0  0  0  0  0
  150.0965  144.7345  157.1242 H   0  0  0  0  0  0  0  0  0  0  0  0
  1  2  1  0  0  0  0
  1 18  1  0  0  0  0
  1 19  1  0  0  0  0
  1 20  1  0  0  0  0
  2  6  1  0  0  0  0
  2  3  1  0  0  0  0
  3  4  2  0  0  0  0
  3 21  1  0  0  0  0
  4  5  1  0  0  0  0
  4 22  1  0  0  0  0
  5  6  2  0  0  0  0
  5 37  1  0  0  0  0
  6  7  1  0  0  0  0
  7  8  1  0  0  0  0
  7 23  1  0  0  0  0
  7 24  1  0  0  0  0
  8  9  1  0  0  0  0
  8 25  1  0  0  0  0
  8 26  1  0  0  0  0
  9 10  1  0  0  0  0
  9 27  1  0  0  0  0
 10 11  2  0  0  0  0
 10 12  1  0  0  0  0
 12 17  1  0  0  0  0
 12 13  1  0  0  0  0
 12 28  1  0  0  0  0
 13 14  1  0  0  0  0
 13 29  1  0  0  0  0
 13 30  1  0  0  0  0
 14 15  2  0  0  0  0
 14 31  1  0  0  0  0
 15 16  1  0  0  0  0
 15 32  1  0  0  0  0
 16 17  1  0  0  0  0
 16 33  1  0  0  0  0
 16 34  1  0  0  0  0
 17 35  1  0  0  0  0
 17 36  1  0  0  0  0
M  CHG  1   5   1
M  END
> <s_m_source_file>
AV-unprocessed.smi

> <i_m_source_file_index>
814

> <i_lp_mmshare_version>
43012

> <i_f3d_flags>
0

> <s_epik_input>
W0NIM11uMVtjSF1bY0hdbmMxW0NIMl1bQ0gyXVtOSF1DKD1PKVtDQEBIXTJbQ0gyXVtDSF09W0NIXVtDSDJdW0NIMl0y

> <s_epik_cmdline>
J2VwaWtfcHl0aG9uJywgJy1waCcsICc3LjAnLCAnLXRuJywgJzgnLCAnLW1hJywgJzIwMCcsICctbWV0YWxfYmluZGluZycsICctaW1hZScsICc8aW5maWxlLm1hZT4nLCAnLW9tYWUnLCAnPG91dGZpbGUubWFlPic=

> <r_lp_tautomer_probability>
1

> <r_epik_Ionization_Penalty>
0.0819619

> <r_epik_Ionization_Penalty_Charging>
0

> <r_epik_Ionization_Penalty_Neutral>
0.0819619

> <r_epik_State_Penalty>
0.0726933

> <r_epik_Charging_Adjusted_Penalty>
0.0726933

> <i_epik_Tot_Q>
1

> <i_epik_Tot_abs_Q>
1

> <r_epik_Metal_State_Penalty>
0.411758

> <b_epik_Metal_Only>
0

> <s_lp_Force_Field>
OPLS_2005

> <r_lp_Energy>
9.54254

> <b_lp_Chiralities_Consistent>
1

> <s_lp_Variant>
AV-unprocessed.smi:814-1

> <Gold.Version>
5.8.1

> <Gold.Id.Protein>
6NUR|6NUR_protein|mol2

> <Gold.PLP.Fitness>
44.3515

> <Gold.PLP.PLP>
-36.2226

> <Gold.PLP.part.hbond>
-2.5456

> <Gold.PLP.part.metal>
0.0000

> <Gold.PLP.part.buried>
-3.1413

> <Gold.PLP.part.nonpolar>
-29.4332

> <Gold.PLP.part.repulsive>
0.1166

> <Gold.PLP.ligand.clash>
0.0000

> <Gold.PLP.ligand.torsion>
0.4607

> <Gold.PLP.Chemscore.Hbond>
3.0000

> <Gold.PLP.Chemscore.CHOScore>
0.0000

> <Gold.PLP.Chemscore.Metal>
0.0000

> <Gold.Chemscore.Hbonds>
donor molecule, donor type, donor heavy atom, donor atom, acceptor molecule, acceptor atom, score
      L1  H     5    37       P1  8028  2.00
      L1  H     9    27       P1  8028  0.93

> <Gold.PLP.Chemscore.Internal.Correction>
0.0502

> <Gold.Rescore>
     Score         DG    S(hbond)    S(metal)    S(lipo)     H(rot)  DE(clash)    DE(int)     intcor
     15.17     -15.72       1.77        0.00      73.02       1.65       0.13       0.41       ----

> <Gold.Chemscore.Fitness>
15.1725

> <Gold.Chemscore.DG>
-15.7153

> <Gold.Chemscore.ZeroCoef>
-5.4800

> <Gold.Chemscore.Hbond>
1.7727

> <Gold.Chemscore.Metal>
0.0000

> <Gold.Chemscore.Lipo>
73.0180

> <Gold.Chemscore.Internal_Hbond>
0.0000

> <Gold.Chemscore.DEClash>
0.1346

> <Gold.Chemscore.DEInternal>
0.4082

> <Gold.Chemscore.Rot>
1.6518

> <Gold.Chemscore.Internal.Correction>
   9.000000E+99

> <Gold.Chemscore.Hbonds>
donor molecule, donor type, donor heavy atom, donor atom, acceptor molecule, acceptor atom, score
      L1  H     5    37       P1  8028  0.30
      L1  H     9    27       P1  8028  0.84

> <Gold.Chemscore.Hbond.Weighted>
-5.9208

> <Gold.Chemscore.Metal.Weighted>
-0.0000

> <Gold.Chemscore.Lipo.Weighted>
-8.5431

> <Gold.Chemscore.Internal_Hbond.Weighted>
0.0000

> <Gold.Chemscore.DEClash.Weighted>
0.1346

> <Gold.Chemscore.DEInternal.Weighted>
0.4082

> <Gold.Chemscore.Rot.Weighted>
4.2287

> <Gold.Chemscore.Internal.Correction.Weighted>
   9.000000E+99

> <Gold.Protein.RotatedTorsions>
[ 6907 6896 6895 6894 ] final    2.00 input  -60.11 | X-H torsion
[ 7974 7965 7964 7962 ] final  -49.00 input  175.53 | X-H torsion
[ 8008 7997 7996 7995 ] final   23.14 input   59.86 | X-H torsion
[ 10167 10162 10161 10158 ] final  141.16 input  -65.29 | X-H torsion
[ 10718 10713 10712 10709 ] final -134.36 input   66.30 | X-H torsion
[ 10763 10752 10751 10750 ] final  143.22 input  -60.55 | X-H torsion
[ 11005 11000 10999 10996 ] final  -37.82 input  -57.11 | X-H torsion

> <Gold.Protein.ActiveResidues>
 VAL166  LYS551  ARG553  GLY616  TRP617  ASP618  TYR619  PRO620  LYS621  CYS622 
 ASP623  PHE694  ASN695  SER759  ASP760  ASP761  ALA762  ILE779  LEU786  VAL792 
 PHE793  MET794  SER795  GLU796  ALA797  LYS798  CYS799  TRP800  GLU811  SER814 

> <Gold.Protein.RotatedAtoms>
  151.6017  135.1047  160.0061 H   0  0  0  0  0  0  0  0  0  0  0  0  # atno 6907 bound_to 6896
  152.4254  133.7182  159.6529 H   0  0  0  0  0  0  0  0  0  0  0  0  # atno 6908 bound_to 6896
  150.8143  133.8293  159.3190 H   0  0  0  0  0  0  0  0  0  0  0  0  # atno 6909 bound_to 6896
  145.9452  140.7625  142.9532 H   0  0  0  0  0  0  0  0  0  0  0  0  # atno 7974 bound_to 7965
  154.9765  140.3096  155.4965 H   0  0  0  0  0  0  0  0  0  0  0  0  # atno 8008 bound_to 7997
  156.2959  140.2274  156.4800 H   0  0  0  0  0  0  0  0  0  0  0  0  # atno 8009 bound_to 7997
  154.7829  140.0445  157.1129 H   0  0  0  0  0  0  0  0  0  0  0  0  # atno 8010 bound_to 7997
  139.5028  144.6189  151.6098 H   0  0  0  0  0  0  0  0  0  0  0  0  # atno 10167 bound_to 10162
  156.2546  130.7173  151.1085 H   0  0  0  0  0  0  0  0  0  0  0  0  # atno 10718 bound_to 10713
  153.9687  135.2953  155.3429 H   0  0  0  0  0  0  0  0  0  0  0  0  # atno 10763 bound_to 10752
  154.7334  135.5057  153.9005 H   0  0  0  0  0  0  0  0  0  0  0  0  # atno 10764 bound_to 10752
  153.0910  135.6708  153.9965 H   0  0  0  0  0  0  0  0  0  0  0  0  # atno 10765 bound_to 10752
  140.9981  133.6969  156.1972 H   0  0  0  0  0  0  0  0  0  0  0  0  # atno 11005 bound_to 11000
  144.6786  140.2345  143.7351 LP  0  0  0  0  0  0  0  0  0  0  0  0  # atno 17320 bound_to 7965
  145.8246  139.2058  143.1918 LP  0  0  0  0  0  0  0  0  0  0  0  0  # atno 17321 bound_to 7965
  140.5885  143.9821  150.6310 LP  0  0  0  0  0  0  0  0  0  0  0  0  # atno 17342 bound_to 10162
  140.2993  143.3271  152.0987 LP  0  0  0  0  0  0  0  0  0  0  0  0  # atno 17343 bound_to 10162
  157.7228  131.0670  150.6065 LP  0  0  0  0  0  0  0  0  0  0  0  0  # atno 17370 bound_to 10713
  156.6147  130.4389  149.5845 LP  0  0  0  0  0  0  0  0  0  0  0  0  # atno 17371 bound_to 10713
  140.6933  134.4643  157.5588 LP  0  0  0  0  0  0  0  0  0  0  0  0  # atno 17394 bound_to 11000
  139.9025  134.8524  156.1838 LP  0  0  0  0  0  0  0  0  0  0  0  0  # atno 17395 bound_to 11000

$$$$
