AV-unprocessed.smi:3068|AV-procd|sdf|11701|dock10
  -GOLD-   2272017103D 1   1.00000     0.00000
 Structure written by MMmdl.
 40 42  0  0  0  0  0  0  0  0  2 V2000
  150.4565  133.0936  157.4631 N   0  0  0  0  0  0  0  0  0  0  0  0
  150.3223  134.0791  156.8714 C   0  0  0  0  0  0  0  0  0  0  0  0
  150.1530  135.3194  156.1252 C   0  0  0  0  0  0  0  0  0  0  0  0
  151.2702  136.0479  155.8968 N   0  0  0  0  0  0  0  0  0  0  0  0
  151.1279  137.1987  155.2058 C   0  0  0  0  0  0  0  0  0  0  0  0
  149.8704  137.6286  154.7400 C   0  0  0  0  0  0  0  0  0  0  0  0
  148.7502  136.9094  154.9644 N   0  0  0  0  0  0  0  0  0  0  0  0
  148.8788  135.7503  155.6581 C   0  0  0  0  0  0  0  0  0  0  0  0
  147.7199  134.9890  155.9005 N   0  0  0  0  0  0  0  0  0  0  0  0
  146.4086  135.4004  155.4128 C   0  0  0  0  0  0  0  0  0  0  0  0
  146.3873  135.6116  153.8895 C   0  0  1  0  0  0  0  0  0  0  0  0
  146.5954  134.2889  153.1305 C   0  0  0  0  0  0  0  0  0  0  0  0
  146.4799  134.5033  151.6666 N   0  3  1  0  0  0  0  0  0  0  0  0
  146.7238  133.2801  150.8583 C   0  0  0  0  0  0  0  0  0  0  0  0
  145.5342  132.3019  150.9074 C   0  0  0  0  0  0  0  0  0  0  0  0
  144.2286  132.9992  150.5014 C   0  0  0  0  0  0  0  0  0  0  0  0
  144.0019  134.2527  151.3584 C   0  0  0  0  0  0  0  0  0  0  0  0
  145.2194  135.2010  151.2906 C   0  0  1  0  0  0  0  0  0  0  0  0
  145.0357  136.4668  152.1505 C   0  0  0  0  0  0  0  0  0  0  0  0
  145.1140  136.1383  153.5319 O   0  0  0  0  0  0  0  0  0  0  0  0
  152.0205  137.7790  155.0248 H   0  0  0  0  0  0  0  0  0  0  0  0
  149.7627  138.5503  154.1877 H   0  0  0  0  0  0  0  0  0  0  0  0
  147.7736  134.1876  156.5135 H   0  0  0  0  0  0  0  0  0  0  0  0
  145.6640  134.6589  155.7046 H   0  0  0  0  0  0  0  0  0  0  0  0
  146.1278  136.3244  155.9189 H   0  0  0  0  0  0  0  0  0  0  0  0
  147.1705  136.3162  153.6044 H   0  0  0  0  0  0  0  0  0  0  0  0
  147.5824  133.8844  153.3578 H   0  0  0  0  0  0  0  0  0  0  0  0
  145.8668  133.5508  153.4665 H   0  0  0  0  0  0  0  0  0  0  0  0
  146.8991  133.5836  149.8253 H   0  0  0  0  0  0  0  0  0  0  0  0
  147.6382  132.7884  151.1925 H   0  0  0  0  0  0  0  0  0  0  0  0
  145.7233  131.4573  150.2445 H   0  0  0  0  0  0  0  0  0  0  0  0
  145.4316  131.8834  151.9089 H   0  0  0  0  0  0  0  0  0  0  0  0
  144.2734  133.2770  149.4475 H   0  0  0  0  0  0  0  0  0  0  0  0
  143.3875  132.3136  150.6073 H   0  0  0  0  0  0  0  0  0  0  0  0
  143.1068  134.7717  151.0137 H   0  0  0  0  0  0  0  0  0  0  0  0
  143.8036  133.9603  152.3901 H   0  0  0  0  0  0  0  0  0  0  0  0
  145.3269  135.5224  150.2535 H   0  0  0  0  0  0  0  0  0  0  0  0
  145.7945  137.2122  151.9065 H   0  0  0  0  0  0  0  0  0  0  0  0
  144.0694  136.9292  151.9479 H   0  0  0  0  0  0  0  0  0  0  0  0
  147.2283  135.1410  151.4350 H   0  0  0  0  0  0  0  0  0  0  0  0
  1  2  3  0  0  0  0
  2  3  1  0  0  0  0
  3  8  1  0  0  0  0
  3  4  2  0  0  0  0
  4  5  1  0  0  0  0
  5  6  2  0  0  0  0
  5 21  1  0  0  0  0
  6  7  1  0  0  0  0
  6 22  1  0  0  0  0
  7  8  2  0  0  0  0
  8  9  1  0  0  0  0
  9 10  1  0  0  0  0
  9 23  1  0  0  0  0
 10 11  1  0  0  0  0
 10 24  1  0  0  0  0
 10 25  1  0  0  0  0
 11 20  1  0  0  0  0
 11 12  1  0  0  0  0
 11 26  1  0  0  0  0
 12 13  1  0  0  0  0
 12 27  1  0  0  0  0
 12 28  1  0  0  0  0
 13 18  1  0  0  0  0
 13 14  1  0  0  0  0
 13 40  1  0  0  0  0
 14 15  1  0  0  0  0
 14 29  1  0  0  0  0
 14 30  1  0  0  0  0
 15 16  1  0  0  0  0
 15 31  1  0  0  0  0
 15 32  1  0  0  0  0
 16 17  1  0  0  0  0
 16 33  1  0  0  0  0
 16 34  1  0  0  0  0
 17 18  1  0  0  0  0
 17 35  1  0  0  0  0
 17 36  1  0  0  0  0
 18 19  1  0  0  0  0
 18 37  1  0  0  0  0
 19 20  1  0  0  0  0
 19 38  1  0  0  0  0
 19 39  1  0  0  0  0
M  CHG  1  13   1
M  END
> <s_m_source_file>
AV-unprocessed.smi

> <i_m_source_file_index>
3068

> <i_lp_mmshare_version>
43012

> <i_f3d_flags>
0

> <s_epik_input>
TiNDYzFuW2NIXVtjSF1uYzFbTkhdW0NIMl1bQ0BIXShbQ0gyXTIpT1tDSDJdW0NAQEhdKE4yMylbQ0gyXVtDSDJdW0NIMl1bQ0gyXTM=

> <s_epik_cmdline>
J2VwaWtfcHl0aG9uJywgJy1waCcsICc3LjAnLCAnLXRuJywgJzgnLCAnLW1hJywgJzIwMCcsICctbWV0YWxfYmluZGluZycsICctaW1hZScsICc8aW5maWxlLm1hZT4nLCAnLW9tYWUnLCAnPG91dGZpbGUubWFlPic=

> <r_epik_Ionization_Penalty>
0.0804321

> <r_epik_Ionization_Penalty_Charging>
0.0803403

> <r_epik_Ionization_Penalty_Neutral>
9.17277e-05

> <r_epik_State_Penalty>
0.0711481

> <r_epik_Charging_Adjusted_Penalty>
0.151488

> <i_epik_Tot_Q>
1

> <i_epik_Tot_abs_Q>
1

> <r_epik_Metal_State_Penalty>
0.0711481

> <b_epik_Metal_Only>
0

> <s_lp_Force_Field>
OPLS_2005

> <r_lp_Energy>
39.2156

> <b_lp_Chiralities_Consistent>
1

> <s_lp_Variant>
AV-unprocessed.smi:3068-4

> <Gold.Version>
5.8.1

> <Gold.Id.Protein>
6NUR|6NUR_protein|mol2

> <Gold.PLP.Fitness>
37.7117

> <Gold.PLP.PLP>
-25.8177

> <Gold.PLP.part.hbond>
-3.0000

> <Gold.PLP.part.metal>
0.0000

> <Gold.PLP.part.buried>
-4.4414

> <Gold.PLP.part.nonpolar>
-19.9256

> <Gold.PLP.part.repulsive>
0.3001

> <Gold.PLP.ligand.clash>
0.0000

> <Gold.PLP.ligand.torsion>
0.0281

> <Gold.PLP.Chemscore.Hbond>
3.9833

> <Gold.PLP.Chemscore.CHOScore>
0.0000

> <Gold.PLP.Chemscore.Metal>
0.0000

> <Gold.Chemscore.Hbonds>
donor molecule, donor type, donor heavy atom, donor atom, acceptor molecule, acceptor atom, score
      L1  H    13    40       P1  7948  1.98
      P1  H  6896  6908       L1     1  1.00
      P1  H 10752 10765       L1     4  0.54

> <Gold.PLP.Chemscore.Internal.Correction>
0.0003

> <Gold.Rescore>
     Score         DG    S(hbond)    S(metal)    S(lipo)     H(rot)  DE(clash)    DE(int)     intcor
     15.20     -16.44       2.18        0.00      60.36       1.32       0.00       1.24       ----

> <Gold.Chemscore.Fitness>
15.1959

> <Gold.Chemscore.DG>
-16.4385

> <Gold.Chemscore.ZeroCoef>
-5.4800

> <Gold.Chemscore.Hbond>
2.1779

> <Gold.Chemscore.Metal>
0.0000

> <Gold.Chemscore.Lipo>
60.3554

> <Gold.Chemscore.Internal_Hbond>
0.0000

> <Gold.Chemscore.DEClash>
0.0036

> <Gold.Chemscore.DEInternal>
1.2390

> <Gold.Chemscore.Rot>
1.3193

> <Gold.Chemscore.Internal.Correction>
   9.000000E+99

> <Gold.Chemscore.Hbonds>
donor molecule, donor type, donor heavy atom, donor atom, acceptor molecule, acceptor atom, score
      L1  H    13    40       P1  7948  0.74
      P1  H  6896  6908       L1     1  0.71
      P1  H 10752 10765       L1     4  0.05

> <Gold.Chemscore.Hbond.Weighted>
-7.2743

> <Gold.Chemscore.Metal.Weighted>
-0.0000

> <Gold.Chemscore.Lipo.Weighted>
-7.0616

> <Gold.Chemscore.Internal_Hbond.Weighted>
0.0000

> <Gold.Chemscore.DEClash.Weighted>
0.0036

> <Gold.Chemscore.DEInternal.Weighted>
1.2390

> <Gold.Chemscore.Rot.Weighted>
3.3774

> <Gold.Chemscore.Internal.Correction.Weighted>
   9.000000E+99

> <Gold.Protein.RotatedTorsions>
[ 6907 6896 6895 6894 ] final   90.20 input  -60.11 | X-H torsion
[ 7974 7965 7964 7962 ] final   -0.09 input  175.53 | X-H torsion
[ 8008 7997 7996 7995 ] final  -35.16 input   59.86 | X-H torsion
[ 10167 10162 10161 10158 ] final  -74.67 input  -65.29 | X-H torsion
[ 10718 10713 10712 10709 ] final  144.55 input   66.30 | X-H torsion
[ 10763 10752 10751 10750 ] final -161.79 input  -60.55 | X-H torsion
[ 11005 11000 10999 10996 ] final  130.82 input  -57.11 | X-H torsion

> <Gold.Protein.ActiveResidues>
 VAL166  LYS551  ARG553  GLY616  TRP617  ASP618  TYR619  PRO620  LYS621  CYS622 
 ASP623  PHE694  ASN695  SER759  ASP760  ASP761  ALA762  ILE779  LEU786  VAL792 
 PHE793  MET794  SER795  GLU796  ALA797  LYS798  CYS799  TRP800  GLU811  SER814 

> <Gold.Protein.RotatedAtoms>
  152.5443  134.1848  159.8649 H   0  0  0  0  0  0  0  0  0  0  0  0  # atno 6907 bound_to 6896
  151.1848  133.4696  159.2602 H   0  0  0  0  0  0  0  0  0  0  0  0  # atno 6908 bound_to 6896
  151.1142  135.0055  159.8564 H   0  0  0  0  0  0  0  0  0  0  0  0  # atno 6909 bound_to 6896
  146.2430  140.1217  142.8340 H   0  0  0  0  0  0  0  0  0  0  0  0  # atno 7974 bound_to 7965
  154.4102  140.1664  156.2167 H   0  0  0  0  0  0  0  0  0  0  0  0  # atno 8008 bound_to 7997
  155.9398  140.3409  155.6295 H   0  0  0  0  0  0  0  0  0  0  0  0  # atno 8009 bound_to 7997
  155.7003  140.0744  157.2404 H   0  0  0  0  0  0  0  0  0  0  0  0  # atno 8010 bound_to 7997
  140.5008  143.2362  151.7756 H   0  0  0  0  0  0  0  0  0  0  0  0  # atno 10167 bound_to 10162
  157.3558  131.0957  151.0959 H   0  0  0  0  0  0  0  0  0  0  0  0  # atno 10718 bound_to 10713
  154.7272  135.3038  154.8951 H   0  0  0  0  0  0  0  0  0  0  0  0  # atno 10763 bound_to 10752
  153.9805  135.6731  153.4754 H   0  0  0  0  0  0  0  0  0  0  0  0  # atno 10764 bound_to 10752
  153.0885  135.4971  154.8564 H   0  0  0  0  0  0  0  0  0  0  0  0  # atno 10765 bound_to 10752
  139.9694  134.9581  156.9349 H   0  0  0  0  0  0  0  0  0  0  0  0  # atno 11005 bound_to 11000
  145.0400  140.8938  143.5058 LP  0  0  0  0  0  0  0  0  0  0  0  0  # atno 17320 bound_to 7965
  145.1296  139.2640  143.5546 LP  0  0  0  0  0  0  0  0  0  0  0  0  # atno 17321 bound_to 7965
  139.4871  144.4525  151.9637 LP  0  0  0  0  0  0  0  0  0  0  0  0  # atno 17342 bound_to 10162
  140.3614  144.2968  150.5933 LP  0  0  0  0  0  0  0  0  0  0  0  0  # atno 17343 bound_to 10162
  157.2118  130.6441  149.5777 LP  0  0  0  0  0  0  0  0  0  0  0  0  # atno 17370 bound_to 10713
  155.9729  130.4657  150.6265 LP  0  0  0  0  0  0  0  0  0  0  0  0  # atno 17371 bound_to 10713
  140.5326  134.0799  155.7320 LP  0  0  0  0  0  0  0  0  0  0  0  0  # atno 17394 bound_to 11000
  141.1374  133.9198  157.2403 LP  0  0  0  0  0  0  0  0  0  0  0  0  # atno 17395 bound_to 11000

$$$$
