AV-unprocessed.smi:2021|AV-procd|sdf|8180|dock3
  -GOLD-   2272010433D 1   1.00000     0.00000
 Structure written by MMmdl.
 41 42  0  0  0  0  0  0  0  0  1 V2000
  152.3690  142.8395  159.0012 C   0  0  0  0  0  0  0  0  0  0  0  0
  151.6583  143.0697  157.6581 C   0  0  0  0  0  0  0  0  0  0  0  0
  151.2341  144.5435  157.5369 C   0  0  0  0  0  0  0  0  0  0  0  0
  150.4557  142.1108  157.4940 C   0  0  0  0  0  0  0  0  0  0  0  0
  150.2154  141.6252  156.1342 N   0  0  0  0  0  0  0  0  0  0  0  0
  148.8367  141.1934  155.9201 C   0  0  0  0  0  0  0  0  0  0  0  0
  148.6181  140.6540  154.4966 C   0  0  0  0  0  0  0  0  0  0  0  0
  149.5357  139.5967  154.2403 O   0  0  0  0  0  0  0  0  0  0  0  0
  150.8970  139.9988  154.3755 C   0  0  2  0  0  0  0  0  0  0  0  0
  151.7975  138.7920  154.0598 C   0  0  0  0  0  0  0  0  0  0  0  0
  151.0139  137.6085  153.7224 N   0  0  0  0  0  0  0  0  0  0  0  0
  151.2096  136.3848  154.2331 C   0  0  0  0  0  0  0  0  0  0  0  0
  152.0682  136.1324  155.0784 O   0  0  0  0  0  0  0  0  0  0  0  0
  150.3578  135.4942  153.7003 N   0  0  0  0  0  0  0  0  0  0  0  0
  150.2759  134.1032  153.9598 C   0  0  0  0  0  0  0  0  0  0  0  0
  150.9252  133.6240  155.0275 N   0  0  0  0  0  0  0  0  0  0  0  0
  150.7570  132.2517  155.1663 N   0  0  0  0  0  0  0  0  0  0  0  0
  149.9870  131.7491  154.1965 C   0  0  0  0  0  0  0  0  0  0  0  0
  149.3900  132.9015  153.0156 S   0  0  0  0  0  0  0  0  0  0  0  0
  151.1142  140.5225  155.8086 C   0  0  0  0  0  0  0  0  0  0  0  0
  151.6998  143.0247  159.8420 H   0  0  0  0  0  0  0  0  0  0  0  0
  153.2306  143.4991  159.1093 H   0  0  0  0  0  0  0  0  0  0  0  0
  152.7315  141.8144  159.0830 H   0  0  0  0  0  0  0  0  0  0  0  0
  152.3890  142.8574  156.8764 H   0  0  0  0  0  0  0  0  0  0  0  0
  150.5344  144.8188  158.3266 H   0  0  0  0  0  0  0  0  0  0  0  0
  150.7500  144.7491  156.5832 H   0  0  0  0  0  0  0  0  0  0  0  0
  152.0960  145.2068  157.6133 H   0  0  0  0  0  0  0  0  0  0  0  0
  150.6319  141.2412  158.1287 H   0  0  0  0  0  0  0  0  0  0  0  0
  149.5505  142.5720  157.8921 H   0  0  0  0  0  0  0  0  0  0  0  0
  148.5732  140.4215  156.6446 H   0  0  0  0  0  0  0  0  0  0  0  0
  148.1526  142.0257  156.0817 H   0  0  0  0  0  0  0  0  0  0  0  0
  147.6009  140.2785  154.3851 H   0  0  0  0  0  0  0  0  0  0  0  0
  148.7501  141.4466  153.7585 H   0  0  0  0  0  0  0  0  0  0  0  0
  151.1051  140.8024  153.6666 H   0  0  0  0  0  0  0  0  0  0  0  0
  152.4778  139.0293  153.2400 H   0  0  0  0  0  0  0  0  0  0  0  0
  152.4226  138.5562  154.9213 H   0  0  0  0  0  0  0  0  0  0  0  0
  150.2884  137.7271  153.0308 H   0  0  0  0  0  0  0  0  0  0  0  0
  149.7014  135.8477  153.0201 H   0  0  0  0  0  0  0  0  0  0  0  0
  149.7682  130.6917  154.1770 H   0  0  0  0  0  0  0  0  0  0  0  0
  152.1494  140.8483  155.9172 H   0  0  0  0  0  0  0  0  0  0  0  0
  150.9689  139.7067  156.5189 H   0  0  0  0  0  0  0  0  0  0  0  0
  1  2  1  0  0  0  0
  1 21  1  0  0  0  0
  1 22  1  0  0  0  0
  1 23  1  0  0  0  0
  2  3  1  0  0  0  0
  2  4  1  0  0  0  0
  2 24  1  0  0  0  0
  3 25  1  0  0  0  0
  3 26  1  0  0  0  0
  3 27  1  0  0  0  0
  4  5  1  0  0  0  0
  4 28  1  0  0  0  0
  4 29  1  0  0  0  0
  5 20  1  0  0  0  0
  5  6  1  0  0  0  0
  6  7  1  0  0  0  0
  6 30  1  0  0  0  0
  6 31  1  0  0  0  0
  7  8  1  0  0  0  0
  7 32  1  0  0  0  0
  7 33  1  0  0  0  0
  8  9  1  0  0  0  0
  9 10  1  0  0  0  0
  9 20  1  0  0  0  0
  9 34  1  0  0  0  0
 10 11  1  0  0  0  0
 10 35  1  0  0  0  0
 10 36  1  0  0  0  0
 11 12  1  0  0  0  0
 11 37  1  0  0  0  0
 12 13  2  0  0  0  0
 12 14  1  0  0  0  0
 14 15  1  0  0  0  0
 14 38  1  0  0  0  0
 15 19  1  0  0  0  0
 15 16  2  0  0  0  0
 16 17  1  0  0  0  0
 17 18  2  0  0  0  0
 18 19  1  0  0  0  0
 18 39  1  0  0  0  0
 20 40  1  0  0  0  0
 20 41  1  0  0  0  0
M  END
> <s_m_source_file>
AV-unprocessed.smi

> <i_m_source_file_index>
2021

> <i_lp_mmshare_version>
43012

> <i_f3d_flags>
0

> <s_epik_input>
W0NIM11bQ0hdKFtDSDNdKVtDSDJdTjFbQ0gyXVtDSDJdT1tDQEhdKFtDSDJdMSlbQ0gyXVtOSF1DKD1PKVtOSF1jMm5uW2NIXXMy

> <s_epik_cmdline>
J2VwaWtfcHl0aG9uJywgJy1waCcsICc3LjAnLCAnLXRuJywgJzgnLCAnLW1hJywgJzIwMCcsICctbWV0YWxfYmluZGluZycsICctaW1hZScsICc8aW5maWxlLm1hZT4nLCAnLW9tYWUnLCAnPG91dGZpbGUubWFlPic=

> <r_lp_tautomer_probability>
1

> <r_epik_Ionization_Penalty>
1.11451

> <r_epik_Ionization_Penalty_Charging>
0

> <r_epik_Ionization_Penalty_Neutral>
1.11451

> <r_epik_State_Penalty>
1.17021

> <r_epik_Charging_Adjusted_Penalty>
1.17021

> <i_epik_Tot_Q>
0

> <i_epik_Tot_abs_Q>
0

> <r_epik_Metal_State_Penalty>
1.53642

> <b_epik_Metal_Only>
0

> <s_lp_Force_Field>
OPLS_2005

> <r_lp_Energy>
23.4775

> <b_lp_Chiralities_Consistent>
1

> <s_lp_Variant>
AV-unprocessed.smi:2021-6

> <Gold.Version>
5.8.1

> <Gold.Id.Protein>
6NUR|6NUR_protein|mol2

> <Gold.PLP.Fitness>
40.6779

> <Gold.PLP.PLP>
-36.7297

> <Gold.PLP.part.hbond>
-4.9008

> <Gold.PLP.part.metal>
0.0000

> <Gold.PLP.part.buried>
-1.1366

> <Gold.PLP.part.nonpolar>
-31.6091

> <Gold.PLP.part.repulsive>
0.4237

> <Gold.PLP.ligand.clash>
0.0000

> <Gold.PLP.ligand.torsion>
1.5377

> <Gold.PLP.Chemscore.Hbond>
2.3159

> <Gold.PLP.Chemscore.CHOScore>
0.0000

> <Gold.PLP.Chemscore.Metal>
0.0000

> <Gold.Chemscore.Hbonds>
donor molecule, donor type, donor heavy atom, donor atom, acceptor molecule, acceptor atom, score
      L1  H    11    37       P1  7948  0.21
      L1  H    14    38       P1  7948  0.25
      P1  H 10752 10764       L1    13  0.21

> <Gold.PLP.Chemscore.Internal.Correction>
0.0760

> <Gold.Rescore>
     Score         DG    S(hbond)    S(metal)    S(lipo)     H(rot)  DE(clash)    DE(int)     intcor
     11.33     -16.48       1.71        0.00      85.48       1.84       2.11       3.04       ----

> <Gold.Chemscore.Fitness>
11.3334

> <Gold.Chemscore.DG>
-16.4842

> <Gold.Chemscore.ZeroCoef>
-5.4800

> <Gold.Chemscore.Hbond>
1.7117

> <Gold.Chemscore.Metal>
0.0000

> <Gold.Chemscore.Lipo>
85.4789

> <Gold.Chemscore.Internal_Hbond>
0.0000

> <Gold.Chemscore.DEClash>
2.1060

> <Gold.Chemscore.DEInternal>
3.0449

> <Gold.Chemscore.Rot>
1.8413

> <Gold.Chemscore.Internal.Correction>
   9.000000E+99

> <Gold.Chemscore.Hbonds>
donor molecule, donor type, donor heavy atom, donor atom, acceptor molecule, acceptor atom, score
      L1  H    11    37       P1  7948  0.03
      L1  H    14    38       P1  7948  0.01
      P1  H 10752 10764       L1    13  0.21

> <Gold.Chemscore.Hbond.Weighted>
-5.7170

> <Gold.Chemscore.Metal.Weighted>
-0.0000

> <Gold.Chemscore.Lipo.Weighted>
-10.0010

> <Gold.Chemscore.Internal_Hbond.Weighted>
0.0000

> <Gold.Chemscore.DEClash.Weighted>
2.1060

> <Gold.Chemscore.DEInternal.Weighted>
3.0449

> <Gold.Chemscore.Rot.Weighted>
4.7138

> <Gold.Chemscore.Internal.Correction.Weighted>
   9.000000E+99

> <Gold.Protein.RotatedTorsions>
[ 6907 6896 6895 6894 ] final -130.69 input  -60.11 | X-H torsion
[ 7974 7965 7964 7962 ] final   70.59 input  175.53 | X-H torsion
[ 8008 7997 7996 7995 ] final   97.53 input   59.86 | X-H torsion
[ 10167 10162 10161 10158 ] final   79.66 input  -65.29 | X-H torsion
[ 10718 10713 10712 10709 ] final   28.17 input   66.30 | X-H torsion
[ 10763 10752 10751 10750 ] final  -31.49 input  -60.55 | X-H torsion
[ 11005 11000 10999 10996 ] final  -71.40 input  -57.11 | X-H torsion

> <Gold.Protein.ActiveResidues>
 VAL166  LYS551  ARG553  GLY616  TRP617  ASP618  TYR619  PRO620  LYS621  CYS622 
 ASP623  PHE694  ASN695  SER759  ASP760  ASP761  ALA762  ILE779  LEU786  VAL792 
 PHE793  MET794  SER795  GLU796  ALA797  LYS798  CYS799  TRP800  GLU811  SER814 

> <Gold.Protein.RotatedAtoms>
  150.9426  133.6639  159.2787 H   0  0  0  0  0  0  0  0  0  0  0  0  # atno 6907 bound_to 6896
  151.4023  135.0971  159.9569 H   0  0  0  0  0  0  0  0  0  0  0  0  # atno 6908 bound_to 6896
  152.5076  133.8917  159.7452 H   0  0  0  0  0  0  0  0  0  0  0  0  # atno 6909 bound_to 6896
  145.7763  139.2866  143.1292 H   0  0  0  0  0  0  0  0  0  0  0  0  # atno 7974 bound_to 7965
  156.0910  140.3257  155.7816 H   0  0  0  0  0  0  0  0  0  0  0  0  # atno 8008 bound_to 7997
  155.4996  140.0568  157.2958 H   0  0  0  0  0  0  0  0  0  0  0  0  # atno 8009 bound_to 7997
  154.4638  140.1979  156.0189 H   0  0  0  0  0  0  0  0  0  0  0  0  # atno 8010 bound_to 7997
  139.9580  144.5980  150.8098 H   0  0  0  0  0  0  0  0  0  0  0  0  # atno 10167 bound_to 10162
  157.2299  130.7018  149.6308 H   0  0  0  0  0  0  0  0  0  0  0  0  # atno 10718 bound_to 10713
  153.7983  135.6892  153.4860 H   0  0  0  0  0  0  0  0  0  0  0  0  # atno 10763 bound_to 10752
  153.1705  135.4544  154.9894 H   0  0  0  0  0  0  0  0  0  0  0  0  # atno 10764 bound_to 10752
  154.8017  135.3340  154.7473 H   0  0  0  0  0  0  0  0  0  0  0  0  # atno 10765 bound_to 10752
  141.1591  133.6816  156.6900 H   0  0  0  0  0  0  0  0  0  0  0  0  # atno 11005 bound_to 11000
  146.0120  140.8427  142.9966 LP  0  0  0  0  0  0  0  0  0  0  0  0  # atno 17320 bound_to 7965
  144.6804  140.2503  143.7332 LP  0  0  0  0  0  0  0  0  0  0  0  0  # atno 17321 bound_to 7965
  140.7562  143.3061  151.2958 LP  0  0  0  0  0  0  0  0  0  0  0  0  # atno 17342 bound_to 10162
  139.6576  144.0247  152.2670 LP  0  0  0  0  0  0  0  0  0  0  0  0  # atno 17343 bound_to 10162
  155.9676  130.4492  150.5650 LP  0  0  0  0  0  0  0  0  0  0  0  0  # atno 17370 bound_to 10713
  157.3489  131.0730  151.1729 LP  0  0  0  0  0  0  0  0  0  0  0  0  # atno 17371 bound_to 10713
  140.3038  134.8142  157.4120 LP  0  0  0  0  0  0  0  0  0  0  0  0  # atno 17394 bound_to 11000
  140.1238  134.5184  155.8161 LP  0  0  0  0  0  0  0  0  0  0  0  0  # atno 17395 bound_to 11000

$$$$
