AV-unprocessed.smi:1|AV-procd|sdf|5|dock5
  -GOLD-   2262015 93D 1   1.00000     0.00000
 Structure written by MMmdl.
 57 62  0  0  0  0  0  0  0  0  1 V2000
  153.1306  140.4002  158.2813 O   0  0  0  0  0  0  0  0  0  0  0  0
  152.2064  141.1863  158.0705 C   0  0  0  0  0  0  0  0  0  0  0  0
  151.1405  140.8918  157.1290 N   0  0  0  0  0  0  0  0  0  0  0  0
  150.9364  139.7534  156.4253 C   0  0  0  0  0  0  0  0  0  0  0  0
  151.1600  139.6723  155.0873 N   0  0  0  0  0  0  0  0  0  0  0  0
  150.9429  138.5255  154.4373 C   0  0  0  0  0  0  0  0  0  0  0  0
  150.5093  137.3612  154.9240 N   0  0  0  0  0  0  0  0  0  0  0  0
  150.2854  137.4311  156.2677 C   0  0  0  0  0  0  0  0  0  0  0  0
  150.4743  138.5830  157.0820 C   0  0  0  0  0  0  0  0  0  0  0  0
  150.1485  138.2869  158.3986 N   0  0  0  0  0  0  0  0  0  0  0  0
  149.7904  137.0318  158.3605 C   0  0  0  0  0  0  0  0  0  0  0  0
  149.8372  136.4395  157.1176 N   0  0  0  0  0  0  0  0  0  0  0  0
  149.4950  135.0251  156.7760 C   0  0  2  0  0  0  0  0  0  0  0  0
  150.1577  134.1636  157.6538 O   0  0  0  0  0  0  0  0  0  0  0  0
  151.0552  133.3134  156.9436 C   0  0  1  0  0  0  0  0  0  0  0  0
  151.1812  131.9475  157.6278 C   0  0  0  0  0  0  0  0  0  0  0  0
  152.3310  131.2861  157.1271 O   0  0  0  0  0  0  0  0  0  0  0  0
  153.5507  131.8314  157.2949 C   0  0  0  0  0  0  0  0  0  0  0  0
  153.7818  132.7607  158.0712 O   0  0  0  0  0  0  0  0  0  0  0  0
  154.5943  131.1890  156.4448 C   0  0  0  0  0  0  0  0  0  0  0  0
  154.2175  130.1780  155.5301 C   0  0  0  0  0  0  0  0  0  0  0  0
  155.1807  129.5549  154.7127 C   0  0  0  0  0  0  0  0  0  0  0  0
  156.5326  129.9346  154.8007 C   0  0  0  0  0  0  0  0  0  0  0  0
  156.9207  130.9376  155.7078 C   0  0  0  0  0  0  0  0  0  0  0  0
  155.9588  131.5625  156.5257 C   0  0  0  0  0  0  0  0  0  0  0  0
  150.4851  133.2624  155.5277 C   0  0  1  0  0  0  0  0  0  0  0  0
  149.4138  132.3378  155.4317 O   0  0  0  0  0  0  0  0  0  0  0  0
  148.1936  133.0400  154.5322 S   0  0  0  0  0  0  0  0  0  0  0  0
  148.2445  132.4858  153.1710 O   0  0  0  0  0  0  0  0  0  0  0  0
  146.9667  133.0412  155.3436 O   0  0  0  0  0  0  0  0  0  0  0  0
  148.7939  134.5994  154.4840 O   0  0  0  0  0  0  0  0  0  0  0  0
  149.9180  134.6718  155.3429 C   0  0  1  0  0  0  0  0  0  0  0  0
  152.1630  142.5428  158.7119 C   0  0  0  0  0  0  0  0  0  0  0  0
  151.8383  143.6803  157.9387 C   0  0  0  0  0  0  0  0  0  0  0  0
  151.8117  144.9592  158.5280 C   0  0  0  0  0  0  0  0  0  0  0  0
  152.1160  145.1129  159.8937 C   0  0  0  0  0  0  0  0  0  0  0  0
  152.4519  143.9872  160.6689 C   0  0  0  0  0  0  0  0  0  0  0  0
  152.4796  142.7074  160.0807 C   0  0  0  0  0  0  0  0  0  0  0  0
  150.4557  141.6216  156.9953 H   0  0  0  0  0  0  0  0  0  0  0  0
  151.1455  138.5440  153.3767 H   0  0  0  0  0  0  0  0  0  0  0  0
  149.4773  136.4997  159.2472 H   0  0  0  0  0  0  0  0  0  0  0  0
  148.4197  134.9495  156.9424 H   0  0  0  0  0  0  0  0  0  0  0  0
  152.0342  133.7899  156.9001 H   0  0  0  0  0  0  0  0  0  0  0  0
  151.2415  132.0602  158.7112 H   0  0  0  0  0  0  0  0  0  0  0  0
  150.3008  131.3425  157.4062 H   0  0  0  0  0  0  0  0  0  0  0  0
  153.1851  129.8700  155.4443 H   0  0  0  0  0  0  0  0  0  0  0  0
  154.8809  128.7848  154.0174 H   0  0  0  0  0  0  0  0  0  0  0  0
  157.2710  129.4569  154.1737 H   0  0  0  0  0  0  0  0  0  0  0  0
  157.9583  131.2297  155.7770 H   0  0  0  0  0  0  0  0  0  0  0  0
  156.2909  132.3287  157.2109 H   0  0  0  0  0  0  0  0  0  0  0  0
  151.2402  133.0141  154.7811 H   0  0  0  0  0  0  0  0  0  0  0  0
  150.6763  135.3620  154.9718 H   0  0  0  0  0  0  0  0  0  0  0  0
  151.6034  143.5794  156.8888 H   0  0  0  0  0  0  0  0  0  0  0  0
  151.5585  145.8229  157.9309 H   0  0  0  0  0  0  0  0  0  0  0  0
  152.0960  146.0940  160.3449 H   0  0  0  0  0  0  0  0  0  0  0  0
  152.6915  144.1054  161.7156 H   0  0  0  0  0  0  0  0  0  0  0  0
  152.7496  141.8585  160.6919 H   0  0  0  0  0  0  0  0  0  0  0  0
  1  2  2  0  0  0  0
  2  3  1  0  0  0  0
  2 33  1  0  0  0  0
  3  4  1  0  0  0  0
  3 39  1  0  0  0  0
  4  9  1  0  0  0  0
  4  5  2  0  0  0  0
  5  6  1  0  0  0  0
  6  7  2  0  0  0  0
  6 40  1  0  0  0  0
  7  8  1  0  0  0  0
  8 12  1  0  0  0  0
  8  9  2  0  0  0  0
  9 10  1  0  0  0  0
 10 11  2  0  0  0  0
 11 12  1  0  0  0  0
 11 41  1  0  0  0  0
 12 13  1  0  0  0  0
 13 32  1  0  0  0  0
 13 14  1  0  0  0  0
 13 42  1  0  0  0  0
 14 15  1  0  0  0  0
 15 16  1  0  0  0  0
 15 26  1  0  0  0  0
 15 43  1  0  0  0  0
 16 17  1  0  0  0  0
 16 44  1  0  0  0  0
 16 45  1  0  0  0  0
 17 18  1  0  0  0  0
 18 19  2  0  0  0  0
 18 20  1  0  0  0  0
 20 25  1  0  0  0  0
 20 21  2  0  0  0  0
 21 22  1  0  0  0  0
 21 46  1  0  0  0  0
 22 23  2  0  0  0  0
 22 47  1  0  0  0  0
 23 24  1  0  0  0  0
 23 48  1  0  0  0  0
 24 25  2  0  0  0  0
 24 49  1  0  0  0  0
 25 50  1  0  0  0  0
 26 32  1  0  0  0  0
 26 27  1  0  0  0  0
 26 51  1  0  0  0  0
 27 28  1  0  0  0  0
 28 29  2  0  0  0  0
 28 30  2  0  0  0  0
 28 31  1  0  0  0  0
 31 32  1  0  0  0  0
 32 52  1  0  0  0  0
 33 38  1  0  0  0  0
 33 34  2  0  0  0  0
 34 35  1  0  0  0  0
 34 53  1  0  0  0  0
 35 36  2  0  0  0  0
 35 54  1  0  0  0  0
 36 37  1  0  0  0  0
 36 55  1  0  0  0  0
 37 38  2  0  0  0  0
 37 56  1  0  0  0  0
 38 57  1  0  0  0  0
M  END
> <s_m_source_file>
AV-unprocessed.smi

> <i_m_source_file_index>
1

> <i_lp_mmshare_version>
43012

> <i_f3d_flags>
0

> <s_epik_input>
W2NIXTFbY0hdW2NIXVtjSF1bY0hdYzFDKD1PKVtOSF1jKG5bY0hdbjIpYyhjMjMpbltjSF1uM1tDQEBIXShbQ0BIXShbQ0BIXTQ1KU9TKE81KSg9Tyk9TylPW0NASF00W0NIMl1PQyg9TyljNltjSF1bY0hdW2NIXVtjSF1bY0hdNg==

> <s_epik_cmdline>
J2VwaWtfcHl0aG9uJywgJy1waCcsICc3LjAnLCAnLXRuJywgJzgnLCAnLW1hJywgJzIwMCcsICctbWV0YWxfYmluZGluZycsICctaW1hZScsICc8aW5maWxlLm1hZT4nLCAnLW9tYWUnLCAnPG91dGZpbGUubWFlPic=

> <r_lp_tautomer_probability>
1

> <r_epik_Ionization_Penalty>
0.00195722

> <r_epik_Ionization_Penalty_Charging>
0

> <r_epik_Ionization_Penalty_Neutral>
0.00195722

> <r_epik_State_Penalty>
0.00633741

> <r_epik_Charging_Adjusted_Penalty>
0.00633741

> <i_epik_Tot_Q>
0

> <i_epik_Tot_abs_Q>
0

> <r_epik_Metal_State_Penalty>
0.341185

> <b_epik_Metal_Only>
0

> <s_epik_Chemistry_Notes>
This compound has an ester and may undergo hydrolysis at high or low pH. This compound contains an acetal/aminal-like group ( X-CH(R)-Y where X, Y are N, S, or O) that may be acid/base labile, releasing an aldehyde.

> <s_lp_Force_Field>
OPLS_2005

> <r_lp_Energy>
45.5474

> <b_lp_Chiralities_Consistent>
1

> <s_lp_Variant>
AV-unprocessed.smi:1-5

> <Gold.Version>
5.8.1

> <Gold.Id.Protein>
6NUR|6NUR_protein|mol2

> <Gold.PLP.Fitness>
62.0392

> <Gold.PLP.PLP>
-53.1889

> <Gold.PLP.part.hbond>
-3.9976

> <Gold.PLP.part.metal>
0.0000

> <Gold.PLP.part.buried>
-9.1567

> <Gold.PLP.part.nonpolar>
-41.9976

> <Gold.PLP.part.repulsive>
1.6284

> <Gold.PLP.ligand.clash>
0.0000

> <Gold.PLP.ligand.torsion>
1.8724

> <Gold.PLP.Chemscore.Hbond>
3.6998

> <Gold.PLP.Chemscore.CHOScore>
0.3933

> <Gold.PLP.Chemscore.Metal>
0.0000

> <Gold.Chemscore.Hbonds>
donor molecule, donor type, donor heavy atom, donor atom, acceptor molecule, acceptor atom, score
      P1  H  6896  6907       L1    14  0.78
      P1  H  6896  6909       L1    19  0.60
      P1  H  7989  7998       L1     5  0.93
      P1  H  7997  8010       L1     1  0.85

> <Gold.PLP.Chemscore.Internal.Correction>
0.3160

> <Gold.Rescore>
     Score         DG    S(hbond)    S(metal)    S(lipo)     H(rot)  DE(clash)    DE(int)     intcor
     20.55     -24.11       2.75        0.00     127.39       2.13       0.34       3.22       ----

> <Gold.Chemscore.Fitness>
20.5519

> <Gold.Chemscore.DG>
-24.1056

> <Gold.Chemscore.ZeroCoef>
-5.4800

> <Gold.Chemscore.Hbond>
2.7490

> <Gold.Chemscore.Metal>
0.0000

> <Gold.Chemscore.Lipo>
127.3947

> <Gold.Chemscore.Internal_Hbond>
0.0000

> <Gold.Chemscore.DEClash>
0.3363

> <Gold.Chemscore.DEInternal>
3.2175

> <Gold.Chemscore.Rot>
2.1333

> <Gold.Chemscore.Internal.Correction>
   9.000000E+99

> <Gold.Chemscore.Hbonds>
donor molecule, donor type, donor heavy atom, donor atom, acceptor molecule, acceptor atom, score
      P1  H  6896  6907       L1    14  0.47
      P1  H  6896  6909       L1    19  0.59
      P1  H  7989  7998       L1     5  0.20
      P1  H  7997  8010       L1     1  0.81

> <Gold.Chemscore.Hbond.Weighted>
-9.1818

> <Gold.Chemscore.Metal.Weighted>
-0.0000

> <Gold.Chemscore.Lipo.Weighted>
-14.9052

> <Gold.Chemscore.Internal_Hbond.Weighted>
0.0000

> <Gold.Chemscore.DEClash.Weighted>
0.3363

> <Gold.Chemscore.DEInternal.Weighted>
3.2175

> <Gold.Chemscore.Rot.Weighted>
5.4614

> <Gold.Chemscore.Internal.Correction.Weighted>
   9.000000E+99

> <Gold.Protein.RotatedTorsions>
[ 6907 6896 6895 6894 ] final  -94.78 input  -60.11 | X-H torsion
[ 7974 7965 7964 7962 ] final   57.49 input  175.53 | X-H torsion
[ 8008 7997 7996 7995 ] final   40.58 input   59.86 | X-H torsion
[ 10167 10162 10161 10158 ] final -144.57 input  -65.29 | X-H torsion
[ 10718 10713 10712 10709 ] final -142.81 input   66.30 | X-H torsion
[ 10763 10752 10751 10750 ] final  177.34 input  -60.55 | X-H torsion
[ 11005 11000 10999 10996 ] final  149.82 input  -57.11 | X-H torsion

> <Gold.Protein.ActiveResidues>
 VAL166  LYS551  ARG553  GLY616  TRP617  ASP618  TYR619  PRO620  LYS621  CYS622 
 ASP623  PHE694  ASN695  SER759  ASP760  ASP761  ALA762  ILE779  LEU786  VAL792 
 PHE793  MET794  SER795  GLU796  ALA797  LYS798  CYS799  TRP800  GLU811  SER814 

> <Gold.Protein.RotatedAtoms>
  150.6949  134.1760  159.4230 H   0  0  0  0  0  0  0  0  0  0  0  0  # atno 6907 bound_to 6896
  151.9736  135.0062  160.0563 H   0  0  0  0  0  0  0  0  0  0  0  0  # atno 6908 bound_to 6896
  152.1819  133.4678  159.4999 H   0  0  0  0  0  0  0  0  0  0  0  0  # atno 6909 bound_to 6896
  145.9285  139.3788  143.0435 H   0  0  0  0  0  0  0  0  0  0  0  0  # atno 7974 bound_to 7965
  155.2555  140.3355  155.4278 H   0  0  0  0  0  0  0  0  0  0  0  0  # atno 8008 bound_to 7997
  156.2197  140.1804  156.7548 H   0  0  0  0  0  0  0  0  0  0  0  0  # atno 8009 bound_to 7997
  154.5807  140.0654  156.9084 H   0  0  0  0  0  0  0  0  0  0  0  0  # atno 8010 bound_to 7997
  139.7886  143.7998  152.2647 H   0  0  0  0  0  0  0  0  0  0  0  0  # atno 10167 bound_to 10162
  156.3503  130.7684  151.1836 H   0  0  0  0  0  0  0  0  0  0  0  0  # atno 10718 bound_to 10713
  154.4931  135.2780  155.1480 H   0  0  0  0  0  0  0  0  0  0  0  0  # atno 10763 bound_to 10752
  154.3144  135.6222  153.5483 H   0  0  0  0  0  0  0  0  0  0  0  0  # atno 10764 bound_to 10752
  152.9891  135.5727  154.5357 H   0  0  0  0  0  0  0  0  0  0  0  0  # atno 10765 bound_to 10752
  140.1078  134.8943  157.1891 H   0  0  0  0  0  0  0  0  0  0  0  0  # atno 11005 bound_to 11000
  145.8457  140.9556  143.0776 LP  0  0  0  0  0  0  0  0  0  0  0  0  # atno 17320 bound_to 7965
  144.6762  140.0342  143.7482 LP  0  0  0  0  0  0  0  0  0  0  0  0  # atno 17321 bound_to 7965
  139.8082  144.7346  150.9732 LP  0  0  0  0  0  0  0  0  0  0  0  0  # atno 17342 bound_to 10162
  140.7820  143.4277  151.0743 LP  0  0  0  0  0  0  0  0  0  0  0  0  # atno 17343 bound_to 10162
  157.7460  131.0429  150.4718 LP  0  0  0  0  0  0  0  0  0  0  0  0  # atno 17370 bound_to 10713
  156.4913  130.4096  149.6405 LP  0  0  0  0  0  0  0  0  0  0  0  0  # atno 17371 bound_to 10713
  140.3133  134.2999  155.7262 LP  0  0  0  0  0  0  0  0  0  0  0  0  # atno 17394 bound_to 11000
  141.2122  133.7664  156.9807 LP  0  0  0  0  0  0  0  0  0  0  0  0  # atno 17395 bound_to 11000

$$$$
