AV-unprocessed.smi:1027|AV-procd|sdf|4469|dock6
  -GOLD-   22720 2443D 1   1.00000     0.00000
 Structure written by MMmdl.
 35 36  0  0  0  0  0  0  0  0  1 V2000
  138.1555  139.8052  153.8968 C   0  0  0  0  0  0  0  0  0  0  0  0
  139.3834  139.0654  153.3356 C   0  0  0  0  0  0  0  0  0  0  0  0
  139.0166  137.5904  153.0804 C   0  0  0  0  0  0  0  0  0  0  0  0
  140.6315  139.2184  154.2469 C   0  0  2  0  0  0  0  0  0  0  0  0
  140.8210  140.6468  154.7864 C   0  0  0  0  0  0  0  0  0  0  0  0
  141.8496  138.8475  153.5251 N   0  0  0  0  0  0  0  0  0  0  0  0
  142.2291  137.6015  153.2029 C   0  0  0  0  0  0  0  0  0  0  0  0
  141.5688  136.5965  153.4674 O   0  0  0  0  0  0  0  0  0  0  0  0
  143.4108  137.6069  152.5613 N   0  0  0  0  0  0  0  0  0  0  0  0
  144.1452  136.4998  152.0607 C   0  0  0  0  0  0  0  0  0  0  0  0
  145.4304  136.5663  151.6868 N   0  0  0  0  0  0  0  0  0  0  0  0
  145.9014  135.3424  151.2328 N   0  0  0  0  0  0  0  0  0  0  0  0
  144.9627  134.3894  151.2751 C   0  0  0  0  0  0  0  0  0  0  0  0
  145.2286  132.9901  150.8301 C   0  0  0  0  0  0  0  0  0  0  0  0
  144.6012  132.4490  149.5659 C   0  0  0  0  0  0  0  0  0  0  0  0
  144.1618  131.9195  150.9068 C   0  0  0  0  0  0  0  0  0  0  0  0
  143.4023  134.9184  151.8957 S   0  0  0  0  0  0  0  0  0  0  0  0
  137.9070  139.4558  154.8993 H   0  0  0  0  0  0  0  0  0  0  0  0
  137.2804  139.6482  153.2657 H   0  0  0  0  0  0  0  0  0  0  0  0
  138.3170  140.8816  153.9457 H   0  0  0  0  0  0  0  0  0  0  0  0
  139.6159  139.5102  152.3668 H   0  0  0  0  0  0  0  0  0  0  0  0
  138.8259  137.0638  154.0163 H   0  0  0  0  0  0  0  0  0  0  0  0
  139.8095  137.0588  152.5544 H   0  0  0  0  0  0  0  0  0  0  0  0
  138.1203  137.5087  152.4650 H   0  0  0  0  0  0  0  0  0  0  0  0
  140.5026  138.5624  155.1099 H   0  0  0  0  0  0  0  0  0  0  0  0
  140.0081  140.9400  155.4501 H   0  0  0  0  0  0  0  0  0  0  0  0
  140.8730  141.3747  153.9761 H   0  0  0  0  0  0  0  0  0  0  0  0
  141.7428  140.7272  155.3638 H   0  0  0  0  0  0  0  0  0  0  0  0
  142.4592  139.6067  153.2589 H   0  0  0  0  0  0  0  0  0  0  0  0
  143.8427  138.5091  152.4259 H   0  0  0  0  0  0  0  0  0  0  0  0
  146.2543  132.7035  151.0532 H   0  0  0  0  0  0  0  0  0  0  0  0
  143.9082  133.0939  149.0291 H   0  0  0  0  0  0  0  0  0  0  0  0
  145.2117  131.7989  148.9424 H   0  0  0  0  0  0  0  0  0  0  0  0
  144.4790  130.9150  151.1788 H   0  0  0  0  0  0  0  0  0  0  0  0
  143.1696  132.2034  151.2517 H   0  0  0  0  0  0  0  0  0  0  0  0
  1  2  1  0  0  0  0
  1 18  1  0  0  0  0
  1 19  1  0  0  0  0
  1 20  1  0  0  0  0
  2  3  1  0  0  0  0
  2  4  1  0  0  0  0
  2 21  1  0  0  0  0
  3 22  1  0  0  0  0
  3 23  1  0  0  0  0
  3 24  1  0  0  0  0
  4  5  1  0  0  0  0
  4  6  1  0  0  0  0
  4 25  1  0  0  0  0
  5 26  1  0  0  0  0
  5 27  1  0  0  0  0
  5 28  1  0  0  0  0
  6  7  1  0  0  0  0
  6 29  1  0  0  0  0
  7  8  2  0  0  0  0
  7  9  1  0  0  0  0
  9 10  1  0  0  0  0
  9 30  1  0  0  0  0
 10 17  1  0  0  0  0
 10 11  2  0  0  0  0
 11 12  1  0  0  0  0
 12 13  2  0  0  0  0
 13 14  1  0  0  0  0
 13 17  1  0  0  0  0
 14 16  1  0  0  0  0
 14 15  1  0  0  0  0
 14 31  1  0  0  0  0
 15 16  1  0  0  0  0
 15 32  1  0  0  0  0
 15 33  1  0  0  0  0
 16 34  1  0  0  0  0
 16 35  1  0  0  0  0
M  END
> <s_m_source_file>
AV-unprocessed.smi

> <i_m_source_file_index>
1027

> <i_lp_mmshare_version>
43012

> <i_f3d_flags>
0

> <s_epik_input>
W0NIM11bQ0hdKFtDSDNdKVtDQEhdKFtDSDNdKVtOSF1DKD1PKVtOSF1jMW5uYyhzMSlbQ0hdMltDSDJdW0NIMl0y

> <s_epik_cmdline>
J2VwaWtfcHl0aG9uJywgJy1waCcsICc3LjAnLCAnLXRuJywgJzgnLCAnLW1hJywgJzIwMCcsICctbWV0YWxfYmluZGluZycsICctaW1hZScsICc8aW5maWxlLm1hZT4nLCAnLW9tYWUnLCAnPG91dGZpbGUubWFlPic=

> <r_lp_tautomer_probability>
1

> <r_epik_Ionization_Penalty>
0.000943246

> <r_epik_Ionization_Penalty_Charging>
0

> <r_epik_Ionization_Penalty_Neutral>
0.000943246

> <r_epik_State_Penalty>
-0

> <r_epik_Charging_Adjusted_Penalty>
0

> <i_epik_Tot_Q>
0

> <i_epik_Tot_abs_Q>
0

> <r_epik_Metal_State_Penalty>
0.281646

> <b_epik_Metal_Only>
0

> <s_lp_Force_Field>
OPLS_2005

> <r_lp_Energy>
3.85842

> <b_lp_Chiralities_Consistent>
1

> <s_lp_Variant>
AV-unprocessed.smi:1027-1

> <Gold.Version>
5.8.1

> <Gold.Id.Protein>
6NUR|6NUR_protein|mol2

> <Gold.PLP.Fitness>
35.7457

> <Gold.PLP.PLP>
-30.8007

> <Gold.PLP.part.hbond>
-3.0000

> <Gold.PLP.part.metal>
0.0000

> <Gold.PLP.part.buried>
-5.2975

> <Gold.PLP.part.nonpolar>
-23.3766

> <Gold.PLP.part.repulsive>
0.6103

> <Gold.PLP.ligand.clash>
0.0000

> <Gold.PLP.ligand.torsion>
0.5672

> <Gold.PLP.Chemscore.Hbond>
1.9760

> <Gold.PLP.Chemscore.CHOScore>
0.0000

> <Gold.PLP.Chemscore.Metal>
0.0000

> <Gold.Chemscore.Hbonds>
donor molecule, donor type, donor heavy atom, donor atom, acceptor molecule, acceptor atom, score
      L1  H     6    29       P1 10175  1.00
      L1  H     9    30       P1 10175  0.94

> <Gold.PLP.Chemscore.Internal.Correction>
0.1514

> <Gold.Rescore>
     Score         DG    S(hbond)    S(metal)    S(lipo)     H(rot)  DE(clash)    DE(int)     intcor
     14.36     -16.14       1.94        0.00      66.28       1.39       0.07       1.71       ----

> <Gold.Chemscore.Fitness>
14.3604

> <Gold.Chemscore.DG>
-16.1420

> <Gold.Chemscore.ZeroCoef>
-5.4800

> <Gold.Chemscore.Hbond>
1.9350

> <Gold.Chemscore.Metal>
0.0000

> <Gold.Chemscore.Lipo>
66.2807

> <Gold.Chemscore.Internal_Hbond>
0.0000

> <Gold.Chemscore.DEClash>
0.0678

> <Gold.Chemscore.DEInternal>
1.7139

> <Gold.Chemscore.Rot>
1.3890

> <Gold.Chemscore.Internal.Correction>
   9.000000E+99

> <Gold.Chemscore.Hbonds>
donor molecule, donor type, donor heavy atom, donor atom, acceptor molecule, acceptor atom, score
      L1  H     6    29       P1 10175  0.98
      L1  H     9    30       P1 10175  0.90

> <Gold.Chemscore.Hbond.Weighted>
-6.4631

> <Gold.Chemscore.Metal.Weighted>
-0.0000

> <Gold.Chemscore.Lipo.Weighted>
-7.7548

> <Gold.Chemscore.Internal_Hbond.Weighted>
0.0000

> <Gold.Chemscore.DEClash.Weighted>
0.0678

> <Gold.Chemscore.DEInternal.Weighted>
1.7139

> <Gold.Chemscore.Rot.Weighted>
3.5559

> <Gold.Chemscore.Internal.Correction.Weighted>
   9.000000E+99

> <Gold.Protein.RotatedTorsions>
[ 6907 6896 6895 6894 ] final  119.36 input  -60.11 | X-H torsion
[ 7974 7965 7964 7962 ] final   39.97 input  175.53 | X-H torsion
[ 8008 7997 7996 7995 ] final  140.69 input   59.86 | X-H torsion
[ 10167 10162 10161 10158 ] final  -33.89 input  -65.29 | X-H torsion
[ 10718 10713 10712 10709 ] final  -54.71 input   66.30 | X-H torsion
[ 10763 10752 10751 10750 ] final  120.68 input  -60.55 | X-H torsion
[ 11005 11000 10999 10996 ] final  165.72 input  -57.11 | X-H torsion

> <Gold.Protein.ActiveResidues>
 VAL166  LYS551  ARG553  GLY616  TRP617  ASP618  TYR619  PRO620  LYS621  CYS622 
 ASP623  PHE694  ASN695  SER759  ASP760  ASP761  ALA762  ILE779  LEU786  VAL792 
 PHE793  MET794  SER795  GLU796  ALA797  LYS798  CYS799  TRP800  GLU811  SER814 

> <Gold.Protein.RotatedAtoms>
  152.4477  133.7569  159.6724 H   0  0  0  0  0  0  0  0  0  0  0  0  # atno 6907 bound_to 6896
  150.8381  133.7970  159.3077 H   0  0  0  0  0  0  0  0  0  0  0  0  # atno 6908 bound_to 6896
  151.5603  135.1068  160.0023 H   0  0  0  0  0  0  0  0  0  0  0  0  # atno 6909 bound_to 6896
  146.0942  139.5588  142.9456 H   0  0  0  0  0  0  0  0  0  0  0  0  # atno 7974 bound_to 7965
  156.2976  140.2335  156.4442 H   0  0  0  0  0  0  0  0  0  0  0  0  # atno 8008 bound_to 7997
  154.8158  140.0440  157.1396 H   0  0  0  0  0  0  0  0  0  0  0  0  # atno 8009 bound_to 7997
  154.9371  140.3024  155.5142 H   0  0  0  0  0  0  0  0  0  0  0  0  # atno 8010 bound_to 7997
  140.7196  143.3588  151.2006 H   0  0  0  0  0  0  0  0  0  0  0  0  # atno 10167 bound_to 10162
  156.1428  130.4154  150.0074 H   0  0  0  0  0  0  0  0  0  0  0  0  # atno 10718 bound_to 10713
  153.6023  135.3446  155.2949 H   0  0  0  0  0  0  0  0  0  0  0  0  # atno 10763 bound_to 10752
  154.8634  135.4230  154.2399 H   0  0  0  0  0  0  0  0  0  0  0  0  # atno 10764 bound_to 10752
  153.3231  135.7039  153.7085 H   0  0  0  0  0  0  0  0  0  0  0  0  # atno 10765 bound_to 10752
  140.2590  134.7917  157.3573 H   0  0  0  0  0  0  0  0  0  0  0  0  # atno 11005 bound_to 11000
  145.5981  141.0359  143.2033 LP  0  0  0  0  0  0  0  0  0  0  0  0  # atno 17320 bound_to 7965
  144.7382  139.7523  143.7321 LP  0  0  0  0  0  0  0  0  0  0  0  0  # atno 17321 bound_to 7965
  139.7135  143.9338  152.2957 LP  0  0  0  0  0  0  0  0  0  0  0  0  # atno 17342 bound_to 10162
  139.9071  144.6878  150.8602 LP  0  0  0  0  0  0  0  0  0  0  0  0  # atno 17343 bound_to 10162
  156.7954  130.9271  151.3646 LP  0  0  0  0  0  0  0  0  0  0  0  0  # atno 17370 bound_to 10713
  157.6591  130.8950  149.9791 LP  0  0  0  0  0  0  0  0  0  0  0  0  # atno 17371 bound_to 10713
  140.1483  134.4883  155.7980 LP  0  0  0  0  0  0  0  0  0  0  0  0  # atno 17394 bound_to 11000
  141.2192  133.6852  156.7333 LP  0  0  0  0  0  0  0  0  0  0  0  0  # atno 17395 bound_to 11000

$$$$
