AV-unprocessed.smi:39|AV-procd|sdf|354|dock1
  -GOLD-   2262016193D 1   1.00000     0.00000
 Structure written by MMmdl.
 32 33  0  0  0  0  0  0  0  0  3 V2000
  146.5912  139.3392  152.6208 C   0  0  0  0  0  0  0  0  0  0  0  0
  147.6924  139.9689  153.4583 C   0  0  0  0  0  0  0  0  0  0  0  0
  148.7796  139.2701  153.8757 C   0  0  0  0  0  0  0  0  0  0  0  0
  149.8019  139.8195  154.6419 N   0  0  0  0  0  0  0  0  0  0  0  0
  151.0018  139.0180  155.1094 C   0  0  2  0  0  0  0  0  0  0  0  0
  150.9324  137.5707  154.5831 C   0  0  0  0  0  0  0  0  0  0  0  0
  151.1343  136.7382  155.8417 C   0  0  1  0  0  0  0  0  0  0  0  0
  152.5614  136.4922  156.0937 N   0  0  0  0  0  0  0  0  0  0  0  0
  153.2976  137.4870  156.1324 N   0  3  0  0  0  0  0  0  0  0  0  0
  153.8705  138.4685  156.1905 N   0  5  0  0  0  0  0  0  0  0  0  0
  150.5120  137.6601  156.8964 C   0  0  1  0  0  0  0  0  0  0  0  0
  150.8906  137.3442  158.3534 C   0  0  0  0  0  0  0  0  0  0  0  0
  150.2063  136.1886  158.7882 O   0  0  0  0  0  0  0  0  0  0  0  0
  151.0095  138.9340  156.5048 O   0  0  0  0  0  0  0  0  0  0  0  0
  149.7138  141.1704  155.0372 C   0  0  0  0  0  0  0  0  0  0  0  0
  150.5705  141.7173  155.7310 O   0  0  0  0  0  0  0  0  0  0  0  0
  148.5999  141.8882  154.6071 N   0  0  0  0  0  0  0  0  0  0  0  0
  147.5590  141.3810  153.8264 C   0  0  0  0  0  0  0  0  0  0  0  0
  146.6261  142.1160  153.5067 O   0  0  0  0  0  0  0  0  0  0  0  0
  151.8794  139.5750  154.7756 H   0  0  0  0  0  0  0  0  0  0  0  0
  150.5813  135.7983  155.7881 H   0  0  0  0  0  0  0  0  0  0  0  0
  149.4267  137.6363  156.7783 H   0  0  0  0  0  0  0  0  0  0  0  0
  148.5382  142.8565  154.8859 H   0  0  0  0  0  0  0  0  0  0  0  0
  146.7975  138.2912  152.4010 H   0  0  0  0  0  0  0  0  0  0  0  0
  146.4863  139.8649  151.6711 H   0  0  0  0  0  0  0  0  0  0  0  0
  145.6375  139.3882  153.1471 H   0  0  0  0  0  0  0  0  0  0  0  0
  148.8331  138.2312  153.5877 H   0  0  0  0  0  0  0  0  0  0  0  0
  149.9457  137.3733  154.1609 H   0  0  0  0  0  0  0  0  0  0  0  0
  151.6806  137.3985  153.8081 H   0  0  0  0  0  0  0  0  0  0  0  0
  151.9591  137.1399  158.4274 H   0  0  0  0  0  0  0  0  0  0  0  0
  150.6726  138.1835  159.0142 H   0  0  0  0  0  0  0  0  0  0  0  0
  149.4198  136.4569  159.2379 H   0  0  0  0  0  0  0  0  0  0  0  0
  1  2  1  0  0  0  0
  1 24  1  0  0  0  0
  1 25  1  0  0  0  0
  1 26  1  0  0  0  0
  2 18  1  0  0  0  0
  2  3  2  0  0  0  0
  3  4  1  0  0  0  0
  3 27  1  0  0  0  0
  4  5  1  0  0  0  0
  4 15  1  0  0  0  0
  5 20  1  0  0  0  0
  5 14  1  0  0  0  0
  5  6  1  0  0  0  0
  6  7  1  0  0  0  0
  6 28  1  0  0  0  0
  6 29  1  0  0  0  0
  7 21  1  0  0  0  0
  7  8  1  0  0  0  0
  7 11  1  0  0  0  0
  8  9  2  0  0  0  0
  9 10  2  0  0  0  0
 11 22  1  0  0  0  0
 11 12  1  0  0  0  0
 11 14  1  0  0  0  0
 12 13  1  0  0  0  0
 12 30  1  0  0  0  0
 12 31  1  0  0  0  0
 13 32  1  0  0  0  0
 15 16  2  0  0  0  0
 15 17  1  0  0  0  0
 17 23  1  0  0  0  0
 17 18  1  0  0  0  0
 18 19  2  0  0  0  0
M  CHG  1   9   1
M  CHG  1  10  -1
M  END
> <s_m_source_file>
AV-unprocessed.smi

> <i_m_source_file_index>
39

> <i_lp_mmshare_version>
43012

> <i_f3d_flags>
0

> <s_epik_input>
Tz1jMVtuSF1jKD1PKW4oW2NIXWMxW0NIM10pW0NASF0yW0NIMl1bQ0BIXShOPVtOK109W04tXSlbQ0BIXShPMilbQ0gyXVtPSF0=

> <s_epik_cmdline>
J2VwaWtfcHl0aG9uJywgJy1waCcsICc3LjAnLCAnLXRuJywgJzgnLCAnLW1hJywgJzIwMCcsICctbWV0YWxfYmluZGluZycsICctaW1hZScsICc8aW5maWxlLm1hZT4nLCAnLW9tYWUnLCAnPG91dGZpbGUubWFlPic=

> <r_lp_tautomer_probability>
0.999537

> <r_epik_Ionization_Penalty>
0.00127512

> <r_epik_Ionization_Penalty_Charging>
0.00127507

> <r_epik_Ionization_Penalty_Neutral>
5.43433e-08

> <r_epik_State_Penalty>
0.000844892

> <r_epik_Charging_Adjusted_Penalty>
0.00211996

> <i_epik_Tot_Q>
0

> <i_epik_Tot_abs_Q>
2

> <r_epik_Metal_State_Penalty>
0.680636

> <b_epik_Metal_Only>
0

> <s_epik_Chemistry_Notes>
This compound contains an acetal/aminal-like group ( X-CH(R)-Y where X, Y are N, S, or O) that may be acid/base labile, releasing an aldehyde.

> <s_lp_Force_Field>
OPLS_2005

> <r_lp_Energy>
25.8418

> <b_lp_Chiralities_Consistent>
1

> <s_lp_Variant>
AV-unprocessed.smi:39-4

> <Gold.Version>
5.8.1

> <Gold.Id.Protein>
6NUR|6NUR_protein|mol2

> <Gold.PLP.Fitness>
39.5373

> <Gold.PLP.PLP>
-26.3905

> <Gold.PLP.part.hbond>
-4.6420

> <Gold.PLP.part.metal>
0.0000

> <Gold.PLP.part.buried>
0.7908

> <Gold.PLP.part.nonpolar>
-23.2170

> <Gold.PLP.part.repulsive>
0.4834

> <Gold.PLP.ligand.clash>
0.0000

> <Gold.PLP.ligand.torsion>
0.1111

> <Gold.PLP.Chemscore.Hbond>
3.6400

> <Gold.PLP.Chemscore.CHOScore>
0.7997

> <Gold.PLP.Chemscore.Metal>
0.0000

> <Gold.Chemscore.Hbonds>
donor molecule, donor type, donor heavy atom, donor atom, acceptor molecule, acceptor atom, score
      L1  H    17    23       P1  8028  1.00
      P1  H  6896  6909       L1    13  0.96
      P1  H  7997  8009       L1    10  0.59
      P1  H 10752 10765       L1     8  0.99
      L1  C     3    27       P1  7948  0.77

> <Gold.PLP.Chemscore.Internal.Correction>
0.0499

> <Gold.Rescore>
     Score         DG    S(hbond)    S(metal)    S(lipo)     H(rot)  DE(clash)    DE(int)     intcor
      8.87     -14.18       3.41        0.00      37.30       2.75       0.04       5.26       ----

> <Gold.Chemscore.Fitness>
8.8710

> <Gold.Chemscore.DG>
-14.1762

> <Gold.Chemscore.ZeroCoef>
-5.4800

> <Gold.Chemscore.Hbond>
3.4066

> <Gold.Chemscore.Metal>
0.0000

> <Gold.Chemscore.Lipo>
37.3007

> <Gold.Chemscore.Internal_Hbond>
0.0000

> <Gold.Chemscore.DEClash>
0.0436

> <Gold.Chemscore.DEInternal>
5.2616

> <Gold.Chemscore.Rot>
2.7524

> <Gold.Chemscore.Internal.Correction>
   9.000000E+99

> <Gold.Chemscore.Hbonds>
donor molecule, donor type, donor heavy atom, donor atom, acceptor molecule, acceptor atom, score
      L1  H    17    23       P1  8028  0.93
      P1  H  6896  6909       L1    13  0.51
      P1  H  7997  8009       L1    10  0.60
      P1  H 10752 10765       L1     8  0.40

> <Gold.Chemscore.Hbond.Weighted>
-11.3782

> <Gold.Chemscore.Metal.Weighted>
-0.0000

> <Gold.Chemscore.Lipo.Weighted>
-4.3642

> <Gold.Chemscore.Internal_Hbond.Weighted>
0.0000

> <Gold.Chemscore.DEClash.Weighted>
0.0436

> <Gold.Chemscore.DEInternal.Weighted>
5.2616

> <Gold.Chemscore.Rot.Weighted>
7.0461

> <Gold.Chemscore.Internal.Correction.Weighted>
   9.000000E+99

> <Gold.Protein.RotatedTorsions>
[ 6907 6896 6895 6894 ] final   57.88 input  -60.11 | X-H torsion
[ 7974 7965 7964 7962 ] final   15.89 input  175.53 | X-H torsion
[ 8008 7997 7996 7995 ] final -168.87 input   59.86 | X-H torsion
[ 10167 10162 10161 10158 ] final -109.04 input  -65.29 | X-H torsion
[ 10718 10713 10712 10709 ] final -121.70 input   66.30 | X-H torsion
[ 10763 10752 10751 10750 ] final -132.94 input  -60.55 | X-H torsion
[ 11005 11000 10999 10996 ] final  -54.40 input  -57.11 | X-H torsion

> <Gold.Protein.ActiveResidues>
 VAL166  LYS551  ARG553  GLY616  TRP617  ASP618  TYR619  PRO620  LYS621  CYS622 
 ASP623  PHE694  ASN695  SER759  ASP760  ASP761  ALA762  ILE779  LEU786  VAL792 
 PHE793  MET794  SER795  GLU796  ALA797  LYS798  CYS799  TRP800  GLU811  SER814 

> <Gold.Protein.RotatedAtoms>
  152.3773  134.6644  160.0155 H   0  0  0  0  0  0  0  0  0  0  0  0  # atno 6907 bound_to 6896
  151.6919  133.3305  159.3253 H   0  0  0  0  0  0  0  0  0  0  0  0  # atno 6908 bound_to 6896
  150.7719  134.6627  159.6393 H   0  0  0  0  0  0  0  0  0  0  0  0  # atno 6909 bound_to 6896
  146.2265  139.8828  142.8568 H   0  0  0  0  0  0  0  0  0  0  0  0  # atno 7974 bound_to 7965
  155.8972  140.1035  157.1376 H   0  0  0  0  0  0  0  0  0  0  0  0  # atno 8008 bound_to 7997
  154.4022  140.1299  156.4455 H   0  0  0  0  0  0  0  0  0  0  0  0  # atno 8009 bound_to 7997
  155.7465  140.3466  155.5131 H   0  0  0  0  0  0  0  0  0  0  0  0  # atno 8010 bound_to 7997
  140.1596  143.4131  152.1435 H   0  0  0  0  0  0  0  0  0  0  0  0  # atno 10167 bound_to 10162
  156.1358  130.6429  150.9694 H   0  0  0  0  0  0  0  0  0  0  0  0  # atno 10718 bound_to 10713
  154.8738  135.3782  154.4492 H   0  0  0  0  0  0  0  0  0  0  0  0  # atno 10763 bound_to 10752
  153.5170  135.7029  153.5756 H   0  0  0  0  0  0  0  0  0  0  0  0  # atno 10764 bound_to 10752
  153.4020  135.3946  155.1960 H   0  0  0  0  0  0  0  0  0  0  0  0  # atno 10765 bound_to 10752
  141.1024  133.6616  156.4315 H   0  0  0  0  0  0  0  0  0  0  0  0  # atno 11005 bound_to 11000
  145.2495  141.0039  143.3889 LP  0  0  0  0  0  0  0  0  0  0  0  0  # atno 17320 bound_to 7965
  144.9386  139.4215  143.6460 LP  0  0  0  0  0  0  0  0  0  0  0  0  # atno 17321 bound_to 7965
  139.5387  144.7235  151.4805 LP  0  0  0  0  0  0  0  0  0  0  0  0  # atno 17342 bound_to 10162
  140.6651  143.8415  150.6932 LP  0  0  0  0  0  0  0  0  0  0  0  0  # atno 17343 bound_to 10162
  157.6531  131.0894  150.8007 LP  0  0  0  0  0  0  0  0  0  0  0  0  # atno 17370 bound_to 10713
  156.8087  130.4945  149.5359 LP  0  0  0  0  0  0  0  0  0  0  0  0  # atno 17371 bound_to 10713
  140.4989  134.6505  157.5240 LP  0  0  0  0  0  0  0  0  0  0  0  0  # atno 17394 bound_to 11000
  139.9880  134.7030  155.9739 LP  0  0  0  0  0  0  0  0  0  0  0  0  # atno 17395 bound_to 11000

$$$$
