AV-unprocessed.smi:1063|AV-procd|sdf|4662|dock1
  -GOLD-   22720 3173D 1   1.00000     0.00000
 Structure written by MMmdl.
 38 39  0  0  0  0  0  0  0  0  1 V2000
  152.3380  142.5196  158.9000 C   0  0  0  0  0  0  0  0  0  0  0  0
  151.5464  141.5556  158.0124 C   0  0  0  0  0  0  0  0  0  0  0  0
  150.9378  142.3808  156.5152 S   0  0  0  0  0  0  0  0  0  0  0  0
  150.0180  141.1994  155.5739 C   0  0  0  0  0  0  0  0  0  0  0  0
  148.6452  141.3554  155.2922 C   0  0  0  0  0  0  0  0  0  0  0  0
  148.0086  140.3547  154.5342 C   0  0  0  0  0  0  0  0  0  0  0  0
  148.7528  139.2431  154.0866 C   0  0  0  0  0  0  0  0  0  0  0  0
  148.0645  138.2632  153.3179 N   0  0  0  0  0  0  0  0  0  0  0  0
  146.7451  138.0255  153.2147 C   0  0  0  0  0  0  0  0  0  0  0  0
  145.8538  138.6744  153.7602 O   0  0  0  0  0  0  0  0  0  0  0  0
  146.5089  136.9703  152.4224 N   0  0  0  0  0  0  0  0  0  0  0  0
  145.1906  136.4176  152.1319 C   0  0  0  0  0  0  0  0  0  0  0  0
  145.2775  135.2529  151.1319 C   0  0  2  0  0  0  0  0  0  0  0  0
  144.0601  134.3336  151.1484 C   0  0  0  0  0  0  0  0  0  0  0  0
  144.5977  133.0531  150.5348 C   0  0  0  0  0  0  0  0  0  0  0  0
  146.1075  133.1308  150.7852 C   0  0  0  0  0  0  0  0  0  0  0  0
  146.3247  134.3574  151.4718 O   0  0  0  0  0  0  0  0  0  0  0  0
  150.1285  139.1927  154.4278 C   0  0  0  0  0  0  0  0  0  0  0  0
  150.7489  140.1464  155.1554 N   0  0  0  0  0  0  0  0  0  0  0  0
  152.6961  142.0158  159.7981 H   0  0  0  0  0  0  0  0  0  0  0  0
  151.7207  143.3617  159.2139 H   0  0  0  0  0  0  0  0  0  0  0  0
  153.2055  142.9170  158.3724 H   0  0  0  0  0  0  0  0  0  0  0  0
  152.1779  140.7150  157.7240 H   0  0  0  0  0  0  0  0  0  0  0  0
  150.6978  141.1535  158.5663 H   0  0  0  0  0  0  0  0  0  0  0  0
  148.0821  142.2082  155.6378 H   0  0  0  0  0  0  0  0  0  0  0  0
  146.9577  140.4435  154.2995 H   0  0  0  0  0  0  0  0  0  0  0  0
  148.6596  137.6490  152.7817 H   0  0  0  0  0  0  0  0  0  0  0  0
  147.2998  136.4995  152.0079 H   0  0  0  0  0  0  0  0  0  0  0  0
  144.6873  136.1064  153.0491 H   0  0  0  0  0  0  0  0  0  0  0  0
  144.5858  137.2183  151.7054 H   0  0  0  0  0  0  0  0  0  0  0  0
  145.4427  135.6281  150.1200 H   0  0  0  0  0  0  0  0  0  0  0  0
  143.7448  134.1447  152.1755 H   0  0  0  0  0  0  0  0  0  0  0  0
  143.2099  134.7433  150.6023 H   0  0  0  0  0  0  0  0  0  0  0  0
  144.1464  132.1680  150.9839 H   0  0  0  0  0  0  0  0  0  0  0  0
  144.3967  133.0269  149.4632 H   0  0  0  0  0  0  0  0  0  0  0  0
  146.4713  132.2946  151.3827 H   0  0  0  0  0  0  0  0  0  0  0  0
  146.6548  133.1380  149.8418 H   0  0  0  0  0  0  0  0  0  0  0  0
  150.7749  138.3868  154.1223 H   0  0  0  0  0  0  0  0  0  0  0  0
  1  2  1  0  0  0  0
  1 20  1  0  0  0  0
  1 21  1  0  0  0  0
  1 22  1  0  0  0  0
  2  3  1  0  0  0  0
  2 23  1  0  0  0  0
  2 24  1  0  0  0  0
  3  4  1  0  0  0  0
  4 19  1  0  0  0  0
  4  5  2  0  0  0  0
  5  6  1  0  0  0  0
  5 25  1  0  0  0  0
  6  7  2  0  0  0  0
  6 26  1  0  0  0  0
  7  8  1  0  0  0  0
  7 18  1  0  0  0  0
  8  9  1  0  0  0  0
  8 27  1  0  0  0  0
  9 10  2  0  0  0  0
  9 11  1  0  0  0  0
 11 12  1  0  0  0  0
 11 28  1  0  0  0  0
 12 13  1  0  0  0  0
 12 29  1  0  0  0  0
 12 30  1  0  0  0  0
 13 17  1  0  0  0  0
 13 14  1  0  0  0  0
 13 31  1  0  0  0  0
 14 15  1  0  0  0  0
 14 32  1  0  0  0  0
 14 33  1  0  0  0  0
 15 16  1  0  0  0  0
 15 34  1  0  0  0  0
 15 35  1  0  0  0  0
 16 17  1  0  0  0  0
 16 36  1  0  0  0  0
 16 37  1  0  0  0  0
 18 19  2  0  0  0  0
 18 38  1  0  0  0  0
M  END
> <s_m_source_file>
AV-unprocessed.smi

> <i_m_source_file_index>
1063

> <i_lp_mmshare_version>
43012

> <i_f3d_flags>
0

> <s_epik_input>
W0NIM11bQ0gyXVNjMVtjSF1bY0hdYyhbY0hdbjEpW05IXUMoPU8pW05IXVtDSDJdW0NAQEhdMltDSDJdW0NIMl1bQ0gyXU8y

> <s_epik_cmdline>
J2VwaWtfcHl0aG9uJywgJy1waCcsICc3LjAnLCAnLXRuJywgJzgnLCAnLW1hJywgJzIwMCcsICctbWV0YWxfYmluZGluZycsICctaW1hZScsICc8aW5maWxlLm1hZT4nLCAnLW9tYWUnLCAnPG91dGZpbGUubWFlPic=

> <r_lp_tautomer_probability>
1

> <r_epik_Ionization_Penalty>
0.000426617

> <r_epik_Ionization_Penalty_Charging>
0

> <r_epik_Ionization_Penalty_Neutral>
0.000426617

> <r_epik_State_Penalty>
0.000241115

> <r_epik_Charging_Adjusted_Penalty>
0.000241115

> <i_epik_Tot_Q>
0

> <i_epik_Tot_abs_Q>
0

> <r_epik_Metal_State_Penalty>
-0

> <b_epik_Metal_Only>
0

> <s_lp_Force_Field>
OPLS_2005

> <r_lp_Energy>
19.2569

> <b_lp_Chiralities_Consistent>
1

> <s_lp_Variant>
AV-unprocessed.smi:1063-1

> <Gold.Version>
5.8.1

> <Gold.Id.Protein>
6NUR|6NUR_protein|mol2

> <Gold.PLP.Fitness>
42.4067

> <Gold.PLP.PLP>
-35.1613

> <Gold.PLP.part.hbond>
-3.7721

> <Gold.PLP.part.metal>
0.0000

> <Gold.PLP.part.buried>
-5.2617

> <Gold.PLP.part.nonpolar>
-28.5130

> <Gold.PLP.part.repulsive>
0.7158

> <Gold.PLP.ligand.clash>
0.0000

> <Gold.PLP.ligand.torsion>
0.2333

> <Gold.PLP.Chemscore.Hbond>
2.5500

> <Gold.PLP.Chemscore.CHOScore>
0.0000

> <Gold.PLP.Chemscore.Metal>
0.0000

> <Gold.Chemscore.Hbonds>
donor molecule, donor type, donor heavy atom, donor atom, acceptor molecule, acceptor atom, score
      L1  H     8    27       P1  7948  1.00
      L1  H    11    28       P1  7948  1.00
      P1  H  7989  7998       L1    19  0.55

> <Gold.PLP.Chemscore.Internal.Correction>
0.0619

> <Gold.Rescore>
     Score         DG    S(hbond)    S(metal)    S(lipo)     H(rot)  DE(clash)    DE(int)     intcor
     17.04     -18.77       1.94        0.00      90.33       1.47       0.20       1.53       ----

> <Gold.Chemscore.Fitness>
17.0365

> <Gold.Chemscore.DG>
-18.7662

> <Gold.Chemscore.ZeroCoef>
-5.4800

> <Gold.Chemscore.Hbond>
1.9389

> <Gold.Chemscore.Metal>
0.0000

> <Gold.Chemscore.Lipo>
90.3319

> <Gold.Chemscore.Internal_Hbond>
0.0000

> <Gold.Chemscore.DEClash>
0.2031

> <Gold.Chemscore.DEInternal>
1.5267

> <Gold.Chemscore.Rot>
1.4681

> <Gold.Chemscore.Internal.Correction>
   9.000000E+99

> <Gold.Chemscore.Hbonds>
donor molecule, donor type, donor heavy atom, donor atom, acceptor molecule, acceptor atom, score
      L1  H     8    27       P1  7948  0.98
      L1  H    11    28       P1  7948  0.97
      P1  H  7989  7998       L1    19  0.01

> <Gold.Chemscore.Hbond.Weighted>
-6.4758

> <Gold.Chemscore.Metal.Weighted>
-0.0000

> <Gold.Chemscore.Lipo.Weighted>
-10.5688

> <Gold.Chemscore.Internal_Hbond.Weighted>
0.0000

> <Gold.Chemscore.DEClash.Weighted>
0.2031

> <Gold.Chemscore.DEInternal.Weighted>
1.5267

> <Gold.Chemscore.Rot.Weighted>
3.7584

> <Gold.Chemscore.Internal.Correction.Weighted>
   9.000000E+99

> <Gold.Protein.RotatedTorsions>
[ 6907 6896 6895 6894 ] final  -49.39 input  -60.11 | X-H torsion
[ 7974 7965 7964 7962 ] final  144.69 input  175.53 | X-H torsion
[ 8008 7997 7996 7995 ] final    4.42 input   59.86 | X-H torsion
[ 10167 10162 10161 10158 ] final   98.48 input  -65.29 | X-H torsion
[ 10718 10713 10712 10709 ] final   86.18 input   66.30 | X-H torsion
[ 10763 10752 10751 10750 ] final  -66.69 input  -60.55 | X-H torsion
[ 11005 11000 10999 10996 ] final  -25.34 input  -57.11 | X-H torsion

> <Gold.Protein.ActiveResidues>
 VAL166  LYS551  ARG553  GLY616  TRP617  ASP618  TYR619  PRO620  LYS621  CYS622 
 ASP623  PHE694  ASN695  SER759  ASP760  ASP761  ALA762  ILE779  LEU786  VAL792 
 PHE793  MET794  SER795  GLU796  ALA797  LYS798  CYS799  TRP800  GLU811  SER814 

> <Gold.Protein.RotatedAtoms>
  150.8810  134.8200  159.7224 H   0  0  0  0  0  0  0  0  0  0  0  0  # atno 6907 bound_to 6896
  152.4777  134.4797  159.9671 H   0  0  0  0  0  0  0  0  0  0  0  0  # atno 6908 bound_to 6896
  151.4872  133.3494  159.2883 H   0  0  0  0  0  0  0  0  0  0  0  0  # atno 6909 bound_to 6896
  144.8814  139.5693  143.5841 H   0  0  0  0  0  0  0  0  0  0  0  0  # atno 7974 bound_to 7965
  154.7157  140.2701  155.6588 H   0  0  0  0  0  0  0  0  0  0  0  0  # atno 8008 bound_to 7997
  156.2809  140.2744  156.1737 H   0  0  0  0  0  0  0  0  0  0  0  0  # atno 8009 bound_to 7997
  155.0575  140.0371  157.2555 H   0  0  0  0  0  0  0  0  0  0  0  0  # atno 8010 bound_to 7997
  139.7705  144.6924  151.0163 H   0  0  0  0  0  0  0  0  0  0  0  0  # atno 10167 bound_to 10162
  157.6925  131.0205  150.2934 H   0  0  0  0  0  0  0  0  0  0  0  0  # atno 10718 bound_to 10713
  154.3636  135.6110  153.5703 H   0  0  0  0  0  0  0  0  0  0  0  0  # atno 10763 bound_to 10752
  152.9792  135.5821  154.4604 H   0  0  0  0  0  0  0  0  0  0  0  0  # atno 10764 bound_to 10752
  154.4346  135.2848  155.1866 H   0  0  0  0  0  0  0  0  0  0  0  0  # atno 10765 bound_to 10752
  140.8929  133.7576  156.0444 H   0  0  0  0  0  0  0  0  0  0  0  0  # atno 11005 bound_to 11000
  146.2997  139.7387  142.9100 LP  0  0  0  0  0  0  0  0  0  0  0  0  # atno 17320 bound_to 7965
  145.3947  141.0377  143.3104 LP  0  0  0  0  0  0  0  0  0  0  0  0  # atno 17321 bound_to 7965
  140.7813  143.4594  151.0299 LP  0  0  0  0  0  0  0  0  0  0  0  0  # atno 17342 bound_to 10162
  139.8278  143.7732  152.3179 LP  0  0  0  0  0  0  0  0  0  0  0  0  # atno 17343 bound_to 10162
  156.3461  130.3823  149.7368 LP  0  0  0  0  0  0  0  0  0  0  0  0  # atno 17370 bound_to 10713
  156.4861  130.8063  151.3075 LP  0  0  0  0  0  0  0  0  0  0  0  0  # atno 17371 bound_to 10713
  140.8325  134.3162  157.5343 LP  0  0  0  0  0  0  0  0  0  0  0  0  # atno 17394 bound_to 11000
  139.8732  134.9371  156.3678 LP  0  0  0  0  0  0  0  0  0  0  0  0  # atno 17395 bound_to 11000

$$$$
