AV-unprocessed.smi:1033|AV-procd|sdf|4499|dock2
  -GOLD-   22720 2493D 1   1.00000     0.00000
 Structure written by MMmdl.
 57 59  0  0  0  0  0  0  0  0  3 V2000
  152.2892  144.0218  160.0538 C   0  0  0  0  0  0  0  0  0  0  0  0
  152.0733  142.9460  159.0029 C   0  0  0  0  0  0  0  0  0  0  0  0
  151.1800  143.2106  157.9408 C   0  0  0  0  0  0  0  0  0  0  0  0
  150.9940  142.2027  157.0026 C   0  0  0  0  0  0  0  0  0  0  0  0
  150.1858  142.1522  155.8656 N   0  3  0  0  0  0  0  0  0  0  0  0
  150.3270  140.9410  155.2604 C   0  0  0  0  0  0  0  0  0  0  0  0
  151.2075  140.2119  155.9995 N   0  0  0  0  0  0  0  0  0  0  0  0
  151.6920  138.8401  155.7825 C   0  0  0  0  0  0  0  0  0  0  0  0
  150.9147  138.0860  154.6804 C   0  0  1  0  0  0  0  0  0  0  0  0
  151.8413  137.2774  153.9878 O   0  0  0  0  0  0  0  0  0  0  0  0
  149.7779  137.1665  155.1854 C   0  0  0  0  0  0  0  0  0  0  0  0
  148.5068  137.3298  154.4372 N   0  3  0  0  0  0  0  0  0  0  0  0
  148.1907  138.7479  154.1359 C   0  0  0  0  0  0  0  0  0  0  0  0
  146.9449  138.8224  153.2319 C   0  0  0  0  0  0  0  0  0  0  0  0
  145.7625  138.1974  153.8258 N   0  0  0  0  0  0  0  0  0  0  0  0
  145.2166  138.9787  154.9469 C   0  0  0  0  0  0  0  0  0  0  0  0
  143.7867  138.6235  155.4136 C   0  0  2  0  0  0  0  0  0  0  0  0
  143.5690  137.2110  155.9727 C   0  0  0  0  0  0  0  0  0  0  0  0
  142.8718  138.8725  154.3673 O   0  0  0  0  0  0  0  0  0  0  0  0
  146.0977  136.8052  154.1503 C   0  0  0  0  0  0  0  0  0  0  0  0
  147.3372  136.6570  155.0583 C   0  0  0  0  0  0  0  0  0  0  0  0
  151.6649  140.9666  157.0880 C   0  0  0  0  0  0  0  0  0  0  0  0
  152.5582  140.6951  158.1224 C   0  0  0  0  0  0  0  0  0  0  0  0
  152.7537  141.7043  159.0920 C   0  0  0  0  0  0  0  0  0  0  0  0
  153.7074  141.4282  160.2418 C   0  0  0  0  0  0  0  0  0  0  0  0
  151.6771  144.9021  159.8556 H   0  0  0  0  0  0  0  0  0  0  0  0
  153.3324  144.3383  160.0693 H   0  0  0  0  0  0  0  0  0  0  0  0
  152.0248  143.6491  161.0437 H   0  0  0  0  0  0  0  0  0  0  0  0
  150.6600  144.1549  157.8661 H   0  0  0  0  0  0  0  0  0  0  0  0
  149.8257  140.6153  154.3597 H   0  0  0  0  0  0  0  0  0  0  0  0
  152.7409  138.9292  155.4948 H   0  0  0  0  0  0  0  0  0  0  0  0
  151.6859  138.2889  156.7223 H   0  0  0  0  0  0  0  0  0  0  0  0
  150.5346  138.7993  153.9499 H   0  0  0  0  0  0  0  0  0  0  0  0
  151.4892  137.0661  153.1364 H   0  0  0  0  0  0  0  0  0  0  0  0
  150.0803  136.1194  155.1318 H   0  0  0  0  0  0  0  0  0  0  0  0
  149.6064  137.3809  156.2414 H   0  0  0  0  0  0  0  0  0  0  0  0
  148.0382  139.3038  155.0624 H   0  0  0  0  0  0  0  0  0  0  0  0
  149.0332  139.2121  153.6220 H   0  0  0  0  0  0  0  0  0  0  0  0
  146.7300  139.8617  152.9800 H   0  0  0  0  0  0  0  0  0  0  0  0
  147.1671  138.3323  152.2832 H   0  0  0  0  0  0  0  0  0  0  0  0
  145.8936  138.9479  155.7996 H   0  0  0  0  0  0  0  0  0  0  0  0
  145.1840  140.0302  154.6565 H   0  0  0  0  0  0  0  0  0  0  0  0
  143.5342  139.3234  156.2108 H   0  0  0  0  0  0  0  0  0  0  0  0
  144.3200  136.9622  156.7227 H   0  0  0  0  0  0  0  0  0  0  0  0
  143.5962  136.4546  155.1890 H   0  0  0  0  0  0  0  0  0  0  0  0
  142.5915  137.1352  156.4501 H   0  0  0  0  0  0  0  0  0  0  0  0
  143.2800  139.4520  153.7423 H   0  0  0  0  0  0  0  0  0  0  0  0
  145.2563  136.2951  154.6100 H   0  0  0  0  0  0  0  0  0  0  0  0
  146.2856  136.2667  153.2204 H   0  0  0  0  0  0  0  0  0  0  0  0
  147.5418  135.5961  155.1940 H   0  0  0  0  0  0  0  0  0  0  0  0
  147.1526  137.0666  156.0517 H   0  0  0  0  0  0  0  0  0  0  0  0
  153.0767  139.7511  158.1991 H   0  0  0  0  0  0  0  0  0  0  0  0
  154.1698  140.4451  160.1508 H   0  0  0  0  0  0  0  0  0  0  0  0
  153.1772  141.4601  161.1939 H   0  0  0  0  0  0  0  0  0  0  0  0
  154.5063  142.1698  160.2647 H   0  0  0  0  0  0  0  0  0  0  0  0
  148.6524  136.8850  153.5425 H   0  0  0  0  0  0  0  0  0  0  0  0
  149.5847  142.8911  155.5222 H   0  0  0  0  0  0  0  0  0  0  0  0
  1  2  1  0  0  0  0
  1 26  1  0  0  0  0
  1 27  1  0  0  0  0
  1 28  1  0  0  0  0
  2 24  1  0  0  0  0
  2  3  2  0  0  0  0
  3  4  1  0  0  0  0
  3 29  1  0  0  0  0
  4 22  2  0  0  0  0
  4  5  1  0  0  0  0
  5  6  2  0  0  0  0
  5 57  1  0  0  0  0
  6  7  1  0  0  0  0
  6 30  1  0  0  0  0
  7  8  1  0  0  0  0
  7 22  1  0  0  0  0
  8  9  1  0  0  0  0
  8 31  1  0  0  0  0
  8 32  1  0  0  0  0
  9 10  1  0  0  0  0
  9 11  1  0  0  0  0
  9 33  1  0  0  0  0
 10 34  1  0  0  0  0
 11 12  1  0  0  0  0
 11 35  1  0  0  0  0
 11 36  1  0  0  0  0
 12 21  1  0  0  0  0
 12 13  1  0  0  0  0
 12 56  1  0  0  0  0
 13 14  1  0  0  0  0
 13 37  1  0  0  0  0
 13 38  1  0  0  0  0
 14 15  1  0  0  0  0
 14 39  1  0  0  0  0
 14 40  1  0  0  0  0
 15 16  1  0  0  0  0
 15 20  1  0  0  0  0
 16 17  1  0  0  0  0
 16 41  1  0  0  0  0
 16 42  1  0  0  0  0
 17 18  1  0  0  0  0
 17 19  1  0  0  0  0
 17 43  1  0  0  0  0
 18 44  1  0  0  0  0
 18 45  1  0  0  0  0
 18 46  1  0  0  0  0
 19 47  1  0  0  0  0
 20 21  1  0  0  0  0
 20 48  1  0  0  0  0
 20 49  1  0  0  0  0
 21 50  1  0  0  0  0
 21 51  1  0  0  0  0
 22 23  1  0  0  0  0
 23 24  2  0  0  0  0
 23 52  1  0  0  0  0
 24 25  1  0  0  0  0
 25 53  1  0  0  0  0
 25 54  1  0  0  0  0
 25 55  1  0  0  0  0
M  CHG  1   5   1
M  CHG  1  12   1
M  END
> <s_m_source_file>
AV-unprocessed.smi

> <i_m_source_file_index>
1033

> <i_lp_mmshare_version>
43012

> <i_f3d_flags>
0

> <s_epik_input>
W0NIM11jKFtjSF0xKWMoW0NIM10pW2NIXWMoYzEyKW4oW2NIXW4yKVtDSDJdW0NASF0oW09IXSlbQ0gyXU4zW0NIMl1bQ0gyXU4oW0NIMl1bQ0gyXTMpW0NIMl1bQ0BIXShbQ0gzXSlbT0hd

> <s_epik_cmdline>
J2VwaWtfcHl0aG9uJywgJy1waCcsICc3LjAnLCAnLXRuJywgJzgnLCAnLW1hJywgJzIwMCcsICctbWV0YWxfYmluZGluZycsICctaW1hZScsICc8aW5maWxlLm1hZT4nLCAnLW9tYWUnLCAnPG91dGZpbGUubWFlPic=

> <r_epik_Ionization_Penalty>
1.22049

> <r_epik_Ionization_Penalty_Charging>
1.17952

> <r_epik_Ionization_Penalty_Neutral>
0.0409743

> <r_epik_State_Penalty>
1.61468

> <r_epik_Charging_Adjusted_Penalty>
2.7942

> <i_epik_Tot_Q>
2

> <i_epik_Tot_abs_Q>
2

> <r_epik_Metal_State_Penalty>
5.63169

> <b_epik_Metal_Only>
0

> <s_lp_Force_Field>
OPLS_2005

> <r_lp_Energy>
50.4079

> <b_lp_Chiralities_Consistent>
1

> <s_lp_Variant>
AV-unprocessed.smi:1033-10

> <Gold.Version>
5.8.1

> <Gold.Id.Protein>
6NUR|6NUR_protein|mol2

> <Gold.PLP.Fitness>
60.3308

> <Gold.PLP.PLP>
-42.0445

> <Gold.PLP.part.hbond>
-5.0000

> <Gold.PLP.part.metal>
0.0000

> <Gold.PLP.part.buried>
-4.9771

> <Gold.PLP.part.nonpolar>
-33.1945

> <Gold.PLP.part.repulsive>
0.2878

> <Gold.PLP.ligand.clash>
0.0000

> <Gold.PLP.ligand.torsion>
1.4601

> <Gold.PLP.Chemscore.Hbond>
6.9760

> <Gold.PLP.Chemscore.CHOScore>
0.0000

> <Gold.PLP.Chemscore.Metal>
0.0000

> <Gold.Chemscore.Hbonds>
donor molecule, donor type, donor heavy atom, donor atom, acceptor molecule, acceptor atom, score
      L1  H     5    57       P1  8028  2.00
      L1  H    10    34       P1  7949  1.00
      L1  H    12    56       P1  7948  2.00
      L1  H    19    47       P1 10175  1.00
      P1  H 10752 10765       L1    10  1.00

> <Gold.PLP.Chemscore.Internal.Correction>
0.2785

> <Gold.Rescore>
     Score         DG    S(hbond)    S(metal)    S(lipo)     H(rot)  DE(clash)    DE(int)     intcor
     22.75     -24.24       4.30        0.00     106.35       3.15       0.03       1.46       ----

> <Gold.Chemscore.Fitness>
22.7539

> <Gold.Chemscore.DG>
-24.2391

> <Gold.Chemscore.ZeroCoef>
-5.4800

> <Gold.Chemscore.Hbond>
4.3042

> <Gold.Chemscore.Metal>
0.0000

> <Gold.Chemscore.Lipo>
106.3485

> <Gold.Chemscore.Internal_Hbond>
0.0000

> <Gold.Chemscore.DEClash>
0.0272

> <Gold.Chemscore.DEInternal>
1.4580

> <Gold.Chemscore.Rot>
3.1483

> <Gold.Chemscore.Internal.Correction>
   9.000000E+99

> <Gold.Chemscore.Hbonds>
donor molecule, donor type, donor heavy atom, donor atom, acceptor molecule, acceptor atom, score
      L1  H     5    57       P1  8028  0.94
      L1  H    10    34       P1  7949  0.85
      L1  H    12    56       P1  7948  1.00
      L1  H    19    47       P1 10175  1.00
      P1  H 10752 10765       L1    10  0.24

> <Gold.Chemscore.Hbond.Weighted>
-14.3760

> <Gold.Chemscore.Metal.Weighted>
-0.0000

> <Gold.Chemscore.Lipo.Weighted>
-12.4428

> <Gold.Chemscore.Internal_Hbond.Weighted>
0.0000

> <Gold.Chemscore.DEClash.Weighted>
0.0272

> <Gold.Chemscore.DEInternal.Weighted>
1.4580

> <Gold.Chemscore.Rot.Weighted>
8.0597

> <Gold.Chemscore.Internal.Correction.Weighted>
   9.000000E+99

> <Gold.Protein.RotatedTorsions>
[ 6907 6896 6895 6894 ] final   78.06 input  -60.11 | X-H torsion
[ 7974 7965 7964 7962 ] final    3.03 input  175.53 | X-H torsion
[ 8008 7997 7996 7995 ] final -159.38 input   59.86 | X-H torsion
[ 10167 10162 10161 10158 ] final   61.90 input  -65.29 | X-H torsion
[ 10718 10713 10712 10709 ] final   -0.62 input   66.30 | X-H torsion
[ 10763 10752 10751 10750 ] final  162.87 input  -60.55 | X-H torsion
[ 11005 11000 10999 10996 ] final -120.83 input  -57.11 | X-H torsion

> <Gold.Protein.ActiveResidues>
 VAL166  LYS551  ARG553  GLY616  TRP617  ASP618  TYR619  PRO620  LYS621  CYS622 
 ASP623  PHE694  ASN695  SER759  ASP760  ASP761  ALA762  ILE779  LEU786  VAL792 
 PHE793  MET794  SER795  GLU796  ALA797  LYS798  CYS799  TRP800  GLU811  SER814 

> <Gold.Protein.RotatedAtoms>
  152.5144  134.3722  159.9321 H   0  0  0  0  0  0  0  0  0  0  0  0  # atno 6907 bound_to 6896
  151.3677  133.3860  159.2704 H   0  0  0  0  0  0  0  0  0  0  0  0  # atno 6908 bound_to 6896
  150.9602  134.9010  159.7784 H   0  0  0  0  0  0  0  0  0  0  0  0  # atno 6909 bound_to 6896
  146.2445  140.0746  142.8360 H   0  0  0  0  0  0  0  0  0  0  0  0  # atno 7974 bound_to 7965
  155.7617  140.0840  157.2152 H   0  0  0  0  0  0  0  0  0  0  0  0  # atno 8008 bound_to 7997
  154.4003  140.1541  156.2897 H   0  0  0  0  0  0  0  0  0  0  0  0  # atno 8009 bound_to 7997
  155.8833  140.3419  155.5906 H   0  0  0  0  0  0  0  0  0  0  0  0  # atno 8010 bound_to 7997
  140.1497  144.4474  150.6766 H   0  0  0  0  0  0  0  0  0  0  0  0  # atno 10167 bound_to 10162
  156.8178  130.5446  149.5701 H   0  0  0  0  0  0  0  0  0  0  0  0  # atno 10718 bound_to 10713
  154.2851  135.2762  155.2680 H   0  0  0  0  0  0  0  0  0  0  0  0  # atno 10763 bound_to 10752
  154.5184  135.5763  153.6664 H   0  0  0  0  0  0  0  0  0  0  0  0  # atno 10764 bound_to 10752
  152.9923  135.6198  154.3012 H   0  0  0  0  0  0  0  0  0  0  0  0  # atno 10765 bound_to 10752
  141.0115  134.0258  157.3407 H   0  0  0  0  0  0  0  0  0  0  0  0  # atno 11005 bound_to 11000
  145.0786  140.9205  143.4839 LP  0  0  0  0  0  0  0  0  0  0  0  0  # atno 17320 bound_to 7965
  145.0894  139.2901  143.5742 LP  0  0  0  0  0  0  0  0  0  0  0  0  # atno 17321 bound_to 7965
  140.6710  143.2286  151.5625 LP  0  0  0  0  0  0  0  0  0  0  0  0  # atno 17342 bound_to 10162
  139.5432  144.2592  152.1391 LP  0  0  0  0  0  0  0  0  0  0  0  0  # atno 17343 bound_to 10162
  156.1006  130.5966  150.9888 LP  0  0  0  0  0  0  0  0  0  0  0  0  # atno 17370 bound_to 10713
  157.6473  131.0902  150.8127 LP  0  0  0  0  0  0  0  0  0  0  0  0  # atno 17371 bound_to 10713
  139.9092  135.0186  156.7621 LP  0  0  0  0  0  0  0  0  0  0  0  0  # atno 17394 bound_to 11000
  140.6726  133.9546  155.7865 LP  0  0  0  0  0  0  0  0  0  0  0  0  # atno 17395 bound_to 11000

$$$$
