AV-unprocessed.smi:1047|AV-procd|sdf|4596|dock3
  -GOLD-   22720 3 83D 1   1.00000     0.00000
 Structure written by MMmdl.
 57 59  0  0  0  0  0  0  0  0  3 V2000
  145.8070  135.7276  150.4810 C   0  0  0  0  0  0  0  0  0  0  0  0
  144.8191  136.8992  150.5751 C   0  0  0  0  0  0  0  0  0  0  0  0
  145.1996  137.8866  151.6161 N   0  3  1  0  0  0  0  0  0  0  0  0
  144.8922  137.4061  152.9839 C   0  0  0  0  0  0  0  0  0  0  0  0
  145.2581  138.4758  154.0251 C   0  0  0  0  0  0  0  0  0  0  0  0
  146.6309  138.8180  153.8877 O   0  0  0  0  0  0  0  0  0  0  0  0
  146.9222  139.3815  152.6127 C   0  0  1  0  0  0  0  0  0  0  0  0
  148.4019  139.7920  152.6015 C   0  0  0  0  0  0  0  0  0  0  0  0
  149.2632  138.6627  152.9354 N   0  0  0  0  0  0  0  0  0  0  0  0
  149.7557  138.6971  154.3107 C   0  0  0  0  0  0  0  0  0  0  0  0
  151.2934  138.6777  154.3791 C   0  0  2  0  0  0  0  0  0  0  0  0
  151.7650  137.3860  154.0497 O   0  0  0  0  0  0  0  0  0  0  0  0
  151.8729  139.1574  155.7265 C   0  0  0  0  0  0  0  0  0  0  0  0
  151.3651  140.4773  156.1226 N   0  0  0  0  0  0  0  0  0  0  0  0
  150.5757  141.3521  155.4418 C   0  0  0  0  0  0  0  0  0  0  0  0
  150.3822  142.4374  156.2414 N   0  3  0  0  0  0  0  0  0  0  0  0
  151.0606  142.2541  157.4486 C   0  0  0  0  0  0  0  0  0  0  0  0
  151.1646  143.0701  158.5688 C   0  0  0  0  0  0  0  0  0  0  0  0
  151.9420  142.5894  159.6468 C   0  0  0  0  0  0  0  0  0  0  0  0
  152.0790  143.4577  160.8859 C   0  0  0  0  0  0  0  0  0  0  0  0
  152.5830  141.3250  159.5785 C   0  0  0  0  0  0  0  0  0  0  0  0
  153.4163  140.8185  160.7435 C   0  0  0  0  0  0  0  0  0  0  0  0
  152.4645  140.5096  158.4303 C   0  0  0  0  0  0  0  0  0  0  0  0
  151.6955  140.9991  157.3775 C   0  0  0  0  0  0  0  0  0  0  0  0
  146.6146  138.3270  151.5308 C   0  0  0  0  0  0  0  0  0  0  0  0
  145.5497  135.0781  149.6441 H   0  0  0  0  0  0  0  0  0  0  0  0
  145.7994  135.1115  151.3797 H   0  0  0  0  0  0  0  0  0  0  0  0
  146.8258  136.0825  150.3217 H   0  0  0  0  0  0  0  0  0  0  0  0
  144.8001  137.3976  149.6048 H   0  0  0  0  0  0  0  0  0  0  0  0
  143.8064  136.5353  150.7552 H   0  0  0  0  0  0  0  0  0  0  0  0
  143.8319  137.1641  153.0649 H   0  0  0  0  0  0  0  0  0  0  0  0
  145.4477  136.4877  153.1820 H   0  0  0  0  0  0  0  0  0  0  0  0
  144.6337  139.3635  153.9118 H   0  0  0  0  0  0  0  0  0  0  0  0
  145.0887  138.0937  155.0319 H   0  0  0  0  0  0  0  0  0  0  0  0
  146.3002  140.2633  152.4447 H   0  0  0  0  0  0  0  0  0  0  0  0
  148.6648  140.1987  151.6239 H   0  0  0  0  0  0  0  0  0  0  0  0
  148.5627  140.5913  153.3260 H   0  0  0  0  0  0  0  0  0  0  0  0
  150.0536  138.6379  152.2982 H   0  0  0  0  0  0  0  0  0  0  0  0
  149.3829  139.5866  154.8206 H   0  0  0  0  0  0  0  0  0  0  0  0
  149.3625  137.8411  154.8602 H   0  0  0  0  0  0  0  0  0  0  0  0
  151.6576  139.3404  153.5935 H   0  0  0  0  0  0  0  0  0  0  0  0
  151.5222  137.1980  153.1562 H   0  0  0  0  0  0  0  0  0  0  0  0
  151.6498  138.4468  156.5233 H   0  0  0  0  0  0  0  0  0  0  0  0
  152.9598  139.2333  155.6747 H   0  0  0  0  0  0  0  0  0  0  0  0
  150.1728  141.2096  154.4493 H   0  0  0  0  0  0  0  0  0  0  0  0
  150.6731  144.0311  158.6140 H   0  0  0  0  0  0  0  0  0  0  0  0
  153.1275  143.6828  161.0824 H   0  0  0  0  0  0  0  0  0  0  0  0
  151.6640  142.9503  161.7570 H   0  0  0  0  0  0  0  0  0  0  0  0
  151.5519  144.4053  160.7697 H   0  0  0  0  0  0  0  0  0  0  0  0
  153.8119  139.8215  160.5478 H   0  0  0  0  0  0  0  0  0  0  0  0
  152.8156  140.7652  161.6516 H   0  0  0  0  0  0  0  0  0  0  0  0
  154.2614  141.4828  160.9248 H   0  0  0  0  0  0  0  0  0  0  0  0
  152.9522  139.5474  158.3768 H   0  0  0  0  0  0  0  0  0  0  0  0
  147.2727  137.4645  151.6490 H   0  0  0  0  0  0  0  0  0  0  0  0
  146.8181  138.7515  150.5483 H   0  0  0  0  0  0  0  0  0  0  0  0
  144.6250  138.7038  151.4660 H   0  0  0  0  0  0  0  0  0  0  0  0
  149.8284  143.2429  155.9791 H   0  0  0  0  0  0  0  0  0  0  0  0
  1  2  1  0  0  0  0
  1 26  1  0  0  0  0
  1 27  1  0  0  0  0
  1 28  1  0  0  0  0
  2  3  1  0  0  0  0
  2 29  1  0  0  0  0
  2 30  1  0  0  0  0
  3 25  1  0  0  0  0
  3  4  1  0  0  0  0
  3 56  1  0  0  0  0
  4  5  1  0  0  0  0
  4 31  1  0  0  0  0
  4 32  1  0  0  0  0
  5  6  1  0  0  0  0
  5 33  1  0  0  0  0
  5 34  1  0  0  0  0
  6  7  1  0  0  0  0
  7  8  1  0  0  0  0
  7 25  1  0  0  0  0
  7 35  1  0  0  0  0
  8  9  1  0  0  0  0
  8 36  1  0  0  0  0
  8 37  1  0  0  0  0
  9 10  1  0  0  0  0
  9 38  1  0  0  0  0
 10 11  1  0  0  0  0
 10 39  1  0  0  0  0
 10 40  1  0  0  0  0
 11 12  1  0  0  0  0
 11 13  1  0  0  0  0
 11 41  1  0  0  0  0
 12 42  1  0  0  0  0
 13 14  1  0  0  0  0
 13 43  1  0  0  0  0
 13 44  1  0  0  0  0
 14 24  1  0  0  0  0
 14 15  1  0  0  0  0
 15 16  2  0  0  0  0
 15 45  1  0  0  0  0
 16 17  1  0  0  0  0
 16 57  1  0  0  0  0
 17 24  2  0  0  0  0
 17 18  1  0  0  0  0
 18 19  2  0  0  0  0
 18 46  1  0  0  0  0
 19 20  1  0  0  0  0
 19 21  1  0  0  0  0
 20 47  1  0  0  0  0
 20 48  1  0  0  0  0
 20 49  1  0  0  0  0
 21 22  1  0  0  0  0
 21 23  2  0  0  0  0
 22 50  1  0  0  0  0
 22 51  1  0  0  0  0
 22 52  1  0  0  0  0
 23 24  1  0  0  0  0
 23 53  1  0  0  0  0
 25 54  1  0  0  0  0
 25 55  1  0  0  0  0
M  CHG  1   3   1
M  CHG  1  16   1
M  END
> <s_m_source_file>
AV-unprocessed.smi

> <i_m_source_file_index>
1047

> <i_lp_mmshare_version>
43012

> <i_f3d_flags>
0

> <s_epik_input>
W0NIM11bQ0gyXU4xW0NIMl1bQ0gyXU9bQ0BIXShbQ0gyXTEpW0NIMl1bTkhdW0NIMl1bQ0BIXShbT0hdKVtDSDJdbihbY0hdbjIpYyhjMjMpW2NIXWMoW0NIM10pYyhbY0hdMylbQ0gzXQ==

> <s_epik_cmdline>
J2VwaWtfcHl0aG9uJywgJy1waCcsICc3LjAnLCAnLXRuJywgJzgnLCAnLW1hJywgJzIwMCcsICctbWV0YWxfYmluZGluZycsICctaW1hZScsICc8aW5maWxlLm1hZT4nLCAnLW9tYWUnLCAnPG91dGZpbGUubWFlPic=

> <r_epik_Ionization_Penalty>
2.03028

> <r_epik_Ionization_Penalty_Charging>
1.21256

> <r_epik_Ionization_Penalty_Neutral>
0.817715

> <r_epik_State_Penalty>
2.54959

> <r_epik_Charging_Adjusted_Penalty>
3.76215

> <i_epik_Tot_Q>
2

> <i_epik_Tot_abs_Q>
2

> <r_epik_Metal_State_Penalty>
6.52811

> <b_epik_Metal_Only>
0

> <s_lp_Force_Field>
OPLS_2005

> <r_lp_Energy>
37.5009

> <b_lp_Chiralities_Consistent>
1

> <s_lp_Variant>
AV-unprocessed.smi:1047-37

> <Gold.Version>
5.8.1

> <Gold.Id.Protein>
6NUR|6NUR_protein|mol2

> <Gold.PLP.Fitness>
63.9760

> <Gold.PLP.PLP>
-47.7867

> <Gold.PLP.part.hbond>
-6.8944

> <Gold.PLP.part.metal>
0.0000

> <Gold.PLP.part.buried>
3.2701

> <Gold.PLP.part.nonpolar>
-44.8598

> <Gold.PLP.part.repulsive>
0.1969

> <Gold.PLP.ligand.clash>
0.0000

> <Gold.PLP.ligand.torsion>
0.9440

> <Gold.PLP.Chemscore.Hbond>
5.9450

> <Gold.PLP.Chemscore.CHOScore>
0.0000

> <Gold.PLP.Chemscore.Metal>
0.0000

> <Gold.Chemscore.Hbonds>
donor molecule, donor type, donor heavy atom, donor atom, acceptor molecule, acceptor atom, score
      L1  H     3    56       P1 10175  1.01
      L1  H     9    38       P1  7957  0.02
      L1  H    12    42       P1  7949  0.86
      L1  H    16    57       P1  8028  2.00
      P1  H 10752 10764       L1    12  0.65

> <Gold.PLP.Chemscore.Internal.Correction>
0.2422

> <Gold.Rescore>
     Score         DG    S(hbond)    S(metal)    S(lipo)     H(rot)  DE(clash)    DE(int)     intcor
     18.87     -24.41       3.16        0.00     130.89       2.71       3.57       1.97       ----

> <Gold.Chemscore.Fitness>
18.8720

> <Gold.Chemscore.DG>
-24.4080

> <Gold.Chemscore.ZeroCoef>
-5.4800

> <Gold.Chemscore.Hbond>
3.1583

> <Gold.Chemscore.Metal>
0.0000

> <Gold.Chemscore.Lipo>
130.8889

> <Gold.Chemscore.Internal_Hbond>
0.0000

> <Gold.Chemscore.DEClash>
3.5703

> <Gold.Chemscore.DEInternal>
1.9657

> <Gold.Chemscore.Rot>
2.7088

> <Gold.Chemscore.Internal.Correction>
   9.000000E+99

> <Gold.Chemscore.Hbonds>
donor molecule, donor type, donor heavy atom, donor atom, acceptor molecule, acceptor atom, score
      L1  H     3    56       P1 10175  0.48
      L1  H     9    38       P1  7957  0.01
      L1  H    12    42       P1  7949  0.75
      L1  H    16    57       P1  8028  1.00
      P1  H 10752 10764       L1    12  0.11

> <Gold.Chemscore.Hbond.Weighted>
-10.5487

> <Gold.Chemscore.Metal.Weighted>
-0.0000

> <Gold.Chemscore.Lipo.Weighted>
-15.3140

> <Gold.Chemscore.Internal_Hbond.Weighted>
0.0000

> <Gold.Chemscore.DEClash.Weighted>
3.5703

> <Gold.Chemscore.DEInternal.Weighted>
1.9657

> <Gold.Chemscore.Rot.Weighted>
6.9346

> <Gold.Chemscore.Internal.Correction.Weighted>
   9.000000E+99

> <Gold.Protein.RotatedTorsions>
[ 6907 6896 6895 6894 ] final  111.55 input  -60.11 | X-H torsion
[ 7974 7965 7964 7962 ] final -119.53 input  175.53 | X-H torsion
[ 8008 7997 7996 7995 ] final -112.05 input   59.86 | X-H torsion
[ 10167 10162 10161 10158 ] final  100.27 input  -65.29 | X-H torsion
[ 10718 10713 10712 10709 ] final   41.59 input   66.30 | X-H torsion
[ 10763 10752 10751 10750 ] final  -72.11 input  -60.55 | X-H torsion
[ 11005 11000 10999 10996 ] final  109.90 input  -57.11 | X-H torsion

> <Gold.Protein.ActiveResidues>
 VAL166  LYS551  ARG553  GLY616  TRP617  ASP618  TYR619  PRO620  LYS621  CYS622 
 ASP623  PHE694  ASN695  SER759  ASP760  ASP761  ALA762  ILE779  LEU786  VAL792 
 PHE793  MET794  SER795  GLU796  ALA797  LYS798  CYS799  TRP800  GLU811  SER814 

> <Gold.Protein.RotatedAtoms>
  152.4964  133.8642  159.7265 H   0  0  0  0  0  0  0  0  0  0  0  0  # atno 6907 bound_to 6896
  150.9146  133.6946  159.2853 H   0  0  0  0  0  0  0  0  0  0  0  0  # atno 6908 bound_to 6896
  151.4344  135.1017  159.9704 H   0  0  0  0  0  0  0  0  0  0  0  0  # atno 6909 bound_to 6896
  145.0615  140.8293  143.4150 H   0  0  0  0  0  0  0  0  0  0  0  0  # atno 7974 bound_to 7965
  154.9992  140.0394  157.2353 H   0  0  0  0  0  0  0  0  0  0  0  0  # atno 8008 bound_to 7997
  154.7559  140.2775  155.6231 H   0  0  0  0  0  0  0  0  0  0  0  0  # atno 8009 bound_to 7997
  156.2894  140.2638  156.2325 H   0  0  0  0  0  0  0  0  0  0  0  0  # atno 8010 bound_to 7997
  139.7542  144.6974  151.0387 H   0  0  0  0  0  0  0  0  0  0  0  0  # atno 10167 bound_to 10162
  157.3953  130.7829  149.7303 H   0  0  0  0  0  0  0  0  0  0  0  0  # atno 10718 bound_to 10713
  154.4411  135.5940  153.6130 H   0  0  0  0  0  0  0  0  0  0  0  0  # atno 10763 bound_to 10752
  152.9805  135.5998  154.3721 H   0  0  0  0  0  0  0  0  0  0  0  0  # atno 10764 bound_to 10752
  154.3571  135.2841  155.2319 H   0  0  0  0  0  0  0  0  0  0  0  0  # atno 10765 bound_to 10752
  139.8871  134.9470  156.6197 H   0  0  0  0  0  0  0  0  0  0  0  0  # atno 11005 bound_to 11000
  145.1403  139.2576  143.5493 LP  0  0  0  0  0  0  0  0  0  0  0  0  # atno 17320 bound_to 7965
  146.3524  140.1079  142.8605 LP  0  0  0  0  0  0  0  0  0  0  0  0  # atno 17321 bound_to 7965
  140.7801  143.4773  151.0065 LP  0  0  0  0  0  0  0  0  0  0  0  0  # atno 17342 bound_to 10162
  139.8460  143.7501  152.3179 LP  0  0  0  0  0  0  0  0  0  0  0  0  # atno 17343 bound_to 10162
  155.9809  130.4025  150.3504 LP  0  0  0  0  0  0  0  0  0  0  0  0  # atno 17370 bound_to 10713
  157.1625  131.0348  151.2834 LP  0  0  0  0  0  0  0  0  0  0  0  0  # atno 17371 bound_to 10713
  140.7749  133.8708  155.8521 LP  0  0  0  0  0  0  0  0  0  0  0  0  # atno 17394 bound_to 11000
  140.9810  134.1405  157.4494 LP  0  0  0  0  0  0  0  0  0  0  0  0  # atno 17395 bound_to 11000

$$$$
