AV-unprocessed.smi:164|AV-procd|sdf|1382|dock2
  -GOLD-   2262019113D 1   1.00000     0.00000
 Structure written by MMmdl.
 53 55  0  0  0  0  0  0  0  0  1 V2000
  152.0351  144.6942  158.6293 C   0  0  0  0  0  0  0  0  0  0  0  0
  152.4699  143.2822  158.9829 C   0  0  0  0  0  0  0  0  0  0  0  0
  153.4930  143.1018  159.9358 C   0  0  0  0  0  0  0  0  0  0  0  0
  153.9186  141.8090  160.2882 C   0  0  0  0  0  0  0  0  0  0  0  0
  153.3200  140.6800  159.6961 C   0  0  0  0  0  0  0  0  0  0  0  0
  153.7953  139.2927  160.0869 C   0  0  0  0  0  0  0  0  0  0  0  0
  152.2831  140.8502  158.7496 C   0  0  0  0  0  0  0  0  0  0  0  0
  151.6962  139.7487  158.1818 O   0  0  0  0  0  0  0  0  0  0  0  0
  150.3224  139.6043  158.5122 C   0  0  0  0  0  0  0  0  0  0  0  0
  149.8405  138.2202  158.0486 C   0  0  2  0  0  0  0  0  0  0  0  0
  149.9185  138.2082  156.6367 O   0  0  0  0  0  0  0  0  0  0  0  0
  148.3715  137.9590  158.4518 C   0  0  0  0  0  0  0  0  0  0  0  0
  148.1429  136.6086  158.9408 N   0  0  0  0  0  0  0  0  0  0  0  0
  148.1447  135.5575  157.9917 C   0  0  0  0  0  0  0  0  0  0  0  0
  148.3583  135.7562  156.7943 O   0  0  0  0  0  0  0  0  0  0  0  0
  147.8501  134.2420  158.5470 C   0  0  0  0  0  0  0  0  0  0  0  0
  147.7886  133.1760  157.7315 F   0  0  0  0  0  0  0  0  0  0  0  0
  147.6155  134.0778  159.8668 C   0  0  0  0  0  0  0  0  0  0  0  0
  147.6527  135.1197  160.7826 N   0  0  0  0  0  0  0  0  0  0  0  0
  147.2989  134.9363  162.2512 C   0  0  2  0  0  0  0  0  0  0  0  0
  147.0225  133.4831  162.6596 C   0  0  0  0  0  0  0  0  0  0  0  0
  145.4999  133.3855  162.6006 C   0  0  0  0  0  0  0  0  0  0  0  0
  145.0341  134.7825  162.1774 C   0  0  0  0  0  0  0  0  0  0  0  0
  146.1223  135.6331  162.5112 O   0  0  0  0  0  0  0  0  0  0  0  0
  147.8744  136.4366  160.3193 C   0  0  0  0  0  0  0  0  0  0  0  0
  147.8261  137.3945  161.0946 O   0  0  0  0  0  0  0  0  0  0  0  0
  151.8665  142.1525  158.3755 C   0  0  0  0  0  0  0  0  0  0  0  0
  150.7714  142.3315  157.3322 C   0  0  0  0  0  0  0  0  0  0  0  0
  152.4809  145.4272  159.3022 H   0  0  0  0  0  0  0  0  0  0  0  0
  150.9517  144.7945  158.7011 H   0  0  0  0  0  0  0  0  0  0  0  0
  152.3406  144.9423  157.6126 H   0  0  0  0  0  0  0  0  0  0  0  0
  153.9603  143.9573  160.4014 H   0  0  0  0  0  0  0  0  0  0  0  0
  154.7062  141.6876  161.0175 H   0  0  0  0  0  0  0  0  0  0  0  0
  153.8070  138.6257  159.2244 H   0  0  0  0  0  0  0  0  0  0  0  0
  153.1355  138.8670  160.8430 H   0  0  0  0  0  0  0  0  0  0  0  0
  154.8055  139.3254  160.4960 H   0  0  0  0  0  0  0  0  0  0  0  0
  150.2328  139.6844  159.5959 H   0  0  0  0  0  0  0  0  0  0  0  0
  149.7098  140.4009  158.0849 H   0  0  0  0  0  0  0  0  0  0  0  0
  150.4919  137.4509  158.4648 H   0  0  0  0  0  0  0  0  0  0  0  0
  149.6027  137.3734  156.3256 H   0  0  0  0  0  0  0  0  0  0  0  0
  148.0563  138.6271  159.2551 H   0  0  0  0  0  0  0  0  0  0  0  0
  147.6691  138.1695  157.6434 H   0  0  0  0  0  0  0  0  0  0  0  0
  147.3743  133.0797  160.1963 H   0  0  0  0  0  0  0  0  0  0  0  0
  148.1422  135.3504  162.8064 H   0  0  0  0  0  0  0  0  0  0  0  0
  147.5590  132.7612  162.0443 H   0  0  0  0  0  0  0  0  0  0  0  0
  147.3574  133.3503  163.6891 H   0  0  0  0  0  0  0  0  0  0  0  0
  145.1601  132.6218  161.9005 H   0  0  0  0  0  0  0  0  0  0  0  0
  145.1047  133.1328  163.5852 H   0  0  0  0  0  0  0  0  0  0  0  0
  144.8504  134.8233  161.1030 H   0  0  0  0  0  0  0  0  0  0  0  0
  144.1200  135.0908  162.6852 H   0  0  0  0  0  0  0  0  0  0  0  0
  150.6304  141.4356  156.7281 H   0  0  0  0  0  0  0  0  0  0  0  0
  151.0120  143.1411  156.6436 H   0  0  0  0  0  0  0  0  0  0  0  0
  149.8237  142.5627  157.8191 H   0  0  0  0  0  0  0  0  0  0  0  0
  1  2  1  0  0  0  0
  1 29  1  0  0  0  0
  1 30  1  0  0  0  0
  1 31  1  0  0  0  0
  2 27  1  0  0  0  0
  2  3  2  0  0  0  0
  3  4  1  0  0  0  0
  3 32  1  0  0  0  0
  4  5  2  0  0  0  0
  4 33  1  0  0  0  0
  5  6  1  0  0  0  0
  5  7  1  0  0  0  0
  6 34  1  0  0  0  0
  6 35  1  0  0  0  0
  6 36  1  0  0  0  0
  7  8  1  0  0  0  0
  7 27  2  0  0  0  0
  8  9  1  0  0  0  0
  9 10  1  0  0  0  0
  9 37  1  0  0  0  0
  9 38  1  0  0  0  0
 10 11  1  0  0  0  0
 10 12  1  0  0  0  0
 10 39  1  0  0  0  0
 11 40  1  0  0  0  0
 12 13  1  0  0  0  0
 12 41  1  0  0  0  0
 12 42  1  0  0  0  0
 13 25  1  0  0  0  0
 13 14  1  0  0  0  0
 14 15  2  0  0  0  0
 14 16  1  0  0  0  0
 16 17  1  0  0  0  0
 16 18  2  0  0  0  0
 18 19  1  0  0  0  0
 18 43  1  0  0  0  0
 19 20  1  0  0  0  0
 19 25  1  0  0  0  0
 20 24  1  0  0  0  0
 20 21  1  0  0  0  0
 20 44  1  0  0  0  0
 21 22  1  0  0  0  0
 21 45  1  0  0  0  0
 21 46  1  0  0  0  0
 22 23  1  0  0  0  0
 22 47  1  0  0  0  0
 22 48  1  0  0  0  0
 23 24  1  0  0  0  0
 23 49  1  0  0  0  0
 23 50  1  0  0  0  0
 25 26  2  0  0  0  0
 27 28  1  0  0  0  0
 28 51  1  0  0  0  0
 28 52  1  0  0  0  0
 28 53  1  0  0  0  0
M  END
> <s_m_source_file>
AV-unprocessed.smi

> <i_m_source_file_index>
164

> <i_lp_mmshare_version>
43012

> <i_f3d_flags>
0

> <s_epik_input>
W0NIM11jMVtjSF1bY0hdYyhbQ0gzXSljKGMxW0NIM10pT1tDSDJdW0NASF0oW09IXSlbQ0gyXW4yYyg9TyljKEYpW2NIXW4oYzI9TylbQ0BASF0zW0NIMl1bQ0gyXVtDSDJdTzM=

> <s_epik_cmdline>
J2VwaWtfcHl0aG9uJywgJy1waCcsICc3LjAnLCAnLXRuJywgJzgnLCAnLW1hJywgJzIwMCcsICctbWV0YWxfYmluZGluZycsICctaW1hZScsICc8aW5maWxlLm1hZT4nLCAnLW9tYWUnLCAnPG91dGZpbGUubWFlPic=

> <r_lp_tautomer_probability>
1

> <r_epik_Ionization_Penalty>
1.45842e-07

> <r_epik_Ionization_Penalty_Charging>
2.86622e-08

> <r_epik_Ionization_Penalty_Neutral>
1.1718e-07

> <r_epik_State_Penalty>
-0

> <r_epik_Charging_Adjusted_Penalty>
2.86622e-08

> <i_epik_Tot_Q>
0

> <i_epik_Tot_abs_Q>
0

> <r_epik_Metal_State_Penalty>
-0

> <b_epik_Metal_Only>
0

> <s_epik_Chemistry_Notes>
This compound contains an acetal/aminal-like group ( X-CH(R)-Y where X, Y are N, S, or O) that may be acid/base labile, releasing an aldehyde.

> <s_lp_Force_Field>
OPLS_2005

> <r_lp_Energy>
44.8383

> <b_lp_Chiralities_Consistent>
1

> <s_lp_Variant>
AV-unprocessed.smi:164-1

> <Gold.Version>
5.8.1

> <Gold.Id.Protein>
6NUR|6NUR_protein|mol2

> <Gold.PLP.Fitness>
54.0995

> <Gold.PLP.PLP>
-50.3354

> <Gold.PLP.part.hbond>
-2.0000

> <Gold.PLP.part.metal>
0.0000

> <Gold.PLP.part.buried>
-6.4512

> <Gold.PLP.part.nonpolar>
-42.1809

> <Gold.PLP.part.repulsive>
0.0019

> <Gold.PLP.ligand.clash>
0.0000

> <Gold.PLP.ligand.torsion>
0.8425

> <Gold.PLP.Chemscore.Hbond>
1.6960

> <Gold.PLP.Chemscore.CHOScore>
0.0000

> <Gold.PLP.Chemscore.Metal>
0.0000

> <Gold.Chemscore.Hbonds>
donor molecule, donor type, donor heavy atom, donor atom, acceptor molecule, acceptor atom, score
      P1  H  6931  6943       L1    26  0.85
      P1  H  6934  6947       L1    26  0.77

> <Gold.PLP.Chemscore.Internal.Correction>
0.3611

> <Gold.Rescore>
     Score         DG    S(hbond)    S(metal)    S(lipo)     H(rot)  DE(clash)    DE(int)     intcor
     15.67     -18.44       1.44        0.00     129.53       2.73       0.12       2.65       ----

> <Gold.Chemscore.Fitness>
15.6675

> <Gold.Chemscore.DG>
-18.4398

> <Gold.Chemscore.ZeroCoef>
-5.4800

> <Gold.Chemscore.Hbond>
1.4364

> <Gold.Chemscore.Metal>
0.0000

> <Gold.Chemscore.Lipo>
129.5293

> <Gold.Chemscore.Internal_Hbond>
0.0000

> <Gold.Chemscore.DEClash>
0.1236

> <Gold.Chemscore.DEInternal>
2.6488

> <Gold.Chemscore.Rot>
2.7315

> <Gold.Chemscore.Internal.Correction>
   9.000000E+99

> <Gold.Chemscore.Hbonds>
donor molecule, donor type, donor heavy atom, donor atom, acceptor molecule, acceptor atom, score
      P1  H  6931  6943       L1    26  0.83
      P1  H  6934  6947       L1    26  0.76

> <Gold.Chemscore.Hbond.Weighted>
-4.7974

> <Gold.Chemscore.Metal.Weighted>
-0.0000

> <Gold.Chemscore.Lipo.Weighted>
-15.1549

> <Gold.Chemscore.Internal_Hbond.Weighted>
0.0000

> <Gold.Chemscore.DEClash.Weighted>
0.1236

> <Gold.Chemscore.DEInternal.Weighted>
2.6488

> <Gold.Chemscore.Rot.Weighted>
6.9925

> <Gold.Chemscore.Internal.Correction.Weighted>
   9.000000E+99

> <Gold.Protein.RotatedTorsions>
[ 6907 6896 6895 6894 ] final  115.66 input  -60.11 | X-H torsion
[ 7974 7965 7964 7962 ] final  100.96 input  175.53 | X-H torsion
[ 8008 7997 7996 7995 ] final   28.83 input   59.86 | X-H torsion
[ 10167 10162 10161 10158 ] final  148.12 input  -65.29 | X-H torsion
[ 10718 10713 10712 10709 ] final -155.78 input   66.30 | X-H torsion
[ 10763 10752 10751 10750 ] final  -72.86 input  -60.55 | X-H torsion
[ 11005 11000 10999 10996 ] final -110.78 input  -57.11 | X-H torsion

> <Gold.Protein.ActiveResidues>
 VAL166  LYS551  ARG553  GLY616  TRP617  ASP618  TYR619  PRO620  LYS621  CYS622 
 ASP623  PHE694  ASN695  SER759  ASP760  ASP761  ALA762  ILE779  LEU786  VAL792 
 PHE793  MET794  SER795  GLU796  ALA797  LYS798  CYS799  TRP800  GLU811  SER814 

> <Gold.Protein.RotatedAtoms>
  152.4727  133.8067  159.6981 H   0  0  0  0  0  0  0  0  0  0  0  0  # atno 6907 bound_to 6896
  150.8726  133.7474  159.2963 H   0  0  0  0  0  0  0  0  0  0  0  0  # atno 6908 bound_to 6896
  151.5005  135.1065  159.9879 H   0  0  0  0  0  0  0  0  0  0  0  0  # atno 6909 bound_to 6896
  145.3786  139.2384  143.3416 H   0  0  0  0  0  0  0  0  0  0  0  0  # atno 7974 bound_to 7965
  155.0649  140.3194  155.4649 H   0  0  0  0  0  0  0  0  0  0  0  0  # atno 8008 bound_to 7997
  156.2804  140.2122  156.5721 H   0  0  0  0  0  0  0  0  0  0  0  0  # atno 8009 bound_to 7997
  154.7102  140.0499  157.0530 H   0  0  0  0  0  0  0  0  0  0  0  0  # atno 8010 bound_to 7997
  139.4879  144.5703  151.7067 H   0  0  0  0  0  0  0  0  0  0  0  0  # atno 10167 bound_to 10162
  156.5175  130.8463  151.2670 H   0  0  0  0  0  0  0  0  0  0  0  0  # atno 10718 bound_to 10713
  154.4515  135.5916  153.6194 H   0  0  0  0  0  0  0  0  0  0  0  0  # atno 10763 bound_to 10752
  152.9814  135.6022  154.3599 H   0  0  0  0  0  0  0  0  0  0  0  0  # atno 10764 bound_to 10752
  154.3461  135.2841  155.2376 H   0  0  0  0  0  0  0  0  0  0  0  0  # atno 10765 bound_to 10752
  141.0772  133.9281  157.2364 H   0  0  0  0  0  0  0  0  0  0  0  0  # atno 11005 bound_to 11000
  146.2852  140.4450  142.8760 LP  0  0  0  0  0  0  0  0  0  0  0  0  # atno 17320 bound_to 7965
  144.8524  140.7021  143.6160 LP  0  0  0  0  0  0  0  0  0  0  0  0  # atno 17321 bound_to 7965
  140.5289  144.0761  150.6047 LP  0  0  0  0  0  0  0  0  0  0  0  0  # atno 17342 bound_to 10162
  140.3745  143.2836  152.0241 LP  0  0  0  0  0  0  0  0  0  0  0  0  # atno 17343 bound_to 10162
  157.7442  130.9928  150.2651 LP  0  0  0  0  0  0  0  0  0  0  0  0  # atno 17370 bound_to 10713
  156.3181  130.3782  149.7600 LP  0  0  0  0  0  0  0  0  0  0  0  0  # atno 17371 bound_to 10713
  139.9585  135.0160  156.9194 LP  0  0  0  0  0  0  0  0  0  0  0  0  # atno 17394 bound_to 11000
  140.5547  134.0593  155.7380 LP  0  0  0  0  0  0  0  0  0  0  0  0  # atno 17395 bound_to 11000

$$$$
