AV-unprocessed.smi:241|AV-procd|sdf|1840|dock7
  -GOLD-   2262020453D 1   1.00000     0.00000
 Structure written by MMmdl.
 54 57  0  0  0  0  0  0  0  0  1 V2000
  151.9931  138.9325  154.9409 C   0  0  0  0  0  0  0  0  0  0  0  0
  150.8866  139.5559  154.3147 O   0  0  0  0  0  0  0  0  0  0  0  0
  149.6491  138.9717  154.6893 C   0  0  0  0  0  0  0  0  0  0  0  0
  148.4823  139.7843  154.0966 C   0  0  2  0  0  0  0  0  0  0  0  0
  148.5531  141.2920  154.3775 C   0  0  0  0  0  0  0  0  0  0  0  0
  147.0886  141.7394  154.4946 C   0  0  1  0  0  0  0  0  0  0  0  0
  146.8078  142.7699  153.5580 O   0  0  0  0  0  0  0  0  0  0  0  0
  145.5027  143.3106  153.6860 C   0  0  0  0  0  0  0  0  0  0  0  0
  146.2786  140.4651  154.2194 C   0  0  0  0  0  0  0  0  0  0  0  0
  147.1670  139.3659  154.5648 N   0  0  0  0  0  0  0  0  0  0  0  0
  146.7776  138.1263  154.1852 C   0  0  0  0  0  0  0  0  0  0  0  0
  146.4384  137.1931  155.1137 N   0  0  0  0  0  0  0  0  0  0  0  0
  146.0360  135.9792  154.7252 C   0  0  0  0  0  0  0  0  0  0  0  0
  145.9002  135.5007  153.4862 N   0  0  0  0  0  0  0  0  0  0  0  0
  146.2374  136.4366  152.5525 C   0  0  0  0  0  0  0  0  0  0  0  0
  146.6802  137.7628  152.8158 C   0  0  0  0  0  0  0  0  0  0  0  0
  146.9198  138.4309  151.6228 N   0  0  0  0  0  0  0  0  0  0  0  0
  146.6263  137.5523  150.7038 C   0  0  0  0  0  0  0  0  0  0  0  0
  146.2254  136.3197  151.1723 N   0  0  0  0  0  0  0  0  0  0  0  0
  145.8281  135.1817  150.3918 C   0  0  0  0  0  0  0  0  0  0  0  0
  144.7274  134.2215  150.8528 C   0  0  0  0  0  0  0  0  0  0  0  0
  145.4725  133.0542  150.1662 C   0  0  0  0  0  0  0  0  0  0  0  0
  145.5124  131.7401  150.9646 C   0  0  0  0  0  0  0  0  0  0  0  0
  146.1261  131.9200  152.2250 O   0  0  0  0  0  0  0  0  0  0  0  0
  145.0280  132.7544  148.7199 C   0  0  0  0  0  0  0  0  0  0  0  0
  143.8805  131.9301  148.6916 O   0  0  0  0  0  0  0  0  0  0  0  0
  146.7269  133.9494  150.2986 C   0  0  0  0  0  0  0  0  0  0  0  0
  148.4969  139.6492  153.0135 H   0  0  0  0  0  0  0  0  0  0  0  0
  146.9115  142.0870  155.5141 H   0  0  0  0  0  0  0  0  0  0  0  0
  152.9159  139.4125  154.6155 H   0  0  0  0  0  0  0  0  0  0  0  0
  152.0515  137.8755  154.6782 H   0  0  0  0  0  0  0  0  0  0  0  0
  151.9324  139.0227  156.0263 H   0  0  0  0  0  0  0  0  0  0  0  0
  149.6038  137.9452  154.3232 H   0  0  0  0  0  0  0  0  0  0  0  0
  149.5658  138.9244  155.7762 H   0  0  0  0  0  0  0  0  0  0  0  0
  149.0719  141.4996  155.3140 H   0  0  0  0  0  0  0  0  0  0  0  0
  149.0906  141.8146  153.5852 H   0  0  0  0  0  0  0  0  0  0  0  0
  145.3666  144.1091  152.9569 H   0  0  0  0  0  0  0  0  0  0  0  0
  145.3465  143.7340  154.6787 H   0  0  0  0  0  0  0  0  0  0  0  0
  144.7360  142.5574  153.5022 H   0  0  0  0  0  0  0  0  0  0  0  0
  145.3605  140.4346  154.8067 H   0  0  0  0  0  0  0  0  0  0  0  0
  146.0066  140.4230  153.1635 H   0  0  0  0  0  0  0  0  0  0  0  0
  145.7849  135.2937  155.5213 H   0  0  0  0  0  0  0  0  0  0  0  0
  146.6959  137.7883  149.6523 H   0  0  0  0  0  0  0  0  0  0  0  0
  145.5941  135.5563  149.3938 H   0  0  0  0  0  0  0  0  0  0  0  0
  144.6778  134.1068  151.9364 H   0  0  0  0  0  0  0  0  0  0  0  0
  143.7410  134.4376  150.4415 H   0  0  0  0  0  0  0  0  0  0  0  0
  144.5134  131.3298  151.1131 H   0  0  0  0  0  0  0  0  0  0  0  0
  146.0771  130.9779  150.4269 H   0  0  0  0  0  0  0  0  0  0  0  0
  146.0370  131.1203  152.7203 H   0  0  0  0  0  0  0  0  0  0  0  0
  144.8142  133.6712  148.1700 H   0  0  0  0  0  0  0  0  0  0  0  0
  145.8153  132.2467  148.1624 H   0  0  0  0  0  0  0  0  0  0  0  0
  143.1142  132.4799  148.7515 H   0  0  0  0  0  0  0  0  0  0  0  0
  147.3929  133.9454  149.4351 H   0  0  0  0  0  0  0  0  0  0  0  0
  147.2848  133.7713  151.2198 H   0  0  0  0  0  0  0  0  0  0  0  0
  1  2  1  0  0  0  0
  1 30  1  0  0  0  0
  1 31  1  0  0  0  0
  1 32  1  0  0  0  0
  2  3  1  0  0  0  0
  3  4  1  0  0  0  0
  3 33  1  0  0  0  0
  3 34  1  0  0  0  0
  4 28  1  0  0  0  0
  4 10  1  0  0  0  0
  4  5  1  0  0  0  0
  5  6  1  0  0  0  0
  5 35  1  0  0  0  0
  5 36  1  0  0  0  0
  6 29  1  0  0  0  0
  6  7  1  0  0  0  0
  6  9  1  0  0  0  0
  7  8  1  0  0  0  0
  8 37  1  0  0  0  0
  8 38  1  0  0  0  0
  8 39  1  0  0  0  0
  9 10  1  0  0  0  0
  9 40  1  0  0  0  0
  9 41  1  0  0  0  0
 10 11  1  0  0  0  0
 11 16  1  0  0  0  0
 11 12  2  0  0  0  0
 12 13  1  0  0  0  0
 13 14  2  0  0  0  0
 13 42  1  0  0  0  0
 14 15  1  0  0  0  0
 15 19  1  0  0  0  0
 15 16  2  0  0  0  0
 16 17  1  0  0  0  0
 17 18  2  0  0  0  0
 18 19  1  0  0  0  0
 18 43  1  0  0  0  0
 19 20  1  0  0  0  0
 20 27  1  0  0  0  0
 20 21  1  0  0  0  0
 20 44  1  0  0  0  0
 21 22  1  0  0  0  0
 21 45  1  0  0  0  0
 21 46  1  0  0  0  0
 22 23  1  0  0  0  0
 22 25  1  0  0  0  0
 22 27  1  0  0  0  0
 23 24  1  0  0  0  0
 23 47  1  0  0  0  0
 23 48  1  0  0  0  0
 24 49  1  0  0  0  0
 25 26  1  0  0  0  0
 25 50  1  0  0  0  0
 25 51  1  0  0  0  0
 26 52  1  0  0  0  0
 27 53  1  0  0  0  0
 27 54  1  0  0  0  0
M  END
> <s_m_source_file>
AV-unprocessed.smi

> <i_m_source_file_index>
241

> <i_lp_mmshare_version>
43012

> <i_f3d_flags>
0

> <s_epik_input>
W0NIM11PW0NIMl1bQ0BASF0xW0NIMl1bQ0BASF0oT1tDSDNdKVtDSDJdTjFjKG5bY0hdbjIpYyhjMjMpbltjSF1uM1tDSF0oW0NIMl00KVtDSDJdQzQoW0NIMl1bT0hdKVtDSDJdW09IXQ==

> <s_epik_cmdline>
J2VwaWtfcHl0aG9uJywgJy1waCcsICc3LjAnLCAnLXRuJywgJzgnLCAnLW1hJywgJzIwMCcsICctbWV0YWxfYmluZGluZycsICctaW1hZScsICc8aW5maWxlLm1hZT4nLCAnLW9tYWUnLCAnPG91dGZpbGUubWFlPic=

> <r_lp_tautomer_probability>
1

> <r_epik_Ionization_Penalty>
0.00568677

> <r_epik_Ionization_Penalty_Charging>
0

> <r_epik_Ionization_Penalty_Neutral>
0.00568677

> <r_epik_State_Penalty>
0.00400877

> <r_epik_Charging_Adjusted_Penalty>
0.00400877

> <i_epik_Tot_Q>
0

> <i_epik_Tot_abs_Q>
0

> <r_epik_Metal_State_Penalty>
-0

> <b_epik_Metal_Only>
0

> <s_lp_Force_Field>
OPLS_2005

> <r_lp_Energy>
60.5945

> <b_lp_Chiralities_Consistent>
1

> <s_lp_Variant>
AV-unprocessed.smi:241-1

> <Gold.Version>
5.8.1

> <Gold.Id.Protein>
6NUR|6NUR_protein|mol2

> <Gold.PLP.Fitness>
51.0358

> <Gold.PLP.PLP>
-43.1113

> <Gold.PLP.part.hbond>
-4.5602

> <Gold.PLP.part.metal>
0.0000

> <Gold.PLP.part.buried>
-0.0106

> <Gold.PLP.part.nonpolar>
-39.7694

> <Gold.PLP.part.repulsive>
0.8632

> <Gold.PLP.ligand.clash>
0.0000

> <Gold.PLP.ligand.torsion>
0.9087

> <Gold.PLP.Chemscore.Hbond>
2.7213

> <Gold.PLP.Chemscore.CHOScore>
0.3340

> <Gold.PLP.Chemscore.Metal>
0.0000

> <Gold.Chemscore.Hbonds>
donor molecule, donor type, donor heavy atom, donor atom, acceptor molecule, acceptor atom, score
      P1  H  7989  7998       L1     2  1.00
      P1  H 10785 10796       L1    26  0.61
      L1  C    18    43       P1 10171  0.01

> <Gold.PLP.Chemscore.Internal.Correction>
0.5762

> <Gold.Rescore>
     Score         DG    S(hbond)    S(metal)    S(lipo)     H(rot)  DE(clash)    DE(int)     intcor
      7.77     -12.44       1.93        0.00      91.22       3.97       2.74       1.92       ----

> <Gold.Chemscore.Fitness>
7.7709

> <Gold.Chemscore.DG>
-12.4365

> <Gold.Chemscore.ZeroCoef>
-5.4800

> <Gold.Chemscore.Hbond>
1.9323

> <Gold.Chemscore.Metal>
0.0000

> <Gold.Chemscore.Lipo>
91.2223

> <Gold.Chemscore.Internal_Hbond>
0.0000

> <Gold.Chemscore.DEClash>
2.7446

> <Gold.Chemscore.DEInternal>
1.9210

> <Gold.Chemscore.Rot>
3.9727

> <Gold.Chemscore.Internal.Correction>
   9.000000E+99

> <Gold.Chemscore.Hbonds>
donor molecule, donor type, donor heavy atom, donor atom, acceptor molecule, acceptor atom, score
      P1  H  7989  7998       L1     2  0.35
      P1  H 10785 10796       L1    26  0.30

> <Gold.Chemscore.Hbond.Weighted>
-6.4537

> <Gold.Chemscore.Metal.Weighted>
-0.0000

> <Gold.Chemscore.Lipo.Weighted>
-10.6730

> <Gold.Chemscore.Internal_Hbond.Weighted>
0.0000

> <Gold.Chemscore.DEClash.Weighted>
2.7446

> <Gold.Chemscore.DEInternal.Weighted>
1.9210

> <Gold.Chemscore.Rot.Weighted>
10.1702

> <Gold.Chemscore.Internal.Correction.Weighted>
   9.000000E+99

> <Gold.Protein.RotatedTorsions>
[ 6907 6896 6895 6894 ] final  -31.18 input  -60.11 | X-H torsion
[ 7974 7965 7964 7962 ] final -107.36 input  175.53 | X-H torsion
[ 8008 7997 7996 7995 ] final  118.89 input   59.86 | X-H torsion
[ 10167 10162 10161 10158 ] final -148.39 input  -65.29 | X-H torsion
[ 10718 10713 10712 10709 ] final   24.26 input   66.30 | X-H torsion
[ 10763 10752 10751 10750 ] final  130.35 input  -60.55 | X-H torsion
[ 11005 11000 10999 10996 ] final  -31.68 input  -57.11 | X-H torsion

> <Gold.Protein.ActiveResidues>
 VAL166  LYS551  ARG553  GLY616  TRP617  ASP618  TYR619  PRO620  LYS621  CYS622 
 ASP623  PHE694  ASN695  SER759  ASP760  ASP761  ALA762  ILE779  LEU786  VAL792 
 PHE793  MET794  SER795  GLU796  ALA797  LYS798  CYS799  TRP800  GLU811  SER814 

> <Gold.Protein.RotatedAtoms>
  151.0955  134.9941  159.8423 H   0  0  0  0  0  0  0  0  0  0  0  0  # atno 6907 bound_to 6896
  152.5433  134.2013  159.8723 H   0  0  0  0  0  0  0  0  0  0  0  0  # atno 6908 bound_to 6896
  151.2052  133.4543  159.2630 H   0  0  0  0  0  0  0  0  0  0  0  0  # atno 6909 bound_to 6896
  145.2063  140.9077  143.3340 H   0  0  0  0  0  0  0  0  0  0  0  0  # atno 7974 bound_to 7965
  156.2569  140.2865  156.0906 H   0  0  0  0  0  0  0  0  0  0  0  0  # atno 8008 bound_to 7997
  155.1467  140.0396  157.2829 H   0  0  0  0  0  0  0  0  0  0  0  0  # atno 8009 bound_to 7997
  154.6490  140.2540  155.7241 H   0  0  0  0  0  0  0  0  0  0  0  0  # atno 8010 bound_to 7997
  139.7536  143.8481  152.2592 H   0  0  0  0  0  0  0  0  0  0  0  0  # atno 10167 bound_to 10162
  157.1773  130.6787  149.6100 H   0  0  0  0  0  0  0  0  0  0  0  0  # atno 10718 bound_to 10713
  153.7565  135.3202  155.3330 H   0  0  0  0  0  0  0  0  0  0  0  0  # atno 10763 bound_to 10752
  154.8245  135.4580  154.0880 H   0  0  0  0  0  0  0  0  0  0  0  0  # atno 10764 bound_to 10752
  153.2098  135.6934  153.8211 H   0  0  0  0  0  0  0  0  0  0  0  0  # atno 10765 bound_to 10752
  140.9489  133.7233  156.1189 H   0  0  0  0  0  0  0  0  0  0  0  0  # atno 11005 bound_to 11000
  144.9899  139.3700  143.6220 LP  0  0  0  0  0  0  0  0  0  0  0  0  # atno 17320 bound_to 7965
  146.3407  139.9077  142.8785 LP  0  0  0  0  0  0  0  0  0  0  0  0  # atno 17321 bound_to 7965
  139.8466  144.7184  150.9265 LP  0  0  0  0  0  0  0  0  0  0  0  0  # atno 17342 bound_to 10162
  140.7800  143.3936  151.1268 LP  0  0  0  0  0  0  0  0  0  0  0  0  # atno 17343 bound_to 10162
  155.9729  130.4658  150.6268 LP  0  0  0  0  0  0  0  0  0  0  0  0  # atno 17370 bound_to 10713
  157.3986  131.0806  151.1329 LP  0  0  0  0  0  0  0  0  0  0  0  0  # atno 17371 bound_to 10713
  140.7631  134.3917  157.5522 LP  0  0  0  0  0  0  0  0  0  0  0  0  # atno 17394 bound_to 11000
  139.8841  134.8974  156.2722 LP  0  0  0  0  0  0  0  0  0  0  0  0  # atno 17395 bound_to 11000

$$$$
