AV-unprocessed.smi:1860|AV-procd|sdf|7547|dock9
  -GOLD-   22720 9263D 1   1.00000     0.00000
 Structure written by MMmdl.
 31 32  0  0  0  0  0  0  0  0  1 V2000
  152.4368  138.5027  154.7836 C   0  0  0  0  0  0  0  0  0  0  0  0
  151.7767  138.4019  156.1651 C   0  0  0  0  0  0  0  0  0  0  0  0
  151.2132  139.6801  156.5819 N   0  0  0  0  0  0  0  0  0  0  0  0
  150.5330  140.5205  155.7864 C   0  0  0  0  0  0  0  0  0  0  0  0
  150.3239  140.3052  154.5926 O   0  0  0  0  0  0  0  0  0  0  0  0
  150.0032  141.7987  156.4376 C   0  0  0  0  0  0  0  0  0  0  0  0
  151.0475  142.3898  157.3394 C   0  0  0  0  0  0  0  0  0  0  0  0
  151.5320  143.6750  157.3082 C   0  0  0  0  0  0  0  0  0  0  0  0
  152.7430  143.9473  158.5306 S   0  0  0  0  0  0  0  0  0  0  0  0
  152.5383  142.2743  159.0578 C   0  0  0  0  0  0  0  0  0  0  0  0
  153.2341  141.6319  160.1246 N   0  0  0  0  0  0  0  0  0  0  0  0
  153.3290  142.2338  161.4509 C   0  0  0  0  0  0  0  0  0  0  0  0
  154.1448  141.2250  162.2533 C   0  0  0  0  0  0  0  0  0  0  0  0
  154.3984  140.1933  161.2756 N   0  0  0  0  0  0  0  0  0  0  0  0
  153.8726  140.4457  160.0749 C   0  0  0  0  0  0  0  0  0  0  0  0
  153.9764  139.6936  159.1077 O   0  0  0  0  0  0  0  0  0  0  0  0
  151.6262  141.6063  158.3435 N   0  0  0  0  0  0  0  0  0  0  0  0
  152.8250  137.5338  154.4689 H   0  0  0  0  0  0  0  0  0  0  0  0
  153.2701  139.2059  154.7916 H   0  0  0  0  0  0  0  0  0  0  0  0
  151.7240  138.8362  154.0290 H   0  0  0  0  0  0  0  0  0  0  0  0
  150.9706  137.6688  156.1345 H   0  0  0  0  0  0  0  0  0  0  0  0
  152.4943  138.0437  156.9047 H   0  0  0  0  0  0  0  0  0  0  0  0
  151.3370  139.9392  157.5498 H   0  0  0  0  0  0  0  0  0  0  0  0
  149.7138  142.5112  155.6641 H   0  0  0  0  0  0  0  0  0  0  0  0
  149.0946  141.5658  156.9947 H   0  0  0  0  0  0  0  0  0  0  0  0
  151.2538  144.4749  156.6384 H   0  0  0  0  0  0  0  0  0  0  0  0
  153.8302  143.2015  161.4005 H   0  0  0  0  0  0  0  0  0  0  0  0
  152.3369  142.3766  161.8815 H   0  0  0  0  0  0  0  0  0  0  0  0
  155.0817  141.6498  162.6150 H   0  0  0  0  0  0  0  0  0  0  0  0
  153.5850  140.8239  163.0987 H   0  0  0  0  0  0  0  0  0  0  0  0
  154.9277  139.3612  161.4926 H   0  0  0  0  0  0  0  0  0  0  0  0
  1  2  1  0  0  0  0
  1 18  1  0  0  0  0
  1 19  1  0  0  0  0
  1 20  1  0  0  0  0
  2  3  1  0  0  0  0
  2 21  1  0  0  0  0
  2 22  1  0  0  0  0
  3  4  1  0  0  0  0
  3 23  1  0  0  0  0
  4  5  2  0  0  0  0
  4  6  1  0  0  0  0
  6  7  1  0  0  0  0
  6 24  1  0  0  0  0
  6 25  1  0  0  0  0
  7 17  1  0  0  0  0
  7  8  2  0  0  0  0
  8  9  1  0  0  0  0
  8 26  1  0  0  0  0
  9 10  1  0  0  0  0
 10 11  1  0  0  0  0
 10 17  2  0  0  0  0
 11 15  1  0  0  0  0
 11 12  1  0  0  0  0
 12 13  1  0  0  0  0
 12 27  1  0  0  0  0
 12 28  1  0  0  0  0
 13 14  1  0  0  0  0
 13 29  1  0  0  0  0
 13 30  1  0  0  0  0
 14 15  1  0  0  0  0
 14 31  1  0  0  0  0
 15 16  2  0  0  0  0
M  END
> <s_m_source_file>
AV-unprocessed.smi

> <i_m_source_file_index>
1860

> <i_lp_mmshare_version>
43012

> <i_f3d_flags>
0

> <s_epik_input>
W0NIM11bQ0gyXVtOSF1DKD1PKVtDSDJdYzFbY0hdc2MobjEpTjJbQ0gyXVtDSDJdW05IXUMyPU8=

> <s_epik_cmdline>
J2VwaWtfcHl0aG9uJywgJy1waCcsICc3LjAnLCAnLXRuJywgJzgnLCAnLW1hJywgJzIwMCcsICctbWV0YWxfYmluZGluZycsICctaW1hZScsICc8aW5maWxlLm1hZT4nLCAnLW9tYWUnLCAnPG91dGZpbGUubWFlPic=

> <r_lp_tautomer_probability>
1

> <r_epik_Ionization_Penalty>
0.000119829

> <r_epik_Ionization_Penalty_Charging>
0

> <r_epik_Ionization_Penalty_Neutral>
0.000119829

> <r_epik_State_Penalty>
-0

> <r_epik_Charging_Adjusted_Penalty>
0

> <i_epik_Tot_Q>
0

> <i_epik_Tot_abs_Q>
0

> <r_epik_Metal_State_Penalty>
-0

> <b_epik_Metal_Only>
0

> <s_lp_Force_Field>
OPLS_2005

> <r_lp_Energy>
29.5586

> <b_lp_Chiralities_Consistent>
1

> <s_lp_Variant>
AV-unprocessed.smi:1860-1

> <Gold.Version>
5.8.1

> <Gold.Id.Protein>
6NUR|6NUR_protein|mol2

> <Gold.PLP.Fitness>
45.8930

> <Gold.PLP.PLP>
-39.4725

> <Gold.PLP.part.hbond>
-1.9350

> <Gold.PLP.part.metal>
0.0000

> <Gold.PLP.part.buried>
-3.5436

> <Gold.PLP.part.nonpolar>
-34.9082

> <Gold.PLP.part.repulsive>
0.2102

> <Gold.PLP.ligand.clash>
0.0000

> <Gold.PLP.ligand.torsion>
1.2748

> <Gold.PLP.Chemscore.Hbond>
2.0000

> <Gold.PLP.Chemscore.CHOScore>
0.9891

> <Gold.PLP.Chemscore.Metal>
0.0000

> <Gold.Chemscore.Hbonds>
donor molecule, donor type, donor heavy atom, donor atom, acceptor molecule, acceptor atom, score
      P1  H  7989  7998       L1     5  1.00
      P1  H  7997  8010       L1    16  0.80
      L1  C     8    26       P1  8028  0.86

> <Gold.PLP.Chemscore.Internal.Correction>
0.0029

> <Gold.Rescore>
     Score         DG    S(hbond)    S(metal)    S(lipo)     H(rot)  DE(clash)    DE(int)     intcor
     12.81     -16.61       1.96        0.00      74.57       1.62       0.04       3.76       ----

> <Gold.Chemscore.Fitness>
12.8089

> <Gold.Chemscore.DG>
-16.6088

> <Gold.Chemscore.ZeroCoef>
-5.4800

> <Gold.Chemscore.Hbond>
1.9639

> <Gold.Chemscore.Metal>
0.0000

> <Gold.Chemscore.Lipo>
74.5696

> <Gold.Chemscore.Internal_Hbond>
0.0000

> <Gold.Chemscore.DEClash>
0.0354

> <Gold.Chemscore.DEInternal>
3.7646

> <Gold.Chemscore.Rot>
1.6231

> <Gold.Chemscore.Internal.Correction>
   9.000000E+99

> <Gold.Chemscore.Hbonds>
donor molecule, donor type, donor heavy atom, donor atom, acceptor molecule, acceptor atom, score
      P1  H  7989  7998       L1     5  0.88
      P1  H  7997  8010       L1    16  0.77

> <Gold.Chemscore.Hbond.Weighted>
-6.5594

> <Gold.Chemscore.Metal.Weighted>
-0.0000

> <Gold.Chemscore.Lipo.Weighted>
-8.7246

> <Gold.Chemscore.Internal_Hbond.Weighted>
0.0000

> <Gold.Chemscore.DEClash.Weighted>
0.0354

> <Gold.Chemscore.DEInternal.Weighted>
3.7646

> <Gold.Chemscore.Rot.Weighted>
4.1553

> <Gold.Chemscore.Internal.Correction.Weighted>
   9.000000E+99

> <Gold.Protein.RotatedTorsions>
[ 6907 6896 6895 6894 ] final   51.50 input  -60.11 | X-H torsion
[ 7974 7965 7964 7962 ] final   72.28 input  175.53 | X-H torsion
[ 8008 7997 7996 7995 ] final    2.48 input   59.86 | X-H torsion
[ 10167 10162 10161 10158 ] final  -39.09 input  -65.29 | X-H torsion
[ 10718 10713 10712 10709 ] final   81.74 input   66.30 | X-H torsion
[ 10763 10752 10751 10750 ] final  102.31 input  -60.55 | X-H torsion
[ 11005 11000 10999 10996 ] final   91.01 input  -57.11 | X-H torsion

> <Gold.Protein.ActiveResidues>
 VAL166  LYS551  ARG553  GLY616  TRP617  ASP618  TYR619  PRO620  LYS621  CYS622 
 ASP623  PHE694  ASN695  SER759  ASP760  ASP761  ALA762  ILE779  LEU786  VAL792 
 PHE793  MET794  SER795  GLU796  ALA797  LYS798  CYS799  TRP800  GLU811  SER814 

> <Gold.Protein.RotatedAtoms>
  152.3134  134.7470  160.0330 H   0  0  0  0  0  0  0  0  0  0  0  0  # atno 6907 bound_to 6896
  151.7943  133.3357  159.3516 H   0  0  0  0  0  0  0  0  0  0  0  0  # atno 6908 bound_to 6896
  150.7331  134.5744  159.5951 H   0  0  0  0  0  0  0  0  0  0  0  0  # atno 6909 bound_to 6896
  145.7554  139.2777  143.1407 H   0  0  0  0  0  0  0  0  0  0  0  0  # atno 7974 bound_to 7965
  154.6921  140.2655  155.6802 H   0  0  0  0  0  0  0  0  0  0  0  0  # atno 8008 bound_to 7997
  156.2736  140.2789  156.1426 H   0  0  0  0  0  0  0  0  0  0  0  0  # atno 8009 bound_to 7997
  155.0882  140.0373  157.2650 H   0  0  0  0  0  0  0  0  0  0  0  0  # atno 8010 bound_to 7997
  140.7074  143.3236  151.2733 H   0  0  0  0  0  0  0  0  0  0  0  0  # atno 10167 bound_to 10162
  157.6840  131.0017  150.2271 H   0  0  0  0  0  0  0  0  0  0  0  0  # atno 10718 bound_to 10713
  153.3380  135.4015  155.1549 H   0  0  0  0  0  0  0  0  0  0  0  0  # atno 10763 bound_to 10752
  154.8637  135.3626  154.5383 H   0  0  0  0  0  0  0  0  0  0  0  0  # atno 10764 bound_to 10752
  153.5826  135.7076  153.5516 H   0  0  0  0  0  0  0  0  0  0  0  0  # atno 10765 bound_to 10752
  139.8846  134.8648  156.3366 H   0  0  0  0  0  0  0  0  0  0  0  0  # atno 11005 bound_to 11000
  146.0316  140.8252  142.9873 LP  0  0  0  0  0  0  0  0  0  0  0  0  # atno 17320 bound_to 7965
  144.6841  140.2778  143.7296 LP  0  0  0  0  0  0  0  0  0  0  0  0  # atno 17321 bound_to 7965
  139.6698  144.0041  152.2745 LP  0  0  0  0  0  0  0  0  0  0  0  0  # atno 17342 bound_to 10162
  139.9635  144.6541  150.8056 LP  0  0  0  0  0  0  0  0  0  0  0  0  # atno 17343 bound_to 10162
  156.2911  130.3746  149.7841 LP  0  0  0  0  0  0  0  0  0  0  0  0  # atno 17370 bound_to 10713
  156.5500  130.8337  151.3296 LP  0  0  0  0  0  0  0  0  0  0  0  0  # atno 17371 bound_to 10713
  140.9687  133.7341  156.0503 LP  0  0  0  0  0  0  0  0  0  0  0  0  # atno 17394 bound_to 11000
  140.7898  134.3630  157.5467 LP  0  0  0  0  0  0  0  0  0  0  0  0  # atno 17395 bound_to 11000

$$$$
