AV-unprocessed.smi:1336|AV-procd|sdf|5496|dock3
  -GOLD-   22720 5 73D 1   1.00000     0.00000
 Structure written by MMmdl.
 43 43  0  0  0  0  0  0  0  0  1 V2000
  148.2081  144.6903  161.9543 C   0  0  0  0  0  0  0  0  0  0  0  0
  146.7792  144.1319  161.9011 C   0  0  0  0  0  0  0  0  0  0  0  0
  146.0342  144.4720  160.6006 C   0  0  0  0  0  0  0  0  0  0  0  0
  146.6754  143.8495  159.4471 N   0  0  0  0  0  0  0  0  0  0  0  0
  146.7912  142.5305  159.2326 C   0  0  0  0  0  0  0  0  0  0  0  0
  146.3681  141.6756  160.0133 O   0  0  0  0  0  0  0  0  0  0  0  0
  147.4758  142.1207  157.9176 C   0  0  2  0  0  0  0  0  0  0  0  0
  146.4563  141.3310  157.0801 C   0  0  0  0  0  0  0  0  0  0  0  0
  148.6116  141.2439  158.1912 N   0  0  0  0  0  0  0  0  0  0  0  0
  149.6349  141.0108  157.3521 C   0  0  0  0  0  0  0  0  0  0  0  0
  149.6804  141.4502  156.2032 O   0  0  0  0  0  0  0  0  0  0  0  0
  150.7877  140.1582  157.8920 C   0  0  0  0  0  0  0  0  0  0  0  0
  151.6832  140.9761  158.7813 C   0  0  0  0  0  0  0  0  0  0  0  0
  153.0140  140.7540  159.0359 C   0  0  0  0  0  0  0  0  0  0  0  0
  153.6616  141.9095  160.1675 S   0  0  0  0  0  0  0  0  0  0  0  0
  152.0776  142.6723  160.2513 C   0  0  0  0  0  0  0  0  0  0  0  0
  151.7781  143.8511  161.1220 C   0  0  0  0  0  0  0  0  0  0  0  0
  151.6773  145.1515  160.3107 C   0  0  0  0  0  0  0  0  0  0  0  0
  152.7463  143.9544  162.3092 C   0  0  0  0  0  0  0  0  0  0  0  0
  151.1715  142.0842  159.4654 N   0  0  0  0  0  0  0  0  0  0  0  0
  148.6770  144.4618  162.9116 H   0  0  0  0  0  0  0  0  0  0  0  0
  148.2116  145.7737  161.8320 H   0  0  0  0  0  0  0  0  0  0  0  0
  148.8344  144.2626  161.1709 H   0  0  0  0  0  0  0  0  0  0  0  0
  146.8077  143.0501  162.0365 H   0  0  0  0  0  0  0  0  0  0  0  0
  146.2138  144.5276  162.7456 H   0  0  0  0  0  0  0  0  0  0  0  0
  145.0091  144.1050  160.6573 H   0  0  0  0  0  0  0  0  0  0  0  0
  145.9690  145.5557  160.4911 H   0  0  0  0  0  0  0  0  0  0  0  0
  147.0535  144.4734  158.7492 H   0  0  0  0  0  0  0  0  0  0  0  0
  147.8027  143.0040  157.3653 H   0  0  0  0  0  0  0  0  0  0  0  0
  145.5819  141.9390  156.8442 H   0  0  0  0  0  0  0  0  0  0  0  0
  146.1094  140.4359  157.5988 H   0  0  0  0  0  0  0  0  0  0  0  0
  146.8943  141.0136  156.1331 H   0  0  0  0  0  0  0  0  0  0  0  0
  148.6614  140.8442  159.1171 H   0  0  0  0  0  0  0  0  0  0  0  0
  150.3706  139.3095  158.4351 H   0  0  0  0  0  0  0  0  0  0  0  0
  151.3557  139.7445  157.0578 H   0  0  0  0  0  0  0  0  0  0  0  0
  153.6473  139.9746  158.6390 H   0  0  0  0  0  0  0  0  0  0  0  0
  150.7888  143.6755  161.5462 H   0  0  0  0  0  0  0  0  0  0  0  0
  150.9241  145.0674  159.5267 H   0  0  0  0  0  0  0  0  0  0  0  0
  152.6268  145.3958  159.8329 H   0  0  0  0  0  0  0  0  0  0  0  0
  151.4000  145.9917  160.9475 H   0  0  0  0  0  0  0  0  0  0  0  0
  152.7350  143.0411  162.9049 H   0  0  0  0  0  0  0  0  0  0  0  0
  152.4745  144.7808  162.9664 H   0  0  0  0  0  0  0  0  0  0  0  0
  153.7700  144.1207  161.9725 H   0  0  0  0  0  0  0  0  0  0  0  0
  1  2  1  0  0  0  0
  1 21  1  0  0  0  0
  1 22  1  0  0  0  0
  1 23  1  0  0  0  0
  2  3  1  0  0  0  0
  2 24  1  0  0  0  0
  2 25  1  0  0  0  0
  3  4  1  0  0  0  0
  3 26  1  0  0  0  0
  3 27  1  0  0  0  0
  4  5  1  0  0  0  0
  4 28  1  0  0  0  0
  5  6  2  0  0  0  0
  5  7  1  0  0  0  0
  7  8  1  0  0  0  0
  7  9  1  0  0  0  0
  7 29  1  0  0  0  0
  8 30  1  0  0  0  0
  8 31  1  0  0  0  0
  8 32  1  0  0  0  0
  9 10  1  0  0  0  0
  9 33  1  0  0  0  0
 10 11  2  0  0  0  0
 10 12  1  0  0  0  0
 12 13  1  0  0  0  0
 12 34  1  0  0  0  0
 12 35  1  0  0  0  0
 13 20  1  0  0  0  0
 13 14  2  0  0  0  0
 14 15  1  0  0  0  0
 14 36  1  0  0  0  0
 15 16  1  0  0  0  0
 16 17  1  0  0  0  0
 16 20  2  0  0  0  0
 17 18  1  0  0  0  0
 17 19  1  0  0  0  0
 17 37  1  0  0  0  0
 18 38  1  0  0  0  0
 18 39  1  0  0  0  0
 18 40  1  0  0  0  0
 19 41  1  0  0  0  0
 19 42  1  0  0  0  0
 19 43  1  0  0  0  0
M  END
> <s_m_source_file>
AV-unprocessed.smi

> <i_m_source_file_index>
1336

> <i_lp_mmshare_version>
43012

> <i_f3d_flags>
0

> <s_epik_input>
W0NIM11bQ0gyXVtDSDJdW05IXUMoPU8pW0NASF0oW0NIM10pW05IXUMoPU8pW0NIMl1jMVtjSF1zYyhuMSlbQ0hdKFtDSDNdKVtDSDNd

> <s_epik_cmdline>
J2VwaWtfcHl0aG9uJywgJy1waCcsICc3LjAnLCAnLXRuJywgJzgnLCAnLW1hJywgJzIwMCcsICctbWV0YWxfYmluZGluZycsICctaW1hZScsICc8aW5maWxlLm1hZT4nLCAnLW9tYWUnLCAnPG91dGZpbGUubWFlPic=

> <r_lp_tautomer_probability>
1

> <r_epik_Ionization_Penalty>
3.10785e-05

> <r_epik_Ionization_Penalty_Charging>
0

> <r_epik_Ionization_Penalty_Neutral>
3.10785e-05

> <r_epik_State_Penalty>
-0

> <r_epik_Charging_Adjusted_Penalty>
0

> <i_epik_Tot_Q>
0

> <i_epik_Tot_abs_Q>
0

> <r_epik_Metal_State_Penalty>
-0

> <b_epik_Metal_Only>
0

> <s_lp_Force_Field>
OPLS_2005

> <r_lp_Energy>
-3.8093

> <b_lp_Chiralities_Consistent>
1

> <s_lp_Variant>
AV-unprocessed.smi:1336-1

> <Gold.Version>
5.8.1

> <Gold.Id.Protein>
6NUR|6NUR_protein|mol2

> <Gold.PLP.Fitness>
43.5436

> <Gold.PLP.PLP>
-40.3627

> <Gold.PLP.part.hbond>
-2.2884

> <Gold.PLP.part.metal>
0.0000

> <Gold.PLP.part.buried>
-7.0136

> <Gold.PLP.part.nonpolar>
-30.1621

> <Gold.PLP.part.repulsive>
0.2992

> <Gold.PLP.ligand.clash>
0.0000

> <Gold.PLP.ligand.torsion>
1.4901

> <Gold.PLP.Chemscore.Hbond>
2.0000

> <Gold.PLP.Chemscore.CHOScore>
0.0000

> <Gold.PLP.Chemscore.Metal>
0.0000

> <Gold.Chemscore.Hbonds>
donor molecule, donor type, donor heavy atom, donor atom, acceptor molecule, acceptor atom, score
      L1  H     4    28       P1  8029  0.50
      P1  H  6934  6946       L1     6  0.18

> <Gold.PLP.Chemscore.Internal.Correction>
0.1612

> <Gold.Rescore>
     Score         DG    S(hbond)    S(metal)    S(lipo)     H(rot)  DE(clash)    DE(int)     intcor
     15.71     -18.27       1.98        0.00      97.33       2.04       0.06       2.50       ----

> <Gold.Chemscore.Fitness>
15.7136

> <Gold.Chemscore.DG>
-18.2723

> <Gold.Chemscore.ZeroCoef>
-5.4800

> <Gold.Chemscore.Hbond>
1.9806

> <Gold.Chemscore.Metal>
0.0000

> <Gold.Chemscore.Lipo>
97.3301

> <Gold.Chemscore.Internal_Hbond>
0.0000

> <Gold.Chemscore.DEClash>
0.0609

> <Gold.Chemscore.DEInternal>
2.4978

> <Gold.Chemscore.Rot>
2.0353

> <Gold.Chemscore.Internal.Correction>
   9.000000E+99

> <Gold.Chemscore.Hbonds>
donor molecule, donor type, donor heavy atom, donor atom, acceptor molecule, acceptor atom, score
      L1  H     4    28       P1  8029  0.49
      P1  H  6934  6946       L1     6  0.19

> <Gold.Chemscore.Hbond.Weighted>
-6.6150

> <Gold.Chemscore.Metal.Weighted>
-0.0000

> <Gold.Chemscore.Lipo.Weighted>
-11.3876

> <Gold.Chemscore.Internal_Hbond.Weighted>
0.0000

> <Gold.Chemscore.DEClash.Weighted>
0.0609

> <Gold.Chemscore.DEInternal.Weighted>
2.4978

> <Gold.Chemscore.Rot.Weighted>
5.2104

> <Gold.Chemscore.Internal.Correction.Weighted>
   9.000000E+99

> <Gold.Protein.RotatedTorsions>
[ 6907 6896 6895 6894 ] final  -54.66 input  -60.11 | X-H torsion
[ 7974 7965 7964 7962 ] final -100.43 input  175.53 | X-H torsion
[ 8008 7997 7996 7995 ] final   79.88 input   59.86 | X-H torsion
[ 10167 10162 10161 10158 ] final -139.37 input  -65.29 | X-H torsion
[ 10718 10713 10712 10709 ] final  171.09 input   66.30 | X-H torsion
[ 10763 10752 10751 10750 ] final -171.17 input  -60.55 | X-H torsion
[ 11005 11000 10999 10996 ] final   72.94 input  -57.11 | X-H torsion

> <Gold.Protein.ActiveResidues>
 VAL166  LYS551  ARG553  GLY616  TRP617  ASP618  TYR619  PRO620  LYS621  CYS622 
 ASP623  PHE694  ASN695  SER759  ASP760  ASP761  ALA762  ILE779  LEU786  VAL792 
 PHE793  MET794  SER795  GLU796  ALA797  LYS798  CYS799  TRP800  GLU811  SER814 

> <Gold.Protein.RotatedAtoms>
  150.8319  134.7576  159.6860 H   0  0  0  0  0  0  0  0  0  0  0  0  # atno 6907 bound_to 6896
  152.4422  134.5564  159.9891 H   0  0  0  0  0  0  0  0  0  0  0  0  # atno 6908 bound_to 6896
  151.5723  133.3350  159.3028 H   0  0  0  0  0  0  0  0  0  0  0  0  # atno 6909 bound_to 6896
  145.2947  140.9362  143.2858 H   0  0  0  0  0  0  0  0  0  0  0  0  # atno 7974 bound_to 7965
  155.8759  140.3446  155.5853 H   0  0  0  0  0  0  0  0  0  0  0  0  # atno 8008 bound_to 7997
  155.7775  140.0854  157.2095 H   0  0  0  0  0  0  0  0  0  0  0  0  # atno 8009 bound_to 7997
  154.4020  140.1507  156.3001 H   0  0  0  0  0  0  0  0  0  0  0  0  # atno 8010 bound_to 7997
  139.8387  143.7351  152.2664 H   0  0  0  0  0  0  0  0  0  0  0  0  # atno 10167 bound_to 10162
  156.9986  131.0169  151.2837 H   0  0  0  0  0  0  0  0  0  0  0  0  # atno 10718 bound_to 10713
  154.6335  135.2889  155.0189 H   0  0  0  0  0  0  0  0  0  0  0  0  # atno 10763 bound_to 10752
  154.1341  135.6529  153.4932 H   0  0  0  0  0  0  0  0  0  0  0  0  # atno 10764 bound_to 10752
  153.0291  135.5317  154.7172 H   0  0  0  0  0  0  0  0  0  0  0  0  # atno 10765 bound_to 10752
  139.9465  134.7304  156.0967 H   0  0  0  0  0  0  0  0  0  0  0  0  # atno 11005 bound_to 11000
  144.9144  139.4489  143.6571 LP  0  0  0  0  0  0  0  0  0  0  0  0  # atno 17320 bound_to 7965
  146.3173  139.7969  142.8973 LP  0  0  0  0  0  0  0  0  0  0  0  0  # atno 17321 bound_to 7965
  139.7581  144.7514  151.0405 LP  0  0  0  0  0  0  0  0  0  0  0  0  # atno 17342 bound_to 10162
  140.7800  143.4782  151.0054 LP  0  0  0  0  0  0  0  0  0  0  0  0  # atno 17343 bound_to 10162
  157.5407  130.8118  149.8025 LP  0  0  0  0  0  0  0  0  0  0  0  0  # atno 17370 bound_to 10713
  156.0180  130.3806  150.2051 LP  0  0  0  0  0  0  0  0  0  0  0  0  # atno 17371 bound_to 10713
  141.1116  133.6641  156.2994 LP  0  0  0  0  0  0  0  0  0  0  0  0  # atno 17394 bound_to 11000
  140.5822  134.5734  157.5482 LP  0  0  0  0  0  0  0  0  0  0  0  0  # atno 17395 bound_to 11000

$$$$
