AV-unprocessed.smi:3273|AV-procd|sdf|12520|dock10
  -GOLD-   2272018433D 1   1.00000     0.00000
 Structure written by MMmdl.
 41 42  0  0  0  0  0  0  0  0  1 V2000
  147.3876  140.0174  153.3130 C   0  0  0  0  0  0  0  0  0  0  0  0
  148.8023  140.2629  153.8698 C   0  0  0  0  0  0  0  0  0  0  0  0
  149.2912  138.9887  154.5881 C   0  0  0  0  0  0  0  0  0  0  0  0
  148.8798  141.5233  154.7774 C   0  0  2  0  0  0  0  0  0  0  0  0
  150.0915  141.4903  155.7372 C   0  0  0  0  0  0  0  0  0  0  0  0
  150.1024  142.6448  156.6295 N   0  0  0  0  0  0  0  0  0  0  0  0
  150.5511  142.6318  157.8924 C   0  0  0  0  0  0  0  0  0  0  0  0
  151.0147  141.6271  158.4330 O   0  0  0  0  0  0  0  0  0  0  0  0
  150.4506  143.9561  158.6549 C   0  0  0  0  0  0  0  0  0  0  0  0
  151.8045  144.5563  158.9963 C   0  0  0  0  0  0  0  0  0  0  0  0
  152.8998  144.6462  157.9580 C   0  0  0  0  0  0  0  0  0  0  0  0
  153.0339  143.6822  159.1104 C   0  0  0  0  0  0  0  0  0  0  0  0
  147.5990  141.7734  155.5317 C   0  0  0  0  0  0  0  0  0  0  0  0
  147.2708  141.4652  156.8235 C   0  0  0  0  0  0  0  0  0  0  0  0
  145.9465  141.9589  156.9752 C   0  0  0  0  0  0  0  0  0  0  0  0
  145.4904  142.5305  155.8749 N   0  0  0  0  0  0  0  0  0  0  0  0
  146.5020  142.4212  154.9876 N   0  0  0  0  0  0  0  0  0  0  0  0
  146.3287  142.9644  153.6539 C   0  0  0  0  0  0  0  0  0  0  0  0
  146.6558  139.9224  154.1158 H   0  0  0  0  0  0  0  0  0  0  0  0
  147.3525  139.0999  152.7250 H   0  0  0  0  0  0  0  0  0  0  0  0
  147.0625  140.8216  152.6540 H   0  0  0  0  0  0  0  0  0  0  0  0
  149.4676  140.4195  153.0196 H   0  0  0  0  0  0  0  0  0  0  0  0
  148.7118  138.7993  155.4922 H   0  0  0  0  0  0  0  0  0  0  0  0
  150.3413  139.0533  154.8727 H   0  0  0  0  0  0  0  0  0  0  0  0
  149.1948  138.1135  153.9449 H   0  0  0  0  0  0  0  0  0  0  0  0
  149.0471  142.3662  154.1065 H   0  0  0  0  0  0  0  0  0  0  0  0
  150.0592  140.5752  156.3316 H   0  0  0  0  0  0  0  0  0  0  0  0
  151.0318  141.4823  155.1868 H   0  0  0  0  0  0  0  0  0  0  0  0
  149.7334  143.5107  156.2638 H   0  0  0  0  0  0  0  0  0  0  0  0
  149.8837  144.6713  158.0568 H   0  0  0  0  0  0  0  0  0  0  0  0
  149.8899  143.7972  159.5764 H   0  0  0  0  0  0  0  0  0  0  0  0
  151.7492  145.3846  159.7008 H   0  0  0  0  0  0  0  0  0  0  0  0
  152.7054  144.2256  156.9734 H   0  0  0  0  0  0  0  0  0  0  0  0
  153.5298  145.5333  157.9687 H   0  0  0  0  0  0  0  0  0  0  0  0
  153.7503  143.9262  159.8921 H   0  0  0  0  0  0  0  0  0  0  0  0
  152.9251  142.6215  158.8920 H   0  0  0  0  0  0  0  0  0  0  0  0
  147.8886  140.9617  157.5521 H   0  0  0  0  0  0  0  0  0  0  0  0
  145.3096  141.9217  157.8466 H   0  0  0  0  0  0  0  0  0  0  0  0
  147.0918  143.7195  153.4636 H   0  0  0  0  0  0  0  0  0  0  0  0
  145.3452  143.4243  153.5487 H   0  0  0  0  0  0  0  0  0  0  0  0
  146.4231  142.1654  152.9182 H   0  0  0  0  0  0  0  0  0  0  0  0
  1  2  1  0  0  0  0
  1 19  1  0  0  0  0
  1 20  1  0  0  0  0
  1 21  1  0  0  0  0
  2  3  1  0  0  0  0
  2  4  1  0  0  0  0
  2 22  1  0  0  0  0
  3 23  1  0  0  0  0
  3 24  1  0  0  0  0
  3 25  1  0  0  0  0
  4  5  1  0  0  0  0
  4 13  1  0  0  0  0
  4 26  1  0  0  0  0
  5  6  1  0  0  0  0
  5 27  1  0  0  0  0
  5 28  1  0  0  0  0
  6  7  1  0  0  0  0
  6 29  1  0  0  0  0
  7  8  2  0  0  0  0
  7  9  1  0  0  0  0
  9 10  1  0  0  0  0
  9 30  1  0  0  0  0
  9 31  1  0  0  0  0
 10 12  1  0  0  0  0
 10 11  1  0  0  0  0
 10 32  1  0  0  0  0
 11 12  1  0  0  0  0
 11 33  1  0  0  0  0
 11 34  1  0  0  0  0
 12 35  1  0  0  0  0
 12 36  1  0  0  0  0
 13 17  1  0  0  0  0
 13 14  2  0  0  0  0
 14 15  1  0  0  0  0
 14 37  1  0  0  0  0
 15 16  2  0  0  0  0
 15 38  1  0  0  0  0
 16 17  1  0  0  0  0
 17 18  1  0  0  0  0
 18 39  1  0  0  0  0
 18 40  1  0  0  0  0
 18 41  1  0  0  0  0
M  END
> <s_m_source_file>
AV-unprocessed.smi

> <i_m_source_file_index>
3273

> <i_lp_mmshare_version>
43012

> <i_f3d_flags>
0

> <s_epik_input>
W0NIM11uMW5bY0hdW2NIXWMxW0NASF0oW0NIXShbQ0gzXSlbQ0gzXSlbQ0gyXVtOSF1DKD1PKVtDSDJdW0NIXTJbQ0gyXVtDSDJdMg==

> <s_epik_cmdline>
J2VwaWtfcHl0aG9uJywgJy1waCcsICc3LjAnLCAnLXRuJywgJzgnLCAnLW1hJywgJzIwMCcsICctbWV0YWxfYmluZGluZycsICctaW1hZScsICc8aW5maWxlLm1hZT4nLCAnLW9tYWUnLCAnPG91dGZpbGUubWFlPic=

> <r_lp_tautomer_probability>
1

> <r_epik_Ionization_Penalty>
0.00116261

> <r_epik_Ionization_Penalty_Charging>
0

> <r_epik_Ionization_Penalty_Neutral>
0.00116261

> <r_epik_State_Penalty>
-0

> <r_epik_Charging_Adjusted_Penalty>
0

> <i_epik_Tot_Q>
0

> <i_epik_Tot_abs_Q>
0

> <r_epik_Metal_State_Penalty>
-0

> <b_epik_Metal_Only>
0

> <s_lp_Force_Field>
OPLS_2005

> <r_lp_Energy>
13.9008

> <b_lp_Chiralities_Consistent>
1

> <s_lp_Variant>
AV-unprocessed.smi:3273-1

> <Gold.Version>
5.8.1

> <Gold.Id.Protein>
6NUR|6NUR_protein|mol2

> <Gold.PLP.Fitness>
38.5619

> <Gold.PLP.PLP>
-38.5338

> <Gold.PLP.part.hbond>
-1.0000

> <Gold.PLP.part.metal>
0.0000

> <Gold.PLP.part.buried>
-3.2286

> <Gold.PLP.part.nonpolar>
-35.2667

> <Gold.PLP.part.repulsive>
0.1563

> <Gold.PLP.ligand.clash>
0.0000

> <Gold.PLP.ligand.torsion>
1.8366

> <Gold.PLP.Chemscore.Hbond>
1.0000

> <Gold.PLP.Chemscore.CHOScore>
0.0000

> <Gold.PLP.Chemscore.Metal>
0.0000

> <Gold.Chemscore.Hbonds>
donor molecule, donor type, donor heavy atom, donor atom, acceptor molecule, acceptor atom, score
      L1  H     6    29       P1  8028  1.00

> <Gold.PLP.Chemscore.Internal.Correction>
0.7014

> <Gold.Rescore>
     Score         DG    S(hbond)    S(metal)    S(lipo)     H(rot)  DE(clash)    DE(int)     intcor
     13.36     -16.30       1.00        0.00     100.04       1.64       0.19       2.75       ----

> <Gold.Chemscore.Fitness>
13.3620

> <Gold.Chemscore.DG>
-16.3023

> <Gold.Chemscore.ZeroCoef>
-5.4800

> <Gold.Chemscore.Hbond>
0.9950

> <Gold.Chemscore.Metal>
0.0000

> <Gold.Chemscore.Lipo>
100.0438

> <Gold.Chemscore.Internal_Hbond>
0.0000

> <Gold.Chemscore.DEClash>
0.1870

> <Gold.Chemscore.DEInternal>
2.7533

> <Gold.Chemscore.Rot>
1.6430

> <Gold.Chemscore.Internal.Correction>
   9.000000E+99

> <Gold.Chemscore.Hbonds>
donor molecule, donor type, donor heavy atom, donor atom, acceptor molecule, acceptor atom, score
      L1  H     6    29       P1  8028  0.98

> <Gold.Chemscore.Hbond.Weighted>
-3.3234

> <Gold.Chemscore.Metal.Weighted>
-0.0000

> <Gold.Chemscore.Lipo.Weighted>
-11.7051

> <Gold.Chemscore.Internal_Hbond.Weighted>
0.0000

> <Gold.Chemscore.DEClash.Weighted>
0.1870

> <Gold.Chemscore.DEInternal.Weighted>
2.7533

> <Gold.Chemscore.Rot.Weighted>
4.2062

> <Gold.Chemscore.Internal.Correction.Weighted>
   9.000000E+99

> <Gold.Protein.RotatedTorsions>
[ 6907 6896 6895 6894 ] final  -41.16 input  -60.11 | X-H torsion
[ 7974 7965 7964 7962 ] final  -71.16 input  175.53 | X-H torsion
[ 8008 7997 7996 7995 ] final -146.36 input   59.86 | X-H torsion
[ 10167 10162 10161 10158 ] final -122.30 input  -65.29 | X-H torsion
[ 10718 10713 10712 10709 ] final  122.20 input   66.30 | X-H torsion
[ 10763 10752 10751 10750 ] final  -46.64 input  -60.55 | X-H torsion
[ 11005 11000 10999 10996 ] final -140.57 input  -57.11 | X-H torsion

> <Gold.Protein.ActiveResidues>
 VAL166  LYS551  ARG553  GLY616  TRP617  ASP618  TYR619  PRO620  LYS621  CYS622 
 ASP623  PHE694  ASN695  SER759  ASP760  ASP761  ALA762  ILE779  LEU786  VAL792 
 PHE793  MET794  SER795  GLU796  ALA797  LYS798  CYS799  TRP800  GLU811  SER814 

> <Gold.Protein.RotatedAtoms>
  150.9700  134.9074  159.7781 H   0  0  0  0  0  0  0  0  0  0  0  0  # atno 6907 bound_to 6896
  152.5187  134.3554  159.9276 H   0  0  0  0  0  0  0  0  0  0  0  0  # atno 6908 bound_to 6896
  151.3563  133.3865  159.2720 H   0  0  0  0  0  0  0  0  0  0  0  0  # atno 6909 bound_to 6896
  145.6816  140.9185  143.0829 H   0  0  0  0  0  0  0  0  0  0  0  0  # atno 7974 bound_to 7965
  155.5582  140.0623  157.2835 H   0  0  0  0  0  0  0  0  0  0  0  0  # atno 8008 bound_to 7997
  154.4399  140.1890  156.0801 H   0  0  0  0  0  0  0  0  0  0  0  0  # atno 8009 bound_to 7997
  156.0466  140.3289  155.7307 H   0  0  0  0  0  0  0  0  0  0  0  0  # atno 8010 bound_to 7997
  140.0158  143.5395  152.2243 H   0  0  0  0  0  0  0  0  0  0  0  0  # atno 10167 bound_to 10162
  157.5760  131.1079  150.8278 H   0  0  0  0  0  0  0  0  0  0  0  0  # atno 10718 bound_to 10713
  154.0483  135.6634  153.4797 H   0  0  0  0  0  0  0  0  0  0  0  0  # atno 10763 bound_to 10752
  153.0474  135.5106  154.7775 H   0  0  0  0  0  0  0  0  0  0  0  0  # atno 10764 bound_to 10752
  154.6773  135.3039  154.9627 H   0  0  0  0  0  0  0  0  0  0  0  0  # atno 10765 bound_to 10752
  140.8410  134.2402  157.4810 H   0  0  0  0  0  0  0  0  0  0  0  0  # atno 11005 bound_to 11000
  144.7024  139.8704  143.7440 LP  0  0  0  0  0  0  0  0  0  0  0  0  # atno 17320 bound_to 7965
  146.0959  139.3951  143.0377 LP  0  0  0  0  0  0  0  0  0  0  0  0  # atno 17321 bound_to 7965
  139.6174  144.7622  151.2816 LP  0  0  0  0  0  0  0  0  0  0  0  0  # atno 17342 bound_to 10162
  140.7363  143.6712  150.8080 LP  0  0  0  0  0  0  0  0  0  0  0  0  # atno 17343 bound_to 10162
  156.8737  130.5155  149.5295 LP  0  0  0  0  0  0  0  0  0  0  0  0  # atno 17370 bound_to 10713
  156.0805  130.5816  150.9553 LP  0  0  0  0  0  0  0  0  0  0  0  0  # atno 17371 bound_to 10713
  139.8703  134.9635  156.4465 LP  0  0  0  0  0  0  0  0  0  0  0  0  # atno 17394 bound_to 11000
  140.8895  133.7858  155.9556 LP  0  0  0  0  0  0  0  0  0  0  0  0  # atno 17395 bound_to 11000

$$$$
