AV-unprocessed.smi:3|AV-procd|sdf|29|dock2
  -GOLD-   2262015143D 1   1.00000     0.00000
 Structure written by MMmdl.
 34 36  0  0  0  0  0  0  0  0  2 V2000
  153.2237  141.8954  161.5809 C   0  0  0  0  0  0  0  0  0  0  0  0
  153.3838  141.6910  160.1479 N   0  0  0  0  0  0  0  0  0  0  0  0
  154.3420  140.6737  159.7089 C   0  0  0  0  0  0  0  0  0  0  0  0
  154.0267  139.2919  160.2810 C   0  0  1  0  0  0  0  0  0  0  0  0
  152.8854  138.4496  159.6902 C   0  0  0  0  0  0  0  0  0  0  0  0
  153.7285  137.1957  159.9419 C   0  0  1  0  0  0  0  0  0  0  0  0
  153.6867  136.1819  158.9631 O   0  0  0  0  0  0  0  0  0  0  0  0
  154.9540  138.1153  159.9458 C   0  0  0  0  0  0  0  0  0  0  0  0
  152.4387  142.2402  159.2454 C   0  0  0  0  0  0  0  0  0  0  0  0
  152.1640  141.5299  158.1154 N   0  0  0  0  0  0  0  0  0  0  0  0
  151.2894  141.9373  157.1868 C   0  0  0  0  0  0  0  0  0  0  0  0
  150.6130  143.0832  157.2897 N   0  3  0  0  0  0  0  0  0  0  0  0
  150.8538  143.8352  158.3918 C   0  0  0  0  0  0  0  0  0  0  0  0
  150.2954  145.0496  158.7296 N   0  0  0  0  0  0  0  0  0  0  0  0
  150.8117  145.4872  159.9348 C   0  0  0  0  0  0  0  0  0  0  0  0
  151.7124  144.5611  160.3962 C   0  0  0  0  0  0  0  0  0  0  0  0
  151.7608  143.4872  159.4298 C   0  0  0  0  0  0  0  0  0  0  0  0
  153.9128  139.3319  161.3664 H   0  0  0  0  0  0  0  0  0  0  0  0
  153.5414  136.7697  160.9291 H   0  0  0  0  0  0  0  0  0  0  0  0
  149.6114  145.5694  158.1981 H   0  0  0  0  0  0  0  0  0  0  0  0
  153.3822  142.9428  161.8374 H   0  0  0  0  0  0  0  0  0  0  0  0
  153.9506  141.3084  162.1433 H   0  0  0  0  0  0  0  0  0  0  0  0
  152.2306  141.5875  161.9086 H   0  0  0  0  0  0  0  0  0  0  0  0
  154.4195  140.6365  158.6223 H   0  0  0  0  0  0  0  0  0  0  0  0
  155.3316  140.9861  160.0439 H   0  0  0  0  0  0  0  0  0  0  0  0
  151.9542  138.4961  160.2555 H   0  0  0  0  0  0  0  0  0  0  0  0
  152.7181  138.6369  158.6283 H   0  0  0  0  0  0  0  0  0  0  0  0
  154.5784  136.0164  158.6977 H   0  0  0  0  0  0  0  0  0  0  0  0
  155.4207  138.2061  158.9631 H   0  0  0  0  0  0  0  0  0  0  0  0
  155.6905  137.8884  160.7173 H   0  0  0  0  0  0  0  0  0  0  0  0
  151.1035  141.3364  156.3087 H   0  0  0  0  0  0  0  0  0  0  0  0
  150.4964  146.4256  160.3681 H   0  0  0  0  0  0  0  0  0  0  0  0
  152.2747  144.6342  161.3143 H   0  0  0  0  0  0  0  0  0  0  0  0
  149.9490  143.3865  156.5774 H   0  0  0  0  0  0  0  0  0  0  0  0
  1  2  1  0  0  0  0
  1 21  1  0  0  0  0
  1 22  1  0  0  0  0
  1 23  1  0  0  0  0
  2  3  1  0  0  0  0
  2  9  1  0  0  0  0
  3  4  1  0  0  0  0
  3 24  1  0  0  0  0
  3 25  1  0  0  0  0
  4 18  1  0  0  0  0
  4  8  1  0  0  0  0
  4  5  1  0  0  0  0
  5  6  1  0  0  0  0
  5 26  1  0  0  0  0
  5 27  1  0  0  0  0
  6 19  1  0  0  0  0
  6  7  1  0  0  0  0
  6  8  1  0  0  0  0
  7 28  1  0  0  0  0
  8 29  1  0  0  0  0
  8 30  1  0  0  0  0
  9 17  1  0  0  0  0
  9 10  2  0  0  0  0
 10 11  1  0  0  0  0
 11 12  2  0  0  0  0
 11 31  1  0  0  0  0
 12 13  1  0  0  0  0
 12 34  1  0  0  0  0
 13 17  2  0  0  0  0
 13 14  1  0  0  0  0
 14 20  1  0  0  0  0
 14 15  1  0  0  0  0
 15 16  2  0  0  0  0
 15 32  1  0  0  0  0
 16 17  1  0  0  0  0
 16 33  1  0  0  0  0
M  CHG  1  12   1
M  END
> <s_m_source_file>
AV-unprocessed.smi

> <i_m_source_file_index>
3

> <i_lp_mmshare_version>
43012

> <i_f3d_flags>
0

> <s_epik_input>
W25IXTFbY0hdW2NIXWMoYzEyKWMobltjSF1uMilOKFtDSDNdKVtDSDJdW0NASF0zW0NIMl1bQ0BASF0oW09IXSlbQ0gyXTM=

> <s_epik_cmdline>
J2VwaWtfcHl0aG9uJywgJy1waCcsICc3LjAnLCAnLXRuJywgJzgnLCAnLW1hJywgJzIwMCcsICctbWV0YWxfYmluZGluZycsICctaW1hZScsICc8aW5maWxlLm1hZT4nLCAnLW9tYWUnLCAnPG91dGZpbGUubWFlPic=

> <r_lp_tautomer_probability>
1.75997e-05

> <r_epik_Ionization_Penalty>
2.28439

> <r_epik_Ionization_Penalty_Charging>
2.28438

> <r_epik_Ionization_Penalty_Neutral>
1.03791e-05

> <r_epik_State_Penalty>
2.43392

> <r_epik_Charging_Adjusted_Penalty>
4.7183

> <i_epik_Tot_Q>
1

> <i_epik_Tot_abs_Q>
1

> <r_epik_Metal_State_Penalty>
2.4464

> <b_epik_Metal_Only>
0

> <s_lp_Force_Field>
OPLS_2005

> <r_lp_Energy>
16.7386

> <b_lp_Chiralities_Consistent>
1

> <s_lp_Variant>
AV-unprocessed.smi:3-3

> <Gold.Version>
5.8.1

> <Gold.Id.Protein>
6NUR|6NUR_protein|mol2

> <Gold.PLP.Fitness>
51.5240

> <Gold.PLP.PLP>
-37.2548

> <Gold.PLP.part.hbond>
-3.0118

> <Gold.PLP.part.metal>
0.0000

> <Gold.PLP.part.buried>
-3.7954

> <Gold.PLP.part.nonpolar>
-30.1272

> <Gold.PLP.part.repulsive>
0.2103

> <Gold.PLP.ligand.clash>
0.0000

> <Gold.PLP.ligand.torsion>
0.4561

> <Gold.PLP.Chemscore.Hbond>
4.9920

> <Gold.PLP.Chemscore.CHOScore>
0.0000

> <Gold.PLP.Chemscore.Metal>
0.0000

> <Gold.Chemscore.Hbonds>
donor molecule, donor type, donor heavy atom, donor atom, acceptor molecule, acceptor atom, score
      L1  H    12    34       P1  8028  2.00
      L1  H    14    20       P1  8029  2.00
      P1  H  6896  6909       L1     7  0.47

> <Gold.PLP.Chemscore.Internal.Correction>
0.2054

> <Gold.Rescore>
     Score         DG    S(hbond)    S(metal)    S(lipo)     H(rot)  DE(clash)    DE(int)     intcor
     18.67     -18.94       2.83        0.00      75.11       1.86       0.00       0.27       ----

> <Gold.Chemscore.Fitness>
18.6695

> <Gold.Chemscore.DG>
-18.9392

> <Gold.Chemscore.ZeroCoef>
-5.4800

> <Gold.Chemscore.Hbond>
2.8277

> <Gold.Chemscore.Metal>
0.0000

> <Gold.Chemscore.Lipo>
75.1074

> <Gold.Chemscore.Internal_Hbond>
0.0000

> <Gold.Chemscore.DEClash>
0.0004

> <Gold.Chemscore.DEInternal>
0.2693

> <Gold.Chemscore.Rot>
1.8645

> <Gold.Chemscore.Internal.Correction>
   9.000000E+99

> <Gold.Chemscore.Hbonds>
donor molecule, donor type, donor heavy atom, donor atom, acceptor molecule, acceptor atom, score
      L1  H    12    34       P1  8028  0.96
      L1  H    14    20       P1  8029  0.54
      P1  H  6896  6909       L1     7  0.08

> <Gold.Chemscore.Hbond.Weighted>
-9.4446

> <Gold.Chemscore.Metal.Weighted>
-0.0000

> <Gold.Chemscore.Lipo.Weighted>
-8.7876

> <Gold.Chemscore.Internal_Hbond.Weighted>
0.0000

> <Gold.Chemscore.DEClash.Weighted>
0.0004

> <Gold.Chemscore.DEInternal.Weighted>
0.2693

> <Gold.Chemscore.Rot.Weighted>
4.7730

> <Gold.Chemscore.Internal.Correction.Weighted>
   9.000000E+99

> <Gold.Protein.RotatedTorsions>
[ 6907 6896 6895 6894 ] final  165.65 input  -60.11 | X-H torsion
[ 7974 7965 7964 7962 ] final -133.03 input  175.53 | X-H torsion
[ 8008 7997 7996 7995 ] final -108.52 input   59.86 | X-H torsion
[ 10167 10162 10161 10158 ] final    2.79 input  -65.29 | X-H torsion
[ 10718 10713 10712 10709 ] final  -65.55 input   66.30 | X-H torsion
[ 10763 10752 10751 10750 ] final  132.92 input  -60.55 | X-H torsion
[ 11005 11000 10999 10996 ] final   -1.16 input  -57.11 | X-H torsion

> <Gold.Protein.ActiveResidues>
 VAL166  LYS551  ARG553  GLY616  TRP617  ASP618  TYR619  PRO620  LYS621  CYS622 
 ASP623  PHE694  ASN695  SER759  ASP760  ASP761  ALA762  ILE779  LEU786  VAL792 
 PHE793  MET794  SER795  GLU796  ALA797  LYS798  CYS799  TRP800  GLU811  SER814 

> <Gold.Protein.RotatedAtoms>
  151.8911  133.3516  159.3798 H   0  0  0  0  0  0  0  0  0  0  0  0  # atno 6907 bound_to 6896
  150.7103  134.4923  159.5531 H   0  0  0  0  0  0  0  0  0  0  0  0  # atno 6908 bound_to 6896
  152.2493  134.8149  160.0499 H   0  0  0  0  0  0  0  0  0  0  0  0  # atno 6909 bound_to 6896
  144.9231  140.7038  143.4953 H   0  0  0  0  0  0  0  0  0  0  0  0  # atno 7974 bound_to 7965
  154.9455  140.0402  157.2118 H   0  0  0  0  0  0  0  0  0  0  0  0  # atno 8008 bound_to 7997
  154.8028  140.2854  155.5887 H   0  0  0  0  0  0  0  0  0  0  0  0  # atno 8009 bound_to 7997
  156.2963  140.2552  156.2900 H   0  0  0  0  0  0  0  0  0  0  0  0  # atno 8010 bound_to 7997
  140.6618  143.7284  150.7752 H   0  0  0  0  0  0  0  0  0  0  0  0  # atno 10167 bound_to 10162
  156.0663  130.4249  150.1580 H   0  0  0  0  0  0  0  0  0  0  0  0  # atno 10718 bound_to 10713
  153.7987  135.3145  155.3387 H   0  0  0  0  0  0  0  0  0  0  0  0  # atno 10763 bound_to 10752
  154.8097  135.4675  154.0488 H   0  0  0  0  0  0  0  0  0  0  0  0  # atno 10764 bound_to 10752
  153.1829  135.6896  153.8541 H   0  0  0  0  0  0  0  0  0  0  0  0  # atno 10765 bound_to 10752
  140.6443  133.9461  155.8343 H   0  0  0  0  0  0  0  0  0  0  0  0  # atno 11005 bound_to 11000
  145.3264  139.1773  143.4560 LP  0  0  0  0  0  0  0  0  0  0  0  0  # atno 17320 bound_to 7965
  146.3214  140.3288  142.8639 LP  0  0  0  0  0  0  0  0  0  0  0  0  # atno 17321 bound_to 7965
  140.0954  143.4837  152.2455 LP  0  0  0  0  0  0  0  0  0  0  0  0  # atno 17342 bound_to 10162
  139.5854  144.7528  151.3534 LP  0  0  0  0  0  0  0  0  0  0  0  0  # atno 17343 bound_to 10162
  156.9639  130.9813  151.3473 LP  0  0  0  0  0  0  0  0  0  0  0  0  # atno 17370 bound_to 10713
  157.5707  130.8308  149.8387 LP  0  0  0  0  0  0  0  0  0  0  0  0  # atno 17371 bound_to 10713
  141.0584  134.0383  157.3692 LP  0  0  0  0  0  0  0  0  0  0  0  0  # atno 17394 bound_to 11000
  139.9069  135.0181  156.7523 LP  0  0  0  0  0  0  0  0  0  0  0  0  # atno 17395 bound_to 11000

$$$$
