AV-unprocessed.smi:1346|AV-procd|sdf|5514|dock9
  -GOLD-   22720 5103D 1   1.00000     0.00000
 Structure written by MMmdl.
 47 48  0  0  0  0  0  0  0  0  1 V2000
  148.1196  137.6571  154.9516 C   0  0  0  0  0  0  0  0  0  0  0  0
  149.5944  137.8542  154.7472 C   0  0  0  0  0  0  0  0  0  0  0  0
  150.4199  136.8356  154.9198 N   0  0  0  0  0  0  0  0  0  0  0  0
  151.7007  137.3327  154.6614 O   0  0  0  0  0  0  0  0  0  0  0  0
  151.5951  138.6471  154.3400 C   0  0  0  0  0  0  0  0  0  0  0  0
  152.8667  139.3614  154.0290 C   0  0  0  0  0  0  0  0  0  0  0  0
  150.2860  139.0433  154.3771 C   0  0  0  0  0  0  0  0  0  0  0  0
  149.7030  140.4046  154.0981 C   0  0  0  0  0  0  0  0  0  0  0  0
  149.0944  140.9773  155.3780 C   0  0  0  0  0  0  0  0  0  0  0  0
  147.8973  141.2603  155.4175 O   0  0  0  0  0  0  0  0  0  0  0  0
  149.9282  141.1411  156.4162 N   0  0  0  0  0  0  0  0  0  0  0  0
  149.5511  141.6598  157.7263 C   0  0  0  0  0  0  0  0  0  0  0  0
  150.5213  142.7479  158.2073 C   0  0  0  0  0  0  0  0  0  0  0  0
  151.4753  142.1648  159.0820 O   0  0  0  0  0  0  0  0  0  0  0  0
  152.6979  142.8870  159.1815 C   0  0  2  0  0  0  0  0  0  0  0  0
  153.8106  141.8868  159.5472 C   0  0  0  0  0  0  0  0  0  0  0  0
  153.6199  141.3013  160.9568 C   0  0  0  0  0  0  0  0  0  0  0  0
  153.4983  142.4116  162.0110 C   0  0  0  0  0  0  0  0  0  0  0  0
  152.3720  143.3954  161.6563 C   0  0  0  0  0  0  0  0  0  0  0  0
  152.5709  143.9976  160.2512 C   0  0  2  0  0  0  0  0  0  0  0  0
  151.4790  145.0240  159.9128 C   0  0  0  0  0  0  0  0  0  0  0  0
  147.5485  138.1212  154.1477 H   0  0  0  0  0  0  0  0  0  0  0  0
  147.7946  138.1044  155.8911 H   0  0  0  0  0  0  0  0  0  0  0  0
  147.8522  136.6001  154.9765 H   0  0  0  0  0  0  0  0  0  0  0  0
  152.6894  140.1995  153.3554 H   0  0  0  0  0  0  0  0  0  0  0  0
  153.5818  138.6925  153.5500 H   0  0  0  0  0  0  0  0  0  0  0  0
  153.3230  139.7496  154.9395 H   0  0  0  0  0  0  0  0  0  0  0  0
  150.4644  141.0959  153.7353 H   0  0  0  0  0  0  0  0  0  0  0  0
  148.9428  140.3596  153.3170 H   0  0  0  0  0  0  0  0  0  0  0  0
  150.8946  140.8748  156.2946 H   0  0  0  0  0  0  0  0  0  0  0  0
  148.5415  142.0655  157.6596 H   0  0  0  0  0  0  0  0  0  0  0  0
  149.5114  140.8439  158.4499 H   0  0  0  0  0  0  0  0  0  0  0  0
  151.0359  143.1901  157.3532 H   0  0  0  0  0  0  0  0  0  0  0  0
  149.9759  143.5497  158.7068 H   0  0  0  0  0  0  0  0  0  0  0  0
  152.9597  143.3421  158.2238 H   0  0  0  0  0  0  0  0  0  0  0  0
  153.8454  141.0827  158.8114 H   0  0  0  0  0  0  0  0  0  0  0  0
  154.7771  142.3896  159.4962 H   0  0  0  0  0  0  0  0  0  0  0  0
  152.7250  140.6780  160.9781 H   0  0  0  0  0  0  0  0  0  0  0  0
  154.4564  140.6465  161.2024 H   0  0  0  0  0  0  0  0  0  0  0  0
  153.3150  141.9739  162.9925 H   0  0  0  0  0  0  0  0  0  0  0  0
  154.4436  142.9507  162.0849 H   0  0  0  0  0  0  0  0  0  0  0  0
  151.4097  142.8839  161.7081 H   0  0  0  0  0  0  0  0  0  0  0  0
  152.3372  144.1908  162.4015 H   0  0  0  0  0  0  0  0  0  0  0  0
  153.5168  144.5410  160.2629 H   0  0  0  0  0  0  0  0  0  0  0  0
  150.4879  144.5710  159.9265 H   0  0  0  0  0  0  0  0  0  0  0  0
  151.6364  145.4549  158.9237 H   0  0  0  0  0  0  0  0  0  0  0  0
  151.4756  145.8434  160.6319 H   0  0  0  0  0  0  0  0  0  0  0  0
  1  2  1  0  0  0  0
  1 22  1  0  0  0  0
  1 23  1  0  0  0  0
  1 24  1  0  0  0  0
  2  7  1  0  0  0  0
  2  3  2  0  0  0  0
  3  4  1  0  0  0  0
  4  5  1  0  0  0  0
  5  6  1  0  0  0  0
  5  7  2  0  0  0  0
  6 25  1  0  0  0  0
  6 26  1  0  0  0  0
  6 27  1  0  0  0  0
  7  8  1  0  0  0  0
  8  9  1  0  0  0  0
  8 28  1  0  0  0  0
  8 29  1  0  0  0  0
  9 10  2  0  0  0  0
  9 11  1  0  0  0  0
 11 12  1  0  0  0  0
 11 30  1  0  0  0  0
 12 13  1  0  0  0  0
 12 31  1  0  0  0  0
 12 32  1  0  0  0  0
 13 14  1  0  0  0  0
 13 33  1  0  0  0  0
 13 34  1  0  0  0  0
 14 15  1  0  0  0  0
 15 20  1  0  0  0  0
 15 16  1  0  0  0  0
 15 35  1  0  0  0  0
 16 17  1  0  0  0  0
 16 36  1  0  0  0  0
 16 37  1  0  0  0  0
 17 18  1  0  0  0  0
 17 38  1  0  0  0  0
 17 39  1  0  0  0  0
 18 19  1  0  0  0  0
 18 40  1  0  0  0  0
 18 41  1  0  0  0  0
 19 20  1  0  0  0  0
 19 42  1  0  0  0  0
 19 43  1  0  0  0  0
 20 21  1  0  0  0  0
 20 44  1  0  0  0  0
 21 45  1  0  0  0  0
 21 46  1  0  0  0  0
 21 47  1  0  0  0  0
M  END
> <s_m_source_file>
AV-unprocessed.smi

> <i_m_source_file_index>
1346

> <i_lp_mmshare_version>
43012

> <i_f3d_flags>
0

> <s_epik_input>
W0NIM11jMW5vYyhbQ0gzXSljMVtDSDJdQyg9TylbTkhdW0NIMl1bQ0gyXU9bQ0BASF0yW0NIMl1bQ0gyXVtDSDJdW0NIMl1bQ0BIXTJbQ0gzXQ==

> <s_epik_cmdline>
J2VwaWtfcHl0aG9uJywgJy1waCcsICc3LjAnLCAnLXRuJywgJzgnLCAnLW1hJywgJzIwMCcsICctbWV0YWxfYmluZGluZycsICctaW1hZScsICc8aW5maWxlLm1hZT4nLCAnLW9tYWUnLCAnPG91dGZpbGUubWFlPic=

> <r_lp_tautomer_probability>
1

> <r_epik_Ionization_Penalty>
3.26154e-08

> <r_epik_Ionization_Penalty_Charging>
0

> <r_epik_Ionization_Penalty_Neutral>
3.26154e-08

> <r_epik_State_Penalty>
-0

> <r_epik_Charging_Adjusted_Penalty>
0

> <i_epik_Tot_Q>
0

> <i_epik_Tot_abs_Q>
0

> <r_epik_Metal_State_Penalty>
-0

> <b_epik_Metal_Only>
0

> <s_lp_Force_Field>
OPLS_2005

> <r_lp_Energy>
6.35262

> <b_lp_Chiralities_Consistent>
1

> <s_lp_Variant>
AV-unprocessed.smi:1346-3

> <Gold.Version>
5.8.1

> <Gold.Id.Protein>
6NUR|6NUR_protein|mol2

> <Gold.PLP.Fitness>
47.1350

> <Gold.PLP.PLP>
-45.6055

> <Gold.PLP.part.hbond>
-1.0000

> <Gold.PLP.part.metal>
0.0000

> <Gold.PLP.part.buried>
-5.1390

> <Gold.PLP.part.nonpolar>
-39.3177

> <Gold.PLP.part.repulsive>
0.2633

> <Gold.PLP.ligand.clash>
0.0000

> <Gold.PLP.ligand.torsion>
0.7856

> <Gold.PLP.Chemscore.Hbond>
1.0000

> <Gold.PLP.Chemscore.CHOScore>
0.0000

> <Gold.PLP.Chemscore.Metal>
0.0000

> <Gold.Chemscore.Hbonds>
donor molecule, donor type, donor heavy atom, donor atom, acceptor molecule, acceptor atom, score
      P1  H 10752 10764       L1     4  0.61

> <Gold.PLP.Chemscore.Internal.Correction>
0.1006

> <Gold.Rescore>
     Score         DG    S(hbond)    S(metal)    S(lipo)     H(rot)  DE(clash)    DE(int)     intcor
     17.66     -19.60       0.95        0.00     131.50       1.74       1.01       0.93       ----

> <Gold.Chemscore.Fitness>
17.6580

> <Gold.Chemscore.DG>
-19.5958

> <Gold.Chemscore.ZeroCoef>
-5.4800

> <Gold.Chemscore.Hbond>
0.9500

> <Gold.Chemscore.Metal>
0.0000

> <Gold.Chemscore.Lipo>
131.4950

> <Gold.Chemscore.Internal_Hbond>
0.0000

> <Gold.Chemscore.DEClash>
1.0100

> <Gold.Chemscore.DEInternal>
0.9278

> <Gold.Chemscore.Rot>
1.7352

> <Gold.Chemscore.Internal.Correction>
   9.000000E+99

> <Gold.Chemscore.Hbonds>
donor molecule, donor type, donor heavy atom, donor atom, acceptor molecule, acceptor atom, score
      P1  H 10752 10764       L1     4  0.30

> <Gold.Chemscore.Hbond.Weighted>
-3.1729

> <Gold.Chemscore.Metal.Weighted>
-0.0000

> <Gold.Chemscore.Lipo.Weighted>
-15.3849

> <Gold.Chemscore.Internal_Hbond.Weighted>
0.0000

> <Gold.Chemscore.DEClash.Weighted>
1.0100

> <Gold.Chemscore.DEInternal.Weighted>
0.9278

> <Gold.Chemscore.Rot.Weighted>
4.4420

> <Gold.Chemscore.Internal.Correction.Weighted>
   9.000000E+99

> <Gold.Protein.RotatedTorsions>
[ 6907 6896 6895 6894 ] final  -55.56 input  -60.11 | X-H torsion
[ 7974 7965 7964 7962 ] final   66.73 input  175.53 | X-H torsion
[ 8008 7997 7996 7995 ] final   75.90 input   59.86 | X-H torsion
[ 10167 10162 10161 10158 ] final    2.77 input  -65.29 | X-H torsion
[ 10718 10713 10712 10709 ] final   33.28 input   66.30 | X-H torsion
[ 10763 10752 10751 10750 ] final  -54.00 input  -60.55 | X-H torsion
[ 11005 11000 10999 10996 ] final  117.41 input  -57.11 | X-H torsion

> <Gold.Protein.ActiveResidues>
 VAL166  LYS551  ARG553  GLY616  TRP617  ASP618  TYR619  PRO620  LYS621  CYS622 
 ASP623  PHE694  ASN695  SER759  ASP760  ASP761  ALA762  ILE779  LEU786  VAL792 
 PHE793  MET794  SER795  GLU796  ALA797  LYS798  CYS799  TRP800  GLU811  SER814 

> <Gold.Protein.RotatedAtoms>
  150.8241  134.7464  159.6797 H   0  0  0  0  0  0  0  0  0  0  0  0  # atno 6907 bound_to 6896
  152.4354  134.5693  159.9926 H   0  0  0  0  0  0  0  0  0  0  0  0  # atno 6908 bound_to 6896
  151.5870  133.3333  159.3056 H   0  0  0  0  0  0  0  0  0  0  0  0  # atno 6909 bound_to 6896
  145.8231  139.3096  143.1032 H   0  0  0  0  0  0  0  0  0  0  0  0  # atno 7974 bound_to 7965
  155.8195  140.3470  155.5506 H   0  0  0  0  0  0  0  0  0  0  0  0  # atno 8008 bound_to 7997
  155.8357  140.0934  157.1786 H   0  0  0  0  0  0  0  0  0  0  0  0  # atno 8009 bound_to 7997
  154.4004  140.1404  156.3654 H   0  0  0  0  0  0  0  0  0  0  0  0  # atno 8010 bound_to 7997
  140.6618  143.7283  150.7754 H   0  0  0  0  0  0  0  0  0  0  0  0  # atno 10167 bound_to 10162
  157.2959  130.7326  149.6638 H   0  0  0  0  0  0  0  0  0  0  0  0  # atno 10718 bound_to 10713
  154.1678  135.6464  153.5002 H   0  0  0  0  0  0  0  0  0  0  0  0  # atno 10763 bound_to 10752
  153.0093  135.5376  154.6644 H   0  0  0  0  0  0  0  0  0  0  0  0  # atno 10764 bound_to 10752
  154.5975  135.2940  155.0542 H   0  0  0  0  0  0  0  0  0  0  0  0  # atno 10765 bound_to 10752
  139.9074  134.9610  156.7347 H   0  0  0  0  0  0  0  0  0  0  0  0  # atno 11005 bound_to 11000
  145.9653  140.8803  143.0190 LP  0  0  0  0  0  0  0  0  0  0  0  0  # atno 17320 bound_to 7965
  144.6746  140.1870  143.7400 LP  0  0  0  0  0  0  0  0  0  0  0  0  # atno 17321 bound_to 7965
  140.0953  143.4839  152.2456 LP  0  0  0  0  0  0  0  0  0  0  0  0  # atno 17342 bound_to 10162
  139.5855  144.7529  151.3532 LP  0  0  0  0  0  0  0  0  0  0  0  0  # atno 17343 bound_to 10162
  155.9669  130.4294  150.4833 LP  0  0  0  0  0  0  0  0  0  0  0  0  # atno 17370 bound_to 10713
  157.2805  131.0606  151.2201 LP  0  0  0  0  0  0  0  0  0  0  0  0  # atno 17371 bound_to 10713
  140.6897  133.9401  155.7959 LP  0  0  0  0  0  0  0  0  0  0  0  0  # atno 17394 bound_to 11000
  141.0450  134.0566  157.3855 LP  0  0  0  0  0  0  0  0  0  0  0  0  # atno 17395 bound_to 11000

$$$$
