AV-unprocessed.smi:21|AV-procd|sdf|147|dock8
  -GOLD-   2262015363D 1   1.00000     0.00000
 Structure written by MMmdl.
 62 65  0  0  0  0  0  0  0  0  2 V2000
  144.1697  132.6191  151.2172 C   0  0  0  0  0  0  0  0  0  0  0  0
  144.2721  134.0018  151.5170 O   0  0  0  0  0  0  0  0  0  0  0  0
  145.5310  134.5655  151.1758 C   0  0  1  0  0  0  0  0  0  0  0  0
  145.5970  135.9681  151.7636 C   0  0  0  0  0  0  0  0  0  0  0  0
  146.1284  135.7598  153.1851 C   0  0  2  0  0  0  0  0  0  0  0  0
  146.7999  137.0116  153.7993 C   0  0  0  0  0  0  0  0  0  0  0  0
  145.9068  137.7884  154.6612 N   0  0  0  0  0  0  0  0  0  0  0  0
  144.6707  138.3062  154.0892 C   0  0  0  0  0  0  0  0  0  0  0  0
  146.4794  138.4581  155.6938 C   0  0  0  0  0  0  0  0  0  0  0  0
  146.4754  137.8574  156.9121 N   0  0  0  0  0  0  0  0  0  0  0  0
  147.0890  138.4295  157.9512 C   0  0  0  0  0  0  0  0  0  0  0  0
  147.7808  139.5689  157.9855 N   0  0  0  0  0  0  0  0  0  0  0  0
  147.7931  140.1768  156.7654 C   0  0  0  0  0  0  0  0  0  0  0  0
  147.1524  139.7110  155.5819 C   0  0  0  0  0  0  0  0  0  0  0  0
  147.3931  140.6011  154.5404 N   0  0  0  0  0  0  0  0  0  0  0  0
  148.1434  141.5267  155.0713 C   0  0  0  0  0  0  0  0  0  0  0  0
  148.4682  141.3256  156.3930 N   0  0  0  0  0  0  0  0  0  0  0  0
  149.3299  142.1591  157.2111 C   0  0  0  0  0  0  0  0  0  0  0  0
  150.7886  142.2785  156.6902 C   0  0  2  0  0  0  0  0  0  0  0  0
  151.3645  140.8617  156.4624 C   0  0  0  0  0  0  0  0  0  0  0  0
  150.8881  140.2906  155.2604 O   0  0  0  0  0  0  0  0  0  0  0  0
  151.7240  143.1738  157.5593 C   0  0  1  0  0  0  0  0  0  0  0  0
  151.3305  144.6424  157.6083 C   0  0  0  0  0  0  0  0  0  0  0  0
  152.0830  145.1405  158.8339 C   0  0  0  0  0  0  0  0  0  0  0  0
  151.9909  144.0714  159.7621 O   0  0  0  0  0  0  0  0  0  0  0  0
  151.7610  142.8514  159.0637 C   0  0  0  0  0  0  0  0  0  0  0  0
  147.0828  134.6364  153.0504 N   0  3  1  0  0  0  0  0  0  0  0  0
  147.2813  133.8490  154.2869 C   0  0  0  0  0  0  0  0  0  0  0  0
  146.6727  133.8175  151.8835 C   0  0  0  0  0  0  0  0  0  0  0  0
  145.6595  134.5985  150.0924 H   0  0  0  0  0  0  0  0  0  0  0  0
  145.3009  135.4293  153.8156 H   0  0  0  0  0  0  0  0  0  0  0  0
  143.1904  132.2517  151.5235 H   0  0  0  0  0  0  0  0  0  0  0  0
  144.9267  132.0350  151.7413 H   0  0  0  0  0  0  0  0  0  0  0  0
  144.2721  132.4417  150.1458 H   0  0  0  0  0  0  0  0  0  0  0  0
  146.2982  136.5709  151.1849 H   0  0  0  0  0  0  0  0  0  0  0  0
  144.6295  136.4672  151.7397 H   0  0  0  0  0  0  0  0  0  0  0  0
  147.6487  136.7059  154.4110 H   0  0  0  0  0  0  0  0  0  0  0  0
  147.2221  137.6373  153.0122 H   0  0  0  0  0  0  0  0  0  0  0  0
  144.0002  138.6691  154.8691 H   0  0  0  0  0  0  0  0  0  0  0  0
  144.1491  137.5194  153.5443 H   0  0  0  0  0  0  0  0  0  0  0  0
  144.8719  139.1213  153.3941 H   0  0  0  0  0  0  0  0  0  0  0  0
  147.0326  137.8883  158.8843 H   0  0  0  0  0  0  0  0  0  0  0  0
  148.5124  142.3658  154.4993 H   0  0  0  0  0  0  0  0  0  0  0  0
  148.8765  143.1480  157.2878 H   0  0  0  0  0  0  0  0  0  0  0  0
  149.3257  141.7407  158.2184 H   0  0  0  0  0  0  0  0  0  0  0  0
  150.7429  142.7351  155.7009 H   0  0  0  0  0  0  0  0  0  0  0  0
  152.4538  140.8964  156.4232 H   0  0  0  0  0  0  0  0  0  0  0  0
  151.1145  140.1979  157.2897 H   0  0  0  0  0  0  0  0  0  0  0  0
  150.1842  140.8276  154.9304 H   0  0  0  0  0  0  0  0  0  0  0  0
  152.7412  143.1137  157.1688 H   0  0  0  0  0  0  0  0  0  0  0  0
  151.6016  145.1911  156.7058 H   0  0  0  0  0  0  0  0  0  0  0  0
  150.2556  144.7465  157.7645 H   0  0  0  0  0  0  0  0  0  0  0  0
  153.1329  145.3143  158.5944 H   0  0  0  0  0  0  0  0  0  0  0  0
  151.6667  146.0623  159.2408 H   0  0  0  0  0  0  0  0  0  0  0  0
  150.8081  142.4483  159.4071 H   0  0  0  0  0  0  0  0  0  0  0  0
  152.5427  142.1343  159.3103 H   0  0  0  0  0  0  0  0  0  0  0  0
  146.3510  133.3777  154.6067 H   0  0  0  0  0  0  0  0  0  0  0  0
  147.6412  134.4812  155.0985 H   0  0  0  0  0  0  0  0  0  0  0  0
  148.0220  133.0658  154.1220 H   0  0  0  0  0  0  0  0  0  0  0  0
  146.3719  132.8104  152.1758 H   0  0  0  0  0  0  0  0  0  0  0  0
  147.5330  133.7167  151.2215 H   0  0  0  0  0  0  0  0  0  0  0  0
  147.9725  135.0469  152.8050 H   0  0  0  0  0  0  0  0  0  0  0  0
  1  2  1  0  0  0  0
  1 32  1  0  0  0  0
  1 33  1  0  0  0  0
  1 34  1  0  0  0  0
  2  3  1  0  0  0  0
  3 30  1  0  0  0  0
  3 29  1  0  0  0  0
  3  4  1  0  0  0  0
  4  5  1  0  0  0  0
  4 35  1  0  0  0  0
  4 36  1  0  0  0  0
  5 31  1  0  0  0  0
  5  6  1  0  0  0  0
  5 27  1  0  0  0  0
  6  7  1  0  0  0  0
  6 37  1  0  0  0  0
  6 38  1  0  0  0  0
  7  8  1  0  0  0  0
  7  9  1  0  0  0  0
  8 39  1  0  0  0  0
  8 40  1  0  0  0  0
  8 41  1  0  0  0  0
  9 14  1  0  0  0  0
  9 10  2  0  0  0  0
 10 11  1  0  0  0  0
 11 12  2  0  0  0  0
 11 42  1  0  0  0  0
 12 13  1  0  0  0  0
 13 17  1  0  0  0  0
 13 14  2  0  0  0  0
 14 15  1  0  0  0  0
 15 16  2  0  0  0  0
 16 17  1  0  0  0  0
 16 43  1  0  0  0  0
 17 18  1  0  0  0  0
 18 19  1  0  0  0  0
 18 44  1  0  0  0  0
 18 45  1  0  0  0  0
 19 20  1  0  0  0  0
 19 22  1  0  0  0  0
 19 46  1  0  0  0  0
 20 21  1  0  0  0  0
 20 47  1  0  0  0  0
 20 48  1  0  0  0  0
 21 49  1  0  0  0  0
 22 26  1  0  0  0  0
 22 23  1  0  0  0  0
 22 50  1  0  0  0  0
 23 24  1  0  0  0  0
 23 51  1  0  0  0  0
 23 52  1  0  0  0  0
 24 25  1  0  0  0  0
 24 53  1  0  0  0  0
 24 54  1  0  0  0  0
 25 26  1  0  0  0  0
 26 55  1  0  0  0  0
 26 56  1  0  0  0  0
 27 28  1  0  0  0  0
 27 29  1  0  0  0  0
 27 62  1  0  0  0  0
 28 57  1  0  0  0  0
 28 58  1  0  0  0  0
 28 59  1  0  0  0  0
 29 60  1  0  0  0  0
 29 61  1  0  0  0  0
M  CHG  1  27   1
M  END
> <s_m_source_file>
AV-unprocessed.smi

> <i_m_source_file_index>
21

> <i_lp_mmshare_version>
43012

> <i_f3d_flags>
0

> <s_epik_input>
W0NIM11PW0NASF0xW0NIMl1bQ0BIXShOKFtDSDNdKVtDSDJdMSlbQ0gyXU4oW0NIM10pYyhuW2NIXW4yKWMoYzIzKW5bY0hdbjNbQ0gyXVtDQEhdKFtDSDJdW09IXSlbQ0BASF00W0NIMl1bQ0gyXU9bQ0gyXTQ=

> <s_epik_cmdline>
J2VwaWtfcHl0aG9uJywgJy1waCcsICc3LjAnLCAnLXRuJywgJzgnLCAnLW1hJywgJzIwMCcsICctbWV0YWxfYmluZGluZycsICctaW1hZScsICc8aW5maWxlLm1hZT4nLCAnLW9tYWUnLCAnPG91dGZpbGUubWFlPic=

> <r_lp_tautomer_probability>
1

> <r_epik_Ionization_Penalty>
0.0157465

> <r_epik_Ionization_Penalty_Charging>
0.015354

> <r_epik_Ionization_Penalty_Neutral>
0.000392529

> <r_epik_State_Penalty>
0.0120612

> <r_epik_Charging_Adjusted_Penalty>
0.0274152

> <i_epik_Tot_Q>
1

> <i_epik_Tot_abs_Q>
1

> <r_epik_Metal_State_Penalty>
0.0121253

> <b_epik_Metal_Only>
0

> <s_lp_Force_Field>
OPLS_2005

> <r_lp_Energy>
57.9391

> <b_lp_Chiralities_Consistent>
1

> <s_lp_Variant>
AV-unprocessed.smi:21-27

> <Gold.Version>
5.8.1

> <Gold.Id.Protein>
6NUR|6NUR_protein|mol2

> <Gold.PLP.Fitness>
47.9095

> <Gold.PLP.PLP>
-40.0767

> <Gold.PLP.part.hbond>
-2.6231

> <Gold.PLP.part.metal>
0.0000

> <Gold.PLP.part.buried>
-6.8941

> <Gold.PLP.part.nonpolar>
-31.5377

> <Gold.PLP.part.repulsive>
0.2512

> <Gold.PLP.ligand.clash>
0.0000

> <Gold.PLP.ligand.torsion>
2.4469

> <Gold.PLP.Chemscore.Hbond>
3.0000

> <Gold.PLP.Chemscore.CHOScore>
1.0000

> <Gold.PLP.Chemscore.Metal>
0.0000

> <Gold.Chemscore.Hbonds>
donor molecule, donor type, donor heavy atom, donor atom, acceptor molecule, acceptor atom, score
      L1  H    27    62       P1  7948  2.00
      L1  C    16    43       P1  8028  0.62

> <Gold.PLP.Chemscore.Internal.Correction>
0.7265

> <Gold.Rescore>
     Score         DG    S(hbond)    S(metal)    S(lipo)     H(rot)  DE(clash)    DE(int)     intcor
     11.33     -15.42       1.89        0.00      98.42       3.08       0.17       3.92       ----

> <Gold.Chemscore.Fitness>
11.3267

> <Gold.Chemscore.DG>
-15.4223

> <Gold.Chemscore.ZeroCoef>
-5.4800

> <Gold.Chemscore.Hbond>
1.8865

> <Gold.Chemscore.Metal>
0.0000

> <Gold.Chemscore.Lipo>
98.4230

> <Gold.Chemscore.Internal_Hbond>
0.0000

> <Gold.Chemscore.DEClash>
0.1717

> <Gold.Chemscore.DEInternal>
3.9239

> <Gold.Chemscore.Rot>
3.0758

> <Gold.Chemscore.Internal.Correction>
   9.000000E+99

> <Gold.Chemscore.Hbonds>
donor molecule, donor type, donor heavy atom, donor atom, acceptor molecule, acceptor atom, score
      L1  H    27    62       P1  7948  0.92

> <Gold.Chemscore.Hbond.Weighted>
-6.3009

> <Gold.Chemscore.Metal.Weighted>
-0.0000

> <Gold.Chemscore.Lipo.Weighted>
-11.5155

> <Gold.Chemscore.Internal_Hbond.Weighted>
0.0000

> <Gold.Chemscore.DEClash.Weighted>
0.1717

> <Gold.Chemscore.DEInternal.Weighted>
3.9239

> <Gold.Chemscore.Rot.Weighted>
7.8741

> <Gold.Chemscore.Internal.Correction.Weighted>
   9.000000E+99

> <Gold.Protein.RotatedTorsions>
[ 6907 6896 6895 6894 ] final -164.22 input  -60.11 | X-H torsion
[ 7974 7965 7964 7962 ] final   75.16 input  175.53 | X-H torsion
[ 8008 7997 7996 7995 ] final  -86.81 input   59.86 | X-H torsion
[ 10167 10162 10161 10158 ] final  164.53 input  -65.29 | X-H torsion
[ 10718 10713 10712 10709 ] final  -48.25 input   66.30 | X-H torsion
[ 10763 10752 10751 10750 ] final   52.74 input  -60.55 | X-H torsion
[ 11005 11000 10999 10996 ] final   95.67 input  -57.11 | X-H torsion

> <Gold.Protein.ActiveResidues>
 VAL166  LYS551  ARG553  GLY616  TRP617  ASP618  TYR619  PRO620  LYS621  CYS622 
 ASP623  PHE694  ASN695  SER759  ASP760  ASP761  ALA762  ILE779  LEU786  VAL792 
 PHE793  MET794  SER795  GLU796  ALA797  LYS798  CYS799  TRP800  GLU811  SER814 

> <Gold.Protein.RotatedAtoms>
  151.4084  133.3735  159.2740 H   0  0  0  0  0  0  0  0  0  0  0  0  # atno 6907 bound_to 6896
  150.9381  134.8793  159.7605 H   0  0  0  0  0  0  0  0  0  0  0  0  # atno 6908 bound_to 6896
  152.5059  134.4033  159.9476 H   0  0  0  0  0  0  0  0  0  0  0  0  # atno 6909 bound_to 6896
  145.7191  139.2642  143.1606 H   0  0  0  0  0  0  0  0  0  0  0  0  # atno 7974 bound_to 7965
  154.6561  140.0573  157.0010 H   0  0  0  0  0  0  0  0  0  0  0  0  # atno 8008 bound_to 7997
  155.1298  140.3255  155.4458 H   0  0  0  0  0  0  0  0  0  0  0  0  # atno 8009 bound_to 7997
  156.2598  140.1983  156.6417 H   0  0  0  0  0  0  0  0  0  0  0  0  # atno 8010 bound_to 7997
  139.4890  144.4226  151.9168 H   0  0  0  0  0  0  0  0  0  0  0  0  # atno 10167 bound_to 10162
  156.2006  130.4156  149.9247 H   0  0  0  0  0  0  0  0  0  0  0  0  # atno 10718 bound_to 10713
  152.9790  135.5802  154.4628 H   0  0  0  0  0  0  0  0  0  0  0  0  # atno 10763 bound_to 10752
  154.4202  135.2771  155.1982 H   0  0  0  0  0  0  0  0  0  0  0  0  # atno 10764 bound_to 10752
  154.3735  135.6162  153.5806 H   0  0  0  0  0  0  0  0  0  0  0  0  # atno 10765 bound_to 10752
  139.8787  134.8911  156.4045 H   0  0  0  0  0  0  0  0  0  0  0  0  # atno 11005 bound_to 11000
  146.0643  140.7938  142.9719 LP  0  0  0  0  0  0  0  0  0  0  0  0  # atno 17320 bound_to 7965
  144.6921  140.3244  143.7227 LP  0  0  0  0  0  0  0  0  0  0  0  0  # atno 17321 bound_to 7965
  140.3671  144.2902  150.5925 LP  0  0  0  0  0  0  0  0  0  0  0  0  # atno 17342 bound_to 10162
  140.5352  143.2235  151.8174 LP  0  0  0  0  0  0  0  0  0  0  0  0  # atno 17343 bound_to 10162
  156.6957  130.8913  151.3593 LP  0  0  0  0  0  0  0  0  0  0  0  0  # atno 17370 bound_to 10713
  157.6983  130.9305  150.0709 LP  0  0  0  0  0  0  0  0  0  0  0  0  # atno 17371 bound_to 10713
  140.9243  133.7623  155.9945 LP  0  0  0  0  0  0  0  0  0  0  0  0  # atno 17394 bound_to 11000
  140.8403  134.3074  157.5316 LP  0  0  0  0  0  0  0  0  0  0  0  0  # atno 17395 bound_to 11000

$$$$
