AV-unprocessed.smi:1376|AV-procd|sdf|5592|dock6
  -GOLD-   22720 5193D 1   1.00000     0.00000
 Structure written by MMmdl.
 42 43  0  0  0  0  0  0  0  0  1 V2000
  150.9012  140.8280  156.9595 O   0  0  0  0  0  0  0  0  0  0  0  0
  150.6173  141.9154  156.4550 C   0  0  0  0  0  0  0  0  0  0  0  0
  150.2843  142.0296  154.9604 C   0  0  0  0  0  0  0  0  0  0  0  0
  149.2740  141.0572  154.5115 N   0  0  0  0  0  0  0  0  0  0  0  0
  147.9419  141.5094  154.4306 C   0  0  0  0  0  0  0  0  0  0  0  0
  146.9414  140.7046  154.0395 C   0  0  0  0  0  0  0  0  0  0  0  0
  147.2590  139.3392  153.6947 C   0  0  0  0  0  0  0  0  0  0  0  0
  148.5292  138.8950  153.7729 C   0  0  0  0  0  0  0  0  0  0  0  0
  149.6254  139.7705  154.2041 C   0  0  0  0  0  0  0  0  0  0  0  0
  150.7876  139.3713  154.2843 O   0  0  0  0  0  0  0  0  0  0  0  0
  150.5580  143.0568  157.1577 N   0  0  0  0  0  0  0  0  0  0  0  0
  150.8252  143.1802  158.5875 C   0  0  2  0  0  0  0  0  0  0  0  0
  150.9279  144.6638  158.9944 C   0  0  0  0  0  0  0  0  0  0  0  0
  151.2794  144.8113  160.4827 C   0  0  0  0  0  0  0  0  0  0  0  0
  152.5675  144.0488  160.8287 C   0  0  0  0  0  0  0  0  0  0  0  0
  152.4631  142.5644  160.4391 C   0  0  2  0  0  0  0  0  0  0  0  0
  153.7143  141.9597  160.7389 O   0  0  0  0  0  0  0  0  0  0  0  0
  153.7756  140.5633  160.4803 C   0  0  0  0  0  0  0  0  0  0  0  0
  155.1303  140.0202  160.9509 C   0  0  0  0  0  0  0  0  0  0  0  0
  155.1602  138.6998  160.7736 F   0  0  0  0  0  0  0  0  0  0  0  0
  156.1182  140.5693  160.2447 F   0  0  0  0  0  0  0  0  0  0  0  0
  155.3063  140.2818  162.2459 F   0  0  0  0  0  0  0  0  0  0  0  0
  152.1191  142.4232  158.9414 C   0  0  0  0  0  0  0  0  0  0  0  0
  149.9444  143.0476  154.7650 H   0  0  0  0  0  0  0  0  0  0  0  0
  151.2002  141.9187  154.3769 H   0  0  0  0  0  0  0  0  0  0  0  0
  147.7880  142.5408  154.7135 H   0  0  0  0  0  0  0  0  0  0  0  0
  145.9254  141.0676  153.9892 H   0  0  0  0  0  0  0  0  0  0  0  0
  146.4741  138.6702  153.3742 H   0  0  0  0  0  0  0  0  0  0  0  0
  148.7479  137.8697  153.5121 H   0  0  0  0  0  0  0  0  0  0  0  0
  150.3099  143.9032  156.6660 H   0  0  0  0  0  0  0  0  0  0  0  0
  150.0062  142.7191  159.1431 H   0  0  0  0  0  0  0  0  0  0  0  0
  151.6894  145.1608  158.3917 H   0  0  0  0  0  0  0  0  0  0  0  0
  149.9879  145.1777  158.7892 H   0  0  0  0  0  0  0  0  0  0  0  0
  151.3928  145.8658  160.7347 H   0  0  0  0  0  0  0  0  0  0  0  0
  150.4567  144.4344  161.0917 H   0  0  0  0  0  0  0  0  0  0  0  0
  153.4115  144.5066  160.3110 H   0  0  0  0  0  0  0  0  0  0  0  0
  152.7743  144.1393  161.8957 H   0  0  0  0  0  0  0  0  0  0  0  0
  151.6767  142.1079  161.0432 H   0  0  0  0  0  0  0  0  0  0  0  0
  152.9709  140.0480  161.0071 H   0  0  0  0  0  0  0  0  0  0  0  0
  153.6508  140.3618  159.4163 H   0  0  0  0  0  0  0  0  0  0  0  0
  152.0029  141.3730  158.6745 H   0  0  0  0  0  0  0  0  0  0  0  0
  152.9471  142.8053  158.3422 H   0  0  0  0  0  0  0  0  0  0  0  0
  1  2  2  0  0  0  0
  2  3  1  0  0  0  0
  2 11  1  0  0  0  0
  3  4  1  0  0  0  0
  3 24  1  0  0  0  0
  3 25  1  0  0  0  0
  4  9  1  0  0  0  0
  4  5  1  0  0  0  0
  5  6  2  0  0  0  0
  5 26  1  0  0  0  0
  6  7  1  0  0  0  0
  6 27  1  0  0  0  0
  7  8  2  0  0  0  0
  7 28  1  0  0  0  0
  8  9  1  0  0  0  0
  8 29  1  0  0  0  0
  9 10  2  0  0  0  0
 11 12  1  0  0  0  0
 11 30  1  0  0  0  0
 12 23  1  0  0  0  0
 12 13  1  0  0  0  0
 12 31  1  0  0  0  0
 13 14  1  0  0  0  0
 13 32  1  0  0  0  0
 13 33  1  0  0  0  0
 14 15  1  0  0  0  0
 14 34  1  0  0  0  0
 14 35  1  0  0  0  0
 15 16  1  0  0  0  0
 15 36  1  0  0  0  0
 15 37  1  0  0  0  0
 16 17  1  0  0  0  0
 16 23  1  0  0  0  0
 16 38  1  0  0  0  0
 17 18  1  0  0  0  0
 18 19  1  0  0  0  0
 18 39  1  0  0  0  0
 18 40  1  0  0  0  0
 19 20  1  0  0  0  0
 19 21  1  0  0  0  0
 19 22  1  0  0  0  0
 23 41  1  0  0  0  0
 23 42  1  0  0  0  0
M  END
> <s_m_source_file>
AV-unprocessed.smi

> <i_m_source_file_index>
1376

> <i_lp_mmshare_version>
43012

> <i_f3d_flags>
0

> <s_epik_input>
Tz1jMVtjSF1bY0hdW2NIXVtjSF1uMVtDSDJdQyg9TylbTkhdW0NAQEhdMltDSDJdW0NIMl1bQ0gyXVtDQEhdKFtDSDJdMilPW0NIMl1DKEYpKEYpRg==

> <s_epik_cmdline>
J2VwaWtfcHl0aG9uJywgJy1waCcsICc3LjAnLCAnLXRuJywgJzgnLCAnLW1hJywgJzIwMCcsICctbWV0YWxfYmluZGluZycsICctaW1hZScsICc8aW5maWxlLm1hZT4nLCAnLW9tYWUnLCAnPG91dGZpbGUubWFlPic=

> <r_lp_tautomer_probability>
1

> <r_epik_Ionization_Penalty>
4.08567e-07

> <r_epik_Ionization_Penalty_Charging>
3.90028e-07

> <r_epik_Ionization_Penalty_Neutral>
1.85393e-08

> <r_epik_State_Penalty>
-0

> <r_epik_Charging_Adjusted_Penalty>
3.90028e-07

> <i_epik_Tot_Q>
0

> <i_epik_Tot_abs_Q>
0

> <r_epik_Metal_State_Penalty>
-0

> <b_epik_Metal_Only>
0

> <s_lp_Force_Field>
OPLS_2005

> <r_lp_Energy>
18.479

> <b_lp_Chiralities_Consistent>
1

> <s_lp_Variant>
AV-unprocessed.smi:1376-3

> <Gold.Version>
5.8.1

> <Gold.Id.Protein>
6NUR|6NUR_protein|mol2

> <Gold.PLP.Fitness>
48.9347

> <Gold.PLP.PLP>
-41.6364

> <Gold.PLP.part.hbond>
-2.0000

> <Gold.PLP.part.metal>
0.0000

> <Gold.PLP.part.buried>
-1.4311

> <Gold.PLP.part.nonpolar>
-36.7533

> <Gold.PLP.part.repulsive>
0.1756

> <Gold.PLP.ligand.clash>
0.0000

> <Gold.PLP.ligand.torsion>
0.5506

> <Gold.PLP.Chemscore.Hbond>
1.7840

> <Gold.PLP.Chemscore.CHOScore>
1.0000

> <Gold.PLP.Chemscore.Metal>
0.0000

> <Gold.Chemscore.Hbonds>
donor molecule, donor type, donor heavy atom, donor atom, acceptor molecule, acceptor atom, score
      L1  H    11    30       P1  8028  0.86
      P1  H  7989  7998       L1    10  0.90
      L1  C     5    26       P1  8028  0.86

> <Gold.PLP.Chemscore.Internal.Correction>
0.0476

> <Gold.Rescore>
     Score         DG    S(hbond)    S(metal)    S(lipo)     H(rot)  DE(clash)    DE(int)     intcor
     15.60     -18.38       1.86        0.00     104.74       2.18       0.78       2.00       ----

> <Gold.Chemscore.Fitness>
15.5971

> <Gold.Chemscore.DG>
-18.3804

> <Gold.Chemscore.ZeroCoef>
-5.4800

> <Gold.Chemscore.Hbond>
1.8640

> <Gold.Chemscore.Metal>
0.0000

> <Gold.Chemscore.Lipo>
104.7410

> <Gold.Chemscore.Internal_Hbond>
0.0000

> <Gold.Chemscore.DEClash>
0.7818

> <Gold.Chemscore.DEInternal>
2.0015

> <Gold.Chemscore.Rot>
2.1797

> <Gold.Chemscore.Internal.Correction>
   9.000000E+99

> <Gold.Chemscore.Hbonds>
donor molecule, donor type, donor heavy atom, donor atom, acceptor molecule, acceptor atom, score
      L1  H    11    30       P1  8028  0.86
      P1  H  7989  7998       L1    10  0.18

> <Gold.Chemscore.Hbond.Weighted>
-6.2259

> <Gold.Chemscore.Metal.Weighted>
-0.0000

> <Gold.Chemscore.Lipo.Weighted>
-12.2547

> <Gold.Chemscore.Internal_Hbond.Weighted>
0.0000

> <Gold.Chemscore.DEClash.Weighted>
0.7818

> <Gold.Chemscore.DEInternal.Weighted>
2.0015

> <Gold.Chemscore.Rot.Weighted>
5.5802

> <Gold.Chemscore.Internal.Correction.Weighted>
   9.000000E+99

> <Gold.Protein.RotatedTorsions>
[ 6907 6896 6895 6894 ] final  -60.00 input  -60.11 | X-H torsion
[ 7974 7965 7964 7962 ] final  -88.64 input  175.53 | X-H torsion
[ 8008 7997 7996 7995 ] final  -80.05 input   59.86 | X-H torsion
[ 10167 10162 10161 10158 ] final -101.58 input  -65.29 | X-H torsion
[ 10718 10713 10712 10709 ] final  -24.77 input   66.30 | X-H torsion
[ 10763 10752 10751 10750 ] final  154.39 input  -60.55 | X-H torsion
[ 11005 11000 10999 10996 ] final  106.22 input  -57.11 | X-H torsion

> <Gold.Protein.ActiveResidues>
 VAL166  LYS551  ARG553  GLY616  TRP617  ASP618  TYR619  PRO620  LYS621  CYS622 
 ASP623  PHE694  ASN695  SER759  ASP760  ASP761  ALA762  ILE779  LEU786  VAL792 
 PHE793  MET794  SER795  GLU796  ALA797  LYS798  CYS799  TRP800  GLU811  SER814 

> <Gold.Protein.RotatedAtoms>
  150.7888  134.6894  159.6488 H   0  0  0  0  0  0  0  0  0  0  0  0  # atno 6907 bound_to 6896
  152.3990  134.6315  160.0086 H   0  0  0  0  0  0  0  0  0  0  0  0  # atno 6908 bound_to 6896
  151.6592  133.3281  159.3206 H   0  0  0  0  0  0  0  0  0  0  0  0  # atno 6909 bound_to 6896
  145.4504  140.9560  143.2025 H   0  0  0  0  0  0  0  0  0  0  0  0  # atno 7974 bound_to 7965
  154.5844  140.0669  156.9151 H   0  0  0  0  0  0  0  0  0  0  0  0  # atno 8008 bound_to 7997
  155.2405  140.3344  155.4274 H   0  0  0  0  0  0  0  0  0  0  0  0  # atno 8009 bound_to 7997
  156.2212  140.1800  156.7456 H   0  0  0  0  0  0  0  0  0  0  0  0  # atno 8010 bound_to 7997
  140.2398  143.3547  152.0812 H   0  0  0  0  0  0  0  0  0  0  0  0  # atno 10167 bound_to 10162
  156.4733  130.4529  149.6856 H   0  0  0  0  0  0  0  0  0  0  0  0  # atno 10718 bound_to 10713
  154.1516  135.2815  155.3134 H   0  0  0  0  0  0  0  0  0  0  0  0  # atno 10763 bound_to 10752
  154.6213  135.5466  153.7582 H   0  0  0  0  0  0  0  0  0  0  0  0  # atno 10764 bound_to 10752
  153.0219  135.6439  154.1660 H   0  0  0  0  0  0  0  0  0  0  0  0  # atno 10765 bound_to 10752
  139.8811  134.9362  156.5633 H   0  0  0  0  0  0  0  0  0  0  0  0  # atno 11005 bound_to 11000
  144.8065  139.6041  143.7048 LP  0  0  0  0  0  0  0  0  0  0  0  0  # atno 17320 bound_to 7965
  146.2507  139.6194  142.9429 LP  0  0  0  0  0  0  0  0  0  0  0  0  # atno 17321 bound_to 7965
  139.5081  144.6844  151.5925 LP  0  0  0  0  0  0  0  0  0  0  0  0  # atno 17342 bound_to 10162
  140.6122  143.9414  150.6462 LP  0  0  0  0  0  0  0  0  0  0  0  0  # atno 17343 bound_to 10162
  156.3596  130.7474  151.2445 LP  0  0  0  0  0  0  0  0  0  0  0  0  # atno 17370 bound_to 10713
  157.7489  131.0354  150.4361 LP  0  0  0  0  0  0  0  0  0  0  0  0  # atno 17371 bound_to 10713
  140.8153  133.8396  155.8846 LP  0  0  0  0  0  0  0  0  0  0  0  0  # atno 17394 bound_to 11000
  140.9468  134.1830  157.4757 LP  0  0  0  0  0  0  0  0  0  0  0  0  # atno 17395 bound_to 11000

$$$$
