AV-unprocessed.smi:2954|AV-procd|sdf|11300|dock6
  -GOLD-   2272016193D 1   1.00000     0.00000
 Structure written by MMmdl.
 43 45  0  0  0  0  0  0  0  0  2 V2000
  145.9724  136.1993  155.3488 C   0  0  0  0  0  0  0  0  0  0  0  0
  147.3532  135.6505  154.9611 C   0  0  1  0  0  0  0  0  0  0  0  0
  147.3264  135.2320  153.5632 N   0  0  0  0  0  0  0  0  0  0  0  0
  146.4985  134.3066  153.0645 C   0  0  0  0  0  0  0  0  0  0  0  0
  145.6718  133.7090  153.7483 O   0  0  0  0  0  0  0  0  0  0  0  0
  148.4195  136.6735  155.2304 C   0  0  0  0  0  0  0  0  0  0  0  0
  149.2644  137.2198  154.3081 N   0  3  0  0  0  0  0  0  0  0  0  0
  150.0901  138.1635  154.9187 C   0  0  0  0  0  0  0  0  0  0  0  0
  151.0956  138.9697  154.3941 C   0  0  0  0  0  0  0  0  0  0  0  0
  151.7448  139.8381  155.2963 C   0  0  0  0  0  0  0  0  0  0  0  0
  151.3857  139.8833  156.6592 C   0  0  0  0  0  0  0  0  0  0  0  0
  150.3642  139.0610  157.1785 C   0  0  0  0  0  0  0  0  0  0  0  0
  149.7308  138.2020  156.2808 C   0  0  0  0  0  0  0  0  0  0  0  0
  148.7042  137.2629  156.4297 N   0  0  0  0  0  0  0  0  0  0  0  0
  148.1091  137.0588  157.7600 C   0  0  0  0  0  0  0  0  0  0  0  0
  149.1423  136.6569  158.8247 C   0  0  0  0  0  0  0  0  0  0  0  0
  148.8155  135.3794  159.3559 O   0  0  0  0  0  0  0  0  0  0  0  0
  148.0467  135.3282  160.4997 C   0  0  0  0  0  0  0  0  0  0  0  0
  147.7327  136.4638  161.2897 C   0  0  0  0  0  0  0  0  0  0  0  0
  146.9325  136.3352  162.4413 C   0  0  0  0  0  0  0  0  0  0  0  0
  146.4370  135.0744  162.8199 C   0  0  0  0  0  0  0  0  0  0  0  0
  146.7447  133.9412  162.0456 C   0  0  0  0  0  0  0  0  0  0  0  0
  147.5448  134.0673  160.8929 C   0  0  0  0  0  0  0  0  0  0  0  0
  147.9229  132.6570  159.9717 Cl  0  0  0  0  0  0  0  0  0  0  0  0
  145.9352  136.4716  156.4038 H   0  0  0  0  0  0  0  0  0  0  0  0
  145.1919  135.4576  155.1755 H   0  0  0  0  0  0  0  0  0  0  0  0
  145.7214  137.0884  154.7692 H   0  0  0  0  0  0  0  0  0  0  0  0
  147.5586  134.7783  155.5849 H   0  0  0  0  0  0  0  0  0  0  0  0
  147.9844  135.6705  152.9354 H   0  0  0  0  0  0  0  0  0  0  0  0
  146.6548  134.1516  151.9861 H   0  0  0  0  0  0  0  0  0  0  0  0
  151.3704  138.9390  153.3500 H   0  0  0  0  0  0  0  0  0  0  0  0
  152.5324  140.4834  154.9350 H   0  0  0  0  0  0  0  0  0  0  0  0
  151.9036  140.5633  157.3203 H   0  0  0  0  0  0  0  0  0  0  0  0
  150.0954  139.1056  158.2232 H   0  0  0  0  0  0  0  0  0  0  0  0
  147.5771  137.9655  158.0504 H   0  0  0  0  0  0  0  0  0  0  0  0
  147.3573  136.2751  157.6718 H   0  0  0  0  0  0  0  0  0  0  0  0
  150.1377  136.6239  158.3802 H   0  0  0  0  0  0  0  0  0  0  0  0
  149.1552  137.4103  159.6133 H   0  0  0  0  0  0  0  0  0  0  0  0
  148.0893  137.4488  161.0303 H   0  0  0  0  0  0  0  0  0  0  0  0
  146.6970  137.2069  163.0343 H   0  0  0  0  0  0  0  0  0  0  0  0
  145.8233  134.9765  163.7032 H   0  0  0  0  0  0  0  0  0  0  0  0
  146.3670  132.9725  162.3383 H   0  0  0  0  0  0  0  0  0  0  0  0
  149.2709  136.9614  153.3297 H   0  0  0  0  0  0  0  0  0  0  0  0
  1  2  1  0  0  0  0
  1 25  1  0  0  0  0
  1 26  1  0  0  0  0
  1 27  1  0  0  0  0
  2  3  1  0  0  0  0
  2  6  1  0  0  0  0
  2 28  1  0  0  0  0
  3  4  1  0  0  0  0
  3 29  1  0  0  0  0
  4  5  2  0  0  0  0
  4 30  1  0  0  0  0
  6 14  1  0  0  0  0
  6  7  2  0  0  0  0
  7  8  1  0  0  0  0
  7 43  1  0  0  0  0
  8 13  2  0  0  0  0
  8  9  1  0  0  0  0
  9 10  2  0  0  0  0
  9 31  1  0  0  0  0
 10 11  1  0  0  0  0
 10 32  1  0  0  0  0
 11 12  2  0  0  0  0
 11 33  1  0  0  0  0
 12 13  1  0  0  0  0
 12 34  1  0  0  0  0
 13 14  1  0  0  0  0
 14 15  1  0  0  0  0
 15 16  1  0  0  0  0
 15 35  1  0  0  0  0
 15 36  1  0  0  0  0
 16 17  1  0  0  0  0
 16 37  1  0  0  0  0
 16 38  1  0  0  0  0
 17 18  1  0  0  0  0
 18 23  1  0  0  0  0
 18 19  2  0  0  0  0
 19 20  1  0  0  0  0
 19 39  1  0  0  0  0
 20 21  2  0  0  0  0
 20 40  1  0  0  0  0
 21 22  1  0  0  0  0
 21 41  1  0  0  0  0
 22 23  2  0  0  0  0
 22 42  1  0  0  0  0
 23 24  1  0  0  0  0
M  CHG  1   7   1
M  END
> <s_m_source_file>
AV-unprocessed.smi

> <i_m_source_file_index>
2954

> <i_lp_mmshare_version>
43012

> <i_f3d_flags>
0

> <s_epik_input>
Tz1bQ0hdW05IXVtDQEBIXShbQ0gzXSljKG4xKW4oYyhjMTIpW2NIXVtjSF1bY0hdW2NIXTIpW0NIMl1bQ0gyXU9jM1tjSF1bY0hdW2NIXVtjSF1jM0Ns

> <s_epik_cmdline>
J2VwaWtfcHl0aG9uJywgJy1waCcsICc3LjAnLCAnLXRuJywgJzgnLCAnLW1hJywgJzIwMCcsICctbWV0YWxfYmluZGluZycsICctaW1hZScsICc8aW5maWxlLm1hZT4nLCAnLW9tYWUnLCAnPG91dGZpbGUubWFlPic=

> <r_lp_tautomer_probability>
1

> <r_epik_Ionization_Penalty>
1.18508

> <r_epik_Ionization_Penalty_Charging>
1.18508

> <r_epik_Ionization_Penalty_Neutral>
5.5802e-08

> <r_epik_State_Penalty>
1.24934

> <r_epik_Charging_Adjusted_Penalty>
2.43443

> <i_epik_Tot_Q>
1

> <i_epik_Tot_abs_Q>
1

> <r_epik_Metal_State_Penalty>
1.32564

> <b_epik_Metal_Only>
0

> <s_lp_Force_Field>
OPLS_2005

> <r_lp_Energy>
18.4095

> <b_lp_Chiralities_Consistent>
1

> <s_lp_Variant>
AV-unprocessed.smi:2954-4

> <Gold.Version>
5.8.1

> <Gold.Id.Protein>
6NUR|6NUR_protein|mol2

> <Gold.PLP.Fitness>
45.6977

> <Gold.PLP.PLP>
-35.0678

> <Gold.PLP.part.hbond>
-3.0000

> <Gold.PLP.part.metal>
0.0000

> <Gold.PLP.part.buried>
-1.9416

> <Gold.PLP.part.nonpolar>
-29.7227

> <Gold.PLP.part.repulsive>
0.0933

> <Gold.PLP.ligand.clash>
0.0000

> <Gold.PLP.ligand.torsion>
0.7065

> <Gold.PLP.Chemscore.Hbond>
4.0000

> <Gold.PLP.Chemscore.CHOScore>
0.0000

> <Gold.PLP.Chemscore.Metal>
0.0000

> <Gold.Chemscore.Hbonds>
donor molecule, donor type, donor heavy atom, donor atom, acceptor molecule, acceptor atom, score
      L1  H     3    29       P1  7948  1.00
      L1  H     7    43       P1  7948  2.00
      P1  H  6896  6908       L1    17  0.89

> <Gold.PLP.Chemscore.Internal.Correction>
0.0429

> <Gold.Rescore>
     Score         DG    S(hbond)    S(metal)    S(lipo)     H(rot)  DE(clash)    DE(int)     intcor
     17.22     -19.18       2.72        0.00      90.89       2.35       0.20       1.76       ----

> <Gold.Chemscore.Fitness>
17.2185

> <Gold.Chemscore.DG>
-19.1832

> <Gold.Chemscore.ZeroCoef>
-5.4800

> <Gold.Chemscore.Hbond>
2.7174

> <Gold.Chemscore.Metal>
0.0000

> <Gold.Chemscore.Lipo>
90.8937

> <Gold.Chemscore.Internal_Hbond>
0.0000

> <Gold.Chemscore.DEClash>
0.2003

> <Gold.Chemscore.DEInternal>
1.7644

> <Gold.Chemscore.Rot>
2.3467

> <Gold.Chemscore.Internal.Correction>
   9.000000E+99

> <Gold.Chemscore.Hbonds>
donor molecule, donor type, donor heavy atom, donor atom, acceptor molecule, acceptor atom, score
      L1  H     3    29       P1  7948  0.94
      L1  H     7    43       P1  7948  0.97
      P1  H  6896  6908       L1    17  0.38

> <Gold.Chemscore.Hbond.Weighted>
-9.0763

> <Gold.Chemscore.Metal.Weighted>
-0.0000

> <Gold.Chemscore.Lipo.Weighted>
-10.6346

> <Gold.Chemscore.Internal_Hbond.Weighted>
0.0000

> <Gold.Chemscore.DEClash.Weighted>
0.2003

> <Gold.Chemscore.DEInternal.Weighted>
1.7644

> <Gold.Chemscore.Rot.Weighted>
6.0077

> <Gold.Chemscore.Internal.Correction.Weighted>
   9.000000E+99

> <Gold.Protein.RotatedTorsions>
[ 6907 6896 6895 6894 ] final  156.35 input  -60.11 | X-H torsion
[ 7974 7965 7964 7962 ] final -176.30 input  175.53 | X-H torsion
[ 8008 7997 7996 7995 ] final   79.69 input   59.86 | X-H torsion
[ 10167 10162 10161 10158 ] final  -95.37 input  -65.29 | X-H torsion
[ 10718 10713 10712 10709 ] final  -91.51 input   66.30 | X-H torsion
[ 10763 10752 10751 10750 ] final -139.85 input  -60.55 | X-H torsion
[ 11005 11000 10999 10996 ] final   90.61 input  -57.11 | X-H torsion

> <Gold.Protein.ActiveResidues>
 VAL166  LYS551  ARG553  GLY616  TRP617  ASP618  TYR619  PRO620  LYS621  CYS622 
 ASP623  PHE694  ASN695  SER759  ASP760  ASP761  ALA762  ILE779  LEU786  VAL792 
 PHE793  MET794  SER795  GLU796  ALA797  LYS798  CYS799  TRP800  GLU811  SER814 

> <Gold.Protein.RotatedAtoms>
  152.0310  133.3937  159.4297 H   0  0  0  0  0  0  0  0  0  0  0  0  # atno 6907 bound_to 6896
  150.6882  134.3520  159.4922 H   0  0  0  0  0  0  0  0  0  0  0  0  # atno 6908 bound_to 6896
  152.1307  134.9137  160.0609 H   0  0  0  0  0  0  0  0  0  0  0  0  # atno 6909 bound_to 6896
  144.7127  140.1191  143.6406 H   0  0  0  0  0  0  0  0  0  0  0  0  # atno 7974 bound_to 7965
  155.8732  140.3448  155.5835 H   0  0  0  0  0  0  0  0  0  0  0  0  # atno 8008 bound_to 7997
  155.7804  140.0857  157.2081 H   0  0  0  0  0  0  0  0  0  0  0  0  # atno 8009 bound_to 7997
  154.4019  140.1502  156.3033 H   0  0  0  0  0  0  0  0  0  0  0  0  # atno 8010 bound_to 7997
  140.3048  143.3140  152.0210 H   0  0  0  0  0  0  0  0  0  0  0  0  # atno 10167 bound_to 10162
  155.9994  130.4951  150.5485 H   0  0  0  0  0  0  0  0  0  0  0  0  # atno 10718 bound_to 10713
  154.8597  135.3570  154.5613 H   0  0  0  0  0  0  0  0  0  0  0  0  # atno 10763 bound_to 10752
  153.6228  135.7005  153.5309 H   0  0  0  0  0  0  0  0  0  0  0  0  # atno 10764 bound_to 10752
  153.3114  135.4177  155.1299 H   0  0  0  0  0  0  0  0  0  0  0  0  # atno 10765 bound_to 10752
  139.8853  134.8624  156.3309 H   0  0  0  0  0  0  0  0  0  0  0  0  # atno 11005 bound_to 11000
  145.9387  139.2654  143.1282 LP  0  0  0  0  0  0  0  0  0  0  0  0  # atno 17320 bound_to 7965
  145.9447  140.8954  143.0290 LP  0  0  0  0  0  0  0  0  0  0  0  0  # atno 17321 bound_to 7965
  139.4907  144.6429  151.6840 LP  0  0  0  0  0  0  0  0  0  0  0  0  # atno 17342 bound_to 10162
  140.5619  144.0254  150.6174 LP  0  0  0  0  0  0  0  0  0  0  0  0  # atno 17343 bound_to 10162
  157.3411  131.0717  151.1787 LP  0  0  0  0  0  0  0  0  0  0  0  0  # atno 17370 bound_to 10713
  157.2635  130.6670  149.5985 LP  0  0  0  0  0  0  0  0  0  0  0  0  # atno 17371 bound_to 10713
  140.9723  133.7319  156.0552 LP  0  0  0  0  0  0  0  0  0  0  0  0  # atno 17394 bound_to 11000
  140.7855  134.3677  157.5477 LP  0  0  0  0  0  0  0  0  0  0  0  0  # atno 17395 bound_to 11000

$$$$
