AV-unprocessed.smi:157|AV-procd|sdf|1297|dock8
  -GOLD-   2262018583D 1   1.00000     0.00000
 Structure written by MMmdl.
 35 37  0  0  0  0  0  0  0  0  1 V2000
  149.3550  126.5312  151.9007 O   0  0  0  0  0  0  0  0  0  0  0  0
  148.2499  127.1524  151.2799 C   0  0  0  0  0  0  0  0  0  0  0  0
  147.7957  128.3640  152.1074 C   0  0  1  0  0  0  0  0  0  0  0  0
  146.7101  129.0160  151.4556 O   0  0  0  0  0  0  0  0  0  0  0  0
  145.9358  129.7095  152.3903 C   0  0  2  0  0  0  0  0  0  0  0  0
  146.1983  131.1796  152.2473 N   0  0  0  0  0  0  0  0  0  0  0  0
  147.3258  131.8336  152.5603 C   0  0  0  0  0  0  0  0  0  0  0  0
  147.2843  133.1371  152.3413 N   0  0  0  0  0  0  0  0  0  0  0  0
  146.0058  133.3517  151.8305 C   0  0  0  0  0  0  0  0  0  0  0  0
  145.3170  132.1494  151.7607 C   0  0  0  0  0  0  0  0  0  0  0  0
  144.0562  131.7451  151.3648 N   0  0  0  0  0  0  0  0  0  0  0  0
  143.3716  132.5425  150.6069 C   0  0  0  0  0  0  0  0  0  0  0  0
  143.6546  133.8305  150.1748 N   0  0  0  0  0  0  0  0  0  0  0  0
  144.1049  134.8891  151.0624 C   0  0  0  0  0  0  0  0  0  0  0  0
  145.5712  134.7478  151.4897 C   0  0  2  0  0  0  0  0  0  0  0  0
  146.4077  135.1978  150.4432 O   0  0  0  0  0  0  0  0  0  0  0  0
  146.3708  129.2332  153.7817 C   0  0  0  0  0  0  0  0  0  0  0  0
  147.1751  127.9905  153.4541 C   0  0  2  0  0  0  0  0  0  0  0  0
  148.1487  127.7395  154.4469 O   0  0  0  0  0  0  0  0  0  0  0  0
  148.6129  129.0722  152.2601 H   0  0  0  0  0  0  0  0  0  0  0  0
  144.8740  129.5792  152.1785 H   0  0  0  0  0  0  0  0  0  0  0  0
  145.7474  135.4076  152.3398 H   0  0  0  0  0  0  0  0  0  0  0  0
  146.5124  127.1301  153.3479 H   0  0  0  0  0  0  0  0  0  0  0  0
  150.0881  127.1268  151.8747 H   0  0  0  0  0  0  0  0  0  0  0  0
  148.4979  127.4400  150.2578 H   0  0  0  0  0  0  0  0  0  0  0  0
  147.4492  126.4144  151.2235 H   0  0  0  0  0  0  0  0  0  0  0  0
  148.2016  131.3471  152.9637 H   0  0  0  0  0  0  0  0  0  0  0  0
  142.4094  132.1963  150.2270 H   0  0  0  0  0  0  0  0  0  0  0  0
  143.1285  134.2038  149.3978 H   0  0  0  0  0  0  0  0  0  0  0  0
  143.9269  135.8610  150.6012 H   0  0  0  0  0  0  0  0  0  0  0  0
  143.4747  134.8551  151.9525 H   0  0  0  0  0  0  0  0  0  0  0  0
  146.0997  134.8162  149.6350 H   0  0  0  0  0  0  0  0  0  0  0  0
  146.9959  129.9927  154.2557 H   0  0  0  0  0  0  0  0  0  0  0  0
  145.5076  129.0378  154.4185 H   0  0  0  0  0  0  0  0  0  0  0  0
  148.6367  128.5349  154.5970 H   0  0  0  0  0  0  0  0  0  0  0  0
  1  2  1  0  0  0  0
  1 24  1  0  0  0  0
  2  3  1  0  0  0  0
  2 25  1  0  0  0  0
  2 26  1  0  0  0  0
  3 20  1  0  0  0  0
  3 18  1  0  0  0  0
  3  4  1  0  0  0  0
  4  5  1  0  0  0  0
  5 21  1  0  0  0  0
  5  6  1  0  0  0  0
  5 17  1  0  0  0  0
  6 10  1  0  0  0  0
  6  7  1  0  0  0  0
  7  8  2  0  0  0  0
  7 27  1  0  0  0  0
  8  9  1  0  0  0  0
  9 15  1  0  0  0  0
  9 10  2  0  0  0  0
 10 11  1  0  0  0  0
 11 12  2  0  0  0  0
 12 13  1  0  0  0  0
 12 28  1  0  0  0  0
 13 14  1  0  0  0  0
 13 29  1  0  0  0  0
 14 15  1  0  0  0  0
 14 30  1  0  0  0  0
 14 31  1  0  0  0  0
 15 22  1  0  0  0  0
 15 16  1  0  0  0  0
 16 32  1  0  0  0  0
 17 18  1  0  0  0  0
 17 33  1  0  0  0  0
 17 34  1  0  0  0  0
 18 23  1  0  0  0  0
 18 19  1  0  0  0  0
 19 35  1  0  0  0  0
M  END
> <s_m_source_file>
AV-unprocessed.smi

> <i_m_source_file_index>
157

> <i_lp_mmshare_version>
43012

> <i_f3d_flags>
0

> <s_epik_input>
W09IXVtDSDJdW0NASF0xT1tDQEhdKFtDSDJdW0NAQEhdMVtPSF0pbihbY0hdbjIpYyhjMjMpTj1bQ0hdW05IXVtDSDJdW0NASF0zW09IXQ==

> <s_epik_cmdline>
J2VwaWtfcHl0aG9uJywgJy1waCcsICc3LjAnLCAnLXRuJywgJzgnLCAnLW1hJywgJzIwMCcsICctbWV0YWxfYmluZGluZycsICctaW1hZScsICc8aW5maWxlLm1hZT4nLCAnLW9tYWUnLCAnPG91dGZpbGUubWFlPic=

> <r_lp_tautomer_probability>
1

> <r_epik_Ionization_Penalty>
0.0357149

> <r_epik_Ionization_Penalty_Charging>
0.0355056

> <r_epik_Ionization_Penalty_Neutral>
0.000209255

> <r_epik_State_Penalty>
0.0296046

> <r_epik_Charging_Adjusted_Penalty>
0.0651102

> <i_epik_Tot_Q>
0

> <i_epik_Tot_abs_Q>
0

> <r_epik_Metal_State_Penalty>
3.03559e-05

> <b_epik_Metal_Only>
0

> <s_epik_Chemistry_Notes>
This compound has an imine and may undergo hydrolysis. This compound contains an acetal/aminal-like group ( X-CH(R)-Y where X, Y are N, S, or O) that may be acid/base labile, releasing an aldehyde.

> <s_lp_Force_Field>
OPLS_2005

> <r_lp_Energy>
44.0158

> <b_lp_Chiralities_Consistent>
1

> <s_lp_Variant>
AV-unprocessed.smi:157-7

> <Gold.Version>
5.8.1

> <Gold.Id.Protein>
6NUR|6NUR_protein|mol2

> <Gold.PLP.Fitness>
38.9212

> <Gold.PLP.PLP>
-27.2348

> <Gold.PLP.part.hbond>
-3.9497

> <Gold.PLP.part.metal>
0.0000

> <Gold.PLP.part.buried>
2.7091

> <Gold.PLP.part.nonpolar>
-26.7995

> <Gold.PLP.part.repulsive>
1.9888

> <Gold.PLP.ligand.clash>
0.0000

> <Gold.PLP.ligand.torsion>
0.2400

> <Gold.PLP.Chemscore.Hbond>
2.4553

> <Gold.PLP.Chemscore.CHOScore>
1.5939

> <Gold.PLP.Chemscore.Metal>
0.0000

> <Gold.Chemscore.Hbonds>
donor molecule, donor type, donor heavy atom, donor atom, acceptor molecule, acceptor atom, score
      L1  H     1    24       P1 10737  0.99
      L1  H    13    29       P1 10186  0.31
      L1  H    16    32       P1  7921  0.94
      L1  C     7    27       P1 10747  0.04
      L1  C    12    28       P1 10186  0.30
      L1  C    12    28       P1 10952  1.00

> <Gold.PLP.Chemscore.Internal.Correction>
0.0191

> <Gold.Rescore>
     Score         DG    S(hbond)    S(metal)    S(lipo)     H(rot)  DE(clash)    DE(int)     intcor
      5.82      -8.74       2.25        0.00      43.24       3.64       2.77       0.15       ----

> <Gold.Chemscore.Fitness>
5.8189

> <Gold.Chemscore.DG>
-8.7370

> <Gold.Chemscore.ZeroCoef>
-5.4800

> <Gold.Chemscore.Hbond>
2.2475

> <Gold.Chemscore.Metal>
0.0000

> <Gold.Chemscore.Lipo>
43.2392

> <Gold.Chemscore.Internal_Hbond>
0.0000

> <Gold.Chemscore.DEClash>
2.7700

> <Gold.Chemscore.DEInternal>
0.1481

> <Gold.Chemscore.Rot>
3.6362

> <Gold.Chemscore.Internal.Correction>
   9.000000E+99

> <Gold.Chemscore.Hbonds>
donor molecule, donor type, donor heavy atom, donor atom, acceptor molecule, acceptor atom, score
      L1  H     1    24       P1 10737  0.91
      L1  H    13    29       P1 10186  0.31
      L1  H    16    32       P1  7921  0.53

> <Gold.Chemscore.Hbond.Weighted>
-7.5067

> <Gold.Chemscore.Metal.Weighted>
-0.0000

> <Gold.Chemscore.Lipo.Weighted>
-5.0590

> <Gold.Chemscore.Internal_Hbond.Weighted>
0.0000

> <Gold.Chemscore.DEClash.Weighted>
2.7700

> <Gold.Chemscore.DEInternal.Weighted>
0.1481

> <Gold.Chemscore.Rot.Weighted>
9.3087

> <Gold.Chemscore.Internal.Correction.Weighted>
   9.000000E+99

> <Gold.Protein.RotatedTorsions>
[ 6907 6896 6895 6894 ] final   52.74 input  -60.11 | X-H torsion
[ 7974 7965 7964 7962 ] final  -24.14 input  175.53 | X-H torsion
[ 8008 7997 7996 7995 ] final  -66.48 input   59.86 | X-H torsion
[ 10167 10162 10161 10158 ] final -148.75 input  -65.29 | X-H torsion
[ 10718 10713 10712 10709 ] final  -15.10 input   66.30 | X-H torsion
[ 10763 10752 10751 10750 ] final   51.35 input  -60.55 | X-H torsion
[ 11005 11000 10999 10996 ] final -131.02 input  -57.11 | X-H torsion

> <Gold.Protein.ActiveResidues>
 VAL166  LYS551  ARG553  GLY616  TRP617  ASP618  TYR619  PRO620  LYS621  CYS622 
 ASP623  PHE694  ASN695  SER759  ASP760  ASP761  ALA762  ILE779  LEU786  VAL792 
 PHE793  MET794  SER795  GLU796  ALA797  LYS798  CYS799  TRP800  GLU811  SER814 

> <Gold.Protein.RotatedAtoms>
  152.3264  134.7315  160.0300 H   0  0  0  0  0  0  0  0  0  0  0  0  # atno 6907 bound_to 6896
  151.7746  133.3339  159.3462 H   0  0  0  0  0  0  0  0  0  0  0  0  # atno 6908 bound_to 6896
  150.7398  134.5919  159.6036 H   0  0  0  0  0  0  0  0  0  0  0  0  # atno 6909 bound_to 6896
  146.1573  140.4711  142.8586 H   0  0  0  0  0  0  0  0  0  0  0  0  # atno 7974 bound_to 7965
  154.4737  140.0912  156.7209 H   0  0  0  0  0  0  0  0  0  0  0  0  # atno 8008 bound_to 7997
  155.4654  140.3462  155.4300 H   0  0  0  0  0  0  0  0  0  0  0  0  # atno 8009 bound_to 7997
  156.1082  140.1440  156.9364 H   0  0  0  0  0  0  0  0  0  0  0  0  # atno 8010 bound_to 7997
  139.7504  143.8527  152.2585 H   0  0  0  0  0  0  0  0  0  0  0  0  # atno 10167 bound_to 10162
  156.6066  130.4838  149.6218 H   0  0  0  0  0  0  0  0  0  0  0  0  # atno 10718 bound_to 10713
  152.9785  135.5848  154.4401 H   0  0  0  0  0  0  0  0  0  0  0  0  # atno 10763 bound_to 10752
  154.4004  135.2768  155.2102 H   0  0  0  0  0  0  0  0  0  0  0  0  # atno 10764 bound_to 10752
  154.3936  135.6120  153.5911 H   0  0  0  0  0  0  0  0  0  0  0  0  # atno 10765 bound_to 10752
  140.9295  134.1338  157.4246 H   0  0  0  0  0  0  0  0  0  0  0  0  # atno 11005 bound_to 11000
  144.7980  140.6160  143.6497 LP  0  0  0  0  0  0  0  0  0  0  0  0  # atno 17320 bound_to 7965
  145.4676  139.1506  143.3832 LP  0  0  0  0  0  0  0  0  0  0  0  0  # atno 17321 bound_to 7965
  139.8504  144.7167  150.9221 LP  0  0  0  0  0  0  0  0  0  0  0  0  # atno 17342 bound_to 10162
  140.7797  143.3905  151.1319 LP  0  0  0  0  0  0  0  0  0  0  0  0  # atno 17343 bound_to 10162
  156.2425  130.6859  151.1569 LP  0  0  0  0  0  0  0  0  0  0  0  0  # atno 17370 bound_to 10713
  157.7265  131.0645  150.5904 LP  0  0  0  0  0  0  0  0  0  0  0  0  # atno 17371 bound_to 10713
  139.8793  135.0000  156.5986 LP  0  0  0  0  0  0  0  0  0  0  0  0  # atno 17394 bound_to 11000
  140.7881  133.8605  155.8623 LP  0  0  0  0  0  0  0  0  0  0  0  0  # atno 17395 bound_to 11000

$$$$
