AV-unprocessed.smi:354|AV-procd|sdf|2406|dock1
  -GOLD-   2262022343D 1   1.00000     0.00000
 Structure written by MMmdl.
 37 39  0  0  0  0  0  0  0  0  2 V2000
  151.3029  136.5260  154.1823 O   0  0  0  0  0  0  0  0  0  0  0  0
  151.5475  137.8098  154.7127 C   0  0  0  0  0  0  0  0  0  0  0  0
  150.4182  138.7528  154.4591 C   0  0  0  0  0  0  0  0  0  0  0  0
  149.3213  138.4980  153.6914 N   0  3  0  0  0  0  0  0  0  0  0  0
  148.4752  139.6076  153.6928 C   0  0  0  0  0  0  0  0  0  0  0  0
  147.2523  139.8214  153.0638 C   0  0  0  0  0  0  0  0  0  0  0  0
  146.6462  141.0782  153.2694 C   0  0  0  0  0  0  0  0  0  0  0  0
  147.2551  142.0645  154.0722 C   0  0  0  0  0  0  0  0  0  0  0  0
  148.4935  141.8352  154.7067 C   0  0  0  0  0  0  0  0  0  0  0  0
  149.0857  140.5890  154.5006 C   0  0  0  0  0  0  0  0  0  0  0  0
  150.2796  140.0158  154.9557 N   0  0  0  0  0  0  0  0  0  0  0  0
  151.1613  140.7835  155.8499 C   0  0  0  0  0  0  0  0  0  0  0  0
  150.4033  141.4794  156.9997 C   0  0  1  0  0  0  0  0  0  0  0  0
  149.6611  140.5377  157.7502 O   0  0  0  0  0  0  0  0  0  0  0  0
  151.3447  142.2991  157.8712 C   0  0  0  0  0  0  0  0  0  0  0  0
  151.3170  143.7085  157.7927 C   0  0  0  0  0  0  0  0  0  0  0  0
  152.1867  144.4839  158.5836 C   0  0  0  0  0  0  0  0  0  0  0  0
  153.0922  143.8551  159.4588 C   0  0  0  0  0  0  0  0  0  0  0  0
  153.1270  142.4503  159.5420 C   0  0  0  0  0  0  0  0  0  0  0  0
  152.2589  141.6722  158.7510 C   0  0  0  0  0  0  0  0  0  0  0  0
  152.3139  140.3213  158.8395 F   0  0  0  0  0  0  0  0  0  0  0  0
  151.1074  136.6120  153.2617 H   0  0  0  0  0  0  0  0  0  0  0  0
  151.7201  137.7268  155.7858 H   0  0  0  0  0  0  0  0  0  0  0  0
  152.4610  138.2088  154.2712 H   0  0  0  0  0  0  0  0  0  0  0  0
  146.7842  139.0685  152.4468 H   0  0  0  0  0  0  0  0  0  0  0  0
  145.6964  141.2908  152.8007 H   0  0  0  0  0  0  0  0  0  0  0  0
  146.7630  143.0172  154.2042 H   0  0  0  0  0  0  0  0  0  0  0  0
  148.9532  142.6006  155.3145 H   0  0  0  0  0  0  0  0  0  0  0  0
  151.9450  140.1261  156.2262 H   0  0  0  0  0  0  0  0  0  0  0  0
  151.6681  141.5305  155.2380 H   0  0  0  0  0  0  0  0  0  0  0  0
  149.6698  142.1579  156.5626 H   0  0  0  0  0  0  0  0  0  0  0  0
  149.4188  139.8242  157.1796 H   0  0  0  0  0  0  0  0  0  0  0  0
  150.6283  144.2030  157.1232 H   0  0  0  0  0  0  0  0  0  0  0  0
  152.1604  145.5616  158.5172 H   0  0  0  0  0  0  0  0  0  0  0  0
  153.7604  144.4494  160.0645 H   0  0  0  0  0  0  0  0  0  0  0  0
  153.8232  141.9676  160.2119 H   0  0  0  0  0  0  0  0  0  0  0  0
  149.1637  137.6245  153.2057 H   0  0  0  0  0  0  0  0  0  0  0  0
  1  2  1  0  0  0  0
  1 22  1  0  0  0  0
  2  3  1  0  0  0  0
  2 23  1  0  0  0  0
  2 24  1  0  0  0  0
  3 11  1  0  0  0  0
  3  4  2  0  0  0  0
  4  5  1  0  0  0  0
  4 37  1  0  0  0  0
  5 10  2  0  0  0  0
  5  6  1  0  0  0  0
  6  7  2  0  0  0  0
  6 25  1  0  0  0  0
  7  8  1  0  0  0  0
  7 26  1  0  0  0  0
  8  9  2  0  0  0  0
  8 27  1  0  0  0  0
  9 10  1  0  0  0  0
  9 28  1  0  0  0  0
 10 11  1  0  0  0  0
 11 12  1  0  0  0  0
 12 13  1  0  0  0  0
 12 29  1  0  0  0  0
 12 30  1  0  0  0  0
 13 14  1  0  0  0  0
 13 15  1  0  0  0  0
 13 31  1  0  0  0  0
 14 32  1  0  0  0  0
 15 20  1  0  0  0  0
 15 16  2  0  0  0  0
 16 17  1  0  0  0  0
 16 33  1  0  0  0  0
 17 18  2  0  0  0  0
 17 34  1  0  0  0  0
 18 19  1  0  0  0  0
 18 35  1  0  0  0  0
 19 20  2  0  0  0  0
 19 36  1  0  0  0  0
 20 21  1  0  0  0  0
M  CHG  1   4   1
M  END
> <s_m_source_file>
AV-unprocessed.smi

> <i_m_source_file_index>
354

> <i_lp_mmshare_version>
43012

> <i_f3d_flags>
0

> <s_epik_input>
W2NIXTFbY0hdW2NIXVtjSF1jKGMxMiluKGMobjIpW0NIMl1bT0hdKVtDSDJdW0NASF0oW09IXSljM1tjSF1bY0hdW2NIXVtjSF1jM0Y=

> <s_epik_cmdline>
J2VwaWtfcHl0aG9uJywgJy1waCcsICc3LjAnLCAnLXRuJywgJzgnLCAnLW1hJywgJzIwMCcsICctbWV0YWxfYmluZGluZycsICctaW1hZScsICc8aW5maWxlLm1hZT4nLCAnLW9tYWUnLCAnPG91dGZpbGUubWFlPic=

> <r_epik_Ionization_Penalty>
1.35643

> <r_epik_Ionization_Penalty_Charging>
1.35557

> <r_epik_Ionization_Penalty_Neutral>
0.000857128

> <r_epik_State_Penalty>
1.43401

> <r_epik_Charging_Adjusted_Penalty>
2.78958

> <i_epik_Tot_Q>
1

> <i_epik_Tot_abs_Q>
1

> <r_epik_Metal_State_Penalty>
5.47166

> <b_epik_Metal_Only>
0

> <s_lp_Force_Field>
OPLS_2005

> <r_lp_Energy>
15.3671

> <b_lp_Chiralities_Consistent>
1

> <s_lp_Variant>
AV-unprocessed.smi:354-4

> <Gold.Version>
5.8.1

> <Gold.Id.Protein>
6NUR|6NUR_protein|mol2

> <Gold.PLP.Fitness>
62.0602

> <Gold.PLP.PLP>
-50.8027

> <Gold.PLP.part.hbond>
-4.0588

> <Gold.PLP.part.metal>
0.0000

> <Gold.PLP.part.buried>
1.2235

> <Gold.PLP.part.nonpolar>
-47.8909

> <Gold.PLP.part.repulsive>
0.0605

> <Gold.PLP.ligand.clash>
0.0000

> <Gold.PLP.ligand.torsion>
0.4167

> <Gold.PLP.Chemscore.Hbond>
4.0000

> <Gold.PLP.Chemscore.CHOScore>
0.0000

> <Gold.PLP.Chemscore.Metal>
0.0000

> <Gold.Chemscore.Hbonds>
donor molecule, donor type, donor heavy atom, donor atom, acceptor molecule, acceptor atom, score
      L1  H     1    22       P1  7949  1.00
      L1  H     4    37       P1  7948  2.00
      P1  H 10752 10765       L1     1  1.00

> <Gold.PLP.Chemscore.Internal.Correction>
0.0909

> <Gold.Rescore>
     Score         DG    S(hbond)    S(metal)    S(lipo)     H(rot)  DE(clash)    DE(int)     intcor
     19.40     -21.07       2.43        0.00     125.75       2.82       0.31       1.37       ----

> <Gold.Chemscore.Fitness>
19.3963

> <Gold.Chemscore.DG>
-21.0733

> <Gold.Chemscore.ZeroCoef>
-5.4800

> <Gold.Chemscore.Hbond>
2.4265

> <Gold.Chemscore.Metal>
0.0000

> <Gold.Chemscore.Lipo>
125.7513

> <Gold.Chemscore.Internal_Hbond>
0.0000

> <Gold.Chemscore.DEClash>
0.3083

> <Gold.Chemscore.DEInternal>
1.3686

> <Gold.Chemscore.Rot>
2.8219

> <Gold.Chemscore.Internal.Correction>
   9.000000E+99

> <Gold.Chemscore.Hbonds>
donor molecule, donor type, donor heavy atom, donor atom, acceptor molecule, acceptor atom, score
      L1  H     1    22       P1  7949  0.38
      L1  H     4    37       P1  7948  0.99
      P1  H 10752 10765       L1     1  0.20

> <Gold.Chemscore.Hbond.Weighted>
-8.1044

> <Gold.Chemscore.Metal.Weighted>
-0.0000

> <Gold.Chemscore.Lipo.Weighted>
-14.7129

> <Gold.Chemscore.Internal_Hbond.Weighted>
0.0000

> <Gold.Chemscore.DEClash.Weighted>
0.3083

> <Gold.Chemscore.DEInternal.Weighted>
1.3686

> <Gold.Chemscore.Rot.Weighted>
7.2240

> <Gold.Chemscore.Internal.Correction.Weighted>
   9.000000E+99

> <Gold.Protein.RotatedTorsions>
[ 6907 6896 6895 6894 ] final  -14.06 input  -60.11 | X-H torsion
[ 7974 7965 7964 7962 ] final -173.26 input  175.53 | X-H torsion
[ 8008 7997 7996 7995 ] final  129.81 input   59.86 | X-H torsion
[ 10167 10162 10161 10158 ] final -100.86 input  -65.29 | X-H torsion
[ 10718 10713 10712 10709 ] final  -38.25 input   66.30 | X-H torsion
[ 10763 10752 10751 10750 ] final  155.71 input  -60.55 | X-H torsion
[ 11005 11000 10999 10996 ] final   79.53 input  -57.11 | X-H torsion

> <Gold.Protein.ActiveResidues>
 VAL166  LYS551  ARG553  GLY616  TRP617  ASP618  TYR619  PRO620  LYS621  CYS622 
 ASP623  PHE694  ASN695  SER759  ASP760  ASP761  ALA762  ILE779  LEU786  VAL792 
 PHE793  MET794  SER795  GLU796  ALA797  LYS798  CYS799  TRP800  GLU811  SER814 

> <Gold.Protein.RotatedAtoms>
  151.3452  135.0872  159.9384 H   0  0  0  0  0  0  0  0  0  0  0  0  # atno 6907 bound_to 6896
  152.5201  133.9407  159.7635 H   0  0  0  0  0  0  0  0  0  0  0  0  # atno 6908 bound_to 6896
  150.9772  133.6229  159.2758 H   0  0  0  0  0  0  0  0  0  0  0  0  # atno 6909 bound_to 6896
  144.7139  140.1649  143.6373 H   0  0  0  0  0  0  0  0  0  0  0  0  # atno 7974 bound_to 7965
  156.2943  140.2611  156.2660 H   0  0  0  0  0  0  0  0  0  0  0  0  # atno 8008 bound_to 7997
  154.9742  140.0390  157.2267 H   0  0  0  0  0  0  0  0  0  0  0  0  # atno 8009 bound_to 7997
  154.7831  140.2798  155.6053 H   0  0  0  0  0  0  0  0  0  0  0  0  # atno 8010 bound_to 7997
  140.2474  143.3496  152.0746 H   0  0  0  0  0  0  0  0  0  0  0  0  # atno 10167 bound_to 10162
  156.3059  130.4246  149.8097 H   0  0  0  0  0  0  0  0  0  0  0  0  # atno 10718 bound_to 10713
  154.1727  135.2803  155.3076 H   0  0  0  0  0  0  0  0  0  0  0  0  # atno 10763 bound_to 10752
  154.6063  135.5513  153.7429 H   0  0  0  0  0  0  0  0  0  0  0  0  # atno 10764 bound_to 10752
  153.0160  135.6404  154.1867 H   0  0  0  0  0  0  0  0  0  0  0  0  # atno 10765 bound_to 10752
  139.9169  134.7850  156.1791 H   0  0  0  0  0  0  0  0  0  0  0  0  # atno 11005 bound_to 11000
  145.8997  139.2423  143.1501 LP  0  0  0  0  0  0  0  0  0  0  0  0  # atno 17320 bound_to 7965
  145.9823  140.8672  143.0108 LP  0  0  0  0  0  0  0  0  0  0  0  0  # atno 17321 bound_to 7965
  139.5057  144.6800  151.6032 LP  0  0  0  0  0  0  0  0  0  0  0  0  # atno 17342 bound_to 10162
  140.6067  143.9512  150.6423 LP  0  0  0  0  0  0  0  0  0  0  0  0  # atno 17343 bound_to 10162
  156.5458  130.8320  151.3284 LP  0  0  0  0  0  0  0  0  0  0  0  0  # atno 17370 bound_to 10713
  157.7379  130.9805  150.2223 LP  0  0  0  0  0  0  0  0  0  0  0  0  # atno 17371 bound_to 10713
  141.0653  133.6822  156.2032 LP  0  0  0  0  0  0  0  0  0  0  0  0  # atno 17394 bound_to 11000
  140.6595  134.4983  157.5582 LP  0  0  0  0  0  0  0  0  0  0  0  0  # atno 17395 bound_to 11000

$$$$
