AV-unprocessed.smi:3159|AV-procd|sdf|12049|dock2
  -GOLD-   2272017473D 1   1.00000     0.00000
 Structure written by MMmdl.
 35 36  0  0  0  0  0  0  0  0  1 V2000
  153.5573  141.6045  160.8137 C   0  0  0  0  0  0  0  0  0  0  0  0
  152.8353  142.2543  159.6704 C   0  0  0  0  0  0  0  0  0  0  0  0
  151.8315  141.6889  158.8311 C   0  0  0  0  0  0  0  0  0  0  0  0
  151.5378  142.7175  157.9780 C   0  0  0  0  0  0  0  0  0  0  0  0
  150.6438  142.7513  156.9542 N   0  0  0  0  0  0  0  0  0  0  0  0
  150.1992  141.7364  156.1927 C   0  0  0  0  0  0  0  0  0  0  0  0
  150.5506  140.5608  156.2938 O   0  0  0  0  0  0  0  0  0  0  0  0
  149.3086  142.1668  155.2872 N   0  0  0  0  0  0  0  0  0  0  0  0
  148.6265  141.3297  154.3049 C   0  0  0  0  0  0  0  0  0  0  0  0
  147.1006  141.5373  154.3345 C   0  0  2  0  0  0  0  0  0  0  0  0
  146.6592  142.8982  153.8362 C   0  0  0  0  0  0  0  0  0  0  0  0
  145.2421  142.9981  154.3937 C   0  0  0  0  0  0  0  0  0  0  0  0
  145.2402  142.2365  155.5980 O   0  0  0  0  0  0  0  0  0  0  0  0
  146.4662  141.5232  155.7265 C   0  0  0  0  0  0  0  0  0  0  0  0
  152.3202  143.8030  158.3040 N   0  0  0  0  0  0  0  0  0  0  0  0
  152.3740  145.1169  157.6929 C   0  0  0  0  0  0  0  0  0  0  0  0
  153.1218  143.5115  159.3513 N   0  0  0  0  0  0  0  0  0  0  0  0
  153.2382  140.5702  160.9443 H   0  0  0  0  0  0  0  0  0  0  0  0
  153.3656  142.1312  161.7488 H   0  0  0  0  0  0  0  0  0  0  0  0
  154.6349  141.6002  160.6469 H   0  0  0  0  0  0  0  0  0  0  0  0
  151.4134  140.6943  158.8670 H   0  0  0  0  0  0  0  0  0  0  0  0
  150.2598  143.6618  156.7496 H   0  0  0  0  0  0  0  0  0  0  0  0
  149.0817  143.1505  155.2770 H   0  0  0  0  0  0  0  0  0  0  0  0
  149.0205  141.5042  153.3021 H   0  0  0  0  0  0  0  0  0  0  0  0
  148.8553  140.2907  154.5432 H   0  0  0  0  0  0  0  0  0  0  0  0
  146.6184  140.7736  153.7216 H   0  0  0  0  0  0  0  0  0  0  0  0
  147.2843  143.6823  154.2664 H   0  0  0  0  0  0  0  0  0  0  0  0
  146.6947  142.9907  152.7504 H   0  0  0  0  0  0  0  0  0  0  0  0
  144.9389  144.0299  154.5736 H   0  0  0  0  0  0  0  0  0  0  0  0
  144.5278  142.5512  153.7010 H   0  0  0  0  0  0  0  0  0  0  0  0
  146.3006  140.5132  156.1021 H   0  0  0  0  0  0  0  0  0  0  0  0
  147.0967  142.0513  156.4433 H   0  0  0  0  0  0  0  0  0  0  0  0
  151.3677  145.5300  157.6202 H   0  0  0  0  0  0  0  0  0  0  0  0
  152.8008  145.0370  156.6930 H   0  0  0  0  0  0  0  0  0  0  0  0
  152.9894  145.7927  158.2882 H   0  0  0  0  0  0  0  0  0  0  0  0
  1  2  1  0  0  0  0
  1 18  1  0  0  0  0
  1 19  1  0  0  0  0
  1 20  1  0  0  0  0
  2 17  2  0  0  0  0
  2  3  1  0  0  0  0
  3  4  2  0  0  0  0
  3 21  1  0  0  0  0
  4  5  1  0  0  0  0
  4 15  1  0  0  0  0
  5  6  1  0  0  0  0
  5 22  1  0  0  0  0
  6  7  2  0  0  0  0
  6  8  1  0  0  0  0
  8  9  1  0  0  0  0
  8 23  1  0  0  0  0
  9 10  1  0  0  0  0
  9 24  1  0  0  0  0
  9 25  1  0  0  0  0
 10 14  1  0  0  0  0
 10 11  1  0  0  0  0
 10 26  1  0  0  0  0
 11 12  1  0  0  0  0
 11 27  1  0  0  0  0
 11 28  1  0  0  0  0
 12 13  1  0  0  0  0
 12 29  1  0  0  0  0
 12 30  1  0  0  0  0
 13 14  1  0  0  0  0
 14 31  1  0  0  0  0
 14 32  1  0  0  0  0
 15 16  1  0  0  0  0
 15 17  1  0  0  0  0
 16 33  1  0  0  0  0
 16 34  1  0  0  0  0
 16 35  1  0  0  0  0
M  END
> <s_m_source_file>
AV-unprocessed.smi

> <i_m_source_file_index>
3159

> <i_lp_mmshare_version>
43012

> <i_f3d_flags>
0

> <s_epik_input>
W0NIM11jMVtjSF1jKG4objEpW0NIM10pW05IXUMoPU8pW05IXVtDSDJdW0NAQEhdMltDSDJdW0NIMl1PW0NIMl0y

> <s_epik_cmdline>
J2VwaWtfcHl0aG9uJywgJy1waCcsICc3LjAnLCAnLXRuJywgJzgnLCAnLW1hJywgJzIwMCcsICctbWV0YWxfYmluZGluZycsICctaW1hZScsICc8aW5maWxlLm1hZT4nLCAnLW9tYWUnLCAnPG91dGZpbGUubWFlPic=

> <r_lp_tautomer_probability>
1

> <r_epik_Ionization_Penalty>
9.40319e-05

> <r_epik_Ionization_Penalty_Charging>
0

> <r_epik_Ionization_Penalty_Neutral>
9.40319e-05

> <r_epik_State_Penalty>
-0

> <r_epik_Charging_Adjusted_Penalty>
0

> <i_epik_Tot_Q>
0

> <i_epik_Tot_abs_Q>
0

> <r_epik_Metal_State_Penalty>
-0

> <b_epik_Metal_Only>
0

> <s_lp_Force_Field>
OPLS_2005

> <r_lp_Energy>
20.0318

> <b_lp_Chiralities_Consistent>
1

> <s_lp_Variant>
AV-unprocessed.smi:3159-1

> <Gold.Version>
5.8.1

> <Gold.Id.Protein>
6NUR|6NUR_protein|mol2

> <Gold.PLP.Fitness>
43.3349

> <Gold.PLP.PLP>
-38.0866

> <Gold.PLP.part.hbond>
-2.0000

> <Gold.PLP.part.metal>
0.0000

> <Gold.PLP.part.buried>
-7.2194

> <Gold.PLP.part.nonpolar>
-29.8862

> <Gold.PLP.part.repulsive>
0.3726

> <Gold.PLP.ligand.clash>
0.0000

> <Gold.PLP.ligand.torsion>
0.2593

> <Gold.PLP.Chemscore.Hbond>
1.9204

> <Gold.PLP.Chemscore.CHOScore>
0.0000

> <Gold.PLP.Chemscore.Metal>
0.0000

> <Gold.Chemscore.Hbonds>
donor molecule, donor type, donor heavy atom, donor atom, acceptor molecule, acceptor atom, score
      L1  H     5    22       P1  8028  0.94
      L1  H     8    23       P1  8028  1.00

> <Gold.PLP.Chemscore.Internal.Correction>
0.0057

> <Gold.Rescore>
     Score         DG    S(hbond)    S(metal)    S(lipo)     H(rot)  DE(clash)    DE(int)     intcor
     15.79     -16.96       1.86        0.00      72.28       1.25       0.81       0.36       ----

> <Gold.Chemscore.Fitness>
15.7935

> <Gold.Chemscore.DG>
-16.9640

> <Gold.Chemscore.ZeroCoef>
-5.4800

> <Gold.Chemscore.Hbond>
1.8627

> <Gold.Chemscore.Metal>
0.0000

> <Gold.Chemscore.Lipo>
72.2814

> <Gold.Chemscore.Internal_Hbond>
0.0000

> <Gold.Chemscore.DEClash>
0.8126

> <Gold.Chemscore.DEInternal>
0.3580

> <Gold.Chemscore.Rot>
1.2478

> <Gold.Chemscore.Internal.Correction>
   9.000000E+99

> <Gold.Chemscore.Hbonds>
donor molecule, donor type, donor heavy atom, donor atom, acceptor molecule, acceptor atom, score
      L1  H     5    22       P1  8028  0.84
      L1  H     8    23       P1  8028  0.99

> <Gold.Chemscore.Hbond.Weighted>
-6.2216

> <Gold.Chemscore.Metal.Weighted>
-0.0000

> <Gold.Chemscore.Lipo.Weighted>
-8.4569

> <Gold.Chemscore.Internal_Hbond.Weighted>
0.0000

> <Gold.Chemscore.DEClash.Weighted>
0.8126

> <Gold.Chemscore.DEInternal.Weighted>
0.3580

> <Gold.Chemscore.Rot.Weighted>
3.1944

> <Gold.Chemscore.Internal.Correction.Weighted>
   9.000000E+99

> <Gold.Protein.RotatedTorsions>
[ 6907 6896 6895 6894 ] final  -41.08 input  -60.11 | X-H torsion
[ 7974 7965 7964 7962 ] final   21.97 input  175.53 | X-H torsion
[ 8008 7997 7996 7995 ] final -131.15 input   59.86 | X-H torsion
[ 10167 10162 10161 10158 ] final -176.31 input  -65.29 | X-H torsion
[ 10718 10713 10712 10709 ] final  173.97 input   66.30 | X-H torsion
[ 10763 10752 10751 10750 ] final -136.97 input  -60.55 | X-H torsion
[ 11005 11000 10999 10996 ] final  -56.13 input  -57.11 | X-H torsion

> <Gold.Protein.ActiveResidues>
 VAL166  LYS551  ARG553  GLY616  TRP617  ASP618  TYR619  PRO620  LYS621  CYS622 
 ASP623  PHE694  ASN695  SER759  ASP760  ASP761  ALA762  ILE779  LEU786  VAL792 
 PHE793  MET794  SER795  GLU796  ALA797  LYS798  CYS799  TRP800  GLU811  SER814 

> <Gold.Protein.RotatedAtoms>
  150.9710  134.9082  159.7787 H   0  0  0  0  0  0  0  0  0  0  0  0  # atno 6907 bound_to 6896
  152.5190  134.3541  159.9271 H   0  0  0  0  0  0  0  0  0  0  0  0  # atno 6908 bound_to 6896
  151.3551  133.3870  159.2718 H   0  0  0  0  0  0  0  0  0  0  0  0  # atno 6909 bound_to 6896
  146.2049  139.7951  142.8734 H   0  0  0  0  0  0  0  0  0  0  0  0  # atno 7974 bound_to 7965
  155.3076  140.0456  157.3033 H   0  0  0  0  0  0  0  0  0  0  0  0  # atno 8008 bound_to 7997
  154.5451  140.2300  155.8543 H   0  0  0  0  0  0  0  0  0  0  0  0  # atno 8009 bound_to 7997
  156.1916  140.3049  155.9351 H   0  0  0  0  0  0  0  0  0  0  0  0  # atno 8010 bound_to 7997
  139.5536  144.2046  152.1120 H   0  0  0  0  0  0  0  0  0  0  0  0  # atno 10167 bound_to 10162
  156.9565  131.0047  151.2937 H   0  0  0  0  0  0  0  0  0  0  0  0  # atno 10718 bound_to 10713
  154.8672  135.3656  154.5147 H   0  0  0  0  0  0  0  0  0  0  0  0  # atno 10763 bound_to 10752
  153.5781  135.7019  153.5480 H   0  0  0  0  0  0  0  0  0  0  0  0  # atno 10764 bound_to 10752
  153.3482  135.4079  155.1588 H   0  0  0  0  0  0  0  0  0  0  0  0  # atno 10765 bound_to 10752
  141.1106  133.6611  156.4573 H   0  0  0  0  0  0  0  0  0  0  0  0  # atno 11005 bound_to 11000
  145.3356  141.0276  143.3421 LP  0  0  0  0  0  0  0  0  0  0  0  0  # atno 17320 bound_to 7965
  144.8768  139.4960  143.6742 LP  0  0  0  0  0  0  0  0  0  0  0  0  # atno 17321 bound_to 7965
  140.1546  144.5083  150.6667 LP  0  0  0  0  0  0  0  0  0  0  0  0  # atno 17342 bound_to 10162
  140.6804  143.2324  151.5398 LP  0  0  0  0  0  0  0  0  0  0  0  0  # atno 17343 bound_to 10162
  157.5687  130.8295  149.8362 LP  0  0  0  0  0  0  0  0  0  0  0  0  # atno 17370 bound_to 10713
  156.0340  130.3756  150.1609 LP  0  0  0  0  0  0  0  0  0  0  0  0  # atno 17371 bound_to 10713
  140.4786  134.6686  157.5161 LP  0  0  0  0  0  0  0  0  0  0  0  0  # atno 17394 bound_to 11000
  139.9998  134.6855  155.9550 LP  0  0  0  0  0  0  0  0  0  0  0  0  # atno 17395 bound_to 11000

$$$$
