AV-unprocessed.smi:2999|AV-procd|sdf|11427|dock6
  -GOLD-   2272016353D 1   1.00000     0.00000
 Structure written by MMmdl.
 37 39  0  0  0  0  0  0  0  0  3 V2000
  146.3899  136.4285  158.1691 O   0  0  0  0  0  0  0  0  0  0  0  0
  146.4958  137.5094  158.7532 C   0  0  0  0  0  0  0  0  0  0  0  0
  146.6598  138.6386  158.0491 N   0  0  0  0  0  0  0  0  0  0  0  0
  146.7578  138.7433  156.5953 C   0  0  0  0  0  0  0  0  0  0  0  0
  147.9767  139.5696  156.1406 C   0  0  2  0  0  0  0  0  0  0  0  0
  147.9229  141.0601  156.5513 C   0  0  0  0  0  0  0  0  0  0  0  0
  149.0933  141.8084  156.0378 N   0  3  1  0  0  0  0  0  0  0  0  0
  150.3333  141.5692  156.8118 C   0  0  0  0  0  0  0  0  0  0  0  0
  150.3139  142.1847  158.1915 C   0  0  0  0  0  0  0  0  0  0  0  0
  151.1241  142.8265  157.0872 C   0  0  0  0  0  0  0  0  0  0  0  0
  149.2572  141.5976  154.5800 C   0  0  0  0  0  0  0  0  0  0  0  0
  149.2699  140.0982  154.2283 C   0  0  0  0  0  0  0  0  0  0  0  0
  148.0905  139.4759  154.7235 O   0  0  0  0  0  0  0  0  0  0  0  0
  146.4824  137.7023  160.0907 N   0  5  0  0  0  0  0  0  0  0  0  0
  146.8369  136.7047  160.9170 C   0  0  0  0  0  0  0  0  0  0  0  0
  147.6122  136.8892  161.9918 N   0  0  0  0  0  0  0  0  0  0  0  0
  147.8477  135.7174  162.7138 C   0  0  0  0  0  0  0  0  0  0  0  0
  147.2313  134.6167  162.1801 C   0  0  0  0  0  0  0  0  0  0  0  0
  146.3319  135.0213  160.7459 S   0  0  0  0  0  0  0  0  0  0  0  0
  146.7399  139.4983  158.5724 H   0  0  0  0  0  0  0  0  0  0  0  0
  146.7848  137.7538  156.1364 H   0  0  0  0  0  0  0  0  0  0  0  0
  145.8441  139.2148  156.2331 H   0  0  0  0  0  0  0  0  0  0  0  0
  148.8588  139.1065  156.5855 H   0  0  0  0  0  0  0  0  0  0  0  0
  147.0335  141.5346  156.1367 H   0  0  0  0  0  0  0  0  0  0  0  0
  147.8530  141.1623  157.6348 H   0  0  0  0  0  0  0  0  0  0  0  0
  150.8469  140.6251  156.6414 H   0  0  0  0  0  0  0  0  0  0  0  0
  149.4093  142.6969  158.5145 H   0  0  0  0  0  0  0  0  0  0  0  0
  150.8622  141.6700  158.9779 H   0  0  0  0  0  0  0  0  0  0  0  0
  152.2067  142.7359  157.1464 H   0  0  0  0  0  0  0  0  0  0  0  0
  150.7579  143.7664  156.6777 H   0  0  0  0  0  0  0  0  0  0  0  0
  148.4244  142.0809  154.0675 H   0  0  0  0  0  0  0  0  0  0  0  0
  150.1658  142.0862  154.2264 H   0  0  0  0  0  0  0  0  0  0  0  0
  149.3051  139.9700  153.1464 H   0  0  0  0  0  0  0  0  0  0  0  0
  150.1547  139.6037  154.6314 H   0  0  0  0  0  0  0  0  0  0  0  0
  148.4660  135.7596  163.5981 H   0  0  0  0  0  0  0  0  0  0  0  0
  147.2499  133.5991  162.5401 H   0  0  0  0  0  0  0  0  0  0  0  0
  148.8807  142.7879  156.1640 H   0  0  0  0  0  0  0  0  0  0  0  0
  1  2  2  0  0  0  0
  2  3  1  0  0  0  0
  2 14  1  0  0  0  0
  3  4  1  0  0  0  0
  3 20  1  0  0  0  0
  4  5  1  0  0  0  0
  4 21  1  0  0  0  0
  4 22  1  0  0  0  0
  5 13  1  0  0  0  0
  5  6  1  0  0  0  0
  5 23  1  0  0  0  0
  6  7  1  0  0  0  0
  6 24  1  0  0  0  0
  6 25  1  0  0  0  0
  7  8  1  0  0  0  0
  7 11  1  0  0  0  0
  7 37  1  0  0  0  0
  8 10  1  0  0  0  0
  8  9  1  0  0  0  0
  8 26  1  0  0  0  0
  9 10  1  0  0  0  0
  9 27  1  0  0  0  0
  9 28  1  0  0  0  0
 10 29  1  0  0  0  0
 10 30  1  0  0  0  0
 11 12  1  0  0  0  0
 11 31  1  0  0  0  0
 11 32  1  0  0  0  0
 12 13  1  0  0  0  0
 12 33  1  0  0  0  0
 12 34  1  0  0  0  0
 14 15  1  0  0  0  0
 15 19  1  0  0  0  0
 15 16  2  0  0  0  0
 16 17  1  0  0  0  0
 17 18  2  0  0  0  0
 17 35  1  0  0  0  0
 18 19  1  0  0  0  0
 18 36  1  0  0  0  0
M  CHG  1   7   1
M  CHG  1  14  -1
M  END
> <s_m_source_file>
AV-unprocessed.smi

> <i_m_source_file_index>
2999

> <i_lp_mmshare_version>
43012

> <i_f3d_flags>
0

> <s_epik_input>
czFbY0hdW2NIXW5jMVtOSF1DKD1PKVtOSF1bQ0gyXVtDQEBIXTJbQ0gyXU4oW0NIMl1bQ0gyXU8yKVtDSF0zW0NIMl1bQ0gyXTM=

> <s_epik_cmdline>
J2VwaWtfcHl0aG9uJywgJy1waCcsICc3LjAnLCAnLXRuJywgJzgnLCAnLW1hJywgJzIwMCcsICctbWV0YWxfYmluZGluZycsICctaW1hZScsICc8aW5maWxlLm1hZT4nLCAnLW9tYWUnLCAnPG91dGZpbGUubWFlPic=

> <r_lp_tautomer_probability>
0.999

> <r_epik_Ionization_Penalty>
7.79196

> <r_epik_Ionization_Penalty_Charging>
6.93299

> <r_epik_Ionization_Penalty_Neutral>
0.858963

> <r_epik_State_Penalty>
7.05108

> <r_epik_Charging_Adjusted_Penalty>
13.9841

> <i_epik_Tot_Q>
0

> <i_epik_Tot_abs_Q>
2

> <r_epik_Metal_State_Penalty>
3.05936

> <b_epik_Metal_Only>
1

> <s_lp_Force_Field>
OPLS_2005

> <r_lp_Energy>
16.1762

> <b_lp_Chiralities_Consistent>
1

> <s_lp_Variant>
AV-unprocessed.smi:2999-11

> <Gold.Version>
5.8.1

> <Gold.Id.Protein>
6NUR|6NUR_protein|mol2

> <Gold.PLP.Fitness>
41.7958

> <Gold.PLP.PLP>
-28.0912

> <Gold.PLP.part.hbond>
-3.8092

> <Gold.PLP.part.metal>
0.0000

> <Gold.PLP.part.buried>
-2.3162

> <Gold.PLP.part.nonpolar>
-22.5568

> <Gold.PLP.part.repulsive>
0.2420

> <Gold.PLP.ligand.clash>
0.0000

> <Gold.PLP.ligand.torsion>
1.2012

> <Gold.PLP.Chemscore.Hbond>
4.9280

> <Gold.PLP.Chemscore.CHOScore>
0.0000

> <Gold.PLP.Chemscore.Metal>
0.0000

> <Gold.Chemscore.Hbonds>
donor molecule, donor type, donor heavy atom, donor atom, acceptor molecule, acceptor atom, score
      L1  H     7    37       P1  8028  2.00
      P1  H  6931  6943       L1    16  1.00
      P1  H  6934  6947       L1    14  2.00

> <Gold.PLP.Chemscore.Internal.Correction>
1.3229

> <Gold.Rescore>
     Score         DG    S(hbond)    S(metal)    S(lipo)     H(rot)  DE(clash)    DE(int)     intcor
     15.38     -17.15       2.47        0.00      63.20       1.55       0.03       1.74       ----

> <Gold.Chemscore.Fitness>
15.3797

> <Gold.Chemscore.DG>
-17.1496

> <Gold.Chemscore.ZeroCoef>
-5.4800

> <Gold.Chemscore.Hbond>
2.4682

> <Gold.Chemscore.Metal>
0.0000

> <Gold.Chemscore.Lipo>
63.2037

> <Gold.Chemscore.Internal_Hbond>
0.0000

> <Gold.Chemscore.DEClash>
0.0329

> <Gold.Chemscore.DEInternal>
1.7370

> <Gold.Chemscore.Rot>
1.5504

> <Gold.Chemscore.Internal.Correction>
   9.000000E+99

> <Gold.Chemscore.Hbonds>
donor molecule, donor type, donor heavy atom, donor atom, acceptor molecule, acceptor atom, score
      L1  H     7    37       P1  8028  0.95
      P1  H  6931  6943       L1    16  0.89
      P1  H  6934  6947       L1    14  0.30

> <Gold.Chemscore.Hbond.Weighted>
-8.2437

> <Gold.Chemscore.Metal.Weighted>
-0.0000

> <Gold.Chemscore.Lipo.Weighted>
-7.3948

> <Gold.Chemscore.Internal_Hbond.Weighted>
0.0000

> <Gold.Chemscore.DEClash.Weighted>
0.0329

> <Gold.Chemscore.DEInternal.Weighted>
1.7370

> <Gold.Chemscore.Rot.Weighted>
3.9690

> <Gold.Chemscore.Internal.Correction.Weighted>
   9.000000E+99

> <Gold.Protein.RotatedTorsions>
[ 6907 6896 6895 6894 ] final -101.19 input  -60.11 | X-H torsion
[ 7974 7965 7964 7962 ] final   16.95 input  175.53 | X-H torsion
[ 8008 7997 7996 7995 ] final -113.45 input   59.86 | X-H torsion
[ 10167 10162 10161 10158 ] final -130.11 input  -65.29 | X-H torsion
[ 10718 10713 10712 10709 ] final  138.80 input   66.30 | X-H torsion
[ 10763 10752 10751 10750 ] final  -91.45 input  -60.55 | X-H torsion
[ 11005 11000 10999 10996 ] final   49.18 input  -57.11 | X-H torsion

> <Gold.Protein.ActiveResidues>
 VAL166  LYS551  ARG553  GLY616  TRP617  ASP618  TYR619  PRO620  LYS621  CYS622 
 ASP623  PHE694  ASN695  SER759  ASP760  ASP761  ALA762  ILE779  LEU786  VAL792 
 PHE793  MET794  SER795  GLU796  ALA797  LYS798  CYS799  TRP800  GLU811  SER814 

> <Gold.Protein.RotatedAtoms>
  150.7145  134.0773  159.3885 H   0  0  0  0  0  0  0  0  0  0  0  0  # atno 6907 bound_to 6896
  151.8756  135.0471  160.0493 H   0  0  0  0  0  0  0  0  0  0  0  0  # atno 6908 bound_to 6896
  152.2608  133.5260  159.5417 H   0  0  0  0  0  0  0  0  0  0  0  0  # atno 6909 bound_to 6896
  146.2234  139.8673  142.8594 H   0  0  0  0  0  0  0  0  0  0  0  0  # atno 7974 bound_to 7965
  155.0210  140.0393  157.2437 H   0  0  0  0  0  0  0  0  0  0  0  0  # atno 8008 bound_to 7997
  154.7378  140.2743  155.6376 H   0  0  0  0  0  0  0  0  0  0  0  0  # atno 8009 bound_to 7997
  156.2857  140.2671  156.2097 H   0  0  0  0  0  0  0  0  0  0  0  0  # atno 8010 bound_to 7997
  139.9327  143.6253  152.2525 H   0  0  0  0  0  0  0  0  0  0  0  0  # atno 10167 bound_to 10162
  157.4214  131.1039  151.0349 H   0  0  0  0  0  0  0  0  0  0  0  0  # atno 10718 bound_to 10713
  154.6762  135.5267  153.8203 H   0  0  0  0  0  0  0  0  0  0  0  0  # atno 10763 bound_to 10752
  153.0534  135.6541  154.0647 H   0  0  0  0  0  0  0  0  0  0  0  0  # atno 10764 bound_to 10752
  154.0540  135.2967  155.3315 H   0  0  0  0  0  0  0  0  0  0  0  0  # atno 10765 bound_to 10752
  140.1125  134.4935  155.8665 H   0  0  0  0  0  0  0  0  0  0  0  0  # atno 11005 bound_to 11000
  145.2644  141.0088  143.3808 LP  0  0  0  0  0  0  0  0  0  0  0  0  # atno 17320 bound_to 7965
  144.9273  139.4340  143.6512 LP  0  0  0  0  0  0  0  0  0  0  0  0  # atno 17321 bound_to 7965
  139.6769  144.7658  151.1680 LP  0  0  0  0  0  0  0  0  0  0  0  0  # atno 17342 bound_to 10162
  140.7633  143.5782  150.8923 LP  0  0  0  0  0  0  0  0  0  0  0  0  # atno 17343 bound_to 10162
  157.1278  130.6089  149.5521 LP  0  0  0  0  0  0  0  0  0  0  0  0  # atno 17370 bound_to 10713
  155.9882  130.4924  150.7159 LP  0  0  0  0  0  0  0  0  0  0  0  0  # atno 17371 bound_to 10713
  141.2133  133.6732  156.6733 LP  0  0  0  0  0  0  0  0  0  0  0  0  # atno 17394 bound_to 11000
  140.3071  134.8116  157.4146 LP  0  0  0  0  0  0  0  0  0  0  0  0  # atno 17395 bound_to 11000

$$$$
