AV-unprocessed.smi:299|AV-procd|sdf|2266|dock4
  -GOLD-   2262022153D 1   1.00000     0.00000
 Structure written by MMmdl.
 42 43  0  0  0  0  0  0  0  0  2 V2000
  146.2085  132.1975  153.1067 C   0  0  0  0  0  0  0  0  0  0  0  0
  147.0931  133.1796  152.3076 C   0  0  1  0  0  0  0  0  0  0  0  0
  146.6750  133.2729  150.8252 C   0  0  0  0  0  0  0  0  0  0  0  0
  145.3616  134.0479  150.6448 C   0  0  0  0  0  0  0  0  0  0  0  0
  145.4689  135.4261  151.3083 C   0  0  0  0  0  0  0  0  0  0  0  0
  145.8918  135.3052  152.7817 C   0  0  0  0  0  0  0  0  0  0  0  0
  147.1641  134.5428  152.9145 N   0  3  1  0  0  0  0  0  0  0  0  0
  147.7250  134.5524  154.2905 C   0  0  0  0  0  0  0  0  0  0  0  0
  149.0445  133.7644  154.3920 C   0  0  0  0  0  0  0  0  0  0  0  0
  149.5074  133.5248  155.8417 C   0  0  0  0  0  0  0  0  0  0  0  0
  148.4437  133.7287  156.8200 N   0  0  0  0  0  0  0  0  0  0  0  0
  148.5159  134.5434  157.8845 C   0  0  0  0  0  0  0  0  0  0  0  0
  149.4960  135.2428  158.1380 O   0  0  0  0  0  0  0  0  0  0  0  0
  147.2953  134.5771  158.8044 C   0  0  0  0  0  0  0  0  0  0  0  0
  147.4255  135.6211  159.8030 N   0  0  0  0  0  0  0  0  0  0  0  0
  148.3278  135.8026  160.7696 C   0  0  0  0  0  0  0  0  0  0  0  0
  148.0711  136.8909  161.4791 N   0  0  0  0  0  0  0  0  0  0  0  0
  146.9255  137.3925  160.8834 N   0  0  0  0  0  0  0  0  0  0  0  0
  146.5375  136.6431  159.8883 N   0  0  0  0  0  0  0  0  0  0  0  0
  146.2024  131.2151  152.6342 H   0  0  0  0  0  0  0  0  0  0  0  0
  145.1728  132.5295  153.1725 H   0  0  0  0  0  0  0  0  0  0  0  0
  146.5759  132.0563  154.1229 H   0  0  0  0  0  0  0  0  0  0  0  0
  148.1054  132.7735  152.3194 H   0  0  0  0  0  0  0  0  0  0  0  0
  147.4630  133.7744  150.2618 H   0  0  0  0  0  0  0  0  0  0  0  0
  146.5837  132.2757  150.3931 H   0  0  0  0  0  0  0  0  0  0  0  0
  145.1344  134.1588  149.5841 H   0  0  0  0  0  0  0  0  0  0  0  0
  144.5326  133.4897  151.0804 H   0  0  0  0  0  0  0  0  0  0  0  0
  146.1953  136.0354  150.7689 H   0  0  0  0  0  0  0  0  0  0  0  0
  144.5144  135.9486  151.2364 H   0  0  0  0  0  0  0  0  0  0  0  0
  146.0093  136.3080  153.1903 H   0  0  0  0  0  0  0  0  0  0  0  0
  145.1041  134.8276  153.3648 H   0  0  0  0  0  0  0  0  0  0  0  0
  147.8586  135.5818  154.6266 H   0  0  0  0  0  0  0  0  0  0  0  0
  147.0077  134.0934  154.9721 H   0  0  0  0  0  0  0  0  0  0  0  0
  148.9215  132.7966  153.9047 H   0  0  0  0  0  0  0  0  0  0  0  0
  149.8361  134.2759  153.8453 H   0  0  0  0  0  0  0  0  0  0  0  0
  149.8723  132.5029  155.9479 H   0  0  0  0  0  0  0  0  0  0  0  0
  150.3501  134.1760  156.0789 H   0  0  0  0  0  0  0  0  0  0  0  0
  147.6013  133.1848  156.6982 H   0  0  0  0  0  0  0  0  0  0  0  0
  146.3922  134.7619  158.2213 H   0  0  0  0  0  0  0  0  0  0  0  0
  147.1683  133.6124  159.2986 H   0  0  0  0  0  0  0  0  0  0  0  0
  149.1616  135.1415  160.9541 H   0  0  0  0  0  0  0  0  0  0  0  0
  147.8384  135.0393  152.3496 H   0  0  0  0  0  0  0  0  0  0  0  0
  1  2  1  0  0  0  0
  1 20  1  0  0  0  0
  1 21  1  0  0  0  0
  1 22  1  0  0  0  0
  2  7  1  0  0  0  0
  2  3  1  0  0  0  0
  2 23  1  0  0  0  0
  3  4  1  0  0  0  0
  3 24  1  0  0  0  0
  3 25  1  0  0  0  0
  4  5  1  0  0  0  0
  4 26  1  0  0  0  0
  4 27  1  0  0  0  0
  5  6  1  0  0  0  0
  5 28  1  0  0  0  0
  5 29  1  0  0  0  0
  6  7  1  0  0  0  0
  6 30  1  0  0  0  0
  6 31  1  0  0  0  0
  7  8  1  0  0  0  0
  7 42  1  0  0  0  0
  8  9  1  0  0  0  0
  8 32  1  0  0  0  0
  8 33  1  0  0  0  0
  9 10  1  0  0  0  0
  9 34  1  0  0  0  0
  9 35  1  0  0  0  0
 10 11  1  0  0  0  0
 10 36  1  0  0  0  0
 10 37  1  0  0  0  0
 11 12  1  0  0  0  0
 11 38  1  0  0  0  0
 12 13  2  0  0  0  0
 12 14  1  0  0  0  0
 14 15  1  0  0  0  0
 14 39  1  0  0  0  0
 14 40  1  0  0  0  0
 15 19  1  0  0  0  0
 15 16  1  0  0  0  0
 16 17  2  0  0  0  0
 16 41  1  0  0  0  0
 17 18  1  0  0  0  0
 18 19  2  0  0  0  0
M  CHG  1   7   1
M  END
> <s_m_source_file>
AV-unprocessed.smi

> <i_m_source_file_index>
299

> <i_lp_mmshare_version>
43012

> <i_f3d_flags>
0

> <s_epik_input>
W0NIM11bQ0BASF0xW0NIMl1bQ0gyXVtDSDJdW0NIMl1OMVtDSDJdW0NIMl1bQ0gyXVtOSF1DKD1PKVtDSDJdbjJbY0hdbm5uMg==

> <s_epik_cmdline>
J2VwaWtfcHl0aG9uJywgJy1waCcsICc3LjAnLCAnLXRuJywgJzgnLCAnLW1hJywgJzIwMCcsICctbWV0YWxfYmluZGluZycsICctaW1hZScsICc8aW5maWxlLm1hZT4nLCAnLW9tYWUnLCAnPG91dGZpbGUubWFlPic=

> <r_lp_tautomer_probability>
1

> <r_epik_Ionization_Penalty>
0.000544863

> <r_epik_Ionization_Penalty_Charging>
0.000543475

> <r_epik_Ionization_Penalty_Neutral>
1.38784e-06

> <r_epik_State_Penalty>
0.000340025

> <r_epik_Charging_Adjusted_Penalty>
0.0008835

> <i_epik_Tot_Q>
1

> <i_epik_Tot_abs_Q>
1

> <r_epik_Metal_State_Penalty>
-0

> <b_epik_Metal_Only>
0

> <s_lp_Force_Field>
OPLS_2005

> <r_lp_Energy>
24.6376

> <b_lp_Chiralities_Consistent>
1

> <s_lp_Variant>
AV-unprocessed.smi:299-2

> <Gold.Version>
5.8.1

> <Gold.Id.Protein>
6NUR|6NUR_protein|mol2

> <Gold.PLP.Fitness>
40.3238

> <Gold.PLP.PLP>
-26.1393

> <Gold.PLP.part.hbond>
-5.2420

> <Gold.PLP.part.metal>
0.0000

> <Gold.PLP.part.buried>
-1.9723

> <Gold.PLP.part.nonpolar>
-18.6824

> <Gold.PLP.part.repulsive>
0.0315

> <Gold.PLP.ligand.clash>
0.0000

> <Gold.PLP.ligand.torsion>
0.4434

> <Gold.PLP.Chemscore.Hbond>
5.0000

> <Gold.PLP.Chemscore.CHOScore>
0.0000

> <Gold.PLP.Chemscore.Metal>
0.0000

> <Gold.Chemscore.Hbonds>
donor molecule, donor type, donor heavy atom, donor atom, acceptor molecule, acceptor atom, score
      L1  H     7    42       P1  7948  2.00
      P1  H  6896  6909       L1    13  1.00
      P1  H  6931  6943       L1    17  1.00
      P1  H  6934  6947       L1    18  1.00

> <Gold.PLP.Chemscore.Internal.Correction>
0.0713

> <Gold.Rescore>
     Score         DG    S(hbond)    S(metal)    S(lipo)     H(rot)  DE(clash)    DE(int)     intcor
     11.44     -13.27       3.00        0.00      45.82       2.97       0.09       1.75       ----

> <Gold.Chemscore.Fitness>
11.4371

> <Gold.Chemscore.DG>
-13.2704

> <Gold.Chemscore.ZeroCoef>
-5.4800

> <Gold.Chemscore.Hbond>
3.0021

> <Gold.Chemscore.Metal>
0.0000

> <Gold.Chemscore.Lipo>
45.8239

> <Gold.Chemscore.Internal_Hbond>
0.0000

> <Gold.Chemscore.DEClash>
0.0853

> <Gold.Chemscore.DEInternal>
1.7480

> <Gold.Chemscore.Rot>
2.9680

> <Gold.Chemscore.Internal.Correction>
   9.000000E+99

> <Gold.Chemscore.Hbonds>
donor molecule, donor type, donor heavy atom, donor atom, acceptor molecule, acceptor atom, score
      L1  H     7    42       P1  7948  0.90
      P1  H  6896  6909       L1    13  0.73
      P1  H  6931  6943       L1    17  0.60
      P1  H  6934  6947       L1    18  0.40

> <Gold.Chemscore.Hbond.Weighted>
-10.0270

> <Gold.Chemscore.Metal.Weighted>
-0.0000

> <Gold.Chemscore.Lipo.Weighted>
-5.3614

> <Gold.Chemscore.Internal_Hbond.Weighted>
0.0000

> <Gold.Chemscore.DEClash.Weighted>
0.0853

> <Gold.Chemscore.DEInternal.Weighted>
1.7480

> <Gold.Chemscore.Rot.Weighted>
7.5980

> <Gold.Chemscore.Internal.Correction.Weighted>
   9.000000E+99

> <Gold.Protein.RotatedTorsions>
[ 6907 6896 6895 6894 ] final   34.18 input  -60.11 | X-H torsion
[ 7974 7965 7964 7962 ] final    2.22 input  175.53 | X-H torsion
[ 8008 7997 7996 7995 ] final  154.20 input   59.86 | X-H torsion
[ 10167 10162 10161 10158 ] final -145.31 input  -65.29 | X-H torsion
[ 10718 10713 10712 10709 ] final  -70.07 input   66.30 | X-H torsion
[ 10763 10752 10751 10750 ] final  -21.80 input  -60.55 | X-H torsion
[ 11005 11000 10999 10996 ] final  120.95 input  -57.11 | X-H torsion

> <Gold.Protein.ActiveResidues>
 VAL166  LYS551  ARG553  GLY616  TRP617  ASP618  TYR619  PRO620  LYS621  CYS622 
 ASP623  PHE694  ASN695  SER759  ASP760  ASP761  ALA762  ILE779  LEU786  VAL792 
 PHE793  MET794  SER795  GLU796  ALA797  LYS798  CYS799  TRP800  GLU811  SER814 

> <Gold.Protein.RotatedAtoms>
  152.0989  134.9355  160.0569 H   0  0  0  0  0  0  0  0  0  0  0  0  # atno 6907 bound_to 6896
  152.0578  133.4043  159.4413 H   0  0  0  0  0  0  0  0  0  0  0  0  # atno 6908 bound_to 6896
  150.6839  134.3155  159.4808 H   0  0  0  0  0  0  0  0  0  0  0  0  # atno 6909 bound_to 6896
  146.2443  140.0869  142.8354 H   0  0  0  0  0  0  0  0  0  0  0  0  # atno 7974 bound_to 7965
  156.2543  140.1973  156.6609 H   0  0  0  0  0  0  0  0  0  0  0  0  # atno 8008 bound_to 7997
  154.6465  140.0577  156.9932 H   0  0  0  0  0  0  0  0  0  0  0  0  # atno 8009 bound_to 7997
  155.1483  140.3249  155.4439 H   0  0  0  0  0  0  0  0  0  0  0  0  # atno 8010 bound_to 7997
  139.7818  143.8090  152.2639 H   0  0  0  0  0  0  0  0  0  0  0  0  # atno 10167 bound_to 10162
  156.0425  130.4324  150.2242 H   0  0  0  0  0  0  0  0  0  0  0  0  # atno 10718 bound_to 10713
  153.6418  135.6984  153.5239 H   0  0  0  0  0  0  0  0  0  0  0  0  # atno 10763 bound_to 10752
  153.2776  135.4195  155.1047 H   0  0  0  0  0  0  0  0  0  0  0  0  # atno 10764 bound_to 10752
  154.8498  135.3594  154.5962 H   0  0  0  0  0  0  0  0  0  0  0  0  # atno 10765 bound_to 10752
  139.9206  134.9637  156.7885 H   0  0  0  0  0  0  0  0  0  0  0  0  # atno 11005 bound_to 11000
  145.0685  140.9138  143.4896 LP  0  0  0  0  0  0  0  0  0  0  0  0  # atno 17320 bound_to 7965
  145.0998  139.2831  143.5692 LP  0  0  0  0  0  0  0  0  0  0  0  0  # atno 17321 bound_to 7965
  139.8155  144.7318  150.9641 LP  0  0  0  0  0  0  0  0  0  0  0  0  # atno 17342 bound_to 10162
  140.7818  143.4209  151.0843 LP  0  0  0  0  0  0  0  0  0  0  0  0  # atno 17343 bound_to 10162
  157.0335  131.0014  151.3305 LP  0  0  0  0  0  0  0  0  0  0  0  0  # atno 17370 bound_to 10713
  157.5260  130.8028  149.7863 LP  0  0  0  0  0  0  0  0  0  0  0  0  # atno 17371 bound_to 10713
  140.6486  133.9752  155.7744 LP  0  0  0  0  0  0  0  0  0  0  0  0  # atno 17394 bound_to 11000
  141.0723  134.0187  157.3508 LP  0  0  0  0  0  0  0  0  0  0  0  0  # atno 17395 bound_to 11000

$$$$
