AV-unprocessed.smi:2556|AV-procd|sdf|10024|dock1
  -GOLD-   2272014 63D 1   1.00000     0.00000
 Structure written by MMmdl.
 35 37  0  0  0  0  0  0  0  0  1 V2000
  149.1969  133.8718  157.2198 C   0  0  0  0  0  0  0  0  0  0  0  0
  149.4251  135.1842  156.6117 N   0  0  0  0  0  0  0  0  0  0  0  0
  149.4315  135.3632  155.2494 C   0  0  0  0  0  0  0  0  0  0  0  0
  149.2427  134.4407  154.4573 O   0  0  0  0  0  0  0  0  0  0  0  0
  149.6578  136.6274  154.7746 N   0  0  0  0  0  0  0  0  0  0  0  0
  149.8775  137.7529  155.4973 C   0  0  0  0  0  0  0  0  0  0  0  0
  150.0737  138.8589  154.9977 O   0  0  0  0  0  0  0  0  0  0  0  0
  149.8543  137.5152  156.9435 C   0  0  0  0  0  0  0  0  0  0  0  0
  149.6382  136.2879  157.4837 C   0  0  0  0  0  0  0  0  0  0  0  0
  149.6654  136.3390  158.8730 N   0  0  0  0  0  0  0  0  0  0  0  0
  149.9023  137.6331  159.0994 C   0  0  0  0  0  0  0  0  0  0  0  0
  150.0265  138.4048  157.9996 N   0  0  0  0  0  0  0  0  0  0  0  0
  150.2834  139.8359  157.9639 C   0  0  0  0  0  0  0  0  0  0  0  0
  151.7232  140.1936  158.3837 C   0  0  1  0  0  0  0  0  0  0  0  0
  152.6389  139.7291  157.4100 O   0  0  0  0  0  0  0  0  0  0  0  0
  151.8652  141.6847  158.6466 C   0  0  0  0  0  0  0  0  0  0  0  0
  152.3212  142.1572  159.8975 C   0  0  0  0  0  0  0  0  0  0  0  0
  152.4583  143.5400  160.1272 C   0  0  0  0  0  0  0  0  0  0  0  0
  152.1439  144.4585  159.1075 C   0  0  0  0  0  0  0  0  0  0  0  0
  151.6929  143.9932  157.8574 C   0  0  0  0  0  0  0  0  0  0  0  0
  151.5553  142.6104  157.6270 C   0  0  0  0  0  0  0  0  0  0  0  0
  149.6606  136.7329  153.7706 H   0  0  0  0  0  0  0  0  0  0  0  0
  149.0810  133.0615  156.4993 H   0  0  0  0  0  0  0  0  0  0  0  0
  148.2949  133.8972  157.8320 H   0  0  0  0  0  0  0  0  0  0  0  0
  150.0341  133.6110  157.8682 H   0  0  0  0  0  0  0  0  0  0  0  0
  149.9852  138.0340  160.0992 H   0  0  0  0  0  0  0  0  0  0  0  0
  150.0837  140.1979  156.9543 H   0  0  0  0  0  0  0  0  0  0  0  0
  149.5616  140.3319  158.6136 H   0  0  0  0  0  0  0  0  0  0  0  0
  151.9647  139.6646  159.3061 H   0  0  0  0  0  0  0  0  0  0  0  0
  152.2261  139.0346  156.9194 H   0  0  0  0  0  0  0  0  0  0  0  0
  152.5705  141.4610  160.6850 H   0  0  0  0  0  0  0  0  0  0  0  0
  152.8068  143.8957  161.0855 H   0  0  0  0  0  0  0  0  0  0  0  0
  152.2507  145.5188  159.2835 H   0  0  0  0  0  0  0  0  0  0  0  0
  151.4543  144.6973  157.0739 H   0  0  0  0  0  0  0  0  0  0  0  0
  151.2130  142.2629  156.6630 H   0  0  0  0  0  0  0  0  0  0  0  0
  1  2  1  0  0  0  0
  1 23  1  0  0  0  0
  1 24  1  0  0  0  0
  1 25  1  0  0  0  0
  2  9  1  0  0  0  0
  2  3  1  0  0  0  0
  3  4  2  0  0  0  0
  3  5  1  0  0  0  0
  5 22  1  0  0  0  0
  5  6  1  0  0  0  0
  6  7  2  0  0  0  0
  6  8  1  0  0  0  0
  8 12  1  0  0  0  0
  8  9  2  0  0  0  0
  9 10  1  0  0  0  0
 10 11  2  0  0  0  0
 11 12  1  0  0  0  0
 11 26  1  0  0  0  0
 12 13  1  0  0  0  0
 13 14  1  0  0  0  0
 13 27  1  0  0  0  0
 13 28  1  0  0  0  0
 14 15  1  0  0  0  0
 14 16  1  0  0  0  0
 14 29  1  0  0  0  0
 15 30  1  0  0  0  0
 16 21  1  0  0  0  0
 16 17  2  0  0  0  0
 17 18  1  0  0  0  0
 17 31  1  0  0  0  0
 18 19  2  0  0  0  0
 18 32  1  0  0  0  0
 19 20  1  0  0  0  0
 19 33  1  0  0  0  0
 20 21  2  0  0  0  0
 20 34  1  0  0  0  0
 21 35  1  0  0  0  0
M  END
> <s_m_source_file>
AV-unprocessed.smi

> <i_m_source_file_index>
2556

> <i_lp_mmshare_version>
43012

> <i_f3d_flags>
0

> <s_epik_input>
Tz1jMVtuSF1jKD1PKW4oW0NIM10pYyhjMTIpbltjSF1uMltDSDJdW0NASF0oW09IXSljM1tjSF1bY0hdW2NIXVtjSF1bY0hdMw==

> <s_epik_cmdline>
J2VwaWtfcHl0aG9uJywgJy1waCcsICc3LjAnLCAnLXRuJywgJzgnLCAnLW1hJywgJzIwMCcsICctbWV0YWxfYmluZGluZycsICctaW1hZScsICc8aW5maWxlLm1hZT4nLCAnLW9tYWUnLCAnPG91dGZpbGUubWFlPic=

> <r_lp_tautomer_probability>
1

> <r_epik_Ionization_Penalty>
0.000177505

> <r_epik_Ionization_Penalty_Charging>
0.000176585

> <r_epik_Ionization_Penalty_Neutral>
9.19728e-07

> <r_epik_State_Penalty>
-0

> <r_epik_Charging_Adjusted_Penalty>
0.000176585

> <i_epik_Tot_Q>
0

> <i_epik_Tot_abs_Q>
0

> <r_epik_Metal_State_Penalty>
0.122509

> <b_epik_Metal_Only>
0

> <s_lp_Force_Field>
OPLS_2005

> <r_lp_Energy>
28.4521

> <b_lp_Chiralities_Consistent>
1

> <s_lp_Variant>
AV-unprocessed.smi:2556-2

> <Gold.Version>
5.8.1

> <Gold.Id.Protein>
6NUR|6NUR_protein|mol2

> <Gold.PLP.Fitness>
43.0912

> <Gold.PLP.PLP>
-34.5144

> <Gold.PLP.part.hbond>
-3.0000

> <Gold.PLP.part.metal>
0.0000

> <Gold.PLP.part.buried>
-5.5266

> <Gold.PLP.part.nonpolar>
-26.6204

> <Gold.PLP.part.repulsive>
0.3798

> <Gold.PLP.ligand.clash>
0.0000

> <Gold.PLP.ligand.torsion>
0.2228

> <Gold.PLP.Chemscore.Hbond>
3.0000

> <Gold.PLP.Chemscore.CHOScore>
0.0000

> <Gold.PLP.Chemscore.Metal>
0.0000

> <Gold.Chemscore.Hbonds>
donor molecule, donor type, donor heavy atom, donor atom, acceptor molecule, acceptor atom, score
      L1  H     5    22       P1  7948  0.91
      P1  H  6896  6909       L1    10  0.91
      P1  H  7997  8009       L1    15  1.00

> <Gold.PLP.Chemscore.Internal.Correction>
0.0224

> <Gold.Rescore>
     Score         DG    S(hbond)    S(metal)    S(lipo)     H(rot)  DE(clash)    DE(int)     intcor
     18.71     -18.88       2.93        0.00      81.37       2.31       0.02       0.15       ----

> <Gold.Chemscore.Fitness>
18.7140

> <Gold.Chemscore.DG>
-18.8798

> <Gold.Chemscore.ZeroCoef>
-5.4800

> <Gold.Chemscore.Hbond>
2.9330

> <Gold.Chemscore.Metal>
0.0000

> <Gold.Chemscore.Lipo>
81.3745

> <Gold.Chemscore.Internal_Hbond>
0.0000

> <Gold.Chemscore.DEClash>
0.0195

> <Gold.Chemscore.DEInternal>
0.1462

> <Gold.Chemscore.Rot>
2.3115

> <Gold.Chemscore.Internal.Correction>
   9.000000E+99

> <Gold.Chemscore.Hbonds>
donor molecule, donor type, donor heavy atom, donor atom, acceptor molecule, acceptor atom, score
      L1  H     5    22       P1  7948  0.60
      P1  H  6896  6909       L1    10  0.68
      P1  H  7997  8009       L1    15  0.65

> <Gold.Chemscore.Hbond.Weighted>
-9.7964

> <Gold.Chemscore.Metal.Weighted>
-0.0000

> <Gold.Chemscore.Lipo.Weighted>
-9.5208

> <Gold.Chemscore.Internal_Hbond.Weighted>
0.0000

> <Gold.Chemscore.DEClash.Weighted>
0.0195

> <Gold.Chemscore.DEInternal.Weighted>
0.1462

> <Gold.Chemscore.Rot.Weighted>
5.9174

> <Gold.Chemscore.Internal.Correction.Weighted>
   9.000000E+99

> <Gold.Protein.RotatedTorsions>
[ 6907 6896 6895 6894 ] final   61.29 input  -60.11 | X-H torsion
[ 7974 7965 7964 7962 ] final -152.99 input  175.53 | X-H torsion
[ 8008 7997 7996 7995 ] final -177.77 input   59.86 | X-H torsion
[ 10167 10162 10161 10158 ] final -101.49 input  -65.29 | X-H torsion
[ 10718 10713 10712 10709 ] final  136.16 input   66.30 | X-H torsion
[ 10763 10752 10751 10750 ] final  -43.22 input  -60.55 | X-H torsion
[ 11005 11000 10999 10996 ] final   32.61 input  -57.11 | X-H torsion

> <Gold.Protein.ActiveResidues>
 VAL166  LYS551  ARG553  GLY616  TRP617  ASP618  TYR619  PRO620  LYS621  CYS622 
 ASP623  PHE694  ASN695  SER759  ASP760  ASP761  ALA762  ILE779  LEU786  VAL792 
 PHE793  MET794  SER795  GLU796  ALA797  LYS798  CYS799  TRP800  GLU811  SER814 

> <Gold.Protein.RotatedAtoms>
  152.4076  134.6180  160.0042 H   0  0  0  0  0  0  0  0  0  0  0  0  # atno 6907 bound_to 6896
  151.6366  133.3323  159.3129 H   0  0  0  0  0  0  0  0  0  0  0  0  # atno 6908 bound_to 6896
  150.7970  134.7077  159.6631 H   0  0  0  0  0  0  0  0  0  0  0  0  # atno 6909 bound_to 6896
  144.7765  140.4587  143.5870 H   0  0  0  0  0  0  0  0  0  0  0  0  # atno 7974 bound_to 7965
  156.0109  140.1240  157.0455 H   0  0  0  0  0  0  0  0  0  0  0  0  # atno 8008 bound_to 7997
  154.4275  140.1088  156.5897 H   0  0  0  0  0  0  0  0  0  0  0  0  # atno 8009 bound_to 7997
  155.6081  140.3471  155.4616 H   0  0  0  0  0  0  0  0  0  0  0  0  # atno 8010 bound_to 7997
  140.2407  143.3541  152.0804 H   0  0  0  0  0  0  0  0  0  0  0  0  # atno 10167 bound_to 10162
  157.4495  131.1065  151.0050 H   0  0  0  0  0  0  0  0  0  0  0  0  # atno 10718 bound_to 10713
  153.9920  135.6704  153.4754 H   0  0  0  0  0  0  0  0  0  0  0  0  # atno 10763 bound_to 10752
  153.0700  135.4979  154.8281 H   0  0  0  0  0  0  0  0  0  0  0  0  # atno 10764 bound_to 10752
  154.7103  135.3096  154.9169 H   0  0  0  0  0  0  0  0  0  0  0  0  # atno 10765 bound_to 10752
  140.2717  134.3075  155.7826 H   0  0  0  0  0  0  0  0  0  0  0  0  # atno 11005 bound_to 11000
  145.6172  139.1520  143.3042 LP  0  0  0  0  0  0  0  0  0  0  0  0  # atno 17320 bound_to 7965
  146.1947  140.6285  142.9129 LP  0  0  0  0  0  0  0  0  0  0  0  0  # atno 17321 bound_to 7965
  139.5078  144.6839  151.5938 LP  0  0  0  0  0  0  0  0  0  0  0  0  # atno 17342 bound_to 10162
  140.6116  143.9426  150.6457 LP  0  0  0  0  0  0  0  0  0  0  0  0  # atno 17343 bound_to 10162
  157.0885  130.5932  149.5435 LP  0  0  0  0  0  0  0  0  0  0  0  0  # atno 17370 bound_to 10713
  155.9981  130.5054  150.7559 LP  0  0  0  0  0  0  0  0  0  0  0  0  # atno 17371 bound_to 10713
  141.2176  133.7471  156.9344 LP  0  0  0  0  0  0  0  0  0  0  0  0  # atno 17394 bound_to 11000
  140.1367  134.9320  157.2411 LP  0  0  0  0  0  0  0  0  0  0  0  0  # atno 17395 bound_to 11000

$$$$
