AV-unprocessed.smi:1978|AV-procd|sdf|7992|dock2
  -GOLD-   2272010173D 1   1.00000     0.00000
 Structure written by MMmdl.
 45 46  0  0  0  0  0  0  0  0  2 V2000
  150.6516  130.5294  155.0284 C   0  0  0  0  0  0  0  0  0  0  0  0
  150.1314  131.9223  155.1289 C   0  0  0  0  0  0  0  0  0  0  0  0
  149.7593  132.8460  154.1928 C   0  0  0  0  0  0  0  0  0  0  0  0
  149.3640  133.9589  154.9818 C   0  0  0  0  0  0  0  0  0  0  0  0
  148.9025  135.1552  154.3750 N   0  0  0  0  0  0  0  0  0  0  0  0
  148.5529  136.2997  154.9869 C   0  0  0  0  0  0  0  0  0  0  0  0
  148.5744  136.4888  156.2033 O   0  0  0  0  0  0  0  0  0  0  0  0
  148.1811  137.2347  154.0993 N   0  0  0  0  0  0  0  0  0  0  0  0
  147.7356  138.5869  154.4316 C   0  0  0  0  0  0  0  0  0  0  0  0
  146.5059  139.0520  153.5979 C   0  0  2  0  0  0  0  0  0  0  0  0
  146.8366  138.9865  152.0853 C   0  0  0  0  0  0  0  0  0  0  0  0
  146.0225  140.4244  153.9865 N   0  3  1  0  0  0  0  0  0  0  0  0
  145.6383  140.5468  155.4266 C   0  0  0  0  0  0  0  0  0  0  0  0
  144.9260  141.8777  155.7185 C   0  0  0  0  0  0  0  0  0  0  0  0
  145.7809  143.0744  155.2988 C   0  0  0  0  0  0  0  0  0  0  0  0
  146.1845  142.9232  153.8285 C   0  0  0  0  0  0  0  0  0  0  0  0
  146.8830  141.5753  153.5492 C   0  0  1  0  0  0  0  0  0  0  0  0
  148.3120  141.5331  154.1365 C   0  0  0  0  0  0  0  0  0  0  0  0
  149.4823  133.7344  156.2813 N   0  0  0  0  0  0  0  0  0  0  0  0
  149.9737  132.4277  156.3823 O   0  0  0  0  0  0  0  0  0  0  0  0
  150.9880  130.3119  154.0146 H   0  0  0  0  0  0  0  0  0  0  0  0
  149.8768  129.8090  155.2905 H   0  0  0  0  0  0  0  0  0  0  0  0
  151.4953  130.3806  155.7027 H   0  0  0  0  0  0  0  0  0  0  0  0
  149.7711  132.7392  153.1183 H   0  0  0  0  0  0  0  0  0  0  0  0
  148.8403  135.1388  153.3680 H   0  0  0  0  0  0  0  0  0  0  0  0
  148.1976  136.9903  153.1196 H   0  0  0  0  0  0  0  0  0  0  0  0
  147.4989  138.5405  155.4931 H   0  0  0  0  0  0  0  0  0  0  0  0
  148.5500  139.3064  154.3317 H   0  0  0  0  0  0  0  0  0  0  0  0
  145.6934  138.3493  153.7886 H   0  0  0  0  0  0  0  0  0  0  0  0
  147.2310  138.0147  151.7919 H   0  0  0  0  0  0  0  0  0  0  0  0
  147.5801  139.7360  151.8116 H   0  0  0  0  0  0  0  0  0  0  0  0
  145.9637  139.1275  151.4512 H   0  0  0  0  0  0  0  0  0  0  0  0
  144.9486  139.7620  155.7250 H   0  0  0  0  0  0  0  0  0  0  0  0
  146.5184  140.4363  156.0604 H   0  0  0  0  0  0  0  0  0  0  0  0
  143.9743  141.9044  155.1862 H   0  0  0  0  0  0  0  0  0  0  0  0
  144.6872  141.9470  156.7804 H   0  0  0  0  0  0  0  0  0  0  0  0
  145.2252  144.0015  155.4426 H   0  0  0  0  0  0  0  0  0  0  0  0
  146.6663  143.1431  155.9315 H   0  0  0  0  0  0  0  0  0  0  0  0
  145.2914  142.9991  153.2065 H   0  0  0  0  0  0  0  0  0  0  0  0
  146.8279  143.7524  153.5321 H   0  0  0  0  0  0  0  0  0  0  0  0
  146.9741  141.5445  152.4647 H   0  0  0  0  0  0  0  0  0  0  0  0
  148.9056  142.3653  153.7569 H   0  0  0  0  0  0  0  0  0  0  0  0
  148.8408  140.6198  153.8671 H   0  0  0  0  0  0  0  0  0  0  0  0
  148.3182  141.6049  155.2235 H   0  0  0  0  0  0  0  0  0  0  0  0
  145.1608  140.5441  153.4734 H   0  0  0  0  0  0  0  0  0  0  0  0
  1  2  1  0  0  0  0
  1 21  1  0  0  0  0
  1 22  1  0  0  0  0
  1 23  1  0  0  0  0
  2 20  1  0  0  0  0
  2  3  2  0  0  0  0
  3  4  1  0  0  0  0
  3 24  1  0  0  0  0
  4  5  1  0  0  0  0
  4 19  2  0  0  0  0
  5  6  1  0  0  0  0
  5 25  1  0  0  0  0
  6  7  2  0  0  0  0
  6  8  1  0  0  0  0
  8  9  1  0  0  0  0
  8 26  1  0  0  0  0
  9 10  1  0  0  0  0
  9 27  1  0  0  0  0
  9 28  1  0  0  0  0
 10 11  1  0  0  0  0
 10 12  1  0  0  0  0
 10 29  1  0  0  0  0
 11 30  1  0  0  0  0
 11 31  1  0  0  0  0
 11 32  1  0  0  0  0
 12 17  1  0  0  0  0
 12 13  1  0  0  0  0
 12 45  1  0  0  0  0
 13 14  1  0  0  0  0
 13 33  1  0  0  0  0
 13 34  1  0  0  0  0
 14 15  1  0  0  0  0
 14 35  1  0  0  0  0
 14 36  1  0  0  0  0
 15 16  1  0  0  0  0
 15 37  1  0  0  0  0
 15 38  1  0  0  0  0
 16 17  1  0  0  0  0
 16 39  1  0  0  0  0
 16 40  1  0  0  0  0
 17 18  1  0  0  0  0
 17 41  1  0  0  0  0
 18 42  1  0  0  0  0
 18 43  1  0  0  0  0
 18 44  1  0  0  0  0
 19 20  1  0  0  0  0
M  CHG  1  12   1
M  END
> <s_m_source_file>
AV-unprocessed.smi

> <i_m_source_file_index>
1978

> <i_lp_mmshare_version>
43012

> <i_f3d_flags>
0

> <s_epik_input>
W0NIM11jMVtjSF1jKG5vMSlbTkhdQyg9TylbTkhdW0NIMl1bQ0BIXShbQ0gzXSlOMltDSDJdW0NIMl1bQ0gyXVtDSDJdW0NASF0yW0NIM10=

> <s_epik_cmdline>
J2VwaWtfcHl0aG9uJywgJy1waCcsICc3LjAnLCAnLXRuJywgJzgnLCAnLW1hJywgJzIwMCcsICctbWV0YWxfYmluZGluZycsICctaW1hZScsICc8aW5maWxlLm1hZT4nLCAnLW9tYWUnLCAnPG91dGZpbGUubWFlPic=

> <r_epik_Ionization_Penalty>
0.00265971

> <r_epik_Ionization_Penalty_Charging>
0.00262393

> <r_epik_Ionization_Penalty_Neutral>
3.57846e-05

> <r_epik_State_Penalty>
0.00182566

> <r_epik_Charging_Adjusted_Penalty>
0.00444959

> <i_epik_Tot_Q>
1

> <i_epik_Tot_abs_Q>
1

> <r_epik_Metal_State_Penalty>
0.0216344

> <b_epik_Metal_Only>
0

> <s_lp_Force_Field>
OPLS_2005

> <r_lp_Energy>
24.7796

> <b_lp_Chiralities_Consistent>
1

> <s_lp_Variant>
AV-unprocessed.smi:1978-1

> <Gold.Version>
5.8.1

> <Gold.Id.Protein>
6NUR|6NUR_protein|mol2

> <Gold.PLP.Fitness>
43.6057

> <Gold.PLP.PLP>
-32.3452

> <Gold.PLP.part.hbond>
-3.0000

> <Gold.PLP.part.metal>
0.0000

> <Gold.PLP.part.buried>
-2.9958

> <Gold.PLP.part.nonpolar>
-24.7509

> <Gold.PLP.part.repulsive>
0.0325

> <Gold.PLP.ligand.clash>
0.0000

> <Gold.PLP.ligand.torsion>
0.1898

> <Gold.PLP.Chemscore.Hbond>
3.8400

> <Gold.PLP.Chemscore.CHOScore>
0.0000

> <Gold.PLP.Chemscore.Metal>
0.0000

> <Gold.Chemscore.Hbonds>
donor molecule, donor type, donor heavy atom, donor atom, acceptor molecule, acceptor atom, score
      L1  H     5    25       P1  7948  0.86
      L1  H     8    26       P1  7948  0.98
      L1  H    12    45       P1 10175  2.00

> <Gold.PLP.Chemscore.Internal.Correction>
0.1201

> <Gold.Rescore>
     Score         DG    S(hbond)    S(metal)    S(lipo)     H(rot)  DE(clash)    DE(int)     intcor
     16.33     -18.20       2.76        0.00      63.89       1.55       0.26       1.61       ----

> <Gold.Chemscore.Fitness>
16.3317

> <Gold.Chemscore.DG>
-18.1988

> <Gold.Chemscore.ZeroCoef>
-5.4800

> <Gold.Chemscore.Hbond>
2.7559

> <Gold.Chemscore.Metal>
0.0000

> <Gold.Chemscore.Lipo>
63.8904

> <Gold.Chemscore.Internal_Hbond>
0.0000

> <Gold.Chemscore.DEClash>
0.2598

> <Gold.Chemscore.DEInternal>
1.6073

> <Gold.Chemscore.Rot>
1.5474

> <Gold.Chemscore.Internal.Correction>
   9.000000E+99

> <Gold.Chemscore.Hbonds>
donor molecule, donor type, donor heavy atom, donor atom, acceptor molecule, acceptor atom, score
      L1  H     5    25       P1  7948  0.48
      L1  H     8    26       P1  7948  0.93
      L1  H    12    45       P1 10175  0.98

> <Gold.Chemscore.Hbond.Weighted>
-9.2049

> <Gold.Chemscore.Metal.Weighted>
-0.0000

> <Gold.Chemscore.Lipo.Weighted>
-7.4752

> <Gold.Chemscore.Internal_Hbond.Weighted>
0.0000

> <Gold.Chemscore.DEClash.Weighted>
0.2598

> <Gold.Chemscore.DEInternal.Weighted>
1.6073

> <Gold.Chemscore.Rot.Weighted>
3.9612

> <Gold.Chemscore.Internal.Correction.Weighted>
   9.000000E+99

> <Gold.Protein.RotatedTorsions>
[ 6907 6896 6895 6894 ] final  -74.49 input  -60.11 | X-H torsion
[ 7974 7965 7964 7962 ] final   22.99 input  175.53 | X-H torsion
[ 8008 7997 7996 7995 ] final   50.19 input   59.86 | X-H torsion
[ 10167 10162 10161 10158 ] final  -65.52 input  -65.29 | X-H torsion
[ 10718 10713 10712 10709 ] final   54.49 input   66.30 | X-H torsion
[ 10763 10752 10751 10750 ] final   73.04 input  -60.55 | X-H torsion
[ 11005 11000 10999 10996 ] final -114.23 input  -57.11 | X-H torsion

> <Gold.Protein.ActiveResidues>
 VAL166  LYS551  ARG553  GLY616  TRP617  ASP618  TYR619  PRO620  LYS621  CYS622 
 ASP623  PHE694  ASN695  SER759  ASP760  ASP761  ALA762  ILE779  LEU786  VAL792 
 PHE793  MET794  SER795  GLU796  ALA797  LYS798  CYS799  TRP800  GLU811  SER814 

> <Gold.Protein.RotatedAtoms>
  150.7091  134.4862  159.5493 H   0  0  0  0  0  0  0  0  0  0  0  0  # atno 6907 bound_to 6896
  152.2489  134.8150  160.0458 H   0  0  0  0  0  0  0  0  0  0  0  0  # atno 6908 bound_to 6896
  151.8905  133.3480  159.3833 H   0  0  0  0  0  0  0  0  0  0  0  0  # atno 6909 bound_to 6896
  146.2004  139.7808  142.8765 H   0  0  0  0  0  0  0  0  0  0  0  0  # atno 7974 bound_to 7965
  155.4146  140.3444  155.4266 H   0  0  0  0  0  0  0  0  0  0  0  0  # atno 8008 bound_to 7997
  156.1428  140.1547  156.8925 H   0  0  0  0  0  0  0  0  0  0  0  0  # atno 8009 bound_to 7997
  154.4985  140.0821  156.7729 H   0  0  0  0  0  0  0  0  0  0  0  0  # atno 8010 bound_to 7997
  140.5723  143.2319  151.6512 H   0  0  0  0  0  0  0  0  0  0  0  0  # atno 10167 bound_to 10162
  157.5261  130.8598  149.8624 H   0  0  0  0  0  0  0  0  0  0  0  0  # atno 10718 bound_to 10713
  153.0497  135.5077  154.7835 H   0  0  0  0  0  0  0  0  0  0  0  0  # atno 10763 bound_to 10752
  154.6707  135.2952  154.9748 H   0  0  0  0  0  0  0  0  0  0  0  0  # atno 10764 bound_to 10752
  154.0567  135.6696  153.4859 H   0  0  0  0  0  0  0  0  0  0  0  0  # atno 10765 bound_to 10752
  141.0565  133.9604  157.2745 H   0  0  0  0  0  0  0  0  0  0  0  0  # atno 11005 bound_to 11000
  145.3502  141.0306  143.3343 LP  0  0  0  0  0  0  0  0  0  0  0  0  # atno 17320 bound_to 7965
  144.8672  139.5091  143.6785 LP  0  0  0  0  0  0  0  0  0  0  0  0  # atno 17321 bound_to 7965
  139.5124  144.3476  152.0682 LP  0  0  0  0  0  0  0  0  0  0  0  0  # atno 17342 bound_to 10162
  140.2616  144.4061  150.6184 LP  0  0  0  0  0  0  0  0  0  0  0  0  # atno 17343 bound_to 10162
  156.0388  130.3744  150.1489 LP  0  0  0  0  0  0  0  0  0  0  0  0  # atno 17370 bound_to 10713
  156.9675  130.9824  151.3466 LP  0  0  0  0  0  0  0  0  0  0  0  0  # atno 17371 bound_to 10713
  139.9394  135.0193  156.8661 LP  0  0  0  0  0  0  0  0  0  0  0  0  # atno 17394 bound_to 11000
  140.5954  134.0222  155.7516 LP  0  0  0  0  0  0  0  0  0  0  0  0  # atno 17395 bound_to 11000

$$$$
