AV-unprocessed.smi:513|AV-procd|sdf|2775|dock3
  -GOLD-   2262023243D 1   1.00000     0.00000
 Structure written by MMmdl.
 41 43  0  0  0  0  0  0  0  0  2 V2000
  150.3134  135.3604  156.6300 C   0  0  0  0  0  0  0  0  0  0  0  0
  150.4247  135.7502  157.9865 O   0  0  0  0  0  0  0  0  0  0  0  0
  150.4041  137.1580  158.1546 C   0  0  0  0  0  0  0  0  0  0  0  0
  151.4140  137.8231  157.2072 C   0  0  0  0  0  0  0  0  0  0  0  0
  151.7279  139.1927  157.6061 N   0  0  0  0  0  0  0  0  0  0  0  0
  151.3877  140.3327  156.9545 C   0  0  0  0  0  0  0  0  0  0  0  0
  150.6526  140.2866  155.7757 N   0  0  0  0  0  0  0  0  0  0  0  0
  149.8091  141.3715  155.2876 C   0  0  0  0  0  0  0  0  0  0  0  0
  148.4857  140.8328  154.7107 C   0  0  0  0  0  0  0  0  0  0  0  0
  148.7643  139.9264  153.6022 N   0  0  0  0  0  0  0  0  0  0  0  0
  149.5681  138.8177  154.1045 C   0  0  0  0  0  0  0  0  0  0  0  0
  150.8935  139.3529  154.6818 C   0  0  0  0  0  0  0  0  0  0  0  0
  151.8032  141.4610  157.5304 N   0  0  0  0  0  0  0  0  0  0  0  0
  152.4718  140.9946  158.6533 C   0  0  0  0  0  0  0  0  0  0  0  0
  152.4434  139.6362  158.7224 C   0  0  0  0  0  0  0  0  0  0  0  0
  153.0790  138.8558  159.8063 C   0  0  0  0  0  0  0  0  0  0  0  0
  153.0251  137.6279  159.8227 O   0  0  0  0  0  0  0  0  0  0  0  0
  153.6967  139.6616  160.7274 N   0  5  0  0  0  0  0  0  0  0  0  0
  153.7485  141.0392  160.6970 C   0  0  0  0  0  0  0  0  0  0  0  0
  154.3307  141.6805  161.5721 O   0  0  0  0  0  0  0  0  0  0  0  0
  153.1416  141.7209  159.6729 N   0  0  0  0  0  0  0  0  0  0  0  0
  153.1461  143.1836  159.5709 C   0  0  0  0  0  0  0  0  0  0  0  0
  150.3284  134.2728  156.5598 H   0  0  0  0  0  0  0  0  0  0  0  0
  151.1449  135.7481  156.0401 H   0  0  0  0  0  0  0  0  0  0  0  0
  149.3782  135.7129  156.1933 H   0  0  0  0  0  0  0  0  0  0  0  0
  149.4016  137.5359  157.9525 H   0  0  0  0  0  0  0  0  0  0  0  0
  150.6452  137.4134  159.1872 H   0  0  0  0  0  0  0  0  0  0  0  0
  152.3345  137.2402  157.1824 H   0  0  0  0  0  0  0  0  0  0  0  0
  151.0441  137.8160  156.1837 H   0  0  0  0  0  0  0  0  0  0  0  0
  149.5998  142.0580  156.1086 H   0  0  0  0  0  0  0  0  0  0  0  0
  150.3527  141.9419  154.5330 H   0  0  0  0  0  0  0  0  0  0  0  0
  147.9084  140.3166  155.4790 H   0  0  0  0  0  0  0  0  0  0  0  0
  147.8720  141.6576  154.3480 H   0  0  0  0  0  0  0  0  0  0  0  0
  147.8957  139.5729  153.2273 H   0  0  0  0  0  0  0  0  0  0  0  0
  149.0079  138.2667  154.8609 H   0  0  0  0  0  0  0  0  0  0  0  0
  149.7678  138.1263  153.2857 H   0  0  0  0  0  0  0  0  0  0  0  0
  151.4782  139.8478  153.9052 H   0  0  0  0  0  0  0  0  0  0  0  0
  151.4983  138.5222  155.0472 H   0  0  0  0  0  0  0  0  0  0  0  0
  153.6611  143.6914  160.3868 H   0  0  0  0  0  0  0  0  0  0  0  0
  152.1217  143.5564  159.5534 H   0  0  0  0  0  0  0  0  0  0  0  0
  153.6290  143.4882  158.6420 H   0  0  0  0  0  0  0  0  0  0  0  0
  1  2  1  0  0  0  0
  1 23  1  0  0  0  0
  1 24  1  0  0  0  0
  1 25  1  0  0  0  0
  2  3  1  0  0  0  0
  3  4  1  0  0  0  0
  3 26  1  0  0  0  0
  3 27  1  0  0  0  0
  4  5  1  0  0  0  0
  4 28  1  0  0  0  0
  4 29  1  0  0  0  0
  5 15  1  0  0  0  0
  5  6  1  0  0  0  0
  6  7  1  0  0  0  0
  6 13  2  0  0  0  0
  7 12  1  0  0  0  0
  7  8  1  0  0  0  0
  8  9  1  0  0  0  0
  8 30  1  0  0  0  0
  8 31  1  0  0  0  0
  9 10  1  0  0  0  0
  9 32  1  0  0  0  0
  9 33  1  0  0  0  0
 10 11  1  0  0  0  0
 10 34  1  0  0  0  0
 11 12  1  0  0  0  0
 11 35  1  0  0  0  0
 11 36  1  0  0  0  0
 12 37  1  0  0  0  0
 12 38  1  0  0  0  0
 13 14  1  0  0  0  0
 14 21  1  0  0  0  0
 14 15  2  0  0  0  0
 15 16  1  0  0  0  0
 16 17  2  0  0  0  0
 16 18  1  0  0  0  0
 18 19  1  0  0  0  0
 19 20  2  0  0  0  0
 19 21  1  0  0  0  0
 21 22  1  0  0  0  0
 22 39  1  0  0  0  0
 22 40  1  0  0  0  0
 22 41  1  0  0  0  0
M  CHG  1  18  -1
M  END
> <s_m_source_file>
AV-unprocessed.smi

> <i_m_source_file_index>
513

> <i_lp_mmshare_version>
43012

> <i_f3d_flags>
0

> <s_epik_input>
W0NIM11uMWMoPU8pW25IXWMoPU8pYyhjMTIpbihbQ0gyXVtDSDJdT1tDSDNdKWMobjIpTjNbQ0gyXVtDSDJdW05IXVtDSDJdW0NIMl0z

> <s_epik_cmdline>
J2VwaWtfcHl0aG9uJywgJy1waCcsICc3LjAnLCAnLXRuJywgJzgnLCAnLW1hJywgJzIwMCcsICctbWV0YWxfYmluZGluZycsICctaW1hZScsICc8aW5maWxlLm1hZT4nLCAnLW9tYWUnLCAnPG91dGZpbGUubWFlPic=

> <r_epik_Ionization_Penalty>
8.82084

> <r_epik_Ionization_Penalty_Charging>
0.08198

> <r_epik_Ionization_Penalty_Neutral>
8.73886

> <r_epik_State_Penalty>
8.90453

> <r_epik_Charging_Adjusted_Penalty>
8.98651

> <i_epik_Tot_Q>
-1

> <i_epik_Tot_abs_Q>
1

> <r_epik_Metal_State_Penalty>
4.85612

> <b_epik_Metal_Only>
1

> <s_lp_Force_Field>
OPLS_2005

> <r_lp_Energy>
54.8501

> <b_lp_Chiralities_Consistent>
1

> <s_lp_Variant>
AV-unprocessed.smi:513-4

> <Gold.Version>
5.8.1

> <Gold.Id.Protein>
6NUR|6NUR_protein|mol2

> <Gold.PLP.Fitness>
39.6836

> <Gold.PLP.PLP>
-38.0962

> <Gold.PLP.part.hbond>
-3.0000

> <Gold.PLP.part.metal>
0.0000

> <Gold.PLP.part.buried>
-2.6715

> <Gold.PLP.part.nonpolar>
-31.6019

> <Gold.PLP.part.repulsive>
0.0106

> <Gold.PLP.ligand.clash>
0.0609

> <Gold.PLP.ligand.torsion>
0.6652

> <Gold.PLP.Chemscore.Hbond>
0.6560

> <Gold.PLP.Chemscore.CHOScore>
0.0000

> <Gold.PLP.Chemscore.Metal>
0.0000

> <Gold.Chemscore.Hbonds>
donor molecule, donor type, donor heavy atom, donor atom, acceptor molecule, acceptor atom, score
      P1  H  6896  6907       L1     2  0.64

> <Gold.PLP.Chemscore.Internal.Correction>
1.0107

> <Gold.Rescore>
     Score         DG    S(hbond)    S(metal)    S(lipo)     H(rot)  DE(clash)    DE(int)     intcor
      8.36     -10.37       0.57        0.00      59.02       1.53       0.32       1.69       ----

> <Gold.Chemscore.Fitness>
8.3596

> <Gold.Chemscore.DG>
-10.3744

> <Gold.Chemscore.ZeroCoef>
-5.4800

> <Gold.Chemscore.Hbond>
0.5743

> <Gold.Chemscore.Metal>
0.0000

> <Gold.Chemscore.Lipo>
59.0191

> <Gold.Chemscore.Internal_Hbond>
0.0000

> <Gold.Chemscore.DEClash>
0.3230

> <Gold.Chemscore.DEInternal>
1.6918

> <Gold.Chemscore.Rot>
1.5348

> <Gold.Chemscore.Internal.Correction>
   9.000000E+99

> <Gold.Chemscore.Hbonds>
donor molecule, donor type, donor heavy atom, donor atom, acceptor molecule, acceptor atom, score
      P1  H  6896  6907       L1     2  0.62

> <Gold.Chemscore.Hbond.Weighted>
-1.9182

> <Gold.Chemscore.Metal.Weighted>
-0.0000

> <Gold.Chemscore.Lipo.Weighted>
-6.9052

> <Gold.Chemscore.Internal_Hbond.Weighted>
0.0000

> <Gold.Chemscore.DEClash.Weighted>
0.3230

> <Gold.Chemscore.DEInternal.Weighted>
1.6918

> <Gold.Chemscore.Rot.Weighted>
3.9290

> <Gold.Chemscore.Internal.Correction.Weighted>
   9.000000E+99

> <Gold.Protein.RotatedTorsions>
[ 6907 6896 6895 6894 ] final  -75.85 input  -60.11 | X-H torsion
[ 7974 7965 7964 7962 ] final   91.25 input  175.53 | X-H torsion
[ 8008 7997 7996 7995 ] final   -8.68 input   59.86 | X-H torsion
[ 10167 10162 10161 10158 ] final -129.60 input  -65.29 | X-H torsion
[ 10718 10713 10712 10709 ] final -137.87 input   66.30 | X-H torsion
[ 10763 10752 10751 10750 ] final  -14.74 input  -60.55 | X-H torsion
[ 11005 11000 10999 10996 ] final   87.11 input  -57.11 | X-H torsion

> <Gold.Protein.ActiveResidues>
 VAL166  LYS551  ARG553  GLY616  TRP617  ASP618  TYR619  PRO620  LYS621  CYS622 
 ASP623  PHE694  ASN695  SER759  ASP760  ASP761  ALA762  ILE779  LEU786  VAL792 
 PHE793  MET794  SER795  GLU796  ALA797  LYS798  CYS799  TRP800  GLU811  SER814 

> <Gold.Protein.RotatedAtoms>
  150.7046  134.4660  159.5402 H   0  0  0  0  0  0  0  0  0  0  0  0  # atno 6907 bound_to 6896
  152.2325  134.8305  160.0480 H   0  0  0  0  0  0  0  0  0  0  0  0  # atno 6908 bound_to 6896
  151.9115  133.3527  159.3902 H   0  0  0  0  0  0  0  0  0  0  0  0  # atno 6909 bound_to 6896
  145.5081  139.2276  143.2740 H   0  0  0  0  0  0  0  0  0  0  0  0  # atno 7974 bound_to 7965
  154.5719  140.2375  155.8180 H   0  0  0  0  0  0  0  0  0  0  0  0  # atno 8008 bound_to 7997
  156.2113  140.3025  155.9696 H   0  0  0  0  0  0  0  0  0  0  0  0  # atno 8009 bound_to 7997
  155.2698  140.0418  157.2996 H   0  0  0  0  0  0  0  0  0  0  0  0  # atno 8010 bound_to 7997
  139.9381  143.6194  152.2511 H   0  0  0  0  0  0  0  0  0  0  0  0  # atno 10167 bound_to 10162
  156.2930  130.7386  151.1416 H   0  0  0  0  0  0  0  0  0  0  0  0  # atno 10718 bound_to 10713
  153.5328  135.7014  153.5675 H   0  0  0  0  0  0  0  0  0  0  0  0  # atno 10763 bound_to 10752
  153.3675  135.3953  155.1764 H   0  0  0  0  0  0  0  0  0  0  0  0  # atno 10764 bound_to 10752
  154.8683  135.3803  154.4826 H   0  0  0  0  0  0  0  0  0  0  0  0  # atno 10765 bound_to 10752
  139.8927  134.8400  156.2814 H   0  0  0  0  0  0  0  0  0  0  0  0  # atno 11005 bound_to 11000
  146.2184  140.5886  142.9028 LP  0  0  0  0  0  0  0  0  0  0  0  0  # atno 17320 bound_to 7965
  144.7742  140.5704  143.6649 LP  0  0  0  0  0  0  0  0  0  0  0  0  # atno 17321 bound_to 7965
  139.6727  144.7660  151.1754 LP  0  0  0  0  0  0  0  0  0  0  0  0  # atno 17342 bound_to 10162
  140.7619  143.5841  150.8864 LP  0  0  0  0  0  0  0  0  0  0  0  0  # atno 17343 bound_to 10162
  157.7347  131.0579  150.5507 LP  0  0  0  0  0  0  0  0  0  0  0  0  # atno 17370 bound_to 10713
  156.5625  130.4259  149.6056 LP  0  0  0  0  0  0  0  0  0  0  0  0  # atno 17371 bound_to 10713
  141.0036  133.7137  156.0999 LP  0  0  0  0  0  0  0  0  0  0  0  0  # atno 17394 bound_to 11000
  140.7464  134.4093  157.5547 LP  0  0  0  0  0  0  0  0  0  0  0  0  # atno 17395 bound_to 11000

$$$$
