AV-unprocessed.smi:1981|AV-procd|sdf|8019|dock4
  -GOLD-   2272010213D 1   1.00000     0.00000
 Structure written by MMmdl.
 45 46  0  0  0  0  0  0  0  0  1 V2000
  152.6417  142.3420  160.0084 C   0  0  0  0  0  0  0  0  0  0  0  0
  151.4238  141.7171  159.6426 O   0  0  0  0  0  0  0  0  0  0  0  0
  151.0256  142.0393  158.3211 C   0  0  0  0  0  0  0  0  0  0  0  0
  149.7161  141.3033  158.0015 C   0  0  0  0  0  0  0  0  0  0  0  0
  149.9707  139.9946  157.3915 N   0  0  0  0  0  0  0  0  0  0  0  0
  149.6287  138.9217  158.1972 N   0  0  0  0  0  0  0  0  0  0  0  0
  149.7973  137.7105  157.7739 C   0  0  0  0  0  0  0  0  0  0  0  0
  149.4410  136.5306  158.6096 C   0  0  0  0  0  0  0  0  0  0  0  0
  149.5817  135.3768  158.2006 O   0  0  0  0  0  0  0  0  0  0  0  0
  148.9578  136.8175  159.8319 N   0  0  0  0  0  0  0  0  0  0  0  0
  148.5434  135.8385  160.8313 C   0  0  0  0  0  0  0  0  0  0  0  0
  147.7939  134.6605  160.1659 C   0  0  0  0  0  0  0  0  0  0  0  0
  147.1652  133.7306  161.2188 C   0  0  0  0  0  0  0  0  0  0  0  0
  146.2874  134.5250  162.0854 N   0  0  0  0  0  0  0  0  0  0  0  0
  144.9364  134.4347  162.0390 C   0  0  0  0  0  0  0  0  0  0  0  0
  144.0935  135.3688  162.9102 C   0  0  0  0  0  0  0  0  0  0  0  0
  144.3479  133.6308  161.3157 O   0  0  0  0  0  0  0  0  0  0  0  0
  147.0477  135.5088  162.8659 C   0  0  0  0  0  0  0  0  0  0  0  0
  147.6695  136.5321  161.8990 C   0  0  0  0  0  0  0  0  0  0  0  0
  150.3455  137.4537  156.4528 C   0  0  0  0  0  0  0  0  0  0  0  0
  150.6687  138.5107  155.6758 C   0  0  0  0  0  0  0  0  0  0  0  0
  150.4830  139.8905  156.1283 C   0  0  0  0  0  0  0  0  0  0  0  0
  150.7580  140.8693  155.4350 O   0  0  0  0  0  0  0  0  0  0  0  0
  152.9030  142.0667  161.0301 H   0  0  0  0  0  0  0  0  0  0  0  0
  152.5565  143.4285  159.9643 H   0  0  0  0  0  0  0  0  0  0  0  0
  153.4571  142.0279  159.3557 H   0  0  0  0  0  0  0  0  0  0  0  0
  150.8822  143.1172  158.2288 H   0  0  0  0  0  0  0  0  0  0  0  0
  151.8065  141.7485  157.6167 H   0  0  0  0  0  0  0  0  0  0  0  0
  149.1171  141.1937  158.9073 H   0  0  0  0  0  0  0  0  0  0  0  0
  149.1128  141.9147  157.3279 H   0  0  0  0  0  0  0  0  0  0  0  0
  148.8738  137.7912  160.0867 H   0  0  0  0  0  0  0  0  0  0  0  0
  149.4294  135.4446  161.3330 H   0  0  0  0  0  0  0  0  0  0  0  0
  147.0073  135.0436  159.5137 H   0  0  0  0  0  0  0  0  0  0  0  0
  148.4720  134.0917  159.5290 H   0  0  0  0  0  0  0  0  0  0  0  0
  146.6430  132.9098  160.7255 H   0  0  0  0  0  0  0  0  0  0  0  0
  147.9460  133.2648  161.8217 H   0  0  0  0  0  0  0  0  0  0  0  0
  144.3052  136.4123  162.6756 H   0  0  0  0  0  0  0  0  0  0  0  0
  144.2915  135.1942  163.9679 H   0  0  0  0  0  0  0  0  0  0  0  0
  143.0300  135.1986  162.7379 H   0  0  0  0  0  0  0  0  0  0  0  0
  146.4528  136.0230  163.6192 H   0  0  0  0  0  0  0  0  0  0  0  0
  147.8347  134.9953  163.4200 H   0  0  0  0  0  0  0  0  0  0  0  0
  148.2645  137.2568  162.4558 H   0  0  0  0  0  0  0  0  0  0  0  0
  146.8698  137.0953  161.4151 H   0  0  0  0  0  0  0  0  0  0  0  0
  150.4932  136.4457  156.0930 H   0  0  0  0  0  0  0  0  0  0  0  0
  151.0762  138.3345  154.6911 H   0  0  0  0  0  0  0  0  0  0  0  0
  1  2  1  0  0  0  0
  1 24  1  0  0  0  0
  1 25  1  0  0  0  0
  1 26  1  0  0  0  0
  2  3  1  0  0  0  0
  3  4  1  0  0  0  0
  3 27  1  0  0  0  0
  3 28  1  0  0  0  0
  4  5  1  0  0  0  0
  4 29  1  0  0  0  0
  4 30  1  0  0  0  0
  5 22  1  0  0  0  0
  5  6  1  0  0  0  0
  6  7  2  0  0  0  0
  7  8  1  0  0  0  0
  7 20  1  0  0  0  0
  8  9  2  0  0  0  0
  8 10  1  0  0  0  0
 10 11  1  0  0  0  0
 10 31  1  0  0  0  0
 11 19  1  0  0  0  0
 11 12  1  0  0  0  0
 11 32  1  0  0  0  0
 12 13  1  0  0  0  0
 12 33  1  0  0  0  0
 12 34  1  0  0  0  0
 13 14  1  0  0  0  0
 13 35  1  0  0  0  0
 13 36  1  0  0  0  0
 14 15  1  0  0  0  0
 14 18  1  0  0  0  0
 15 16  1  0  0  0  0
 15 17  2  0  0  0  0
 16 37  1  0  0  0  0
 16 38  1  0  0  0  0
 16 39  1  0  0  0  0
 18 19  1  0  0  0  0
 18 40  1  0  0  0  0
 18 41  1  0  0  0  0
 19 42  1  0  0  0  0
 19 43  1  0  0  0  0
 20 21  2  0  0  0  0
 20 44  1  0  0  0  0
 21 22  1  0  0  0  0
 21 45  1  0  0  0  0
 22 23  2  0  0  0  0
M  END
> <s_m_source_file>
AV-unprocessed.smi

> <i_m_source_file_index>
1981

> <i_lp_mmshare_version>
43012

> <i_f3d_flags>
0

> <s_epik_input>
W0NIM11PW0NIMl1bQ0gyXW4xbmMoW2NIXVtjSF1jMT1PKUMoPU8pW05IXVtDSF0yW0NIMl1bQ0gyXU4oQyg9TylbQ0gzXSlbQ0gyXVtDSDJdMg==

> <s_epik_cmdline>
J2VwaWtfcHl0aG9uJywgJy1waCcsICc3LjAnLCAnLXRuJywgJzgnLCAnLW1hJywgJzIwMCcsICctbWV0YWxfYmluZGluZycsICctaW1hZScsICc8aW5maWxlLm1hZT4nLCAnLW9tYWUnLCAnPG91dGZpbGUubWFlPic=

> <r_lp_tautomer_probability>
1

> <r_epik_Ionization_Penalty>
2.32097e-06

> <r_epik_Ionization_Penalty_Charging>
6.14723e-09

> <r_epik_Ionization_Penalty_Neutral>
2.31482e-06

> <r_epik_State_Penalty>
-0

> <r_epik_Charging_Adjusted_Penalty>
6.14723e-09

> <i_epik_Tot_Q>
0

> <i_epik_Tot_abs_Q>
0

> <r_epik_Metal_State_Penalty>
-0

> <b_epik_Metal_Only>
0

> <s_lp_Force_Field>
OPLS_2005

> <r_lp_Energy>
40.8399

> <b_lp_Chiralities_Consistent>
1

> <s_lp_Variant>
AV-unprocessed.smi:1981-1

> <Gold.Version>
5.8.1

> <Gold.Id.Protein>
6NUR|6NUR_protein|mol2

> <Gold.PLP.Fitness>
39.7800

> <Gold.PLP.PLP>
-35.4249

> <Gold.PLP.part.hbond>
-2.6952

> <Gold.PLP.part.metal>
0.0000

> <Gold.PLP.part.buried>
-4.9237

> <Gold.PLP.part.nonpolar>
-27.4650

> <Gold.PLP.part.repulsive>
0.3437

> <Gold.PLP.ligand.clash>
0.0000

> <Gold.PLP.ligand.torsion>
0.5353

> <Gold.PLP.Chemscore.Hbond>
1.8000

> <Gold.PLP.Chemscore.CHOScore>
0.0000

> <Gold.PLP.Chemscore.Metal>
0.0000

> <Gold.Chemscore.Hbonds>
donor molecule, donor type, donor heavy atom, donor atom, acceptor molecule, acceptor atom, score
      P1  H  6896  6908       L1     9  1.00
      P1  H  7989  7998       L1    23  0.61

> <Gold.PLP.Chemscore.Internal.Correction>
0.0257

> <Gold.Rescore>
     Score         DG    S(hbond)    S(metal)    S(lipo)     H(rot)  DE(clash)    DE(int)     intcor
     14.38     -16.49       1.93        0.00      75.98       1.69       0.13       1.99       ----

> <Gold.Chemscore.Fitness>
14.3771

> <Gold.Chemscore.DG>
-16.4921

> <Gold.Chemscore.ZeroCoef>
-5.4800

> <Gold.Chemscore.Hbond>
1.9278

> <Gold.Chemscore.Metal>
0.0000

> <Gold.Chemscore.Lipo>
75.9791

> <Gold.Chemscore.Internal_Hbond>
0.0000

> <Gold.Chemscore.DEClash>
0.1255

> <Gold.Chemscore.DEInternal>
1.9895

> <Gold.Chemscore.Rot>
1.6861

> <Gold.Chemscore.Internal.Correction>
   9.000000E+99

> <Gold.Chemscore.Hbonds>
donor molecule, donor type, donor heavy atom, donor atom, acceptor molecule, acceptor atom, score
      P1  H  6896  6908       L1     9  0.72
      P1  H  7989  7998       L1    23  0.61

> <Gold.Chemscore.Hbond.Weighted>
-6.4389

> <Gold.Chemscore.Metal.Weighted>
-0.0000

> <Gold.Chemscore.Lipo.Weighted>
-8.8896

> <Gold.Chemscore.Internal_Hbond.Weighted>
0.0000

> <Gold.Chemscore.DEClash.Weighted>
0.1255

> <Gold.Chemscore.DEInternal.Weighted>
1.9895

> <Gold.Chemscore.Rot.Weighted>
4.3164

> <Gold.Chemscore.Internal.Correction.Weighted>
   9.000000E+99

> <Gold.Protein.RotatedTorsions>
[ 6907 6896 6895 6894 ] final  154.59 input  -60.11 | X-H torsion
[ 7974 7965 7964 7962 ] final   70.27 input  175.53 | X-H torsion
[ 8008 7997 7996 7995 ] final  154.52 input   59.86 | X-H torsion
[ 10167 10162 10161 10158 ] final  -69.50 input  -65.29 | X-H torsion
[ 10718 10713 10712 10709 ] final  -73.04 input   66.30 | X-H torsion
[ 10763 10752 10751 10750 ] final  -21.58 input  -60.55 | X-H torsion
[ 11005 11000 10999 10996 ] final -113.29 input  -57.11 | X-H torsion

> <Gold.Protein.ActiveResidues>
 VAL166  LYS551  ARG553  GLY616  TRP617  ASP618  TYR619  PRO620  LYS621  CYS622 
 ASP623  PHE694  ASN695  SER759  ASP760  ASP761  ALA762  ILE779  LEU786  VAL792 
 PHE793  MET794  SER795  GLU796  ALA797  LYS798  CYS799  TRP800  GLU811  SER814 

> <Gold.Protein.RotatedAtoms>
  152.0562  133.4041  159.4398 H   0  0  0  0  0  0  0  0  0  0  0  0  # atno 6907 bound_to 6896
  150.6868  134.3251  159.4812 H   0  0  0  0  0  0  0  0  0  0  0  0  # atno 6908 bound_to 6896
  152.1067  134.9303  160.0618 H   0  0  0  0  0  0  0  0  0  0  0  0  # atno 6909 bound_to 6896
  145.7802  139.2884  143.1270 H   0  0  0  0  0  0  0  0  0  0  0  0  # atno 7974 bound_to 7965
  156.2527  140.1964  156.6659 H   0  0  0  0  0  0  0  0  0  0  0  0  # atno 8008 bound_to 7997
  154.6429  140.0581  156.9892 H   0  0  0  0  0  0  0  0  0  0  0  0  # atno 8009 bound_to 7997
  155.1535  140.3253  155.4429 H   0  0  0  0  0  0  0  0  0  0  0  0  # atno 8010 bound_to 7997
  140.5425  143.2314  151.7062 H   0  0  0  0  0  0  0  0  0  0  0  0  # atno 10167 bound_to 10162
  156.0296  130.4385  150.2682 H   0  0  0  0  0  0  0  0  0  0  0  0  # atno 10718 bound_to 10713
  153.6385  135.6986  153.5250 H   0  0  0  0  0  0  0  0  0  0  0  0  # atno 10763 bound_to 10752
  153.2802  135.4188  155.1071 H   0  0  0  0  0  0  0  0  0  0  0  0  # atno 10764 bound_to 10752
  154.8505  135.3600  154.5928 H   0  0  0  0  0  0  0  0  0  0  0  0  # atno 10765 bound_to 10752
  141.0623  133.9515  157.2644 H   0  0  0  0  0  0  0  0  0  0  0  0  # atno 11005 bound_to 11000
  146.0082  140.8460  142.9984 LP  0  0  0  0  0  0  0  0  0  0  0  0  # atno 17320 bound_to 7965
  144.6798  140.2451  143.7339 LP  0  0  0  0  0  0  0  0  0  0  0  0  # atno 17321 bound_to 7965
  139.4994  144.3946  152.0245 LP  0  0  0  0  0  0  0  0  0  0  0  0  # atno 17342 bound_to 10162
  140.3056  144.3597  150.6048 LP  0  0  0  0  0  0  0  0  0  0  0  0  # atno 17343 bound_to 10162
  157.0785  131.0137  151.3165 LP  0  0  0  0  0  0  0  0  0  0  0  0  # atno 17370 bound_to 10713
  157.4945  130.7842  149.7541 LP  0  0  0  0  0  0  0  0  0  0  0  0  # atno 17371 bound_to 10713
  139.9444  135.0186  156.8807 LP  0  0  0  0  0  0  0  0  0  0  0  0  # atno 17394 bound_to 11000
  140.5844  134.0321  155.7476 LP  0  0  0  0  0  0  0  0  0  0  0  0  # atno 17395 bound_to 11000

$$$$
