AV-unprocessed.smi:199|AV-procd|sdf|1562|dock2
  -GOLD-   2262019433D 1   1.00000     0.00000
 Structure written by MMmdl.
 51 55  0  0  0  0  0  0  0  0  1 V2000
  145.6646  135.6774  151.4072 C   0  0  0  0  0  0  0  0  0  0  0  0
  146.1258  134.2565  151.7708 C   0  0  2  0  0  0  0  0  0  0  0  0
  146.0559  133.4008  150.6398 O   0  0  0  0  0  0  0  0  0  0  0  0
  146.1244  132.0721  151.1241 C   0  0  0  0  0  0  0  0  0  0  0  0
  145.1815  132.0998  152.3212 C   0  0  0  0  0  0  0  0  0  0  0  0
  145.3353  133.5169  152.8829 C   0  0  2  0  0  0  0  0  0  0  0  0
  144.0388  134.0653  153.0568 O   0  0  0  0  0  0  0  0  0  0  0  0
  146.0524  133.5264  154.2558 C   0  0  0  0  0  0  0  0  0  0  0  0
  146.6993  134.7937  154.5622 N   0  0  0  0  0  0  0  0  0  0  0  0
  146.1084  136.0358  154.5884 C   0  0  0  0  0  0  0  0  0  0  0  0
  146.9076  137.0244  154.8795 N   0  0  0  0  0  0  0  0  0  0  0  0
  148.1470  136.4241  155.0705 C   0  0  0  0  0  0  0  0  0  0  0  0
  149.4512  136.9014  155.3956 C   0  0  0  0  0  0  0  0  0  0  0  0
  149.7593  138.2134  155.5931 N   0  0  0  0  0  0  0  0  0  0  0  0
  150.3640  138.6479  156.8444 C   0  0  1  0  0  0  0  0  0  0  0  0
  151.8254  138.1605  156.7469 C   0  0  0  0  0  0  0  0  0  0  0  0
  152.0888  138.3016  155.2393 C   0  0  0  0  0  0  0  0  0  0  0  0
  150.7443  138.8788  154.7520 C   0  0  2  0  0  0  0  0  0  0  0  0
  150.6414  140.3545  155.2006 C   0  0  1  0  0  0  0  0  0  0  0  0
  149.5502  141.1477  154.4591 C   0  0  0  0  0  0  0  0  0  0  0  0
  149.7936  141.1372  153.0684 O   0  0  0  0  0  0  0  0  0  0  0  0
  150.3345  140.1774  156.7012 C   0  0  0  0  0  0  0  0  0  0  0  0
  150.4338  135.9719  155.5369 N   0  0  0  0  0  0  0  0  0  0  0  0
  150.1763  134.6753  155.3488 C   0  0  0  0  0  0  0  0  0  0  0  0
  149.0214  134.0943  155.0236 N   0  0  0  0  0  0  0  0  0  0  0  0
  148.0245  135.0151  154.8949 C   0  0  0  0  0  0  0  0  0  0  0  0
  145.7042  136.3387  152.2731 H   0  0  0  0  0  0  0  0  0  0  0  0
  144.6443  135.6829  151.0237 H   0  0  0  0  0  0  0  0  0  0  0  0
  146.3065  136.1049  150.6370 H   0  0  0  0  0  0  0  0  0  0  0  0
  147.1803  134.2971  152.0450 H   0  0  0  0  0  0  0  0  0  0  0  0
  145.8229  131.3490  150.3661 H   0  0  0  0  0  0  0  0  0  0  0  0
  147.1457  131.8442  151.4337 H   0  0  0  0  0  0  0  0  0  0  0  0
  144.1634  131.9249  151.9684 H   0  0  0  0  0  0  0  0  0  0  0  0
  145.4129  131.3171  153.0446 H   0  0  0  0  0  0  0  0  0  0  0  0
  143.4924  133.4172  153.4741 H   0  0  0  0  0  0  0  0  0  0  0  0
  145.3467  133.3001  155.0563 H   0  0  0  0  0  0  0  0  0  0  0  0
  146.8079  132.7402  154.2876 H   0  0  0  0  0  0  0  0  0  0  0  0
  145.0606  136.1884  154.3746 H   0  0  0  0  0  0  0  0  0  0  0  0
  149.8527  138.3080  157.7456 H   0  0  0  0  0  0  0  0  0  0  0  0
  152.5072  138.7570  157.3539 H   0  0  0  0  0  0  0  0  0  0  0  0
  151.9193  137.1194  157.0579 H   0  0  0  0  0  0  0  0  0  0  0  0
  152.9361  138.9496  155.0135 H   0  0  0  0  0  0  0  0  0  0  0  0
  152.2801  137.3264  154.7891 H   0  0  0  0  0  0  0  0  0  0  0  0
  150.6037  138.7682  153.6787 H   0  0  0  0  0  0  0  0  0  0  0  0
  151.5965  140.8658  155.0689 H   0  0  0  0  0  0  0  0  0  0  0  0
  148.5606  140.7338  154.6559 H   0  0  0  0  0  0  0  0  0  0  0  0
  149.5414  142.1843  154.7972 H   0  0  0  0  0  0  0  0  0  0  0  0
  149.9680  140.2478  152.8007 H   0  0  0  0  0  0  0  0  0  0  0  0
  149.3455  140.5626  156.9538 H   0  0  0  0  0  0  0  0  0  0  0  0
  151.0614  140.6750  157.3441 H   0  0  0  0  0  0  0  0  0  0  0  0
  151.0165  134.0086  155.4753 H   0  0  0  0  0  0  0  0  0  0  0  0
  1  2  1  0  0  0  0
  1 27  1  0  0  0  0
  1 28  1  0  0  0  0
  1 29  1  0  0  0  0
  2  6  1  0  0  0  0
  2  3  1  0  0  0  0
  2 30  1  0  0  0  0
  3  4  1  0  0  0  0
  4  5  1  0  0  0  0
  4 31  1  0  0  0  0
  4 32  1  0  0  0  0
  5  6  1  0  0  0  0
  5 33  1  0  0  0  0
  5 34  1  0  0  0  0
  6  7  1  0  0  0  0
  6  8  1  0  0  0  0
  7 35  1  0  0  0  0
  8  9  1  0  0  0  0
  8 36  1  0  0  0  0
  8 37  1  0  0  0  0
  9 26  1  0  0  0  0
  9 10  1  0  0  0  0
 10 11  2  0  0  0  0
 10 38  1  0  0  0  0
 11 12  1  0  0  0  0
 12 26  2  0  0  0  0
 12 13  1  0  0  0  0
 13 14  1  0  0  0  0
 13 23  2  0  0  0  0
 14 18  1  0  0  0  0
 14 15  1  0  0  0  0
 15 22  1  0  0  0  0
 15 16  1  0  0  0  0
 15 39  1  0  0  0  0
 16 17  1  0  0  0  0
 16 40  1  0  0  0  0
 16 41  1  0  0  0  0
 17 18  1  0  0  0  0
 17 42  1  0  0  0  0
 17 43  1  0  0  0  0
 18 19  1  0  0  0  0
 18 44  1  0  0  0  0
 19 20  1  0  0  0  0
 19 22  1  0  0  0  0
 19 45  1  0  0  0  0
 20 21  1  0  0  0  0
 20 46  1  0  0  0  0
 20 47  1  0  0  0  0
 21 48  1  0  0  0  0
 22 49  1  0  0  0  0
 22 50  1  0  0  0  0
 23 24  1  0  0  0  0
 24 25  2  0  0  0  0
 24 51  1  0  0  0  0
 25 26  1  0  0  0  0
M  END
> <s_m_source_file>
AV-unprocessed.smi

> <i_m_source_file_index>
199

> <i_lp_mmshare_version>
43012

> <i_f3d_flags>
0

> <s_epik_input>
W0NIMl0xW0NIMl1PW0NAQEhdKFtDSDNdKVtDQEBdMShbT0hdKVtDSDJdbihbY0hdbjIpYyhjMjMpbltjSF1uYzNOKFtDQEBIXTQ1KVtDQEhdKFtDSDJdW0NIMl00KVtDQEhdKFtDSDJdNSlbQ0gyXVtPSF0=

> <s_epik_cmdline>
J2VwaWtfcHl0aG9uJywgJy1waCcsICc3LjAnLCAnLXRuJywgJzgnLCAnLW1hJywgJzIwMCcsICctbWV0YWxfYmluZGluZycsICctaW1hZScsICc8aW5maWxlLm1hZT4nLCAnLW9tYWUnLCAnPG91dGZpbGUubWFlPic=

> <r_lp_tautomer_probability>
1

> <r_epik_Ionization_Penalty>
0.00583903

> <r_epik_Ionization_Penalty_Charging>
0

> <r_epik_Ionization_Penalty_Neutral>
0.00583903

> <r_epik_State_Penalty>
-0

> <r_epik_Charging_Adjusted_Penalty>
0

> <i_epik_Tot_Q>
0

> <i_epik_Tot_abs_Q>
0

> <r_epik_Metal_State_Penalty>
-0

> <b_epik_Metal_Only>
0

> <s_lp_Force_Field>
OPLS_2005

> <r_lp_Energy>
83.6045

> <b_lp_Chiralities_Consistent>
1

> <s_lp_Variant>
AV-unprocessed.smi:199-3

> <Gold.Version>
5.8.1

> <Gold.Id.Protein>
6NUR|6NUR_protein|mol2

> <Gold.PLP.Fitness>
40.4210

> <Gold.PLP.PLP>
-33.4046

> <Gold.PLP.part.hbond>
-3.7888

> <Gold.PLP.part.metal>
0.0000

> <Gold.PLP.part.buried>
-4.1163

> <Gold.PLP.part.nonpolar>
-25.2020

> <Gold.PLP.part.repulsive>
0.5598

> <Gold.PLP.ligand.clash>
0.0000

> <Gold.PLP.ligand.torsion>
0.4095

> <Gold.PLP.Chemscore.Hbond>
2.5840

> <Gold.PLP.Chemscore.CHOScore>
0.0000

> <Gold.PLP.Chemscore.Metal>
0.0000

> <Gold.Chemscore.Hbonds>
donor molecule, donor type, donor heavy atom, donor atom, acceptor molecule, acceptor atom, score
      L1  H     7    35       P1 10957  0.42
      L1  H    21    48       P1  7957  0.21
      P1  H  8011  8017       L1    21  0.84

> <Gold.PLP.Chemscore.Internal.Correction>
0.0835

> <Gold.Rescore>
     Score         DG    S(hbond)    S(metal)    S(lipo)     H(rot)  DE(clash)    DE(int)     intcor
     10.99     -13.90       2.30        0.00      73.59       3.07       0.09       2.82       ----

> <Gold.Chemscore.Fitness>
10.9916

> <Gold.Chemscore.DG>
-13.9028

> <Gold.Chemscore.ZeroCoef>
-5.4800

> <Gold.Chemscore.Hbond>
2.2993

> <Gold.Chemscore.Metal>
0.0000

> <Gold.Chemscore.Lipo>
73.5896

> <Gold.Chemscore.Internal_Hbond>
0.0000

> <Gold.Chemscore.DEClash>
0.0905

> <Gold.Chemscore.DEInternal>
2.8208

> <Gold.Chemscore.Rot>
3.0729

> <Gold.Chemscore.Internal.Correction>
   9.000000E+99

> <Gold.Chemscore.Hbonds>
donor molecule, donor type, donor heavy atom, donor atom, acceptor molecule, acceptor atom, score
      L1  H     7    35       P1 10957  0.41
      L1  H    21    48       P1  7957  0.22
      P1  H  8011  8017       L1    21  0.80

> <Gold.Chemscore.Hbond.Weighted>
-7.6796

> <Gold.Chemscore.Metal.Weighted>
-0.0000

> <Gold.Chemscore.Lipo.Weighted>
-8.6100

> <Gold.Chemscore.Internal_Hbond.Weighted>
0.0000

> <Gold.Chemscore.DEClash.Weighted>
0.0905

> <Gold.Chemscore.DEInternal.Weighted>
2.8208

> <Gold.Chemscore.Rot.Weighted>
7.8667

> <Gold.Chemscore.Internal.Correction.Weighted>
   9.000000E+99

> <Gold.Protein.RotatedTorsions>
[ 6907 6896 6895 6894 ] final  100.31 input  -60.11 | X-H torsion
[ 7974 7965 7964 7962 ] final  -83.71 input  175.53 | X-H torsion
[ 8008 7997 7996 7995 ] final   65.48 input   59.86 | X-H torsion
[ 10167 10162 10161 10158 ] final   -1.97 input  -65.29 | X-H torsion
[ 10718 10713 10712 10709 ] final  -80.85 input   66.30 | X-H torsion
[ 10763 10752 10751 10750 ] final   56.22 input  -60.55 | X-H torsion
[ 11005 11000 10999 10996 ] final  178.92 input  -57.11 | X-H torsion

> <Gold.Protein.ActiveResidues>
 VAL166  LYS551  ARG553  GLY616  TRP617  ASP618  TYR619  PRO620  LYS621  CYS622 
 ASP623  PHE694  ASN695  SER759  ASP760  ASP761  ALA762  ILE779  LEU786  VAL792 
 PHE793  MET794  SER795  GLU796  ALA797  LYS798  CYS799  TRP800  GLU811  SER814 

> <Gold.Protein.RotatedAtoms>
  152.5375  134.0297  159.8018 H   0  0  0  0  0  0  0  0  0  0  0  0  # atno 6907 bound_to 6896
  151.0470  133.5649  159.2653 H   0  0  0  0  0  0  0  0  0  0  0  0  # atno 6908 bound_to 6896
  151.2598  135.0657  159.9147 H   0  0  0  0  0  0  0  0  0  0  0  0  # atno 6909 bound_to 6896
  145.5163  140.9535  143.1680 H   0  0  0  0  0  0  0  0  0  0  0  0  # atno 7974 bound_to 7965
  155.6624  140.3497  155.4787 H   0  0  0  0  0  0  0  0  0  0  0  0  # atno 8008 bound_to 7997
  155.9758  140.1164  157.0795 H   0  0  0  0  0  0  0  0  0  0  0  0  # atno 8009 bound_to 7997
  154.4178  140.1148  156.5354 H   0  0  0  0  0  0  0  0  0  0  0  0  # atno 8010 bound_to 7997
  140.6832  143.6713  150.8183 H   0  0  0  0  0  0  0  0  0  0  0  0  # atno 10167 bound_to 10162
  156.0062  130.4586  150.3863 H   0  0  0  0  0  0  0  0  0  0  0  0  # atno 10718 bound_to 10713
  152.9828  135.5684  154.5193 H   0  0  0  0  0  0  0  0  0  0  0  0  # atno 10763 bound_to 10752
  154.4684  135.2784  155.1663 H   0  0  0  0  0  0  0  0  0  0  0  0  # atno 10764 bound_to 10752
  154.3221  135.6267  153.5566 H   0  0  0  0  0  0  0  0  0  0  0  0  # atno 10765 bound_to 10752
  140.4004  134.6782  157.4558 H   0  0  0  0  0  0  0  0  0  0  0  0  # atno 11005 bound_to 11000
  144.7700  139.6757  143.7199 LP  0  0  0  0  0  0  0  0  0  0  0  0  # atno 17320 bound_to 7965
  146.2134  139.5507  142.9666 LP  0  0  0  0  0  0  0  0  0  0  0  0  # atno 17321 bound_to 7965
  140.0416  143.5340  152.2715 LP  0  0  0  0  0  0  0  0  0  0  0  0  # atno 17342 bound_to 10162
  139.6170  144.7621  151.2825 LP  0  0  0  0  0  0  0  0  0  0  0  0  # atno 17343 bound_to 10162
  157.1940  131.0422  151.2685 LP  0  0  0  0  0  0  0  0  0  0  0  0  # atno 17370 bound_to 10713
  157.4036  130.7346  149.6785 LP  0  0  0  0  0  0  0  0  0  0  0  0  # atno 17371 bound_to 10713
  140.0340  134.6364  155.9068 LP  0  0  0  0  0  0  0  0  0  0  0  0  # atno 17394 bound_to 11000
  141.1859  133.6556  156.5216 LP  0  0  0  0  0  0  0  0  0  0  0  0  # atno 17395 bound_to 11000

$$$$
