AV-unprocessed.smi:427|AV-procd|sdf|2542|dock2
  -GOLD-   2262022503D 1   1.00000     0.00000
 Structure written by MMmdl.
 51 52  0  0  0  0  0  0  0  0  1 V2000
  152.9478  139.3992  159.0695 C   0  0  0  0  0  0  0  0  0  0  0  0
  152.1821  140.6155  158.5819 C   0  0  0  0  0  0  0  0  0  0  0  0
  152.1138  141.7667  159.3942 C   0  0  0  0  0  0  0  0  0  0  0  0
  151.4030  142.9169  158.9740 C   0  0  0  0  0  0  0  0  0  0  0  0
  151.3070  144.1907  159.8357 C   0  0  0  0  0  0  0  0  0  0  0  0
  149.8244  144.5166  160.1087 C   0  0  0  0  0  0  0  0  0  0  0  0
  151.9434  145.4267  159.1602 C   0  0  0  0  0  0  0  0  0  0  0  0
  152.0354  143.9679  161.1779 C   0  0  0  0  0  0  0  0  0  0  0  0
  150.7661  142.8796  157.7126 C   0  0  0  0  0  0  0  0  0  0  0  0
  150.8291  141.7338  156.8985 C   0  0  0  0  0  0  0  0  0  0  0  0
  151.5372  140.5853  157.3261 C   0  0  0  0  0  0  0  0  0  0  0  0
  151.6396  139.4277  156.5843 O   0  0  0  0  0  0  0  0  0  0  0  0
  151.2236  139.4512  155.2254 C   0  0  0  0  0  0  0  0  0  0  0  0
  150.9754  138.0053  154.7715 C   0  0  2  0  0  0  0  0  0  0  0  0
  150.5886  138.0522  153.4132 O   0  0  0  0  0  0  0  0  0  0  0  0
  149.8519  137.3258  155.5870 C   0  0  0  0  0  0  0  0  0  0  0  0
  149.8606  135.8779  155.4704 N   0  0  0  0  0  0  0  0  0  0  0  0
  151.0162  135.1829  155.9047 C   0  0  0  0  0  0  0  0  0  0  0  0
  151.9966  135.7644  156.3712 O   0  0  0  0  0  0  0  0  0  0  0  0
  150.9425  133.7320  155.7695 C   0  0  0  0  0  0  0  0  0  0  0  0
  149.8339  133.1353  155.2799 C   0  0  0  0  0  0  0  0  0  0  0  0
  148.7155  133.8426  154.8842 N   0  0  0  0  0  0  0  0  0  0  0  0
  147.5356  133.2006  154.3811 C   0  0  0  0  0  0  0  0  0  0  0  0
  148.6926  135.2511  154.9741 C   0  0  0  0  0  0  0  0  0  0  0  0
  147.6943  135.8974  154.6433 O   0  0  0  0  0  0  0  0  0  0  0  0
  153.4677  139.6010  160.0064 H   0  0  0  0  0  0  0  0  0  0  0  0
  153.6900  139.0940  158.3314 H   0  0  0  0  0  0  0  0  0  0  0  0
  152.2640  138.5661  159.2338 H   0  0  0  0  0  0  0  0  0  0  0  0
  152.6194  141.7416  160.3467 H   0  0  0  0  0  0  0  0  0  0  0  0
  149.7204  145.4241  160.7044 H   0  0  0  0  0  0  0  0  0  0  0  0
  149.3224  143.7173  160.6541 H   0  0  0  0  0  0  0  0  0  0  0  0
  149.2780  144.6717  159.1776 H   0  0  0  0  0  0  0  0  0  0  0  0
  151.4506  145.6715  158.2184 H   0  0  0  0  0  0  0  0  0  0  0  0
  153.0044  145.2737  158.9584 H   0  0  0  0  0  0  0  0  0  0  0  0
  151.8648  146.3089  159.7967 H   0  0  0  0  0  0  0  0  0  0  0  0
  152.0038  144.8633  161.7999 H   0  0  0  0  0  0  0  0  0  0  0  0
  153.0850  143.7170  161.0194 H   0  0  0  0  0  0  0  0  0  0  0  0
  151.5898  143.1616  161.7604 H   0  0  0  0  0  0  0  0  0  0  0  0
  150.2182  143.7373  157.3523 H   0  0  0  0  0  0  0  0  0  0  0  0
  150.3247  141.7635  155.9450 H   0  0  0  0  0  0  0  0  0  0  0  0
  150.3136  140.0424  155.1074 H   0  0  0  0  0  0  0  0  0  0  0  0
  152.0066  139.9037  154.6143 H   0  0  0  0  0  0  0  0  0  0  0  0
  151.9095  137.4468  154.8465 H   0  0  0  0  0  0  0  0  0  0  0  0
  149.9070  137.4124  153.2736 H   0  0  0  0  0  0  0  0  0  0  0  0
  149.9418  137.5441  156.6527 H   0  0  0  0  0  0  0  0  0  0  0  0
  148.8583  137.6968  155.3292 H   0  0  0  0  0  0  0  0  0  0  0  0
  151.7861  133.1275  156.0692 H   0  0  0  0  0  0  0  0  0  0  0  0
  149.8244  132.0580  155.2006 H   0  0  0  0  0  0  0  0  0  0  0  0
  147.3578  133.5793  153.3730 H   0  0  0  0  0  0  0  0  0  0  0  0
  146.7162  133.4394  155.0615 H   0  0  0  0  0  0  0  0  0  0  0  0
  147.7194  132.1258  154.3618 H   0  0  0  0  0  0  0  0  0  0  0  0
  1  2  1  0  0  0  0
  1 26  1  0  0  0  0
  1 27  1  0  0  0  0
  1 28  1  0  0  0  0
  2 11  1  0  0  0  0
  2  3  2  0  0  0  0
  3  4  1  0  0  0  0
  3 29  1  0  0  0  0
  4  5  1  0  0  0  0
  4  9  2  0  0  0  0
  5  6  1  0  0  0  0
  5  7  1  0  0  0  0
  5  8  1  0  0  0  0
  6 30  1  0  0  0  0
  6 31  1  0  0  0  0
  6 32  1  0  0  0  0
  7 33  1  0  0  0  0
  7 34  1  0  0  0  0
  7 35  1  0  0  0  0
  8 36  1  0  0  0  0
  8 37  1  0  0  0  0
  8 38  1  0  0  0  0
  9 10  1  0  0  0  0
  9 39  1  0  0  0  0
 10 11  2  0  0  0  0
 10 40  1  0  0  0  0
 11 12  1  0  0  0  0
 12 13  1  0  0  0  0
 13 14  1  0  0  0  0
 13 41  1  0  0  0  0
 13 42  1  0  0  0  0
 14 15  1  0  0  0  0
 14 16  1  0  0  0  0
 14 43  1  0  0  0  0
 15 44  1  0  0  0  0
 16 17  1  0  0  0  0
 16 45  1  0  0  0  0
 16 46  1  0  0  0  0
 17 24  1  0  0  0  0
 17 18  1  0  0  0  0
 18 19  2  0  0  0  0
 18 20  1  0  0  0  0
 20 21  2  0  0  0  0
 20 47  1  0  0  0  0
 21 22  1  0  0  0  0
 21 48  1  0  0  0  0
 22 23  1  0  0  0  0
 22 24  1  0  0  0  0
 23 49  1  0  0  0  0
 23 50  1  0  0  0  0
 23 51  1  0  0  0  0
 24 25  2  0  0  0  0
M  END
> <s_m_source_file>
AV-unprocessed.smi

> <i_m_source_file_index>
427

> <i_lp_mmshare_version>
43012

> <i_f3d_flags>
0

> <s_epik_input>
W0NIM11jMVtjSF1jKEMoW0NIM10pKFtDSDNdKVtDSDNdKVtjSF1bY0hdYzFPW0NIMl1bQ0BIXShbT0hdKVtDSDJdbjJjKD1PKVtjSF1bY0hdbihbQ0gzXSljMj1P

> <s_epik_cmdline>
J2VwaWtfcHl0aG9uJywgJy1waCcsICc3LjAnLCAnLXRuJywgJzgnLCAnLW1hJywgJzIwMCcsICctbWV0YWxfYmluZGluZycsICctaW1hZScsICc8aW5maWxlLm1hZT4nLCAnLW9tYWUnLCAnPG91dGZpbGUubWFlPic=

> <r_lp_tautomer_probability>
1

> <r_epik_Ionization_Penalty>
2.02112e-07

> <r_epik_Ionization_Penalty_Charging>
8.49383e-08

> <r_epik_Ionization_Penalty_Neutral>
1.17174e-07

> <r_epik_State_Penalty>
-0

> <r_epik_Charging_Adjusted_Penalty>
8.49383e-08

> <i_epik_Tot_Q>
0

> <i_epik_Tot_abs_Q>
0

> <r_epik_Metal_State_Penalty>
-0

> <b_epik_Metal_Only>
0

> <s_lp_Force_Field>
OPLS_2005

> <r_lp_Energy>
25.5029

> <b_lp_Chiralities_Consistent>
1

> <s_lp_Variant>
AV-unprocessed.smi:427-1

> <Gold.Version>
5.8.1

> <Gold.Id.Protein>
6NUR|6NUR_protein|mol2

> <Gold.PLP.Fitness>
50.7764

> <Gold.PLP.PLP>
-45.8095

> <Gold.PLP.part.hbond>
-3.6578

> <Gold.PLP.part.metal>
0.0000

> <Gold.PLP.part.buried>
-4.8391

> <Gold.PLP.part.nonpolar>
-37.8709

> <Gold.PLP.part.repulsive>
0.2440

> <Gold.PLP.ligand.clash>
0.0000

> <Gold.PLP.ligand.torsion>
0.3845

> <Gold.PLP.Chemscore.Hbond>
1.8268

> <Gold.PLP.Chemscore.CHOScore>
0.0000

> <Gold.PLP.Chemscore.Metal>
0.0000

> <Gold.Chemscore.Hbonds>
donor molecule, donor type, donor heavy atom, donor atom, acceptor molecule, acceptor atom, score
      L1  H    15    44       P1  7948  0.86
      P1  H 10752 10764       L1    19  0.85

> <Gold.PLP.Chemscore.Internal.Correction>
0.2556

> <Gold.Rescore>
     Score         DG    S(hbond)    S(metal)    S(lipo)     H(rot)  DE(clash)    DE(int)     intcor
     17.84     -19.69       1.60        0.00     130.22       2.49       0.22       1.63       ----

> <Gold.Chemscore.Fitness>
17.8447

> <Gold.Chemscore.DG>
-19.6871

> <Gold.Chemscore.ZeroCoef>
-5.4800

> <Gold.Chemscore.Hbond>
1.5999

> <Gold.Chemscore.Metal>
0.0000

> <Gold.Chemscore.Lipo>
130.2231

> <Gold.Chemscore.Internal_Hbond>
0.0000

> <Gold.Chemscore.DEClash>
0.2164

> <Gold.Chemscore.DEInternal>
1.6261

> <Gold.Chemscore.Rot>
2.4894

> <Gold.Chemscore.Internal.Correction>
   9.000000E+99

> <Gold.Chemscore.Hbonds>
donor molecule, donor type, donor heavy atom, donor atom, acceptor molecule, acceptor atom, score
      L1  H    15    44       P1  7948  0.36
      P1  H 10752 10764       L1    19  0.15

> <Gold.Chemscore.Hbond.Weighted>
-5.3438

> <Gold.Chemscore.Metal.Weighted>
-0.0000

> <Gold.Chemscore.Lipo.Weighted>
-15.2361

> <Gold.Chemscore.Internal_Hbond.Weighted>
0.0000

> <Gold.Chemscore.DEClash.Weighted>
0.2164

> <Gold.Chemscore.DEInternal.Weighted>
1.6261

> <Gold.Chemscore.Rot.Weighted>
6.3728

> <Gold.Chemscore.Internal.Correction.Weighted>
   9.000000E+99

> <Gold.Protein.RotatedTorsions>
[ 6907 6896 6895 6894 ] final   26.01 input  -60.11 | X-H torsion
[ 7974 7965 7964 7962 ] final  -36.40 input  175.53 | X-H torsion
[ 8008 7997 7996 7995 ] final  -73.39 input   59.86 | X-H torsion
[ 10167 10162 10161 10158 ] final -104.43 input  -65.29 | X-H torsion
[ 10718 10713 10712 10709 ] final   81.82 input   66.30 | X-H torsion
[ 10763 10752 10751 10750 ] final  -34.36 input  -60.55 | X-H torsion
[ 11005 11000 10999 10996 ] final   62.23 input  -57.11 | X-H torsion

> <Gold.Protein.ActiveResidues>
 VAL166  LYS551  ARG553  GLY616  TRP617  ASP618  TYR619  PRO620  LYS621  CYS622 
 ASP623  PHE694  ASN695  SER759  ASP760  ASP761  ALA762  ILE779  LEU786  VAL792 
 PHE793  MET794  SER795  GLU796  ALA797  LYS798  CYS799  TRP800  GLU811  SER814 

> <Gold.Protein.RotatedAtoms>
  151.9811  135.0028  160.0557 H   0  0  0  0  0  0  0  0  0  0  0  0  # atno 6907 bound_to 6896
  152.1695  133.4630  159.4910 H   0  0  0  0  0  0  0  0  0  0  0  0  # atno 6908 bound_to 6896
  150.6899  134.1888  159.4320 H   0  0  0  0  0  0  0  0  0  0  0  0  # atno 6909 bound_to 6896
  146.0664  140.6274  142.8973 H   0  0  0  0  0  0  0  0  0  0  0  0  # atno 7974 bound_to 7965
  154.5243  140.0780  156.8230 H   0  0  0  0  0  0  0  0  0  0  0  0  # atno 8008 bound_to 7997
  155.3508  140.3412  155.4221 H   0  0  0  0  0  0  0  0  0  0  0  0  # atno 8009 bound_to 7997
  156.1715  140.1621  156.8425 H   0  0  0  0  0  0  0  0  0  0  0  0  # atno 8010 bound_to 7997
  140.2094  143.3758  152.1063 H   0  0  0  0  0  0  0  0  0  0  0  0  # atno 10167 bound_to 10162
  157.6842  131.0021  150.2284 H   0  0  0  0  0  0  0  0  0  0  0  0  # atno 10718 bound_to 10713
  153.8454  135.6854  153.4798 H   0  0  0  0  0  0  0  0  0  0  0  0  # atno 10763 bound_to 10752
  153.1428  135.4650  154.9520 H   0  0  0  0  0  0  0  0  0  0  0  0  # atno 10764 bound_to 10752
  154.7826  135.3274  154.7904 H   0  0  0  0  0  0  0  0  0  0  0  0  # atno 10765 bound_to 10752
  140.0107  134.6301  155.9786 H   0  0  0  0  0  0  0  0  0  0  0  0  # atno 11005 bound_to 11000
  144.7205  140.4357  143.7012 LP  0  0  0  0  0  0  0  0  0  0  0  0  # atno 17320 bound_to 7965
  145.6469  139.1558  143.2884 LP  0  0  0  0  0  0  0  0  0  0  0  0  # atno 17321 bound_to 7965
  139.5186  144.7008  151.5499 LP  0  0  0  0  0  0  0  0  0  0  0  0  # atno 17342 bound_to 10162
  140.6334  143.9031  150.6626 LP  0  0  0  0  0  0  0  0  0  0  0  0  # atno 17343 bound_to 10162
  156.2921  130.3747  149.7831 LP  0  0  0  0  0  0  0  0  0  0  0  0  # atno 17370 bound_to 10713
  156.5487  130.8332  151.3292 LP  0  0  0  0  0  0  0  0  0  0  0  0  # atno 17371 bound_to 10713
  141.1708  133.6537  156.4646 LP  0  0  0  0  0  0  0  0  0  0  0  0  # atno 17394 bound_to 11000
  140.4560  134.6885  157.5063 LP  0  0  0  0  0  0  0  0  0  0  0  0  # atno 17395 bound_to 11000

$$$$
