AV-unprocessed.smi:1809|AV-procd|sdf|7317|dock4
  -GOLD-   22720 8573D 1   1.00000     0.00000
 Structure written by MMmdl.
 39 41  0  0  0  0  0  0  0  0  1 V2000
  146.3171  134.0079  162.2639 C   0  0  0  0  0  0  0  0  0  0  0  0
  146.8913  135.1893  161.5593 C   0  0  0  0  0  0  0  0  0  0  0  0
  146.8229  136.4310  162.0547 N   0  0  0  0  0  0  0  0  0  0  0  0
  147.4237  137.3639  161.2209 N   0  0  0  0  0  0  0  0  0  0  0  0
  147.9276  136.7961  160.1165 C   0  0  0  0  0  0  0  0  0  0  0  0
  148.5962  137.5173  159.0922 N   0  0  0  0  0  0  0  0  0  0  0  0
  149.9135  137.5586  158.8259 C   0  0  0  0  0  0  0  0  0  0  0  0
  150.7853  136.9533  159.4501 O   0  0  0  0  0  0  0  0  0  0  0  0
  150.1699  138.3515  157.7754 N   0  0  0  0  0  0  0  0  0  0  0  0
  151.4956  138.6179  157.2272 C   0  0  0  0  0  0  0  0  0  0  0  0
  151.8696  140.1058  157.3350 C   0  0  2  0  0  0  0  0  0  0  0  0
  152.1742  140.5095  158.7961 C   0  0  0  0  0  0  0  0  0  0  0  0
  152.4026  141.9391  158.8796 N   0  0  0  0  0  0  0  0  0  0  0  0
  152.6216  142.4891  160.1973 C   0  0  0  0  0  0  0  0  0  0  0  0
  152.4078  144.0024  160.0177 C   0  0  0  0  0  0  0  0  0  0  0  0
  151.5851  144.1240  158.7154 C   0  0  0  0  0  0  0  0  0  0  0  0
  151.2666  142.6657  158.3810 C   0  0  1  0  0  0  0  0  0  0  0  0
  150.9991  142.3109  156.9120 C   0  0  0  0  0  0  0  0  0  0  0  0
  150.7855  140.8996  156.8345 O   0  0  0  0  0  0  0  0  0  0  0  0
  147.7055  135.0583  160.0050 S   0  0  0  0  0  0  0  0  0  0  0  0
  146.2883  134.1817  163.3401 H   0  0  0  0  0  0  0  0  0  0  0  0
  146.9242  133.1234  162.0706 H   0  0  0  0  0  0  0  0  0  0  0  0
  145.3029  133.8214  161.9109 H   0  0  0  0  0  0  0  0  0  0  0  0
  148.0001  138.0643  158.4890 H   0  0  0  0  0  0  0  0  0  0  0  0
  149.3926  138.8103  157.3240 H   0  0  0  0  0  0  0  0  0  0  0  0
  152.2519  137.9957  157.7090 H   0  0  0  0  0  0  0  0  0  0  0  0
  151.4790  138.3210  156.1783 H   0  0  0  0  0  0  0  0  0  0  0  0
  152.7524  140.2984  156.7223 H   0  0  0  0  0  0  0  0  0  0  0  0
  151.3384  140.2284  159.4386 H   0  0  0  0  0  0  0  0  0  0  0  0
  153.0501  139.9722  159.1609 H   0  0  0  0  0  0  0  0  0  0  0  0
  151.8857  142.0917  160.8982 H   0  0  0  0  0  0  0  0  0  0  0  0
  153.6151  142.2462  160.5749 H   0  0  0  0  0  0  0  0  0  0  0  0
  151.8837  144.4279  160.8740 H   0  0  0  0  0  0  0  0  0  0  0  0
  153.3606  144.5231  159.9148 H   0  0  0  0  0  0  0  0  0  0  0  0
  150.6834  144.7240  158.8404 H   0  0  0  0  0  0  0  0  0  0  0  0
  152.1902  144.5784  157.9296 H   0  0  0  0  0  0  0  0  0  0  0  0
  150.3849  142.3809  158.9598 H   0  0  0  0  0  0  0  0  0  0  0  0
  150.1150  142.8312  156.5433 H   0  0  0  0  0  0  0  0  0  0  0  0
  151.8381  142.5972  156.2759 H   0  0  0  0  0  0  0  0  0  0  0  0
  1  2  1  0  0  0  0
  1 21  1  0  0  0  0
  1 22  1  0  0  0  0
  1 23  1  0  0  0  0
  2 20  1  0  0  0  0
  2  3  2  0  0  0  0
  3  4  1  0  0  0  0
  4  5  2  0  0  0  0
  5  6  1  0  0  0  0
  5 20  1  0  0  0  0
  6  7  1  0  0  0  0
  6 24  1  0  0  0  0
  7  8  2  0  0  0  0
  7  9  1  0  0  0  0
  9 10  1  0  0  0  0
  9 25  1  0  0  0  0
 10 11  1  0  0  0  0
 10 26  1  0  0  0  0
 10 27  1  0  0  0  0
 11 19  1  0  0  0  0
 11 12  1  0  0  0  0
 11 28  1  0  0  0  0
 12 13  1  0  0  0  0
 12 29  1  0  0  0  0
 12 30  1  0  0  0  0
 13 17  1  0  0  0  0
 13 14  1  0  0  0  0
 14 15  1  0  0  0  0
 14 31  1  0  0  0  0
 14 32  1  0  0  0  0
 15 16  1  0  0  0  0
 15 33  1  0  0  0  0
 15 34  1  0  0  0  0
 16 17  1  0  0  0  0
 16 35  1  0  0  0  0
 16 36  1  0  0  0  0
 17 18  1  0  0  0  0
 17 37  1  0  0  0  0
 18 19  1  0  0  0  0
 18 38  1  0  0  0  0
 18 39  1  0  0  0  0
M  END
> <s_m_source_file>
AV-unprocessed.smi

> <i_m_source_file_index>
1809

> <i_lp_mmshare_version>
43012

> <i_f3d_flags>
0

> <s_epik_input>
W0NIM11jMW5uYyhzMSlbTkhdQyg9TylbTkhdW0NIMl1bQ0BIXShbQ0gyXTIpT1tDSDJdW0NAQEhdKE4yMylbQ0gyXVtDSDJdW0NIMl0z

> <s_epik_cmdline>
J2VwaWtfcHl0aG9uJywgJy1waCcsICc3LjAnLCAnLXRuJywgJzgnLCAnLW1hJywgJzIwMCcsICctbWV0YWxfYmluZGluZycsICctaW1hZScsICc8aW5maWxlLm1hZT4nLCAnLW9tYWUnLCAnPG91dGZpbGUubWFlPic=

> <r_lp_tautomer_probability>
1

> <r_epik_Ionization_Penalty>
1.05954

> <r_epik_Ionization_Penalty_Charging>
0

> <r_epik_Ionization_Penalty_Neutral>
1.05954

> <r_epik_State_Penalty>
1.4238

> <r_epik_Charging_Adjusted_Penalty>
1.4238

> <i_epik_Tot_Q>
0

> <i_epik_Tot_abs_Q>
0

> <r_epik_Metal_State_Penalty>
1.7901

> <b_epik_Metal_Only>
0

> <s_lp_Force_Field>
OPLS_2005

> <r_lp_Energy>
46.8482

> <b_lp_Chiralities_Consistent>
1

> <s_lp_Variant>
AV-unprocessed.smi:1809-9

> <Gold.Version>
5.8.1

> <Gold.Id.Protein>
6NUR|6NUR_protein|mol2

> <Gold.PLP.Fitness>
44.5649

> <Gold.PLP.PLP>
-37.6736

> <Gold.PLP.part.hbond>
-3.0000

> <Gold.PLP.part.metal>
0.0000

> <Gold.PLP.part.buried>
-6.1746

> <Gold.PLP.part.nonpolar>
-29.2358

> <Gold.PLP.part.repulsive>
0.2991

> <Gold.PLP.ligand.clash>
0.0000

> <Gold.PLP.ligand.torsion>
0.7675

> <Gold.PLP.Chemscore.Hbond>
2.8080

> <Gold.PLP.Chemscore.CHOScore>
0.0000

> <Gold.PLP.Chemscore.Metal>
0.0000

> <Gold.Chemscore.Hbonds>
donor molecule, donor type, donor heavy atom, donor atom, acceptor molecule, acceptor atom, score
      P1  H  6896  6909       L1     8  1.00
      P1  H  6931  6943       L1     4  0.80
      P1  H  6934  6947       L1     4  0.96

> <Gold.PLP.Chemscore.Internal.Correction>
0.0023

> <Gold.Rescore>
     Score         DG    S(hbond)    S(metal)    S(lipo)     H(rot)  DE(clash)    DE(int)     intcor
     20.02     -20.91       2.53        0.00      88.51       1.32       0.01       0.88       ----

> <Gold.Chemscore.Fitness>
20.0187

> <Gold.Chemscore.DG>
-20.9096

> <Gold.Chemscore.ZeroCoef>
-5.4800

> <Gold.Chemscore.Hbond>
2.5307

> <Gold.Chemscore.Metal>
0.0000

> <Gold.Chemscore.Lipo>
88.5073

> <Gold.Chemscore.Internal_Hbond>
0.0000

> <Gold.Chemscore.DEClash>
0.0121

> <Gold.Chemscore.DEInternal>
0.8787

> <Gold.Chemscore.Rot>
1.3196

> <Gold.Chemscore.Internal.Correction>
   9.000000E+99

> <Gold.Chemscore.Hbonds>
donor molecule, donor type, donor heavy atom, donor atom, acceptor molecule, acceptor atom, score
      P1  H  6896  6909       L1     8  0.99
      P1  H  6931  6943       L1     4  0.19
      P1  H  6934  6947       L1     4  0.65

> <Gold.Chemscore.Hbond.Weighted>
-8.4525

> <Gold.Chemscore.Metal.Weighted>
-0.0000

> <Gold.Chemscore.Lipo.Weighted>
-10.3554

> <Gold.Chemscore.Internal_Hbond.Weighted>
0.0000

> <Gold.Chemscore.DEClash.Weighted>
0.0121

> <Gold.Chemscore.DEInternal.Weighted>
0.8787

> <Gold.Chemscore.Rot.Weighted>
3.3783

> <Gold.Chemscore.Internal.Correction.Weighted>
   9.000000E+99

> <Gold.Protein.RotatedTorsions>
[ 6907 6896 6895 6894 ] final  110.07 input  -60.11 | X-H torsion
[ 7974 7965 7964 7962 ] final -162.69 input  175.53 | X-H torsion
[ 8008 7997 7996 7995 ] final  -79.80 input   59.86 | X-H torsion
[ 10167 10162 10161 10158 ] final  -87.22 input  -65.29 | X-H torsion
[ 10718 10713 10712 10709 ] final -144.59 input   66.30 | X-H torsion
[ 10763 10752 10751 10750 ] final  157.45 input  -60.55 | X-H torsion
[ 11005 11000 10999 10996 ] final   50.18 input  -57.11 | X-H torsion

> <Gold.Protein.ActiveResidues>
 VAL166  LYS551  ARG553  GLY616  TRP617  ASP618  TYR619  PRO620  LYS621  CYS622 
 ASP623  PHE694  ASN695  SER759  ASP760  ASP761  ALA762  ILE779  LEU786  VAL792 
 PHE793  MET794  SER795  GLU796  ALA797  LYS798  CYS799  TRP800  GLU811  SER814 

> <Gold.Protein.RotatedAtoms>
  152.5037  133.8852  159.7366 H   0  0  0  0  0  0  0  0  0  0  0  0  # atno 6907 bound_to 6896
  150.9305  133.6764  159.2818 H   0  0  0  0  0  0  0  0  0  0  0  0  # atno 6908 bound_to 6896
  151.4110  135.0989  159.9637 H   0  0  0  0  0  0  0  0  0  0  0  0  # atno 6909 bound_to 6896
  144.7349  140.3215  143.6170 H   0  0  0  0  0  0  0  0  0  0  0  0  # atno 7974 bound_to 7965
  154.5821  140.0672  156.9118 H   0  0  0  0  0  0  0  0  0  0  0  0  # atno 8008 bound_to 7997
  155.2445  140.3347  155.4270 H   0  0  0  0  0  0  0  0  0  0  0  0  # atno 8009 bound_to 7997
  156.2196  140.1793  156.7492 H   0  0  0  0  0  0  0  0  0  0  0  0  # atno 8010 bound_to 7997
  140.3865  143.2724  151.9318 H   0  0  0  0  0  0  0  0  0  0  0  0  # atno 10167 bound_to 10162
  156.3719  130.7792  151.1974 H   0  0  0  0  0  0  0  0  0  0  0  0  # atno 10718 bound_to 10713
  154.2004  135.2790  155.2992 H   0  0  0  0  0  0  0  0  0  0  0  0  # atno 10763 bound_to 10752
  154.5859  135.5575  153.7233 H   0  0  0  0  0  0  0  0  0  0  0  0  # atno 10764 bound_to 10752
  153.0089  135.6356  154.2142 H   0  0  0  0  0  0  0  0  0  0  0  0  # atno 10765 bound_to 10752
  140.1039  134.5044  155.8737 H   0  0  0  0  0  0  0  0  0  0  0  0  # atno 11005 bound_to 11000
  145.7563  139.1810  143.2292 LP  0  0  0  0  0  0  0  0  0  0  0  0  # atno 17320 bound_to 7965
  146.1021  140.7531  142.9544 LP  0  0  0  0  0  0  0  0  0  0  0  0  # atno 17321 bound_to 7965
  139.4791  144.5768  151.7998 LP  0  0  0  0  0  0  0  0  0  0  0  0  # atno 17342 bound_to 10162
  140.4883  144.1348  150.5945 LP  0  0  0  0  0  0  0  0  0  0  0  0  # atno 17343 bound_to 10162
  157.7484  131.0369  150.4433 LP  0  0  0  0  0  0  0  0  0  0  0  0  # atno 17370 bound_to 10713
  156.4662  130.4042  149.6546 LP  0  0  0  0  0  0  0  0  0  0  0  0  # atno 17371 bound_to 10713
  141.2113  133.6705  156.6573 LP  0  0  0  0  0  0  0  0  0  0  0  0  # atno 17394 bound_to 11000
  140.3182  134.8030  157.4231 LP  0  0  0  0  0  0  0  0  0  0  0  0  # atno 17395 bound_to 11000

$$$$
