AV-unprocessed.smi:2217|AV-procd|sdf|8974|dock2
  -GOLD-   2272012183D 1   1.00000     0.00000
 Structure written by MMmdl.
 45 48  0  0  0  0  0  0  0  0  1 V2000
  138.9225  138.8333  153.7395 C   0  0  0  0  0  0  0  0  0  0  0  0
  139.9239  137.6982  153.6959 C   0  0  0  0  0  0  0  0  0  0  0  0
  141.2731  137.9270  153.3659 C   0  0  0  0  0  0  0  0  0  0  0  0
  142.1599  136.8333  153.3383 C   0  0  0  0  0  0  0  0  0  0  0  0
  141.6828  135.5381  153.6417 C   0  0  0  0  0  0  0  0  0  0  0  0
  142.6714  134.5119  153.5706 N   0  0  0  0  0  0  0  0  0  0  0  0
  143.8724  134.4724  152.9544 C   0  0  0  0  0  0  0  0  0  0  0  0
  144.2929  135.4341  152.3136 O   0  0  0  0  0  0  0  0  0  0  0  0
  144.5668  133.3330  153.0883 N   0  0  0  0  0  0  0  0  0  0  0  0
  145.8729  133.0605  152.4820 C   0  0  2  0  0  0  0  0  0  0  0  0
  145.9786  131.6760  151.8356 C   0  0  2  0  0  0  0  0  0  0  0  0
  145.0141  130.6679  151.3230 C   0  0  0  0  0  0  0  0  0  0  0  0
  145.7135  129.4115  151.9058 C   0  0  0  0  0  0  0  0  0  0  0  0
  146.7460  129.9068  152.7957 O   0  0  0  0  0  0  0  0  0  0  0  0
  146.2541  131.1591  153.2326 C   0  0  1  0  0  0  0  0  0  0  0  0
  146.9536  132.5147  153.4935 C   0  0  0  0  0  0  0  0  0  0  0  0
  148.4391  132.6221  153.0931 C   0  0  0  0  0  0  0  0  0  0  0  0
  149.1921  133.3222  154.2249 C   0  0  0  0  0  0  0  0  0  0  0  0
  148.3498  133.0494  155.4620 C   0  0  0  0  0  0  0  0  0  0  0  0
  146.9189  133.0506  154.9312 C   0  0  0  0  0  0  0  0  0  0  0  0
  140.3779  135.3303  153.9544 N   0  0  0  0  0  0  0  0  0  0  0  0
  139.5277  136.3778  153.9811 C   0  0  0  0  0  0  0  0  0  0  0  0
  139.4207  139.8021  153.6894 H   0  0  0  0  0  0  0  0  0  0  0  0
  138.3453  138.7957  154.6638 H   0  0  0  0  0  0  0  0  0  0  0  0
  138.2318  138.7591  152.8993 H   0  0  0  0  0  0  0  0  0  0  0  0
  141.6270  138.9214  153.1363 H   0  0  0  0  0  0  0  0  0  0  0  0
  143.1983  136.9930  153.0860 H   0  0  0  0  0  0  0  0  0  0  0  0
  142.4508  133.6849  154.1059 H   0  0  0  0  0  0  0  0  0  0  0  0
  144.1512  132.5904  153.6332 H   0  0  0  0  0  0  0  0  0  0  0  0
  146.2431  133.8694  151.8500 H   0  0  0  0  0  0  0  0  0  0  0  0
  146.8742  131.6632  151.2061 H   0  0  0  0  0  0  0  0  0  0  0  0
  144.0137  130.8056  151.7353 H   0  0  0  0  0  0  0  0  0  0  0  0
  144.9556  130.6509  150.2346 H   0  0  0  0  0  0  0  0  0  0  0  0
  145.0027  128.7929  152.4552 H   0  0  0  0  0  0  0  0  0  0  0  0
  146.1655  128.7973  151.1264 H   0  0  0  0  0  0  0  0  0  0  0  0
  145.3592  131.0220  153.8487 H   0  0  0  0  0  0  0  0  0  0  0  0
  148.8614  131.6267  152.9488 H   0  0  0  0  0  0  0  0  0  0  0  0
  148.5779  133.1578  152.1534 H   0  0  0  0  0  0  0  0  0  0  0  0
  150.2201  132.9735  154.3280 H   0  0  0  0  0  0  0  0  0  0  0  0
  149.2214  134.3959  154.0340 H   0  0  0  0  0  0  0  0  0  0  0  0
  148.5929  132.0645  155.8628 H   0  0  0  0  0  0  0  0  0  0  0  0
  148.5085  133.7829  156.2530 H   0  0  0  0  0  0  0  0  0  0  0  0
  146.5409  134.0737  154.9382 H   0  0  0  0  0  0  0  0  0  0  0  0
  146.2604  132.4692  155.5776 H   0  0  0  0  0  0  0  0  0  0  0  0
  138.5027  136.1530  154.2368 H   0  0  0  0  0  0  0  0  0  0  0  0
  1  2  1  0  0  0  0
  1 23  1  0  0  0  0
  1 24  1  0  0  0  0
  1 25  1  0  0  0  0
  2 22  1  0  0  0  0
  2  3  2  0  0  0  0
  3  4  1  0  0  0  0
  3 26  1  0  0  0  0
  4  5  2  0  0  0  0
  4 27  1  0  0  0  0
  5  6  1  0  0  0  0
  5 21  1  0  0  0  0
  6  7  1  0  0  0  0
  6 28  1  0  0  0  0
  7  8  2  0  0  0  0
  7  9  1  0  0  0  0
  9 10  1  0  0  0  0
  9 29  1  0  0  0  0
 10 16  1  0  0  0  0
 10 11  1  0  0  0  0
 10 30  1  0  0  0  0
 11 15  1  0  0  0  0
 11 12  1  0  0  0  0
 11 31  1  0  0  0  0
 12 13  1  0  0  0  0
 12 32  1  0  0  0  0
 12 33  1  0  0  0  0
 13 14  1  0  0  0  0
 13 34  1  0  0  0  0
 13 35  1  0  0  0  0
 14 15  1  0  0  0  0
 15 16  1  0  0  0  0
 15 36  1  0  0  0  0
 16 20  1  0  0  0  0
 16 17  1  0  0  0  0
 17 18  1  0  0  0  0
 17 37  1  0  0  0  0
 17 38  1  0  0  0  0
 18 19  1  0  0  0  0
 18 39  1  0  0  0  0
 18 40  1  0  0  0  0
 19 20  1  0  0  0  0
 19 41  1  0  0  0  0
 19 42  1  0  0  0  0
 20 43  1  0  0  0  0
 20 44  1  0  0  0  0
 21 22  2  0  0  0  0
 22 45  1  0  0  0  0
M  END
> <s_m_source_file>
AV-unprocessed.smi

> <i_m_source_file_index>
2217

> <i_lp_mmshare_version>
43012

> <i_f3d_flags>
0

> <s_epik_input>
W0NIM11jMVtjSF1bY0hdYyhuW2NIXTEpW05IXUMoPU8pW05IXVtDQEBIXTJbQ0BASF0oW0NIMl1bQ0gyXU8zKVtDQEhdM0MyNFtDSDJdW0NIMl1bQ0gyXVtDSDJdNA==

> <s_epik_cmdline>
J2VwaWtfcHl0aG9uJywgJy1waCcsICc3LjAnLCAnLXRuJywgJzgnLCAnLW1hJywgJzIwMCcsICctbWV0YWxfYmluZGluZycsICctaW1hZScsICc8aW5maWxlLm1hZT4nLCAnLW9tYWUnLCAnPG91dGZpbGUubWFlPic=

> <r_lp_tautomer_probability>
1

> <r_epik_Ionization_Penalty>
6.14796e-05

> <r_epik_Ionization_Penalty_Charging>
0

> <r_epik_Ionization_Penalty_Neutral>
6.14796e-05

> <r_epik_State_Penalty>
-0

> <r_epik_Charging_Adjusted_Penalty>
0

> <i_epik_Tot_Q>
0

> <i_epik_Tot_abs_Q>
0

> <r_epik_Metal_State_Penalty>
-0

> <b_epik_Metal_Only>
0

> <s_lp_Force_Field>
OPLS_2005

> <r_lp_Energy>
82.2768

> <b_lp_Chiralities_Consistent>
1

> <s_lp_Variant>
AV-unprocessed.smi:2217-7

> <Gold.Version>
5.8.1

> <Gold.Id.Protein>
6NUR|6NUR_protein|mol2

> <Gold.PLP.Fitness>
49.1006

> <Gold.PLP.PLP>
-40.6291

> <Gold.PLP.part.hbond>
-3.8972

> <Gold.PLP.part.metal>
0.0000

> <Gold.PLP.part.buried>
-8.7355

> <Gold.PLP.part.nonpolar>
-30.8439

> <Gold.PLP.part.repulsive>
0.4472

> <Gold.PLP.ligand.clash>
0.0324

> <Gold.PLP.ligand.torsion>
0.2238

> <Gold.PLP.Chemscore.Hbond>
2.8925

> <Gold.PLP.Chemscore.CHOScore>
0.0000

> <Gold.PLP.Chemscore.Metal>
0.0000

> <Gold.Chemscore.Hbonds>
donor molecule, donor type, donor heavy atom, donor atom, acceptor molecule, acceptor atom, score
      L1  H     6    28       P1 10957  0.98
      L1  H     9    29       P1 10957  0.98
      P1  H 11000 11005       L1    21  1.00

> <Gold.PLP.Chemscore.Internal.Correction>
0.2739

> <Gold.Rescore>
     Score         DG    S(hbond)    S(metal)    S(lipo)     H(rot)  DE(clash)    DE(int)     intcor
     19.66     -21.33       2.35        0.00      90.18       1.00       0.00       1.67       ----

> <Gold.Chemscore.Fitness>
19.6578

> <Gold.Chemscore.DG>
-21.3267

> <Gold.Chemscore.ZeroCoef>
-5.4800

> <Gold.Chemscore.Hbond>
2.3519

> <Gold.Chemscore.Metal>
0.0000

> <Gold.Chemscore.Lipo>
90.1828

> <Gold.Chemscore.Internal_Hbond>
0.0000

> <Gold.Chemscore.DEClash>
0.0000

> <Gold.Chemscore.DEInternal>
1.6689

> <Gold.Chemscore.Rot>
1.0000

> <Gold.Chemscore.Internal.Correction>
   9.000000E+99

> <Gold.Chemscore.Hbonds>
donor molecule, donor type, donor heavy atom, donor atom, acceptor molecule, acceptor atom, score
      L1  H     6    28       P1 10957  0.92
      L1  H     9    29       P1 10957  0.40
      P1  H 11000 11005       L1    21  0.42

> <Gold.Chemscore.Hbond.Weighted>
-7.8553

> <Gold.Chemscore.Metal.Weighted>
-0.0000

> <Gold.Chemscore.Lipo.Weighted>
-10.5514

> <Gold.Chemscore.Internal_Hbond.Weighted>
0.0000

> <Gold.Chemscore.DEClash.Weighted>
0.0000

> <Gold.Chemscore.DEInternal.Weighted>
1.6689

> <Gold.Chemscore.Rot.Weighted>
2.5600

> <Gold.Chemscore.Internal.Correction.Weighted>
   9.000000E+99

> <Gold.Protein.RotatedTorsions>
[ 6907 6896 6895 6894 ] final -103.62 input  -60.11 | X-H torsion
[ 7974 7965 7964 7962 ] final   39.51 input  175.53 | X-H torsion
[ 8008 7997 7996 7995 ] final  105.12 input   59.86 | X-H torsion
[ 10167 10162 10161 10158 ] final  149.17 input  -65.29 | X-H torsion
[ 10718 10713 10712 10709 ] final    2.59 input   66.30 | X-H torsion
[ 10763 10752 10751 10750 ] final   82.11 input  -60.55 | X-H torsion
[ 11005 11000 10999 10996 ] final   38.28 input  -57.11 | X-H torsion

> <Gold.Protein.ActiveResidues>
 VAL166  LYS551  ARG553  GLY616  TRP617  ASP618  TYR619  PRO620  LYS621  CYS622 
 ASP623  PHE694  ASN695  SER759  ASP760  ASP761  ALA762  ILE779  LEU786  VAL792 
 PHE793  MET794  SER795  GLU796  ALA797  LYS798  CYS799  TRP800  GLU811  SER814 

> <Gold.Protein.RotatedAtoms>
  150.7249  134.0401  159.3762 H   0  0  0  0  0  0  0  0  0  0  0  0  # atno 6907 bound_to 6896
  151.8374  135.0599  160.0453 H   0  0  0  0  0  0  0  0  0  0  0  0  # atno 6908 bound_to 6896
  152.2888  133.5505  159.5580 H   0  0  0  0  0  0  0  0  0  0  0  0  # atno 6909 bound_to 6896
  146.0978  139.5643  142.9434 H   0  0  0  0  0  0  0  0  0  0  0  0  # atno 7974 bound_to 7965
  156.1632  140.3136  155.8843 H   0  0  0  0  0  0  0  0  0  0  0  0  # atno 8008 bound_to 7997
  155.3740  140.0483  157.3062 H   0  0  0  0  0  0  0  0  0  0  0  0  # atno 8009 bound_to 7997
  154.5166  140.2183  155.9064 H   0  0  0  0  0  0  0  0  0  0  0  0  # atno 8010 bound_to 7997
  139.4865  144.5623  151.7209 H   0  0  0  0  0  0  0  0  0  0  0  0  # atno 10167 bound_to 10162
  156.8653  130.5601  149.5660 H   0  0  0  0  0  0  0  0  0  0  0  0  # atno 10718 bound_to 10713
  153.1174  135.4740  154.9139 H   0  0  0  0  0  0  0  0  0  0  0  0  # atno 10763 bound_to 10752
  154.7542  135.3114  154.8503 H   0  0  0  0  0  0  0  0  0  0  0  0  # atno 10764 bound_to 10752
  153.9076  135.6868  153.4806 H   0  0  0  0  0  0  0  0  0  0  0  0  # atno 10765 bound_to 10752
  140.2142  134.3719  155.8035 H   0  0  0  0  0  0  0  0  0  0  0  0  # atno 11005 bound_to 11000
  145.5913  141.0369  143.2068 LP  0  0  0  0  0  0  0  0  0  0  0  0  # atno 17320 bound_to 7965
  144.7409  139.7452  143.7311 LP  0  0  0  0  0  0  0  0  0  0  0  0  # atno 17321 bound_to 7965
  140.5195  144.0901  150.6018 LP  0  0  0  0  0  0  0  0  0  0  0  0  # atno 17342 bound_to 10162
  140.3854  143.2780  152.0122 LP  0  0  0  0  0  0  0  0  0  0  0  0  # atno 17343 bound_to 10162
  156.0755  130.5778  150.9465 LP  0  0  0  0  0  0  0  0  0  0  0  0  # atno 17370 bound_to 10713
  157.6227  131.0928  150.8593 LP  0  0  0  0  0  0  0  0  0  0  0  0  # atno 17371 bound_to 10713
  141.2225  133.7159  156.8468 LP  0  0  0  0  0  0  0  0  0  0  0  0  # atno 17394 bound_to 11000
  140.1919  134.8960  157.3070 LP  0  0  0  0  0  0  0  0  0  0  0  0  # atno 17395 bound_to 11000

$$$$
