AV-unprocessed.smi:2626|AV-procd|sdf|10236|dock2
  -GOLD-   2272014243D 1   1.00000     0.00000
 Structure written by MMmdl.
 27 28  0  0  0  0  0  0  0  0  1 V2000
  151.8587  145.1882  159.0183 C   0  0  0  0  0  0  0  0  0  0  0  0
  152.0852  143.6966  158.8842 C   0  0  0  0  0  0  0  0  0  0  0  0
  152.8147  142.9956  159.7866 C   0  0  0  0  0  0  0  0  0  0  0  0
  153.0089  141.5543  159.6213 C   0  0  0  0  0  0  0  0  0  0  0  0
  153.6562  140.8532  160.3954 O   0  0  0  0  0  0  0  0  0  0  0  0
  152.4099  141.0302  158.5269 N   0  0  0  0  0  0  0  0  0  0  0  0
  151.6640  141.7865  157.6164 C   0  0  0  0  0  0  0  0  0  0  0  0
  151.1527  141.0205  156.5811 N   0  0  0  0  0  0  0  0  0  0  0  0
  150.1656  141.6345  155.6997 C   0  0  0  0  0  0  0  0  0  0  0  0
  149.4471  140.5707  154.8524 C   0  0  0  0  0  0  0  0  0  0  0  0
  150.4063  139.8134  154.1245 O   0  0  0  0  0  0  0  0  0  0  0  0
  151.3067  139.1359  154.9928 C   0  0  0  0  0  0  0  0  0  0  0  0
  152.0736  140.1630  155.8429 C   0  0  0  0  0  0  0  0  0  0  0  0
  151.5031  143.0633  157.7781 N   0  0  0  0  0  0  0  0  0  0  0  0
  152.5118  140.0392  158.3645 H   0  0  0  0  0  0  0  0  0  0  0  0
  152.3490  145.5880  159.9066 H   0  0  0  0  0  0  0  0  0  0  0  0
  150.7924  145.4029  159.0930 H   0  0  0  0  0  0  0  0  0  0  0  0
  152.2546  145.7103  158.1470 H   0  0  0  0  0  0  0  0  0  0  0  0
  153.2580  143.4955  160.6354 H   0  0  0  0  0  0  0  0  0  0  0  0
  149.4347  142.1914  156.2880 H   0  0  0  0  0  0  0  0  0  0  0  0
  150.6653  142.3536  155.0488 H   0  0  0  0  0  0  0  0  0  0  0  0
  148.8478  139.9116  155.4824 H   0  0  0  0  0  0  0  0  0  0  0  0
  148.7639  141.0487  154.1503 H   0  0  0  0  0  0  0  0  0  0  0  0
  150.7610  138.4356  155.6273 H   0  0  0  0  0  0  0  0  0  0  0  0
  152.0033  138.5482  154.3950 H   0  0  0  0  0  0  0  0  0  0  0  0
  152.7030  140.7817  155.2014 H   0  0  0  0  0  0  0  0  0  0  0  0
  152.7374  139.6443  156.5362 H   0  0  0  0  0  0  0  0  0  0  0  0
  1  2  1  0  0  0  0
  1 16  1  0  0  0  0
  1 17  1  0  0  0  0
  1 18  1  0  0  0  0
  2 14  1  0  0  0  0
  2  3  2  0  0  0  0
  3  4  1  0  0  0  0
  3 19  1  0  0  0  0
  4  5  2  0  0  0  0
  4  6  1  0  0  0  0
  6 15  1  0  0  0  0
  6  7  1  0  0  0  0
  7  8  1  0  0  0  0
  7 14  2  0  0  0  0
  8 13  1  0  0  0  0
  8  9  1  0  0  0  0
  9 10  1  0  0  0  0
  9 20  1  0  0  0  0
  9 21  1  0  0  0  0
 10 11  1  0  0  0  0
 10 22  1  0  0  0  0
 10 23  1  0  0  0  0
 11 12  1  0  0  0  0
 12 13  1  0  0  0  0
 12 24  1  0  0  0  0
 12 25  1  0  0  0  0
 13 26  1  0  0  0  0
 13 27  1  0  0  0  0
M  END
> <s_m_source_file>
AV-unprocessed.smi

> <i_m_source_file_index>
2626

> <i_lp_mmshare_version>
43012

> <i_f3d_flags>
0

> <s_epik_input>
W0NIM11jMVtjSF1jKD1PKVtuSF1jKG4xKU4yW0NIMl1bQ0gyXU9bQ0gyXVtDSDJdMg==

> <s_epik_cmdline>
J2VwaWtfcHl0aG9uJywgJy1waCcsICc3LjAnLCAnLXRuJywgJzgnLCAnLW1hJywgJzIwMCcsICctbWV0YWxfYmluZGluZycsICctaW1hZScsICc8aW5maWxlLm1hZT4nLCAnLW9tYWUnLCAnPG91dGZpbGUubWFlPic=

> <r_lp_tautomer_probability>
0.878553

> <r_epik_Ionization_Penalty>
0.00137266

> <r_epik_Ionization_Penalty_Charging>
0.00134941

> <r_epik_Ionization_Penalty_Neutral>
2.32458e-05

> <r_epik_State_Penalty>
0.0440188

> <r_epik_Charging_Adjusted_Penalty>
0.0453682

> <i_epik_Tot_Q>
0

> <i_epik_Tot_abs_Q>
0

> <r_epik_Metal_State_Penalty>
1.05362

> <b_epik_Metal_Only>
0

> <s_lp_Force_Field>
OPLS_2005

> <r_lp_Energy>
23.8409

> <b_lp_Chiralities_Consistent>
1

> <s_lp_Variant>
AV-unprocessed.smi:2626-1

> <Gold.Version>
5.8.1

> <Gold.Id.Protein>
6NUR|6NUR_protein|mol2

> <Gold.PLP.Fitness>
34.7715

> <Gold.PLP.PLP>
-31.7742

> <Gold.PLP.part.hbond>
-1.0000

> <Gold.PLP.part.metal>
0.0000

> <Gold.PLP.part.buried>
-4.4687

> <Gold.PLP.part.nonpolar>
-25.6074

> <Gold.PLP.part.repulsive>
0.7565

> <Gold.PLP.ligand.clash>
0.0000

> <Gold.PLP.ligand.torsion>
0.1730

> <Gold.PLP.Chemscore.Hbond>
1.0000

> <Gold.PLP.Chemscore.CHOScore>
0.0000

> <Gold.PLP.Chemscore.Metal>
0.0000

> <Gold.Chemscore.Hbonds>
donor molecule, donor type, donor heavy atom, donor atom, acceptor molecule, acceptor atom, score
      P1  H  7989  7998       L1    11  0.70

> <Gold.PLP.Chemscore.Internal.Correction>
0.3433

> <Gold.Rescore>
     Score         DG    S(hbond)    S(metal)    S(lipo)     H(rot)  DE(clash)    DE(int)     intcor
     12.33     -12.75       0.67        0.00      64.96       1.00       0.23       0.19       ----

> <Gold.Chemscore.Fitness>
12.3321

> <Gold.Chemscore.DG>
-12.7539

> <Gold.Chemscore.ZeroCoef>
-5.4800

> <Gold.Chemscore.Hbond>
0.6688

> <Gold.Chemscore.Metal>
0.0000

> <Gold.Chemscore.Lipo>
64.9589

> <Gold.Chemscore.Internal_Hbond>
0.0000

> <Gold.Chemscore.DEClash>
0.2317

> <Gold.Chemscore.DEInternal>
0.1902

> <Gold.Chemscore.Rot>
1.0000

> <Gold.Chemscore.Internal.Correction>
   9.000000E+99

> <Gold.Chemscore.Hbonds>
donor molecule, donor type, donor heavy atom, donor atom, acceptor molecule, acceptor atom, score
      P1  H  7989  7998       L1    11  0.05

> <Gold.Chemscore.Hbond.Weighted>
-2.2337

> <Gold.Chemscore.Metal.Weighted>
-0.0000

> <Gold.Chemscore.Lipo.Weighted>
-7.6002

> <Gold.Chemscore.Internal_Hbond.Weighted>
0.0000

> <Gold.Chemscore.DEClash.Weighted>
0.2317

> <Gold.Chemscore.DEInternal.Weighted>
0.1902

> <Gold.Chemscore.Rot.Weighted>
2.5600

> <Gold.Chemscore.Internal.Correction.Weighted>
   9.000000E+99

> <Gold.Protein.RotatedTorsions>
[ 6907 6896 6895 6894 ] final  -98.01 input  -60.11 | X-H torsion
[ 7974 7965 7964 7962 ] final  179.97 input  175.53 | X-H torsion
[ 8008 7997 7996 7995 ] final  -84.49 input   59.86 | X-H torsion
[ 10167 10162 10161 10158 ] final  121.12 input  -65.29 | X-H torsion
[ 10718 10713 10712 10709 ] final   44.45 input   66.30 | X-H torsion
[ 10763 10752 10751 10750 ] final  -47.11 input  -60.55 | X-H torsion
[ 11005 11000 10999 10996 ] final   68.16 input  -57.11 | X-H torsion

> <Gold.Protein.ActiveResidues>
 VAL166  LYS551  ARG553  GLY616  TRP617  ASP618  TYR619  PRO620  LYS621  CYS622 
 ASP623  PHE694  ASN695  SER759  ASP760  ASP761  ALA762  ILE779  LEU786  VAL792 
 PHE793  MET794  SER795  GLU796  ALA797  LYS798  CYS799  TRP800  GLU811  SER814 

> <Gold.Protein.RotatedAtoms>
  150.7033  134.1260  159.4051 H   0  0  0  0  0  0  0  0  0  0  0  0  # atno 6907 bound_to 6896
  151.9246  135.0281  160.0534 H   0  0  0  0  0  0  0  0  0  0  0  0  # atno 6908 bound_to 6896
  152.2227  133.4961  159.5208 H   0  0  0  0  0  0  0  0  0  0  0  0  # atno 6909 bound_to 6896
  144.7141  140.0628  143.6432 H   0  0  0  0  0  0  0  0  0  0  0  0  # atno 7974 bound_to 7965
  154.6304  140.0604  156.9725 H   0  0  0  0  0  0  0  0  0  0  0  0  # atno 8008 bound_to 7997
  155.1675  140.3288  155.4381 H   0  0  0  0  0  0  0  0  0  0  0  0  # atno 8009 bound_to 7997
  156.2480  140.1920  156.6779 H   0  0  0  0  0  0  0  0  0  0  0  0  # atno 8010 bound_to 7997
  139.5939  144.7035  151.3223 H   0  0  0  0  0  0  0  0  0  0  0  0  # atno 10167 bound_to 10162
  157.4269  130.8002  149.7567 H   0  0  0  0  0  0  0  0  0  0  0  0  # atno 10718 bound_to 10713
  154.0560  135.6624  153.4806 H   0  0  0  0  0  0  0  0  0  0  0  0  # atno 10763 bound_to 10752
  153.0445  135.5123  154.7705 H   0  0  0  0  0  0  0  0  0  0  0  0  # atno 10764 bound_to 10752
  154.6727  135.3032  154.9687 H   0  0  0  0  0  0  0  0  0  0  0  0  # atno 10765 bound_to 10752
  139.9728  134.6873  156.0414 H   0  0  0  0  0  0  0  0  0  0  0  0  # atno 11005 bound_to 11000
  145.9849  139.2970  143.1019 LP  0  0  0  0  0  0  0  0  0  0  0  0  # atno 17320 bound_to 7965
  145.8969  140.9268  143.0523 LP  0  0  0  0  0  0  0  0  0  0  0  0  # atno 17321 bound_to 7965
  140.7196  143.7172  150.7723 LP  0  0  0  0  0  0  0  0  0  0  0  0  # atno 17342 bound_to 10162
  140.0734  143.5039  152.2568 LP  0  0  0  0  0  0  0  0  0  0  0  0  # atno 17343 bound_to 10162
  155.9900  130.3948  150.3049 LP  0  0  0  0  0  0  0  0  0  0  0  0  # atno 17370 bound_to 10713
  157.1202  131.0245  151.3012 LP  0  0  0  0  0  0  0  0  0  0  0  0  # atno 17371 bound_to 10713
  141.1406  133.6565  156.3720 LP  0  0  0  0  0  0  0  0  0  0  0  0  # atno 17394 bound_to 11000
  140.5258  134.6260  157.5333 LP  0  0  0  0  0  0  0  0  0  0  0  0  # atno 17395 bound_to 11000

$$$$
