AV-unprocessed.smi:2752|AV-procd|sdf|10607|dock2
  -GOLD-   2272015 63D 1   1.00000     0.00000
 Structure written by MMmdl.
 34 35  0  0  0  0  0  0  0  0  1 V2000
  151.4518  140.4866  158.7944 C   0  0  0  0  0  0  0  0  0  0  0  0
  151.1716  141.8477  159.0784 O   0  0  0  0  0  0  0  0  0  0  0  0
  152.1065  142.7586  158.5062 C   0  0  2  0  0  0  0  0  0  0  0  0
  153.2866  142.9315  159.4688 C   0  0  0  0  0  0  0  0  0  0  0  0
  152.7882  143.9499  160.4901 C   0  0  0  0  0  0  0  0  0  0  0  0
  151.9317  144.9270  159.6803 C   0  0  0  0  0  0  0  0  0  0  0  0
  151.4834  144.1707  158.4140 C   0  0  2  0  0  0  0  0  0  0  0  0
  150.0266  144.1477  158.2979 N   0  0  0  0  0  0  0  0  0  0  0  0
  149.1811  143.9657  159.3221 C   0  0  0  0  0  0  0  0  0  0  0  0
  149.5514  143.7764  160.4812 O   0  0  0  0  0  0  0  0  0  0  0  0
  147.9017  144.0240  158.9127 N   0  0  0  0  0  0  0  0  0  0  0  0
  146.7230  143.8905  159.6936 C   0  0  0  0  0  0  0  0  0  0  0  0
  146.8792  144.1856  161.0673 C   0  0  0  0  0  0  0  0  0  0  0  0
  145.7694  144.0839  161.9288 C   0  0  0  0  0  0  0  0  0  0  0  0
  144.5313  143.6888  161.3917 C   0  0  0  0  0  0  0  0  0  0  0  0
  143.4362  143.5770  162.1804 F   0  0  0  0  0  0  0  0  0  0  0  0
  144.4601  143.4128  160.0139 C   0  0  0  0  0  0  0  0  0  0  0  0
  145.5229  143.5103  159.1873 N   0  0  0  0  0  0  0  0  0  0  0  0
  150.7094  139.8535  159.2798 H   0  0  0  0  0  0  0  0  0  0  0  0
  152.4352  140.1898  159.1591 H   0  0  0  0  0  0  0  0  0  0  0  0
  151.4043  140.2943  157.7219 H   0  0  0  0  0  0  0  0  0  0  0  0
  152.4244  142.4168  157.5195 H   0  0  0  0  0  0  0  0  0  0  0  0
  153.6150  142.0009  159.9313 H   0  0  0  0  0  0  0  0  0  0  0  0
  154.1383  143.3471  158.9287 H   0  0  0  0  0  0  0  0  0  0  0  0
  152.1673  143.4467  161.2326 H   0  0  0  0  0  0  0  0  0  0  0  0
  153.6021  144.4457  161.0197 H   0  0  0  0  0  0  0  0  0  0  0  0
  151.0955  145.2984  160.2745 H   0  0  0  0  0  0  0  0  0  0  0  0
  152.5288  145.7936  159.3938 H   0  0  0  0  0  0  0  0  0  0  0  0
  151.9029  144.6888  157.5493 H   0  0  0  0  0  0  0  0  0  0  0  0
  149.6405  144.3026  157.3784 H   0  0  0  0  0  0  0  0  0  0  0  0
  147.7542  144.1887  157.9281 H   0  0  0  0  0  0  0  0  0  0  0  0
  147.8386  144.4875  161.4618 H   0  0  0  0  0  0  0  0  0  0  0  0
  145.8679  144.3050  162.9812 H   0  0  0  0  0  0  0  0  0  0  0  0
  143.5278  143.1061  159.5632 H   0  0  0  0  0  0  0  0  0  0  0  0
  1  2  1  0  0  0  0
  1 19  1  0  0  0  0
  1 20  1  0  0  0  0
  1 21  1  0  0  0  0
  2  3  1  0  0  0  0
  3  7  1  0  0  0  0
  3  4  1  0  0  0  0
  3 22  1  0  0  0  0
  4  5  1  0  0  0  0
  4 23  1  0  0  0  0
  4 24  1  0  0  0  0
  5  6  1  0  0  0  0
  5 25  1  0  0  0  0
  5 26  1  0  0  0  0
  6  7  1  0  0  0  0
  6 27  1  0  0  0  0
  6 28  1  0  0  0  0
  7  8  1  0  0  0  0
  7 29  1  0  0  0  0
  8  9  1  0  0  0  0
  8 30  1  0  0  0  0
  9 10  2  0  0  0  0
  9 11  1  0  0  0  0
 11 12  1  0  0  0  0
 11 31  1  0  0  0  0
 12 18  1  0  0  0  0
 12 13  2  0  0  0  0
 13 14  1  0  0  0  0
 13 32  1  0  0  0  0
 14 15  2  0  0  0  0
 14 33  1  0  0  0  0
 15 16  1  0  0  0  0
 15 17  1  0  0  0  0
 17 18  2  0  0  0  0
 17 34  1  0  0  0  0
M  END
> <s_m_source_file>
AV-unprocessed.smi

> <i_m_source_file_index>
2752

> <i_lp_mmshare_version>
43012

> <i_f3d_flags>
0

> <s_epik_input>
W0NIM11PW0NAQEhdMVtDSDJdW0NIMl1bQ0gyXVtDQEhdMVtOSF1DKD1PKVtOSF1jMltjSF1bY0hdYyhGKVtjSF1uMg==

> <s_epik_cmdline>
J2VwaWtfcHl0aG9uJywgJy1waCcsICc3LjAnLCAnLXRuJywgJzgnLCAnLW1hJywgJzIwMCcsICctbWV0YWxfYmluZGluZycsICctaW1hZScsICc8aW5maWxlLm1hZT4nLCAnLW9tYWUnLCAnPG91dGZpbGUubWFlPic=

> <r_lp_tautomer_probability>
1

> <r_epik_Ionization_Penalty>
3.49853e-05

> <r_epik_Ionization_Penalty_Charging>
0

> <r_epik_Ionization_Penalty_Neutral>
3.49853e-05

> <r_epik_State_Penalty>
-0

> <r_epik_Charging_Adjusted_Penalty>
0

> <i_epik_Tot_Q>
0

> <i_epik_Tot_abs_Q>
0

> <r_epik_Metal_State_Penalty>
-0

> <b_epik_Metal_Only>
0

> <s_lp_Force_Field>
OPLS_2005

> <r_lp_Energy>
23.7965

> <b_lp_Chiralities_Consistent>
1

> <s_lp_Variant>
AV-unprocessed.smi:2752-3

> <Gold.Version>
5.8.1

> <Gold.Id.Protein>
6NUR|6NUR_protein|mol2

> <Gold.PLP.Fitness>
40.8505

> <Gold.PLP.PLP>
-37.3465

> <Gold.PLP.part.hbond>
-3.9625

> <Gold.PLP.part.metal>
0.0000

> <Gold.PLP.part.buried>
-5.3714

> <Gold.PLP.part.nonpolar>
-27.6159

> <Gold.PLP.part.repulsive>
0.3800

> <Gold.PLP.ligand.clash>
0.0000

> <Gold.PLP.ligand.torsion>
0.6448

> <Gold.PLP.Chemscore.Hbond>
1.5940

> <Gold.PLP.Chemscore.CHOScore>
0.0000

> <Gold.PLP.Chemscore.Metal>
0.0000

> <Gold.Chemscore.Hbonds>
donor molecule, donor type, donor heavy atom, donor atom, acceptor molecule, acceptor atom, score
      L1  H     8    30       P1  8028  0.95
      L1  H    11    31       P1  8029  0.34
      P1  H  6933  6944       L1    10  0.30

> <Gold.PLP.Chemscore.Internal.Correction>
0.0115

> <Gold.Rescore>
     Score         DG    S(hbond)    S(metal)    S(lipo)     H(rot)  DE(clash)    DE(int)     intcor
      9.58     -15.66       1.07        0.00      84.64       1.28       0.02       6.07       ----

> <Gold.Chemscore.Fitness>
9.5754

> <Gold.Chemscore.DG>
-15.6640

> <Gold.Chemscore.ZeroCoef>
-5.4800

> <Gold.Chemscore.Hbond>
1.0669

> <Gold.Chemscore.Metal>
0.0000

> <Gold.Chemscore.Lipo>
84.6391

> <Gold.Chemscore.Internal_Hbond>
0.0000

> <Gold.Chemscore.DEClash>
0.0184

> <Gold.Chemscore.DEInternal>
6.0703

> <Gold.Chemscore.Rot>
1.2821

> <Gold.Chemscore.Internal.Correction>
   9.000000E+99

> <Gold.Chemscore.Hbonds>
donor molecule, donor type, donor heavy atom, donor atom, acceptor molecule, acceptor atom, score
      L1  H     8    30       P1  8028  0.22
      L1  H    11    31       P1  8029  0.06
      P1  H  6933  6944       L1    10  0.27

> <Gold.Chemscore.Hbond.Weighted>
-3.5634

> <Gold.Chemscore.Metal.Weighted>
-0.0000

> <Gold.Chemscore.Lipo.Weighted>
-9.9028

> <Gold.Chemscore.Internal_Hbond.Weighted>
0.0000

> <Gold.Chemscore.DEClash.Weighted>
0.0184

> <Gold.Chemscore.DEInternal.Weighted>
6.0703

> <Gold.Chemscore.Rot.Weighted>
3.2822

> <Gold.Chemscore.Internal.Correction.Weighted>
   9.000000E+99

> <Gold.Protein.RotatedTorsions>
[ 6907 6896 6895 6894 ] final   70.85 input  -60.11 | X-H torsion
[ 7974 7965 7964 7962 ] final -164.12 input  175.53 | X-H torsion
[ 8008 7997 7996 7995 ] final -177.39 input   59.86 | X-H torsion
[ 10167 10162 10161 10158 ] final  -48.95 input  -65.29 | X-H torsion
[ 10718 10713 10712 10709 ] final   -2.45 input   66.30 | X-H torsion
[ 10763 10752 10751 10750 ] final  173.62 input  -60.55 | X-H torsion
[ 11005 11000 10999 10996 ] final   20.61 input  -57.11 | X-H torsion

> <Gold.Protein.ActiveResidues>
 VAL166  LYS551  ARG553  GLY616  TRP617  ASP618  TYR619  PRO620  LYS621  CYS622 
 ASP623  PHE694  ASN695  SER759  ASP760  ASP761  ALA762  ILE779  LEU786  VAL792 
 PHE793  MET794  SER795  GLU796  ALA797  LYS798  CYS799  TRP800  GLU811  SER814 

> <Gold.Protein.RotatedAtoms>
  152.4775  134.4807  159.9664 H   0  0  0  0  0  0  0  0  0  0  0  0  # atno 6907 bound_to 6896
  151.4820  133.3538  159.2847 H   0  0  0  0  0  0  0  0  0  0  0  0  # atno 6908 bound_to 6896
  150.8823  134.8242  159.7295 H   0  0  0  0  0  0  0  0  0  0  0  0  # atno 6909 bound_to 6896
  144.7306  140.3007  143.6205 H   0  0  0  0  0  0  0  0  0  0  0  0  # atno 7974 bound_to 7965
  156.0064  140.1231  157.0497 H   0  0  0  0  0  0  0  0  0  0  0  0  # atno 8008 bound_to 7997
  154.4260  140.1096  156.5837 H   0  0  0  0  0  0  0  0  0  0  0  0  # atno 8009 bound_to 7997
  155.6141  140.3472  155.4633 H   0  0  0  0  0  0  0  0  0  0  0  0  # atno 8010 bound_to 7997
  140.6707  143.2718  151.4145 H   0  0  0  0  0  0  0  0  0  0  0  0  # atno 10167 bound_to 10162
  156.7906  130.5360  149.5736 H   0  0  0  0  0  0  0  0  0  0  0  0  # atno 10718 bound_to 10713
  154.4427  135.2762  155.1837 H   0  0  0  0  0  0  0  0  0  0  0  0  # atno 10763 bound_to 10752
  154.3696  135.6111  153.5737 H   0  0  0  0  0  0  0  0  0  0  0  0  # atno 10764 bound_to 10752
  152.9842  135.5854  154.4757 H   0  0  0  0  0  0  0  0  0  0  0  0  # atno 10765 bound_to 10752
  140.4007  134.1721  155.7664 H   0  0  0  0  0  0  0  0  0  0  0  0  # atno 11005 bound_to 11000
  145.7763  139.1875  143.2183 LP  0  0  0  0  0  0  0  0  0  0  0  0  # atno 17320 bound_to 7965
  146.0870  140.7699  142.9614 LP  0  0  0  0  0  0  0  0  0  0  0  0  # atno 17321 bound_to 7965
  139.5975  144.1366  152.2160 LP  0  0  0  0  0  0  0  0  0  0  0  0  # atno 17342 bound_to 10162
  140.0740  144.5756  150.7171 LP  0  0  0  0  0  0  0  0  0  0  0  0  # atno 17343 bound_to 10162
  156.1161  130.6076  151.0123 LP  0  0  0  0  0  0  0  0  0  0  0  0  # atno 17370 bound_to 10713
  157.6602  131.0882  150.7855 LP  0  0  0  0  0  0  0  0  0  0  0  0  # atno 17371 bound_to 10713
  141.1858  133.8316  157.1093 LP  0  0  0  0  0  0  0  0  0  0  0  0  # atno 17394 bound_to 11000
  140.0338  134.9888  157.0832 LP  0  0  0  0  0  0  0  0  0  0  0  0  # atno 17395 bound_to 11000

$$$$
