AV-unprocessed.smi:2001|AV-procd|sdf|8106|dock1
  -GOLD-   2272010333D 1   1.00000     0.00000
 Structure written by MMmdl.
 51 52  0  0  0  0  0  0  0  0  2 V2000
  155.2877  137.7891  159.0657 C   0  0  0  0  0  0  0  0  0  0  0  0
  154.5631  138.9508  158.7035 O   0  0  0  0  0  0  0  0  0  0  0  0
  153.3136  138.6509  158.1040 C   0  0  0  0  0  0  0  0  0  0  0  0
  153.5312  137.8406  156.8152 C   0  0  0  0  0  0  0  0  0  0  0  0
  152.3188  137.7910  155.9896 N   0  0  0  0  0  0  0  0  0  0  0  0
  151.7393  136.5342  155.9164 N   0  0  0  0  0  0  0  0  0  0  0  0
  150.6562  136.3565  155.2312 C   0  0  0  0  0  0  0  0  0  0  0  0
  150.0060  135.0209  155.1207 C   0  0  0  0  0  0  0  0  0  0  0  0
  150.2906  134.0925  155.8793 O   0  0  0  0  0  0  0  0  0  0  0  0
  149.0890  134.9017  154.1448 N   0  0  0  0  0  0  0  0  0  0  0  0
  148.3231  133.6910  153.8844 C   0  0  0  0  0  0  0  0  0  0  0  0
  146.8209  134.0058  153.8009 C   0  0  0  0  0  0  0  0  0  0  0  0
  146.1467  133.2456  152.7190 N   0  3  1  0  0  0  0  0  0  0  0  0
  146.4803  133.7627  151.3707 C   0  0  0  0  0  0  0  0  0  0  0  0
  145.7066  133.0021  150.2756 C   0  0  2  0  0  0  0  0  0  0  0  0
  144.2141  133.3721  150.2085 C   0  0  0  0  0  0  0  0  0  0  0  0
  145.9092  131.5957  150.4142 O   0  0  0  0  0  0  0  0  0  0  0  0
  145.5675  131.0633  151.6914 C   0  0  1  0  0  0  0  0  0  0  0  0
  145.8457  129.5562  151.6650 C   0  0  0  0  0  0  0  0  0  0  0  0
  146.3833  131.7831  152.7804 C   0  0  0  0  0  0  0  0  0  0  0  0
  150.0272  137.4640  154.5321 C   0  0  0  0  0  0  0  0  0  0  0  0
  150.6060  138.6822  154.6085 C   0  0  0  0  0  0  0  0  0  0  0  0
  151.8340  138.9106  155.3718 C   0  0  0  0  0  0  0  0  0  0  0  0
  152.3795  140.0107  155.4506 O   0  0  0  0  0  0  0  0  0  0  0  0
  156.2379  138.0767  159.5155 H   0  0  0  0  0  0  0  0  0  0  0  0
  155.5024  137.1691  158.1945 H   0  0  0  0  0  0  0  0  0  0  0  0
  154.7371  137.1923  159.7938 H   0  0  0  0  0  0  0  0  0  0  0  0
  152.7116  138.0671  158.8015 H   0  0  0  0  0  0  0  0  0  0  0  0
  152.7614  139.5673  157.8891 H   0  0  0  0  0  0  0  0  0  0  0  0
  154.3806  138.2389  156.2578 H   0  0  0  0  0  0  0  0  0  0  0  0
  153.8189  136.8223  157.0825 H   0  0  0  0  0  0  0  0  0  0  0  0
  148.9085  135.7042  153.5584 H   0  0  0  0  0  0  0  0  0  0  0  0
  148.6828  133.2493  152.9550 H   0  0  0  0  0  0  0  0  0  0  0  0
  148.5078  132.9673  154.6802 H   0  0  0  0  0  0  0  0  0  0  0  0
  146.3657  133.7415  154.7568 H   0  0  0  0  0  0  0  0  0  0  0  0
  146.6539  135.0755  153.6636 H   0  0  0  0  0  0  0  0  0  0  0  0
  146.2573  134.8288  151.3086 H   0  0  0  0  0  0  0  0  0  0  0  0
  147.5535  133.6552  151.2052 H   0  0  0  0  0  0  0  0  0  0  0  0
  146.1407  133.2748  149.3132 H   0  0  0  0  0  0  0  0  0  0  0  0
  144.0888  134.4274  149.9652 H   0  0  0  0  0  0  0  0  0  0  0  0
  143.6996  133.1950  151.1525 H   0  0  0  0  0  0  0  0  0  0  0  0
  143.7051  132.7944  149.4366 H   0  0  0  0  0  0  0  0  0  0  0  0
  144.5029  131.2052  151.8779 H   0  0  0  0  0  0  0  0  0  0  0  0
  145.5971  129.0934  152.6205 H   0  0  0  0  0  0  0  0  0  0  0  0
  146.8962  129.3510  151.4568 H   0  0  0  0  0  0  0  0  0  0  0  0
  145.2516  129.0636  150.8948 H   0  0  0  0  0  0  0  0  0  0  0  0
  147.4481  131.5801  152.6523 H   0  0  0  0  0  0  0  0  0  0  0  0
  146.0993  131.3916  153.7565 H   0  0  0  0  0  0  0  0  0  0  0  0
  149.1200  137.3254  153.9622 H   0  0  0  0  0  0  0  0  0  0  0  0
  150.1493  139.5142  154.0927 H   0  0  0  0  0  0  0  0  0  0  0  0
  145.1544  133.3915  152.8398 H   0  0  0  0  0  0  0  0  0  0  0  0
  1  2  1  0  0  0  0
  1 25  1  0  0  0  0
  1 26  1  0  0  0  0
  1 27  1  0  0  0  0
  2  3  1  0  0  0  0
  3  4  1  0  0  0  0
  3 28  1  0  0  0  0
  3 29  1  0  0  0  0
  4  5  1  0  0  0  0
  4 30  1  0  0  0  0
  4 31  1  0  0  0  0
  5 23  1  0  0  0  0
  5  6  1  0  0  0  0
  6  7  2  0  0  0  0
  7  8  1  0  0  0  0
  7 21  1  0  0  0  0
  8  9  2  0  0  0  0
  8 10  1  0  0  0  0
 10 11  1  0  0  0  0
 10 32  1  0  0  0  0
 11 12  1  0  0  0  0
 11 33  1  0  0  0  0
 11 34  1  0  0  0  0
 12 13  1  0  0  0  0
 12 35  1  0  0  0  0
 12 36  1  0  0  0  0
 13 20  1  0  0  0  0
 13 14  1  0  0  0  0
 13 51  1  0  0  0  0
 14 15  1  0  0  0  0
 14 37  1  0  0  0  0
 14 38  1  0  0  0  0
 15 16  1  0  0  0  0
 15 17  1  0  0  0  0
 15 39  1  0  0  0  0
 16 40  1  0  0  0  0
 16 41  1  0  0  0  0
 16 42  1  0  0  0  0
 17 18  1  0  0  0  0
 18 19  1  0  0  0  0
 18 20  1  0  0  0  0
 18 43  1  0  0  0  0
 19 44  1  0  0  0  0
 19 45  1  0  0  0  0
 19 46  1  0  0  0  0
 20 47  1  0  0  0  0
 20 48  1  0  0  0  0
 21 22  2  0  0  0  0
 21 49  1  0  0  0  0
 22 23  1  0  0  0  0
 22 50  1  0  0  0  0
 23 24  2  0  0  0  0
M  CHG  1  13   1
M  END
> <s_m_source_file>
AV-unprocessed.smi

> <i_m_source_file_index>
2001

> <i_lp_mmshare_version>
43012

> <i_f3d_flags>
0

> <s_epik_input>
W0NIM11PW0NIMl1bQ0gyXW4xbmMoW2NIXVtjSF1jMT1PKUMoPU8pW05IXVtDSDJdW0NIMl1OMltDSDJdW0NAQEhdKFtDSDNdKU9bQ0BASF0oW0NIM10pW0NIMl0y

> <s_epik_cmdline>
J2VwaWtfcHl0aG9uJywgJy1waCcsICc3LjAnLCAnLXRuJywgJzgnLCAnLW1hJywgJzIwMCcsICctbWV0YWxfYmluZGluZycsICctaW1hZScsICc8aW5maWxlLm1hZT4nLCAnLW9tYWUnLCAnPG91dGZpbGUubWFlPic=

> <r_lp_tautomer_probability>
1

> <r_epik_Ionization_Penalty>
0.724354

> <r_epik_Ionization_Penalty_Charging>
0.724348

> <r_epik_Ionization_Penalty_Neutral>
6.1656e-06

> <r_epik_State_Penalty>
0.749058

> <r_epik_Charging_Adjusted_Penalty>
1.47341

> <i_epik_Tot_Q>
1

> <i_epik_Tot_abs_Q>
1

> <r_epik_Metal_State_Penalty>
0.750779

> <b_epik_Metal_Only>
0

> <s_lp_Force_Field>
OPLS_2005

> <r_lp_Energy>
40.2507

> <b_lp_Chiralities_Consistent>
1

> <s_lp_Variant>
AV-unprocessed.smi:2001-5

> <Gold.Version>
5.8.1

> <Gold.Id.Protein>
6NUR|6NUR_protein|mol2

> <Gold.PLP.Fitness>
48.5649

> <Gold.PLP.PLP>
-36.4287

> <Gold.PLP.part.hbond>
-5.0000

> <Gold.PLP.part.metal>
0.0000

> <Gold.PLP.part.buried>
-2.8920

> <Gold.PLP.part.nonpolar>
-29.0395

> <Gold.PLP.part.repulsive>
0.6352

> <Gold.PLP.ligand.clash>
0.0000

> <Gold.PLP.ligand.torsion>
0.6000

> <Gold.PLP.Chemscore.Hbond>
4.2836

> <Gold.PLP.Chemscore.CHOScore>
0.0000

> <Gold.PLP.Chemscore.Metal>
0.0000

> <Gold.Chemscore.Hbonds>
donor molecule, donor type, donor heavy atom, donor atom, acceptor molecule, acceptor atom, score
      L1  H    10    32       P1  7948  0.82
      P1  H  7989  7998       L1    24  0.30
      P1  H  7997  8009       L1     2  1.00
      P1  H  7997  8010       L1    24  0.75
      P1  H 10752 10765       L1     6  1.00

> <Gold.PLP.Chemscore.Internal.Correction>
0.4854

> <Gold.Rescore>
     Score         DG    S(hbond)    S(metal)    S(lipo)     H(rot)  DE(clash)    DE(int)     intcor
     16.19     -16.94       2.00        0.00      86.26       2.07       0.14       0.62       ----

> <Gold.Chemscore.Fitness>
16.1865

> <Gold.Chemscore.DG>
-16.9434

> <Gold.Chemscore.ZeroCoef>
-5.4800

> <Gold.Chemscore.Hbond>
1.9986

> <Gold.Chemscore.Metal>
0.0000

> <Gold.Chemscore.Lipo>
86.2635

> <Gold.Chemscore.Internal_Hbond>
0.0000

> <Gold.Chemscore.DEClash>
0.1357

> <Gold.Chemscore.DEInternal>
0.6211

> <Gold.Chemscore.Rot>
2.0721

> <Gold.Chemscore.Internal.Correction>
   9.000000E+99

> <Gold.Chemscore.Hbonds>
donor molecule, donor type, donor heavy atom, donor atom, acceptor molecule, acceptor atom, score
      L1  H    10    32       P1  7948  0.74
      P1  H  7989  7998       L1    24  0.07
      P1  H  7997  8009       L1     2  0.23
      P1  H  7997  8010       L1    24  0.73
      P1  H 10752 10765       L1     6  0.14

> <Gold.Chemscore.Hbond.Weighted>
-6.6752

> <Gold.Chemscore.Metal.Weighted>
-0.0000

> <Gold.Chemscore.Lipo.Weighted>
-10.0928

> <Gold.Chemscore.Internal_Hbond.Weighted>
0.0000

> <Gold.Chemscore.DEClash.Weighted>
0.1357

> <Gold.Chemscore.DEInternal.Weighted>
0.6211

> <Gold.Chemscore.Rot.Weighted>
5.3047

> <Gold.Chemscore.Internal.Correction.Weighted>
   9.000000E+99

> <Gold.Protein.RotatedTorsions>
[ 6907 6896 6895 6894 ] final   39.74 input  -60.11 | X-H torsion
[ 7974 7965 7964 7962 ] final  156.75 input  175.53 | X-H torsion
[ 8008 7997 7996 7995 ] final  105.89 input   59.86 | X-H torsion
[ 10167 10162 10161 10158 ] final   31.16 input  -65.29 | X-H torsion
[ 10718 10713 10712 10709 ] final  -84.30 input   66.30 | X-H torsion
[ 10763 10752 10751 10750 ] final -159.81 input  -60.55 | X-H torsion
[ 11005 11000 10999 10996 ] final -123.69 input  -57.11 | X-H torsion

> <Gold.Protein.ActiveResidues>
 VAL166  LYS551  ARG553  GLY616  TRP617  ASP618  TYR619  PRO620  LYS621  CYS622 
 ASP623  PHE694  ASN695  SER759  ASP760  ASP761  ALA762  ILE779  LEU786  VAL792 
 PHE793  MET794  SER795  GLU796  ALA797  LYS798  CYS799  TRP800  GLU811  SER814 

> <Gold.Protein.RotatedAtoms>
  152.1735  134.8814  160.0532 H   0  0  0  0  0  0  0  0  0  0  0  0  # atno 6907 bound_to 6896
  151.9765  133.3738  159.4099 H   0  0  0  0  0  0  0  0  0  0  0  0  # atno 6908 bound_to 6896
  150.6905  134.4007  159.5162 H   0  0  0  0  0  0  0  0  0  0  0  0  # atno 6909 bound_to 6896
  144.7944  139.7246  143.6208 H   0  0  0  0  0  0  0  0  0  0  0  0  # atno 7974 bound_to 7965
  156.1697  140.3122  155.8951 H   0  0  0  0  0  0  0  0  0  0  0  0  # atno 8008 bound_to 7997
  155.3613  140.0476  157.3063 H   0  0  0  0  0  0  0  0  0  0  0  0  # atno 8009 bound_to 7997
  154.5228  140.2204  155.8955 H   0  0  0  0  0  0  0  0  0  0  0  0  # atno 8010 bound_to 7997
  140.4613  144.0901  150.6213 H   0  0  0  0  0  0  0  0  0  0  0  0  # atno 10167 bound_to 10162
  156.0008  130.4693  150.4389 H   0  0  0  0  0  0  0  0  0  0  0  0  # atno 10718 bound_to 10713
  154.7444  135.3076  154.8672 H   0  0  0  0  0  0  0  0  0  0  0  0  # atno 10763 bound_to 10752
  153.9477  135.6767  153.4748 H   0  0  0  0  0  0  0  0  0  0  0  0  # atno 10764 bound_to 10752
  153.1041  135.4898  154.8845 H   0  0  0  0  0  0  0  0  0  0  0  0  # atno 10765 bound_to 10752
  140.9899  134.0554  157.3667 H   0  0  0  0  0  0  0  0  0  0  0  0  # atno 11005 bound_to 11000
  146.2208  139.5632  142.9620 LP  0  0  0  0  0  0  0  0  0  0  0  0  # atno 17320 bound_to 7965
  145.5710  141.0394  143.2174 LP  0  0  0  0  0  0  0  0  0  0  0  0  # atno 17321 bound_to 7965
  140.4089  143.2666  151.9857 LP  0  0  0  0  0  0  0  0  0  0  0  0  # atno 17342 bound_to 10162
  139.4806  144.5932  151.7735 LP  0  0  0  0  0  0  0  0  0  0  0  0  # atno 17343 bound_to 10162
  157.2432  131.0530  151.2424 LP  0  0  0  0  0  0  0  0  0  0  0  0  # atno 17370 bound_to 10713
  157.3600  130.7126  149.6496 LP  0  0  0  0  0  0  0  0  0  0  0  0  # atno 17371 bound_to 10713
  139.8987  135.0156  156.7163 LP  0  0  0  0  0  0  0  0  0  0  0  0  # atno 17394 bound_to 11000
  140.7056  133.9268  155.8052 LP  0  0  0  0  0  0  0  0  0  0  0  0  # atno 17395 bound_to 11000

$$$$
