AV-unprocessed.smi:3187|AV-procd|sdf|12181|dock2
  -GOLD-   2272018 23D 1   1.00000     0.00000
 Structure written by MMmdl.
 42 43  0  0  0  0  0  0  0  0  3 V2000
  151.5158  139.8400  157.7786 C   0  0  0  0  0  0  0  0  0  0  0  0
  151.8915  141.1334  158.4828 C   0  0  0  0  0  0  0  0  0  0  0  0
  152.9265  141.1485  159.3445 C   0  0  0  0  0  0  0  0  0  0  0  0
  153.4361  142.3877  160.0432 C   0  0  0  0  0  0  0  0  0  0  0  0
  152.9989  143.6540  159.3033 C   0  0  0  0  0  0  0  0  0  0  0  0
  151.4913  143.6359  159.0023 C   0  0  1  0  0  0  0  0  0  0  0  0
  151.0854  144.9688  158.3440 C   0  0  0  0  0  0  0  0  0  0  0  0
  151.0698  142.3968  158.1527 C   0  0  2  0  0  0  0  0  0  0  0  0
  149.5397  142.1658  158.2710 C   0  0  0  0  0  0  0  0  0  0  0  0
  148.8100  142.4771  157.0241 N   0  3  0  0  0  0  0  0  0  0  0  0
  148.9031  141.4241  155.9938 C   0  0  0  0  0  0  0  0  0  0  0  0
  147.8743  141.6498  154.8768 C   0  0  0  0  0  0  0  0  0  0  0  0
  147.7730  140.4900  153.9873 N   0  0  0  0  0  0  0  0  0  0  0  0
  146.8269  140.2642  153.0203 C   0  0  0  0  0  0  0  0  0  0  0  0
  147.1324  139.0555  152.4493 C   0  0  0  0  0  0  0  0  0  0  0  0
  148.2510  138.5952  153.0906 N   0  3  0  0  0  0  0  0  0  0  0  0
  148.6390  139.4686  154.0256 C   0  0  0  0  0  0  0  0  0  0  0  0
  151.4466  139.9969  156.7020 H   0  0  0  0  0  0  0  0  0  0  0  0
  150.5635  139.4581  158.1453 H   0  0  0  0  0  0  0  0  0  0  0  0
  152.2628  139.0643  157.9505 H   0  0  0  0  0  0  0  0  0  0  0  0
  153.4600  140.2348  159.5632 H   0  0  0  0  0  0  0  0  0  0  0  0
  153.0656  142.3887  161.0686 H   0  0  0  0  0  0  0  0  0  0  0  0
  154.5245  142.3486  160.0947 H   0  0  0  0  0  0  0  0  0  0  0  0
  153.2597  144.5286  159.9005 H   0  0  0  0  0  0  0  0  0  0  0  0
  153.5568  143.7416  158.3697 H   0  0  0  0  0  0  0  0  0  0  0  0
  150.9809  143.5744  159.9651 H   0  0  0  0  0  0  0  0  0  0  0  0
  151.5560  145.0864  157.3673 H   0  0  0  0  0  0  0  0  0  0  0  0
  151.3928  145.8157  158.9586 H   0  0  0  0  0  0  0  0  0  0  0  0
  150.0090  145.0558  158.2050 H   0  0  0  0  0  0  0  0  0  0  0  0
  151.3012  142.6279  157.1118 H   0  0  0  0  0  0  0  0  0  0  0  0
  149.3454  141.1322  158.5619 H   0  0  0  0  0  0  0  0  0  0  0  0
  149.1081  142.7884  159.0528 H   0  0  0  0  0  0  0  0  0  0  0  0
  147.8372  142.6263  157.2516 H   0  0  0  0  0  0  0  0  0  0  0  0
  149.9114  141.4203  155.5769 H   0  0  0  0  0  0  0  0  0  0  0  0
  148.7419  140.4509  156.4597 H   0  0  0  0  0  0  0  0  0  0  0  0
  146.8840  141.8355  155.2954 H   0  0  0  0  0  0  0  0  0  0  0  0
  148.1381  142.5213  154.2754 H   0  0  0  0  0  0  0  0  0  0  0  0
  146.0271  140.9608  152.8139 H   0  0  0  0  0  0  0  0  0  0  0  0
  146.6506  138.5032  151.6552 H   0  0  0  0  0  0  0  0  0  0  0  0
  149.4862  139.3664  154.6804 H   0  0  0  0  0  0  0  0  0  0  0  0
  149.1869  143.3337  156.6437 H   0  0  0  0  0  0  0  0  0  0  0  0
  148.7199  137.7210  152.8869 H   0  0  0  0  0  0  0  0  0  0  0  0
  1  2  1  0  0  0  0
  1 18  1  0  0  0  0
  1 19  1  0  0  0  0
  1 20  1  0  0  0  0
  2  8  1  0  0  0  0
  2  3  2  0  0  0  0
  3  4  1  0  0  0  0
  3 21  1  0  0  0  0
  4  5  1  0  0  0  0
  4 22  1  0  0  0  0
  4 23  1  0  0  0  0
  5  6  1  0  0  0  0
  5 24  1  0  0  0  0
  5 25  1  0  0  0  0
  6  7  1  0  0  0  0
  6  8  1  0  0  0  0
  6 26  1  0  0  0  0
  7 27  1  0  0  0  0
  7 28  1  0  0  0  0
  7 29  1  0  0  0  0
  8  9  1  0  0  0  0
  8 30  1  0  0  0  0
  9 10  1  0  0  0  0
  9 31  1  0  0  0  0
  9 32  1  0  0  0  0
 10 11  1  0  0  0  0
 10 33  1  0  0  0  0
 10 41  1  0  0  0  0
 11 12  1  0  0  0  0
 11 34  1  0  0  0  0
 11 35  1  0  0  0  0
 12 13  1  0  0  0  0
 12 36  1  0  0  0  0
 12 37  1  0  0  0  0
 13 17  1  0  0  0  0
 13 14  1  0  0  0  0
 14 15  2  0  0  0  0
 14 38  1  0  0  0  0
 15 16  1  0  0  0  0
 15 39  1  0  0  0  0
 16 17  2  0  0  0  0
 16 42  1  0  0  0  0
 17 40  1  0  0  0  0
M  CHG  1  10   1
M  CHG  1  16   1
M  END
> <s_m_source_file>
AV-unprocessed.smi

> <i_m_source_file_index>
3187

> <i_lp_mmshare_version>
43012

> <i_f3d_flags>
0

> <s_epik_input>
W0NIM11DMT1bQ0hdW0NIMl1bQ0gyXVtDQEBIXShbQ0gzXSlbQ0BIXTFbQ0gyXVtOSF1bQ0gyXVtDSDJdbjJbY0hdW2NIXW5bY0hdMg==

> <s_epik_cmdline>
J2VwaWtfcHl0aG9uJywgJy1waCcsICc3LjAnLCAnLXRuJywgJzgnLCAnLW1hJywgJzIwMCcsICctbWV0YWxfYmluZGluZycsICctaW1hZScsICc8aW5maWxlLm1hZT4nLCAnLW9tYWUnLCAnPG91dGZpbGUubWFlPic=

> <r_lp_tautomer_probability>
1

> <r_epik_Ionization_Penalty>
1.51066

> <r_epik_Ionization_Penalty_Charging>
0.0026721

> <r_epik_Ionization_Penalty_Neutral>
1.50798

> <r_epik_State_Penalty>
1.12593

> <r_epik_Charging_Adjusted_Penalty>
1.12861

> <i_epik_Tot_Q>
2

> <i_epik_Tot_abs_Q>
2

> <r_epik_Metal_State_Penalty>
5.12155

> <b_epik_Metal_Only>
0

> <s_lp_Force_Field>
OPLS_2005

> <r_lp_Energy>
24.2978

> <b_lp_Chiralities_Consistent>
1

> <s_lp_Variant>
AV-unprocessed.smi:3187-7

> <Gold.Version>
5.8.1

> <Gold.Id.Protein>
6NUR|6NUR_protein|mol2

> <Gold.PLP.Fitness>
50.3904

> <Gold.PLP.PLP>
-37.6357

> <Gold.PLP.part.hbond>
-3.0000

> <Gold.PLP.part.metal>
0.0000

> <Gold.PLP.part.buried>
-2.3391

> <Gold.PLP.part.nonpolar>
-32.9947

> <Gold.PLP.part.repulsive>
0.0639

> <Gold.PLP.ligand.clash>
0.0000

> <Gold.PLP.ligand.torsion>
0.9787

> <Gold.PLP.Chemscore.Hbond>
3.8560

> <Gold.PLP.Chemscore.CHOScore>
0.9948

> <Gold.PLP.Chemscore.Metal>
0.0000

> <Gold.Chemscore.Hbonds>
donor molecule, donor type, donor heavy atom, donor atom, acceptor molecule, acceptor atom, score
      L1  H    10    41       P1  8028  1.86
      L1  H    16    42       P1  7948  2.00
      L1  C    14    38       P1 10175  0.98

> <Gold.PLP.Chemscore.Internal.Correction>
0.1598

> <Gold.Rescore>
     Score         DG    S(hbond)    S(metal)    S(lipo)     H(rot)  DE(clash)    DE(int)     intcor
     17.98     -19.18       1.86        0.00     107.25       1.97       0.25       0.95       ----

> <Gold.Chemscore.Fitness>
17.9842

> <Gold.Chemscore.DG>
-19.1839

> <Gold.Chemscore.ZeroCoef>
-5.4800

> <Gold.Chemscore.Hbond>
1.8586

> <Gold.Chemscore.Metal>
0.0000

> <Gold.Chemscore.Lipo>
107.2455

> <Gold.Chemscore.Internal_Hbond>
0.0000

> <Gold.Chemscore.DEClash>
0.2457

> <Gold.Chemscore.DEInternal>
0.9541

> <Gold.Chemscore.Rot>
1.9732

> <Gold.Chemscore.Internal.Correction>
   9.000000E+99

> <Gold.Chemscore.Hbonds>
donor molecule, donor type, donor heavy atom, donor atom, acceptor molecule, acceptor atom, score
      L1  H    10    41       P1  8028  0.88
      L1  H    16    42       P1  7948  0.95

> <Gold.Chemscore.Hbond.Weighted>
-6.2076

> <Gold.Chemscore.Metal.Weighted>
-0.0000

> <Gold.Chemscore.Lipo.Weighted>
-12.5477

> <Gold.Chemscore.Internal_Hbond.Weighted>
0.0000

> <Gold.Chemscore.DEClash.Weighted>
0.2457

> <Gold.Chemscore.DEInternal.Weighted>
0.9541

> <Gold.Chemscore.Rot.Weighted>
5.0514

> <Gold.Chemscore.Internal.Correction.Weighted>
   9.000000E+99

> <Gold.Protein.RotatedTorsions>
[ 6907 6896 6895 6894 ] final   74.59 input  -60.11 | X-H torsion
[ 7974 7965 7964 7962 ] final  -97.89 input  175.53 | X-H torsion
[ 8008 7997 7996 7995 ] final  171.62 input   59.86 | X-H torsion
[ 10167 10162 10161 10158 ] final -138.26 input  -65.29 | X-H torsion
[ 10718 10713 10712 10709 ] final  -17.45 input   66.30 | X-H torsion
[ 10763 10752 10751 10750 ] final   87.49 input  -60.55 | X-H torsion
[ 11005 11000 10999 10996 ] final   83.70 input  -57.11 | X-H torsion

> <Gold.Protein.ActiveResidues>
 VAL166  LYS551  ARG553  GLY616  TRP617  ASP618  TYR619  PRO620  LYS621  CYS622 
 ASP623  PHE694  ASN695  SER759  ASP760  ASP761  ALA762  ILE779  LEU786  VAL792 
 PHE793  MET794  SER795  GLU796  ALA797  LYS798  CYS799  TRP800  GLU811  SER814 

> <Gold.Protein.RotatedAtoms>
  152.4983  134.4249  159.9492 H   0  0  0  0  0  0  0  0  0  0  0  0  # atno 6907 bound_to 6896
  151.4224  133.3688  159.2765 H   0  0  0  0  0  0  0  0  0  0  0  0  # atno 6908 bound_to 6896
  150.9213  134.8653  159.7550 H   0  0  0  0  0  0  0  0  0  0  0  0  # atno 6909 bound_to 6896
  145.3278  140.9435  143.2679 H   0  0  0  0  0  0  0  0  0  0  0  0  # atno 7974 bound_to 7965
  156.1253  140.1507  156.9145 H   0  0  0  0  0  0  0  0  0  0  0  0  # atno 8008 bound_to 7997
  154.4867  140.0863  156.7543 H   0  0  0  0  0  0  0  0  0  0  0  0  # atno 8009 bound_to 7997
  155.4354  140.3429  155.4286 H   0  0  0  0  0  0  0  0  0  0  0  0  # atno 8010 bound_to 7997
  139.8496  143.7216  152.2658 H   0  0  0  0  0  0  0  0  0  0  0  0  # atno 10167 bound_to 10162
  156.5734  130.4755  149.6352 H   0  0  0  0  0  0  0  0  0  0  0  0  # atno 10718 bound_to 10713
  153.1673  135.4541  154.9855 H   0  0  0  0  0  0  0  0  0  0  0  0  # atno 10763 bound_to 10752
  154.7941  135.3231  154.7710 H   0  0  0  0  0  0  0  0  0  0  0  0  # atno 10764 bound_to 10752
  153.8191  135.6948  153.4884 H   0  0  0  0  0  0  0  0  0  0  0  0  # atno 10765 bound_to 10752
  139.9023  134.8163  156.2345 H   0  0  0  0  0  0  0  0  0  0  0  0  # atno 11005 bound_to 11000
  144.8888  139.4803  143.6688 LP  0  0  0  0  0  0  0  0  0  0  0  0  # atno 17320 bound_to 7965
  146.3057  139.7573  142.9058 LP  0  0  0  0  0  0  0  0  0  0  0  0  # atno 17321 bound_to 7965
  139.7479  144.7542  151.0552 LP  0  0  0  0  0  0  0  0  0  0  0  0  # atno 17342 bound_to 10162
  140.7789  143.4895  150.9912 LP  0  0  0  0  0  0  0  0  0  0  0  0  # atno 17343 bound_to 10162
  156.2694  130.7008  151.1801 LP  0  0  0  0  0  0  0  0  0  0  0  0  # atno 17370 bound_to 10713
  157.7343  131.0583  150.5532 LP  0  0  0  0  0  0  0  0  0  0  0  0  # atno 17371 bound_to 10713
  141.0324  133.6981  156.1454 LP  0  0  0  0  0  0  0  0  0  0  0  0  # atno 17394 bound_to 11000
  140.7076  134.4496  157.5583 LP  0  0  0  0  0  0  0  0  0  0  0  0  # atno 17395 bound_to 11000

$$$$
