AV-unprocessed.smi:2741|AV-procd|sdf|10559|dock2
  -GOLD-   2272015 13D 1   1.00000     0.00000
 Structure written by MMmdl.
 39 40  0  0  0  0  0  0  0  0  1 V2000
  149.9944  143.0331  157.8136 O   0  0  0  0  0  0  0  0  0  0  0  0
  150.7230  142.5578  156.9418 C   0  0  0  0  0  0  0  0  0  0  0  0
  152.2438  142.5045  157.1390 C   0  0  0  0  0  0  0  0  0  0  0  0
  152.6313  141.8755  158.4128 N   0  0  0  0  0  0  0  0  0  0  0  0
  152.0444  140.6329  158.7239 C   0  0  0  0  0  0  0  0  0  0  0  0
  152.3284  139.9496  159.8492 C   0  0  0  0  0  0  0  0  0  0  0  0
  151.6390  138.6344  160.1779 C   0  0  0  0  0  0  0  0  0  0  0  0
  150.3322  138.8103  160.3752 F   0  0  0  0  0  0  0  0  0  0  0  0
  151.7982  137.7514  159.1913 F   0  0  0  0  0  0  0  0  0  0  0  0
  152.1610  138.1136  161.2874 F   0  0  0  0  0  0  0  0  0  0  0  0
  153.2619  140.5747  160.7658 C   0  0  0  0  0  0  0  0  0  0  0  0
  153.8267  141.7658  160.4870 C   0  0  0  0  0  0  0  0  0  0  0  0
  153.5247  142.4863  159.2482 C   0  0  0  0  0  0  0  0  0  0  0  0
  154.0415  143.5712  158.9782 O   0  0  0  0  0  0  0  0  0  0  0  0
  150.2606  142.0748  155.7792 N   0  0  0  0  0  0  0  0  0  0  0  0
  148.8532  141.9936  155.4042 C   0  0  0  0  0  0  0  0  0  0  0  0
  148.5894  140.8675  154.3848 C   0  0  1  0  0  0  0  0  0  0  0  0
  147.8305  139.6639  154.9741 C   0  0  0  0  0  0  0  0  0  0  0  0
  146.8419  139.1944  153.8947 C   0  0  0  0  0  0  0  0  0  0  0  0
  147.2087  139.9783  152.6321 C   0  0  1  0  0  0  0  0  0  0  0  0
  146.0999  140.1702  151.7790 O   0  0  0  0  0  0  0  0  0  0  0  0
  147.7663  141.2962  153.1636 C   0  0  0  0  0  0  0  0  0  0  0  0
  152.7070  141.9710  156.3064 H   0  0  0  0  0  0  0  0  0  0  0  0
  152.6288  143.5228  157.0750 H   0  0  0  0  0  0  0  0  0  0  0  0
  151.3478  140.2655  157.9843 H   0  0  0  0  0  0  0  0  0  0  0  0
  153.5175  140.0785  161.6906 H   0  0  0  0  0  0  0  0  0  0  0  0
  154.5204  142.2007  161.1916 H   0  0  0  0  0  0  0  0  0  0  0  0
  150.9303  141.7114  155.1165 H   0  0  0  0  0  0  0  0  0  0  0  0
  148.2388  141.8513  156.2948 H   0  0  0  0  0  0  0  0  0  0  0  0
  148.5640  142.9558  154.9801 H   0  0  0  0  0  0  0  0  0  0  0  0
  149.5472  140.4958  154.0166 H   0  0  0  0  0  0  0  0  0  0  0  0
  148.5273  138.8697  155.2442 H   0  0  0  0  0  0  0  0  0  0  0  0
  147.2879  139.9365  155.8799 H   0  0  0  0  0  0  0  0  0  0  0  0
  146.8792  138.1165  153.7344 H   0  0  0  0  0  0  0  0  0  0  0  0
  145.8274  139.4424  154.2109 H   0  0  0  0  0  0  0  0  0  0  0  0
  147.9906  139.4474  152.0871 H   0  0  0  0  0  0  0  0  0  0  0  0
  145.9397  139.3668  151.3080 H   0  0  0  0  0  0  0  0  0  0  0  0
  146.9518  141.9532  153.4736 H   0  0  0  0  0  0  0  0  0  0  0  0
  148.3621  141.8278  152.4204 H   0  0  0  0  0  0  0  0  0  0  0  0
  1  2  2  0  0  0  0
  2  3  1  0  0  0  0
  2 15  1  0  0  0  0
  3  4  1  0  0  0  0
  3 23  1  0  0  0  0
  3 24  1  0  0  0  0
  4 13  1  0  0  0  0
  4  5  1  0  0  0  0
  5  6  2  0  0  0  0
  5 25  1  0  0  0  0
  6  7  1  0  0  0  0
  6 11  1  0  0  0  0
  7  8  1  0  0  0  0
  7  9  1  0  0  0  0
  7 10  1  0  0  0  0
 11 12  2  0  0  0  0
 11 26  1  0  0  0  0
 12 13  1  0  0  0  0
 12 27  1  0  0  0  0
 13 14  2  0  0  0  0
 15 16  1  0  0  0  0
 15 28  1  0  0  0  0
 16 17  1  0  0  0  0
 16 29  1  0  0  0  0
 16 30  1  0  0  0  0
 17 22  1  0  0  0  0
 17 18  1  0  0  0  0
 17 31  1  0  0  0  0
 18 19  1  0  0  0  0
 18 32  1  0  0  0  0
 18 33  1  0  0  0  0
 19 20  1  0  0  0  0
 19 34  1  0  0  0  0
 19 35  1  0  0  0  0
 20 21  1  0  0  0  0
 20 22  1  0  0  0  0
 20 36  1  0  0  0  0
 21 37  1  0  0  0  0
 22 38  1  0  0  0  0
 22 39  1  0  0  0  0
M  END
> <s_m_source_file>
AV-unprocessed.smi

> <i_m_source_file_index>
2741

> <i_lp_mmshare_version>
43012

> <i_f3d_flags>
0

> <s_epik_input>
W09IXVtDQEBIXShbQ0gyXTEpW0NIMl1bQ0gyXVtDQEhdMVtDSDJdW05IXUMoPU8pW0NIMl1uMltjSF1jKEMoRikoRilGKVtjSF1bY0hdYzI9Tw==

> <s_epik_cmdline>
J2VwaWtfcHl0aG9uJywgJy1waCcsICc3LjAnLCAnLXRuJywgJzgnLCAnLW1hJywgJzIwMCcsICctbWV0YWxfYmluZGluZycsICctaW1hZScsICc8aW5maWxlLm1hZT4nLCAnLW9tYWUnLCAnPG91dGZpbGUubWFlPic=

> <r_lp_tautomer_probability>
1

> <r_epik_Ionization_Penalty>
1.17551e-06

> <r_epik_Ionization_Penalty_Charging>
1.78841e-08

> <r_epik_Ionization_Penalty_Neutral>
1.15762e-06

> <r_epik_State_Penalty>
-0

> <r_epik_Charging_Adjusted_Penalty>
1.78841e-08

> <i_epik_Tot_Q>
0

> <i_epik_Tot_abs_Q>
0

> <r_epik_Metal_State_Penalty>
-0

> <b_epik_Metal_Only>
0

> <s_lp_Force_Field>
OPLS_2005

> <r_lp_Energy>
32.8711

> <b_lp_Chiralities_Consistent>
1

> <s_lp_Variant>
AV-unprocessed.smi:2741-2

> <Gold.Version>
5.8.1

> <Gold.Id.Protein>
6NUR|6NUR_protein|mol2

> <Gold.PLP.Fitness>
53.1966

> <Gold.PLP.PLP>
-49.5956

> <Gold.PLP.part.hbond>
-2.3660

> <Gold.PLP.part.metal>
0.0000

> <Gold.PLP.part.buried>
-4.7745

> <Gold.PLP.part.nonpolar>
-42.5230

> <Gold.PLP.part.repulsive>
0.0300

> <Gold.PLP.ligand.clash>
0.1423

> <Gold.PLP.ligand.torsion>
1.1656

> <Gold.PLP.Chemscore.Hbond>
2.0000

> <Gold.PLP.Chemscore.CHOScore>
0.0000

> <Gold.PLP.Chemscore.Metal>
0.0000

> <Gold.PLP.Chemscore.Internal.Correction>
0.0743

> <Gold.Rescore>
     Score         DG    S(hbond)    S(metal)    S(lipo)     H(rot)  DE(clash)    DE(int)     intcor
     16.03     -17.11       1.96        0.00      97.87       2.48       0.03       1.05       ----

> <Gold.Chemscore.Fitness>
16.0344

> <Gold.Chemscore.DG>
-17.1110

> <Gold.Chemscore.ZeroCoef>
-5.4800

> <Gold.Chemscore.Hbond>
1.9553

> <Gold.Chemscore.Metal>
0.0000

> <Gold.Chemscore.Lipo>
97.8721

> <Gold.Chemscore.Internal_Hbond>
0.0000

> <Gold.Chemscore.DEClash>
0.0263

> <Gold.Chemscore.DEInternal>
1.0503

> <Gold.Chemscore.Rot>
2.4807

> <Gold.Chemscore.Internal.Correction>
   9.000000E+99

> <Gold.Chemscore.Hbond.Weighted>
-6.5306

> <Gold.Chemscore.Metal.Weighted>
-0.0000

> <Gold.Chemscore.Lipo.Weighted>
-11.4510

> <Gold.Chemscore.Internal_Hbond.Weighted>
0.0000

> <Gold.Chemscore.DEClash.Weighted>
0.0263

> <Gold.Chemscore.DEInternal.Weighted>
1.0503

> <Gold.Chemscore.Rot.Weighted>
6.3507

> <Gold.Chemscore.Internal.Correction.Weighted>
   9.000000E+99

> <Gold.Protein.RotatedTorsions>
[ 6907 6896 6895 6894 ] final  -75.45 input  -60.11 | X-H torsion
[ 7974 7965 7964 7962 ] final  -21.33 input  175.53 | X-H torsion
[ 8008 7997 7996 7995 ] final  -46.38 input   59.86 | X-H torsion
[ 10167 10162 10161 10158 ] final  -94.76 input  -65.29 | X-H torsion
[ 10718 10713 10712 10709 ] final  -84.31 input   66.30 | X-H torsion
[ 10763 10752 10751 10750 ] final -179.71 input  -60.55 | X-H torsion
[ 11005 11000 10999 10996 ] final   95.89 input  -57.11 | X-H torsion

> <Gold.Protein.ActiveResidues>
 VAL166  LYS551  ARG553  GLY616  TRP617  ASP618  TYR619  PRO620  LYS621  CYS622 
 ASP623  PHE694  ASN695  SER759  ASP760  ASP761  ALA762  ILE779  LEU786  VAL792 
 PHE793  MET794  SER795  GLU796  ALA797  LYS798  CYS799  TRP800  GLU811  SER814 

> <Gold.Protein.RotatedAtoms>
  150.7058  134.4719  159.5428 H   0  0  0  0  0  0  0  0  0  0  0  0  # atno 6907 bound_to 6896
  152.2373  134.8260  160.0474 H   0  0  0  0  0  0  0  0  0  0  0  0  # atno 6908 bound_to 6896
  151.9055  133.3513  159.3882 H   0  0  0  0  0  0  0  0  0  0  0  0  # atno 6909 bound_to 6896
  146.1739  140.4326  142.8521 H   0  0  0  0  0  0  0  0  0  0  0  0  # atno 7974 bound_to 7965
  154.4007  140.1373  156.4001 H   0  0  0  0  0  0  0  0  0  0  0  0  # atno 8008 bound_to 7997
  155.7832  140.3481  155.5288 H   0  0  0  0  0  0  0  0  0  0  0  0  # atno 8009 bound_to 7997
  155.8653  140.0963  157.1577 H   0  0  0  0  0  0  0  0  0  0  0  0  # atno 8010 bound_to 7997
  140.3111  143.3104  152.0147 H   0  0  0  0  0  0  0  0  0  0  0  0  # atno 10167 bound_to 10162
  156.0008  130.4693  150.4390 H   0  0  0  0  0  0  0  0  0  0  0  0  # atno 10718 bound_to 10713
  154.5317  135.2800  155.1175 H   0  0  0  0  0  0  0  0  0  0  0  0  # atno 10763 bound_to 10752
  154.2692  135.6307  153.5307 H   0  0  0  0  0  0  0  0  0  0  0  0  # atno 10764 bound_to 10752
  152.9958  135.5624  154.5832 H   0  0  0  0  0  0  0  0  0  0  0  0  # atno 10765 bound_to 10752
  139.8785  134.8922  156.4077 H   0  0  0  0  0  0  0  0  0  0  0  0  # atno 11005 bound_to 11000
  144.8205  140.6542  143.6356 LP  0  0  0  0  0  0  0  0  0  0  0  0  # atno 17320 bound_to 7965
  145.4266  139.1555  143.4045 LP  0  0  0  0  0  0  0  0  0  0  0  0  # atno 17321 bound_to 7965
  139.4893  144.6384  151.6929 LP  0  0  0  0  0  0  0  0  0  0  0  0  # atno 17342 bound_to 10162
  140.5567  144.0336  150.6151 LP  0  0  0  0  0  0  0  0  0  0  0  0  # atno 17343 bound_to 10162
  157.2432  131.0530  151.2424 LP  0  0  0  0  0  0  0  0  0  0  0  0  # atno 17370 bound_to 10713
  157.3600  130.7126  149.6495 LP  0  0  0  0  0  0  0  0  0  0  0  0  # atno 17371 bound_to 10713
  140.9222  133.7637  155.9921 LP  0  0  0  0  0  0  0  0  0  0  0  0  # atno 17394 bound_to 11000
  140.8426  134.3048  157.5307 LP  0  0  0  0  0  0  0  0  0  0  0  0  # atno 17395 bound_to 11000

$$$$
