AV-unprocessed.smi:702|AV-procd|sdf|3422|dock2
  -GOLD-   22720 0403D 1   1.00000     0.00000
 Structure written by MMmdl.
 50 52  0  0  0  0  0  0  0  0  2 V2000
  144.5150  135.9886  151.7489 C   0  0  0  0  0  0  0  0  0  0  0  0
  145.6039  135.4672  152.7145 C   0  0  2  0  0  0  0  0  0  0  0  0
  146.6590  136.4822  152.8178 N   0  0  0  0  0  0  0  0  0  0  0  0
  146.5176  137.7171  153.3216 C   0  0  0  0  0  0  0  0  0  0  0  0
  145.4582  138.1529  153.7717 O   0  0  0  0  0  0  0  0  0  0  0  0
  147.6681  138.4083  153.2464 N   0  0  0  0  0  0  0  0  0  0  0  0
  147.9194  139.7420  153.6681 C   0  0  0  0  0  0  0  0  0  0  0  0
  149.1647  140.0171  154.2754 C   0  0  0  0  0  0  0  0  0  0  0  0
  149.4474  141.3249  154.7204 C   0  0  0  0  0  0  0  0  0  0  0  0
  148.5240  142.2993  154.5745 N   0  3  0  0  0  0  0  0  0  0  0  0
  147.3142  142.0809  154.0158 C   0  0  0  0  0  0  0  0  0  0  0  0
  146.9753  140.7938  153.5511 C   0  0  0  0  0  0  0  0  0  0  0  0
  146.1796  134.0507  152.3331 C   0  0  0  0  0  0  0  0  0  0  0  0
  147.3789  133.7018  153.1581 N   0  0  0  0  0  0  0  0  0  0  0  0
  147.1931  133.8107  154.6143 C   0  0  0  0  0  0  0  0  0  0  0  0
  148.5044  133.5837  155.3838 C   0  0  0  0  0  0  0  0  0  0  0  0
  149.0251  132.3004  155.0620 O   0  0  0  0  0  0  0  0  0  0  0  0
  149.2692  132.1496  153.6695 C   0  0  0  0  0  0  0  0  0  0  0  0
  147.9690  132.3831  152.8800 C   0  0  0  0  0  0  0  0  0  0  0  0
  145.0289  132.9997  152.4984 C   0  0  0  0  0  0  0  0  0  0  0  0
  144.6522  132.4920  151.1037 C   0  0  0  0  0  0  0  0  0  0  0  0
  145.8928  132.7163  150.2537 C   0  0  0  0  0  0  0  0  0  0  0  0
  146.4954  134.0090  150.8032 C   0  0  0  0  0  0  0  0  0  0  0  0
  143.6695  135.3056  151.6738 H   0  0  0  0  0  0  0  0  0  0  0  0
  144.9001  136.1414  150.7413 H   0  0  0  0  0  0  0  0  0  0  0  0
  144.1170  136.9443  152.0916 H   0  0  0  0  0  0  0  0  0  0  0  0
  145.1569  135.3877  153.7058 H   0  0  0  0  0  0  0  0  0  0  0  0
  147.5681  136.2149  152.4696 H   0  0  0  0  0  0  0  0  0  0  0  0
  148.4305  137.9515  152.7672 H   0  0  0  0  0  0  0  0  0  0  0  0
  149.9031  139.2372  154.3936 H   0  0  0  0  0  0  0  0  0  0  0  0
  150.3769  141.6180  155.1864 H   0  0  0  0  0  0  0  0  0  0  0  0
  146.6553  142.9352  153.9629 H   0  0  0  0  0  0  0  0  0  0  0  0
  145.9961  140.6343  153.1255 H   0  0  0  0  0  0  0  0  0  0  0  0
  146.8011  134.7822  154.9040 H   0  0  0  0  0  0  0  0  0  0  0  0
  146.4649  133.0751  154.9561 H   0  0  0  0  0  0  0  0  0  0  0  0
  149.2357  134.3561  155.1407 H   0  0  0  0  0  0  0  0  0  0  0  0
  148.3269  133.6360  156.4579 H   0  0  0  0  0  0  0  0  0  0  0  0
  150.0429  132.8496  153.3505 H   0  0  0  0  0  0  0  0  0  0  0  0
  149.6501  131.1456  153.4826 H   0  0  0  0  0  0  0  0  0  0  0  0
  147.2611  131.5901  153.1196 H   0  0  0  0  0  0  0  0  0  0  0  0
  148.2151  132.2725  151.8266 H   0  0  0  0  0  0  0  0  0  0  0  0
  145.3154  132.1610  153.1289 H   0  0  0  0  0  0  0  0  0  0  0  0
  144.1418  133.3961  152.9910 H   0  0  0  0  0  0  0  0  0  0  0  0
  144.3326  131.4496  151.1099 H   0  0  0  0  0  0  0  0  0  0  0  0
  143.8289  133.0876  150.7075 H   0  0  0  0  0  0  0  0  0  0  0  0
  146.5884  131.8883  150.3908 H   0  0  0  0  0  0  0  0  0  0  0  0
  145.6643  132.7815  149.1895 H   0  0  0  0  0  0  0  0  0  0  0  0
  146.0349  134.8445  150.2764 H   0  0  0  0  0  0  0  0  0  0  0  0
  147.5563  134.0769  150.5667 H   0  0  0  0  0  0  0  0  0  0  0  0
  148.7478  143.2388  154.9043 H   0  0  0  0  0  0  0  0  0  0  0  0
  1  2  1  0  0  0  0
  1 24  1  0  0  0  0
  1 25  1  0  0  0  0
  1 26  1  0  0  0  0
  2  3  1  0  0  0  0
  2 13  1  0  0  0  0
  2 27  1  0  0  0  0
  3  4  1  0  0  0  0
  3 28  1  0  0  0  0
  4  5  2  0  0  0  0
  4  6  1  0  0  0  0
  6  7  1  0  0  0  0
  6 29  1  0  0  0  0
  7 12  1  0  0  0  0
  7  8  2  0  0  0  0
  8  9  1  0  0  0  0
  8 30  1  0  0  0  0
  9 10  2  0  0  0  0
  9 31  1  0  0  0  0
 10 11  1  0  0  0  0
 10 50  1  0  0  0  0
 11 12  2  0  0  0  0
 11 32  1  0  0  0  0
 12 33  1  0  0  0  0
 13 23  1  0  0  0  0
 13 14  1  0  0  0  0
 13 20  1  0  0  0  0
 14 19  1  0  0  0  0
 14 15  1  0  0  0  0
 15 16  1  0  0  0  0
 15 34  1  0  0  0  0
 15 35  1  0  0  0  0
 16 17  1  0  0  0  0
 16 36  1  0  0  0  0
 16 37  1  0  0  0  0
 17 18  1  0  0  0  0
 18 19  1  0  0  0  0
 18 38  1  0  0  0  0
 18 39  1  0  0  0  0
 19 40  1  0  0  0  0
 19 41  1  0  0  0  0
 20 21  1  0  0  0  0
 20 42  1  0  0  0  0
 20 43  1  0  0  0  0
 21 22  1  0  0  0  0
 21 44  1  0  0  0  0
 21 45  1  0  0  0  0
 22 23  1  0  0  0  0
 22 46  1  0  0  0  0
 22 47  1  0  0  0  0
 23 48  1  0  0  0  0
 23 49  1  0  0  0  0
M  CHG  1  10   1
M  END
> <s_m_source_file>
AV-unprocessed.smi

> <i_m_source_file_index>
702

> <i_lp_mmshare_version>
43012

> <i_f3d_flags>
0

> <s_epik_input>
W0NIMl0xW0NIMl1PW0NIMl1bQ0gyXU4xQzIoW0NIMl1bQ0gyXVtDSDJdW0NIMl0yKVtDQEhdKFtDSDNdKVtOSF1DKD1PKVtOSF1jM1tjSF1bY0hdbltjSF1bY0hdMw==

> <s_epik_cmdline>
J2VwaWtfcHl0aG9uJywgJy1waCcsICc3LjAnLCAnLXRuJywgJzgnLCAnLW1hJywgJzIwMCcsICctbWV0YWxfYmluZGluZycsICctaW1hZScsICc8aW5maWxlLm1hZT4nLCAnLW9tYWUnLCAnPG91dGZpbGUubWFlPic=

> <r_epik_Ionization_Penalty>
1.54019

> <r_epik_Ionization_Penalty_Charging>
1.02845

> <r_epik_Ionization_Penalty_Neutral>
0.511739

> <r_epik_State_Penalty>
1.62583

> <r_epik_Charging_Adjusted_Penalty>
2.65428

> <i_epik_Tot_Q>
1

> <i_epik_Tot_abs_Q>
1

> <r_epik_Metal_State_Penalty>
1.71803

> <b_epik_Metal_Only>
0

> <s_lp_Force_Field>
OPLS_2005

> <r_lp_Energy>
73.3397

> <b_lp_Chiralities_Consistent>
1

> <s_lp_Variant>
AV-unprocessed.smi:702-7

> <Gold.Version>
5.8.1

> <Gold.Id.Protein>
6NUR|6NUR_protein|mol2

> <Gold.PLP.Fitness>
47.2498

> <Gold.PLP.PLP>
-36.5695

> <Gold.PLP.part.hbond>
-2.9545

> <Gold.PLP.part.metal>
0.0000

> <Gold.PLP.part.buried>
-4.8731

> <Gold.PLP.part.nonpolar>
-28.9005

> <Gold.PLP.part.repulsive>
0.5590

> <Gold.PLP.ligand.clash>
0.0000

> <Gold.PLP.ligand.torsion>
0.6087

> <Gold.PLP.Chemscore.Hbond>
3.8960

> <Gold.PLP.Chemscore.CHOScore>
0.0000

> <Gold.PLP.Chemscore.Metal>
0.0000

> <Gold.Chemscore.Hbonds>
donor molecule, donor type, donor heavy atom, donor atom, acceptor molecule, acceptor atom, score
      L1  H     3    28       P1  7948  0.93
      L1  H     6    29       P1  7948  0.88
      L1  H    10    50       P1  8028  2.00

> <Gold.PLP.Chemscore.Internal.Correction>
0.2097

> <Gold.Rescore>
     Score         DG    S(hbond)    S(metal)    S(lipo)     H(rot)  DE(clash)    DE(int)     intcor
     20.76     -22.18       2.90        0.00      91.30       1.44       0.02       1.40       ----

> <Gold.Chemscore.Fitness>
20.7572

> <Gold.Chemscore.DG>
-22.1755

> <Gold.Chemscore.ZeroCoef>
-5.4800

> <Gold.Chemscore.Hbond>
2.9035

> <Gold.Chemscore.Metal>
0.0000

> <Gold.Chemscore.Lipo>
91.3033

> <Gold.Chemscore.Internal_Hbond>
0.0000

> <Gold.Chemscore.DEClash>
0.0182

> <Gold.Chemscore.DEInternal>
1.4001

> <Gold.Chemscore.Rot>
1.4394

> <Gold.Chemscore.Internal.Correction>
   9.000000E+99

> <Gold.Chemscore.Hbonds>
donor molecule, donor type, donor heavy atom, donor atom, acceptor molecule, acceptor atom, score
      L1  H     3    28       P1  7948  0.88
      L1  H     6    29       P1  7948  0.84
      L1  H    10    50       P1  8028  1.00

> <Gold.Chemscore.Hbond.Weighted>
-9.6979

> <Gold.Chemscore.Metal.Weighted>
-0.0000

> <Gold.Chemscore.Lipo.Weighted>
-10.6825

> <Gold.Chemscore.Internal_Hbond.Weighted>
0.0000

> <Gold.Chemscore.DEClash.Weighted>
0.0182

> <Gold.Chemscore.DEInternal.Weighted>
1.4001

> <Gold.Chemscore.Rot.Weighted>
3.6848

> <Gold.Chemscore.Internal.Correction.Weighted>
   9.000000E+99

> <Gold.Protein.RotatedTorsions>
[ 6907 6896 6895 6894 ] final  -21.32 input  -60.11 | X-H torsion
[ 7974 7965 7964 7962 ] final  -41.05 input  175.53 | X-H torsion
[ 8008 7997 7996 7995 ] final -140.38 input   59.86 | X-H torsion
[ 10167 10162 10161 10158 ] final   40.28 input  -65.29 | X-H torsion
[ 10718 10713 10712 10709 ] final  -20.47 input   66.30 | X-H torsion
[ 10763 10752 10751 10750 ] final  -81.47 input  -60.55 | X-H torsion
[ 11005 11000 10999 10996 ] final   27.91 input  -57.11 | X-H torsion

> <Gold.Protein.ActiveResidues>
 VAL166  LYS551  ARG553  GLY616  TRP617  ASP618  TYR619  PRO620  LYS621  CYS622 
 ASP623  PHE694  ASN695  SER759  ASP760  ASP761  ALA762  ILE779  LEU786  VAL792 
 PHE793  MET794  SER795  GLU796  ALA797  LYS798  CYS799  TRP800  GLU811  SER814 

> <Gold.Protein.RotatedAtoms>
  151.2350  135.0568  159.9002 H   0  0  0  0  0  0  0  0  0  0  0  0  # atno 6907 bound_to 6896
  152.5400  134.0496  159.8114 H   0  0  0  0  0  0  0  0  0  0  0  0  # atno 6908 bound_to 6896
  151.0681  133.5440  159.2660 H   0  0  0  0  0  0  0  0  0  0  0  0  # atno 6909 bound_to 6896
  146.0248  140.6806  142.9161 H   0  0  0  0  0  0  0  0  0  0  0  0  # atno 7974 bound_to 7965
  155.4604  140.0545  157.2991 H   0  0  0  0  0  0  0  0  0  0  0  0  # atno 8008 bound_to 7997
  154.4740  140.2052  155.9880 H   0  0  0  0  0  0  0  0  0  0  0  0  # atno 8009 bound_to 7997
  156.1101  140.3205  155.8066 H   0  0  0  0  0  0  0  0  0  0  0  0  # atno 8010 bound_to 7997
  140.3757  144.2046  150.6131 H   0  0  0  0  0  0  0  0  0  0  0  0  # atno 10167 bound_to 10162
  156.5314  130.4656  149.6545 H   0  0  0  0  0  0  0  0  0  0  0  0  # atno 10718 bound_to 10713
  154.5640  135.5625  153.7033 H   0  0  0  0  0  0  0  0  0  0  0  0  # atno 10763 bound_to 10752
  153.0027  135.6281  154.2206 H   0  0  0  0  0  0  0  0  0  0  0  0  # atno 10764 bound_to 10752
  154.2144  135.2872  155.2927 H   0  0  0  0  0  0  0  0  0  0  0  0  # atno 10765 bound_to 10752
  140.3212  134.2541  155.7717 H   0  0  0  0  0  0  0  0  0  0  0  0  # atno 11005 bound_to 11000
  144.7005  140.3630  143.7160 LP  0  0  0  0  0  0  0  0  0  0  0  0  # atno 17320 bound_to 7965
  145.7136  139.1691  143.2525 LP  0  0  0  0  0  0  0  0  0  0  0  0  # atno 17321 bound_to 7965
  140.4988  143.2324  151.8709 LP  0  0  0  0  0  0  0  0  0  0  0  0  # atno 17342 bound_to 10162
  139.4799  144.5083  151.8968 LP  0  0  0  0  0  0  0  0  0  0  0  0  # atno 17343 bound_to 10162
  156.3056  130.7201  151.2082 LP  0  0  0  0  0  0  0  0  0  0  0  0  # atno 17370 bound_to 10713
  157.7421  131.0495  150.5049 LP  0  0  0  0  0  0  0  0  0  0  0  0  # atno 17371 bound_to 10713
  141.2086  133.7773  157.0048 LP  0  0  0  0  0  0  0  0  0  0  0  0  # atno 17394 bound_to 11000
  140.0940  134.9575  157.1821 LP  0  0  0  0  0  0  0  0  0  0  0  0  # atno 17395 bound_to 11000

$$$$
