AV-unprocessed.smi:1426|AV-procd|sdf|5807|dock1
  -GOLD-   22720 5463D 1   1.00000     0.00000
 Structure written by MMmdl.
 44 46  0  0  0  0  0  0  0  0  2 V2000
  150.7877  133.8372  155.1522 O   0  0  0  0  0  0  0  0  0  0  0  0
  150.1521  134.4666  154.3066 C   0  0  0  0  0  0  0  0  0  0  0  0
  150.2921  135.7835  154.1015 N   0  0  0  0  0  0  0  0  0  0  0  0
  151.1978  136.6554  154.8429 C   0  0  0  0  0  0  0  0  0  0  0  0
  151.7247  137.8233  153.9806 C   0  0  2  0  0  0  0  0  0  0  0  0
  153.0554  138.3867  154.4600 C   0  0  0  0  0  0  0  0  0  0  0  0
  152.6587  139.4909  155.4449 C   0  0  0  0  0  0  0  0  0  0  0  0
  151.2582  139.6912  155.2814 O   0  0  0  0  0  0  0  0  0  0  0  0
  150.8349  139.0597  154.0829 C   0  0  0  0  0  0  0  0  0  0  0  0
  149.2216  133.9433  153.4909 N   0  0  0  0  0  0  0  0  0  0  0  0
  148.7643  132.5961  153.4282 C   0  0  0  0  0  0  0  0  0  0  0  0
  149.4439  131.5542  154.1107 C   0  0  0  0  0  0  0  0  0  0  0  0
  148.9555  130.2357  154.0465 C   0  0  0  0  0  0  0  0  0  0  0  0
  147.7962  129.9759  153.2964 C   0  0  0  0  0  0  0  0  0  0  0  0
  147.1839  130.9840  152.6419 N   0  3  0  0  0  0  0  0  0  0  0  0
  147.6133  132.2708  152.6526 C   0  0  0  0  0  0  0  0  0  0  0  0
  146.8759  133.2178  151.9058 N   0  0  0  0  0  0  0  0  0  0  0  0
  146.3285  134.4038  152.5543 C   0  0  0  0  0  0  0  0  0  0  0  0
  145.3375  134.9817  151.5481 C   0  0  0  0  0  0  0  0  0  0  0  0
  144.7620  133.7270  150.8978 C   0  0  0  0  0  0  0  0  0  0  0  0
  145.9388  132.7448  150.8915 C   0  0  0  0  0  0  0  0  0  0  0  0
  149.7287  136.2198  153.3864 H   0  0  0  0  0  0  0  0  0  0  0  0
  150.6906  137.0397  155.7295 H   0  0  0  0  0  0  0  0  0  0  0  0
  152.0283  136.0492  155.2064 H   0  0  0  0  0  0  0  0  0  0  0  0
  151.7947  137.4973  152.9419 H   0  0  0  0  0  0  0  0  0  0  0  0
  153.7151  137.6422  154.9062 H   0  0  0  0  0  0  0  0  0  0  0  0
  153.5873  138.8285  153.6163 H   0  0  0  0  0  0  0  0  0  0  0  0
  152.8599  139.1984  156.4758 H   0  0  0  0  0  0  0  0  0  0  0  0
  153.2025  140.4141  155.2426 H   0  0  0  0  0  0  0  0  0  0  0  0
  151.0160  139.7327  153.2434 H   0  0  0  0  0  0  0  0  0  0  0  0
  149.7701  138.8252  154.1043 H   0  0  0  0  0  0  0  0  0  0  0  0
  148.7131  134.6027  152.9204 H   0  0  0  0  0  0  0  0  0  0  0  0
  150.3405  131.7445  154.6809 H   0  0  0  0  0  0  0  0  0  0  0  0
  149.4636  129.4369  154.5669 H   0  0  0  0  0  0  0  0  0  0  0  0
  147.3473  128.9985  153.1926 H   0  0  0  0  0  0  0  0  0  0  0  0
  145.8020  134.1297  153.4695 H   0  0  0  0  0  0  0  0  0  0  0  0
  147.1125  135.1180  152.8072 H   0  0  0  0  0  0  0  0  0  0  0  0
  144.5773  135.6105  152.0124 H   0  0  0  0  0  0  0  0  0  0  0  0
  145.8658  135.5795  150.8038 H   0  0  0  0  0  0  0  0  0  0  0  0
  143.9569  133.3314  151.5186 H   0  0  0  0  0  0  0  0  0  0  0  0
  144.3581  133.9106  149.9018 H   0  0  0  0  0  0  0  0  0  0  0  0
  146.4331  132.7632  149.9195 H   0  0  0  0  0  0  0  0  0  0  0  0
  145.6042  131.7244  151.0857 H   0  0  0  0  0  0  0  0  0  0  0  0
  146.3503  130.7617  152.0977 H   0  0  0  0  0  0  0  0  0  0  0  0
  1  2  2  0  0  0  0
  2  3  1  0  0  0  0
  2 10  1  0  0  0  0
  3  4  1  0  0  0  0
  3 22  1  0  0  0  0
  4  5  1  0  0  0  0
  4 23  1  0  0  0  0
  4 24  1  0  0  0  0
  5  9  1  0  0  0  0
  5  6  1  0  0  0  0
  5 25  1  0  0  0  0
  6  7  1  0  0  0  0
  6 26  1  0  0  0  0
  6 27  1  0  0  0  0
  7  8  1  0  0  0  0
  7 28  1  0  0  0  0
  7 29  1  0  0  0  0
  8  9  1  0  0  0  0
  9 30  1  0  0  0  0
  9 31  1  0  0  0  0
 10 11  1  0  0  0  0
 10 32  1  0  0  0  0
 11 16  1  0  0  0  0
 11 12  2  0  0  0  0
 12 13  1  0  0  0  0
 12 33  1  0  0  0  0
 13 14  2  0  0  0  0
 13 34  1  0  0  0  0
 14 15  1  0  0  0  0
 14 35  1  0  0  0  0
 15 16  2  0  0  0  0
 15 44  1  0  0  0  0
 16 17  1  0  0  0  0
 17 21  1  0  0  0  0
 17 18  1  0  0  0  0
 18 19  1  0  0  0  0
 18 36  1  0  0  0  0
 18 37  1  0  0  0  0
 19 20  1  0  0  0  0
 19 38  1  0  0  0  0
 19 39  1  0  0  0  0
 20 21  1  0  0  0  0
 20 40  1  0  0  0  0
 20 41  1  0  0  0  0
 21 42  1  0  0  0  0
 21 43  1  0  0  0  0
M  CHG  1  15   1
M  END
> <s_m_source_file>
AV-unprocessed.smi

> <i_m_source_file_index>
1426

> <i_lp_mmshare_version>
43012

> <i_f3d_flags>
0

> <s_epik_input>
W0NIMl0xT1tDSDJdW0NIMl1bQ0BIXTFbQ0gyXVtOSF1DKD1PKVtOSF1jMltjSF1bY0hdW2NIXW5jMk4zW0NIMl1bQ0gyXVtDSDJdW0NIMl0z

> <s_epik_cmdline>
J2VwaWtfcHl0aG9uJywgJy1waCcsICc3LjAnLCAnLXRuJywgJzgnLCAnLW1hJywgJzIwMCcsICctbWV0YWxfYmluZGluZycsICctaW1hZScsICc8aW5maWxlLm1hZT4nLCAnLW9tYWUnLCAnPG91dGZpbGUubWFlPic=

> <r_lp_tautomer_probability>
0.999994

> <r_epik_Ionization_Penalty>
1.10677

> <r_epik_Ionization_Penalty_Charging>
1.10675

> <r_epik_Ionization_Penalty_Neutral>
2.02663e-05

> <r_epik_State_Penalty>
1.16438

> <r_epik_Charging_Adjusted_Penalty>
2.27113

> <i_epik_Tot_Q>
1

> <i_epik_Tot_abs_Q>
1

> <r_epik_Metal_State_Penalty>
1.25078

> <b_epik_Metal_Only>
0

> <s_lp_Force_Field>
OPLS_2005

> <r_lp_Energy>
54.6113

> <b_lp_Chiralities_Consistent>
1

> <s_lp_Variant>
AV-unprocessed.smi:1426-3

> <Gold.Version>
5.8.1

> <Gold.Id.Protein>
6NUR|6NUR_protein|mol2

> <Gold.PLP.Fitness>
43.6905

> <Gold.PLP.PLP>
-39.2050

> <Gold.PLP.part.hbond>
-3.7436

> <Gold.PLP.part.metal>
0.0000

> <Gold.PLP.part.buried>
-2.3024

> <Gold.PLP.part.nonpolar>
-33.4534

> <Gold.PLP.part.repulsive>
0.2988

> <Gold.PLP.ligand.clash>
0.0000

> <Gold.PLP.ligand.torsion>
0.7653

> <Gold.PLP.Chemscore.Hbond>
1.8640

> <Gold.PLP.Chemscore.CHOScore>
0.0000

> <Gold.PLP.Chemscore.Metal>
0.0000

> <Gold.Chemscore.Hbonds>
donor molecule, donor type, donor heavy atom, donor atom, acceptor molecule, acceptor atom, score
      L1  H     3    22       P1  7948  0.90
      L1  H    10    32       P1  7948  0.65

> <Gold.PLP.Chemscore.Internal.Correction>
0.4242

> <Gold.Rescore>
     Score         DG    S(hbond)    S(metal)    S(lipo)     H(rot)  DE(clash)    DE(int)     intcor
     12.67     -14.89       1.10        0.00      79.76       1.40       0.05       2.16       ----

> <Gold.Chemscore.Fitness>
12.6718

> <Gold.Chemscore.DG>
-14.8854

> <Gold.Chemscore.ZeroCoef>
-5.4800

> <Gold.Chemscore.Hbond>
1.0970

> <Gold.Chemscore.Metal>
0.0000

> <Gold.Chemscore.Lipo>
79.7552

> <Gold.Chemscore.Internal_Hbond>
0.0000

> <Gold.Chemscore.DEClash>
0.0506

> <Gold.Chemscore.DEInternal>
2.1630

> <Gold.Chemscore.Rot>
1.4023

> <Gold.Chemscore.Internal.Correction>
   9.000000E+99

> <Gold.Chemscore.Hbonds>
donor molecule, donor type, donor heavy atom, donor atom, acceptor molecule, acceptor atom, score
      L1  H     3    22       P1  7948  0.17
      L1  H    10    32       P1  7948  0.10

> <Gold.Chemscore.Hbond.Weighted>
-3.6639

> <Gold.Chemscore.Metal.Weighted>
-0.0000

> <Gold.Chemscore.Lipo.Weighted>
-9.3314

> <Gold.Chemscore.Internal_Hbond.Weighted>
0.0000

> <Gold.Chemscore.DEClash.Weighted>
0.0506

> <Gold.Chemscore.DEInternal.Weighted>
2.1630

> <Gold.Chemscore.Rot.Weighted>
3.5898

> <Gold.Chemscore.Internal.Correction.Weighted>
   9.000000E+99

> <Gold.Protein.RotatedTorsions>
[ 6907 6896 6895 6894 ] final  178.76 input  -60.11 | X-H torsion
[ 7974 7965 7964 7962 ] final  125.68 input  175.53 | X-H torsion
[ 8008 7997 7996 7995 ] final  -82.13 input   59.86 | X-H torsion
[ 10167 10162 10161 10158 ] final   63.13 input  -65.29 | X-H torsion
[ 10718 10713 10712 10709 ] final   71.25 input   66.30 | X-H torsion
[ 10763 10752 10751 10750 ] final  162.14 input  -60.55 | X-H torsion
[ 11005 11000 10999 10996 ] final -131.12 input  -57.11 | X-H torsion

> <Gold.Protein.ActiveResidues>
 VAL166  LYS551  ARG553  GLY616  TRP617  ASP618  TYR619  PRO620  LYS621  CYS622 
 ASP623  PHE694  ASN695  SER759  ASP760  ASP761  ALA762  ILE779  LEU786  VAL792 
 PHE793  MET794  SER795  GLU796  ALA797  LYS798  CYS799  TRP800  GLU811  SER814 

> <Gold.Protein.RotatedAtoms>
  151.6825  133.3312  159.3222 H   0  0  0  0  0  0  0  0  0  0  0  0  # atno 6907 bound_to 6896
  150.7816  134.6768  159.6431 H   0  0  0  0  0  0  0  0  0  0  0  0  # atno 6908 bound_to 6896
  152.3875  134.6498  160.0172 H   0  0  0  0  0  0  0  0  0  0  0  0  # atno 6909 bound_to 6896
  145.0702  139.3736  143.4961 H   0  0  0  0  0  0  0  0  0  0  0  0  # atno 7974 bound_to 7965
  154.6054  140.0637  156.9424 H   0  0  0  0  0  0  0  0  0  0  0  0  # atno 8008 bound_to 7997
  155.2062  140.3319  155.4317 H   0  0  0  0  0  0  0  0  0  0  0  0  # atno 8009 bound_to 7997
  156.2344  140.1856  156.7141 H   0  0  0  0  0  0  0  0  0  0  0  0  # atno 8010 bound_to 7997
  140.1364  144.4595  150.6835 H   0  0  0  0  0  0  0  0  0  0  0  0  # atno 10167 bound_to 10162
  157.6442  130.9519  150.0764 H   0  0  0  0  0  0  0  0  0  0  0  0  # atno 10718 bound_to 10713
  154.2738  135.2765  155.2727 H   0  0  0  0  0  0  0  0  0  0  0  0  # atno 10763 bound_to 10752
  154.5278  135.5738  153.6737 H   0  0  0  0  0  0  0  0  0  0  0  0  # atno 10764 bound_to 10752
  152.9940  135.6220  154.2894 H   0  0  0  0  0  0  0  0  0  0  0  0  # atno 10765 bound_to 10752
  140.9286  134.1349  157.4253 H   0  0  0  0  0  0  0  0  0  0  0  0  # atno 11005 bound_to 11000
  146.3528  140.0444  142.8640 LP  0  0  0  0  0  0  0  0  0  0  0  0  # atno 17320 bound_to 7965
  145.1301  140.9513  143.4549 LP  0  0  0  0  0  0  0  0  0  0  0  0  # atno 17321 bound_to 7965
  140.6786  143.2316  151.5442 LP  0  0  0  0  0  0  0  0  0  0  0  0  # atno 17342 bound_to 10162
  139.5494  144.2436  152.1502 LP  0  0  0  0  0  0  0  0  0  0  0  0  # atno 17343 bound_to 10162
  156.1753  130.3648  149.9109 LP  0  0  0  0  0  0  0  0  0  0  0  0  # atno 17370 bound_to 10713
  156.7075  130.8957  151.3606 LP  0  0  0  0  0  0  0  0  0  0  0  0  # atno 17371 bound_to 10713
  139.8791  134.9997  156.5970 LP  0  0  0  0  0  0  0  0  0  0  0  0  # atno 17394 bound_to 11000
  140.7892  133.8596  155.8632 LP  0  0  0  0  0  0  0  0  0  0  0  0  # atno 17395 bound_to 11000

$$$$
