AV-unprocessed.smi:459|AV-procd|sdf|2624|dock1
  -GOLD-   2262023 23D 1   1.00000     0.00000
 Structure written by MMmdl.
 43 45  0  0  0  0  0  0  0  0  1 V2000
  155.9810  138.9254  165.6626 C   0  0  0  0  0  0  0  0  0  0  0  0
  155.9563  137.7627  164.8472 O   0  0  0  0  0  0  0  0  0  0  0  0
  155.3087  137.8363  163.6326 C   0  0  0  0  0  0  0  0  0  0  0  0
  154.6748  136.7395  162.9991 C   0  0  0  0  0  0  0  0  0  0  0  0
  154.0355  136.9079  161.7558 C   0  0  0  0  0  0  0  0  0  0  0  0
  154.0126  138.1630  161.1165 C   0  0  0  0  0  0  0  0  0  0  0  0
  153.3649  138.2352  159.9029 O   0  0  0  0  0  0  0  0  0  0  0  0
  153.2321  139.5073  159.2822 C   0  0  0  0  0  0  0  0  0  0  0  0
  151.9616  139.5278  158.4207 C   0  0  0  0  0  0  0  0  0  0  0  0
  151.6793  140.8579  157.8993 N   0  0  0  0  0  0  0  0  0  0  0  0
  151.1394  141.2077  156.7028 C   0  0  0  0  0  0  0  0  0  0  0  0
  150.7116  140.2013  155.6734 C   0  0  0  0  0  0  0  0  0  0  0  0
  151.7571  139.1023  155.4257 C   0  0  0  0  0  0  0  0  0  0  0  0
  152.8748  139.6133  154.7299 O   0  0  0  0  0  0  0  0  0  0  0  0
  150.9996  142.5177  156.4928 N   0  0  0  0  0  0  0  0  0  0  0  0
  151.4985  143.0690  157.6563 C   0  0  0  0  0  0  0  0  0  0  0  0
  151.6292  144.4201  158.0499 C   0  0  0  0  0  0  0  0  0  0  0  0
  152.1788  144.7473  159.3069 C   0  0  0  0  0  0  0  0  0  0  0  0
  152.6052  143.7305  160.1858 C   0  0  0  0  0  0  0  0  0  0  0  0
  152.4834  142.3781  159.8129 C   0  0  0  0  0  0  0  0  0  0  0  0
  151.9331  142.0569  158.5575 C   0  0  0  0  0  0  0  0  0  0  0  0
  154.6464  139.2598  161.7497 C   0  0  0  0  0  0  0  0  0  0  0  0
  155.2852  139.0915  162.9932 C   0  0  0  0  0  0  0  0  0  0  0  0
  156.5297  138.7101  166.5795 H   0  0  0  0  0  0  0  0  0  0  0  0
  154.9740  139.2347  165.9460 H   0  0  0  0  0  0  0  0  0  0  0  0
  156.4867  139.7528  165.1628 H   0  0  0  0  0  0  0  0  0  0  0  0
  154.6646  135.7573  163.4461 H   0  0  0  0  0  0  0  0  0  0  0  0
  153.5571  136.0611  161.2857 H   0  0  0  0  0  0  0  0  0  0  0  0
  153.1710  140.2919  160.0376 H   0  0  0  0  0  0  0  0  0  0  0  0
  154.1005  139.7110  158.6535 H   0  0  0  0  0  0  0  0  0  0  0  0
  152.0448  138.8180  157.5992 H   0  0  0  0  0  0  0  0  0  0  0  0
  151.1067  139.2007  159.0133 H   0  0  0  0  0  0  0  0  0  0  0  0
  149.7947  139.7344  156.0348 H   0  0  0  0  0  0  0  0  0  0  0  0
  150.4353  140.6898  154.7398 H   0  0  0  0  0  0  0  0  0  0  0  0
  152.0770  138.6453  156.3625 H   0  0  0  0  0  0  0  0  0  0  0  0
  151.3204  138.3114  154.8157 H   0  0  0  0  0  0  0  0  0  0  0  0
  152.5926  140.3485  154.2073 H   0  0  0  0  0  0  0  0  0  0  0  0
  151.3067  145.2058  157.3830 H   0  0  0  0  0  0  0  0  0  0  0  0
  152.2739  145.7832  159.5976 H   0  0  0  0  0  0  0  0  0  0  0  0
  153.0258  143.9893  161.1466 H   0  0  0  0  0  0  0  0  0  0  0  0
  152.8092  141.5969  160.4834 H   0  0  0  0  0  0  0  0  0  0  0  0
  154.6566  140.2421  161.3030 H   0  0  0  0  0  0  0  0  0  0  0  0
  155.7637  139.9386  163.4626 H   0  0  0  0  0  0  0  0  0  0  0  0
  1  2  1  0  0  0  0
  1 24  1  0  0  0  0
  1 25  1  0  0  0  0
  1 26  1  0  0  0  0
  2  3  1  0  0  0  0
  3 23  1  0  0  0  0
  3  4  2  0  0  0  0
  4  5  1  0  0  0  0
  4 27  1  0  0  0  0
  5  6  2  0  0  0  0
  5 28  1  0  0  0  0
  6  7  1  0  0  0  0
  6 22  1  0  0  0  0
  7  8  1  0  0  0  0
  8  9  1  0  0  0  0
  8 29  1  0  0  0  0
  8 30  1  0  0  0  0
  9 10  1  0  0  0  0
  9 31  1  0  0  0  0
  9 32  1  0  0  0  0
 10 21  1  0  0  0  0
 10 11  1  0  0  0  0
 11 12  1  0  0  0  0
 11 15  2  0  0  0  0
 12 13  1  0  0  0  0
 12 33  1  0  0  0  0
 12 34  1  0  0  0  0
 13 14  1  0  0  0  0
 13 35  1  0  0  0  0
 13 36  1  0  0  0  0
 14 37  1  0  0  0  0
 15 16  1  0  0  0  0
 16 21  2  0  0  0  0
 16 17  1  0  0  0  0
 17 18  2  0  0  0  0
 17 38  1  0  0  0  0
 18 19  1  0  0  0  0
 18 39  1  0  0  0  0
 19 20  2  0  0  0  0
 19 40  1  0  0  0  0
 20 21  1  0  0  0  0
 20 41  1  0  0  0  0
 22 23  2  0  0  0  0
 22 42  1  0  0  0  0
 23 43  1  0  0  0  0
M  END
> <s_m_source_file>
AV-unprocessed.smi

> <i_m_source_file_index>
459

> <i_lp_mmshare_version>
43012

> <i_f3d_flags>
0

> <s_epik_input>
W0NIM11PYzFbY0hdW2NIXWMoW2NIXVtjSF0xKU9bQ0gyXVtDSDJdbihjKG4yKVtDSDJdW0NIMl1bT0hdKWMoYzIzKVtjSF1bY0hdW2NIXVtjSF0z

> <s_epik_cmdline>
J2VwaWtfcHl0aG9uJywgJy1waCcsICc3LjAnLCAnLXRuJywgJzgnLCAnLW1hJywgJzIwMCcsICctbWV0YWxfYmluZGluZycsICctaW1hZScsICc8aW5maWxlLm1hZT4nLCAnLW9tYWUnLCAnPG91dGZpbGUubWFlPic=

> <r_lp_tautomer_probability>
1

> <r_epik_Ionization_Penalty>
0.207087

> <r_epik_Ionization_Penalty_Charging>
0

> <r_epik_Ionization_Penalty_Neutral>
0.207087

> <r_epik_State_Penalty>
0.197081

> <r_epik_Charging_Adjusted_Penalty>
0.197081

> <i_epik_Tot_Q>
0

> <i_epik_Tot_abs_Q>
0

> <r_epik_Metal_State_Penalty>
0.00023377

> <b_epik_Metal_Only>
0

> <s_lp_Force_Field>
OPLS_2005

> <r_lp_Energy>
17.9825

> <b_lp_Chiralities_Consistent>
1

> <s_lp_Variant>
AV-unprocessed.smi:459-1

> <Gold.Version>
5.8.1

> <Gold.Id.Protein>
6NUR|6NUR_protein|mol2

> <Gold.PLP.Fitness>
52.6389

> <Gold.PLP.PLP>
-51.8532

> <Gold.PLP.part.hbond>
-2.0000

> <Gold.PLP.part.metal>
0.0000

> <Gold.PLP.part.buried>
-6.3817

> <Gold.PLP.part.nonpolar>
-43.8178

> <Gold.PLP.part.repulsive>
0.1800

> <Gold.PLP.ligand.clash>
0.0000

> <Gold.PLP.ligand.torsion>
1.1335

> <Gold.PLP.Chemscore.Hbond>
1.0000

> <Gold.PLP.Chemscore.CHOScore>
0.0000

> <Gold.PLP.Chemscore.Metal>
0.0000

> <Gold.Chemscore.Hbonds>
donor molecule, donor type, donor heavy atom, donor atom, acceptor molecule, acceptor atom, score
      P1  H  7997  8008       L1    14  0.84

> <Gold.PLP.Chemscore.Internal.Correction>
0.0527

> <Gold.Rescore>
     Score         DG    S(hbond)    S(metal)    S(lipo)     H(rot)  DE(clash)    DE(int)     intcor
     15.77     -18.23       0.87        0.00     140.80       2.59       0.44       2.03       ----

> <Gold.Chemscore.Fitness>
15.7663

> <Gold.Chemscore.DG>
-18.2315

> <Gold.Chemscore.ZeroCoef>
-5.4800

> <Gold.Chemscore.Hbond>
0.8721

> <Gold.Chemscore.Metal>
0.0000

> <Gold.Chemscore.Lipo>
140.7971

> <Gold.Chemscore.Internal_Hbond>
0.0000

> <Gold.Chemscore.DEClash>
0.4387

> <Gold.Chemscore.DEInternal>
2.0265

> <Gold.Chemscore.Rot>
2.5916

> <Gold.Chemscore.Internal.Correction>
   9.000000E+99

> <Gold.Chemscore.Hbonds>
donor molecule, donor type, donor heavy atom, donor atom, acceptor molecule, acceptor atom, score
      P1  H  7997  8008       L1    14  0.48

> <Gold.Chemscore.Hbond.Weighted>
-2.9128

> <Gold.Chemscore.Metal.Weighted>
-0.0000

> <Gold.Chemscore.Lipo.Weighted>
-16.4733

> <Gold.Chemscore.Internal_Hbond.Weighted>
0.0000

> <Gold.Chemscore.DEClash.Weighted>
0.4387

> <Gold.Chemscore.DEInternal.Weighted>
2.0265

> <Gold.Chemscore.Rot.Weighted>
6.6346

> <Gold.Chemscore.Internal.Correction.Weighted>
   9.000000E+99

> <Gold.Protein.RotatedTorsions>
[ 6907 6896 6895 6894 ] final -104.50 input  -60.11 | X-H torsion
[ 7974 7965 7964 7962 ] final   99.33 input  175.53 | X-H torsion
[ 8008 7997 7996 7995 ] final  -28.80 input   59.86 | X-H torsion
[ 10167 10162 10161 10158 ] final  -51.75 input  -65.29 | X-H torsion
[ 10718 10713 10712 10709 ] final   55.20 input   66.30 | X-H torsion
[ 10763 10752 10751 10750 ] final   80.74 input  -60.55 | X-H torsion
[ 11005 11000 10999 10996 ] final  -56.97 input  -57.11 | X-H torsion

> <Gold.Protein.ActiveResidues>
 VAL166  LYS551  ARG553  GLY616  TRP617  ASP618  TYR619  PRO620  LYS621  CYS622 
 ASP623  PHE694  ASN695  SER759  ASP760  ASP761  ALA762  ILE779  LEU786  VAL792 
 PHE793  MET794  SER795  GLU796  ALA797  LYS798  CYS799  TRP800  GLU811  SER814 

> <Gold.Protein.RotatedAtoms>
  150.7290  134.0268  159.3719 H   0  0  0  0  0  0  0  0  0  0  0  0  # atno 6907 bound_to 6896
  151.8235  135.0642  160.0437 H   0  0  0  0  0  0  0  0  0  0  0  0  # atno 6908 bound_to 6896
  152.2986  133.5596  159.5640 H   0  0  0  0  0  0  0  0  0  0  0  0  # atno 6909 bound_to 6896
  145.4004  139.2348  143.3303 H   0  0  0  0  0  0  0  0  0  0  0  0  # atno 7974 bound_to 7965
  154.4317  140.1835  156.1146 H   0  0  0  0  0  0  0  0  0  0  0  0  # atno 8008 bound_to 7997
  156.0191  140.3342  155.6994 H   0  0  0  0  0  0  0  0  0  0  0  0  # atno 8009 bound_to 7997
  155.6002  140.0639  157.2726 H   0  0  0  0  0  0  0  0  0  0  0  0  # atno 8010 bound_to 7997
  140.6572  143.2608  151.4549 H   0  0  0  0  0  0  0  0  0  0  0  0  # atno 10167 bound_to 10162
  157.5324  130.8639  149.8706 H   0  0  0  0  0  0  0  0  0  0  0  0  # atno 10718 bound_to 10713
  153.1058  135.4791  154.8949 H   0  0  0  0  0  0  0  0  0  0  0  0  # atno 10763 bound_to 10752
  154.7429  135.3086  154.8699 H   0  0  0  0  0  0  0  0  0  0  0  0  # atno 10764 bound_to 10752
  153.9302  135.6845  153.4799 H   0  0  0  0  0  0  0  0  0  0  0  0  # atno 10765 bound_to 10752
  141.1144  133.6610  156.4699 H   0  0  0  0  0  0  0  0  0  0  0  0  # atno 11005 bound_to 11000
  146.2755  140.4700  142.8797 LP  0  0  0  0  0  0  0  0  0  0  0  0  # atno 17320 bound_to 7965
  144.8378  140.6810  143.6249 LP  0  0  0  0  0  0  0  0  0  0  0  0  # atno 17321 bound_to 7965
  139.5798  144.1736  152.1952 LP  0  0  0  0  0  0  0  0  0  0  0  0  # atno 17342 bound_to 10162
  140.1058  144.5500  150.6958 LP  0  0  0  0  0  0  0  0  0  0  0  0  # atno 17343 bound_to 10162
  156.0432  130.3734  150.1382 LP  0  0  0  0  0  0  0  0  0  0  0  0  # atno 17370 bound_to 10713
  156.9566  130.9791  151.3487 LP  0  0  0  0  0  0  0  0  0  0  0  0  # atno 17371 bound_to 10713
  140.4687  134.6773  157.5119 LP  0  0  0  0  0  0  0  0  0  0  0  0  # atno 17394 bound_to 11000
  140.0057  134.6768  155.9460 LP  0  0  0  0  0  0  0  0  0  0  0  0  # atno 17395 bound_to 11000

$$$$
