AV-unprocessed.smi:2104|AV-procd|sdf|8584|dock9
  -GOLD-   2272011313D 1   1.00000     0.00000
 Structure written by MMmdl.
 43 44  0  0  0  0  0  0  0  0  1 V2000
  144.5493  132.0321  149.8647 C   0  0  0  0  0  0  0  0  0  0  0  0
  144.7716  133.2868  150.6373 C   0  0  0  0  0  0  0  0  0  0  0  0
  145.8789  134.0538  150.8681 C   0  0  0  0  0  0  0  0  0  0  0  0
  145.3772  135.1020  151.6847 C   0  0  0  0  0  0  0  0  0  0  0  0
  146.2301  136.1365  152.1470 N   0  0  0  0  0  0  0  0  0  0  0  0
  145.8687  137.3158  152.6799 C   0  0  0  0  0  0  0  0  0  0  0  0
  144.7114  137.6544  152.9299 O   0  0  0  0  0  0  0  0  0  0  0  0
  146.9355  138.0993  152.8972 N   0  0  0  0  0  0  0  0  0  0  0  0
  146.8797  139.4810  153.3642 C   0  0  0  0  0  0  0  0  0  0  0  0
  147.2534  139.5797  154.8509 C   0  0  0  0  0  0  0  0  0  0  0  0
  148.5788  139.1021  155.0203 O   0  0  0  0  0  0  0  0  0  0  0  0
  149.5903  139.8658  154.3760 C   0  0  1  0  0  0  0  0  0  0  0  0
  149.5693  141.3249  154.8827 C   0  0  0  0  0  0  0  0  0  0  0  0
  149.9072  141.4148  156.3807 C   0  0  0  0  0  0  0  0  0  0  0  0
  151.2537  140.7437  156.6902 C   0  0  0  0  0  0  0  0  0  0  0  0
  151.2855  139.2922  156.1857 C   0  0  0  0  0  0  0  0  0  0  0  0
  150.9540  139.2066  154.6814 C   0  0  1  0  0  0  0  0  0  0  0  0
  151.0254  137.7619  154.1629 C   0  0  0  0  0  0  0  0  0  0  0  0
  144.0804  134.9873  151.9271 N   0  0  0  0  0  0  0  0  0  0  0  0
  143.6859  133.8228  151.2579 O   0  0  0  0  0  0  0  0  0  0  0  0
  145.4903  131.6406  149.4780 H   0  0  0  0  0  0  0  0  0  0  0  0
  143.8852  132.2124  149.0194 H   0  0  0  0  0  0  0  0  0  0  0  0
  144.0974  131.2652  150.4939 H   0  0  0  0  0  0  0  0  0  0  0  0
  146.8839  133.8889  150.5091 H   0  0  0  0  0  0  0  0  0  0  0  0
  147.2187  135.9795  152.0193 H   0  0  0  0  0  0  0  0  0  0  0  0
  147.8490  137.7332  152.6721 H   0  0  0  0  0  0  0  0  0  0  0  0
  147.5202  140.1258  152.7602 H   0  0  0  0  0  0  0  0  0  0  0  0
  145.8595  139.8378  153.2216 H   0  0  0  0  0  0  0  0  0  0  0  0
  147.2025  140.6176  155.1821 H   0  0  0  0  0  0  0  0  0  0  0  0
  146.5404  139.0128  155.4495 H   0  0  0  0  0  0  0  0  0  0  0  0
  149.4286  139.8500  153.2965 H   0  0  0  0  0  0  0  0  0  0  0  0
  150.2974  141.9083  154.3180 H   0  0  0  0  0  0  0  0  0  0  0  0
  148.6036  141.7922  154.6929 H   0  0  0  0  0  0  0  0  0  0  0  0
  149.9326  142.4587  156.6941 H   0  0  0  0  0  0  0  0  0  0  0  0
  149.1196  140.9389  156.9651 H   0  0  0  0  0  0  0  0  0  0  0  0
  152.0593  141.3103  156.2218 H   0  0  0  0  0  0  0  0  0  0  0  0
  151.4417  140.7677  157.7641 H   0  0  0  0  0  0  0  0  0  0  0  0
  152.2701  138.8635  156.3755 H   0  0  0  0  0  0  0  0  0  0  0  0
  150.5756  138.6928  156.7577 H   0  0  0  0  0  0  0  0  0  0  0  0
  151.7174  139.7724  154.1452 H   0  0  0  0  0  0  0  0  0  0  0  0
  150.3070  137.1192  154.6729 H   0  0  0  0  0  0  0  0  0  0  0  0
  152.0176  137.3382  154.3198 H   0  0  0  0  0  0  0  0  0  0  0  0
  150.8126  137.7175  153.0945 H   0  0  0  0  0  0  0  0  0  0  0  0
  1  2  1  0  0  0  0
  1 21  1  0  0  0  0
  1 22  1  0  0  0  0
  1 23  1  0  0  0  0
  2 20  1  0  0  0  0
  2  3  2  0  0  0  0
  3  4  1  0  0  0  0
  3 24  1  0  0  0  0
  4  5  1  0  0  0  0
  4 19  2  0  0  0  0
  5  6  1  0  0  0  0
  5 25  1  0  0  0  0
  6  7  2  0  0  0  0
  6  8  1  0  0  0  0
  8  9  1  0  0  0  0
  8 26  1  0  0  0  0
  9 10  1  0  0  0  0
  9 27  1  0  0  0  0
  9 28  1  0  0  0  0
 10 11  1  0  0  0  0
 10 29  1  0  0  0  0
 10 30  1  0  0  0  0
 11 12  1  0  0  0  0
 12 17  1  0  0  0  0
 12 13  1  0  0  0  0
 12 31  1  0  0  0  0
 13 14  1  0  0  0  0
 13 32  1  0  0  0  0
 13 33  1  0  0  0  0
 14 15  1  0  0  0  0
 14 34  1  0  0  0  0
 14 35  1  0  0  0  0
 15 16  1  0  0  0  0
 15 36  1  0  0  0  0
 15 37  1  0  0  0  0
 16 17  1  0  0  0  0
 16 38  1  0  0  0  0
 16 39  1  0  0  0  0
 17 18  1  0  0  0  0
 17 40  1  0  0  0  0
 18 41  1  0  0  0  0
 18 42  1  0  0  0  0
 18 43  1  0  0  0  0
 19 20  1  0  0  0  0
M  END
> <s_m_source_file>
AV-unprocessed.smi

> <i_m_source_file_index>
2104

> <i_lp_mmshare_version>
43012

> <i_f3d_flags>
0

> <s_epik_input>
W0NIM11jMVtjSF1jKG5vMSlbTkhdQyg9TylbTkhdW0NIMl1bQ0gyXU9bQ0BASF0yW0NIMl1bQ0gyXVtDSDJdW0NIMl1bQ0BIXTJbQ0gzXQ==

> <s_epik_cmdline>
J2VwaWtfcHl0aG9uJywgJy1waCcsICc3LjAnLCAnLXRuJywgJzgnLCAnLW1hJywgJzIwMCcsICctbWV0YWxfYmluZGluZycsICctaW1hZScsICc8aW5maWxlLm1hZT4nLCAnLW9tYWUnLCAnPG91dGZpbGUubWFlPic=

> <r_lp_tautomer_probability>
1

> <r_epik_Ionization_Penalty>
2.94418e-05

> <r_epik_Ionization_Penalty_Charging>
0

> <r_epik_Ionization_Penalty_Neutral>
2.94418e-05

> <r_epik_State_Penalty>
-0

> <r_epik_Charging_Adjusted_Penalty>
0

> <i_epik_Tot_Q>
0

> <i_epik_Tot_abs_Q>
0

> <r_epik_Metal_State_Penalty>
0.0104148

> <b_epik_Metal_Only>
0

> <s_lp_Force_Field>
OPLS_2005

> <r_lp_Energy>
8.22598

> <b_lp_Chiralities_Consistent>
1

> <s_lp_Variant>
AV-unprocessed.smi:2104-2

> <Gold.Version>
5.8.1

> <Gold.Id.Protein>
6NUR|6NUR_protein|mol2

> <Gold.PLP.Fitness>
38.8079

> <Gold.PLP.PLP>
-33.3269

> <Gold.PLP.part.hbond>
-2.0000

> <Gold.PLP.part.metal>
0.0000

> <Gold.PLP.part.buried>
-4.1316

> <Gold.PLP.part.nonpolar>
-29.1656

> <Gold.PLP.part.repulsive>
1.2897

> <Gold.PLP.ligand.clash>
0.0000

> <Gold.PLP.ligand.torsion>
0.1592

> <Gold.PLP.Chemscore.Hbond>
1.9280

> <Gold.PLP.Chemscore.CHOScore>
0.0000

> <Gold.PLP.Chemscore.Metal>
0.0000

> <Gold.Chemscore.Hbonds>
donor molecule, donor type, donor heavy atom, donor atom, acceptor molecule, acceptor atom, score
      L1  H     5    25       P1  7948  1.00
      L1  H     8    26       P1  7948  0.98

> <Gold.PLP.Chemscore.Internal.Correction>
0.0155

> <Gold.Rescore>
     Score         DG    S(hbond)    S(metal)    S(lipo)     H(rot)  DE(clash)    DE(int)     intcor
     15.75     -17.18       1.93        0.00      83.18       1.75       0.03       1.40       ----

> <Gold.Chemscore.Fitness>
15.7525

> <Gold.Chemscore.DG>
-17.1839

> <Gold.Chemscore.ZeroCoef>
-5.4800

> <Gold.Chemscore.Hbond>
1.9335

> <Gold.Chemscore.Metal>
0.0000

> <Gold.Chemscore.Lipo>
83.1819

> <Gold.Chemscore.Internal_Hbond>
0.0000

> <Gold.Chemscore.DEClash>
0.0322

> <Gold.Chemscore.DEInternal>
1.3992

> <Gold.Chemscore.Rot>
1.7524

> <Gold.Chemscore.Internal.Correction>
   9.000000E+99

> <Gold.Chemscore.Hbonds>
donor molecule, donor type, donor heavy atom, donor atom, acceptor molecule, acceptor atom, score
      L1  H     5    25       P1  7948  1.00
      L1  H     8    26       P1  7948  0.87

> <Gold.Chemscore.Hbond.Weighted>
-6.4577

> <Gold.Chemscore.Metal.Weighted>
-0.0000

> <Gold.Chemscore.Lipo.Weighted>
-9.7323

> <Gold.Chemscore.Internal_Hbond.Weighted>
0.0000

> <Gold.Chemscore.DEClash.Weighted>
0.0322

> <Gold.Chemscore.DEInternal.Weighted>
1.3992

> <Gold.Chemscore.Rot.Weighted>
4.4861

> <Gold.Chemscore.Internal.Correction.Weighted>
   9.000000E+99

> <Gold.Protein.RotatedTorsions>
[ 6907 6896 6895 6894 ] final -131.39 input  -60.11 | X-H torsion
[ 7974 7965 7964 7962 ] final  -27.88 input  175.53 | X-H torsion
[ 8008 7997 7996 7995 ] final   18.23 input   59.86 | X-H torsion
[ 10167 10162 10161 10158 ] final   50.26 input  -65.29 | X-H torsion
[ 10718 10713 10712 10709 ] final -133.77 input   66.30 | X-H torsion
[ 10763 10752 10751 10750 ] final -119.51 input  -60.55 | X-H torsion
[ 11005 11000 10999 10996 ] final  -74.89 input  -57.11 | X-H torsion

> <Gold.Protein.ActiveResidues>
 VAL166  LYS551  ARG553  GLY616  TRP617  ASP618  TYR619  PRO620  LYS621  CYS622 
 ASP623  PHE694  ASN695  SER759  ASP760  ASP761  ALA762  ILE779  LEU786  VAL792 
 PHE793  MET794  SER795  GLU796  ALA797  LYS798  CYS799  TRP800  GLU811  SER814 

> <Gold.Protein.RotatedAtoms>
  150.9504  133.6555  159.2772 H   0  0  0  0  0  0  0  0  0  0  0  0  # atno 6907 bound_to 6896
  151.3913  135.0955  159.9537 H   0  0  0  0  0  0  0  0  0  0  0  0  # atno 6908 bound_to 6896
  152.5107  133.9018  159.7499 H   0  0  0  0  0  0  0  0  0  0  0  0  # atno 6909 bound_to 6896
  146.1327  140.5210  142.8686 H   0  0  0  0  0  0  0  0  0  0  0  0  # atno 7974 bound_to 7965
  154.9030  140.3003  155.5307 H   0  0  0  0  0  0  0  0  0  0  0  0  # atno 8008 bound_to 7997
  156.3018  140.2403  156.3996 H   0  0  0  0  0  0  0  0  0  0  0  0  # atno 8009 bound_to 7997
  154.8502  140.0410  157.1588 H   0  0  0  0  0  0  0  0  0  0  0  0  # atno 8010 bound_to 7997
  140.2743  144.3229  150.6281 H   0  0  0  0  0  0  0  0  0  0  0  0  # atno 10167 bound_to 10162
  156.2484  130.7138  151.1028 H   0  0  0  0  0  0  0  0  0  0  0  0  # atno 10718 bound_to 10713
  154.8619  135.4236  154.2311 H   0  0  0  0  0  0  0  0  0  0  0  0  # atno 10763 bound_to 10752
  153.3296  135.6987  153.6965 H   0  0  0  0  0  0  0  0  0  0  0  0  # atno 10764 bound_to 10752
  153.5987  135.3541  155.2911 H   0  0  0  0  0  0  0  0  0  0  0  0  # atno 10765 bound_to 10752
  141.1640  133.6927  156.7434 H   0  0  0  0  0  0  0  0  0  0  0  0  # atno 11005 bound_to 11000
  144.7707  140.5631  143.6672 LP  0  0  0  0  0  0  0  0  0  0  0  0  # atno 17320 bound_to 7965
  145.5225  139.1476  143.3544 LP  0  0  0  0  0  0  0  0  0  0  0  0  # atno 17321 bound_to 7965
  140.5864  143.2170  151.7334 LP  0  0  0  0  0  0  0  0  0  0  0  0  # atno 17342 bound_to 10162
  139.4980  144.4005  152.0186 LP  0  0  0  0  0  0  0  0  0  0  0  0  # atno 17343 bound_to 10162
  157.7204  131.0684  150.6157 LP  0  0  0  0  0  0  0  0  0  0  0  0  # atno 17370 bound_to 10713
  156.6235  130.4412  149.5813 LP  0  0  0  0  0  0  0  0  0  0  0  0  # atno 17371 bound_to 10713
  140.2658  134.8431  157.3801 LP  0  0  0  0  0  0  0  0  0  0  0  0  # atno 17394 bound_to 11000
  140.1568  134.4779  155.7922 LP  0  0  0  0  0  0  0  0  0  0  0  0  # atno 17395 bound_to 11000

$$$$
