AV-unprocessed.smi:19|AV-procd|sdf|109|dock9
  -GOLD-   2262015273D 1   1.00000     0.00000
 Structure written by MMmdl.
 57 60  0  0  0  0  0  0  0  0  1 V2000
  152.1761  137.5608  159.6114 C   0  0  0  0  0  0  0  0  0  0  0  0
  152.5470  138.7250  158.8901 O   0  0  0  0  0  0  0  0  0  0  0  0
  151.4530  139.5451  158.5003 C   0  0  0  0  0  0  0  0  0  0  0  0
  151.8570  140.5773  157.4225 C   0  0  2  0  0  0  0  0  0  0  0  0
  150.6856  141.4551  156.9426 C   0  0  0  0  0  0  0  0  0  0  0  0
  149.7895  140.6911  156.0821 N   0  0  0  0  0  0  0  0  0  0  0  0
  148.5766  141.2577  155.8621 C   0  0  0  0  0  0  0  0  0  0  0  0
  148.1256  141.4264  154.5903 N   0  0  0  0  0  0  0  0  0  0  0  0
  146.9359  141.9915  154.3659 C   0  0  0  0  0  0  0  0  0  0  0  0
  146.0482  142.4459  155.2517 N   0  0  0  0  0  0  0  0  0  0  0  0
  146.4872  142.2681  156.5304 C   0  0  0  0  0  0  0  0  0  0  0  0
  147.7295  141.6922  156.9204 C   0  0  0  0  0  0  0  0  0  0  0  0
  147.8282  141.6764  158.3063 N   0  0  0  0  0  0  0  0  0  0  0  0
  146.7157  142.2241  158.7113 C   0  0  0  0  0  0  0  0  0  0  0  0
  145.8421  142.5921  157.7122 N   0  0  0  0  0  0  0  0  0  0  0  0
  144.5368  143.2166  157.8825 C   0  0  0  0  0  0  0  0  0  0  0  0
  144.2243  143.7038  159.3293 C   0  0  0  0  0  0  0  0  0  0  0  0
  145.3026  144.7162  159.8116 C   0  0  0  0  0  0  0  0  0  0  0  0
  145.3533  145.8723  159.0000 O   0  0  0  0  0  0  0  0  0  0  0  0
  142.8284  144.3772  159.3720 C   0  0  0  0  0  0  0  0  0  0  0  0
  142.3008  144.5901  160.8034 C   0  0  0  0  0  0  0  0  0  0  0  0
  142.2858  143.3574  161.5105 O   0  0  0  0  0  0  0  0  0  0  0  0
  143.5802  142.7858  161.6472 C   0  0  0  0  0  0  0  0  0  0  0  0
  144.1558  142.4640  160.2570 C   0  0  0  0  0  0  0  0  0  0  0  0
  150.4762  140.0614  154.9593 C   0  0  0  0  0  0  0  0  0  0  0  0
  151.6265  139.1785  155.4748 C   0  0  1  0  0  0  0  0  0  0  0  0
  152.4589  138.5969  154.3277 C   0  0  0  0  0  0  0  0  0  0  0  0
  152.4926  139.9563  156.3019 O   0  0  0  0  0  0  0  0  0  0  0  0
  153.0733  137.0094  159.8927 H   0  0  0  0  0  0  0  0  0  0  0  0
  151.5510  136.8932  159.0189 H   0  0  0  0  0  0  0  0  0  0  0  0
  151.6432  137.8179  160.5276 H   0  0  0  0  0  0  0  0  0  0  0  0
  150.6238  138.9276  158.1512 H   0  0  0  0  0  0  0  0  0  0  0  0
  151.0973  140.0552  159.3954 H   0  0  0  0  0  0  0  0  0  0  0  0
  152.6129  141.2357  157.8481 H   0  0  0  0  0  0  0  0  0  0  0  0
  150.1662  141.8797  157.8009 H   0  0  0  0  0  0  0  0  0  0  0  0
  151.0734  142.2977  156.3682 H   0  0  0  0  0  0  0  0  0  0  0  0
  146.6549  142.0942  153.3282 H   0  0  0  0  0  0  0  0  0  0  0  0
  146.4965  142.3661  159.7596 H   0  0  0  0  0  0  0  0  0  0  0  0
  144.4846  144.0549  157.1867 H   0  0  0  0  0  0  0  0  0  0  0  0
  143.7754  142.5119  157.5461 H   0  0  0  0  0  0  0  0  0  0  0  0
  145.1132  145.0241  160.8401 H   0  0  0  0  0  0  0  0  0  0  0  0
  146.2982  144.2759  159.8115 H   0  0  0  0  0  0  0  0  0  0  0  0
  146.2291  145.9596  158.6554 H   0  0  0  0  0  0  0  0  0  0  0  0
  142.8470  145.3361  158.8533 H   0  0  0  0  0  0  0  0  0  0  0  0
  142.1100  143.7547  158.8369 H   0  0  0  0  0  0  0  0  0  0  0  0
  142.8927  145.3280  161.3456 H   0  0  0  0  0  0  0  0  0  0  0  0
  141.2831  144.9792  160.7660 H   0  0  0  0  0  0  0  0  0  0  0  0
  144.2344  143.4534  162.2087 H   0  0  0  0  0  0  0  0  0  0  0  0
  143.4938  141.8700  162.2321 H   0  0  0  0  0  0  0  0  0  0  0  0
  143.5184  141.7053  159.8001 H   0  0  0  0  0  0  0  0  0  0  0  0
  145.1371  142.0000  160.3606 H   0  0  0  0  0  0  0  0  0  0  0  0
  149.7773  139.4533  154.3832 H   0  0  0  0  0  0  0  0  0  0  0  0
  150.8625  140.8346  154.2937 H   0  0  0  0  0  0  0  0  0  0  0  0
  151.2186  138.3475  156.0507 H   0  0  0  0  0  0  0  0  0  0  0  0
  151.8436  137.9831  153.6692 H   0  0  0  0  0  0  0  0  0  0  0  0
  153.2644  137.9694  154.7098 H   0  0  0  0  0  0  0  0  0  0  0  0
  152.9082  139.3874  153.7259 H   0  0  0  0  0  0  0  0  0  0  0  0
  1  2  1  0  0  0  0
  1 29  1  0  0  0  0
  1 30  1  0  0  0  0
  1 31  1  0  0  0  0
  2  3  1  0  0  0  0
  3  4  1  0  0  0  0
  3 32  1  0  0  0  0
  3 33  1  0  0  0  0
  4 28  1  0  0  0  0
  4  5  1  0  0  0  0
  4 34  1  0  0  0  0
  5  6  1  0  0  0  0
  5 35  1  0  0  0  0
  5 36  1  0  0  0  0
  6  7  1  0  0  0  0
  6 25  1  0  0  0  0
  7 12  1  0  0  0  0
  7  8  2  0  0  0  0
  8  9  1  0  0  0  0
  9 10  2  0  0  0  0
  9 37  1  0  0  0  0
 10 11  1  0  0  0  0
 11 15  1  0  0  0  0
 11 12  2  0  0  0  0
 12 13  1  0  0  0  0
 13 14  2  0  0  0  0
 14 15  1  0  0  0  0
 14 38  1  0  0  0  0
 15 16  1  0  0  0  0
 16 17  1  0  0  0  0
 16 39  1  0  0  0  0
 16 40  1  0  0  0  0
 17 24  1  0  0  0  0
 17 18  1  0  0  0  0
 17 20  1  0  0  0  0
 18 19  1  0  0  0  0
 18 41  1  0  0  0  0
 18 42  1  0  0  0  0
 19 43  1  0  0  0  0
 20 21  1  0  0  0  0
 20 44  1  0  0  0  0
 20 45  1  0  0  0  0
 21 22  1  0  0  0  0
 21 46  1  0  0  0  0
 21 47  1  0  0  0  0
 22 23  1  0  0  0  0
 23 24  1  0  0  0  0
 23 48  1  0  0  0  0
 23 49  1  0  0  0  0
 24 50  1  0  0  0  0
 24 51  1  0  0  0  0
 25 26  1  0  0  0  0
 25 52  1  0  0  0  0
 25 53  1  0  0  0  0
 26 27  1  0  0  0  0
 26 28  1  0  0  0  0
 26 54  1  0  0  0  0
 27 55  1  0  0  0  0
 27 56  1  0  0  0  0
 27 57  1  0  0  0  0
M  END
> <s_m_source_file>
AV-unprocessed.smi

> <i_m_source_file_index>
19

> <i_lp_mmshare_version>
43012

> <i_f3d_flags>
0

> <s_epik_input>
W0NIM11PW0NIMl1bQ0BASF0xW0NIMl1OKFtDSDJdW0NASF0oTzEpW0NIM10pYyhuW2NIXW4yKWMoYzIzKW5bY0hdbjNbQ0gyXUM0KFtDSDJdW09IXSlbQ0gyXVtDSDJdT1tDSDJdW0NIMl00

> <s_epik_cmdline>
J2VwaWtfcHl0aG9uJywgJy1waCcsICc3LjAnLCAnLXRuJywgJzgnLCAnLW1hJywgJzIwMCcsICctbWV0YWxfYmluZGluZycsICctaW1hZScsICc8aW5maWxlLm1hZT4nLCAnLW9tYWUnLCAnPG91dGZpbGUubWFlPic=

> <r_lp_tautomer_probability>
1

> <r_epik_Ionization_Penalty>
6.20357e-05

> <r_epik_Ionization_Penalty_Charging>
0

> <r_epik_Ionization_Penalty_Neutral>
6.20357e-05

> <r_epik_State_Penalty>
-0

> <r_epik_Charging_Adjusted_Penalty>
0

> <i_epik_Tot_Q>
0

> <i_epik_Tot_abs_Q>
0

> <r_epik_Metal_State_Penalty>
-0

> <b_epik_Metal_Only>
0

> <s_lp_Force_Field>
OPLS_2005

> <r_lp_Energy>
39.3548

> <b_lp_Chiralities_Consistent>
1

> <s_lp_Variant>
AV-unprocessed.smi:19-1

> <Gold.Version>
5.8.1

> <Gold.Id.Protein>
6NUR|6NUR_protein|mol2

> <Gold.PLP.Fitness>
42.3817

> <Gold.PLP.PLP>
-36.6353

> <Gold.PLP.part.hbond>
-2.0000

> <Gold.PLP.part.metal>
0.0000

> <Gold.PLP.part.buried>
-6.1535

> <Gold.PLP.part.nonpolar>
-27.6412

> <Gold.PLP.part.repulsive>
0.5268

> <Gold.PLP.ligand.clash>
0.0000

> <Gold.PLP.ligand.torsion>
0.3498

> <Gold.PLP.Chemscore.Hbond>
2.0000

> <Gold.PLP.Chemscore.CHOScore>
0.0000

> <Gold.PLP.Chemscore.Metal>
0.0000

> <Gold.Chemscore.Hbonds>
donor molecule, donor type, donor heavy atom, donor atom, acceptor molecule, acceptor atom, score
      L1  H    19    43       P1  8029  0.80
      P1  H  7997  8010       L1    28  1.00

> <Gold.PLP.Chemscore.Internal.Correction>
0.4460

> <Gold.Rescore>
     Score         DG    S(hbond)    S(metal)    S(lipo)     H(rot)  DE(clash)    DE(int)     intcor
     11.87     -13.44       1.95        0.00      75.27       2.87       0.03       1.54       ----

> <Gold.Chemscore.Fitness>
11.8718

> <Gold.Chemscore.DG>
-13.4412

> <Gold.Chemscore.ZeroCoef>
-5.4800

> <Gold.Chemscore.Hbond>
1.9488

> <Gold.Chemscore.Metal>
0.0000

> <Gold.Chemscore.Lipo>
75.2726

> <Gold.Chemscore.Internal_Hbond>
0.0000

> <Gold.Chemscore.DEClash>
0.0291

> <Gold.Chemscore.DEInternal>
1.5403

> <Gold.Chemscore.Rot>
2.8729

> <Gold.Chemscore.Internal.Correction>
   9.000000E+99

> <Gold.Chemscore.Hbonds>
donor molecule, donor type, donor heavy atom, donor atom, acceptor molecule, acceptor atom, score
      L1  H    19    43       P1  8029  0.78
      P1  H  7997  8010       L1    28  0.88

> <Gold.Chemscore.Hbond.Weighted>
-6.5090

> <Gold.Chemscore.Metal.Weighted>
-0.0000

> <Gold.Chemscore.Lipo.Weighted>
-8.8069

> <Gold.Chemscore.Internal_Hbond.Weighted>
0.0000

> <Gold.Chemscore.DEClash.Weighted>
0.0291

> <Gold.Chemscore.DEInternal.Weighted>
1.5403

> <Gold.Chemscore.Rot.Weighted>
7.3546

> <Gold.Chemscore.Internal.Correction.Weighted>
   9.000000E+99

> <Gold.Protein.RotatedTorsions>
[ 6907 6896 6895 6894 ] final    2.10 input  -60.11 | X-H torsion
[ 7974 7965 7964 7962 ] final -108.16 input  175.53 | X-H torsion
[ 8008 7997 7996 7995 ] final   81.83 input   59.86 | X-H torsion
[ 10167 10162 10161 10158 ] final   68.83 input  -65.29 | X-H torsion
[ 10718 10713 10712 10709 ] final -173.41 input   66.30 | X-H torsion
[ 10763 10752 10751 10750 ] final  173.05 input  -60.55 | X-H torsion
[ 11005 11000 10999 10996 ] final -150.13 input  -57.11 | X-H torsion

> <Gold.Protein.ActiveResidues>
 VAL166  LYS551  ARG553  GLY616  TRP617  ASP618  TYR619  PRO620  LYS621  CYS622 
 ASP623  PHE694  ASN695  SER759  ASP760  ASP761  ALA762  ILE779  LEU786  VAL792 
 PHE793  MET794  SER795  GLU796  ALA797  LYS798  CYS799  TRP800  GLU811  SER814 

> <Gold.Protein.RotatedAtoms>
  151.6033  135.1045  160.0064 H   0  0  0  0  0  0  0  0  0  0  0  0  # atno 6907 bound_to 6896
  152.4246  133.7169  159.6522 H   0  0  0  0  0  0  0  0  0  0  0  0  # atno 6908 bound_to 6896
  150.8135  133.8307  159.3193 H   0  0  0  0  0  0  0  0  0  0  0  0  # atno 6909 bound_to 6896
  145.1963  140.9037  143.3395 H   0  0  0  0  0  0  0  0  0  0  0  0  # atno 7974 bound_to 7965
  155.9024  140.3432  155.6036 H   0  0  0  0  0  0  0  0  0  0  0  0  # atno 8008 bound_to 7997
  155.7485  140.0817  157.2231 H   0  0  0  0  0  0  0  0  0  0  0  0  # atno 8009 bound_to 7997
  154.4045  140.1558  156.2684 H   0  0  0  0  0  0  0  0  0  0  0  0  # atno 8010 bound_to 7997
  140.0744  144.5125  150.7205 H   0  0  0  0  0  0  0  0  0  0  0  0  # atno 10167 bound_to 10162
  156.7700  130.9445  151.3119 H   0  0  0  0  0  0  0  0  0  0  0  0  # atno 10718 bound_to 10713
  154.4346  135.2760  155.1889 H   0  0  0  0  0  0  0  0  0  0  0  0  # atno 10763 bound_to 10752
  154.3780  135.6094  153.5779 H   0  0  0  0  0  0  0  0  0  0  0  0  # atno 10764 bound_to 10752
  152.9838  135.5873  154.4664 H   0  0  0  0  0  0  0  0  0  0  0  0  # atno 10765 bound_to 10752
  140.7435  134.3488  157.5142 H   0  0  0  0  0  0  0  0  0  0  0  0  # atno 11005 bound_to 11000
  144.9991  139.3615  143.6176 LP  0  0  0  0  0  0  0  0  0  0  0  0  # atno 17320 bound_to 7965
  146.3426  139.9207  142.8767 LP  0  0  0  0  0  0  0  0  0  0  0  0  # atno 17321 bound_to 7965
  140.7109  143.2504  151.4583 LP  0  0  0  0  0  0  0  0  0  0  0  0  # atno 17342 bound_to 10162
  139.5817  144.1696  152.1976 LP  0  0  0  0  0  0  0  0  0  0  0  0  # atno 17343 bound_to 10162
  157.6695  130.9038  150.0009 LP  0  0  0  0  0  0  0  0  0  0  0  0  # atno 17370 bound_to 10713
  156.1284  130.3644  149.9771 LP  0  0  0  0  0  0  0  0  0  0  0  0  # atno 17371 bound_to 10713
  139.8801  134.9096  156.2994 LP  0  0  0  0  0  0  0  0  0  0  0  0  # atno 17394 bound_to 11000
  140.9815  133.7264  156.0680 LP  0  0  0  0  0  0  0  0  0  0  0  0  # atno 17395 bound_to 11000

$$$$
