AV-unprocessed.smi:1365|AV-procd|sdf|5569|dock3
  -GOLD-   22720 5163D 1   1.00000     0.00000
 Structure written by MMmdl.
 41 42  0  0  0  0  0  0  0  0  3 V2000
  150.7212  140.9850  157.0325 C   0  0  0  0  0  0  0  0  0  0  0  0
  151.1756  139.8173  156.2252 C   0  0  0  0  0  0  0  0  0  0  0  0
  150.7672  138.5151  156.1665 C   0  0  0  0  0  0  0  0  0  0  0  0
  151.6343  137.9465  155.1936 C   0  0  0  0  0  0  0  0  0  0  0  0
  151.6208  136.6729  154.7709 N   0  5  0  0  0  0  0  0  0  0  0  0
  150.6599  135.8230  155.2000 C   0  0  0  0  0  0  0  0  0  0  0  0
  150.2306  135.7222  156.3516 O   0  0  0  0  0  0  0  0  0  0  0  0
  150.1656  135.0380  154.2335 N   0  0  0  0  0  0  0  0  0  0  0  0
  149.1355  134.0251  154.4188 C   0  0  0  0  0  0  0  0  0  0  0  0
  149.3534  132.8549  153.4510 C   0  0  0  0  0  0  0  0  0  0  0  0
  148.3586  131.7078  153.6939 C   0  0  0  0  0  0  0  0  0  0  0  0
  147.4215  131.5197  152.5575 N   0  3  0  0  0  0  0  0  0  0  0  0
  146.7011  132.7730  152.2109 C   0  0  0  0  0  0  0  0  0  0  0  0
  145.8394  132.5916  150.9496 C   0  0  0  0  0  0  0  0  0  0  0  0
  144.8549  131.4275  151.1176 C   0  0  0  0  0  0  0  0  0  0  0  0
  145.6147  130.1528  151.5061 C   0  0  0  0  0  0  0  0  0  0  0  0
  146.4790  130.3855  152.7572 C   0  0  0  0  0  0  0  0  0  0  0  0
  152.4812  138.8303  154.6930 N   0  0  0  0  0  0  0  0  0  0  0  0
  152.1984  140.0313  155.3544 O   0  0  0  0  0  0  0  0  0  0  0  0
  149.6445  141.1246  156.9361 H   0  0  0  0  0  0  0  0  0  0  0  0
  151.2112  141.9030  156.7074 H   0  0  0  0  0  0  0  0  0  0  0  0
  150.9502  140.8353  158.0877 H   0  0  0  0  0  0  0  0  0  0  0  0
  149.9787  138.0422  156.7324 H   0  0  0  0  0  0  0  0  0  0  0  0
  150.5413  135.1523  153.3035 H   0  0  0  0  0  0  0  0  0  0  0  0
  149.1583  133.6638  155.4483 H   0  0  0  0  0  0  0  0  0  0  0  0
  148.1563  134.4775  154.2551 H   0  0  0  0  0  0  0  0  0  0  0  0
  149.2539  133.2104  152.4244 H   0  0  0  0  0  0  0  0  0  0  0  0
  150.3782  132.5002  153.5578 H   0  0  0  0  0  0  0  0  0  0  0  0
  148.8839  130.7742  153.9018 H   0  0  0  0  0  0  0  0  0  0  0  0
  147.7889  131.9467  154.5931 H   0  0  0  0  0  0  0  0  0  0  0  0
  146.0786  133.0806  153.0526 H   0  0  0  0  0  0  0  0  0  0  0  0
  147.4189  133.5758  152.0372 H   0  0  0  0  0  0  0  0  0  0  0  0
  145.2947  133.5115  150.7347 H   0  0  0  0  0  0  0  0  0  0  0  0
  146.4836  132.4055  150.0890 H   0  0  0  0  0  0  0  0  0  0  0  0
  144.1227  131.6706  151.8889 H   0  0  0  0  0  0  0  0  0  0  0  0
  144.2964  131.2681  150.1946 H   0  0  0  0  0  0  0  0  0  0  0  0
  144.9100  129.3402  151.6852 H   0  0  0  0  0  0  0  0  0  0  0  0
  146.2483  129.8355  150.6769 H   0  0  0  0  0  0  0  0  0  0  0  0
  147.0253  129.4701  152.9811 H   0  0  0  0  0  0  0  0  0  0  0  0
  145.8411  130.5894  153.6189 H   0  0  0  0  0  0  0  0  0  0  0  0
  147.9905  131.2934  151.7542 H   0  0  0  0  0  0  0  0  0  0  0  0
  1  2  1  0  0  0  0
  1 20  1  0  0  0  0
  1 21  1  0  0  0  0
  1 22  1  0  0  0  0
  2 19  1  0  0  0  0
  2  3  2  0  0  0  0
  3  4  1  0  0  0  0
  3 23  1  0  0  0  0
  4  5  1  0  0  0  0
  4 18  2  0  0  0  0
  5  6  1  0  0  0  0
  6  7  2  0  0  0  0
  6  8  1  0  0  0  0
  8  9  1  0  0  0  0
  8 24  1  0  0  0  0
  9 10  1  0  0  0  0
  9 25  1  0  0  0  0
  9 26  1  0  0  0  0
 10 11  1  0  0  0  0
 10 27  1  0  0  0  0
 10 28  1  0  0  0  0
 11 12  1  0  0  0  0
 11 29  1  0  0  0  0
 11 30  1  0  0  0  0
 12 17  1  0  0  0  0
 12 13  1  0  0  0  0
 12 41  1  0  0  0  0
 13 14  1  0  0  0  0
 13 31  1  0  0  0  0
 13 32  1  0  0  0  0
 14 15  1  0  0  0  0
 14 33  1  0  0  0  0
 14 34  1  0  0  0  0
 15 16  1  0  0  0  0
 15 35  1  0  0  0  0
 15 36  1  0  0  0  0
 16 17  1  0  0  0  0
 16 37  1  0  0  0  0
 16 38  1  0  0  0  0
 17 39  1  0  0  0  0
 17 40  1  0  0  0  0
 18 19  1  0  0  0  0
M  CHG  1   5  -1
M  CHG  1  12   1
M  END
> <s_m_source_file>
AV-unprocessed.smi

> <i_m_source_file_index>
1365

> <i_lp_mmshare_version>
43012

> <i_f3d_flags>
0

> <s_epik_input>
W0NIM11jMVtjSF1jKG5vMSlbTkhdQyg9TylbTkhdW0NIMl1bQ0gyXVtDSDJdTjJbQ0gyXVtDSDJdW0NIMl1bQ0gyXVtDSDJdMg==

> <s_epik_cmdline>
J2VwaWtfcHl0aG9uJywgJy1waCcsICc3LjAnLCAnLXRuJywgJzgnLCAnLW1hJywgJzIwMCcsICctbWV0YWxfYmluZGluZycsICctaW1hZScsICc8aW5maWxlLm1hZT4nLCAnLW9tYWUnLCAnPG91dGZpbGUubWFlPic=

> <r_epik_Ionization_Penalty>
6.42355

> <r_epik_Ionization_Penalty_Charging>
6.42345

> <r_epik_Ionization_Penalty_Neutral>
0.000108417

> <r_epik_State_Penalty>
6.4233

> <r_epik_Charging_Adjusted_Penalty>
12.8467

> <i_epik_Tot_Q>
0

> <i_epik_Tot_abs_Q>
2

> <r_epik_Metal_State_Penalty>
2.35308

> <b_epik_Metal_Only>
1

> <s_lp_Force_Field>
OPLS_2005

> <r_lp_Energy>
6.88196

> <b_lp_Chiralities_Consistent>
1

> <s_lp_Variant>
AV-unprocessed.smi:1365-2

> <Gold.Version>
5.8.1

> <Gold.Id.Protein>
6NUR|6NUR_protein|mol2

> <Gold.PLP.Fitness>
47.7578

> <Gold.PLP.PLP>
-36.1082

> <Gold.PLP.part.hbond>
-5.9596

> <Gold.PLP.part.metal>
0.0000

> <Gold.PLP.part.buried>
-2.5267

> <Gold.PLP.part.nonpolar>
-28.0318

> <Gold.PLP.part.repulsive>
0.2973

> <Gold.PLP.ligand.clash>
0.0000

> <Gold.PLP.ligand.torsion>
0.9125

> <Gold.PLP.Chemscore.Hbond>
4.4508

> <Gold.PLP.Chemscore.CHOScore>
0.0000

> <Gold.PLP.Chemscore.Metal>
0.0000

> <Gold.Chemscore.Hbonds>
donor molecule, donor type, donor heavy atom, donor atom, acceptor molecule, acceptor atom, score
      L1  H     8    24       P1  7949  0.05
      L1  H    12    41       P1 10747  1.00
      P1  H  7989  7998       L1    19  0.27
      P1  H  7997  8008       L1    19  0.18
      P1  H 10752 10765       L1     5  2.00

> <Gold.PLP.Chemscore.Internal.Correction>
0.1222

> <Gold.Rescore>
     Score         DG    S(hbond)    S(metal)    S(lipo)     H(rot)  DE(clash)    DE(int)     intcor
     16.58     -19.15       2.75        0.00      77.36       1.78       0.30       2.26       ----

> <Gold.Chemscore.Fitness>
16.5831

> <Gold.Chemscore.DG>
-19.1487

> <Gold.Chemscore.ZeroCoef>
-5.4800

> <Gold.Chemscore.Hbond>
2.7450

> <Gold.Chemscore.Metal>
0.0000

> <Gold.Chemscore.Lipo>
77.3585

> <Gold.Chemscore.Internal_Hbond>
0.0000

> <Gold.Chemscore.DEClash>
0.3027

> <Gold.Chemscore.DEInternal>
2.2629

> <Gold.Chemscore.Rot>
1.7776

> <Gold.Chemscore.Internal.Correction>
   9.000000E+99

> <Gold.Chemscore.Hbonds>
donor molecule, donor type, donor heavy atom, donor atom, acceptor molecule, acceptor atom, score
      L1  H    12    41       P1 10747  1.00
      P1  H  7989  7998       L1    19  0.01
      P1  H  7997  8008       L1    19  0.01
      P1  H 10752 10765       L1     5  0.40

> <Gold.Chemscore.Hbond.Weighted>
-9.1684

> <Gold.Chemscore.Metal.Weighted>
-0.0000

> <Gold.Chemscore.Lipo.Weighted>
-9.0509

> <Gold.Chemscore.Internal_Hbond.Weighted>
0.0000

> <Gold.Chemscore.DEClash.Weighted>
0.3027

> <Gold.Chemscore.DEInternal.Weighted>
2.2629

> <Gold.Chemscore.Rot.Weighted>
4.5506

> <Gold.Chemscore.Internal.Correction.Weighted>
   9.000000E+99

> <Gold.Protein.RotatedTorsions>
[ 6907 6896 6895 6894 ] final   -3.91 input  -60.11 | X-H torsion
[ 7974 7965 7964 7962 ] final -169.47 input  175.53 | X-H torsion
[ 8008 7997 7996 7995 ] final  -31.69 input   59.86 | X-H torsion
[ 10167 10162 10161 10158 ] final   28.96 input  -65.29 | X-H torsion
[ 10718 10713 10712 10709 ] final -159.93 input   66.30 | X-H torsion
[ 10763 10752 10751 10750 ] final  170.02 input  -60.55 | X-H torsion
[ 11005 11000 10999 10996 ] final  139.76 input  -57.11 | X-H torsion

> <Gold.Protein.ActiveResidues>
 VAL166  LYS551  ARG553  GLY616  TRP617  ASP618  TYR619  PRO620  LYS621  CYS622 
 ASP623  PHE694  ASN695  SER759  ASP760  ASP761  ALA762  ILE779  LEU786  VAL792 
 PHE793  MET794  SER795  GLU796  ALA797  LYS798  CYS799  TRP800  GLU811  SER814 

> <Gold.Protein.RotatedAtoms>
  151.5061  135.1063  159.9841 H   0  0  0  0  0  0  0  0  0  0  0  0  # atno 6907 bound_to 6896
  152.4681  133.7964  159.6940 H   0  0  0  0  0  0  0  0  0  0  0  0  # atno 6908 bound_to 6896
  150.8675  133.7489  159.2997 H   0  0  0  0  0  0  0  0  0  0  0  0  # atno 6909 bound_to 6896
  144.7185  140.2216  143.6315 H   0  0  0  0  0  0  0  0  0  0  0  0  # atno 7974 bound_to 7965
  154.4205  140.1757  156.1607 H   0  0  0  0  0  0  0  0  0  0  0  0  # atno 8008 bound_to 7997
  155.9840  140.3375  155.6665 H   0  0  0  0  0  0  0  0  0  0  0  0  # atno 8009 bound_to 7997
  155.6462  140.0685  157.2593 H   0  0  0  0  0  0  0  0  0  0  0  0  # atno 8010 bound_to 7997
  140.4808  144.0619  150.6264 H   0  0  0  0  0  0  0  0  0  0  0  0  # atno 10167 bound_to 10162
  156.5750  130.8705  151.2848 H   0  0  0  0  0  0  0  0  0  0  0  0  # atno 10718 bound_to 10713
  154.3916  135.2754  155.2151 H   0  0  0  0  0  0  0  0  0  0  0  0  # atno 10763 bound_to 10752
  154.4215  135.5999  153.6016 H   0  0  0  0  0  0  0  0  0  0  0  0  # atno 10764 bound_to 10752
  152.9832  135.5973  154.4171 H   0  0  0  0  0  0  0  0  0  0  0  0  # atno 10765 bound_to 10752
  140.0278  134.9366  157.0602 H   0  0  0  0  0  0  0  0  0  0  0  0  # atno 11005 bound_to 11000
  145.8495  139.2168  143.1780 LP  0  0  0  0  0  0  0  0  0  0  0  0  # atno 17320 bound_to 7965
  146.0273  140.8291  142.9893 LP  0  0  0  0  0  0  0  0  0  0  0  0  # atno 17321 bound_to 7965
  140.3861  143.2777  152.0115 LP  0  0  0  0  0  0  0  0  0  0  0  0  # atno 17342 bound_to 10162
  139.4833  144.6116  151.7424 LP  0  0  0  0  0  0  0  0  0  0  0  0  # atno 17343 bound_to 10162
  157.7339  130.9738  150.2004 LP  0  0  0  0  0  0  0  0  0  0  0  0  # atno 17370 bound_to 10713
  156.2681  130.3718  149.8060 LP  0  0  0  0  0  0  0  0  0  0  0  0  # atno 17371 bound_to 10713
  140.4277  134.1813  155.7167 LP  0  0  0  0  0  0  0  0  0  0  0  0  # atno 17394 bound_to 11000
  141.1813  133.8408  157.1248 LP  0  0  0  0  0  0  0  0  0  0  0  0  # atno 17395 bound_to 11000

$$$$
