AV-unprocessed.smi:1817|AV-procd|sdf|7379|dock3
  -GOLD-   22720 9 43D 1   1.00000     0.00000
 Structure written by MMmdl.
 41 42  0  0  0  0  0  0  0  0  2 V2000
  151.8112  144.9324  160.3941 C   0  0  0  0  0  0  0  0  0  0  0  0
  152.0292  144.5344  158.9274 C   0  0  0  0  0  0  0  0  0  0  0  0
  151.3202  143.3281  158.5053 N   0  0  0  0  0  0  0  0  0  0  0  0
  151.7967  142.1280  159.1912 C   0  0  0  0  0  0  0  0  0  0  0  0
  151.0393  140.8688  158.7287 C   0  0  0  0  0  0  0  0  0  0  0  0
  151.1640  140.6336  157.2815 N   0  0  0  0  0  0  0  0  0  0  0  0
  150.4320  139.4253  156.8310 C   0  0  1  0  0  0  0  0  0  0  0  0
  150.7971  139.0112  155.3826 C   0  0  0  0  0  0  0  0  0  0  0  0
  150.6283  138.2052  157.7759 C   0  0  0  0  0  0  0  0  0  0  0  0
  149.5907  138.0943  158.8011 N   0  0  0  0  0  0  0  0  0  0  0  0
  148.9108  136.9865  159.1328 C   0  0  0  0  0  0  0  0  0  0  0  0
  149.1247  135.9278  158.5380 O   0  0  0  0  0  0  0  0  0  0  0  0
  148.0168  137.1760  160.1303 N   0  5  0  0  0  0  0  0  0  0  0  0
  147.4721  136.1172  160.7521 C   0  0  0  0  0  0  0  0  0  0  0  0
  147.3308  134.9246  160.1513 N   0  0  0  0  0  0  0  0  0  0  0  0
  146.7477  133.9665  160.9696 N   0  0  0  0  0  0  0  0  0  0  0  0
  146.4718  134.4611  162.1760 C   0  0  0  0  0  0  0  0  0  0  0  0
  146.8992  136.1413  162.4225 S   0  0  0  0  0  0  0  0  0  0  0  0
  150.7101  141.8564  156.6011 C   0  0  0  0  0  0  0  0  0  0  0  0
  151.4728  143.1084  157.0705 C   0  0  0  0  0  0  0  0  0  0  0  0
  152.2733  145.8979  160.6008 H   0  0  0  0  0  0  0  0  0  0  0  0
  152.2502  144.2102  161.0816 H   0  0  0  0  0  0  0  0  0  0  0  0
  150.7491  145.0178  160.6246 H   0  0  0  0  0  0  0  0  0  0  0  0
  151.6971  145.3702  158.3101 H   0  0  0  0  0  0  0  0  0  0  0  0
  153.0973  144.4251  158.7343 H   0  0  0  0  0  0  0  0  0  0  0  0
  152.8662  141.9964  159.0188 H   0  0  0  0  0  0  0  0  0  0  0  0
  151.6651  142.2332  160.2676 H   0  0  0  0  0  0  0  0  0  0  0  0
  151.4529  140.0342  159.2909 H   0  0  0  0  0  0  0  0  0  0  0  0
  149.9871  140.9487  159.0061 H   0  0  0  0  0  0  0  0  0  0  0  0
  149.3661  139.6590  156.8330 H   0  0  0  0  0  0  0  0  0  0  0  0
  150.2703  138.1132  155.0635 H   0  0  0  0  0  0  0  0  0  0  0  0
  151.8657  138.8163  155.2859 H   0  0  0  0  0  0  0  0  0  0  0  0
  150.5226  139.7677  154.6495 H   0  0  0  0  0  0  0  0  0  0  0  0
  150.7156  137.2878  157.1917 H   0  0  0  0  0  0  0  0  0  0  0  0
  151.5533  138.2926  158.3421 H   0  0  0  0  0  0  0  0  0  0  0  0
  149.3726  138.9354  159.3148 H   0  0  0  0  0  0  0  0  0  0  0  0
  146.0154  133.8323  162.9257 H   0  0  0  0  0  0  0  0  0  0  0  0
  150.8687  141.7791  155.5273 H   0  0  0  0  0  0  0  0  0  0  0  0
  149.6389  141.9960  156.7551 H   0  0  0  0  0  0  0  0  0  0  0  0
  151.1022  143.9764  156.5239 H   0  0  0  0  0  0  0  0  0  0  0  0
  152.5294  143.0091  156.8162 H   0  0  0  0  0  0  0  0  0  0  0  0
  1  2  1  0  0  0  0
  1 21  1  0  0  0  0
  1 22  1  0  0  0  0
  1 23  1  0  0  0  0
  2  3  1  0  0  0  0
  2 24  1  0  0  0  0
  2 25  1  0  0  0  0
  3 20  1  0  0  0  0
  3  4  1  0  0  0  0
  4  5  1  0  0  0  0
  4 26  1  0  0  0  0
  4 27  1  0  0  0  0
  5  6  1  0  0  0  0
  5 28  1  0  0  0  0
  5 29  1  0  0  0  0
  6  7  1  0  0  0  0
  6 19  1  0  0  0  0
  7  8  1  0  0  0  0
  7  9  1  0  0  0  0
  7 30  1  0  0  0  0
  8 31  1  0  0  0  0
  8 32  1  0  0  0  0
  8 33  1  0  0  0  0
  9 10  1  0  0  0  0
  9 34  1  0  0  0  0
  9 35  1  0  0  0  0
 10 11  1  0  0  0  0
 10 36  1  0  0  0  0
 11 12  2  0  0  0  0
 11 13  1  0  0  0  0
 13 14  1  0  0  0  0
 14 18  1  0  0  0  0
 14 15  2  0  0  0  0
 15 16  1  0  0  0  0
 16 17  2  0  0  0  0
 17 18  1  0  0  0  0
 17 37  1  0  0  0  0
 19 20  1  0  0  0  0
 19 38  1  0  0  0  0
 19 39  1  0  0  0  0
 20 40  1  0  0  0  0
 20 41  1  0  0  0  0
M  CHG  1  13  -1
M  END
> <s_m_source_file>
AV-unprocessed.smi

> <i_m_source_file_index>
1817

> <i_lp_mmshare_version>
43012

> <i_f3d_flags>
0

> <s_epik_input>
W0NIM11bQ0gyXU4xW0NIMl1bQ0gyXU4oW0NIMl1bQ0gyXTEpW0NASF0oW0NIM10pW0NIMl1bTkhdQyg9TylbTkhdYzJubltjSF1zMg==

> <s_epik_cmdline>
J2VwaWtfcHl0aG9uJywgJy1waCcsICc3LjAnLCAnLXRuJywgJzgnLCAnLW1hJywgJzIwMCcsICctbWV0YWxfYmluZGluZycsICctaW1hZScsICc8aW5maWxlLm1hZT4nLCAnLW9tYWUnLCAnPG91dGZpbGUubWFlPic=

> <r_lp_tautomer_probability>
1

> <r_epik_Ionization_Penalty>
6.0391

> <r_epik_Ionization_Penalty_Charging>
3.54798

> <r_epik_Ionization_Penalty_Neutral>
2.49112

> <r_epik_State_Penalty>
5.3147

> <r_epik_Charging_Adjusted_Penalty>
8.86267

> <i_epik_Tot_Q>
-1

> <i_epik_Tot_abs_Q>
1

> <r_epik_Metal_State_Penalty>
2.29997

> <b_epik_Metal_Only>
1

> <s_lp_Force_Field>
OPLS_2005

> <r_lp_Energy>
40.1381

> <b_lp_Chiralities_Consistent>
1

> <s_lp_Variant>
AV-unprocessed.smi:1817-12

> <Gold.Version>
5.8.1

> <Gold.Id.Protein>
6NUR|6NUR_protein|mol2

> <Gold.PLP.Fitness>
46.4406

> <Gold.PLP.PLP>
-39.1370

> <Gold.PLP.part.hbond>
-3.0000

> <Gold.PLP.part.metal>
0.0000

> <Gold.PLP.part.buried>
-6.5403

> <Gold.PLP.part.nonpolar>
-31.2313

> <Gold.PLP.part.repulsive>
0.3123

> <Gold.PLP.ligand.clash>
0.0000

> <Gold.PLP.ligand.torsion>
0.9617

> <Gold.PLP.Chemscore.Hbond>
3.0429

> <Gold.PLP.Chemscore.CHOScore>
0.0000

> <Gold.PLP.Chemscore.Metal>
0.0000

> <Gold.Chemscore.Hbonds>
donor molecule, donor type, donor heavy atom, donor atom, acceptor molecule, acceptor atom, score
      P1  H  6896  6909       L1    12  0.37
      P1  H  6931  6943       L1    13  0.43
      P1  H  6934  6947       L1    13  0.96

> <Gold.PLP.Chemscore.Internal.Correction>
0.0982

> <Gold.Rescore>
     Score         DG    S(hbond)    S(metal)    S(lipo)     H(rot)  DE(clash)    DE(int)     intcor
     13.82     -16.90       1.70        0.00      89.18       1.84       0.58       2.50       ----

> <Gold.Chemscore.Fitness>
13.8184

> <Gold.Chemscore.DG>
-16.9016

> <Gold.Chemscore.ZeroCoef>
-5.4800

> <Gold.Chemscore.Hbond>
1.7026

> <Gold.Chemscore.Metal>
0.0000

> <Gold.Chemscore.Lipo>
89.1847

> <Gold.Chemscore.Internal_Hbond>
0.0000

> <Gold.Chemscore.DEClash>
0.5805

> <Gold.Chemscore.DEInternal>
2.5027

> <Gold.Chemscore.Rot>
1.8358

> <Gold.Chemscore.Internal.Correction>
   9.000000E+99

> <Gold.Chemscore.Hbonds>
donor molecule, donor type, donor heavy atom, donor atom, acceptor molecule, acceptor atom, score
      P1  H  6896  6909       L1    12  0.28
      P1  H  6931  6943       L1    13  0.05
      P1  H  6934  6947       L1    13  0.37

> <Gold.Chemscore.Hbond.Weighted>
-5.6866

> <Gold.Chemscore.Metal.Weighted>
-0.0000

> <Gold.Chemscore.Lipo.Weighted>
-10.4346

> <Gold.Chemscore.Internal_Hbond.Weighted>
0.0000

> <Gold.Chemscore.DEClash.Weighted>
0.5805

> <Gold.Chemscore.DEInternal.Weighted>
2.5027

> <Gold.Chemscore.Rot.Weighted>
4.6996

> <Gold.Chemscore.Internal.Correction.Weighted>
   9.000000E+99

> <Gold.Protein.RotatedTorsions>
[ 6907 6896 6895 6894 ] final   60.09 input  -60.11 | X-H torsion
[ 7974 7965 7964 7962 ] final  127.45 input  175.53 | X-H torsion
[ 8008 7997 7996 7995 ] final -134.96 input   59.86 | X-H torsion
[ 10167 10162 10161 10158 ] final   25.39 input  -65.29 | X-H torsion
[ 10718 10713 10712 10709 ] final -108.50 input   66.30 | X-H torsion
[ 10763 10752 10751 10750 ] final    0.45 input  -60.55 | X-H torsion
[ 11005 11000 10999 10996 ] final   67.28 input  -57.11 | X-H torsion

> <Gold.Protein.ActiveResidues>
 VAL166  LYS551  ARG553  GLY616  TRP617  ASP618  TYR619  PRO620  LYS621  CYS622 
 ASP623  PHE694  ASN695  SER759  ASP760  ASP761  ALA762  ILE779  LEU786  VAL792 
 PHE793  MET794  SER795  GLU796  ALA797  LYS798  CYS799  TRP800  GLU811  SER814 

> <Gold.Protein.RotatedAtoms>
  152.3972  134.6345  160.0083 H   0  0  0  0  0  0  0  0  0  0  0  0  # atno 6907 bound_to 6896
  151.6561  133.3313  159.3171 H   0  0  0  0  0  0  0  0  0  0  0  0  # atno 6908 bound_to 6896
  150.7878  134.6920  159.6547 H   0  0  0  0  0  0  0  0  0  0  0  0  # atno 6909 bound_to 6896
  145.0505  139.3887  143.5056 H   0  0  0  0  0  0  0  0  0  0  0  0  # atno 7974 bound_to 7965
  155.3707  140.0488  157.3045 H   0  0  0  0  0  0  0  0  0  0  0  0  # atno 8008 bound_to 7997
  154.5131  140.2199  155.9080 H   0  0  0  0  0  0  0  0  0  0  0  0  # atno 8009 bound_to 7997
  156.1606  140.3117  155.8806 H   0  0  0  0  0  0  0  0  0  0  0  0  # atno 8010 bound_to 7997
  140.5110  144.0161  150.6372 H   0  0  0  0  0  0  0  0  0  0  0  0  # atno 10167 bound_to 10162
  156.0489  130.5716  150.7970 H   0  0  0  0  0  0  0  0  0  0  0  0  # atno 10718 bound_to 10713
  153.3205  135.6969  153.7035 H   0  0  0  0  0  0  0  0  0  0  0  0  # atno 10763 bound_to 10752
  153.5877  135.3486  155.2899 H   0  0  0  0  0  0  0  0  0  0  0  0  # atno 10764 bound_to 10752
  154.8596  135.4310  154.2367 H   0  0  0  0  0  0  0  0  0  0  0  0  # atno 10765 bound_to 10752
  139.9780  134.6790  156.0317 H   0  0  0  0  0  0  0  0  0  0  0  0  # atno 11005 bound_to 11000
  146.3517  140.0152  142.8663 LP  0  0  0  0  0  0  0  0  0  0  0  0  # atno 17320 bound_to 7965
  145.1533  140.9635  143.4420 LP  0  0  0  0  0  0  0  0  0  0  0  0  # atno 17321 bound_to 7965
  140.3483  143.2978  152.0514 LP  0  0  0  0  0  0  0  0  0  0  0  0  # atno 17342 bound_to 10162
  139.4896  144.6392  151.6911 LP  0  0  0  0  0  0  0  0  0  0  0  0  # atno 17343 bound_to 10162
  157.5394  131.0940  150.9848 LP  0  0  0  0  0  0  0  0  0  0  0  0  # atno 17370 bound_to 10713
  157.0135  130.5646  149.5323 LP  0  0  0  0  0  0  0  0  0  0  0  0  # atno 17371 bound_to 10713
  141.1455  133.6557  156.3855 LP  0  0  0  0  0  0  0  0  0  0  0  0  # atno 17394 bound_to 11000
  140.5155  134.6354  157.5299 LP  0  0  0  0  0  0  0  0  0  0  0  0  # atno 17395 bound_to 11000

$$$$
