AV-unprocessed.smi:1838|AV-procd|sdf|7483|dock2
  -GOLD-   22720 9183D 1   1.00000     0.00000
 Structure written by MMmdl.
 35 36  0  0  0  0  0  0  0  0  1 V2000
  151.4259  145.4710  160.6134 C   0  0  0  0  0  0  0  0  0  0  0  0
  151.1782  144.3613  159.7568 O   0  0  0  0  0  0  0  0  0  0  0  0
  151.9207  143.2096  159.9364 C   0  0  0  0  0  0  0  0  0  0  0  0
  152.8500  143.1914  160.9249 N   0  0  0  0  0  0  0  0  0  0  0  0
  153.5770  142.0703  161.1034 C   0  0  0  0  0  0  0  0  0  0  0  0
  153.4185  140.9173  160.3140 C   0  0  0  0  0  0  0  0  0  0  0  0
  152.4558  140.9331  159.2877 C   0  0  0  0  0  0  0  0  0  0  0  0
  151.6821  142.1035  159.0863 C   0  0  0  0  0  0  0  0  0  0  0  0
  150.6797  142.2478  158.0843 N   0  0  0  0  0  0  0  0  0  0  0  0
  149.9854  141.3104  157.4162 C   0  0  0  0  0  0  0  0  0  0  0  0
  150.0907  140.0937  157.5652 O   0  0  0  0  0  0  0  0  0  0  0  0
  149.1370  141.8742  156.5448 N   0  0  0  0  0  0  0  0  0  0  0  0
  148.2517  141.1512  155.6337 C   0  0  1  0  0  0  0  0  0  0  0  0
  146.9376  141.9237  155.4117 C   0  0  0  0  0  0  0  0  0  0  0  0
  146.1068  141.2546  154.3132 C   0  0  0  0  0  0  0  0  0  0  0  0
  146.9087  141.1799  153.0038 C   0  0  0  0  0  0  0  0  0  0  0  0
  148.2838  140.7152  153.1931 N   0  0  0  0  0  0  0  0  0  0  0  0
  148.9824  140.7429  154.3420 C   0  0  0  0  0  0  0  0  0  0  0  0
  150.1667  140.4125  154.3785 O   0  0  0  0  0  0  0  0  0  0  0  0
  150.7662  146.2935  160.3379 H   0  0  0  0  0  0  0  0  0  0  0  0
  152.4533  145.8263  160.5193 H   0  0  0  0  0  0  0  0  0  0  0  0
  151.2263  145.2222  161.6568 H   0  0  0  0  0  0  0  0  0  0  0  0
  154.3068  142.0932  161.8991 H   0  0  0  0  0  0  0  0  0  0  0  0
  154.0224  140.0395  160.4909 H   0  0  0  0  0  0  0  0  0  0  0  0
  152.3415  140.0465  158.6863 H   0  0  0  0  0  0  0  0  0  0  0  0
  150.4632  143.2039  157.8419 H   0  0  0  0  0  0  0  0  0  0  0  0
  149.1185  142.8817  156.4840 H   0  0  0  0  0  0  0  0  0  0  0  0
  147.9935  140.2006  156.1044 H   0  0  0  0  0  0  0  0  0  0  0  0
  146.3619  141.9674  156.3370 H   0  0  0  0  0  0  0  0  0  0  0  0
  147.1525  142.9552  155.1286 H   0  0  0  0  0  0  0  0  0  0  0  0
  145.8286  140.2489  154.6314 H   0  0  0  0  0  0  0  0  0  0  0  0
  145.1752  141.7986  154.1541 H   0  0  0  0  0  0  0  0  0  0  0  0
  146.4049  140.5270  152.2906 H   0  0  0  0  0  0  0  0  0  0  0  0
  146.9532  142.1686  152.5454 H   0  0  0  0  0  0  0  0  0  0  0  0
  148.7700  140.4045  152.3642 H   0  0  0  0  0  0  0  0  0  0  0  0
  1  2  1  0  0  0  0
  1 20  1  0  0  0  0
  1 21  1  0  0  0  0
  1 22  1  0  0  0  0
  2  3  1  0  0  0  0
  3  8  1  0  0  0  0
  3  4  2  0  0  0  0
  4  5  1  0  0  0  0
  5  6  2  0  0  0  0
  5 23  1  0  0  0  0
  6  7  1  0  0  0  0
  6 24  1  0  0  0  0
  7  8  2  0  0  0  0
  7 25  1  0  0  0  0
  8  9  1  0  0  0  0
  9 10  1  0  0  0  0
  9 26  1  0  0  0  0
 10 11  2  0  0  0  0
 10 12  1  0  0  0  0
 12 13  1  0  0  0  0
 12 27  1  0  0  0  0
 13 18  1  0  0  0  0
 13 14  1  0  0  0  0
 13 28  1  0  0  0  0
 14 15  1  0  0  0  0
 14 29  1  0  0  0  0
 14 30  1  0  0  0  0
 15 16  1  0  0  0  0
 15 31  1  0  0  0  0
 15 32  1  0  0  0  0
 16 17  1  0  0  0  0
 16 33  1  0  0  0  0
 16 34  1  0  0  0  0
 17 18  1  0  0  0  0
 17 35  1  0  0  0  0
 18 19  2  0  0  0  0
M  END
> <s_m_source_file>
AV-unprocessed.smi

> <i_m_source_file_index>
1838

> <i_lp_mmshare_version>
43012

> <i_f3d_flags>
0

> <s_epik_input>
W0NIM11PYzFuW2NIXVtjSF1bY0hdYzFbTkhdQyg9TylbTkhdW0NAQEhdMltDSDJdW0NIMl1bQ0gyXVtOSF1DMj1P

> <s_epik_cmdline>
J2VwaWtfcHl0aG9uJywgJy1waCcsICc3LjAnLCAnLXRuJywgJzgnLCAnLW1hJywgJzIwMCcsICctbWV0YWxfYmluZGluZycsICctaW1hZScsICc8aW5maWxlLm1hZT4nLCAnLW9tYWUnLCAnPG91dGZpbGUubWFlPic=

> <r_lp_tautomer_probability>
1

> <r_epik_Ionization_Penalty>
8.30645e-05

> <r_epik_Ionization_Penalty_Charging>
0

> <r_epik_Ionization_Penalty_Neutral>
8.30645e-05

> <r_epik_State_Penalty>
-0

> <r_epik_Charging_Adjusted_Penalty>
0

> <i_epik_Tot_Q>
0

> <i_epik_Tot_abs_Q>
0

> <r_epik_Metal_State_Penalty>
-0

> <b_epik_Metal_Only>
0

> <s_lp_Force_Field>
OPLS_2005

> <r_lp_Energy>
12.0006

> <b_lp_Chiralities_Consistent>
1

> <s_lp_Variant>
AV-unprocessed.smi:1838-2

> <Gold.Version>
5.8.1

> <Gold.Id.Protein>
6NUR|6NUR_protein|mol2

> <Gold.PLP.Fitness>
42.3642

> <Gold.PLP.PLP>
-34.4427

> <Gold.PLP.part.hbond>
-2.6527

> <Gold.PLP.part.metal>
0.0000

> <Gold.PLP.part.buried>
-5.4666

> <Gold.PLP.part.nonpolar>
-26.6261

> <Gold.PLP.part.repulsive>
0.4142

> <Gold.PLP.ligand.clash>
0.0000

> <Gold.PLP.ligand.torsion>
0.4507

> <Gold.PLP.Chemscore.Hbond>
2.9263

> <Gold.PLP.Chemscore.CHOScore>
0.0000

> <Gold.PLP.Chemscore.Metal>
0.0000

> <Gold.Chemscore.Hbonds>
donor molecule, donor type, donor heavy atom, donor atom, acceptor molecule, acceptor atom, score
      L1  H    12    27       P1  8028  1.00
      L1  H    17    35       P1  7957  0.94
      P1  H  7989  7998       L1    19  0.93

> <Gold.PLP.Chemscore.Internal.Correction>
0.0442

> <Gold.Rescore>
     Score         DG    S(hbond)    S(metal)    S(lipo)     H(rot)  DE(clash)    DE(int)     intcor
     18.55     -19.98       2.85        0.00      71.68       1.33       0.12       1.30       ----

> <Gold.Chemscore.Fitness>
18.5534

> <Gold.Chemscore.DG>
-19.9761

> <Gold.Chemscore.ZeroCoef>
-5.4800

> <Gold.Chemscore.Hbond>
2.8480

> <Gold.Chemscore.Metal>
0.0000

> <Gold.Chemscore.Lipo>
71.6797

> <Gold.Chemscore.Internal_Hbond>
0.0000

> <Gold.Chemscore.DEClash>
0.1185

> <Gold.Chemscore.DEInternal>
1.3043

> <Gold.Chemscore.Rot>
1.3292

> <Gold.Chemscore.Internal.Correction>
   9.000000E+99

> <Gold.Chemscore.Hbonds>
donor molecule, donor type, donor heavy atom, donor atom, acceptor molecule, acceptor atom, score
      L1  H    12    27       P1  8028  0.93
      L1  H    17    35       P1  7957  0.90
      P1  H  7989  7998       L1    19  0.90

> <Gold.Chemscore.Hbond.Weighted>
-9.5123

> <Gold.Chemscore.Metal.Weighted>
-0.0000

> <Gold.Chemscore.Lipo.Weighted>
-8.3865

> <Gold.Chemscore.Internal_Hbond.Weighted>
0.0000

> <Gold.Chemscore.DEClash.Weighted>
0.1185

> <Gold.Chemscore.DEInternal.Weighted>
1.3043

> <Gold.Chemscore.Rot.Weighted>
3.4027

> <Gold.Chemscore.Internal.Correction.Weighted>
   9.000000E+99

> <Gold.Protein.RotatedTorsions>
[ 6907 6896 6895 6894 ] final   39.26 input  -60.11 | X-H torsion
[ 7974 7965 7964 7962 ] final -169.41 input  175.53 | X-H torsion
[ 8008 7997 7996 7995 ] final  174.94 input   59.86 | X-H torsion
[ 10167 10162 10161 10158 ] final   18.58 input  -65.29 | X-H torsion
[ 10718 10713 10712 10709 ] final  119.90 input   66.30 | X-H torsion
[ 10763 10752 10751 10750 ] final  125.08 input  -60.55 | X-H torsion
[ 11005 11000 10999 10996 ] final  141.11 input  -57.11 | X-H torsion

> <Gold.Protein.ActiveResidues>
 VAL166  LYS551  ARG553  GLY616  TRP617  ASP618  TYR619  PRO620  LYS621  CYS622 
 ASP623  PHE694  ASN695  SER759  ASP760  ASP761  ALA762  ILE779  LEU786  VAL792 
 PHE793  MET794  SER795  GLU796  ALA797  LYS798  CYS799  TRP800  GLU811  SER814 

> <Gold.Protein.RotatedAtoms>
  152.1672  134.8864  160.0536 H   0  0  0  0  0  0  0  0  0  0  0  0  # atno 6907 bound_to 6896
  151.9837  133.3762  159.4126 H   0  0  0  0  0  0  0  0  0  0  0  0  # atno 6908 bound_to 6896
  150.6896  134.3933  159.5130 H   0  0  0  0  0  0  0  0  0  0  0  0  # atno 6909 bound_to 6896
  144.7186  140.2225  143.6314 H   0  0  0  0  0  0  0  0  0  0  0  0  # atno 7974 bound_to 7965
  156.0922  140.1421  156.9577 H   0  0  0  0  0  0  0  0  0  0  0  0  # atno 8008 bound_to 7997
  154.4649  140.0930  156.7040 H   0  0  0  0  0  0  0  0  0  0  0  0  # atno 8009 bound_to 7997
  155.4900  140.3447  155.4355 H   0  0  0  0  0  0  0  0  0  0  0  0  # atno 8010 bound_to 7997
  140.5642  143.9281  150.6665 H   0  0  0  0  0  0  0  0  0  0  0  0  # atno 10167 bound_to 10162
  157.5929  131.1062  150.7960 H   0  0  0  0  0  0  0  0  0  0  0  0  # atno 10718 bound_to 10713
  153.6716  135.3329  155.3155 H   0  0  0  0  0  0  0  0  0  0  0  0  # atno 10763 bound_to 10752
  154.8489  135.4387  154.1699 H   0  0  0  0  0  0  0  0  0  0  0  0  # atno 10764 bound_to 10752
  153.2692  135.6998  153.7574 H   0  0  0  0  0  0  0  0  0  0  0  0  # atno 10765 bound_to 10752
  140.0377  134.9321  157.0784 H   0  0  0  0  0  0  0  0  0  0  0  0  # atno 11005 bound_to 11000
  145.8487  139.2165  143.1785 LP  0  0  0  0  0  0  0  0  0  0  0  0  # atno 17320 bound_to 7965
  146.0280  140.8285  142.9890 LP  0  0  0  0  0  0  0  0  0  0  0  0  # atno 17321 bound_to 7965
  140.2739  143.3436  152.1213 LP  0  0  0  0  0  0  0  0  0  0  0  0  # atno 17342 bound_to 10162
  139.5085  144.6851  151.5909 LP  0  0  0  0  0  0  0  0  0  0  0  0  # atno 17343 bound_to 10162
  156.8378  130.5037  149.5324 LP  0  0  0  0  0  0  0  0  0  0  0  0  # atno 17370 bound_to 10713
  156.0987  130.5952  150.9857 LP  0  0  0  0  0  0  0  0  0  0  0  0  # atno 17371 bound_to 10713
  140.4121  134.1970  155.7163 LP  0  0  0  0  0  0  0  0  0  0  0  0  # atno 17394 bound_to 11000
  141.1866  133.8299  157.1062 LP  0  0  0  0  0  0  0  0  0  0  0  0  # atno 17395 bound_to 11000

$$$$
