AV-unprocessed.smi:2937|AV-procd|sdf|11259|dock6
  -GOLD-   2272016153D 1   1.00000     0.00000
 Structure written by MMmdl.
 33 34  0  0  0  0  0  0  0  0  1 V2000
  148.5925  140.0593  153.9147 C   0  0  0  0  0  0  0  0  0  0  0  0
  148.9774  140.8540  155.0307 O   0  0  0  0  0  0  0  0  0  0  0  0
  150.1710  140.5645  155.6619 C   0  0  0  0  0  0  0  0  0  0  0  0
  151.0604  139.7528  155.0381 N   0  0  0  0  0  0  0  0  0  0  0  0
  152.1968  139.4939  155.6819 C   0  0  0  0  0  0  0  0  0  0  0  0
  153.0898  138.6672  155.0454 N   0  0  0  0  0  0  0  0  0  0  0  0
  152.5585  139.9536  156.8786 N   0  0  0  0  0  0  0  0  0  0  0  0
  151.6911  140.7716  157.5235 C   0  0  0  0  0  0  0  0  0  0  0  0
  152.0794  141.2855  158.7750 N   0  0  0  0  0  0  0  0  0  0  0  0
  152.1078  142.7424  158.8162 C   0  0  0  0  0  0  0  0  0  0  0  0
  152.3005  143.2234  160.2649 C   0  0  0  0  0  0  0  0  0  0  0  0
  153.4780  142.6374  160.8139 O   0  0  0  0  0  0  0  0  0  0  0  0
  153.4080  141.2144  160.8373 C   0  0  0  0  0  0  0  0  0  0  0  0
  153.2520  140.6836  159.4022 C   0  0  0  0  0  0  0  0  0  0  0  0
  150.4414  141.1127  156.9384 C   0  0  0  0  0  0  0  0  0  0  0  0
  149.4124  141.9985  157.6294 C   0  0  0  0  0  0  0  0  0  0  0  0
  148.5586  142.6535  156.7159 O   0  0  0  0  0  0  0  0  0  0  0  0
  147.6360  140.4148  153.5320 H   0  0  0  0  0  0  0  0  0  0  0  0
  148.4689  139.0118  154.1930 H   0  0  0  0  0  0  0  0  0  0  0  0
  149.3200  140.1314  153.1050 H   0  0  0  0  0  0  0  0  0  0  0  0
  152.8742  138.2864  154.1355 H   0  0  0  0  0  0  0  0  0  0  0  0
  153.9640  138.4225  155.4872 H   0  0  0  0  0  0  0  0  0  0  0  0
  152.9263  143.1015  158.1909 H   0  0  0  0  0  0  0  0  0  0  0  0
  151.1891  143.1607  158.4064 H   0  0  0  0  0  0  0  0  0  0  0  0
  152.3982  144.3087  160.2907 H   0  0  0  0  0  0  0  0  0  0  0  0
  151.4346  142.9662  160.8770 H   0  0  0  0  0  0  0  0  0  0  0  0
  154.3197  140.8211  161.2869 H   0  0  0  0  0  0  0  0  0  0  0  0
  152.5765  140.8906  161.4652 H   0  0  0  0  0  0  0  0  0  0  0  0
  153.1521  139.5975  159.4125 H   0  0  0  0  0  0  0  0  0  0  0  0
  154.1454  140.9239  158.8239 H   0  0  0  0  0  0  0  0  0  0  0  0
  148.8036  141.3871  158.2962 H   0  0  0  0  0  0  0  0  0  0  0  0
  149.8933  142.7438  158.2623 H   0  0  0  0  0  0  0  0  0  0  0  0
  149.0129  143.4047  156.3657 H   0  0  0  0  0  0  0  0  0  0  0  0
  1  2  1  0  0  0  0
  1 18  1  0  0  0  0
  1 19  1  0  0  0  0
  1 20  1  0  0  0  0
  2  3  1  0  0  0  0
  3 15  1  0  0  0  0
  3  4  2  0  0  0  0
  4  5  1  0  0  0  0
  5  6  1  0  0  0  0
  5  7  2  0  0  0  0
  6 21  1  0  0  0  0
  6 22  1  0  0  0  0
  7  8  1  0  0  0  0
  8  9  1  0  0  0  0
  8 15  2  0  0  0  0
  9 14  1  0  0  0  0
  9 10  1  0  0  0  0
 10 11  1  0  0  0  0
 10 23  1  0  0  0  0
 10 24  1  0  0  0  0
 11 12  1  0  0  0  0
 11 25  1  0  0  0  0
 11 26  1  0  0  0  0
 12 13  1  0  0  0  0
 13 14  1  0  0  0  0
 13 27  1  0  0  0  0
 13 28  1  0  0  0  0
 14 29  1  0  0  0  0
 14 30  1  0  0  0  0
 15 16  1  0  0  0  0
 16 17  1  0  0  0  0
 16 31  1  0  0  0  0
 16 32  1  0  0  0  0
 17 33  1  0  0  0  0
M  END
> <s_m_source_file>
AV-unprocessed.smi

> <i_m_source_file_index>
2937

> <i_lp_mmshare_version>
43012

> <i_f3d_flags>
0

> <s_epik_input>
W0NIM11PYzFuYyhbTkgyXSluYyhjMVtDSDJdW09IXSlOMltDSDJdW0NIMl1PW0NIMl1bQ0gyXTI=

> <s_epik_cmdline>
J2VwaWtfcHl0aG9uJywgJy1waCcsICc3LjAnLCAnLXRuJywgJzgnLCAnLW1hJywgJzIwMCcsICctbWV0YWxfYmluZGluZycsICctaW1hZScsICc8aW5maWxlLm1hZT4nLCAnLW9tYWUnLCAnPG91dGZpbGUubWFlPic=

> <r_lp_tautomer_probability>
1

> <r_epik_Ionization_Penalty>
0.000679252

> <r_epik_Ionization_Penalty_Charging>
0

> <r_epik_Ionization_Penalty_Neutral>
0.000679252

> <r_epik_State_Penalty>
0.00040271

> <r_epik_Charging_Adjusted_Penalty>
0.00040271

> <i_epik_Tot_Q>
0

> <i_epik_Tot_abs_Q>
0

> <r_epik_Metal_State_Penalty>
-0

> <b_epik_Metal_Only>
0

> <s_lp_Force_Field>
OPLS_2005

> <r_lp_Energy>
14.7013

> <b_lp_Chiralities_Consistent>
1

> <s_lp_Variant>
AV-unprocessed.smi:2937-1

> <Gold.Version>
5.8.1

> <Gold.Id.Protein>
6NUR|6NUR_protein|mol2

> <Gold.PLP.Fitness>
35.2584

> <Gold.PLP.PLP>
-27.4072

> <Gold.PLP.part.hbond>
-2.8000

> <Gold.PLP.part.metal>
0.0000

> <Gold.PLP.part.buried>
-1.3791

> <Gold.PLP.part.nonpolar>
-23.0109

> <Gold.PLP.part.repulsive>
0.3998

> <Gold.PLP.ligand.clash>
0.0000

> <Gold.PLP.ligand.torsion>
0.6649

> <Gold.PLP.Chemscore.Hbond>
3.0000

> <Gold.PLP.Chemscore.CHOScore>
0.0000

> <Gold.PLP.Chemscore.Metal>
0.0000

> <Gold.Chemscore.Hbonds>
donor molecule, donor type, donor heavy atom, donor atom, acceptor molecule, acceptor atom, score
      L1  H    17    33       P1  8028  0.83
      P1  H  7989  7998       L1     4  1.00
      P1  H  7997  8008       L1     7  0.85

> <Gold.PLP.Chemscore.Internal.Correction>
0.1809

> <Gold.Rescore>
     Score         DG    S(hbond)    S(metal)    S(lipo)     H(rot)  DE(clash)    DE(int)     intcor
     11.41     -12.36       1.88        0.00      55.66       2.31       0.38       0.58       ----

> <Gold.Chemscore.Fitness>
11.4074

> <Gold.Chemscore.DG>
-12.3633

> <Gold.Chemscore.ZeroCoef>
-5.4800

> <Gold.Chemscore.Hbond>
1.8829

> <Gold.Chemscore.Metal>
0.0000

> <Gold.Chemscore.Lipo>
55.6632

> <Gold.Chemscore.Internal_Hbond>
0.0000

> <Gold.Chemscore.DEClash>
0.3787

> <Gold.Chemscore.DEInternal>
0.5773

> <Gold.Chemscore.Rot>
2.3118

> <Gold.Chemscore.Internal.Correction>
   9.000000E+99

> <Gold.Chemscore.Hbonds>
donor molecule, donor type, donor heavy atom, donor atom, acceptor molecule, acceptor atom, score
      L1  H    17    33       P1  8028  0.77
      P1  H  7989  7998       L1     4  0.13
      P1  H  7997  8008       L1     7  0.15

> <Gold.Chemscore.Hbond.Weighted>
-6.2888

> <Gold.Chemscore.Metal.Weighted>
-0.0000

> <Gold.Chemscore.Lipo.Weighted>
-6.5126

> <Gold.Chemscore.Internal_Hbond.Weighted>
0.0000

> <Gold.Chemscore.DEClash.Weighted>
0.3787

> <Gold.Chemscore.DEInternal.Weighted>
0.5773

> <Gold.Chemscore.Rot.Weighted>
5.9181

> <Gold.Chemscore.Internal.Correction.Weighted>
   9.000000E+99

> <Gold.Protein.RotatedTorsions>
[ 6907 6896 6895 6894 ] final  125.65 input  -60.11 | X-H torsion
[ 7974 7965 7964 7962 ] final  119.93 input  175.53 | X-H torsion
[ 8008 7997 7996 7995 ] final  -53.07 input   59.86 | X-H torsion
[ 10167 10162 10161 10158 ] final  177.91 input  -65.29 | X-H torsion
[ 10718 10713 10712 10709 ] final   67.04 input   66.30 | X-H torsion
[ 10763 10752 10751 10750 ] final   -5.82 input  -60.55 | X-H torsion
[ 11005 11000 10999 10996 ] final  136.17 input  -57.11 | X-H torsion

> <Gold.Protein.ActiveResidues>
 VAL166  LYS551  ARG553  GLY616  TRP617  ASP618  TYR619  PRO620  LYS621  CYS622 
 ASP623  PHE694  ASN695  SER759  ASP760  ASP761  ALA762  ILE779  LEU786  VAL792 
 PHE793  MET794  SER795  GLU796  ALA797  LYS798  CYS799  TRP800  GLU811  SER814 

> <Gold.Protein.RotatedAtoms>
  152.3973  133.6766  159.6287 H   0  0  0  0  0  0  0  0  0  0  0  0  # atno 6907 bound_to 6896
  150.7870  133.8851  159.3306 H   0  0  0  0  0  0  0  0  0  0  0  0  # atno 6908 bound_to 6896
  151.6624  135.0989  160.0233 H   0  0  0  0  0  0  0  0  0  0  0  0  # atno 6909 bound_to 6896
  145.1372  139.3290  143.4635 H   0  0  0  0  0  0  0  0  0  0  0  0  # atno 7974 bound_to 7965
  154.4123  140.1208  156.5094 H   0  0  0  0  0  0  0  0  0  0  0  0  # atno 8008 bound_to 7997
  155.6814  140.3496  155.4837 H   0  0  0  0  0  0  0  0  0  0  0  0  # atno 8009 bound_to 7997
  155.9548  140.1111  157.0936 H   0  0  0  0  0  0  0  0  0  0  0  0  # atno 8010 bound_to 7997
  139.5272  144.2743  152.0601 H   0  0  0  0  0  0  0  0  0  0  0  0  # atno 10167 bound_to 10162
  157.6206  130.9300  150.0189 H   0  0  0  0  0  0  0  0  0  0  0  0  # atno 10718 bound_to 10713
  153.4038  135.7005  153.6407 H   0  0  0  0  0  0  0  0  0  0  0  0  # atno 10763 bound_to 10752
  153.4930  135.3668  155.2502 H   0  0  0  0  0  0  0  0  0  0  0  0  # atno 10764 bound_to 10752
  154.8712  135.4093  154.3377 H   0  0  0  0  0  0  0  0  0  0  0  0  # atno 10765 bound_to 10752
  140.0028  134.9471  157.0110 H   0  0  0  0  0  0  0  0  0  0  0  0  # atno 11005 bound_to 11000
  146.3508  140.1394  142.8595 LP  0  0  0  0  0  0  0  0  0  0  0  0  # atno 17320 bound_to 7965
  145.0571  140.9061  143.4960 LP  0  0  0  0  0  0  0  0  0  0  0  0  # atno 17321 bound_to 7965
  140.2201  144.4475  150.6346 LP  0  0  0  0  0  0  0  0  0  0  0  0  # atno 17342 bound_to 10162
  140.6424  143.2206  151.6260 LP  0  0  0  0  0  0  0  0  0  0  0  0  # atno 17343 bound_to 10162
  156.1350  130.3643  149.9672 LP  0  0  0  0  0  0  0  0  0  0  0  0  # atno 17370 bound_to 10713
  156.7725  130.9191  151.3644 LP  0  0  0  0  0  0  0  0  0  0  0  0  # atno 17371 bound_to 10713
  140.4696  134.1400  155.7201 LP  0  0  0  0  0  0  0  0  0  0  0  0  # atno 17394 bound_to 11000
  141.1655  133.8711  157.1727 LP  0  0  0  0  0  0  0  0  0  0  0  0  # atno 17395 bound_to 11000

$$$$
