AV-unprocessed.smi:2577|AV-procd|sdf|10120|dock6
  -GOLD-   2272014143D 1   1.00000     0.00000
 Structure written by MMmdl.
 27 28  0  0  0  0  0  0  0  0  1 V2000
  149.7723  144.4203  159.4316 C   0  0  0  0  0  0  0  0  0  0  0  0
  151.1865  144.8451  159.0131 C   0  0  0  0  0  0  0  0  0  0  0  0
  151.7972  143.9495  157.9205 C   0  0  2  0  0  0  0  0  0  0  0  0
  151.5252  144.5130  156.6512 O   0  0  0  0  0  0  0  0  0  0  0  0
  151.2393  142.5139  157.9757 C   0  0  0  0  0  0  0  0  0  0  0  0
  152.1970  141.5631  158.5131 N   0  0  0  0  0  0  0  0  0  0  0  0
  152.6003  140.5132  157.7430 N   0  0  0  0  0  0  0  0  0  0  0  0
  153.4467  139.7991  158.4231 N   0  0  0  0  0  0  0  0  0  0  0  0
  153.6035  140.3889  159.6665 C   0  0  0  0  0  0  0  0  0  0  0  0
  154.3909  140.0348  160.7847 C   0  0  0  0  0  0  0  0  0  0  0  0
  154.3637  140.8241  161.9555 C   0  0  0  0  0  0  0  0  0  0  0  0
  155.3413  140.3587  163.3021 Cl  0  0  0  0  0  0  0  0  0  0  0  0
  153.5460  141.9783  162.0205 C   0  0  0  0  0  0  0  0  0  0  0  0
  153.5008  142.9546  163.4453 Cl  0  0  0  0  0  0  0  0  0  0  0  0
  152.7553  142.3429  160.9126 C   0  0  0  0  0  0  0  0  0  0  0  0
  152.7983  141.5450  159.7568 C   0  0  0  0  0  0  0  0  0  0  0  0
  149.3679  145.1053  160.1769 H   0  0  0  0  0  0  0  0  0  0  0  0
  149.7690  143.4204  159.8663 H   0  0  0  0  0  0  0  0  0  0  0  0
  149.0930  144.4178  158.5787 H   0  0  0  0  0  0  0  0  0  0  0  0
  151.1402  145.8718  158.6481 H   0  0  0  0  0  0  0  0  0  0  0  0
  151.8377  144.8642  159.8881 H   0  0  0  0  0  0  0  0  0  0  0  0
  152.8798  143.9158  158.0510 H   0  0  0  0  0  0  0  0  0  0  0  0
  150.6246  144.3322  156.4287 H   0  0  0  0  0  0  0  0  0  0  0  0
  150.3399  142.4817  158.5924 H   0  0  0  0  0  0  0  0  0  0  0  0
  150.9423  142.1821  156.9799 H   0  0  0  0  0  0  0  0  0  0  0  0
  155.0157  139.1548  160.7417 H   0  0  0  0  0  0  0  0  0  0  0  0
  152.1256  143.2197  160.9501 H   0  0  0  0  0  0  0  0  0  0  0  0
  1  2  1  0  0  0  0
  1 17  1  0  0  0  0
  1 18  1  0  0  0  0
  1 19  1  0  0  0  0
  2  3  1  0  0  0  0
  2 20  1  0  0  0  0
  2 21  1  0  0  0  0
  3  4  1  0  0  0  0
  3  5  1  0  0  0  0
  3 22  1  0  0  0  0
  4 23  1  0  0  0  0
  5  6  1  0  0  0  0
  5 24  1  0  0  0  0
  5 25  1  0  0  0  0
  6 16  1  0  0  0  0
  6  7  1  0  0  0  0
  7  8  2  0  0  0  0
  8  9  1  0  0  0  0
  9 16  2  0  0  0  0
  9 10  1  0  0  0  0
 10 11  2  0  0  0  0
 10 26  1  0  0  0  0
 11 12  1  0  0  0  0
 11 13  1  0  0  0  0
 13 14  1  0  0  0  0
 13 15  2  0  0  0  0
 15 16  1  0  0  0  0
 15 27  1  0  0  0  0
M  END
> <s_m_source_file>
AV-unprocessed.smi

> <i_m_source_file_index>
2577

> <i_lp_mmshare_version>
43012

> <i_f3d_flags>
0

> <s_epik_input>
W0NIM11bQ0gyXVtDQEhdKFtPSF0pW0NIMl1uKG5uMSljKGMxMilbY0hdYyhDbCljKENsKVtjSF0y

> <s_epik_cmdline>
J2VwaWtfcHl0aG9uJywgJy1waCcsICc3LjAnLCAnLXRuJywgJzgnLCAnLW1hJywgJzIwMCcsICctbWV0YWxfYmluZGluZycsICctaW1hZScsICc8aW5maWxlLm1hZT4nLCAnLW9tYWUnLCAnPG91dGZpbGUubWFlPic=

> <r_lp_tautomer_probability>
1

> <r_epik_Ionization_Penalty>
1.50913e-07

> <r_epik_Ionization_Penalty_Charging>
0

> <r_epik_Ionization_Penalty_Neutral>
1.50913e-07

> <r_epik_State_Penalty>
-0

> <r_epik_Charging_Adjusted_Penalty>
0

> <i_epik_Tot_Q>
0

> <i_epik_Tot_abs_Q>
0

> <r_epik_Metal_State_Penalty>
-0

> <b_epik_Metal_Only>
0

> <s_lp_Force_Field>
OPLS_2005

> <r_lp_Energy>
7.05244

> <b_lp_Chiralities_Consistent>
1

> <s_lp_Variant>
AV-unprocessed.smi:2577-1

> <Gold.Version>
5.8.1

> <Gold.Id.Protein>
6NUR|6NUR_protein|mol2

> <Gold.PLP.Fitness>
43.5242

> <Gold.PLP.PLP>
-39.6911

> <Gold.PLP.part.hbond>
-2.8741

> <Gold.PLP.part.metal>
0.0000

> <Gold.PLP.part.buried>
-2.0076

> <Gold.PLP.part.nonpolar>
-34.0474

> <Gold.PLP.part.repulsive>
0.0000

> <Gold.PLP.ligand.clash>
0.0000

> <Gold.PLP.ligand.torsion>
1.0846

> <Gold.PLP.Chemscore.Hbond>
2.0000

> <Gold.PLP.Chemscore.CHOScore>
0.0000

> <Gold.PLP.Chemscore.Metal>
0.0000

> <Gold.Chemscore.Hbonds>
donor molecule, donor type, donor heavy atom, donor atom, acceptor molecule, acceptor atom, score
      L1  H     4    23       P1  8028  1.00
      P1  H  7997  8009       L1     8  0.75

> <Gold.PLP.Chemscore.Internal.Correction>
0.0023

> <Gold.Rescore>
     Score         DG    S(hbond)    S(metal)    S(lipo)     H(rot)  DE(clash)    DE(int)     intcor
     16.07     -17.28       1.15        0.00     107.35       1.79       0.26       0.95       ----

> <Gold.Chemscore.Fitness>
16.0675

> <Gold.Chemscore.DG>
-17.2780

> <Gold.Chemscore.ZeroCoef>
-5.4800

> <Gold.Chemscore.Hbond>
1.1456

> <Gold.Chemscore.Metal>
0.0000

> <Gold.Chemscore.Lipo>
107.3513

> <Gold.Chemscore.Internal_Hbond>
0.0000

> <Gold.Chemscore.DEClash>
0.2572

> <Gold.Chemscore.DEInternal>
0.9533

> <Gold.Chemscore.Rot>
1.7924

> <Gold.Chemscore.Internal.Correction>
   9.000000E+99

> <Gold.Chemscore.Hbonds>
donor molecule, donor type, donor heavy atom, donor atom, acceptor molecule, acceptor atom, score
      L1  H     4    23       P1  8028  0.97
      P1  H  7997  8009       L1     8  0.08

> <Gold.Chemscore.Hbond.Weighted>
-3.8264

> <Gold.Chemscore.Metal.Weighted>
-0.0000

> <Gold.Chemscore.Lipo.Weighted>
-12.5601

> <Gold.Chemscore.Internal_Hbond.Weighted>
0.0000

> <Gold.Chemscore.DEClash.Weighted>
0.2572

> <Gold.Chemscore.DEInternal.Weighted>
0.9533

> <Gold.Chemscore.Rot.Weighted>
4.5884

> <Gold.Chemscore.Internal.Correction.Weighted>
   9.000000E+99

> <Gold.Protein.RotatedTorsions>
[ 6907 6896 6895 6894 ] final  172.86 input  -60.11 | X-H torsion
[ 7974 7965 7964 7962 ] final  104.43 input  175.53 | X-H torsion
[ 8008 7997 7996 7995 ] final  135.97 input   59.86 | X-H torsion
[ 10167 10162 10161 10158 ] final  -60.90 input  -65.29 | X-H torsion
[ 10718 10713 10712 10709 ] final  126.13 input   66.30 | X-H torsion
[ 10763 10752 10751 10750 ] final  -99.09 input  -60.55 | X-H torsion
[ 11005 11000 10999 10996 ] final -122.74 input  -57.11 | X-H torsion

> <Gold.Protein.ActiveResidues>
 VAL166  LYS551  ARG553  GLY616  TRP617  ASP618  TYR619  PRO620  LYS621  CYS622 
 ASP623  PHE694  ASN695  SER759  ASP760  ASP761  ALA762  ILE779  LEU786  VAL792 
 PHE793  MET794  SER795  GLU796  ALA797  LYS798  CYS799  TRP800  GLU811  SER814 

> <Gold.Protein.RotatedAtoms>
  151.7776  133.3347  159.3462 H   0  0  0  0  0  0  0  0  0  0  0  0  # atno 6907 bound_to 6896
  150.7438  134.5960  159.6021 H   0  0  0  0  0  0  0  0  0  0  0  0  # atno 6908 bound_to 6896
  152.3298  134.7275  160.0344 H   0  0  0  0  0  0  0  0  0  0  0  0  # atno 6909 bound_to 6896
  145.3328  139.2482  143.3651 H   0  0  0  0  0  0  0  0  0  0  0  0  # atno 7974 bound_to 7965
  156.3004  140.2457  156.3668 H   0  0  0  0  0  0  0  0  0  0  0  0  # atno 8008 bound_to 7997
  154.8826  140.0412  157.1810 H   0  0  0  0  0  0  0  0  0  0  0  0  # atno 8009 bound_to 7997
  154.8680  140.2931  155.5502 H   0  0  0  0  0  0  0  0  0  0  0  0  # atno 8010 bound_to 7997
  140.6041  143.2369  151.5862 H   0  0  0  0  0  0  0  0  0  0  0  0  # atno 10167 bound_to 10162
  157.5445  131.1096  150.8804 H   0  0  0  0  0  0  0  0  0  0  0  0  # atno 10718 bound_to 10713
  154.7469  135.4985  153.9220 H   0  0  0  0  0  0  0  0  0  0  0  0  # atno 10763 bound_to 10752
  153.1102  135.6707  153.9523 H   0  0  0  0  0  0  0  0  0  0  0  0  # atno 10764 bound_to 10752
  153.9284  135.3080  155.3425 H   0  0  0  0  0  0  0  0  0  0  0  0  # atno 10765 bound_to 10752
  140.9972  134.0454  157.3582 H   0  0  0  0  0  0  0  0  0  0  0  0  # atno 11005 bound_to 11000
  146.3038  140.3910  142.8694 LP  0  0  0  0  0  0  0  0  0  0  0  0  # atno 17320 bound_to 7965
  144.8851  140.7451  143.5962 LP  0  0  0  0  0  0  0  0  0  0  0  0  # atno 17321 bound_to 7965
  139.5312  144.2911  152.1151 LP  0  0  0  0  0  0  0  0  0  0  0  0  # atno 17342 bound_to 10162
  140.2097  144.4575  150.6391 LP  0  0  0  0  0  0  0  0  0  0  0  0  # atno 17343 bound_to 10162
  156.9347  130.5362  149.5279 LP  0  0  0  0  0  0  0  0  0  0  0  0  # atno 17370 bound_to 10713
  156.0524  130.5591  150.9018 LP  0  0  0  0  0  0  0  0  0  0  0  0  # atno 17371 bound_to 10713
  139.9021  135.0168  156.7316 LP  0  0  0  0  0  0  0  0  0  0  0  0  # atno 17394 bound_to 11000
  140.6946  133.9359  155.7987 LP  0  0  0  0  0  0  0  0  0  0  0  0  # atno 17395 bound_to 11000

$$$$
