AV-unprocessed.smi:2375|AV-procd|sdf|9442|dock8
  -GOLD-   2272013 73D 1   1.00000     0.00000
 Structure written by MMmdl.
 37 38  0  0  0  0  0  0  0  0  1 V2000
  145.6410  146.0104  153.1265 C   0  0  0  0  0  0  0  0  0  0  0  0
  146.2785  144.7329  153.5553 C   0  0  0  0  0  0  0  0  0  0  0  0
  146.3270  144.2001  154.8198 C   0  0  0  0  0  0  0  0  0  0  0  0
  147.0096  142.9843  154.8938 N   0  0  0  0  0  0  0  0  0  0  0  0
  147.4841  142.5915  153.7082 C   0  0  0  0  0  0  0  0  0  0  0  0
  148.2927  141.3463  153.5046 C   0  0  2  0  0  0  0  0  0  0  0  0
  147.4617  140.2154  152.8818 C   0  0  0  0  0  0  0  0  0  0  0  0
  149.0591  140.9033  154.7688 C   0  0  0  0  0  0  0  0  0  0  0  0
  149.8354  141.9971  155.3492 N   0  0  0  0  0  0  0  0  0  0  0  0
  150.6151  141.9147  156.4415 C   0  0  0  0  0  0  0  0  0  0  0  0
  150.8205  140.8695  157.0556 O   0  0  0  0  0  0  0  0  0  0  0  0
  151.1648  143.0801  156.8263 N   0  0  0  0  0  0  0  0  0  0  0  0
  152.0528  143.3242  157.9638 C   0  0  0  0  0  0  0  0  0  0  0  0
  151.4018  142.8970  159.3015 C   0  0  0  0  0  0  0  0  0  0  0  0
  151.7224  144.0351  160.2326 C   0  0  0  0  0  0  0  0  0  0  0  0
  152.2753  145.0681  159.6001 C   0  0  0  0  0  0  0  0  0  0  0  0
  152.4291  144.8197  158.1247 C   0  0  0  0  0  0  0  0  0  0  0  0
  147.0937  143.7076  152.4046 S   0  0  0  0  0  0  0  0  0  0  0  0
  145.1248  146.4908  153.9582 H   0  0  0  0  0  0  0  0  0  0  0  0
  144.9124  145.8331  152.3354 H   0  0  0  0  0  0  0  0  0  0  0  0
  146.3894  146.7066  152.7475 H   0  0  0  0  0  0  0  0  0  0  0  0
  145.9067  144.6183  155.7224 H   0  0  0  0  0  0  0  0  0  0  0  0
  149.0519  141.6029  152.7643 H   0  0  0  0  0  0  0  0  0  0  0  0
  147.0121  140.5319  151.9401 H   0  0  0  0  0  0  0  0  0  0  0  0
  146.6565  139.9031  153.5476 H   0  0  0  0  0  0  0  0  0  0  0  0
  148.0802  139.3415  152.6758 H   0  0  0  0  0  0  0  0  0  0  0  0
  148.3597  140.4945  155.4999 H   0  0  0  0  0  0  0  0  0  0  0  0
  149.7451  140.0927  154.5216 H   0  0  0  0  0  0  0  0  0  0  0  0
  149.7382  142.9017  154.9117 H   0  0  0  0  0  0  0  0  0  0  0  0
  150.9754  143.8799  156.2397 H   0  0  0  0  0  0  0  0  0  0  0  0
  152.9687  142.7421  157.8447 H   0  0  0  0  0  0  0  0  0  0  0  0
  150.3184  142.7943  159.2253 H   0  0  0  0  0  0  0  0  0  0  0  0
  151.8143  141.9583  159.6728 H   0  0  0  0  0  0  0  0  0  0  0  0
  151.4953  143.9987  161.2879 H   0  0  0  0  0  0  0  0  0  0  0  0
  152.5662  146.0001  160.0620 H   0  0  0  0  0  0  0  0  0  0  0  0
  153.4489  145.0206  157.7948 H   0  0  0  0  0  0  0  0  0  0  0  0
  151.7511  145.4799  157.5822 H   0  0  0  0  0  0  0  0  0  0  0  0
  1  2  1  0  0  0  0
  1 19  1  0  0  0  0
  1 20  1  0  0  0  0
  1 21  1  0  0  0  0
  2 18  1  0  0  0  0
  2  3  2  0  0  0  0
  3  4  1  0  0  0  0
  3 22  1  0  0  0  0
  4  5  2  0  0  0  0
  5  6  1  0  0  0  0
  5 18  1  0  0  0  0
  6  7  1  0  0  0  0
  6  8  1  0  0  0  0
  6 23  1  0  0  0  0
  7 24  1  0  0  0  0
  7 25  1  0  0  0  0
  7 26  1  0  0  0  0
  8  9  1  0  0  0  0
  8 27  1  0  0  0  0
  8 28  1  0  0  0  0
  9 10  1  0  0  0  0
  9 29  1  0  0  0  0
 10 11  2  0  0  0  0
 10 12  1  0  0  0  0
 12 13  1  0  0  0  0
 12 30  1  0  0  0  0
 13 17  1  0  0  0  0
 13 14  1  0  0  0  0
 13 31  1  0  0  0  0
 14 15  1  0  0  0  0
 14 32  1  0  0  0  0
 14 33  1  0  0  0  0
 15 16  2  0  0  0  0
 15 34  1  0  0  0  0
 16 17  1  0  0  0  0
 16 35  1  0  0  0  0
 17 36  1  0  0  0  0
 17 37  1  0  0  0  0
M  END
> <s_m_source_file>
AV-unprocessed.smi

> <i_m_source_file_index>
2375

> <i_lp_mmshare_version>
43012

> <i_f3d_flags>
0

> <s_epik_input>
W0NIM11jMVtjSF1uYyhzMSlbQ0BIXShbQ0gzXSlbQ0gyXVtOSF1DKD1PKVtOSF1bQ0hdMltDSDJdW0NIXT1bQ0hdW0NIMl0y

> <s_epik_cmdline>
J2VwaWtfcHl0aG9uJywgJy1waCcsICc3LjAnLCAnLXRuJywgJzgnLCAnLW1hJywgJzIwMCcsICctbWV0YWxfYmluZGluZycsICctaW1hZScsICc8aW5maWxlLm1hZT4nLCAnLW9tYWUnLCAnPG91dGZpbGUubWFlPic=

> <r_epik_Ionization_Penalty>
0.000644205

> <r_epik_Ionization_Penalty_Charging>
0

> <r_epik_Ionization_Penalty_Neutral>
0.000644205

> <r_epik_State_Penalty>
0.000370883

> <r_epik_Charging_Adjusted_Penalty>
0.000370883

> <i_epik_Tot_Q>
0

> <i_epik_Tot_abs_Q>
0

> <r_epik_Metal_State_Penalty>
-0

> <b_epik_Metal_Only>
0

> <s_lp_Force_Field>
OPLS_2005

> <r_lp_Energy>
17.1523

> <b_lp_Chiralities_Consistent>
1

> <s_lp_Variant>
AV-unprocessed.smi:2375-1

> <Gold.Version>
5.8.1

> <Gold.Id.Protein>
6NUR|6NUR_protein|mol2

> <Gold.PLP.Fitness>
48.3515

> <Gold.PLP.PLP>
-43.4920

> <Gold.PLP.part.hbond>
-2.0000

> <Gold.PLP.part.metal>
0.0000

> <Gold.PLP.part.buried>
-6.2363

> <Gold.PLP.part.nonpolar>
-36.0929

> <Gold.PLP.part.repulsive>
0.3619

> <Gold.PLP.ligand.clash>
0.0000

> <Gold.PLP.ligand.torsion>
0.6256

> <Gold.PLP.Chemscore.Hbond>
2.0000

> <Gold.PLP.Chemscore.CHOScore>
0.0000

> <Gold.PLP.Chemscore.Metal>
0.0000

> <Gold.Chemscore.Hbonds>
donor molecule, donor type, donor heavy atom, donor atom, acceptor molecule, acceptor atom, score
      L1  H     9    29       P1  8028  0.47
      L1  H    12    30       P1  8028  0.17

> <Gold.PLP.Chemscore.Internal.Correction>
0.1107

> <Gold.Rescore>
     Score         DG    S(hbond)    S(metal)    S(lipo)     H(rot)  DE(clash)    DE(int)     intcor
     20.39     -20.76       1.90        0.00     109.34       1.50       0.02       0.35       ----

> <Gold.Chemscore.Fitness>
20.3904

> <Gold.Chemscore.DG>
-20.7624

> <Gold.Chemscore.ZeroCoef>
-5.4800

> <Gold.Chemscore.Hbond>
1.8961

> <Gold.Chemscore.Metal>
0.0000

> <Gold.Chemscore.Lipo>
109.3358

> <Gold.Chemscore.Internal_Hbond>
0.0000

> <Gold.Chemscore.DEClash>
0.0239

> <Gold.Chemscore.DEInternal>
0.3482

> <Gold.Chemscore.Rot>
1.5012

> <Gold.Chemscore.Internal.Correction>
   9.000000E+99

> <Gold.Chemscore.Hbonds>
donor molecule, donor type, donor heavy atom, donor atom, acceptor molecule, acceptor atom, score
      L1  H     9    29       P1  8028  0.46
      L1  H    12    30       P1  8028  0.17

> <Gold.Chemscore.Hbond.Weighted>
-6.3331

> <Gold.Chemscore.Metal.Weighted>
-0.0000

> <Gold.Chemscore.Lipo.Weighted>
-12.7923

> <Gold.Chemscore.Internal_Hbond.Weighted>
0.0000

> <Gold.Chemscore.DEClash.Weighted>
0.0239

> <Gold.Chemscore.DEInternal.Weighted>
0.3482

> <Gold.Chemscore.Rot.Weighted>
3.8429

> <Gold.Chemscore.Internal.Correction.Weighted>
   9.000000E+99

> <Gold.Protein.RotatedTorsions>
[ 6907 6896 6895 6894 ] final   -3.20 input  -60.11 | X-H torsion
[ 7974 7965 7964 7962 ] final  -54.60 input  175.53 | X-H torsion
[ 8008 7997 7996 7995 ] final   60.23 input   59.86 | X-H torsion
[ 10167 10162 10161 10158 ] final -119.17 input  -65.29 | X-H torsion
[ 10718 10713 10712 10709 ] final  -77.39 input   66.30 | X-H torsion
[ 10763 10752 10751 10750 ] final   98.39 input  -60.55 | X-H torsion
[ 11005 11000 10999 10996 ] final  -13.10 input  -57.11 | X-H torsion

> <Gold.Protein.ActiveResidues>
 VAL166  LYS551  ARG553  GLY616  TRP617  ASP618  TYR619  PRO620  LYS621  CYS622 
 ASP623  PHE694  ASN695  SER759  ASP760  ASP761  ALA762  ILE779  LEU786  VAL792 
 PHE793  MET794  SER795  GLU796  ALA797  LYS798  CYS799  TRP800  GLU811  SER814 

> <Gold.Protein.RotatedAtoms>
  151.5176  135.1066  159.9869 H   0  0  0  0  0  0  0  0  0  0  0  0  # atno 6907 bound_to 6896
  152.4634  133.7867  159.6890 H   0  0  0  0  0  0  0  0  0  0  0  0  # atno 6908 bound_to 6896
  150.8607  133.7584  159.3019 H   0  0  0  0  0  0  0  0  0  0  0  0  # atno 6909 bound_to 6896
  145.8837  140.8125  142.9827 H   0  0  0  0  0  0  0  0  0  0  0  0  # atno 7974 bound_to 7965
  155.5789  140.3491  155.4535 H   0  0  0  0  0  0  0  0  0  0  0  0  # atno 8008 bound_to 7997
  156.0388  140.1291  157.0204 H   0  0  0  0  0  0  0  0  0  0  0  0  # atno 8009 bound_to 7997
  154.4383  140.1028  156.6192 H   0  0  0  0  0  0  0  0  0  0  0  0  # atno 8010 bound_to 7997
  140.0496  143.5073  152.2089 H   0  0  0  0  0  0  0  0  0  0  0  0  # atno 10167 bound_to 10162
  156.0146  130.4490  150.3338 H   0  0  0  0  0  0  0  0  0  0  0  0  # atno 10718 bound_to 10713
  153.2885  135.4150  155.1145 H   0  0  0  0  0  0  0  0  0  0  0  0  # atno 10763 bound_to 10752
  154.8513  135.3512  154.6014 H   0  0  0  0  0  0  0  0  0  0  0  0  # atno 10764 bound_to 10752
  153.6436  135.7056  153.5291 H   0  0  0  0  0  0  0  0  0  0  0  0  # atno 10765 bound_to 10752
  140.7726  133.8426  155.9220 H   0  0  0  0  0  0  0  0  0  0  0  0  # atno 11005 bound_to 11000
  144.6728  140.1423  143.7436 LP  0  0  0  0  0  0  0  0  0  0  0  0  # atno 17320 bound_to 7965
  145.8993  139.2421  143.1503 LP  0  0  0  0  0  0  0  0  0  0  0  0  # atno 17321 bound_to 7965
  139.5962  144.7567  151.3281 LP  0  0  0  0  0  0  0  0  0  0  0  0  # atno 17342 bound_to 10162
  140.7223  143.7101  150.7776 LP  0  0  0  0  0  0  0  0  0  0  0  0  # atno 17343 bound_to 10162
  157.1435  131.0302  151.2917 LP  0  0  0  0  0  0  0  0  0  0  0  0  # atno 17370 bound_to 10713
  157.4452  130.7566  149.7103 LP  0  0  0  0  0  0  0  0  0  0  0  0  # atno 17371 bound_to 10713
  140.9559  134.1718  157.4692 LP  0  0  0  0  0  0  0  0  0  0  0  0  # atno 17394 bound_to 11000
  139.8753  134.9927  156.5608 LP  0  0  0  0  0  0  0  0  0  0  0  0  # atno 17395 bound_to 11000

$$$$
