AV-unprocessed.smi:767|AV-procd|sdf|3669|dock4
  -GOLD-   22720 1 83D 1   1.00000     0.00000
 Structure written by MMmdl.
 48 50  0  0  0  0  0  0  0  0  2 V2000
  144.0073  132.3811  149.5253 C   0  0  0  0  0  0  0  0  0  0  0  0
  144.1946  133.5567  150.4610 C   0  0  0  0  0  0  0  0  0  0  0  0
  143.5298  133.6457  151.7030 C   0  0  0  0  0  0  0  0  0  0  0  0
  143.7511  134.7714  152.5234 C   0  0  0  0  0  0  0  0  0  0  0  0
  144.6320  135.7846  152.0862 C   0  0  0  0  0  0  0  0  0  0  0  0
  144.8953  137.0041  152.9475 C   0  0  0  0  0  0  0  0  0  0  0  0
  145.8314  138.0077  152.2552 C   0  0  0  0  0  0  0  0  0  0  0  0
  147.1927  137.9128  152.7672 N   0  0  0  0  0  0  0  0  0  0  0  0
  147.6435  138.5389  153.8630 C   0  0  0  0  0  0  0  0  0  0  0  0
  146.9519  139.2687  154.5737 O   0  0  0  0  0  0  0  0  0  0  0  0
  148.9350  138.2703  154.0943 N   0  0  0  0  0  0  0  0  0  0  0  0
  149.7032  138.8169  155.2082 C   0  0  2  0  0  0  0  0  0  0  0  0
  150.1676  140.2587  154.9492 C   0  0  1  0  0  0  0  0  0  0  0  0
  149.6332  141.3816  155.7956 C   0  0  0  0  0  0  0  0  0  0  0  0
  150.7090  141.5374  156.8746 C   0  0  0  0  0  0  0  0  0  0  0  0
  151.3878  140.2837  156.8912 O   0  0  0  0  0  0  0  0  0  0  0  0
  151.5055  139.8420  155.5409 C   0  0  1  0  0  0  0  0  0  0  0  0
  151.1829  138.3579  155.2656 C   0  0  0  0  0  0  0  0  0  0  0  0
  151.5422  137.3759  156.3818 C   0  0  0  0  0  0  0  0  0  0  0  0
  151.8067  137.8085  153.9746 C   0  0  0  0  0  0  0  0  0  0  0  0
  145.2701  135.6412  150.8355 C   0  0  0  0  0  0  0  0  0  0  0  0
  145.0310  134.5479  150.0785 N   0  3  0  0  0  0  0  0  0  0  0  0
  143.3241  131.6452  149.9508 H   0  0  0  0  0  0  0  0  0  0  0  0
  144.9620  131.8893  149.3364 H   0  0  0  0  0  0  0  0  0  0  0  0
  143.5965  132.7154  148.5724 H   0  0  0  0  0  0  0  0  0  0  0  0
  142.8581  132.8635  152.0256 H   0  0  0  0  0  0  0  0  0  0  0  0
  143.2509  134.8531  153.4775 H   0  0  0  0  0  0  0  0  0  0  0  0
  143.9421  137.4773  153.1876 H   0  0  0  0  0  0  0  0  0  0  0  0
  145.3257  136.6834  153.8971 H   0  0  0  0  0  0  0  0  0  0  0  0
  145.8594  137.8127  151.1828 H   0  0  0  0  0  0  0  0  0  0  0  0
  145.4588  139.0263  152.3769 H   0  0  0  0  0  0  0  0  0  0  0  0
  147.8377  137.3350  152.2480 H   0  0  0  0  0  0  0  0  0  0  0  0
  149.4222  137.6582  153.4563 H   0  0  0  0  0  0  0  0  0  0  0  0
  149.2035  138.7208  156.1748 H   0  0  0  0  0  0  0  0  0  0  0  0
  150.2549  140.4898  153.8858 H   0  0  0  0  0  0  0  0  0  0  0  0
  149.4943  142.3038  155.2310 H   0  0  0  0  0  0  0  0  0  0  0  0
  148.6740  141.1121  156.2388 H   0  0  0  0  0  0  0  0  0  0  0  0
  151.4175  142.3201  156.5993 H   0  0  0  0  0  0  0  0  0  0  0  0
  150.2930  141.7813  157.8523 H   0  0  0  0  0  0  0  0  0  0  0  0
  152.3712  140.2534  155.0195 H   0  0  0  0  0  0  0  0  0  0  0  0
  152.6210  137.3120  156.5266 H   0  0  0  0  0  0  0  0  0  0  0  0
  151.1767  136.3718  156.1646 H   0  0  0  0  0  0  0  0  0  0  0  0
  151.1062  137.6742  157.3354 H   0  0  0  0  0  0  0  0  0  0  0  0
  152.8907  137.7282  154.0602 H   0  0  0  0  0  0  0  0  0  0  0  0
  151.6022  138.4535  153.1196 H   0  0  0  0  0  0  0  0  0  0  0  0
  151.4244  136.8165  153.7319 H   0  0  0  0  0  0  0  0  0  0  0  0
  145.9601  136.3616  150.4203 H   0  0  0  0  0  0  0  0  0  0  0  0
  145.5031  134.4667  149.1776 H   0  0  0  0  0  0  0  0  0  0  0  0
  1  2  1  0  0  0  0
  1 23  1  0  0  0  0
  1 24  1  0  0  0  0
  1 25  1  0  0  0  0
  2 22  1  0  0  0  0
  2  3  2  0  0  0  0
  3  4  1  0  0  0  0
  3 26  1  0  0  0  0
  4  5  2  0  0  0  0
  4 27  1  0  0  0  0
  5  6  1  0  0  0  0
  5 21  1  0  0  0  0
  6  7  1  0  0  0  0
  6 28  1  0  0  0  0
  6 29  1  0  0  0  0
  7  8  1  0  0  0  0
  7 30  1  0  0  0  0
  7 31  1  0  0  0  0
  8  9  1  0  0  0  0
  8 32  1  0  0  0  0
  9 10  2  0  0  0  0
  9 11  1  0  0  0  0
 11 12  1  0  0  0  0
 11 33  1  0  0  0  0
 12 18  1  0  0  0  0
 12 13  1  0  0  0  0
 12 34  1  0  0  0  0
 13 17  1  0  0  0  0
 13 14  1  0  0  0  0
 13 35  1  0  0  0  0
 14 15  1  0  0  0  0
 14 36  1  0  0  0  0
 14 37  1  0  0  0  0
 15 16  1  0  0  0  0
 15 38  1  0  0  0  0
 15 39  1  0  0  0  0
 16 17  1  0  0  0  0
 17 18  1  0  0  0  0
 17 40  1  0  0  0  0
 18 19  1  0  0  0  0
 18 20  1  0  0  0  0
 19 41  1  0  0  0  0
 19 42  1  0  0  0  0
 19 43  1  0  0  0  0
 20 44  1  0  0  0  0
 20 45  1  0  0  0  0
 20 46  1  0  0  0  0
 21 22  2  0  0  0  0
 21 47  1  0  0  0  0
 22 48  1  0  0  0  0
M  CHG  1  22   1
M  END
> <s_m_source_file>
AV-unprocessed.smi

> <i_m_source_file_index>
767

> <i_lp_mmshare_version>
43012

> <i_f3d_flags>
0

> <s_epik_input>
W0NIM11jMVtjSF1bY0hdYyhbY0hdbjEpW0NIMl1bQ0gyXVtOSF1DKD1PKVtOSF1bQ0BIXTJDKFtDSDNdKShbQ0gzXSlbQ0BIXShbQ0BASF0yMylPW0NIMl1bQ0gyXTM=

> <s_epik_cmdline>
J2VwaWtfcHl0aG9uJywgJy1waCcsICc3LjAnLCAnLXRuJywgJzgnLCAnLW1hJywgJzIwMCcsICctbWV0YWxfYmluZGluZycsICctaW1hZScsICc8aW5maWxlLm1hZT4nLCAnLW9tYWUnLCAnPG91dGZpbGUubWFlPic=

> <r_epik_Ionization_Penalty>
1.41853

> <r_epik_Ionization_Penalty_Charging>
1.41848

> <r_epik_Ionization_Penalty_Neutral>
5.17407e-05

> <r_epik_State_Penalty>
1.50205

> <r_epik_Charging_Adjusted_Penalty>
2.92053

> <i_epik_Tot_Q>
1

> <i_epik_Tot_abs_Q>
1

> <r_epik_Metal_State_Penalty>
1.5544

> <b_epik_Metal_Only>
0

> <s_lp_Force_Field>
OPLS_2005

> <r_lp_Energy>
38.5293

> <b_lp_Chiralities_Consistent>
1

> <s_lp_Variant>
AV-unprocessed.smi:767-13

> <Gold.Version>
5.8.1

> <Gold.Id.Protein>
6NUR|6NUR_protein|mol2

> <Gold.PLP.Fitness>
45.3460

> <Gold.PLP.PLP>
-38.7774

> <Gold.PLP.part.hbond>
-3.0000

> <Gold.PLP.part.metal>
0.0000

> <Gold.PLP.part.buried>
-2.8516

> <Gold.PLP.part.nonpolar>
-34.2271

> <Gold.PLP.part.repulsive>
0.2489

> <Gold.PLP.ligand.clash>
0.0000

> <Gold.PLP.ligand.torsion>
0.6105

> <Gold.PLP.Chemscore.Hbond>
2.5351

> <Gold.PLP.Chemscore.CHOScore>
0.0000

> <Gold.PLP.Chemscore.Metal>
0.0000

> <Gold.Chemscore.Hbonds>
donor molecule, donor type, donor heavy atom, donor atom, acceptor molecule, acceptor atom, score
      L1  H     8    32       P1  7948  1.00
      L1  H    11    33       P1  7948  0.53
      L1  H    22    48       P1  7921  1.00

> <Gold.PLP.Chemscore.Internal.Correction>
0.1843

> <Gold.Rescore>
     Score         DG    S(hbond)    S(metal)    S(lipo)     H(rot)  DE(clash)    DE(int)     intcor
     21.03     -21.82       2.46        0.00     102.84       1.52       0.22       0.57       ----

> <Gold.Chemscore.Fitness>
21.0299

> <Gold.Chemscore.DG>
-21.8245

> <Gold.Chemscore.ZeroCoef>
-5.4800

> <Gold.Chemscore.Hbond>
2.4585

> <Gold.Chemscore.Metal>
0.0000

> <Gold.Chemscore.Lipo>
102.8422

> <Gold.Chemscore.Internal_Hbond>
0.0000

> <Gold.Chemscore.DEClash>
0.2213

> <Gold.Chemscore.DEInternal>
0.5733

> <Gold.Chemscore.Rot>
1.5233

> <Gold.Chemscore.Internal.Correction>
   9.000000E+99

> <Gold.Chemscore.Hbonds>
donor molecule, donor type, donor heavy atom, donor atom, acceptor molecule, acceptor atom, score
      L1  H     8    32       P1  7948  0.99
      L1  H    11    33       P1  7948  0.51
      L1  H    22    48       P1  7921  0.97

> <Gold.Chemscore.Hbond.Weighted>
-8.2115

> <Gold.Chemscore.Metal.Weighted>
-0.0000

> <Gold.Chemscore.Lipo.Weighted>
-12.0325

> <Gold.Chemscore.Internal_Hbond.Weighted>
0.0000

> <Gold.Chemscore.DEClash.Weighted>
0.2213

> <Gold.Chemscore.DEInternal.Weighted>
0.5733

> <Gold.Chemscore.Rot.Weighted>
3.8995

> <Gold.Chemscore.Internal.Correction.Weighted>
   9.000000E+99

> <Gold.Protein.RotatedTorsions>
[ 6907 6896 6895 6894 ] final -167.66 input  -60.11 | X-H torsion
[ 7974 7965 7964 7962 ] final   27.96 input  175.53 | X-H torsion
[ 8008 7997 7996 7995 ] final -162.89 input   59.86 | X-H torsion
[ 10167 10162 10161 10158 ] final  -47.25 input  -65.29 | X-H torsion
[ 10718 10713 10712 10709 ] final   66.76 input   66.30 | X-H torsion
[ 10763 10752 10751 10750 ] final  -43.84 input  -60.55 | X-H torsion
[ 11005 11000 10999 10996 ] final   48.37 input  -57.11 | X-H torsion

> <Gold.Protein.ActiveResidues>
 VAL166  LYS551  ARG553  GLY616  TRP617  ASP618  TYR619  PRO620  LYS621  CYS622 
 ASP623  PHE694  ASN695  SER759  ASP760  ASP761  ALA762  ILE779  LEU786  VAL792 
 PHE793  MET794  SER795  GLU796  ALA797  LYS798  CYS799  TRP800  GLU811  SER814 

> <Gold.Protein.RotatedAtoms>
  151.4632  133.3587  159.2811 H   0  0  0  0  0  0  0  0  0  0  0  0  # atno 6907 bound_to 6896
  150.9011  134.8425  159.7371 H   0  0  0  0  0  0  0  0  0  0  0  0  # atno 6908 bound_to 6896
  152.4880  134.4552  159.9639 H   0  0  0  0  0  0  0  0  0  0  0  0  # atno 6909 bound_to 6896
  146.1755  139.7120  142.8937 H   0  0  0  0  0  0  0  0  0  0  0  0  # atno 7974 bound_to 7965
  155.8134  140.0909  157.1891 H   0  0  0  0  0  0  0  0  0  0  0  0  # atno 8008 bound_to 7997
  154.3979  140.1450  156.3473 H   0  0  0  0  0  0  0  0  0  0  0  0  # atno 8009 bound_to 7997
  155.8341  140.3441  155.5593 H   0  0  0  0  0  0  0  0  0  0  0  0  # atno 8010 bound_to 7997
  140.6783  143.2793  151.3900 H   0  0  0  0  0  0  0  0  0  0  0  0  # atno 10167 bound_to 10162
  157.6189  130.9285  150.0151 H   0  0  0  0  0  0  0  0  0  0  0  0  # atno 10718 bound_to 10713
  154.0022  135.6692  153.4760 H   0  0  0  0  0  0  0  0  0  0  0  0  # atno 10763 bound_to 10752
  153.0657  135.5002  154.8191 H   0  0  0  0  0  0  0  0  0  0  0  0  # atno 10764 bound_to 10752
  154.7046  135.3085  154.9253 H   0  0  0  0  0  0  0  0  0  0  0  0  # atno 10765 bound_to 10752
  140.1197  134.4846  155.8608 H   0  0  0  0  0  0  0  0  0  0  0  0  # atno 11005 bound_to 11000
  145.4223  141.0407  143.2957 LP  0  0  0  0  0  0  0  0  0  0  0  0  # atno 17320 bound_to 7965
  144.8230  139.5759  143.6978 LP  0  0  0  0  0  0  0  0  0  0  0  0  # atno 17321 bound_to 7965
  139.6089  144.1140  152.2278 LP  0  0  0  0  0  0  0  0  0  0  0  0  # atno 17342 bound_to 10162
  140.0548  144.5904  150.7308 LP  0  0  0  0  0  0  0  0  0  0  0  0  # atno 17343 bound_to 10162
  156.1324  130.3643  149.9711 LP  0  0  0  0  0  0  0  0  0  0  0  0  # atno 17370 bound_to 10713
  156.7769  130.9207  151.3645 LP  0  0  0  0  0  0  0  0  0  0  0  0  # atno 17371 bound_to 10713
  141.2149  133.6756  156.6864 LP  0  0  0  0  0  0  0  0  0  0  0  0  # atno 17394 bound_to 11000
  140.2981  134.8186  157.4075 LP  0  0  0  0  0  0  0  0  0  0  0  0  # atno 17395 bound_to 11000

$$$$
