AV-unprocessed.smi:3187|AV-procd|sdf|12176|dock6
  -GOLD-   2272018 13D 1   1.00000     0.00000
 Structure written by MMmdl.
 41 42  0  0  0  0  0  0  0  0  2 V2000
  148.3004  142.0095  154.3487 C   0  0  0  0  0  0  0  0  0  0  0  0
  149.4054  141.1552  154.9486 C   0  0  0  0  0  0  0  0  0  0  0  0
  150.1511  141.6418  155.9590 C   0  0  0  0  0  0  0  0  0  0  0  0
  151.3226  140.9164  156.5794 C   0  0  0  0  0  0  0  0  0  0  0  0
  151.8698  139.8476  155.6307 C   0  0  0  0  0  0  0  0  0  0  0  0
  150.7463  138.9466  155.0920 C   0  0  2  0  0  0  0  0  0  0  0  0
  151.3576  137.8348  154.2171 C   0  0  0  0  0  0  0  0  0  0  0  0
  149.6419  139.7558  154.3435 C   0  0  1  0  0  0  0  0  0  0  0  0
  148.3414  138.9144  154.2467 C   0  0  0  0  0  0  0  0  0  0  0  0
  147.9958  138.5469  152.8587 N   0  3  0  0  0  0  0  0  0  0  0  0
  146.5584  138.2890  152.6395 C   0  0  0  0  0  0  0  0  0  0  0  0
  146.3273  137.3859  151.4179 C   0  0  0  0  0  0  0  0  0  0  0  0
  145.2071  136.4844  151.6091 N   0  0  0  0  0  0  0  0  0  0  0  0
  144.7401  135.5282  150.7165 C   0  0  0  0  0  0  0  0  0  0  0  0
  143.6620  134.9208  151.3198 C   0  0  0  0  0  0  0  0  0  0  0  0
  143.4502  135.4833  152.5765 N   0  0  0  0  0  0  0  0  0  0  0  0
  144.4062  136.3969  152.6805 C   0  0  0  0  0  0  0  0  0  0  0  0
  148.3942  142.0493  153.2634 H   0  0  0  0  0  0  0  0  0  0  0  0
  148.3460  143.0336  154.7210 H   0  0  0  0  0  0  0  0  0  0  0  0
  147.3183  141.6145  154.6073 H   0  0  0  0  0  0  0  0  0  0  0  0
  149.9356  142.6188  156.3672 H   0  0  0  0  0  0  0  0  0  0  0  0
  152.1066  141.6374  156.8133 H   0  0  0  0  0  0  0  0  0  0  0  0
  151.0016  140.4734  157.5227 H   0  0  0  0  0  0  0  0  0  0  0  0
  152.3824  140.3298  154.7969 H   0  0  0  0  0  0  0  0  0  0  0  0
  152.6214  139.2531  156.1516 H   0  0  0  0  0  0  0  0  0  0  0  0
  150.2854  138.4688  155.9583 H   0  0  0  0  0  0  0  0  0  0  0  0
  151.8289  138.2485  153.3249 H   0  0  0  0  0  0  0  0  0  0  0  0
  150.6178  137.1054  153.8918 H   0  0  0  0  0  0  0  0  0  0  0  0
  152.1225  137.2841  154.7655 H   0  0  0  0  0  0  0  0  0  0  0  0
  150.0074  139.9374  153.3313 H   0  0  0  0  0  0  0  0  0  0  0  0
  148.4339  137.9847  154.8057 H   0  0  0  0  0  0  0  0  0  0  0  0
  147.5130  139.4620  154.6987 H   0  0  0  0  0  0  0  0  0  0  0  0
  148.2830  139.3000  152.2497 H   0  0  0  0  0  0  0  0  0  0  0  0
  146.1278  137.8340  153.5326 H   0  0  0  0  0  0  0  0  0  0  0  0
  146.0481  139.2409  152.4886 H   0  0  0  0  0  0  0  0  0  0  0  0
  146.1249  137.9959  150.5368 H   0  0  0  0  0  0  0  0  0  0  0  0
  147.2219  136.8016  151.1966 H   0  0  0  0  0  0  0  0  0  0  0  0
  145.1989  135.3635  149.7525 H   0  0  0  0  0  0  0  0  0  0  0  0
  143.0279  134.1287  150.9491 H   0  0  0  0  0  0  0  0  0  0  0  0
  144.5214  137.0220  153.5541 H   0  0  0  0  0  0  0  0  0  0  0  0
  148.5130  137.7155  152.6098 H   0  0  0  0  0  0  0  0  0  0  0  0
  1  2  1  0  0  0  0
  1 18  1  0  0  0  0
  1 19  1  0  0  0  0
  1 20  1  0  0  0  0
  2  8  1  0  0  0  0
  2  3  2  0  0  0  0
  3  4  1  0  0  0  0
  3 21  1  0  0  0  0
  4  5  1  0  0  0  0
  4 22  1  0  0  0  0
  4 23  1  0  0  0  0
  5  6  1  0  0  0  0
  5 24  1  0  0  0  0
  5 25  1  0  0  0  0
  6  7  1  0  0  0  0
  6  8  1  0  0  0  0
  6 26  1  0  0  0  0
  7 27  1  0  0  0  0
  7 28  1  0  0  0  0
  7 29  1  0  0  0  0
  8  9  1  0  0  0  0
  8 30  1  0  0  0  0
  9 10  1  0  0  0  0
  9 31  1  0  0  0  0
  9 32  1  0  0  0  0
 10 11  1  0  0  0  0
 10 33  1  0  0  0  0
 10 41  1  0  0  0  0
 11 12  1  0  0  0  0
 11 34  1  0  0  0  0
 11 35  1  0  0  0  0
 12 13  1  0  0  0  0
 12 36  1  0  0  0  0
 12 37  1  0  0  0  0
 13 17  1  0  0  0  0
 13 14  1  0  0  0  0
 14 15  2  0  0  0  0
 14 38  1  0  0  0  0
 15 16  1  0  0  0  0
 15 39  1  0  0  0  0
 16 17  2  0  0  0  0
 17 40  1  0  0  0  0
M  CHG  1  10   1
M  END
> <s_m_source_file>
AV-unprocessed.smi

> <i_m_source_file_index>
3187

> <i_lp_mmshare_version>
43012

> <i_f3d_flags>
0

> <s_epik_input>
W0NIM11DMT1bQ0hdW0NIMl1bQ0gyXVtDQEBIXShbQ0gzXSlbQ0BIXTFbQ0gyXVtOSF1bQ0gyXVtDSDJdbjJbY0hdW2NIXW5bY0hdMg==

> <s_epik_cmdline>
J2VwaWtfcHl0aG9uJywgJy1waCcsICc3LjAnLCAnLXRuJywgJzgnLCAnLW1hJywgJzIwMCcsICctbWV0YWxfYmluZGluZycsICctaW1hZScsICc8aW5maWxlLm1hZT4nLCAnLW9tYWUnLCAnPG91dGZpbGUubWFlPic=

> <r_lp_tautomer_probability>
1

> <r_epik_Ionization_Penalty>
0.0501625

> <r_epik_Ionization_Penalty_Charging>
0.0501625

> <r_epik_Ionization_Penalty_Neutral>
0

> <r_epik_State_Penalty>
0.0972392

> <r_epik_Charging_Adjusted_Penalty>
0.147402

> <i_epik_Tot_Q>
1

> <i_epik_Tot_abs_Q>
1

> <r_epik_Metal_State_Penalty>
0.000104376

> <b_epik_Metal_Only>
0

> <s_lp_Force_Field>
OPLS_2005

> <r_lp_Energy>
17.5131

> <b_lp_Chiralities_Consistent>
1

> <s_lp_Variant>
AV-unprocessed.smi:3187-2

> <Gold.Version>
5.8.1

> <Gold.Id.Protein>
6NUR|6NUR_protein|mol2

> <Gold.PLP.Fitness>
47.1491

> <Gold.PLP.PLP>
-34.9683

> <Gold.PLP.part.hbond>
-2.0000

> <Gold.PLP.part.metal>
0.0000

> <Gold.PLP.part.buried>
3.2711

> <Gold.PLP.part.nonpolar>
-37.2078

> <Gold.PLP.part.repulsive>
0.1976

> <Gold.PLP.ligand.clash>
0.0000

> <Gold.PLP.ligand.torsion>
1.2475

> <Gold.PLP.Chemscore.Hbond>
2.9920

> <Gold.PLP.Chemscore.CHOScore>
1.8721

> <Gold.PLP.Chemscore.Metal>
0.0000

> <Gold.Chemscore.Hbonds>
donor molecule, donor type, donor heavy atom, donor atom, acceptor molecule, acceptor atom, score
      L1  H    10    33       P1  7957  0.96
      L1  H    10    41       P1  7948  2.00
      L1  C    14    38       P1  7921  1.00
      L1  C    15    39       P1 10186  0.91

> <Gold.PLP.Chemscore.Internal.Correction>
0.0834

> <Gold.Rescore>
     Score         DG    S(hbond)    S(metal)    S(lipo)     H(rot)  DE(clash)    DE(int)     intcor
     15.42     -17.84       1.96        0.00      90.95       1.89       1.12       1.30       ----

> <Gold.Chemscore.Fitness>
15.4152

> <Gold.Chemscore.DG>
-17.8367

> <Gold.Chemscore.ZeroCoef>
-5.4800

> <Gold.Chemscore.Hbond>
1.9587

> <Gold.Chemscore.Metal>
0.0000

> <Gold.Chemscore.Lipo>
90.9473

> <Gold.Chemscore.Internal_Hbond>
0.0000

> <Gold.Chemscore.DEClash>
1.1223

> <Gold.Chemscore.DEInternal>
1.2992

> <Gold.Chemscore.Rot>
1.8853

> <Gold.Chemscore.Internal.Correction>
   9.000000E+99

> <Gold.Chemscore.Hbonds>
donor molecule, donor type, donor heavy atom, donor atom, acceptor molecule, acceptor atom, score
      L1  H    10    33       P1  7957  0.92
      L1  H    10    41       P1  7948  1.00

> <Gold.Chemscore.Hbond.Weighted>
-6.5421

> <Gold.Chemscore.Metal.Weighted>
-0.0000

> <Gold.Chemscore.Lipo.Weighted>
-10.6408

> <Gold.Chemscore.Internal_Hbond.Weighted>
0.0000

> <Gold.Chemscore.DEClash.Weighted>
1.1223

> <Gold.Chemscore.DEInternal.Weighted>
1.2992

> <Gold.Chemscore.Rot.Weighted>
4.8263

> <Gold.Chemscore.Internal.Correction.Weighted>
   9.000000E+99

> <Gold.Protein.RotatedTorsions>
[ 6907 6896 6895 6894 ] final -176.86 input  -60.11 | X-H torsion
[ 7974 7965 7964 7962 ] final   45.20 input  175.53 | X-H torsion
[ 8008 7997 7996 7995 ] final  -29.27 input   59.86 | X-H torsion
[ 10167 10162 10161 10158 ] final -134.98 input  -65.29 | X-H torsion
[ 10718 10713 10712 10709 ] final  -10.01 input   66.30 | X-H torsion
[ 10763 10752 10751 10750 ] final   51.87 input  -60.55 | X-H torsion
[ 11005 11000 10999 10996 ] final -103.25 input  -57.11 | X-H torsion

> <Gold.Protein.ActiveResidues>
 VAL166  LYS551  ARG553  GLY616  TRP617  ASP618  TYR619  PRO620  LYS621  CYS622 
 ASP623  PHE694  ASN695  SER759  ASP760  ASP761  ALA762  ILE779  LEU786  VAL792 
 PHE793  MET794  SER795  GLU796  ALA797  LYS798  CYS799  TRP800  GLU811  SER814 

> <Gold.Protein.RotatedAtoms>
  151.6116  133.3346  159.3068 H   0  0  0  0  0  0  0  0  0  0  0  0  # atno 6907 bound_to 6896
  150.8153  134.7335  159.6736 H   0  0  0  0  0  0  0  0  0  0  0  0  # atno 6908 bound_to 6896
  152.4249  134.5892  160.0021 H   0  0  0  0  0  0  0  0  0  0  0  0  # atno 6909 bound_to 6896
  146.0501  139.4990  142.9723 H   0  0  0  0  0  0  0  0  0  0  0  0  # atno 7974 bound_to 7965
  154.4297  140.1823  156.1221 H   0  0  0  0  0  0  0  0  0  0  0  0  # atno 8008 bound_to 7997
  156.0135  140.3348  155.6939 H   0  0  0  0  0  0  0  0  0  0  0  0  # atno 8009 bound_to 7997
  155.6077  140.0647  157.2705 H   0  0  0  0  0  0  0  0  0  0  0  0  # atno 8010 bound_to 7997
  139.8826  143.6821  152.2625 H   0  0  0  0  0  0  0  0  0  0  0  0  # atno 10167 bound_to 10162
  156.6797  130.5033  149.5975 H   0  0  0  0  0  0  0  0  0  0  0  0  # atno 10718 bound_to 10713
  152.9786  135.5831  154.4485 H   0  0  0  0  0  0  0  0  0  0  0  0  # atno 10763 bound_to 10752
  154.4077  135.2769  155.2058 H   0  0  0  0  0  0  0  0  0  0  0  0  # atno 10764 bound_to 10752
  154.3862  135.6135  153.5872 H   0  0  0  0  0  0  0  0  0  0  0  0  # atno 10765 bound_to 10752
  141.1154  133.8625  157.1462 H   0  0  0  0  0  0  0  0  0  0  0  0  # atno 11005 bound_to 11000
  145.6739  141.0209  143.1643 LP  0  0  0  0  0  0  0  0  0  0  0  0  # atno 17320 bound_to 7965
  144.7118  139.8342  143.7412 LP  0  0  0  0  0  0  0  0  0  0  0  0  # atno 17321 bound_to 7965
  139.7182  144.7607  151.0998 LP  0  0  0  0  0  0  0  0  0  0  0  0  # atno 17342 bound_to 10162
  140.7742  143.5241  150.9501 LP  0  0  0  0  0  0  0  0  0  0  0  0  # atno 17343 bound_to 10162
  156.1877  130.6539  151.1025 LP  0  0  0  0  0  0  0  0  0  0  0  0  # atno 17370 bound_to 10713
  157.7048  131.0761  150.6703 LP  0  0  0  0  0  0  0  0  0  0  0  0  # atno 17371 bound_to 10713
  140.0073  135.0003  157.0320 LP  0  0  0  0  0  0  0  0  0  0  0  0  # atno 17394 bound_to 11000
  140.4660  134.1435  155.7197 LP  0  0  0  0  0  0  0  0  0  0  0  0  # atno 17395 bound_to 11000

$$$$
