AV-unprocessed.smi:1224|AV-procd|sdf|5132|dock4
  -GOLD-   22720 4193D 1   1.00000     0.00000
 Structure written by MMmdl.
 43 45  0  0  0  0  0  0  0  0  1 V2000
  153.5817  142.6312  163.5048 C   0  0  0  0  0  0  0  0  0  0  0  0
  153.0393  142.8733  162.1072 C   0  0  0  0  0  0  0  0  0  0  0  0
  152.3238  144.0634  161.8443 C   0  0  0  0  0  0  0  0  0  0  0  0
  151.8037  144.3267  160.5581 C   0  0  0  0  0  0  0  0  0  0  0  0
  151.0836  145.4099  160.0836 N   0  0  0  0  0  0  0  0  0  0  0  0
  150.8928  145.0684  158.8123 C   0  0  0  0  0  0  0  0  0  0  0  0
  151.4040  143.8899  158.4072 N   0  0  0  0  0  0  0  0  0  0  0  0
  151.3235  143.3072  157.0796 C   0  0  0  0  0  0  0  0  0  0  0  0
  150.7488  141.8781  157.0971 C   0  0  2  0  0  0  0  0  0  0  0  0
  151.8180  140.9545  157.1613 O   0  0  0  0  0  0  0  0  0  0  0  0
  149.9258  141.5798  155.8333 C   0  0  0  0  0  0  0  0  0  0  0  0
  148.6329  142.2565  155.8723 N   0  0  0  0  0  0  0  0  0  0  0  0
  147.7180  141.8117  154.8275 C   0  0  0  0  0  0  0  0  0  0  0  0
  146.5547  142.7340  154.6799 C   0  0  0  0  0  0  0  0  0  0  0  0
  146.2010  143.4680  153.5762 C   0  0  0  0  0  0  0  0  0  0  0  0
  145.0228  144.2464  153.7740 C   0  0  0  0  0  0  0  0  0  0  0  0
  144.4919  144.0962  155.0276 C   0  0  0  0  0  0  0  0  0  0  0  0
  145.4326  142.9914  155.9922 S   0  0  0  0  0  0  0  0  0  0  0  0
  152.0206  143.3589  159.5342 C   0  0  0  0  0  0  0  0  0  0  0  0
  152.7311  142.1715  159.7829 C   0  0  0  0  0  0  0  0  0  0  0  0
  153.2441  141.9242  161.0735 C   0  0  0  0  0  0  0  0  0  0  0  0
  154.0118  140.6400  161.3317 C   0  0  0  0  0  0  0  0  0  0  0  0
  153.3324  143.4528  164.1767 H   0  0  0  0  0  0  0  0  0  0  0  0
  154.6674  142.5354  163.4819 H   0  0  0  0  0  0  0  0  0  0  0  0
  153.1611  141.7175  163.9250 H   0  0  0  0  0  0  0  0  0  0  0  0
  152.1681  144.7872  162.6307 H   0  0  0  0  0  0  0  0  0  0  0  0
  150.3519  145.7126  158.1345 H   0  0  0  0  0  0  0  0  0  0  0  0
  150.7002  143.9568  156.4638 H   0  0  0  0  0  0  0  0  0  0  0  0
  152.3186  143.3144  156.6320 H   0  0  0  0  0  0  0  0  0  0  0  0
  150.1247  141.7579  157.9843 H   0  0  0  0  0  0  0  0  0  0  0  0
  152.5652  141.3923  157.5402 H   0  0  0  0  0  0  0  0  0  0  0  0
  150.4786  141.9317  154.9612 H   0  0  0  0  0  0  0  0  0  0  0  0
  149.7990  140.5040  155.7034 H   0  0  0  0  0  0  0  0  0  0  0  0
  148.7790  143.2573  155.7855 H   0  0  0  0  0  0  0  0  0  0  0  0
  148.2482  141.7347  153.8774 H   0  0  0  0  0  0  0  0  0  0  0  0
  147.3518  140.8104  155.0567 H   0  0  0  0  0  0  0  0  0  0  0  0
  146.7418  143.4712  152.6415 H   0  0  0  0  0  0  0  0  0  0  0  0
  144.6117  144.8789  153.0012 H   0  0  0  0  0  0  0  0  0  0  0  0
  143.6106  144.5640  155.4411 H   0  0  0  0  0  0  0  0  0  0  0  0
  152.8805  141.4584  158.9856 H   0  0  0  0  0  0  0  0  0  0  0  0
  154.0590  140.0179  160.4374 H   0  0  0  0  0  0  0  0  0  0  0  0
  153.5315  140.0580  162.1185 H   0  0  0  0  0  0  0  0  0  0  0  0
  155.0338  140.8625  161.6391 H   0  0  0  0  0  0  0  0  0  0  0  0
  1  2  1  0  0  0  0
  1 23  1  0  0  0  0
  1 24  1  0  0  0  0
  1 25  1  0  0  0  0
  2 21  1  0  0  0  0
  2  3  2  0  0  0  0
  3  4  1  0  0  0  0
  3 26  1  0  0  0  0
  4 19  2  0  0  0  0
  4  5  1  0  0  0  0
  5  6  2  0  0  0  0
  6  7  1  0  0  0  0
  6 27  1  0  0  0  0
  7  8  1  0  0  0  0
  7 19  1  0  0  0  0
  8  9  1  0  0  0  0
  8 28  1  0  0  0  0
  8 29  1  0  0  0  0
  9 10  1  0  0  0  0
  9 11  1  0  0  0  0
  9 30  1  0  0  0  0
 10 31  1  0  0  0  0
 11 12  1  0  0  0  0
 11 32  1  0  0  0  0
 11 33  1  0  0  0  0
 12 13  1  0  0  0  0
 12 34  1  0  0  0  0
 13 14  1  0  0  0  0
 13 35  1  0  0  0  0
 13 36  1  0  0  0  0
 14 18  1  0  0  0  0
 14 15  2  0  0  0  0
 15 16  1  0  0  0  0
 15 37  1  0  0  0  0
 16 17  2  0  0  0  0
 16 38  1  0  0  0  0
 17 18  1  0  0  0  0
 17 39  1  0  0  0  0
 19 20  1  0  0  0  0
 20 21  2  0  0  0  0
 20 40  1  0  0  0  0
 21 22  1  0  0  0  0
 22 41  1  0  0  0  0
 22 42  1  0  0  0  0
 22 43  1  0  0  0  0
M  END
> <s_m_source_file>
AV-unprocessed.smi

> <i_m_source_file_index>
1224

> <i_lp_mmshare_version>
43012

> <i_f3d_flags>
0

> <s_epik_input>
W0NIM11jKFtjSF0xKWMoW0NIM10pW2NIXWMoYzEyKW4oW2NIXW4yKVtDSDJdW0NASF0oW09IXSlbQ0gyXVtOSF1bQ0gyXWMzW2NIXVtjSF1bY0hdczM=

> <s_epik_cmdline>
J2VwaWtfcHl0aG9uJywgJy1waCcsICc3LjAnLCAnLXRuJywgJzgnLCAnLW1hJywgJzIwMCcsICctbWV0YWxfYmluZGluZycsICctaW1hZScsICc8aW5maWxlLm1hZT4nLCAnLW9tYWUnLCAnPG91dGZpbGUubWFlPic=

> <r_epik_Ionization_Penalty>
1.55566

> <r_epik_Ionization_Penalty_Charging>
0

> <r_epik_Ionization_Penalty_Neutral>
1.55566

> <r_epik_State_Penalty>
1.63945

> <r_epik_Charging_Adjusted_Penalty>
1.63945

> <i_epik_Tot_Q>
0

> <i_epik_Tot_abs_Q>
0

> <r_epik_Metal_State_Penalty>
1.52326

> <b_epik_Metal_Only>
0

> <s_lp_Force_Field>
OPLS_2005

> <r_lp_Energy>
13.7285

> <b_lp_Chiralities_Consistent>
1

> <s_lp_Variant>
AV-unprocessed.smi:1224-5

> <Gold.Version>
5.8.1

> <Gold.Id.Protein>
6NUR|6NUR_protein|mol2

> <Gold.PLP.Fitness>
63.2823

> <Gold.PLP.PLP>
-58.4822

> <Gold.PLP.part.hbond>
-1.0000

> <Gold.PLP.part.metal>
0.0000

> <Gold.PLP.part.buried>
-5.5199

> <Gold.PLP.part.nonpolar>
-51.5878

> <Gold.PLP.part.repulsive>
0.1961

> <Gold.PLP.ligand.clash>
0.0000

> <Gold.PLP.ligand.torsion>
0.6643

> <Gold.PLP.Chemscore.Hbond>
1.0000

> <Gold.PLP.Chemscore.CHOScore>
0.9987

> <Gold.PLP.Chemscore.Metal>
0.0000

> <Gold.Chemscore.Hbonds>
donor molecule, donor type, donor heavy atom, donor atom, acceptor molecule, acceptor atom, score
      L1  H    12    34       P1  8028  0.84
      L1  C     6    27       P1  8029  0.84

> <Gold.PLP.Chemscore.Internal.Correction>
0.1326

> <Gold.Rescore>
     Score         DG    S(hbond)    S(metal)    S(lipo)     H(rot)  DE(clash)    DE(int)     intcor
     18.24     -20.01       0.99        0.00     146.71       2.32       0.93       0.85       ----

> <Gold.Chemscore.Fitness>
18.2366

> <Gold.Chemscore.DG>
-20.0104

> <Gold.Chemscore.ZeroCoef>
-5.4800

> <Gold.Chemscore.Hbond>
0.9872

> <Gold.Chemscore.Metal>
0.0000

> <Gold.Chemscore.Lipo>
146.7132

> <Gold.Chemscore.Internal_Hbond>
0.0000

> <Gold.Chemscore.DEClash>
0.9259

> <Gold.Chemscore.DEInternal>
0.8479

> <Gold.Chemscore.Rot>
2.3173

> <Gold.Chemscore.Internal.Correction>
   9.000000E+99

> <Gold.Chemscore.Hbonds>
donor molecule, donor type, donor heavy atom, donor atom, acceptor molecule, acceptor atom, score
      L1  H    12    34       P1  8028  0.82

> <Gold.Chemscore.Hbond.Weighted>
-3.2974

> <Gold.Chemscore.Metal.Weighted>
-0.0000

> <Gold.Chemscore.Lipo.Weighted>
-17.1654

> <Gold.Chemscore.Internal_Hbond.Weighted>
0.0000

> <Gold.Chemscore.DEClash.Weighted>
0.9259

> <Gold.Chemscore.DEInternal.Weighted>
0.8479

> <Gold.Chemscore.Rot.Weighted>
5.9324

> <Gold.Chemscore.Internal.Correction.Weighted>
   9.000000E+99

> <Gold.Protein.RotatedTorsions>
[ 6907 6896 6895 6894 ] final  100.08 input  -60.11 | X-H torsion
[ 7974 7965 7964 7962 ] final -122.59 input  175.53 | X-H torsion
[ 8008 7997 7996 7995 ] final   -4.53 input   59.86 | X-H torsion
[ 10167 10162 10161 10158 ] final  -50.05 input  -65.29 | X-H torsion
[ 10718 10713 10712 10709 ] final  -96.52 input   66.30 | X-H torsion
[ 10763 10752 10751 10750 ] final -155.88 input  -60.55 | X-H torsion
[ 11005 11000 10999 10996 ] final -101.64 input  -57.11 | X-H torsion

> <Gold.Protein.ActiveResidues>
 VAL166  LYS551  ARG553  GLY616  TRP617  ASP618  TYR619  PRO620  LYS621  CYS622 
 ASP623  PHE694  ASN695  SER759  ASP760  ASP761  ALA762  ILE779  LEU786  VAL792 
 PHE793  MET794  SER795  GLU796  ALA797  LYS798  CYS799  TRP800  GLU811  SER814 

> <Gold.Protein.RotatedAtoms>
  152.5379  134.0331  159.8033 H   0  0  0  0  0  0  0  0  0  0  0  0  # atno 6907 bound_to 6896
  151.0499  133.5626  159.2650 H   0  0  0  0  0  0  0  0  0  0  0  0  # atno 6908 bound_to 6896
  151.2564  135.0647  159.9135 H   0  0  0  0  0  0  0  0  0  0  0  0  # atno 6909 bound_to 6896
  145.0278  140.8042  143.4342 H   0  0  0  0  0  0  0  0  0  0  0  0  # atno 7974 bound_to 7965
  154.6133  140.2481  155.7641 H   0  0  0  0  0  0  0  0  0  0  0  0  # atno 8008 bound_to 7997
  156.2384  140.2942  156.0325 H   0  0  0  0  0  0  0  0  0  0  0  0  # atno 8009 bound_to 7997
  155.2016  140.0394  157.2908 H   0  0  0  0  0  0  0  0  0  0  0  0  # atno 8010 bound_to 7997
  140.6656  143.2673  151.4303 H   0  0  0  0  0  0  0  0  0  0  0  0  # atno 10167 bound_to 10162
  156.0064  130.5155  150.6238 H   0  0  0  0  0  0  0  0  0  0  0  0  # atno 10718 bound_to 10713
  154.7754  135.3158  154.8102 H   0  0  0  0  0  0  0  0  0  0  0  0  # atno 10763 bound_to 10752
  153.8827  135.6833  153.4770 H   0  0  0  0  0  0  0  0  0  0  0  0  # atno 10764 bound_to 10752
  153.1377  135.4752  154.9383 H   0  0  0  0  0  0  0  0  0  0  0  0  # atno 10765 bound_to 10752
  141.1222  133.8494  157.1257 H   0  0  0  0  0  0  0  0  0  0  0  0  # atno 11005 bound_to 11000
  145.1810  139.2352  143.5292 LP  0  0  0  0  0  0  0  0  0  0  0  0  # atno 17320 bound_to 7965
  146.3494  140.1584  142.8591 LP  0  0  0  0  0  0  0  0  0  0  0  0  # atno 17321 bound_to 7965
  139.5904  144.1512  152.2081 LP  0  0  0  0  0  0  0  0  0  0  0  0  # atno 17342 bound_to 10162
  140.0864  144.5657  150.7085 LP  0  0  0  0  0  0  0  0  0  0  0  0  # atno 17343 bound_to 10162
  157.4049  131.0815  151.1275 LP  0  0  0  0  0  0  0  0  0  0  0  0  # atno 17370 bound_to 10713
  157.1924  130.6358  149.5709 LP  0  0  0  0  0  0  0  0  0  0  0  0  # atno 17371 bound_to 10713
  140.0190  134.9954  157.0552 LP  0  0  0  0  0  0  0  0  0  0  0  0  # atno 17394 bound_to 11000
  140.4472  134.1620  155.7178 LP  0  0  0  0  0  0  0  0  0  0  0  0  # atno 17395 bound_to 11000

$$$$
