AV-unprocessed.smi:21|AV-procd|sdf|165|dock4
  -GOLD-   2262015413D 1   1.00000     0.00000
 Structure written by MMmdl.
 61 64  0  0  0  0  0  0  0  0  1 V2000
  148.6979  145.4598  161.2104 C   0  0  0  0  0  0  0  0  0  0  0  0
  149.5867  144.4613  160.7347 O   0  0  0  0  0  0  0  0  0  0  0  0
  150.9020  144.9431  160.4943 C   0  0  1  0  0  0  0  0  0  0  0  0
  151.9732  143.9592  160.9949 C   0  0  0  0  0  0  0  0  0  0  0  0
  152.9156  143.7915  159.7975 C   0  0  1  0  0  0  0  0  0  0  0  0
  153.7456  142.4889  159.8320 C   0  0  0  0  0  0  0  0  0  0  0  0
  152.9703  141.3095  159.4450 N   0  0  0  0  0  0  0  0  0  0  0  0
  151.5127  141.4046  159.5135 C   0  0  0  0  0  0  0  0  0  0  0  0
  153.5418  140.0713  159.5001 C   0  0  0  0  0  0  0  0  0  0  0  0
  153.3618  139.2266  158.4474 N   0  0  0  0  0  0  0  0  0  0  0  0
  153.9006  138.0047  158.4444 C   0  0  0  0  0  0  0  0  0  0  0  0
  154.6553  137.4258  159.3773 N   0  0  0  0  0  0  0  0  0  0  0  0
  154.8559  138.2623  160.4341 C   0  0  0  0  0  0  0  0  0  0  0  0
  154.3435  139.5855  160.5799 C   0  0  0  0  0  0  0  0  0  0  0  0
  154.7830  140.1129  161.7901 N   0  0  0  0  0  0  0  0  0  0  0  0
  155.4925  139.1616  162.3296 C   0  0  0  0  0  0  0  0  0  0  0  0
  155.5960  138.0165  161.5766 N   0  0  0  0  0  0  0  0  0  0  0  0
  156.3237  136.8078  161.9194 C   0  0  0  0  0  0  0  0  0  0  0  0
  155.3990  135.5713  162.0561 C   0  0  1  0  0  0  0  0  0  0  0  0
  155.4523  134.6876  160.7882 C   0  0  0  0  0  0  0  0  0  0  0  0
  154.3225  134.8991  159.9675 O   0  0  0  0  0  0  0  0  0  0  0  0
  155.6594  134.7478  163.3475 C   0  0  1  0  0  0  0  0  0  0  0  0
  155.1269  135.3282  164.6497 C   0  0  0  0  0  0  0  0  0  0  0  0
  155.0845  134.0915  165.5365 C   0  0  0  0  0  0  0  0  0  0  0  0
  154.6048  133.0785  164.6651 O   0  0  0  0  0  0  0  0  0  0  0  0
  155.1009  133.3148  163.3494 C   0  0  0  0  0  0  0  0  0  0  0  0
  152.0420  143.9207  158.6434 N   0  0  0  0  0  0  0  0  0  0  0  0
  152.7469  144.1451  157.3885 C   0  0  0  0  0  0  0  0  0  0  0  0
  151.1598  145.0236  158.9831 C   0  0  0  0  0  0  0  0  0  0  0  0
  151.0333  145.9334  160.9336 H   0  0  0  0  0  0  0  0  0  0  0  0
  153.5973  144.6434  159.8010 H   0  0  0  0  0  0  0  0  0  0  0  0
  147.7117  145.0234  161.3685 H   0  0  0  0  0  0  0  0  0  0  0  0
  148.5938  146.2704  160.4880 H   0  0  0  0  0  0  0  0  0  0  0  0
  149.0329  145.8792  162.1596 H   0  0  0  0  0  0  0  0  0  0  0  0
  152.4889  144.3177  161.8863 H   0  0  0  0  0  0  0  0  0  0  0  0
  151.5066  143.0068  161.2395 H   0  0  0  0  0  0  0  0  0  0  0  0
  154.6532  142.6049  159.2442 H   0  0  0  0  0  0  0  0  0  0  0  0
  154.0936  142.3143  160.8503 H   0  0  0  0  0  0  0  0  0  0  0  0
  151.0489  140.7825  158.7470 H   0  0  0  0  0  0  0  0  0  0  0  0
  151.1709  142.4272  159.3584 H   0  0  0  0  0  0  0  0  0  0  0  0
  151.1509  141.0812  160.4902 H   0  0  0  0  0  0  0  0  0  0  0  0
  153.6981  137.4062  157.5683 H   0  0  0  0  0  0  0  0  0  0  0  0
  155.9709  139.2743  163.2917 H   0  0  0  0  0  0  0  0  0  0  0  0
  157.0796  136.6389  161.1523 H   0  0  0  0  0  0  0  0  0  0  0  0
  156.8646  137.0051  162.8442 H   0  0  0  0  0  0  0  0  0  0  0  0
  154.3773  135.9469  162.1352 H   0  0  0  0  0  0  0  0  0  0  0  0
  156.3307  134.9178  160.1860 H   0  0  0  0  0  0  0  0  0  0  0  0
  155.5156  133.6315  161.0517 H   0  0  0  0  0  0  0  0  0  0  0  0
  154.5986  135.3534  159.1860 H   0  0  0  0  0  0  0  0  0  0  0  0
  156.7379  134.6415  163.4726 H   0  0  0  0  0  0  0  0  0  0  0  0
  155.7587  136.1182  165.0566 H   0  0  0  0  0  0  0  0  0  0  0  0
  154.1171  135.7211  164.5365 H   0  0  0  0  0  0  0  0  0  0  0  0
  156.0844  133.8284  165.8854 H   0  0  0  0  0  0  0  0  0  0  0  0
  154.4366  134.2149  166.4044 H   0  0  0  0  0  0  0  0  0  0  0  0
  154.2933  133.1656  162.6342 H   0  0  0  0  0  0  0  0  0  0  0  0
  155.8839  132.5946  163.1090 H   0  0  0  0  0  0  0  0  0  0  0  0
  152.0384  144.2859  156.5716 H   0  0  0  0  0  0  0  0  0  0  0  0
  153.3744  143.2911  157.1342 H   0  0  0  0  0  0  0  0  0  0  0  0
  153.3818  145.0303  157.4431 H   0  0  0  0  0  0  0  0  0  0  0  0
  150.2404  144.9922  158.3974 H   0  0  0  0  0  0  0  0  0  0  0  0
  151.6523  145.9728  158.7639 H   0  0  0  0  0  0  0  0  0  0  0  0
  1  2  1  0  0  0  0
  1 32  1  0  0  0  0
  1 33  1  0  0  0  0
  1 34  1  0  0  0  0
  2  3  1  0  0  0  0
  3 30  1  0  0  0  0
  3 29  1  0  0  0  0
  3  4  1  0  0  0  0
  4  5  1  0  0  0  0
  4 35  1  0  0  0  0
  4 36  1  0  0  0  0
  5 31  1  0  0  0  0
  5  6  1  0  0  0  0
  5 27  1  0  0  0  0
  6  7  1  0  0  0  0
  6 37  1  0  0  0  0
  6 38  1  0  0  0  0
  7  8  1  0  0  0  0
  7  9  1  0  0  0  0
  8 39  1  0  0  0  0
  8 40  1  0  0  0  0
  8 41  1  0  0  0  0
  9 14  1  0  0  0  0
  9 10  2  0  0  0  0
 10 11  1  0  0  0  0
 11 12  2  0  0  0  0
 11 42  1  0  0  0  0
 12 13  1  0  0  0  0
 13 17  1  0  0  0  0
 13 14  2  0  0  0  0
 14 15  1  0  0  0  0
 15 16  2  0  0  0  0
 16 17  1  0  0  0  0
 16 43  1  0  0  0  0
 17 18  1  0  0  0  0
 18 19  1  0  0  0  0
 18 44  1  0  0  0  0
 18 45  1  0  0  0  0
 19 20  1  0  0  0  0
 19 22  1  0  0  0  0
 19 46  1  0  0  0  0
 20 21  1  0  0  0  0
 20 47  1  0  0  0  0
 20 48  1  0  0  0  0
 21 49  1  0  0  0  0
 22 26  1  0  0  0  0
 22 23  1  0  0  0  0
 22 50  1  0  0  0  0
 23 24  1  0  0  0  0
 23 51  1  0  0  0  0
 23 52  1  0  0  0  0
 24 25  1  0  0  0  0
 24 53  1  0  0  0  0
 24 54  1  0  0  0  0
 25 26  1  0  0  0  0
 26 55  1  0  0  0  0
 26 56  1  0  0  0  0
 27 28  1  0  0  0  0
 27 29  1  0  0  0  0
 28 57  1  0  0  0  0
 28 58  1  0  0  0  0
 28 59  1  0  0  0  0
 29 60  1  0  0  0  0
 29 61  1  0  0  0  0
M  END
> <s_m_source_file>
AV-unprocessed.smi

> <i_m_source_file_index>
21

> <i_lp_mmshare_version>
43012

> <i_f3d_flags>
0

> <s_epik_input>
W0NIM11PW0NASF0xW0NIMl1bQ0BIXShOKFtDSDNdKVtDSDJdMSlbQ0gyXU4oW0NIM10pYyhuW2NIXW4yKWMoYzIzKW5bY0hdbjNbQ0gyXVtDQEhdKFtDSDJdW09IXSlbQ0BASF00W0NIMl1bQ0gyXU9bQ0gyXTQ=

> <s_epik_cmdline>
J2VwaWtfcHl0aG9uJywgJy1waCcsICc3LjAnLCAnLXRuJywgJzgnLCAnLW1hJywgJzIwMCcsICctbWV0YWxfYmluZGluZycsICctaW1hZScsICc8aW5maWxlLm1hZT4nLCAnLW9tYWUnLCAnPG91dGZpbGUubWFlPic=

> <r_lp_tautomer_probability>
1

> <r_epik_Ionization_Penalty>
2.17574

> <r_epik_Ionization_Penalty_Charging>
0

> <r_epik_Ionization_Penalty_Neutral>
2.17574

> <r_epik_State_Penalty>
2.31336

> <r_epik_Charging_Adjusted_Penalty>
2.31336

> <i_epik_Tot_Q>
0

> <i_epik_Tot_abs_Q>
0

> <r_epik_Metal_State_Penalty>
2.31025

> <b_epik_Metal_Only>
0

> <s_lp_Force_Field>
OPLS_2005

> <r_lp_Energy>
71.9314

> <b_lp_Chiralities_Consistent>
1

> <s_lp_Variant>
AV-unprocessed.smi:21-45

> <Gold.Version>
5.8.1

> <Gold.Id.Protein>
6NUR|6NUR_protein|mol2

> <Gold.PLP.Fitness>
47.0447

> <Gold.PLP.PLP>
-49.1586

> <Gold.PLP.part.hbond>
-3.0000

> <Gold.PLP.part.metal>
0.0000

> <Gold.PLP.part.buried>
-7.7047

> <Gold.PLP.part.nonpolar>
-39.2164

> <Gold.PLP.part.repulsive>
0.2020

> <Gold.PLP.ligand.clash>
1.6590

> <Gold.PLP.ligand.torsion>
3.6042

> <Gold.PLP.Chemscore.Hbond>
2.0247

> <Gold.PLP.Chemscore.CHOScore>
0.0000

> <Gold.PLP.Chemscore.Metal>
0.0000

> <Gold.Chemscore.Hbonds>
donor molecule, donor type, donor heavy atom, donor atom, acceptor molecule, acceptor atom, score
      P1  H  6896  6909       L1    21  1.00
      P1  H  7997  8008       L1    10  0.76

> <Gold.PLP.Chemscore.Internal.Correction>
0.6793

> <Gold.Rescore>
     Score         DG    S(hbond)    S(metal)    S(lipo)     H(rot)  DE(clash)    DE(int)     intcor
     10.18     -17.85       1.31        0.00     134.05       3.00       1.29       6.37       ----

> <Gold.Chemscore.Fitness>
10.1842

> <Gold.Chemscore.DG>
-17.8484

> <Gold.Chemscore.ZeroCoef>
-5.4800

> <Gold.Chemscore.Hbond>
1.3091

> <Gold.Chemscore.Metal>
0.0000

> <Gold.Chemscore.Lipo>
134.0508

> <Gold.Chemscore.Internal_Hbond>
0.0000

> <Gold.Chemscore.DEClash>
1.2933

> <Gold.Chemscore.DEInternal>
6.3709

> <Gold.Chemscore.Rot>
3.0031

> <Gold.Chemscore.Internal.Correction>
   9.000000E+99

> <Gold.Chemscore.Hbonds>
donor molecule, donor type, donor heavy atom, donor atom, acceptor molecule, acceptor atom, score
      P1  H  6896  6909       L1    21  0.86
      P1  H  6933  6944       L1     2  0.01
      P1  H  7997  8008       L1    10  0.07

> <Gold.Chemscore.Hbond.Weighted>
-4.3724

> <Gold.Chemscore.Metal.Weighted>
-0.0000

> <Gold.Chemscore.Lipo.Weighted>
-15.6839

> <Gold.Chemscore.Internal_Hbond.Weighted>
0.0000

> <Gold.Chemscore.DEClash.Weighted>
1.2933

> <Gold.Chemscore.DEInternal.Weighted>
6.3709

> <Gold.Chemscore.Rot.Weighted>
7.6880

> <Gold.Chemscore.Internal.Correction.Weighted>
   9.000000E+99

> <Gold.Protein.RotatedTorsions>
[ 6907 6896 6895 6894 ] final -144.97 input  -60.11 | X-H torsion
[ 7974 7965 7964 7962 ] final  -84.75 input  175.53 | X-H torsion
[ 8008 7997 7996 7995 ] final  -75.18 input   59.86 | X-H torsion
[ 10167 10162 10161 10158 ] final  -91.87 input  -65.29 | X-H torsion
[ 10718 10713 10712 10709 ] final -132.96 input   66.30 | X-H torsion
[ 10763 10752 10751 10750 ] final  123.53 input  -60.55 | X-H torsion
[ 11005 11000 10999 10996 ] final -176.87 input  -57.11 | X-H torsion

> <Gold.Protein.ActiveResidues>
 VAL166  LYS551  ARG553  GLY616  TRP617  ASP618  TYR619  PRO620  LYS621  CYS622 
 ASP623  PHE694  ASN695  SER759  ASP760  ASP761  ALA762  ILE779  LEU786  VAL792 
 PHE793  MET794  SER795  GLU796  ALA797  LYS798  CYS799  TRP800  GLU811  SER814 

> <Gold.Protein.RotatedAtoms>
  151.1213  133.5102  159.2601 H   0  0  0  0  0  0  0  0  0  0  0  0  # atno 6907 bound_to 6896
  151.1858  135.0381  159.8822 H   0  0  0  0  0  0  0  0  0  0  0  0  # atno 6908 bound_to 6896
  152.5456  134.1059  159.8391 H   0  0  0  0  0  0  0  0  0  0  0  0  # atno 6909 bound_to 6896
  145.5024  140.9546  143.1752 H   0  0  0  0  0  0  0  0  0  0  0  0  # atno 7974 bound_to 7965
  154.5395  140.0748  156.8485 H   0  0  0  0  0  0  0  0  0  0  0  0  # atno 8008 bound_to 7997
  155.3210  140.3396  155.4223 H   0  0  0  0  0  0  0  0  0  0  0  0  # atno 8009 bound_to 7997
  156.1860  140.1669  156.8170 H   0  0  0  0  0  0  0  0  0  0  0  0  # atno 8010 bound_to 7997
  140.3405  143.2945  151.9841 H   0  0  0  0  0  0  0  0  0  0  0  0  # atno 10167 bound_to 10162
  156.2400  130.7090  151.0947 H   0  0  0  0  0  0  0  0  0  0  0  0  # atno 10718 bound_to 10713
  153.6470  135.3369  155.3088 H   0  0  0  0  0  0  0  0  0  0  0  0  # atno 10763 bound_to 10752
  154.8546  135.4332  154.1944 H   0  0  0  0  0  0  0  0  0  0  0  0  # atno 10764 bound_to 10752
  153.2877  135.7014  153.7398 H   0  0  0  0  0  0  0  0  0  0  0  0  # atno 10765 bound_to 10752
  140.4473  134.6376  157.4785 H   0  0  0  0  0  0  0  0  0  0  0  0  # atno 11005 bound_to 11000
  144.7772  139.6603  143.7169 LP  0  0  0  0  0  0  0  0  0  0  0  0  # atno 17320 bound_to 7965
  146.2217  139.5648  142.9614 LP  0  0  0  0  0  0  0  0  0  0  0  0  # atno 17321 bound_to 7965
  139.4841  144.6161  151.7344 LP  0  0  0  0  0  0  0  0  0  0  0  0  # atno 17342 bound_to 10162
  140.5313  144.0725  150.6055 LP  0  0  0  0  0  0  0  0  0  0  0  0  # atno 17343 bound_to 10162
  157.7171  131.0703  150.6285 LP  0  0  0  0  0  0  0  0  0  0  0  0  # atno 17370 bound_to 10713
  156.6357  130.4444  149.5770 LP  0  0  0  0  0  0  0  0  0  0  0  0  # atno 17371 bound_to 10713
  140.0030  134.6807  155.9500 LP  0  0  0  0  0  0  0  0  0  0  0  0  # atno 17394 bound_to 11000
  141.1679  133.6537  156.4547 LP  0  0  0  0  0  0  0  0  0  0  0  0  # atno 17395 bound_to 11000

$$$$
