AV-unprocessed.smi:1269|AV-procd|sdf|5329|dock2
  -GOLD-   22720 4453D 1   1.00000     0.00000
 Structure written by MMmdl.
 44 45  0  0  0  0  0  0  0  0  2 V2000
  150.9018  142.2228  157.6989 C   0  0  0  0  0  0  0  0  0  0  0  0
  151.0413  141.8829  156.3237 O   0  0  0  0  0  0  0  0  0  0  0  0
  150.8325  140.5717  155.9486 C   0  0  0  0  0  0  0  0  0  0  0  0
  150.8118  139.5795  156.9485 C   0  0  0  0  0  0  0  0  0  0  0  0
  150.5966  138.2391  156.5754 C   0  0  0  0  0  0  0  0  0  0  0  0
  150.4148  137.9296  155.2054 C   0  0  0  0  0  0  0  0  0  0  0  0
  150.1738  136.6252  154.6912 N   0  0  0  0  0  0  0  0  0  0  0  0
  149.4043  135.6432  155.1910 C   0  0  0  0  0  0  0  0  0  0  0  0
  148.7736  135.6942  156.2459 O   0  0  0  0  0  0  0  0  0  0  0  0
  149.3999  134.5736  154.3814 N   0  0  0  0  0  0  0  0  0  0  0  0
  148.6822  133.3188  154.6154 C   0  0  2  0  0  0  0  0  0  0  0  0
  149.6823  132.2478  155.0719 C   0  0  0  0  0  0  0  0  0  0  0  0
  147.9124  132.8664  153.3527 C   0  0  0  0  0  0  0  0  0  0  0  0
  147.0845  133.9462  152.7579 N   0  3  0  0  0  0  0  0  0  0  0  0
  146.1767  133.4650  151.6906 C   0  0  0  0  0  0  0  0  0  0  0  0
  145.4191  134.6490  151.0654 C   0  0  0  0  0  0  0  0  0  0  0  0
  144.7071  135.3513  152.0773 O   0  0  0  0  0  0  0  0  0  0  0  0
  145.5754  135.8835  153.0709 C   0  0  0  0  0  0  0  0  0  0  0  0
  146.3302  134.7359  153.7611 C   0  0  0  0  0  0  0  0  0  0  0  0
  150.4476  138.9980  154.2849 C   0  0  0  0  0  0  0  0  0  0  0  0
  150.6511  140.2849  154.6360 N   0  0  0  0  0  0  0  0  0  0  0  0
  151.0969  143.2873  157.8281 H   0  0  0  0  0  0  0  0  0  0  0  0
  151.6153  141.6779  158.3188 H   0  0  0  0  0  0  0  0  0  0  0  0
  149.8908  142.0256  158.0587 H   0  0  0  0  0  0  0  0  0  0  0  0
  150.9548  139.8430  157.9861 H   0  0  0  0  0  0  0  0  0  0  0  0
  150.5665  137.4895  157.3494 H   0  0  0  0  0  0  0  0  0  0  0  0
  150.6710  136.4051  153.8404 H   0  0  0  0  0  0  0  0  0  0  0  0
  149.9516  134.6237  153.5369 H   0  0  0  0  0  0  0  0  0  0  0  0
  147.9763  133.4579  155.4353 H   0  0  0  0  0  0  0  0  0  0  0  0
  149.1768  131.3067  155.2901 H   0  0  0  0  0  0  0  0  0  0  0  0
  150.2033  132.5571  155.9788 H   0  0  0  0  0  0  0  0  0  0  0  0
  150.4340  132.0514  154.3065 H   0  0  0  0  0  0  0  0  0  0  0  0
  148.6427  132.5300  152.6146 H   0  0  0  0  0  0  0  0  0  0  0  0
  147.2836  132.0017  153.5711 H   0  0  0  0  0  0  0  0  0  0  0  0
  146.7500  132.9504  150.9184 H   0  0  0  0  0  0  0  0  0  0  0  0
  145.4720  132.7427  152.1054 H   0  0  0  0  0  0  0  0  0  0  0  0
  146.1068  135.3243  150.5534 H   0  0  0  0  0  0  0  0  0  0  0  0
  144.7104  134.2902  150.3187 H   0  0  0  0  0  0  0  0  0  0  0  0
  146.2727  136.5933  152.6222 H   0  0  0  0  0  0  0  0  0  0  0  0
  144.9828  136.4360  153.8005 H   0  0  0  0  0  0  0  0  0  0  0  0
  145.6264  134.0884  154.2866 H   0  0  0  0  0  0  0  0  0  0  0  0
  147.0062  135.1464  154.5105 H   0  0  0  0  0  0  0  0  0  0  0  0
  150.3064  138.8157  153.2293 H   0  0  0  0  0  0  0  0  0  0  0  0
  147.7298  134.5825  152.3113 H   0  0  0  0  0  0  0  0  0  0  0  0
  1  2  1  0  0  0  0
  1 22  1  0  0  0  0
  1 23  1  0  0  0  0
  1 24  1  0  0  0  0
  2  3  1  0  0  0  0
  3 21  1  0  0  0  0
  3  4  2  0  0  0  0
  4  5  1  0  0  0  0
  4 25  1  0  0  0  0
  5  6  2  0  0  0  0
  5 26  1  0  0  0  0
  6  7  1  0  0  0  0
  6 20  1  0  0  0  0
  7  8  1  0  0  0  0
  7 27  1  0  0  0  0
  8  9  2  0  0  0  0
  8 10  1  0  0  0  0
 10 11  1  0  0  0  0
 10 28  1  0  0  0  0
 11 12  1  0  0  0  0
 11 13  1  0  0  0  0
 11 29  1  0  0  0  0
 12 30  1  0  0  0  0
 12 31  1  0  0  0  0
 12 32  1  0  0  0  0
 13 14  1  0  0  0  0
 13 33  1  0  0  0  0
 13 34  1  0  0  0  0
 14 19  1  0  0  0  0
 14 15  1  0  0  0  0
 14 44  1  0  0  0  0
 15 16  1  0  0  0  0
 15 35  1  0  0  0  0
 15 36  1  0  0  0  0
 16 17  1  0  0  0  0
 16 37  1  0  0  0  0
 16 38  1  0  0  0  0
 17 18  1  0  0  0  0
 18 19  1  0  0  0  0
 18 39  1  0  0  0  0
 18 40  1  0  0  0  0
 19 41  1  0  0  0  0
 19 42  1  0  0  0  0
 20 21  2  0  0  0  0
 20 43  1  0  0  0  0
M  CHG  1  14   1
M  END
> <s_m_source_file>
AV-unprocessed.smi

> <i_m_source_file_index>
1269

> <i_lp_mmshare_version>
43012

> <i_f3d_flags>
0

> <s_epik_input>
W0NIM11PYzFbY0hdW2NIXWMoW2NIXW4xKVtOSF1DKD1PKVtOSF1bQ0BIXShbQ0gzXSlbQ0gyXU4yW0NIMl1bQ0gyXU9bQ0gyXVtDSDJdMg==

> <s_epik_cmdline>
J2VwaWtfcHl0aG9uJywgJy1waCcsICc3LjAnLCAnLXRuJywgJzgnLCAnLW1hJywgJzIwMCcsICctbWV0YWxfYmluZGluZycsICctaW1hZScsICc8aW5maWxlLm1hZT4nLCAnLW9tYWUnLCAnPG91dGZpbGUubWFlPic=

> <r_lp_tautomer_probability>
1

> <r_epik_Ionization_Penalty>
0.602604

> <r_epik_Ionization_Penalty_Charging>
0.602531

> <r_epik_Ionization_Penalty_Neutral>
7.37831e-05

> <r_epik_State_Penalty>
0.617039

> <r_epik_Charging_Adjusted_Penalty>
1.21957

> <i_epik_Tot_Q>
1

> <i_epik_Tot_abs_Q>
1

> <r_epik_Metal_State_Penalty>
0.617045

> <b_epik_Metal_Only>
0

> <s_lp_Force_Field>
OPLS_2005

> <r_lp_Energy>
25.4267

> <b_lp_Chiralities_Consistent>
1

> <s_lp_Variant>
AV-unprocessed.smi:1269-3

> <Gold.Version>
5.8.1

> <Gold.Id.Protein>
6NUR|6NUR_protein|mol2

> <Gold.PLP.Fitness>
43.8622

> <Gold.PLP.PLP>
-31.6791

> <Gold.PLP.part.hbond>
-4.7720

> <Gold.PLP.part.metal>
0.0000

> <Gold.PLP.part.buried>
-2.2655

> <Gold.PLP.part.nonpolar>
-23.8784

> <Gold.PLP.part.repulsive>
0.4472

> <Gold.PLP.ligand.clash>
0.0283

> <Gold.PLP.ligand.torsion>
0.8209

> <Gold.PLP.Chemscore.Hbond>
3.6077

> <Gold.PLP.Chemscore.CHOScore>
1.0000

> <Gold.PLP.Chemscore.Metal>
0.0000

> <Gold.Chemscore.Hbonds>
donor molecule, donor type, donor heavy atom, donor atom, acceptor molecule, acceptor atom, score
      L1  H    14    44       P1  7948  1.85
      P1  H  7989  7998       L1    21  1.00
      L1  C    20    43       P1  7957  1.00

> <Gold.PLP.Chemscore.Internal.Correction>
0.0300

> <Gold.Rescore>
     Score         DG    S(hbond)    S(metal)    S(lipo)     H(rot)  DE(clash)    DE(int)     intcor
     13.00     -14.18       1.76        0.00      63.09       1.78       0.68       0.49       ----

> <Gold.Chemscore.Fitness>
13.0030

> <Gold.Chemscore.DG>
-14.1762

> <Gold.Chemscore.ZeroCoef>
-5.4800

> <Gold.Chemscore.Hbond>
1.7580

> <Gold.Chemscore.Metal>
0.0000

> <Gold.Chemscore.Lipo>
63.0897

> <Gold.Chemscore.Internal_Hbond>
0.0000

> <Gold.Chemscore.DEClash>
0.6826

> <Gold.Chemscore.DEInternal>
0.4906

> <Gold.Chemscore.Rot>
1.7801

> <Gold.Chemscore.Internal.Correction>
   9.000000E+99

> <Gold.Chemscore.Hbonds>
donor molecule, donor type, donor heavy atom, donor atom, acceptor molecule, acceptor atom, score
      L1  H    14    44       P1  7948  0.58
      P1  H  7989  7998       L1    21  0.49

> <Gold.Chemscore.Hbond.Weighted>
-5.8717

> <Gold.Chemscore.Metal.Weighted>
-0.0000

> <Gold.Chemscore.Lipo.Weighted>
-7.3815

> <Gold.Chemscore.Internal_Hbond.Weighted>
0.0000

> <Gold.Chemscore.DEClash.Weighted>
0.6826

> <Gold.Chemscore.DEInternal.Weighted>
0.4906

> <Gold.Chemscore.Rot.Weighted>
4.5570

> <Gold.Chemscore.Internal.Correction.Weighted>
   9.000000E+99

> <Gold.Protein.RotatedTorsions>
[ 6907 6896 6895 6894 ] final   51.64 input  -60.11 | X-H torsion
[ 7974 7965 7964 7962 ] final  -34.66 input  175.53 | X-H torsion
[ 8008 7997 7996 7995 ] final  106.80 input   59.86 | X-H torsion
[ 10167 10162 10161 10158 ] final  156.10 input  -65.29 | X-H torsion
[ 10718 10713 10712 10709 ] final -150.95 input   66.30 | X-H torsion
[ 10763 10752 10751 10750 ] final -103.39 input  -60.55 | X-H torsion
[ 11005 11000 10999 10996 ] final   51.25 input  -57.11 | X-H torsion

> <Gold.Protein.ActiveResidues>
 VAL166  LYS551  ARG553  GLY616  TRP617  ASP618  TYR619  PRO620  LYS621  CYS622 
 ASP623  PHE694  ASN695  SER759  ASP760  ASP761  ALA762  ILE779  LEU786  VAL792 
 PHE793  MET794  SER795  GLU796  ALA797  LYS798  CYS799  TRP800  GLU811  SER814 

> <Gold.Protein.RotatedAtoms>
  152.3148  134.7453  160.0327 H   0  0  0  0  0  0  0  0  0  0  0  0  # atno 6907 bound_to 6896
  151.7922  133.3355  159.3510 H   0  0  0  0  0  0  0  0  0  0  0  0  # atno 6908 bound_to 6896
  150.7339  134.5763  159.5960 H   0  0  0  0  0  0  0  0  0  0  0  0  # atno 6909 bound_to 6896
  146.0811  140.6066  142.8908 H   0  0  0  0  0  0  0  0  0  0  0  0  # atno 7974 bound_to 7965
  156.1773  140.3106  155.9083 H   0  0  0  0  0  0  0  0  0  0  0  0  # atno 8008 bound_to 7997
  155.3460  140.0468  157.3062 H   0  0  0  0  0  0  0  0  0  0  0  0  # atno 8009 bound_to 7997
  154.5304  140.2228  155.8825 H   0  0  0  0  0  0  0  0  0  0  0  0  # atno 8010 bound_to 7997
  139.4821  144.5039  151.8126 H   0  0  0  0  0  0  0  0  0  0  0  0  # atno 10167 bound_to 10162
  156.4529  130.8176  151.2407 H   0  0  0  0  0  0  0  0  0  0  0  0  # atno 10718 bound_to 10713
  154.7804  135.4825  153.9832 H   0  0  0  0  0  0  0  0  0  0  0  0  # atno 10763 bound_to 10752
  153.1486  135.6787  153.8924 H   0  0  0  0  0  0  0  0  0  0  0  0  # atno 10764 bound_to 10752
  153.8576  135.3159  155.3414 H   0  0  0  0  0  0  0  0  0  0  0  0  # atno 10765 bound_to 10752
  140.0948  134.5160  155.8817 H   0  0  0  0  0  0  0  0  0  0  0  0  # atno 11005 bound_to 11000
  144.7294  140.4624  143.6949 LP  0  0  0  0  0  0  0  0  0  0  0  0  # atno 17320 bound_to 7965
  145.6217  139.1525  143.3019 LP  0  0  0  0  0  0  0  0  0  0  0  0  # atno 17321 bound_to 7965
  140.4535  144.1821  150.5899 LP  0  0  0  0  0  0  0  0  0  0  0  0  # atno 17342 bound_to 10162
  140.4559  143.2468  151.9285 LP  0  0  0  0  0  0  0  0  0  0  0  0  # atno 17343 bound_to 10162
  157.7502  131.0132  150.3415 LP  0  0  0  0  0  0  0  0  0  0  0  0  # atno 17370 bound_to 10713
  156.3797  130.3878  149.7111 LP  0  0  0  0  0  0  0  0  0  0  0  0  # atno 17371 bound_to 10713
  141.2089  133.6678  156.6401 LP  0  0  0  0  0  0  0  0  0  0  0  0  # atno 17394 bound_to 11000
  140.3301  134.7936  157.4320 LP  0  0  0  0  0  0  0  0  0  0  0  0  # atno 17395 bound_to 11000

$$$$
