AV-unprocessed.smi:486|AV-procd|sdf|2695|dock9
  -GOLD-   2262023133D 1   1.00000     0.00000
 Structure written by MMmdl.
 43 45  0  0  0  0  0  0  0  0  1 V2000
  155.2572  136.6625  157.6476 C   0  0  0  0  0  0  0  0  0  0  0  0
  154.5065  137.1500  156.5451 O   0  0  0  0  0  0  0  0  0  0  0  0
  153.4579  138.0070  156.8025 C   0  0  0  0  0  0  0  0  0  0  0  0
  152.7273  138.4779  155.6941 C   0  0  0  0  0  0  0  0  0  0  0  0
  151.6405  139.3555  155.8676 C   0  0  0  0  0  0  0  0  0  0  0  0
  151.2589  139.7861  157.1533 C   0  0  0  0  0  0  0  0  0  0  0  0
  150.1853  140.6469  157.2333 O   0  0  0  0  0  0  0  0  0  0  0  0
  150.1459  141.5780  158.3071 C   0  0  0  0  0  0  0  0  0  0  0  0
  150.8250  142.8811  157.8572 C   0  0  2  0  0  0  0  0  0  0  0  0
  150.7793  142.9435  156.4452 O   0  0  0  0  0  0  0  0  0  0  0  0
  152.2953  142.9528  158.3183 C   0  0  0  0  0  0  0  0  0  0  0  0
  152.4281  143.2463  159.7393 N   0  0  0  0  0  0  0  0  0  0  0  0
  151.8690  144.2670  160.4346 C   0  0  0  0  0  0  0  0  0  0  0  0
  150.9833  145.2779  159.7778 C   0  0  0  0  0  0  0  0  0  0  0  0
  152.1524  144.3090  161.7365 N   0  0  0  0  0  0  0  0  0  0  0  0
  152.9722  143.2094  161.9031 C   0  0  0  0  0  0  0  0  0  0  0  0
  153.6072  142.7049  163.0606 C   0  0  0  0  0  0  0  0  0  0  0  0
  154.4090  141.5468  162.9876 C   0  0  0  0  0  0  0  0  0  0  0  0
  154.5877  140.8787  161.7590 C   0  0  0  0  0  0  0  0  0  0  0  0
  153.9644  141.3649  160.5935 C   0  0  0  0  0  0  0  0  0  0  0  0
  153.1642  142.5206  160.6715 C   0  0  0  0  0  0  0  0  0  0  0  0
  151.9903  139.3151  158.2714 C   0  0  0  0  0  0  0  0  0  0  0  0
  153.0769  138.4356  158.0980 C   0  0  0  0  0  0  0  0  0  0  0  0
  156.0401  135.9971  157.2841 H   0  0  0  0  0  0  0  0  0  0  0  0
  154.6314  136.0904  158.3336 H   0  0  0  0  0  0  0  0  0  0  0  0
  155.7414  137.4750  158.1914 H   0  0  0  0  0  0  0  0  0  0  0  0
  153.0026  138.1626  154.6984 H   0  0  0  0  0  0  0  0  0  0  0  0
  151.0940  139.7025  155.0028 H   0  0  0  0  0  0  0  0  0  0  0  0
  149.1007  141.7801  158.5470 H   0  0  0  0  0  0  0  0  0  0  0  0
  150.6245  141.1822  159.2048 H   0  0  0  0  0  0  0  0  0  0  0  0
  150.2800  143.7334  158.2636 H   0  0  0  0  0  0  0  0  0  0  0  0
  150.2235  143.6663  156.1963 H   0  0  0  0  0  0  0  0  0  0  0  0
  152.8046  142.0117  158.1083 H   0  0  0  0  0  0  0  0  0  0  0  0
  152.8316  143.7167  157.7538 H   0  0  0  0  0  0  0  0  0  0  0  0
  150.6919  146.0507  160.4899 H   0  0  0  0  0  0  0  0  0  0  0  0
  150.0791  144.7986  159.4025 H   0  0  0  0  0  0  0  0  0  0  0  0
  151.5010  145.7573  158.9476 H   0  0  0  0  0  0  0  0  0  0  0  0
  153.4769  143.2099  164.0062 H   0  0  0  0  0  0  0  0  0  0  0  0
  154.8893  141.1701  163.8787 H   0  0  0  0  0  0  0  0  0  0  0  0
  155.2047  139.9934  161.7113 H   0  0  0  0  0  0  0  0  0  0  0  0
  154.1025  140.8578  159.6501 H   0  0  0  0  0  0  0  0  0  0  0  0
  151.7371  139.6130  159.2774 H   0  0  0  0  0  0  0  0  0  0  0  0
  153.6037  138.1028  158.9792 H   0  0  0  0  0  0  0  0  0  0  0  0
  1  2  1  0  0  0  0
  1 24  1  0  0  0  0
  1 25  1  0  0  0  0
  1 26  1  0  0  0  0
  2  3  1  0  0  0  0
  3 23  1  0  0  0  0
  3  4  2  0  0  0  0
  4  5  1  0  0  0  0
  4 27  1  0  0  0  0
  5  6  2  0  0  0  0
  5 28  1  0  0  0  0
  6  7  1  0  0  0  0
  6 22  1  0  0  0  0
  7  8  1  0  0  0  0
  8  9  1  0  0  0  0
  8 29  1  0  0  0  0
  8 30  1  0  0  0  0
  9 10  1  0  0  0  0
  9 11  1  0  0  0  0
  9 31  1  0  0  0  0
 10 32  1  0  0  0  0
 11 12  1  0  0  0  0
 11 33  1  0  0  0  0
 11 34  1  0  0  0  0
 12 21  1  0  0  0  0
 12 13  1  0  0  0  0
 13 14  1  0  0  0  0
 13 15  2  0  0  0  0
 14 35  1  0  0  0  0
 14 36  1  0  0  0  0
 14 37  1  0  0  0  0
 15 16  1  0  0  0  0
 16 21  2  0  0  0  0
 16 17  1  0  0  0  0
 17 18  2  0  0  0  0
 17 38  1  0  0  0  0
 18 19  1  0  0  0  0
 18 39  1  0  0  0  0
 19 20  2  0  0  0  0
 19 40  1  0  0  0  0
 20 21  1  0  0  0  0
 20 41  1  0  0  0  0
 22 23  2  0  0  0  0
 22 42  1  0  0  0  0
 23 43  1  0  0  0  0
M  END
> <s_m_source_file>
AV-unprocessed.smi

> <i_m_source_file_index>
486

> <i_lp_mmshare_version>
43012

> <i_f3d_flags>
0

> <s_epik_input>
W0NIM11PYzFbY0hdW2NIXWMoW2NIXVtjSF0xKU9bQ0gyXVtDQEhdKFtPSF0pW0NIMl1uKGMobjIpW0NIM10pYyhjMjMpW2NIXVtjSF1bY0hdW2NIXTM=

> <s_epik_cmdline>
J2VwaWtfcHl0aG9uJywgJy1waCcsICc3LjAnLCAnLXRuJywgJzgnLCAnLW1hJywgJzIwMCcsICctbWV0YWxfYmluZGluZycsICctaW1hZScsICc8aW5maWxlLm1hZT4nLCAnLW9tYWUnLCAnPG91dGZpbGUubWFlPic=

> <r_lp_tautomer_probability>
1

> <r_epik_Ionization_Penalty>
0.114052

> <r_epik_Ionization_Penalty_Charging>
0

> <r_epik_Ionization_Penalty_Neutral>
0.114052

> <r_epik_State_Penalty>
0.103717

> <r_epik_Charging_Adjusted_Penalty>
0.103717

> <i_epik_Tot_Q>
0

> <i_epik_Tot_abs_Q>
0

> <r_epik_Metal_State_Penalty>
0.000113338

> <b_epik_Metal_Only>
0

> <s_lp_Force_Field>
OPLS_2005

> <r_lp_Energy>
19.9985

> <b_lp_Chiralities_Consistent>
1

> <s_lp_Variant>
AV-unprocessed.smi:486-1

> <Gold.Version>
5.8.1

> <Gold.Id.Protein>
6NUR|6NUR_protein|mol2

> <Gold.PLP.Fitness>
51.6236

> <Gold.PLP.PLP>
-49.0138

> <Gold.PLP.part.hbond>
-2.0000

> <Gold.PLP.part.metal>
0.0000

> <Gold.PLP.part.buried>
-6.7997

> <Gold.PLP.part.nonpolar>
-41.4937

> <Gold.PLP.part.repulsive>
0.2168

> <Gold.PLP.ligand.clash>
0.0136

> <Gold.PLP.ligand.torsion>
1.2468

> <Gold.PLP.Chemscore.Hbond>
1.6661

> <Gold.PLP.Chemscore.CHOScore>
0.0000

> <Gold.PLP.Chemscore.Metal>
0.0000

> <Gold.Chemscore.Hbonds>
donor molecule, donor type, donor heavy atom, donor atom, acceptor molecule, acceptor atom, score
      L1  H    10    32       P1  8028  1.00
      P1  H 10752 10765       L1     2  0.32

> <Gold.PLP.Chemscore.Internal.Correction>
0.1187

> <Gold.Rescore>
     Score         DG    S(hbond)    S(metal)    S(lipo)     H(rot)  DE(clash)    DE(int)     intcor
     18.18     -20.68       1.74        0.00     130.73       2.30       0.26       2.24       ----

> <Gold.Chemscore.Fitness>
18.1825

> <Gold.Chemscore.DG>
-20.6798

> <Gold.Chemscore.ZeroCoef>
-5.4800

> <Gold.Chemscore.Hbond>
1.7362

> <Gold.Chemscore.Metal>
0.0000

> <Gold.Chemscore.Lipo>
130.7253

> <Gold.Chemscore.Internal_Hbond>
0.0000

> <Gold.Chemscore.DEClash>
0.2553

> <Gold.Chemscore.DEInternal>
2.2420

> <Gold.Chemscore.Rot>
2.3023

> <Gold.Chemscore.Internal.Correction>
   9.000000E+99

> <Gold.Chemscore.Hbonds>
donor molecule, donor type, donor heavy atom, donor atom, acceptor molecule, acceptor atom, score
      L1  H    10    32       P1  8028  1.00
      P1  H 10752 10765       L1     2  0.15

> <Gold.Chemscore.Hbond.Weighted>
-5.7989

> <Gold.Chemscore.Metal.Weighted>
-0.0000

> <Gold.Chemscore.Lipo.Weighted>
-15.2949

> <Gold.Chemscore.Internal_Hbond.Weighted>
0.0000

> <Gold.Chemscore.DEClash.Weighted>
0.2553

> <Gold.Chemscore.DEInternal.Weighted>
2.2420

> <Gold.Chemscore.Rot.Weighted>
5.8940

> <Gold.Chemscore.Internal.Correction.Weighted>
   9.000000E+99

> <Gold.Protein.RotatedTorsions>
[ 6907 6896 6895 6894 ] final  158.75 input  -60.11 | X-H torsion
[ 7974 7965 7964 7962 ] final  -53.82 input  175.53 | X-H torsion
[ 8008 7997 7996 7995 ] final  131.07 input   59.86 | X-H torsion
[ 10167 10162 10161 10158 ] final  -47.51 input  -65.29 | X-H torsion
[ 10718 10713 10712 10709 ] final -117.52 input   66.30 | X-H torsion
[ 10763 10752 10751 10750 ] final -103.09 input  -60.55 | X-H torsion
[ 11005 11000 10999 10996 ] final  101.81 input  -57.11 | X-H torsion

> <Gold.Protein.ActiveResidues>
 VAL166  LYS551  ARG553  GLY616  TRP617  ASP618  TYR619  PRO620  LYS621  CYS622 
 ASP623  PHE694  ASN695  SER759  ASP760  ASP761  ALA762  ILE779  LEU786  VAL792 
 PHE793  MET794  SER795  GLU796  ALA797  LYS798  CYS799  TRP800  GLU811  SER814 

> <Gold.Protein.RotatedAtoms>
  151.9958  133.3807  159.4162 H   0  0  0  0  0  0  0  0  0  0  0  0  # atno 6907 bound_to 6896
  150.6916  134.3887  159.5076 H   0  0  0  0  0  0  0  0  0  0  0  0  # atno 6908 bound_to 6896
  152.1627  134.8899  160.0591 H   0  0  0  0  0  0  0  0  0  0  0  0  # atno 6909 bound_to 6896
  145.8925  140.8059  142.9784 H   0  0  0  0  0  0  0  0  0  0  0  0  # atno 7974 bound_to 7965
  156.2964  140.2580  156.2866 H   0  0  0  0  0  0  0  0  0  0  0  0  # atno 8008 bound_to 7997
  154.9550  140.0393  157.2181 H   0  0  0  0  0  0  0  0  0  0  0  0  # atno 8009 bound_to 7997
  154.8000  140.2826  155.5933 H   0  0  0  0  0  0  0  0  0  0  0  0  # atno 8010 bound_to 7997
  140.6772  143.2781  151.3937 H   0  0  0  0  0  0  0  0  0  0  0  0  # atno 10167 bound_to 10162
  156.1040  130.6195  150.9175 H   0  0  0  0  0  0  0  0  0  0  0  0  # atno 10718 bound_to 10713
  154.7782  135.4836  153.9789 H   0  0  0  0  0  0  0  0  0  0  0  0  # atno 10763 bound_to 10752
  153.1457  135.6781  153.8965 H   0  0  0  0  0  0  0  0  0  0  0  0  # atno 10764 bound_to 10752
  153.8625  135.3153  155.3417 H   0  0  0  0  0  0  0  0  0  0  0  0  # atno 10765 bound_to 10752
  139.8775  134.9198  156.4962 H   0  0  0  0  0  0  0  0  0  0  0  0  # atno 11005 bound_to 11000
  144.6731  140.1552  143.7427 LP  0  0  0  0  0  0  0  0  0  0  0  0  # atno 17320 bound_to 7965
  145.8890  139.2365  143.1560 LP  0  0  0  0  0  0  0  0  0  0  0  0  # atno 17321 bound_to 7965
  139.6071  144.1174  152.2260 LP  0  0  0  0  0  0  0  0  0  0  0  0  # atno 17342 bound_to 10162
  140.0577  144.5882  150.7287 LP  0  0  0  0  0  0  0  0  0  0  0  0  # atno 17343 bound_to 10162
  157.6214  131.0929  150.8615 LP  0  0  0  0  0  0  0  0  0  0  0  0  # atno 17370 bound_to 10713
  156.8737  130.5155  149.5295 LP  0  0  0  0  0  0  0  0  0  0  0  0  # atno 17371 bound_to 10713
  140.8622  133.8051  155.9277 LP  0  0  0  0  0  0  0  0  0  0  0  0  # atno 17394 bound_to 11000
  140.9037  134.2346  157.5026 LP  0  0  0  0  0  0  0  0  0  0  0  0  # atno 17395 bound_to 11000

$$$$
