AV-unprocessed.smi:1947|AV-procd|sdf|7871|dock2
  -GOLD-   2272010 23D 1   1.00000     0.00000
 Structure written by MMmdl.
 38 39  0  0  0  0  0  0  0  0  2 V2000
  153.0504  141.9508  161.6952 C   0  0  0  0  0  0  0  0  0  0  0  0
  152.9090  143.0481  160.6289 C   0  0  2  0  0  0  0  0  0  0  0  0
  152.1015  144.2544  161.1499 C   0  0  0  0  0  0  0  0  0  0  0  0
  151.9942  145.3631  160.0906 C   0  0  0  0  0  0  0  0  0  0  0  0
  151.4044  144.8263  158.7777 C   0  0  0  0  0  0  0  0  0  0  0  0
  152.2109  143.6254  158.2558 C   0  0  0  0  0  0  0  0  0  0  0  0
  152.3100  142.5038  159.3126 C   0  0  2  0  0  0  0  0  0  0  0  0
  151.0161  141.9817  159.5886 O   0  0  0  0  0  0  0  0  0  0  0  0
  150.4899  141.1313  158.5807 C   0  0  0  0  0  0  0  0  0  0  0  0
  151.4339  139.9379  158.4095 C   0  0  0  0  0  0  0  0  0  0  0  0
  150.8063  138.7263  158.9204 N   0  0  0  0  0  0  0  0  0  0  0  0
  150.7888  137.5399  158.3006 C   0  0  0  0  0  0  0  0  0  0  0  0
  151.3299  137.4139  157.1999 O   0  0  0  0  0  0  0  0  0  0  0  0
  150.1475  136.5735  158.9965 N   0  5  0  0  0  0  0  0  0  0  0  0
  148.9067  136.7894  159.4629 C   0  0  0  0  0  0  0  0  0  0  0  0
  148.2141  137.9024  159.1721 N   0  0  0  0  0  0  0  0  0  0  0  0
  146.9579  137.9337  159.7623 N   0  0  0  0  0  0  0  0  0  0  0  0
  146.7370  136.8408  160.4923 C   0  0  0  0  0  0  0  0  0  0  0  0
  148.0434  135.6758  160.5270 S   0  0  0  0  0  0  0  0  0  0  0  0
  152.0791  141.5526  161.9902 H   0  0  0  0  0  0  0  0  0  0  0  0
  153.5359  142.3367  162.5919 H   0  0  0  0  0  0  0  0  0  0  0  0
  153.6524  141.1201  161.3260 H   0  0  0  0  0  0  0  0  0  0  0  0
  153.9163  143.4028  160.4057 H   0  0  0  0  0  0  0  0  0  0  0  0
  151.1007  143.9329  161.4423 H   0  0  0  0  0  0  0  0  0  0  0  0
  152.5691  144.6559  162.0494 H   0  0  0  0  0  0  0  0  0  0  0  0
  151.3783  146.1798  160.4684 H   0  0  0  0  0  0  0  0  0  0  0  0
  152.9828  145.7834  159.9016 H   0  0  0  0  0  0  0  0  0  0  0  0
  150.3662  144.5309  158.9361 H   0  0  0  0  0  0  0  0  0  0  0  0
  151.3877  145.6170  158.0272 H   0  0  0  0  0  0  0  0  0  0  0  0
  151.7652  143.2555  157.3331 H   0  0  0  0  0  0  0  0  0  0  0  0
  153.2153  143.9570  157.9902 H   0  0  0  0  0  0  0  0  0  0  0  0
  152.9568  141.7064  158.9412 H   0  0  0  0  0  0  0  0  0  0  0  0
  149.4900  140.7769  158.8320 H   0  0  0  0  0  0  0  0  0  0  0  0
  150.4110  141.6875  157.6459 H   0  0  0  0  0  0  0  0  0  0  0  0
  151.6691  139.8010  157.3532 H   0  0  0  0  0  0  0  0  0  0  0  0
  152.3746  140.1209  158.9314 H   0  0  0  0  0  0  0  0  0  0  0  0
  150.3570  138.7893  159.8222 H   0  0  0  0  0  0  0  0  0  0  0  0
  145.8005  136.7215  161.0161 H   0  0  0  0  0  0  0  0  0  0  0  0
  1  2  1  0  0  0  0
  1 20  1  0  0  0  0
  1 21  1  0  0  0  0
  1 22  1  0  0  0  0
  2  7  1  0  0  0  0
  2  3  1  0  0  0  0
  2 23  1  0  0  0  0
  3  4  1  0  0  0  0
  3 24  1  0  0  0  0
  3 25  1  0  0  0  0
  4  5  1  0  0  0  0
  4 26  1  0  0  0  0
  4 27  1  0  0  0  0
  5  6  1  0  0  0  0
  5 28  1  0  0  0  0
  5 29  1  0  0  0  0
  6  7  1  0  0  0  0
  6 30  1  0  0  0  0
  6 31  1  0  0  0  0
  7  8  1  0  0  0  0
  7 32  1  0  0  0  0
  8  9  1  0  0  0  0
  9 10  1  0  0  0  0
  9 33  1  0  0  0  0
  9 34  1  0  0  0  0
 10 11  1  0  0  0  0
 10 35  1  0  0  0  0
 10 36  1  0  0  0  0
 11 12  1  0  0  0  0
 11 37  1  0  0  0  0
 12 13  2  0  0  0  0
 12 14  1  0  0  0  0
 14 15  1  0  0  0  0
 15 19  1  0  0  0  0
 15 16  2  0  0  0  0
 16 17  1  0  0  0  0
 17 18  2  0  0  0  0
 18 19  1  0  0  0  0
 18 38  1  0  0  0  0
M  CHG  1  14  -1
M  END
> <s_m_source_file>
AV-unprocessed.smi

> <i_m_source_file_index>
1947

> <i_lp_mmshare_version>
43012

> <i_f3d_flags>
0

> <s_epik_input>
W0NIM11bQ0BASF0xW0NIMl1bQ0gyXVtDSDJdW0NIMl1bQ0BIXTFPW0NIMl1bQ0gyXVtOSF1DKD1PKVtOSF1jMm5uW2NIXXMy

> <s_epik_cmdline>
J2VwaWtfcHl0aG9uJywgJy1waCcsICc3LjAnLCAnLXRuJywgJzgnLCAnLW1hJywgJzIwMCcsICctbWV0YWxfYmluZGluZycsICctaW1hZScsICc8aW5maWxlLm1hZT4nLCAnLW9tYWUnLCAnPG91dGZpbGUubWFlPic=

> <r_lp_tautomer_probability>
1

> <r_epik_Ionization_Penalty>
3.35961

> <r_epik_Ionization_Penalty_Charging>
3.31977

> <r_epik_Ionization_Penalty_Neutral>
0.0398394

> <r_epik_State_Penalty>
3.31759

> <r_epik_Charging_Adjusted_Penalty>
6.63736

> <i_epik_Tot_Q>
-1

> <i_epik_Tot_abs_Q>
1

> <r_epik_Metal_State_Penalty>
0.484557

> <b_epik_Metal_Only>
1

> <s_lp_Force_Field>
OPLS_2005

> <r_lp_Energy>
9.4778

> <b_lp_Chiralities_Consistent>
1

> <s_lp_Variant>
AV-unprocessed.smi:1947-7

> <Gold.Version>
5.8.1

> <Gold.Id.Protein>
6NUR|6NUR_protein|mol2

> <Gold.PLP.Fitness>
47.5718

> <Gold.PLP.PLP>
-40.7348

> <Gold.PLP.part.hbond>
-4.1479

> <Gold.PLP.part.metal>
0.0000

> <Gold.PLP.part.buried>
-6.0155

> <Gold.PLP.part.nonpolar>
-31.9649

> <Gold.PLP.part.repulsive>
0.1681

> <Gold.PLP.ligand.clash>
0.0000

> <Gold.PLP.ligand.torsion>
1.0240

> <Gold.PLP.Chemscore.Hbond>
2.8640

> <Gold.PLP.Chemscore.CHOScore>
0.0000

> <Gold.PLP.Chemscore.Metal>
0.0000

> <Gold.Chemscore.Hbonds>
donor molecule, donor type, donor heavy atom, donor atom, acceptor molecule, acceptor atom, score
      P1  H  6896  6907       L1    14  2.00
      P1  H  6934  6947       L1    17  0.85

> <Gold.PLP.Chemscore.Internal.Correction>
0.2929

> <Gold.Rescore>
     Score         DG    S(hbond)    S(metal)    S(lipo)     H(rot)  DE(clash)    DE(int)     intcor
     13.91     -16.50       1.12        0.00     103.90       1.90       0.06       2.53       ----

> <Gold.Chemscore.Fitness>
13.9131

> <Gold.Chemscore.DG>
-16.5038

> <Gold.Chemscore.ZeroCoef>
-5.4800

> <Gold.Chemscore.Hbond>
1.1159

> <Gold.Chemscore.Metal>
0.0000

> <Gold.Chemscore.Lipo>
103.9010

> <Gold.Chemscore.Internal_Hbond>
0.0000

> <Gold.Chemscore.DEClash>
0.0643

> <Gold.Chemscore.DEInternal>
2.5264

> <Gold.Chemscore.Rot>
1.8984

> <Gold.Chemscore.Internal.Correction>
   9.000000E+99

> <Gold.Chemscore.Hbonds>
donor molecule, donor type, donor heavy atom, donor atom, acceptor molecule, acceptor atom, score
      P1  H  6896  6907       L1    14  0.77
      P1  H  6934  6947       L1    17  0.09

> <Gold.Chemscore.Hbond.Weighted>
-3.7272

> <Gold.Chemscore.Metal.Weighted>
-0.0000

> <Gold.Chemscore.Lipo.Weighted>
-12.1564

> <Gold.Chemscore.Internal_Hbond.Weighted>
0.0000

> <Gold.Chemscore.DEClash.Weighted>
0.0643

> <Gold.Chemscore.DEInternal.Weighted>
2.5264

> <Gold.Chemscore.Rot.Weighted>
4.8598

> <Gold.Chemscore.Internal.Correction.Weighted>
   9.000000E+99

> <Gold.Protein.RotatedTorsions>
[ 6907 6896 6895 6894 ] final  -45.37 input  -60.11 | X-H torsion
[ 7974 7965 7964 7962 ] final  -44.24 input  175.53 | X-H torsion
[ 8008 7997 7996 7995 ] final    6.85 input   59.86 | X-H torsion
[ 10167 10162 10161 10158 ] final  139.47 input  -65.29 | X-H torsion
[ 10718 10713 10712 10709 ] final  176.83 input   66.30 | X-H torsion
[ 10763 10752 10751 10750 ] final  -32.39 input  -60.55 | X-H torsion
[ 11005 11000 10999 10996 ] final  140.91 input  -57.11 | X-H torsion

> <Gold.Protein.ActiveResidues>
 VAL166  LYS551  ARG553  GLY616  TRP617  ASP618  TYR619  PRO620  LYS621  CYS622 
 ASP623  PHE694  ASN695  SER759  ASP760  ASP761  ALA762  ILE779  LEU786  VAL792 
 PHE793  MET794  SER795  GLU796  ALA797  LYS798  CYS799  TRP800  GLU811  SER814 

> <Gold.Protein.RotatedAtoms>
  150.9227  134.8644  159.7499 H   0  0  0  0  0  0  0  0  0  0  0  0  # atno 6907 bound_to 6896
  152.5000  134.4195  159.9485 H   0  0  0  0  0  0  0  0  0  0  0  0  # atno 6908 bound_to 6896
  151.4228  133.3653  159.2793 H   0  0  0  0  0  0  0  0  0  0  0  0  # atno 6909 bound_to 6896
  145.9940  140.7149  142.9303 H   0  0  0  0  0  0  0  0  0  0  0  0  # atno 7974 bound_to 7965
  154.7463  140.2758  155.6330 H   0  0  0  0  0  0  0  0  0  0  0  0  # atno 8008 bound_to 7997
  156.2885  140.2687  156.2131 H   0  0  0  0  0  0  0  0  0  0  0  0  # atno 8009 bound_to 7997
  155.0194  140.0371  157.2421 H   0  0  0  0  0  0  0  0  0  0  0  0  # atno 8010 bound_to 7997
  139.5078  144.6293  151.5859 H   0  0  0  0  0  0  0  0  0  0  0  0  # atno 10167 bound_to 10162
  156.9143  130.9920  151.3015 H   0  0  0  0  0  0  0  0  0  0  0  0  # atno 10718 bound_to 10713
  153.8129  135.6881  153.4838 H   0  0  0  0  0  0  0  0  0  0  0  0  # atno 10763 bound_to 10752
  153.1617  135.4577  154.9779 H   0  0  0  0  0  0  0  0  0  0  0  0  # atno 10764 bound_to 10752
  154.7960  135.3319  154.7608 H   0  0  0  0  0  0  0  0  0  0  0  0  # atno 10765 bound_to 10752
  140.0362  134.9327  157.0757 H   0  0  0  0  0  0  0  0  0  0  0  0  # atno 11005 bound_to 11000
  144.6898  140.3118  143.7247 LP  0  0  0  0  0  0  0  0  0  0  0  0  # atno 17320 bound_to 7965
  145.7588  139.1818  143.2279 LP  0  0  0  0  0  0  0  0  0  0  0  0  # atno 17321 bound_to 7965
  140.6020  143.9593  150.6392 LP  0  0  0  0  0  0  0  0  0  0  0  0  # atno 17342 bound_to 10162
  140.2808  143.3391  152.1153 LP  0  0  0  0  0  0  0  0  0  0  0  0  # atno 17343 bound_to 10162
  157.5948  130.8469  149.8712 LP  0  0  0  0  0  0  0  0  0  0  0  0  # atno 17370 bound_to 10713
  156.0521  130.3715  150.1177 LP  0  0  0  0  0  0  0  0  0  0  0  0  # atno 17371 bound_to 10713
  140.4143  134.1947  155.7163 LP  0  0  0  0  0  0  0  0  0  0  0  0  # atno 17394 bound_to 11000
  141.1858  133.8314  157.1089 LP  0  0  0  0  0  0  0  0  0  0  0  0  # atno 17395 bound_to 11000

$$$$
