AV-unprocessed.smi:1292|AV-procd|sdf|5397|dock9
  -GOLD-   22720 4553D 1   1.00000     0.00000
 Structure written by MMmdl.
 39 40  0  0  0  0  0  0  0  0  2 V2000
  152.5074  143.7795  161.8205 C   0  0  0  0  0  0  0  0  0  0  0  0
  152.6356  143.4177  160.3342 C   0  0  2  0  0  0  0  0  0  0  0  0
  151.8347  144.3821  159.4484 C   0  0  0  0  0  0  0  0  0  0  0  0
  152.0081  143.9910  157.9783 C   0  0  0  0  0  0  0  0  0  0  0  0
  151.5826  142.5347  157.7360 C   0  0  0  0  0  0  0  0  0  0  0  0
  152.2918  141.6072  158.6416 N   0  0  0  0  0  0  0  0  0  0  0  0
  152.3094  139.9193  158.2274 S   0  0  0  0  0  0  0  0  0  0  0  0
  151.0325  139.3566  158.6960 O   0  0  0  0  0  0  0  0  0  0  0  0
  152.6025  139.8515  156.7859 O   0  0  0  0  0  0  0  0  0  0  0  0
  153.5671  139.5128  159.1634 N   0  5  0  0  0  0  0  0  0  0  0  0
  153.3432  138.7464  160.3759 C   0  0  0  0  0  0  0  0  0  0  0  0
  154.0186  137.3585  160.2704 C   0  0  0  0  0  0  0  0  0  0  0  0
  154.1747  136.6065  161.5919 C   0  0  0  0  0  0  0  0  0  0  0  0
  153.7649  137.1955  162.8104 C   0  0  0  0  0  0  0  0  0  0  0  0
  153.9266  136.4630  164.0023 C   0  0  0  0  0  0  0  0  0  0  0  0
  154.4950  135.1765  163.9374 C   0  0  0  0  0  0  0  0  0  0  0  0
  154.8812  134.6785  162.6775 C   0  0  0  0  0  0  0  0  0  0  0  0
  154.7345  135.3733  161.5299 N   0  0  0  0  0  0  0  0  0  0  0  0
  152.2011  141.9624  160.0743 C   0  0  0  0  0  0  0  0  0  0  0  0
  151.4728  143.7081  162.1577 H   0  0  0  0  0  0  0  0  0  0  0  0
  152.8507  144.7970  162.0085 H   0  0  0  0  0  0  0  0  0  0  0  0
  153.1058  143.1103  162.4393 H   0  0  0  0  0  0  0  0  0  0  0  0
  153.6892  143.5064  160.0649 H   0  0  0  0  0  0  0  0  0  0  0  0
  150.7781  144.3519  159.7182 H   0  0  0  0  0  0  0  0  0  0  0  0
  152.1711  145.4079  159.6016 H   0  0  0  0  0  0  0  0  0  0  0  0
  151.4227  144.6571  157.3441 H   0  0  0  0  0  0  0  0  0  0  0  0
  153.0504  144.1206  157.6838 H   0  0  0  0  0  0  0  0  0  0  0  0
  150.5078  142.4254  157.8872 H   0  0  0  0  0  0  0  0  0  0  0  0
  151.7843  142.2664  156.6994 H   0  0  0  0  0  0  0  0  0  0  0  0
  153.7450  139.2657  161.2463 H   0  0  0  0  0  0  0  0  0  0  0  0
  152.2807  138.6075  160.5793 H   0  0  0  0  0  0  0  0  0  0  0  0
  153.4658  136.7329  159.5677 H   0  0  0  0  0  0  0  0  0  0  0  0
  155.0100  137.4821  159.8338 H   0  0  0  0  0  0  0  0  0  0  0  0
  153.3283  138.1831  162.8288 H   0  0  0  0  0  0  0  0  0  0  0  0
  153.6184  136.8802  164.9495 H   0  0  0  0  0  0  0  0  0  0  0  0
  154.6321  134.5855  164.8307 H   0  0  0  0  0  0  0  0  0  0  0  0
  155.3222  133.6968  162.5890 H   0  0  0  0  0  0  0  0  0  0  0  0
  152.8286  141.2887  160.6574 H   0  0  0  0  0  0  0  0  0  0  0  0
  151.1757  141.8051  160.4121 H   0  0  0  0  0  0  0  0  0  0  0  0
  1  2  1  0  0  0  0
  1 20  1  0  0  0  0
  1 21  1  0  0  0  0
  1 22  1  0  0  0  0
  2 19  1  0  0  0  0
  2  3  1  0  0  0  0
  2 23  1  0  0  0  0
  3  4  1  0  0  0  0
  3 24  1  0  0  0  0
  3 25  1  0  0  0  0
  4  5  1  0  0  0  0
  4 26  1  0  0  0  0
  4 27  1  0  0  0  0
  5  6  1  0  0  0  0
  5 28  1  0  0  0  0
  5 29  1  0  0  0  0
  6  7  1  0  0  0  0
  6 19  1  0  0  0  0
  7  8  2  0  0  0  0
  7  9  2  0  0  0  0
  7 10  1  0  0  0  0
 10 11  1  0  0  0  0
 11 12  1  0  0  0  0
 11 30  1  0  0  0  0
 11 31  1  0  0  0  0
 12 13  1  0  0  0  0
 12 32  1  0  0  0  0
 12 33  1  0  0  0  0
 13 18  1  0  0  0  0
 13 14  2  0  0  0  0
 14 15  1  0  0  0  0
 14 34  1  0  0  0  0
 15 16  2  0  0  0  0
 15 35  1  0  0  0  0
 16 17  1  0  0  0  0
 16 36  1  0  0  0  0
 17 18  2  0  0  0  0
 17 37  1  0  0  0  0
 19 38  1  0  0  0  0
 19 39  1  0  0  0  0
M  CHG  1  10  -1
M  END
> <s_m_source_file>
AV-unprocessed.smi

> <i_m_source_file_index>
1292

> <i_lp_mmshare_version>
43012

> <i_f3d_flags>
0

> <s_epik_input>
W0NIM11bQ0BASF0xW0NIMl1bQ0gyXVtDSDJdTihbQ0gyXTEpUyg9TykoPU8pW05IXVtDSDJdW0NIMl1jMltjSF1bY0hdW2NIXVtjSF1uMg==

> <s_epik_cmdline>
J2VwaWtfcHl0aG9uJywgJy1waCcsICc3LjAnLCAnLXRuJywgJzgnLCAnLW1hJywgJzIwMCcsICctbWV0YWxfYmluZGluZycsICctaW1hZScsICc8aW5maWxlLm1hZT4nLCAnLW9tYWUnLCAnPG91dGZpbGUubWFlPic=

> <r_epik_Ionization_Penalty>
2.02944

> <r_epik_Ionization_Penalty_Charging>
1.95606

> <r_epik_Ionization_Penalty_Neutral>
0.0733799

> <r_epik_State_Penalty>
2.47711

> <r_epik_Charging_Adjusted_Penalty>
4.43317

> <i_epik_Tot_Q>
-1

> <i_epik_Tot_abs_Q>
1

> <r_epik_Metal_State_Penalty>
0.729901

> <b_epik_Metal_Only>
0

> <s_lp_Force_Field>
OPLS_2005

> <r_lp_Energy>
8.05256

> <b_lp_Chiralities_Consistent>
1

> <s_lp_Variant>
AV-unprocessed.smi:1292-3

> <Gold.Version>
5.8.1

> <Gold.Id.Protein>
6NUR|6NUR_protein|mol2

> <Gold.PLP.Fitness>
46.4428

> <Gold.PLP.PLP>
-43.7484

> <Gold.PLP.part.hbond>
-1.0000

> <Gold.PLP.part.metal>
0.0000

> <Gold.PLP.part.buried>
-5.2965

> <Gold.PLP.part.nonpolar>
-37.0086

> <Gold.PLP.part.repulsive>
0.0000

> <Gold.PLP.ligand.clash>
0.0000

> <Gold.PLP.ligand.torsion>
1.6990

> <Gold.PLP.Chemscore.Hbond>
1.0000

> <Gold.PLP.Chemscore.CHOScore>
0.0000

> <Gold.PLP.Chemscore.Metal>
0.0000

> <Gold.Chemscore.Hbonds>
donor molecule, donor type, donor heavy atom, donor atom, acceptor molecule, acceptor atom, score
      P1  H  7997  8008       L1     9  1.00

> <Gold.PLP.Chemscore.Internal.Correction>
3.0924

> <Gold.Rescore>
     Score         DG    S(hbond)    S(metal)    S(lipo)     H(rot)  DE(clash)    DE(int)     intcor
     18.38     -20.17       0.99        0.00     125.23       1.27       0.12       1.67       ----

> <Gold.Chemscore.Fitness>
18.3842

> <Gold.Chemscore.DG>
-20.1726

> <Gold.Chemscore.ZeroCoef>
-5.4800

> <Gold.Chemscore.Hbond>
0.9886

> <Gold.Chemscore.Metal>
0.0000

> <Gold.Chemscore.Lipo>
125.2281

> <Gold.Chemscore.Internal_Hbond>
0.0000

> <Gold.Chemscore.DEClash>
0.1208

> <Gold.Chemscore.DEInternal>
1.6676

> <Gold.Chemscore.Rot>
1.2738

> <Gold.Chemscore.Internal.Correction>
   9.000000E+99

> <Gold.Chemscore.Hbonds>
donor molecule, donor type, donor heavy atom, donor atom, acceptor molecule, acceptor atom, score
      P1  H  7997  8008       L1     9  0.65

> <Gold.Chemscore.Hbond.Weighted>
-3.3020

> <Gold.Chemscore.Metal.Weighted>
-0.0000

> <Gold.Chemscore.Lipo.Weighted>
-14.6517

> <Gold.Chemscore.Internal_Hbond.Weighted>
0.0000

> <Gold.Chemscore.DEClash.Weighted>
0.1208

> <Gold.Chemscore.DEInternal.Weighted>
1.6676

> <Gold.Chemscore.Rot.Weighted>
3.2610

> <Gold.Chemscore.Internal.Correction.Weighted>
   9.000000E+99

> <Gold.Protein.RotatedTorsions>
[ 6907 6896 6895 6894 ] final  -77.48 input  -60.11 | X-H torsion
[ 7974 7965 7964 7962 ] final   -0.30 input  175.53 | X-H torsion
[ 8008 7997 7996 7995 ] final  -55.94 input   59.86 | X-H torsion
[ 10167 10162 10161 10158 ] final   48.16 input  -65.29 | X-H torsion
[ 10718 10713 10712 10709 ] final -117.68 input   66.30 | X-H torsion
[ 10763 10752 10751 10750 ] final  -77.88 input  -60.55 | X-H torsion
[ 11005 11000 10999 10996 ] final  -78.25 input  -57.11 | X-H torsion

> <Gold.Protein.ActiveResidues>
 VAL166  LYS551  ARG553  GLY616  TRP617  ASP618  TYR619  PRO620  LYS621  CYS622 
 ASP623  PHE694  ASN695  SER759  ASP760  ASP761  ALA762  ILE779  LEU786  VAL792 
 PHE793  MET794  SER795  GLU796  ALA797  LYS798  CYS799  TRP800  GLU811  SER814 

> <Gold.Protein.RotatedAtoms>
  150.6998  134.4417  159.5294 H   0  0  0  0  0  0  0  0  0  0  0  0  # atno 6907 bound_to 6896
  152.2125  134.8485  160.0505 H   0  0  0  0  0  0  0  0  0  0  0  0  # atno 6908 bound_to 6896
  151.9365  133.3591  159.3986 H   0  0  0  0  0  0  0  0  0  0  0  0  # atno 6909 bound_to 6896
  146.2428  140.1249  142.8339 H   0  0  0  0  0  0  0  0  0  0  0  0  # atno 7974 bound_to 7965
  154.4212  140.1141  156.5558 H   0  0  0  0  0  0  0  0  0  0  0  0  # atno 8008 bound_to 7997
  155.6363  140.3496  155.4680 H   0  0  0  0  0  0  0  0  0  0  0  0  # atno 8009 bound_to 7997
  155.9907  140.1179  157.0630 H   0  0  0  0  0  0  0  0  0  0  0  0  # atno 8010 bound_to 7997
  140.2961  144.2989  150.6229 H   0  0  0  0  0  0  0  0  0  0  0  0  # atno 10167 bound_to 10162
  156.1051  130.6204  150.9194 H   0  0  0  0  0  0  0  0  0  0  0  0  # atno 10718 bound_to 10713
  154.5186  135.5749  153.6662 H   0  0  0  0  0  0  0  0  0  0  0  0  # atno 10763 bound_to 10752
  152.9912  135.6176  154.2784 H   0  0  0  0  0  0  0  0  0  0  0  0  # atno 10764 bound_to 10752
  154.2703  135.2853  155.2720 H   0  0  0  0  0  0  0  0  0  0  0  0  # atno 10765 bound_to 10752
  141.1664  133.7055  156.7943 H   0  0  0  0  0  0  0  0  0  0  0  0  # atno 11005 bound_to 11000
  145.0375  140.8919  143.5072 LP  0  0  0  0  0  0  0  0  0  0  0  0  # atno 17320 bound_to 7965
  145.1324  139.2624  143.5532 LP  0  0  0  0  0  0  0  0  0  0  0  0  # atno 17321 bound_to 7965
  140.5691  143.2183  151.7631 LP  0  0  0  0  0  0  0  0  0  0  0  0  # atno 17342 bound_to 10162
  139.4926  144.4242  151.9944 LP  0  0  0  0  0  0  0  0  0  0  0  0  # atno 17343 bound_to 10162
  157.6227  131.0928  150.8593 LP  0  0  0  0  0  0  0  0  0  0  0  0  # atno 17370 bound_to 10713
  156.8713  130.5147  149.5296 LP  0  0  0  0  0  0  0  0  0  0  0  0  # atno 17371 bound_to 10713
  140.2303  134.8691  157.3469 LP  0  0  0  0  0  0  0  0  0  0  0  0  # atno 17394 bound_to 11000
  140.1898  134.4386  155.7722 LP  0  0  0  0  0  0  0  0  0  0  0  0  # atno 17395 bound_to 11000

$$$$
