AV-unprocessed.smi:3335|AV-procd|sdf|12851|dock1
  -GOLD-   2272019243D 1   1.00000     0.00000
 Structure written by MMmdl.
 46 47  0  0  0  0  0  0  0  0  1 V2000
  153.6313  142.9954  163.4242 C   0  0  0  0  0  0  0  0  0  0  0  0
  153.4141  142.6859  161.9717 C   0  0  0  0  0  0  0  0  0  0  0  0
  154.0376  141.6750  161.1874 C   0  0  0  0  0  0  0  0  0  0  0  0
  153.6527  141.6959  159.9221 N   0  0  0  0  0  0  0  0  0  0  0  0
  152.7495  142.7001  159.8562 N   0  0  0  0  0  0  0  0  0  0  0  0
  152.1353  143.0693  158.5832 C   0  0  2  0  0  0  0  0  0  0  0  0
  152.4226  144.5476  158.2521 C   0  0  0  0  0  0  0  0  0  0  0  0
  150.6183  142.7247  158.5527 C   0  0  1  0  0  0  0  0  0  0  0  0
  149.7340  143.8706  159.0731 C   0  0  0  0  0  0  0  0  0  0  0  0
  150.1983  142.4755  157.1738 N   0  0  0  0  0  0  0  0  0  0  0  0
  150.1071  141.0449  156.8303 C   0  0  1  0  0  0  0  0  0  0  0  0
  149.0957  140.3371  157.7499 C   0  0  0  0  0  0  0  0  0  0  0  0
  149.7059  140.8650  155.3523 C   0  0  0  0  0  0  0  0  0  0  0  0
  150.5122  140.3601  154.5685 O   0  0  0  0  0  0  0  0  0  0  0  0
  148.4734  141.2479  154.9507 N   0  0  0  0  0  0  0  0  0  0  0  0
  147.9811  141.0540  153.5876 C   0  0  0  0  0  0  0  0  0  0  0  0
  146.4886  141.3811  153.6328 C   0  0  0  0  0  0  0  0  0  0  0  0
  146.3587  142.3466  154.8012 C   0  0  0  0  0  0  0  0  0  0  0  0
  147.4549  141.9057  155.7703 C   0  0  0  0  0  0  0  0  0  0  0  0
  152.5882  143.3118  161.0825 C   0  0  0  0  0  0  0  0  0  0  0  0
  154.5137  142.4910  163.8187 H   0  0  0  0  0  0  0  0  0  0  0  0
  152.7822  142.6849  164.0330 H   0  0  0  0  0  0  0  0  0  0  0  0
  153.7745  144.0636  163.5890 H   0  0  0  0  0  0  0  0  0  0  0  0
  154.7719  140.9450  161.4942 H   0  0  0  0  0  0  0  0  0  0  0  0
  152.6318  142.4715  157.8170 H   0  0  0  0  0  0  0  0  0  0  0  0
  152.1510  144.7884  157.2247 H   0  0  0  0  0  0  0  0  0  0  0  0
  153.4840  144.7730  158.3607 H   0  0  0  0  0  0  0  0  0  0  0  0
  151.8703  145.2212  158.9080 H   0  0  0  0  0  0  0  0  0  0  0  0
  150.4288  141.8529  159.1814 H   0  0  0  0  0  0  0  0  0  0  0  0
  149.9130  144.0669  160.1299 H   0  0  0  0  0  0  0  0  0  0  0  0
  148.6759  143.6260  158.9729 H   0  0  0  0  0  0  0  0  0  0  0  0
  149.9140  144.7966  158.5255 H   0  0  0  0  0  0  0  0  0  0  0  0
  150.8333  142.9603  156.5559 H   0  0  0  0  0  0  0  0  0  0  0  0
  151.0889  140.5958  156.9715 H   0  0  0  0  0  0  0  0  0  0  0  0
  148.9951  139.2812  157.4983 H   0  0  0  0  0  0  0  0  0  0  0  0
  148.1060  140.7894  157.6751 H   0  0  0  0  0  0  0  0  0  0  0  0
  149.4037  140.3910  158.7942 H   0  0  0  0  0  0  0  0  0  0  0  0
  148.5042  141.7404  152.9202 H   0  0  0  0  0  0  0  0  0  0  0  0
  148.1511  140.0370  153.2305 H   0  0  0  0  0  0  0  0  0  0  0  0
  146.1173  141.7969  152.6956 H   0  0  0  0  0  0  0  0  0  0  0  0
  145.9204  140.4745  153.8450 H   0  0  0  0  0  0  0  0  0  0  0  0
  146.5590  143.3627  154.4588 H   0  0  0  0  0  0  0  0  0  0  0  0
  145.3660  142.3344  155.2523 H   0  0  0  0  0  0  0  0  0  0  0  0
  147.0529  141.1899  156.4866 H   0  0  0  0  0  0  0  0  0  0  0  0
  147.8520  142.7567  156.3242 H   0  0  0  0  0  0  0  0  0  0  0  0
  151.9203  144.1501  161.2150 H   0  0  0  0  0  0  0  0  0  0  0  0
  1  2  1  0  0  0  0
  1 21  1  0  0  0  0
  1 22  1  0  0  0  0
  1 23  1  0  0  0  0
  2 20  2  0  0  0  0
  2  3  1  0  0  0  0
  3  4  2  0  0  0  0
  3 24  1  0  0  0  0
  4  5  1  0  0  0  0
  5  6  1  0  0  0  0
  5 20  1  0  0  0  0
  6  7  1  0  0  0  0
  6  8  1  0  0  0  0
  6 25  1  0  0  0  0
  7 26  1  0  0  0  0
  7 27  1  0  0  0  0
  7 28  1  0  0  0  0
  8  9  1  0  0  0  0
  8 10  1  0  0  0  0
  8 29  1  0  0  0  0
  9 30  1  0  0  0  0
  9 31  1  0  0  0  0
  9 32  1  0  0  0  0
 10 11  1  0  0  0  0
 10 33  1  0  0  0  0
 11 12  1  0  0  0  0
 11 13  1  0  0  0  0
 11 34  1  0  0  0  0
 12 35  1  0  0  0  0
 12 36  1  0  0  0  0
 12 37  1  0  0  0  0
 13 14  2  0  0  0  0
 13 15  1  0  0  0  0
 15 19  1  0  0  0  0
 15 16  1  0  0  0  0
 16 17  1  0  0  0  0
 16 38  1  0  0  0  0
 16 39  1  0  0  0  0
 17 18  1  0  0  0  0
 17 40  1  0  0  0  0
 17 41  1  0  0  0  0
 18 19  1  0  0  0  0
 18 42  1  0  0  0  0
 18 43  1  0  0  0  0
 19 44  1  0  0  0  0
 19 45  1  0  0  0  0
 20 46  1  0  0  0  0
M  END
> <s_m_source_file>
AV-unprocessed.smi

> <i_m_source_file_index>
3335

> <i_lp_mmshare_version>
43012

> <i_f3d_flags>
0

> <s_epik_input>
W0NIM11jMVtjSF1ubihbY0hdMSlbQ0BIXShbQ0gzXSlbQ0BIXShbQ0gzXSlbTkhdW0NASF0oW0NIM10pQyg9TylOMltDSDJdW0NIMl1bQ0gyXVtDSDJdMg==

> <s_epik_cmdline>
J2VwaWtfcHl0aG9uJywgJy1waCcsICc3LjAnLCAnLXRuJywgJzgnLCAnLW1hJywgJzIwMCcsICctbWV0YWxfYmluZGluZycsICctaW1hZScsICc8aW5maWxlLm1hZT4nLCAnLW9tYWUnLCAnPG91dGZpbGUubWFlPic=

> <r_lp_tautomer_probability>
1

> <r_epik_Ionization_Penalty>
0.918803

> <r_epik_Ionization_Penalty_Charging>
0

> <r_epik_Ionization_Penalty_Neutral>
0.918803

> <r_epik_State_Penalty>
0.958258

> <r_epik_Charging_Adjusted_Penalty>
0.958258

> <i_epik_Tot_Q>
0

> <i_epik_Tot_abs_Q>
0

> <r_epik_Metal_State_Penalty>
0.956786

> <b_epik_Metal_Only>
0

> <s_lp_Force_Field>
OPLS_2005

> <r_lp_Energy>
36.8756

> <b_lp_Chiralities_Consistent>
1

> <s_lp_Variant>
AV-unprocessed.smi:3335-15

> <Gold.Version>
5.8.1

> <Gold.Id.Protein>
6NUR|6NUR_protein|mol2

> <Gold.PLP.Fitness>
49.2457

> <Gold.PLP.PLP>
-48.7107

> <Gold.PLP.part.hbond>
-2.0000

> <Gold.PLP.part.metal>
0.0000

> <Gold.PLP.part.buried>
-2.9723

> <Gold.PLP.part.nonpolar>
-43.4762

> <Gold.PLP.part.repulsive>
0.0967

> <Gold.PLP.ligand.clash>
0.0000

> <Gold.PLP.ligand.torsion>
1.3392

> <Gold.PLP.Chemscore.Hbond>
1.0000

> <Gold.PLP.Chemscore.CHOScore>
0.0000

> <Gold.PLP.Chemscore.Metal>
0.0000

> <Gold.Chemscore.Hbonds>
donor molecule, donor type, donor heavy atom, donor atom, acceptor molecule, acceptor atom, score
      P1  H  7989  7998       L1    14  1.00

> <Gold.PLP.Chemscore.Internal.Correction>
0.2133

> <Gold.Rescore>
     Score         DG    S(hbond)    S(metal)    S(lipo)     H(rot)  DE(clash)    DE(int)     intcor
     15.86     -18.33       0.99        0.00     117.07       1.62       0.48       1.99       ----

> <Gold.Chemscore.Fitness>
15.8592

> <Gold.Chemscore.DG>
-18.3303

> <Gold.Chemscore.ZeroCoef>
-5.4800

> <Gold.Chemscore.Hbond>
0.9883

> <Gold.Chemscore.Metal>
0.0000

> <Gold.Chemscore.Lipo>
117.0742

> <Gold.Chemscore.Internal_Hbond>
0.0000

> <Gold.Chemscore.DEClash>
0.4771

> <Gold.Chemscore.DEInternal>
1.9941

> <Gold.Chemscore.Rot>
1.6204

> <Gold.Chemscore.Internal.Correction>
   9.000000E+99

> <Gold.Chemscore.Hbonds>
donor molecule, donor type, donor heavy atom, donor atom, acceptor molecule, acceptor atom, score
      P1  H  7989  7998       L1    14  0.97

> <Gold.Chemscore.Hbond.Weighted>
-3.3009

> <Gold.Chemscore.Metal.Weighted>
-0.0000

> <Gold.Chemscore.Lipo.Weighted>
-13.6977

> <Gold.Chemscore.Internal_Hbond.Weighted>
0.0000

> <Gold.Chemscore.DEClash.Weighted>
0.4771

> <Gold.Chemscore.DEInternal.Weighted>
1.9941

> <Gold.Chemscore.Rot.Weighted>
4.1482

> <Gold.Chemscore.Internal.Correction.Weighted>
   9.000000E+99

> <Gold.Protein.RotatedTorsions>
[ 6907 6896 6895 6894 ] final   27.74 input  -60.11 | X-H torsion
[ 7974 7965 7964 7962 ] final   18.07 input  175.53 | X-H torsion
[ 8008 7997 7996 7995 ] final  -86.92 input   59.86 | X-H torsion
[ 10167 10162 10161 10158 ] final  -47.52 input  -65.29 | X-H torsion
[ 10718 10713 10712 10709 ] final -108.31 input   66.30 | X-H torsion
[ 10763 10752 10751 10750 ] final  -76.49 input  -60.55 | X-H torsion
[ 11005 11000 10999 10996 ] final  139.05 input  -57.11 | X-H torsion

> <Gold.Protein.ActiveResidues>
 VAL166  LYS551  ARG553  GLY616  TRP617  ASP618  TYR619  PRO620  LYS621  CYS622 
 ASP623  PHE694  ASN695  SER759  ASP760  ASP761  ALA762  ILE779  LEU786  VAL792 
 PHE793  MET794  SER795  GLU796  ALA797  LYS798  CYS799  TRP800  GLU811  SER814 

> <Gold.Protein.RotatedAtoms>
  152.0066  134.9899  160.0566 H   0  0  0  0  0  0  0  0  0  0  0  0  # atno 6907 bound_to 6896
  152.1468  133.4493  159.4802 H   0  0  0  0  0  0  0  0  0  0  0  0  # atno 6908 bound_to 6896
  150.6871  134.2156  159.4419 H   0  0  0  0  0  0  0  0  0  0  0  0  # atno 6909 bound_to 6896
  146.2197  139.8510  142.8622 H   0  0  0  0  0  0  0  0  0  0  0  0  # atno 7974 bound_to 7965
  154.6574  140.0572  157.0023 H   0  0  0  0  0  0  0  0  0  0  0  0  # atno 8008 bound_to 7997
  155.1280  140.3254  155.4462 H   0  0  0  0  0  0  0  0  0  0  0  0  # atno 8009 bound_to 7997
  156.2603  140.1986  156.6400 H   0  0  0  0  0  0  0  0  0  0  0  0  # atno 8010 bound_to 7997
  140.6771  143.2781  151.3938 H   0  0  0  0  0  0  0  0  0  0  0  0  # atno 10167 bound_to 10162
  156.0479  130.5706  150.7943 H   0  0  0  0  0  0  0  0  0  0  0  0  # atno 10718 bound_to 10713
  154.5005  135.5796  153.6527 H   0  0  0  0  0  0  0  0  0  0  0  0  # atno 10763 bound_to 10752
  152.9878  135.6134  154.3009 H   0  0  0  0  0  0  0  0  0  0  0  0  # atno 10764 bound_to 10752
  154.2916  135.2848  155.2632 H   0  0  0  0  0  0  0  0  0  0  0  0  # atno 10765 bound_to 10752
  140.0227  134.9389  157.0506 H   0  0  0  0  0  0  0  0  0  0  0  0  # atno 11005 bound_to 11000
  145.2801  141.0136  143.3722 LP  0  0  0  0  0  0  0  0  0  0  0  0  # atno 17320 bound_to 7965
  144.9156  139.4474  143.6566 LP  0  0  0  0  0  0  0  0  0  0  0  0  # atno 17321 bound_to 7965
  139.6071  144.1175  152.2260 LP  0  0  0  0  0  0  0  0  0  0  0  0  # atno 17342 bound_to 10162
  140.0578  144.5881  150.7286 LP  0  0  0  0  0  0  0  0  0  0  0  0  # atno 17343 bound_to 10162
  157.5375  131.0939  150.9873 LP  0  0  0  0  0  0  0  0  0  0  0  0  # atno 17370 bound_to 10713
  157.0164  130.5656  149.5326 LP  0  0  0  0  0  0  0  0  0  0  0  0  # atno 17371 bound_to 10713
  140.4360  134.1731  155.7171 LP  0  0  0  0  0  0  0  0  0  0  0  0  # atno 17394 bound_to 11000
  141.1783  133.8467  157.1344 LP  0  0  0  0  0  0  0  0  0  0  0  0  # atno 17395 bound_to 11000

$$$$
