AV-unprocessed.smi:1166|AV-procd|sdf|4935|dock6
  -GOLD-   22720 3523D 1   1.00000     0.00000
 Structure written by MMmdl.
 47 48  0  0  0  0  0  0  0  0  2 V2000
  146.6413  132.8579  150.8096 C   0  0  0  0  0  0  0  0  0  0  0  0
  145.2566  132.9948  151.2419 N   0  0  0  0  0  0  0  0  0  0  0  0
  144.4093  131.8156  151.3824 C   0  0  0  0  0  0  0  0  0  0  0  0
  144.7564  134.2646  151.6026 C   0  0  0  0  0  0  0  0  0  0  0  0
  145.4854  135.4653  151.4229 C   0  0  0  0  0  0  0  0  0  0  0  0
  144.9215  136.6989  151.8093 C   0  0  0  0  0  0  0  0  0  0  0  0
  143.6237  136.7283  152.3783 C   0  0  0  0  0  0  0  0  0  0  0  0
  142.9483  137.9037  152.8113 N   0  0  0  0  0  0  0  0  0  0  0  0
  141.7496  138.0356  153.4063 C   0  0  0  0  0  0  0  0  0  0  0  0
  141.0006  137.1127  153.7233 O   0  0  0  0  0  0  0  0  0  0  0  0
  141.4595  139.3268  153.6206 N   0  0  0  0  0  0  0  0  0  0  0  0
  140.2336  139.8257  154.2370 C   0  0  1  0  0  0  0  0  0  0  0  0
  140.2209  141.3627  154.2544 C   0  0  0  0  0  0  0  0  0  0  0  0
  138.9018  141.8620  154.8551 C   0  0  0  0  0  0  0  0  0  0  0  0
  137.6896  141.2907  154.0984 C   0  0  0  0  0  0  0  0  0  0  0  0
  137.7468  139.8173  154.0092 N   0  0  0  0  0  0  0  0  0  0  0  0
  136.7711  138.8425  155.0709 S   0  0  0  0  0  0  0  0  0  0  0  0
  137.5352  137.1712  154.9805 C   0  0  0  0  0  0  0  0  0  0  0  0
  136.9483  139.3539  156.4387 O   0  0  0  0  0  0  0  0  0  0  0  0
  135.4211  138.7613  154.4925 O   0  0  0  0  0  0  0  0  0  0  0  0
  139.0127  139.2809  153.4706 C   0  0  0  0  0  0  0  0  0  0  0  0
  142.9408  135.5046  152.5315 C   0  0  0  0  0  0  0  0  0  0  0  0
  143.5184  134.3463  152.1474 N   0  3  0  0  0  0  0  0  0  0  0  0
  146.8149  133.4273  149.8960 H   0  0  0  0  0  0  0  0  0  0  0  0
  146.8923  131.8168  150.6059 H   0  0  0  0  0  0  0  0  0  0  0  0
  147.3219  133.2190  151.5812 H   0  0  0  0  0  0  0  0  0  0  0  0
  144.1066  131.6835  152.4217 H   0  0  0  0  0  0  0  0  0  0  0  0
  144.9317  130.9115  151.0688 H   0  0  0  0  0  0  0  0  0  0  0  0
  143.5132  131.9117  150.7685 H   0  0  0  0  0  0  0  0  0  0  0  0
  146.4754  135.4634  150.9924 H   0  0  0  0  0  0  0  0  0  0  0  0
  145.5073  137.5902  151.6552 H   0  0  0  0  0  0  0  0  0  0  0  0
  143.4366  138.7675  152.6248 H   0  0  0  0  0  0  0  0  0  0  0  0
  142.1335  140.0203  153.3309 H   0  0  0  0  0  0  0  0  0  0  0  0
  140.1851  139.4645  155.2642 H   0  0  0  0  0  0  0  0  0  0  0  0
  141.0610  141.7463  154.8346 H   0  0  0  0  0  0  0  0  0  0  0  0
  140.3347  141.7511  153.2413 H   0  0  0  0  0  0  0  0  0  0  0  0
  138.8521  141.5848  155.9073 H   0  0  0  0  0  0  0  0  0  0  0  0
  138.8721  142.9515  154.8269 H   0  0  0  0  0  0  0  0  0  0  0  0
  136.7618  141.6073  154.5739 H   0  0  0  0  0  0  0  0  0  0  0  0
  137.6691  141.6951  153.0860 H   0  0  0  0  0  0  0  0  0  0  0  0
  136.9854  136.4938  155.6336 H   0  0  0  0  0  0  0  0  0  0  0  0
  138.5710  137.2170  155.3120 H   0  0  0  0  0  0  0  0  0  0  0  0
  137.4850  136.7933  153.9610 H   0  0  0  0  0  0  0  0  0  0  0  0
  139.0806  139.5606  152.4183 H   0  0  0  0  0  0  0  0  0  0  0  0
  139.0012  138.1913  153.4974 H   0  0  0  0  0  0  0  0  0  0  0  0
  141.9491  135.4145  152.9512 H   0  0  0  0  0  0  0  0  0  0  0  0
  142.9916  133.4822  152.2763 H   0  0  0  0  0  0  0  0  0  0  0  0
  1  2  1  0  0  0  0
  1 24  1  0  0  0  0
  1 25  1  0  0  0  0
  1 26  1  0  0  0  0
  2  3  1  0  0  0  0
  2  4  1  0  0  0  0
  3 27  1  0  0  0  0
  3 28  1  0  0  0  0
  3 29  1  0  0  0  0
  4 23  1  0  0  0  0
  4  5  2  0  0  0  0
  5  6  1  0  0  0  0
  5 30  1  0  0  0  0
  6  7  2  0  0  0  0
  6 31  1  0  0  0  0
  7  8  1  0  0  0  0
  7 22  1  0  0  0  0
  8  9  1  0  0  0  0
  8 32  1  0  0  0  0
  9 10  2  0  0  0  0
  9 11  1  0  0  0  0
 11 12  1  0  0  0  0
 11 33  1  0  0  0  0
 12 21  1  0  0  0  0
 12 13  1  0  0  0  0
 12 34  1  0  0  0  0
 13 14  1  0  0  0  0
 13 35  1  0  0  0  0
 13 36  1  0  0  0  0
 14 15  1  0  0  0  0
 14 37  1  0  0  0  0
 14 38  1  0  0  0  0
 15 16  1  0  0  0  0
 15 39  1  0  0  0  0
 15 40  1  0  0  0  0
 16 17  1  0  0  0  0
 16 21  1  0  0  0  0
 17 18  1  0  0  0  0
 17 19  2  0  0  0  0
 17 20  2  0  0  0  0
 18 41  1  0  0  0  0
 18 42  1  0  0  0  0
 18 43  1  0  0  0  0
 21 44  1  0  0  0  0
 21 45  1  0  0  0  0
 22 23  2  0  0  0  0
 22 46  1  0  0  0  0
 23 47  1  0  0  0  0
M  CHG  1  23   1
M  END
> <s_m_source_file>
AV-unprocessed.smi

> <i_m_source_file_index>
1166

> <i_lp_mmshare_version>
43012

> <i_f3d_flags>
0

> <s_epik_input>
W0NIM11OKFtDSDNdKWMxW2NIXVtjSF1jKFtjSF1uMSlbTkhdQyg9TylbTkhdW0NAQEhdMltDSDJdW0NIMl1bQ0gyXU4oW0NIMl0yKVMoPU8pKD1PKVtDSDNd

> <s_epik_cmdline>
J2VwaWtfcHl0aG9uJywgJy1waCcsICc3LjAnLCAnLXRuJywgJzgnLCAnLW1hJywgJzIwMCcsICctbWV0YWxfYmluZGluZycsICctaW1hZScsICc8aW5maWxlLm1hZT4nLCAnLW9tYWUnLCAnPG91dGZpbGUubWFlPic=

> <r_lp_tautomer_probability>
0.999994

> <r_epik_Ionization_Penalty>
0.276583

> <r_epik_Ionization_Penalty_Charging>
0.276565

> <r_epik_Ionization_Penalty_Neutral>
1.87575e-05

> <r_epik_State_Penalty>
0.268949

> <r_epik_Charging_Adjusted_Penalty>
0.545513

> <i_epik_Tot_Q>
1

> <i_epik_Tot_abs_Q>
1

> <r_epik_Metal_State_Penalty>
0.551815

> <b_epik_Metal_Only>
0

> <s_lp_Force_Field>
OPLS_2005

> <r_lp_Energy>
8.45094

> <b_lp_Chiralities_Consistent>
1

> <s_lp_Variant>
AV-unprocessed.smi:1166-2

> <Gold.Version>
5.8.1

> <Gold.Id.Protein>
6NUR|6NUR_protein|mol2

> <Gold.PLP.Fitness>
42.8761

> <Gold.PLP.PLP>
-37.3322

> <Gold.PLP.part.hbond>
-3.6501

> <Gold.PLP.part.metal>
0.0000

> <Gold.PLP.part.buried>
-0.7238

> <Gold.PLP.part.nonpolar>
-32.4346

> <Gold.PLP.part.repulsive>
0.1907

> <Gold.PLP.ligand.clash>
0.0000

> <Gold.PLP.ligand.torsion>
1.2592

> <Gold.PLP.Chemscore.Hbond>
2.0000

> <Gold.PLP.Chemscore.CHOScore>
0.0000

> <Gold.PLP.Chemscore.Metal>
0.0000

> <Gold.Chemscore.Hbonds>
donor molecule, donor type, donor heavy atom, donor atom, acceptor molecule, acceptor atom, score
      L1  H     8    32       P1 10175  1.00
      L1  H    11    33       P1 10175  1.00

> <Gold.PLP.Chemscore.Internal.Correction>
2.0623

> <Gold.Rescore>
     Score         DG    S(hbond)    S(metal)    S(lipo)     H(rot)  DE(clash)    DE(int)     intcor
     12.96     -16.79       1.78        0.00      67.72       1.00       0.04       3.79       ----

> <Gold.Chemscore.Fitness>
12.9566

> <Gold.Chemscore.DG>
-16.7878

> <Gold.Chemscore.ZeroCoef>
-5.4800

> <Gold.Chemscore.Hbond>
1.7797

> <Gold.Chemscore.Metal>
0.0000

> <Gold.Chemscore.Lipo>
67.7225

> <Gold.Chemscore.Internal_Hbond>
0.0000

> <Gold.Chemscore.DEClash>
0.0402

> <Gold.Chemscore.DEInternal>
3.7910

> <Gold.Chemscore.Rot>
1.0000

> <Gold.Chemscore.Internal.Correction>
   9.000000E+99

> <Gold.Chemscore.Hbonds>
donor molecule, donor type, donor heavy atom, donor atom, acceptor molecule, acceptor atom, score
      L1  H     8    32       P1 10175  0.99
      L1  H    11    33       P1 10175  0.58

> <Gold.Chemscore.Hbond.Weighted>
-5.9443

> <Gold.Chemscore.Metal.Weighted>
-0.0000

> <Gold.Chemscore.Lipo.Weighted>
-7.9235

> <Gold.Chemscore.Internal_Hbond.Weighted>
0.0000

> <Gold.Chemscore.DEClash.Weighted>
0.0402

> <Gold.Chemscore.DEInternal.Weighted>
3.7910

> <Gold.Chemscore.Rot.Weighted>
2.5600

> <Gold.Chemscore.Internal.Correction.Weighted>
   9.000000E+99

> <Gold.Protein.RotatedTorsions>
[ 6907 6896 6895 6894 ] final -103.53 input  -60.11 | X-H torsion
[ 7974 7965 7964 7962 ] final  162.20 input  175.53 | X-H torsion
[ 8008 7997 7996 7995 ] final  -31.19 input   59.86 | X-H torsion
[ 10167 10162 10161 10158 ] final -179.38 input  -65.29 | X-H torsion
[ 10718 10713 10712 10709 ] final   50.68 input   66.30 | X-H torsion
[ 10763 10752 10751 10750 ] final  -68.75 input  -60.55 | X-H torsion
[ 11005 11000 10999 10996 ] final  -32.43 input  -57.11 | X-H torsion

> <Gold.Protein.ActiveResidues>
 VAL166  LYS551  ARG553  GLY616  TRP617  ASP618  TYR619  PRO620  LYS621  CYS622 
 ASP623  PHE694  ASN695  SER759  ASP760  ASP761  ALA762  ILE779  LEU786  VAL792 
 PHE793  MET794  SER795  GLU796  ALA797  LYS798  CYS799  TRP800  GLU811  SER814 

> <Gold.Protein.RotatedAtoms>
  150.7244  134.0416  159.3767 H   0  0  0  0  0  0  0  0  0  0  0  0  # atno 6907 bound_to 6896
  151.8389  135.0594  160.0455 H   0  0  0  0  0  0  0  0  0  0  0  0  # atno 6908 bound_to 6896
  152.2877  133.5495  159.5574 H   0  0  0  0  0  0  0  0  0  0  0  0  # atno 6909 bound_to 6896
  144.7648  139.8006  143.6319 H   0  0  0  0  0  0  0  0  0  0  0  0  # atno 7974 bound_to 7965
  154.4223  140.1771  156.1527 H   0  0  0  0  0  0  0  0  0  0  0  0  # atno 8008 bound_to 7997
  155.9902  140.3369  155.6721 H   0  0  0  0  0  0  0  0  0  0  0  0  # atno 8009 bound_to 7997
  155.6383  140.0677  157.2617 H   0  0  0  0  0  0  0  0  0  0  0  0  # atno 8010 bound_to 7997
  139.5389  144.2419  152.0853 H   0  0  0  0  0  0  0  0  0  0  0  0  # atno 10167 bound_to 10162
  157.4908  130.8375  149.8200 H   0  0  0  0  0  0  0  0  0  0  0  0  # atno 10718 bound_to 10713
  154.3936  135.6047  153.5857 H   0  0  0  0  0  0  0  0  0  0  0  0  # atno 10763 bound_to 10752
  152.9787  135.5889  154.4268 H   0  0  0  0  0  0  0  0  0  0  0  0  # atno 10764 bound_to 10752
  154.4056  135.2843  155.2047 H   0  0  0  0  0  0  0  0  0  0  0  0  # atno 10765 bound_to 10752
  140.9552  133.7197  156.1282 H   0  0  0  0  0  0  0  0  0  0  0  0  # atno 11005 bound_to 11000
  146.1745  139.4910  142.9906 LP  0  0  0  0  0  0  0  0  0  0  0  0  # atno 17320 bound_to 7965
  145.6505  141.0264  143.1763 LP  0  0  0  0  0  0  0  0  0  0  0  0  # atno 17321 bound_to 7965
  140.1894  144.4766  150.6487 LP  0  0  0  0  0  0  0  0  0  0  0  0  # atno 17342 bound_to 10162
  140.6609  143.2252  151.5858 LP  0  0  0  0  0  0  0  0  0  0  0  0  # atno 17343 bound_to 10162
  156.0172  130.3809  150.2073 LP  0  0  0  0  0  0  0  0  0  0  0  0  # atno 17370 bound_to 10713
  157.0261  130.9994  151.3325 LP  0  0  0  0  0  0  0  0  0  0  0  0  # atno 17371 bound_to 10713
  140.7547  134.4006  157.5536 LP  0  0  0  0  0  0  0  0  0  0  0  0  # atno 17394 bound_to 11000
  139.8860  134.8922  156.2611 LP  0  0  0  0  0  0  0  0  0  0  0  0  # atno 17395 bound_to 11000

$$$$
