AV-unprocessed.smi:1052|AV-procd|sdf|4616|dock3
  -GOLD-   22720 3113D 1   1.00000     0.00000
 Structure written by MMmdl.
 40 41  0  0  0  0  0  0  0  0  1 V2000
  151.3315  142.6189  157.4332 C   0  0  0  0  0  0  0  0  0  0  0  0
  150.3893  141.4456  157.1108 C   0  0  0  0  0  0  0  0  0  0  0  0
  148.9804  141.7704  157.6494 C   0  0  0  0  0  0  0  0  0  0  0  0
  150.3533  141.2398  155.5814 C   0  0  0  0  0  0  0  0  0  0  0  0
  150.9374  140.2620  157.7839 N   0  0  0  0  0  0  0  0  0  0  0  0
  151.9471  139.4663  157.3885 C   0  0  0  0  0  0  0  0  0  0  0  0
  152.5768  139.6248  156.3422 O   0  0  0  0  0  0  0  0  0  0  0  0
  152.2743  138.2908  158.3201 C   0  0  0  0  0  0  0  0  0  0  0  0
  152.9882  138.7010  159.5384 N   0  0  0  0  0  0  0  0  0  0  0  0
  153.0683  140.0696  159.7103 N   0  0  0  0  0  0  0  0  0  0  0  0
  153.6572  140.5746  160.7417 C   0  0  0  0  0  0  0  0  0  0  0  0
  153.6932  142.0722  160.8535 C   0  0  0  0  0  0  0  0  0  0  0  0
  153.0773  142.7971  162.0274 C   0  0  0  0  0  0  0  0  0  0  0  0
  152.4616  142.9259  160.6533 C   0  0  0  0  0  0  0  0  0  0  0  0
  154.2478  139.6929  161.7287 C   0  0  0  0  0  0  0  0  0  0  0  0
  154.1775  138.3480  161.5753 C   0  0  0  0  0  0  0  0  0  0  0  0
  154.7978  137.3864  162.5857 C   0  0  0  0  0  0  0  0  0  0  0  0
  153.8617  136.5939  163.1083 F   0  0  0  0  0  0  0  0  0  0  0  0
  155.7184  136.6168  162.0038 F   0  0  0  0  0  0  0  0  0  0  0  0
  155.3889  138.0381  163.5883 F   0  0  0  0  0  0  0  0  0  0  0  0
  153.5021  137.7746  160.4014 C   0  0  0  0  0  0  0  0  0  0  0  0
  153.3967  136.5638  160.2003 O   0  0  0  0  0  0  0  0  0  0  0  0
  150.9887  143.5430  156.9661 H   0  0  0  0  0  0  0  0  0  0  0  0
  152.3436  142.4267  157.0742 H   0  0  0  0  0  0  0  0  0  0  0  0
  151.3923  142.7987  158.5075 H   0  0  0  0  0  0  0  0  0  0  0  0
  148.9880  141.8919  158.7332 H   0  0  0  0  0  0  0  0  0  0  0  0
  148.2598  140.9884  157.4103 H   0  0  0  0  0  0  0  0  0  0  0  0
  148.6001  142.6973  157.2191 H   0  0  0  0  0  0  0  0  0  0  0  0
  150.0409  142.1512  155.0706 H   0  0  0  0  0  0  0  0  0  0  0  0
  149.6547  140.4566  155.2875 H   0  0  0  0  0  0  0  0  0  0  0  0
  151.3358  140.9677  155.1940 H   0  0  0  0  0  0  0  0  0  0  0  0
  150.4965  140.0229  158.6604 H   0  0  0  0  0  0  0  0  0  0  0  0
  151.3577  137.7609  158.5869 H   0  0  0  0  0  0  0  0  0  0  0  0
  152.8715  137.5724  157.7557 H   0  0  0  0  0  0  0  0  0  0  0  0
  154.6317  142.4642  160.4657 H   0  0  0  0  0  0  0  0  0  0  0  0
  152.5354  142.2078  162.7649 H   0  0  0  0  0  0  0  0  0  0  0  0
  153.6124  143.6587  162.4213 H   0  0  0  0  0  0  0  0  0  0  0  0
  152.5875  143.8738  160.1338 H   0  0  0  0  0  0  0  0  0  0  0  0
  151.5079  142.4281  160.4883 H   0  0  0  0  0  0  0  0  0  0  0  0
  154.7406  140.1323  162.5830 H   0  0  0  0  0  0  0  0  0  0  0  0
  1  2  1  0  0  0  0
  1 23  1  0  0  0  0
  1 24  1  0  0  0  0
  1 25  1  0  0  0  0
  2  3  1  0  0  0  0
  2  4  1  0  0  0  0
  2  5  1  0  0  0  0
  3 26  1  0  0  0  0
  3 27  1  0  0  0  0
  3 28  1  0  0  0  0
  4 29  1  0  0  0  0
  4 30  1  0  0  0  0
  4 31  1  0  0  0  0
  5  6  1  0  0  0  0
  5 32  1  0  0  0  0
  6  7  2  0  0  0  0
  6  8  1  0  0  0  0
  8  9  1  0  0  0  0
  8 33  1  0  0  0  0
  8 34  1  0  0  0  0
  9 21  1  0  0  0  0
  9 10  1  0  0  0  0
 10 11  2  0  0  0  0
 11 12  1  0  0  0  0
 11 15  1  0  0  0  0
 12 14  1  0  0  0  0
 12 13  1  0  0  0  0
 12 35  1  0  0  0  0
 13 14  1  0  0  0  0
 13 36  1  0  0  0  0
 13 37  1  0  0  0  0
 14 38  1  0  0  0  0
 14 39  1  0  0  0  0
 15 16  2  0  0  0  0
 15 40  1  0  0  0  0
 16 17  1  0  0  0  0
 16 21  1  0  0  0  0
 17 18  1  0  0  0  0
 17 19  1  0  0  0  0
 17 20  1  0  0  0  0
 21 22  2  0  0  0  0
M  END
> <s_m_source_file>
AV-unprocessed.smi

> <i_m_source_file_index>
1052

> <i_lp_mmshare_version>
43012

> <i_f3d_flags>
0

> <s_epik_input>
W0NIM11DKFtDSDNdKShbQ0gzXSlbTkhdQyg9TylbQ0gyXW4xbmMoW0NIXTJbQ0gyXVtDSDJdMilbY0hdYyhDKEYpKEYpRiljMT1P

> <s_epik_cmdline>
J2VwaWtfcHl0aG9uJywgJy1waCcsICc3LjAnLCAnLXRuJywgJzgnLCAnLW1hJywgJzIwMCcsICctbWV0YWxfYmluZGluZycsICctaW1hZScsICc8aW5maWxlLm1hZT4nLCAnLW9tYWUnLCAnPG91dGZpbGUubWFlPic=

> <r_lp_tautomer_probability>
1

> <r_epik_Ionization_Penalty>
2.47799e-08

> <r_epik_Ionization_Penalty_Charging>
1.49243e-10

> <r_epik_Ionization_Penalty_Neutral>
2.46307e-08

> <r_epik_State_Penalty>
-0

> <r_epik_Charging_Adjusted_Penalty>
1.49243e-10

> <i_epik_Tot_Q>
0

> <i_epik_Tot_abs_Q>
0

> <r_epik_Metal_State_Penalty>
-0

> <b_epik_Metal_Only>
0

> <s_lp_Force_Field>
OPLS_2005

> <r_lp_Energy>
24.0208

> <b_lp_Chiralities_Consistent>
1

> <s_lp_Variant>
AV-unprocessed.smi:1052-1

> <Gold.Version>
5.8.1

> <Gold.Id.Protein>
6NUR|6NUR_protein|mol2

> <Gold.PLP.Fitness>
46.5025

> <Gold.PLP.PLP>
-41.9166

> <Gold.PLP.part.hbond>
-1.9480

> <Gold.PLP.part.metal>
0.0000

> <Gold.PLP.part.buried>
-5.9107

> <Gold.PLP.part.nonpolar>
-33.1653

> <Gold.PLP.part.repulsive>
0.0821

> <Gold.PLP.ligand.clash>
0.4243

> <Gold.PLP.ligand.torsion>
0.7974

> <Gold.PLP.Chemscore.Hbond>
1.9913

> <Gold.PLP.Chemscore.CHOScore>
0.0000

> <Gold.PLP.Chemscore.Metal>
0.0000

> <Gold.Chemscore.Hbonds>
donor molecule, donor type, donor heavy atom, donor atom, acceptor molecule, acceptor atom, score
      P1  H  6896  6909       L1    22  1.00
      P1  H  7997  8010       L1     7  1.00

> <Gold.PLP.Chemscore.Internal.Correction>
0.6314

> <Gold.Rescore>
     Score         DG    S(hbond)    S(metal)    S(lipo)     H(rot)  DE(clash)    DE(int)     intcor
     14.22     -18.81       1.99        0.00      93.98       1.69       0.07       4.51       ----

> <Gold.Chemscore.Fitness>
14.2204

> <Gold.Chemscore.DG>
-18.8099

> <Gold.Chemscore.ZeroCoef>
-5.4800

> <Gold.Chemscore.Hbond>
1.9946

> <Gold.Chemscore.Metal>
0.0000

> <Gold.Chemscore.Lipo>
93.9758

> <Gold.Chemscore.Internal_Hbond>
0.0000

> <Gold.Chemscore.DEClash>
0.0748

> <Gold.Chemscore.DEInternal>
4.5147

> <Gold.Chemscore.Rot>
1.6903

> <Gold.Chemscore.Internal.Correction>
   9.000000E+99

> <Gold.Chemscore.Hbonds>
donor molecule, donor type, donor heavy atom, donor atom, acceptor molecule, acceptor atom, score
      P1  H  6896  6909       L1    22  0.94
      P1  H  7997  8010       L1     7  0.97

> <Gold.Chemscore.Hbond.Weighted>
-6.6619

> <Gold.Chemscore.Metal.Weighted>
-0.0000

> <Gold.Chemscore.Lipo.Weighted>
-10.9952

> <Gold.Chemscore.Internal_Hbond.Weighted>
0.0000

> <Gold.Chemscore.DEClash.Weighted>
0.0748

> <Gold.Chemscore.DEInternal.Weighted>
4.5147

> <Gold.Chemscore.Rot.Weighted>
4.3272

> <Gold.Chemscore.Internal.Correction.Weighted>
   9.000000E+99

> <Gold.Protein.RotatedTorsions>
[ 6907 6896 6895 6894 ] final  160.51 input  -60.11 | X-H torsion
[ 7974 7965 7964 7962 ] final  -88.28 input  175.53 | X-H torsion
[ 8008 7997 7996 7995 ] final   72.21 input   59.86 | X-H torsion
[ 10167 10162 10161 10158 ] final -120.23 input  -65.29 | X-H torsion
[ 10718 10713 10712 10709 ] final   76.33 input   66.30 | X-H torsion
[ 10763 10752 10751 10750 ] final  -10.73 input  -60.55 | X-H torsion
[ 11005 11000 10999 10996 ] final  -53.91 input  -57.11 | X-H torsion

> <Gold.Protein.ActiveResidues>
 VAL166  LYS551  ARG553  GLY616  TRP617  ASP618  TYR619  PRO620  LYS621  CYS622 
 ASP623  PHE694  ASN695  SER759  ASP760  ASP761  ALA762  ILE779  LEU786  VAL792 
 PHE793  MET794  SER795  GLU796  ALA797  LYS798  CYS799  TRP800  GLU811  SER814 

> <Gold.Protein.RotatedAtoms>
  151.9695  133.3721  159.4065 H   0  0  0  0  0  0  0  0  0  0  0  0  # atno 6907 bound_to 6896
  150.6951  134.4155  159.5190 H   0  0  0  0  0  0  0  0  0  0  0  0  # atno 6908 bound_to 6896
  152.1857  134.8716  160.0573 H   0  0  0  0  0  0  0  0  0  0  0  0  # atno 6909 bound_to 6896
  145.4553  140.9561  143.2000 H   0  0  0  0  0  0  0  0  0  0  0  0  # atno 7974 bound_to 7965
  155.7654  140.3485  155.5219 H   0  0  0  0  0  0  0  0  0  0  0  0  # atno 8008 bound_to 7997
  155.8873  140.1012  157.1464 H   0  0  0  0  0  0  0  0  0  0  0  0  # atno 8009 bound_to 7997
  154.4030  140.1311  156.4259 H   0  0  0  0  0  0  0  0  0  0  0  0  # atno 8010 bound_to 7997
  140.0381  143.5181  152.2144 H   0  0  0  0  0  0  0  0  0  0  0  0  # atno 10167 bound_to 10162
  157.6669  130.9769  150.1481 H   0  0  0  0  0  0  0  0  0  0  0  0  # atno 10718 bound_to 10713
  153.4734  135.7017  153.5980 H   0  0  0  0  0  0  0  0  0  0  0  0  # atno 10763 bound_to 10752
  153.4224  135.3822  155.2119 H   0  0  0  0  0  0  0  0  0  0  0  0  # atno 10764 bound_to 10752
  154.8724  135.3931  154.4175 H   0  0  0  0  0  0  0  0  0  0  0  0  # atno 10765 bound_to 10752
  141.1000  133.6619  156.4242 H   0  0  0  0  0  0  0  0  0  0  0  0  # atno 11005 bound_to 11000
  144.8036  139.6093  143.7061 LP  0  0  0  0  0  0  0  0  0  0  0  0  # atno 17320 bound_to 7965
  146.2481  139.6142  142.9445 LP  0  0  0  0  0  0  0  0  0  0  0  0  # atno 17321 bound_to 7965
  139.6032  144.7589  151.3123 LP  0  0  0  0  0  0  0  0  0  0  0  0  # atno 17342 bound_to 10162
  140.7272  143.6968  150.7877 LP  0  0  0  0  0  0  0  0  0  0  0  0  # atno 17343 bound_to 10162
  156.2287  130.3680  149.8470 LP  0  0  0  0  0  0  0  0  0  0  0  0  # atno 17370 bound_to 10713
  156.6303  130.8663  151.3494 LP  0  0  0  0  0  0  0  0  0  0  0  0  # atno 17371 bound_to 10713
  140.5046  134.6453  157.5262 LP  0  0  0  0  0  0  0  0  0  0  0  0  # atno 17394 bound_to 11000
  139.9848  134.7079  155.9794 LP  0  0  0  0  0  0  0  0  0  0  0  0  # atno 17395 bound_to 11000

$$$$
