AV-unprocessed.smi:1044|AV-procd|sdf|4542|dock1
  -GOLD-   22720 2563D 1   1.00000     0.00000
 Structure written by MMmdl.
 45 46  0  0  0  0  0  0  0  0  1 V2000
  145.2239  133.5494  150.6838 C   0  0  0  0  0  0  0  0  0  0  0  0
  145.9073  132.4396  151.4859 C   0  0  0  0  0  0  0  0  0  0  0  0
  146.9246  133.0235  152.2943 O   0  0  0  0  0  0  0  0  0  0  0  0
  147.7024  132.1974  153.0832 C   0  0  0  0  0  0  0  0  0  0  0  0
  147.4668  130.8618  153.0483 N   0  0  0  0  0  0  0  0  0  0  0  0
  148.2231  130.0550  153.8208 C   0  0  0  0  0  0  0  0  0  0  0  0
  149.2407  130.5315  154.6674 C   0  0  0  0  0  0  0  0  0  0  0  0
  149.4872  131.9162  154.7053 C   0  0  0  0  0  0  0  0  0  0  0  0
  148.7122  132.7742  153.8880 C   0  0  0  0  0  0  0  0  0  0  0  0
  148.8663  134.1875  153.8697 N   0  0  0  0  0  0  0  0  0  0  0  0
  149.4652  134.9701  154.7828 C   0  0  0  0  0  0  0  0  0  0  0  0
  150.0173  134.5683  155.8070 O   0  0  0  0  0  0  0  0  0  0  0  0
  149.4080  136.2605  154.4237 N   0  0  0  0  0  0  0  0  0  0  0  0
  149.9880  137.3803  155.1601 C   0  0  2  0  0  0  0  0  0  0  0  0
  149.8674  138.6701  154.3391 C   0  0  0  0  0  0  0  0  0  0  0  0
  150.5234  139.8198  155.1087 C   0  0  0  0  0  0  0  0  0  0  0  0
  151.9878  139.5014  155.4544 C   0  0  0  0  0  0  0  0  0  0  0  0
  152.1090  138.2149  156.1706 N   0  0  0  0  0  0  0  0  0  0  0  0
  153.5906  137.8973  157.0141 S   0  0  0  0  0  0  0  0  0  0  0  0
  153.2693  136.2795  157.8308 C   0  0  0  0  0  0  0  0  0  0  0  0
  154.6517  137.7289  156.0095 O   0  0  0  0  0  0  0  0  0  0  0  0
  153.7349  138.9089  158.0723 O   0  0  0  0  0  0  0  0  0  0  0  0
  151.4611  137.0779  155.4877 C   0  0  0  0  0  0  0  0  0  0  0  0
  144.4319  133.1431  150.0545 H   0  0  0  0  0  0  0  0  0  0  0  0
  145.9372  134.0602  150.0363 H   0  0  0  0  0  0  0  0  0  0  0  0
  144.7782  134.2929  151.3451 H   0  0  0  0  0  0  0  0  0  0  0  0
  145.1703  131.9304  152.1091 H   0  0  0  0  0  0  0  0  0  0  0  0
  146.3363  131.7062  150.8014 H   0  0  0  0  0  0  0  0  0  0  0  0
  148.0053  128.9987  153.7678 H   0  0  0  0  0  0  0  0  0  0  0  0
  149.8154  129.8512  155.2783 H   0  0  0  0  0  0  0  0  0  0  0  0
  150.2508  132.2937  155.3677 H   0  0  0  0  0  0  0  0  0  0  0  0
  148.5458  134.6458  153.0291 H   0  0  0  0  0  0  0  0  0  0  0  0
  148.9336  136.4877  153.5619 H   0  0  0  0  0  0  0  0  0  0  0  0
  149.4578  137.5276  156.1030 H   0  0  0  0  0  0  0  0  0  0  0  0
  150.3509  138.5502  153.3684 H   0  0  0  0  0  0  0  0  0  0  0  0
  148.8193  138.9008  154.1449 H   0  0  0  0  0  0  0  0  0  0  0  0
  150.4717  140.7377  154.5228 H   0  0  0  0  0  0  0  0  0  0  0  0
  149.9662  140.0095  156.0273 H   0  0  0  0  0  0  0  0  0  0  0  0
  152.5931  139.4594  154.5481 H   0  0  0  0  0  0  0  0  0  0  0  0
  152.3902  140.3074  156.0676 H   0  0  0  0  0  0  0  0  0  0  0  0
  154.1206  136.0202  158.4595 H   0  0  0  0  0  0  0  0  0  0  0  0
  153.1315  135.5005  157.0826 H   0  0  0  0  0  0  0  0  0  0  0  0
  152.3748  136.3549  158.4487 H   0  0  0  0  0  0  0  0  0  0  0  0
  151.5177  136.1909  156.1173 H   0  0  0  0  0  0  0  0  0  0  0  0
  152.0186  136.8519  154.5777 H   0  0  0  0  0  0  0  0  0  0  0  0
  1  2  1  0  0  0  0
  1 24  1  0  0  0  0
  1 25  1  0  0  0  0
  1 26  1  0  0  0  0
  2  3  1  0  0  0  0
  2 27  1  0  0  0  0
  2 28  1  0  0  0  0
  3  4  1  0  0  0  0
  4  9  1  0  0  0  0
  4  5  2  0  0  0  0
  5  6  1  0  0  0  0
  6  7  2  0  0  0  0
  6 29  1  0  0  0  0
  7  8  1  0  0  0  0
  7 30  1  0  0  0  0
  8  9  2  0  0  0  0
  8 31  1  0  0  0  0
  9 10  1  0  0  0  0
 10 11  1  0  0  0  0
 10 32  1  0  0  0  0
 11 12  2  0  0  0  0
 11 13  1  0  0  0  0
 13 14  1  0  0  0  0
 13 33  1  0  0  0  0
 14 23  1  0  0  0  0
 14 15  1  0  0  0  0
 14 34  1  0  0  0  0
 15 16  1  0  0  0  0
 15 35  1  0  0  0  0
 15 36  1  0  0  0  0
 16 17  1  0  0  0  0
 16 37  1  0  0  0  0
 16 38  1  0  0  0  0
 17 18  1  0  0  0  0
 17 39  1  0  0  0  0
 17 40  1  0  0  0  0
 18 19  1  0  0  0  0
 18 23  1  0  0  0  0
 19 20  1  0  0  0  0
 19 21  2  0  0  0  0
 19 22  2  0  0  0  0
 20 41  1  0  0  0  0
 20 42  1  0  0  0  0
 20 43  1  0  0  0  0
 23 44  1  0  0  0  0
 23 45  1  0  0  0  0
M  END
> <s_m_source_file>
AV-unprocessed.smi

> <i_m_source_file_index>
1044

> <i_lp_mmshare_version>
43012

> <i_f3d_flags>
0

> <s_epik_input>
W0NIM11bQ0gyXU9jMW5bY0hdW2NIXVtjSF1jMVtOSF1DKD1PKVtOSF1bQ0BASF0yW0NIMl1bQ0gyXVtDSDJdTihbQ0gyXTIpUyg9TykoPU8pW0NIM10=

> <s_epik_cmdline>
J2VwaWtfcHl0aG9uJywgJy1waCcsICc3LjAnLCAnLXRuJywgJzgnLCAnLW1hJywgJzIwMCcsICctbWV0YWxfYmluZGluZycsICctaW1hZScsICc8aW5maWxlLm1hZT4nLCAnLW9tYWUnLCAnPG91dGZpbGUubWFlPic=

> <r_lp_tautomer_probability>
1

> <r_epik_Ionization_Penalty>
0.000106941

> <r_epik_Ionization_Penalty_Charging>
0

> <r_epik_Ionization_Penalty_Neutral>
0.000106941

> <r_epik_State_Penalty>
-0

> <r_epik_Charging_Adjusted_Penalty>
0

> <i_epik_Tot_Q>
0

> <i_epik_Tot_abs_Q>
0

> <r_epik_Metal_State_Penalty>
-0

> <b_epik_Metal_Only>
0

> <s_lp_Force_Field>
OPLS_2005

> <r_lp_Energy>
2.99573

> <b_lp_Chiralities_Consistent>
1

> <s_lp_Variant>
AV-unprocessed.smi:1044-1

> <Gold.Version>
5.8.1

> <Gold.Id.Protein>
6NUR|6NUR_protein|mol2

> <Gold.PLP.Fitness>
42.5886

> <Gold.PLP.PLP>
-35.0583

> <Gold.PLP.part.hbond>
-4.8004

> <Gold.PLP.part.metal>
0.0000

> <Gold.PLP.part.buried>
-1.3125

> <Gold.PLP.part.nonpolar>
-28.5265

> <Gold.PLP.part.repulsive>
1.0538

> <Gold.PLP.ligand.clash>
0.0000

> <Gold.PLP.ligand.torsion>
0.5864

> <Gold.PLP.Chemscore.Hbond>
2.6320

> <Gold.PLP.Chemscore.CHOScore>
0.0000

> <Gold.PLP.Chemscore.Metal>
0.0000

> <Gold.Chemscore.Hbonds>
donor molecule, donor type, donor heavy atom, donor atom, acceptor molecule, acceptor atom, score
      L1  H    10    32       P1  7948  0.82
      L1  H    13    33       P1  7948  0.85
      P1  H  7997  8009       L1    22  0.95

> <Gold.PLP.Chemscore.Internal.Correction>
0.8072

> <Gold.Rescore>
     Score         DG    S(hbond)    S(metal)    S(lipo)     H(rot)  DE(clash)    DE(int)     intcor
     14.56     -17.70       2.72        0.00      65.55       1.77       0.12       3.03       ----

> <Gold.Chemscore.Fitness>
14.5572

> <Gold.Chemscore.DG>
-17.6997

> <Gold.Chemscore.ZeroCoef>
-5.4800

> <Gold.Chemscore.Hbond>
2.7199

> <Gold.Chemscore.Metal>
0.0000

> <Gold.Chemscore.Lipo>
65.5499

> <Gold.Chemscore.Internal_Hbond>
0.0000

> <Gold.Chemscore.DEClash>
0.1171

> <Gold.Chemscore.DEInternal>
3.0254

> <Gold.Chemscore.Rot>
1.7711

> <Gold.Chemscore.Internal.Correction>
   9.000000E+99

> <Gold.Chemscore.Hbonds>
donor molecule, donor type, donor heavy atom, donor atom, acceptor molecule, acceptor atom, score
      L1  H    10    32       P1  7948  0.28
      L1  H    13    33       P1  7948  0.83
      P1  H  7997  8009       L1    22  0.21

> <Gold.Chemscore.Hbond.Weighted>
-9.0844

> <Gold.Chemscore.Metal.Weighted>
-0.0000

> <Gold.Chemscore.Lipo.Weighted>
-7.6693

> <Gold.Chemscore.Internal_Hbond.Weighted>
0.0000

> <Gold.Chemscore.DEClash.Weighted>
0.1171

> <Gold.Chemscore.DEInternal.Weighted>
3.0254

> <Gold.Chemscore.Rot.Weighted>
4.5340

> <Gold.Chemscore.Internal.Correction.Weighted>
   9.000000E+99

> <Gold.Protein.RotatedTorsions>
[ 6907 6896 6895 6894 ] final   76.82 input  -60.11 | X-H torsion
[ 7974 7965 7964 7962 ] final   86.40 input  175.53 | X-H torsion
[ 8008 7997 7996 7995 ] final  128.77 input   59.86 | X-H torsion
[ 10167 10162 10161 10158 ] final  -92.52 input  -65.29 | X-H torsion
[ 10718 10713 10712 10709 ] final  -61.71 input   66.30 | X-H torsion
[ 10763 10752 10751 10750 ] final   65.79 input  -60.55 | X-H torsion
[ 11005 11000 10999 10996 ] final  169.47 input  -57.11 | X-H torsion

> <Gold.Protein.ActiveResidues>
 VAL166  LYS551  ARG553  GLY616  TRP617  ASP618  TYR619  PRO620  LYS621  CYS622 
 ASP623  PHE694  ASN695  SER759  ASP760  ASP761  ALA762  ILE779  LEU786  VAL792 
 PHE793  MET794  SER795  GLU796  ALA797  LYS798  CYS799  TRP800  GLU811  SER814 

> <Gold.Protein.RotatedAtoms>
  152.5090  134.3910  159.9383 H   0  0  0  0  0  0  0  0  0  0  0  0  # atno 6907 bound_to 6896
  151.3870  133.3795  159.2724 H   0  0  0  0  0  0  0  0  0  0  0  0  # atno 6908 bound_to 6896
  150.9461  134.8886  159.7701 H   0  0  0  0  0  0  0  0  0  0  0  0  # atno 6909 bound_to 6896
  145.5727  139.2315  143.2397 H   0  0  0  0  0  0  0  0  0  0  0  0  # atno 7974 bound_to 7965
  156.2922  140.2636  156.2491 H   0  0  0  0  0  0  0  0  0  0  0  0  # atno 8008 bound_to 7997
  154.9901  140.0389  157.2334 H   0  0  0  0  0  0  0  0  0  0  0  0  # atno 8009 bound_to 7997
  154.7694  140.2775  155.6155 H   0  0  0  0  0  0  0  0  0  0  0  0  # atno 8010 bound_to 7997
  140.3339  143.2979  151.9911 H   0  0  0  0  0  0  0  0  0  0  0  0  # atno 10167 bound_to 10162
  156.0903  130.4201  150.1032 H   0  0  0  0  0  0  0  0  0  0  0  0  # atno 10718 bound_to 10713
  153.0112  135.5344  154.6723 H   0  0  0  0  0  0  0  0  0  0  0  0  # atno 10763 bound_to 10752
  154.5904  135.2858  155.0643 H   0  0  0  0  0  0  0  0  0  0  0  0  # atno 10764 bound_to 10752
  154.1738  135.6527  153.5069 H   0  0  0  0  0  0  0  0  0  0  0  0  # atno 10765 bound_to 10752
  140.2981  134.7618  157.3894 H   0  0  0  0  0  0  0  0  0  0  0  0  # atno 11005 bound_to 11000
  146.1773  140.6553  142.9205 LP  0  0  0  0  0  0  0  0  0  0  0  0  # atno 17320 bound_to 7965
  144.7430  140.4993  143.6855 LP  0  0  0  0  0  0  0  0  0  0  0  0  # atno 17321 bound_to 7965
  139.4851  144.6212  151.7251 LP  0  0  0  0  0  0  0  0  0  0  0  0  # atno 17342 bound_to 10162
  140.5371  144.0638  150.6074 LP  0  0  0  0  0  0  0  0  0  0  0  0  # atno 17343 bound_to 10162
  156.9044  130.9631  151.3572 LP  0  0  0  0  0  0  0  0  0  0  0  0  # atno 17370 bound_to 10713
  157.6051  130.8541  149.8862 LP  0  0  0  0  0  0  0  0  0  0  0  0  # atno 17371 bound_to 10713
  140.1134  134.5315  155.8246 LP  0  0  0  0  0  0  0  0  0  0  0  0  # atno 17394 bound_to 11000
  141.2133  133.6732  156.6731 LP  0  0  0  0  0  0  0  0  0  0  0  0  # atno 17395 bound_to 11000

$$$$
