AV-unprocessed.smi:157|AV-procd|sdf|1298|dock6
  -GOLD-   2262018583D 1   1.00000     0.00000
 Structure written by MMmdl.
 35 37  0  0  0  0  0  0  0  0  1 V2000
  149.5166  138.6862  153.2360 O   0  0  0  0  0  0  0  0  0  0  0  0
  149.8554  139.4310  154.3870 C   0  0  0  0  0  0  0  0  0  0  0  0
  148.5880  139.9452  155.1016 C   0  0  2  0  0  0  0  0  0  0  0  0
  147.5406  139.0098  154.8376 O   0  0  0  0  0  0  0  0  0  0  0  0
  146.5888  139.5597  153.9732 C   0  0  2  0  0  0  0  0  0  0  0  0
  146.3417  138.6020  152.8493 N   0  0  0  0  0  0  0  0  0  0  0  0
  146.7975  138.7095  151.5938 C   0  0  0  0  0  0  0  0  0  0  0  0
  146.4211  137.7321  150.7870 N   0  0  0  0  0  0  0  0  0  0  0  0
  145.6442  136.9073  151.5983 C   0  0  0  0  0  0  0  0  0  0  0  0
  145.5821  137.4293  152.8824 C   0  0  0  0  0  0  0  0  0  0  0  0
  144.9719  137.0785  154.0715 N   0  0  0  0  0  0  0  0  0  0  0  0
  144.5718  135.8541  154.2118 C   0  0  0  0  0  0  0  0  0  0  0  0
  144.5660  134.8040  153.3048 N   0  0  0  0  0  0  0  0  0  0  0  0
  144.0590  134.9244  151.9484 C   0  0  0  0  0  0  0  0  0  0  0  0
  145.0004  135.6863  151.0076 C   0  0  2  0  0  0  0  0  0  0  0  0
  146.0441  134.8277  150.5958 O   0  0  0  0  0  0  0  0  0  0  0  0
  147.1668  140.8658  153.4360 C   0  0  0  0  0  0  0  0  0  0  0  0
  148.0297  141.2897  154.6029 C   0  0  2  0  0  0  0  0  0  0  0  0
  149.0087  142.2315  154.2133 O   0  0  0  0  0  0  0  0  0  0  0  0
  148.7639  139.9750  156.1778 H   0  0  0  0  0  0  0  0  0  0  0  0
  145.6363  139.6754  154.4917 H   0  0  0  0  0  0  0  0  0  0  0  0
  144.4442  135.9591  150.1101 H   0  0  0  0  0  0  0  0  0  0  0  0
  147.4003  141.7310  155.3772 H   0  0  0  0  0  0  0  0  0  0  0  0
  149.7124  139.2074  152.4722 H   0  0  0  0  0  0  0  0  0  0  0  0
  150.4786  138.8324  155.0513 H   0  0  0  0  0  0  0  0  0  0  0  0
  150.4617  140.2757  154.0588 H   0  0  0  0  0  0  0  0  0  0  0  0
  147.4175  139.5274  151.2583 H   0  0  0  0  0  0  0  0  0  0  0  0
  144.1591  135.5516  155.1752 H   0  0  0  0  0  0  0  0  0  0  0  0
  144.4473  133.8649  153.6567 H   0  0  0  0  0  0  0  0  0  0  0  0
  143.8275  133.9364  151.5495 H   0  0  0  0  0  0  0  0  0  0  0  0
  143.1099  135.4594  152.0046 H   0  0  0  0  0  0  0  0  0  0  0  0
  146.1118  134.8770  149.6542 H   0  0  0  0  0  0  0  0  0  0  0  0
  147.7711  140.6681  152.5486 H   0  0  0  0  0  0  0  0  0  0  0  0
  146.3781  141.5752  153.1833 H   0  0  0  0  0  0  0  0  0  0  0  0
  148.8671  143.0296  154.6994 H   0  0  0  0  0  0  0  0  0  0  0  0
  1  2  1  0  0  0  0
  1 24  1  0  0  0  0
  2  3  1  0  0  0  0
  2 25  1  0  0  0  0
  2 26  1  0  0  0  0
  3 20  1  0  0  0  0
  3 18  1  0  0  0  0
  3  4  1  0  0  0  0
  4  5  1  0  0  0  0
  5 21  1  0  0  0  0
  5  6  1  0  0  0  0
  5 17  1  0  0  0  0
  6 10  1  0  0  0  0
  6  7  1  0  0  0  0
  7  8  2  0  0  0  0
  7 27  1  0  0  0  0
  8  9  1  0  0  0  0
  9 15  1  0  0  0  0
  9 10  2  0  0  0  0
 10 11  1  0  0  0  0
 11 12  2  0  0  0  0
 12 13  1  0  0  0  0
 12 28  1  0  0  0  0
 13 14  1  0  0  0  0
 13 29  1  0  0  0  0
 14 15  1  0  0  0  0
 14 30  1  0  0  0  0
 14 31  1  0  0  0  0
 15 22  1  0  0  0  0
 15 16  1  0  0  0  0
 16 32  1  0  0  0  0
 17 18  1  0  0  0  0
 17 33  1  0  0  0  0
 17 34  1  0  0  0  0
 18 23  1  0  0  0  0
 18 19  1  0  0  0  0
 19 35  1  0  0  0  0
M  END
> <s_m_source_file>
AV-unprocessed.smi

> <i_m_source_file_index>
157

> <i_lp_mmshare_version>
43012

> <i_f3d_flags>
0

> <s_epik_input>
W09IXVtDSDJdW0NASF0xT1tDQEhdKFtDSDJdW0NAQEhdMVtPSF0pbihbY0hdbjIpYyhjMjMpTj1bQ0hdW05IXVtDSDJdW0NASF0zW09IXQ==

> <s_epik_cmdline>
J2VwaWtfcHl0aG9uJywgJy1waCcsICc3LjAnLCAnLXRuJywgJzgnLCAnLW1hJywgJzIwMCcsICctbWV0YWxfYmluZGluZycsICctaW1hZScsICc8aW5maWxlLm1hZT4nLCAnLW9tYWUnLCAnPG91dGZpbGUubWFlPic=

> <r_lp_tautomer_probability>
1

> <r_epik_Ionization_Penalty>
0.0357149

> <r_epik_Ionization_Penalty_Charging>
0.0355056

> <r_epik_Ionization_Penalty_Neutral>
0.000209255

> <r_epik_State_Penalty>
0.0296046

> <r_epik_Charging_Adjusted_Penalty>
0.0651102

> <i_epik_Tot_Q>
0

> <i_epik_Tot_abs_Q>
0

> <r_epik_Metal_State_Penalty>
3.03559e-05

> <b_epik_Metal_Only>
0

> <s_epik_Chemistry_Notes>
This compound has an imine and may undergo hydrolysis. This compound contains an acetal/aminal-like group ( X-CH(R)-Y where X, Y are N, S, or O) that may be acid/base labile, releasing an aldehyde.

> <s_lp_Force_Field>
OPLS_2005

> <r_lp_Energy>
46.5194

> <b_lp_Chiralities_Consistent>
1

> <s_lp_Variant>
AV-unprocessed.smi:157-8

> <Gold.Version>
5.8.1

> <Gold.Id.Protein>
6NUR|6NUR_protein|mol2

> <Gold.PLP.Fitness>
40.3346

> <Gold.PLP.PLP>
-27.4809

> <Gold.PLP.part.hbond>
-5.7606

> <Gold.PLP.part.metal>
0.0000

> <Gold.PLP.part.buried>
-0.0719

> <Gold.PLP.part.nonpolar>
-23.9832

> <Gold.PLP.part.repulsive>
2.4949

> <Gold.PLP.ligand.clash>
0.0000

> <Gold.PLP.ligand.torsion>
0.7201

> <Gold.PLP.Chemscore.Hbond>
3.7608

> <Gold.PLP.Chemscore.CHOScore>
1.0000

> <Gold.PLP.Chemscore.Metal>
0.0000

> <Gold.Chemscore.Hbonds>
donor molecule, donor type, donor heavy atom, donor atom, acceptor molecule, acceptor atom, score
      L1  H     1    24       P1  7957  1.00
      L1  H    16    32       P1  7921  1.00
      L1  H    19    35       P1  8028  1.00
      P1  H  7954  7966       L1     8  0.45
      P1  H  8011  8017       L1    19  0.27
      L1  C     7    27       P1  7957  1.00

> <Gold.PLP.Chemscore.Internal.Correction>
0.0117

> <Gold.Rescore>
     Score         DG    S(hbond)    S(metal)    S(lipo)     H(rot)  DE(clash)    DE(int)     intcor
      8.36     -10.59       2.88        0.00      40.89       3.64       1.40       0.83       ----

> <Gold.Chemscore.Fitness>
8.3637

> <Gold.Chemscore.DG>
-10.5881

> <Gold.Chemscore.ZeroCoef>
-5.4800

> <Gold.Chemscore.Hbond>
2.8841

> <Gold.Chemscore.Metal>
0.0000

> <Gold.Chemscore.Lipo>
40.8892

> <Gold.Chemscore.Internal_Hbond>
0.0000

> <Gold.Chemscore.DEClash>
1.3956

> <Gold.Chemscore.DEInternal>
0.8288

> <Gold.Chemscore.Rot>
3.6362

> <Gold.Chemscore.Internal.Correction>
   9.000000E+99

> <Gold.Chemscore.Hbonds>
donor molecule, donor type, donor heavy atom, donor atom, acceptor molecule, acceptor atom, score
      L1  H     1    24       P1  7957  0.87
      L1  H    16    32       P1  7921  0.58
      L1  H    19    35       P1  8028  1.00
      P1  H  7954  7966       L1     8  0.02
      P1  H  8011  8017       L1    19  0.22

> <Gold.Chemscore.Hbond.Weighted>
-9.6328

> <Gold.Chemscore.Metal.Weighted>
-0.0000

> <Gold.Chemscore.Lipo.Weighted>
-4.7840

> <Gold.Chemscore.Internal_Hbond.Weighted>
0.0000

> <Gold.Chemscore.DEClash.Weighted>
1.3956

> <Gold.Chemscore.DEInternal.Weighted>
0.8288

> <Gold.Chemscore.Rot.Weighted>
9.3087

> <Gold.Chemscore.Internal.Correction.Weighted>
   9.000000E+99

> <Gold.Protein.RotatedTorsions>
[ 6907 6896 6895 6894 ] final   83.34 input  -60.11 | X-H torsion
[ 7974 7965 7964 7962 ] final -162.67 input  175.53 | X-H torsion
[ 8008 7997 7996 7995 ] final  -57.51 input   59.86 | X-H torsion
[ 10167 10162 10161 10158 ] final  -51.21 input  -65.29 | X-H torsion
[ 10718 10713 10712 10709 ] final   30.94 input   66.30 | X-H torsion
[ 10763 10752 10751 10750 ] final  -58.50 input  -60.55 | X-H torsion
[ 11005 11000 10999 10996 ] final -138.71 input  -57.11 | X-H torsion

> <Gold.Protein.ActiveResidues>
 VAL166  LYS551  ARG553  GLY616  TRP617  ASP618  TYR619  PRO620  LYS621  CYS622 
 ASP623  PHE694  ASN695  SER759  ASP760  ASP761  ALA762  ILE779  LEU786  VAL792 
 PHE793  MET794  SER795  GLU796  ALA797  LYS798  CYS799  TRP800  GLU811  SER814 

> <Gold.Protein.RotatedAtoms>
  152.5324  134.2910  159.9042 H   0  0  0  0  0  0  0  0  0  0  0  0  # atno 6907 bound_to 6896
  151.2862  133.4180  159.2637 H   0  0  0  0  0  0  0  0  0  0  0  0  # atno 6908 bound_to 6896
  151.0240  134.9506  159.8132 H   0  0  0  0  0  0  0  0  0  0  0  0  # atno 6909 bound_to 6896
  144.7350  140.3219  143.6169 H   0  0  0  0  0  0  0  0  0  0  0  0  # atno 7974 bound_to 7965
  154.4271  140.1105  156.5809 H   0  0  0  0  0  0  0  0  0  0  0  0  # atno 8008 bound_to 7997
  155.6113  140.3494  155.4604 H   0  0  0  0  0  0  0  0  0  0  0  0  # atno 8009 bound_to 7997
  156.0097  140.1216  157.0456 H   0  0  0  0  0  0  0  0  0  0  0  0  # atno 8010 bound_to 7997
  140.6599  143.2628  151.4471 H   0  0  0  0  0  0  0  0  0  0  0  0  # atno 10167 bound_to 10162
  157.2660  130.7184  149.6479 H   0  0  0  0  0  0  0  0  0  0  0  0  # atno 10718 bound_to 10713
  154.2390  135.6347  153.5201 H   0  0  0  0  0  0  0  0  0  0  0  0  # atno 10763 bound_to 10752
  152.9934  135.5537  154.5930 H   0  0  0  0  0  0  0  0  0  0  0  0  # atno 10764 bound_to 10752
  154.5432  135.2896  155.1051 H   0  0  0  0  0  0  0  0  0  0  0  0  # atno 10765 bound_to 10752
  140.8590  134.2193  157.4718 H   0  0  0  0  0  0  0  0  0  0  0  0  # atno 11005 bound_to 11000
  145.7560  139.1809  143.2294 LP  0  0  0  0  0  0  0  0  0  0  0  0  # atno 17320 bound_to 7965
  146.1024  140.7528  142.9543 LP  0  0  0  0  0  0  0  0  0  0  0  0  # atno 17321 bound_to 7965
  139.5831  144.1666  152.1993 LP  0  0  0  0  0  0  0  0  0  0  0  0  # atno 17342 bound_to 10162
  140.0997  144.5550  150.6997 LP  0  0  0  0  0  0  0  0  0  0  0  0  # atno 17343 bound_to 10162
  155.9663  130.4382  150.5209 LP  0  0  0  0  0  0  0  0  0  0  0  0  # atno 17370 bound_to 10713
  157.3123  131.0666  151.1992 LP  0  0  0  0  0  0  0  0  0  0  0  0  # atno 17371 bound_to 10713
  139.8706  134.9720  156.4758 LP  0  0  0  0  0  0  0  0  0  0  0  0  # atno 17394 bound_to 11000
  140.8705  133.7992  155.9359 LP  0  0  0  0  0  0  0  0  0  0  0  0  # atno 17395 bound_to 11000

$$$$
