AV-unprocessed.smi:114|AV-procd|sdf|1114|dock6
  -GOLD-   2262018233D 1   1.00000     0.00000
 Structure written by MMmdl.
 32 34  0  0  0  0  0  0  0  0  1 V2000
  144.7764  135.8289  149.5193 N   0  0  0  0  0  0  0  0  0  0  0  0
  144.6686  134.9939  150.5623 C   0  0  0  0  0  0  0  0  0  0  0  0
  144.0670  135.4437  151.6881 N   0  0  0  0  0  0  0  0  0  0  0  0
  143.9402  134.6426  152.7531 C   0  0  0  0  0  0  0  0  0  0  0  0
  143.3265  135.1736  153.8365 F   0  0  0  0  0  0  0  0  0  0  0  0
  144.3503  133.3750  152.8672 N   0  0  0  0  0  0  0  0  0  0  0  0
  144.9563  132.9166  151.7339 C   0  0  0  0  0  0  0  0  0  0  0  0
  145.1547  133.6638  150.5420 C   0  0  0  0  0  0  0  0  0  0  0  0
  145.8060  132.8833  149.5965 N   0  0  0  0  0  0  0  0  0  0  0  0
  145.9820  131.7389  150.2016 C   0  0  0  0  0  0  0  0  0  0  0  0
  145.4969  131.6702  151.4894 N   0  0  0  0  0  0  0  0  0  0  0  0
  145.5528  130.5058  152.4245 C   0  0  1  0  0  0  0  0  0  0  0  0
  145.9229  129.3811  151.6888 O   0  0  0  0  0  0  0  0  0  0  0  0
  146.8554  128.6061  152.4326 C   0  0  1  0  0  0  0  0  0  0  0  0
  147.6975  127.7501  151.4745 C   0  0  0  0  0  0  0  0  0  0  0  0
  147.8194  128.3977  150.2259 O   0  0  0  0  0  0  0  0  0  0  0  0
  147.6641  129.6769  153.1672 C   0  0  2  0  0  0  0  0  0  0  0  0
  148.3509  129.1669  154.2954 O   0  0  0  0  0  0  0  0  0  0  0  0
  146.6106  130.7261  153.5192 C   0  0  2  0  0  0  0  0  0  0  0  0
  146.0554  130.5180  154.8053 O   0  0  0  0  0  0  0  0  0  0  0  0
  144.5362  130.4041  152.8074 H   0  0  0  0  0  0  0  0  0  0  0  0
  146.3186  127.9880  153.1554 H   0  0  0  0  0  0  0  0  0  0  0  0
  148.3949  130.1153  152.4877 H   0  0  0  0  0  0  0  0  0  0  0  0
  147.0193  131.7368  153.4757 H   0  0  0  0  0  0  0  0  0  0  0  0
  145.2218  135.5160  148.6685 H   0  0  0  0  0  0  0  0  0  0  0  0
  144.4151  136.7695  149.5866 H   0  0  0  0  0  0  0  0  0  0  0  0
  146.4724  130.9059  149.7191 H   0  0  0  0  0  0  0  0  0  0  0  0
  148.6822  127.5380  151.8926 H   0  0  0  0  0  0  0  0  0  0  0  0
  147.2081  126.7919  151.2984 H   0  0  0  0  0  0  0  0  0  0  0  0
  148.0208  129.3083  150.3786 H   0  0  0  0  0  0  0  0  0  0  0  0
  148.1254  128.2546  154.3957 H   0  0  0  0  0  0  0  0  0  0  0  0
  145.1729  130.1964  154.7007 H   0  0  0  0  0  0  0  0  0  0  0  0
  1  2  1  0  0  0  0
  1 25  1  0  0  0  0
  1 26  1  0  0  0  0
  2  8  1  0  0  0  0
  2  3  2  0  0  0  0
  3  4  1  0  0  0  0
  4  5  1  0  0  0  0
  4  6  2  0  0  0  0
  6  7  1  0  0  0  0
  7 11  1  0  0  0  0
  7  8  2  0  0  0  0
  8  9  1  0  0  0  0
  9 10  2  0  0  0  0
 10 11  1  0  0  0  0
 10 27  1  0  0  0  0
 11 12  1  0  0  0  0
 12 21  1  0  0  0  0
 12 19  1  0  0  0  0
 12 13  1  0  0  0  0
 13 14  1  0  0  0  0
 14 22  1  0  0  0  0
 14 15  1  0  0  0  0
 14 17  1  0  0  0  0
 15 16  1  0  0  0  0
 15 28  1  0  0  0  0
 15 29  1  0  0  0  0
 16 30  1  0  0  0  0
 17 23  1  0  0  0  0
 17 18  1  0  0  0  0
 17 19  1  0  0  0  0
 18 31  1  0  0  0  0
 19 24  1  0  0  0  0
 19 20  1  0  0  0  0
 20 32  1  0  0  0  0
M  END
> <s_m_source_file>
AV-unprocessed.smi

> <i_m_source_file_index>
114

> <i_lp_mmshare_version>
43012

> <i_f3d_flags>
0

> <s_epik_input>
RmMobjEpbmMoW05IMl0pYyhjMTIpbltjSF1uMltDQEBIXTNPW0NASF0oW0NIMl1bT0hdKVtDQEBIXShbT0hdKVtDQEBIXTNbT0hd

> <s_epik_cmdline>
J2VwaWtfcHl0aG9uJywgJy1waCcsICc3LjAnLCAnLXRuJywgJzgnLCAnLW1hJywgJzIwMCcsICctbWV0YWxfYmluZGluZycsICctaW1hZScsICc8aW5maWxlLm1hZT4nLCAnLW9tYWUnLCAnPG91dGZpbGUubWFlPic=

> <r_lp_tautomer_probability>
1

> <r_epik_Ionization_Penalty>
1.13199e-05

> <r_epik_Ionization_Penalty_Charging>
0

> <r_epik_Ionization_Penalty_Neutral>
1.13199e-05

> <r_epik_State_Penalty>
-0

> <r_epik_Charging_Adjusted_Penalty>
0

> <i_epik_Tot_Q>
0

> <i_epik_Tot_abs_Q>
0

> <r_epik_Metal_State_Penalty>
-0

> <b_epik_Metal_Only>
0

> <s_epik_Chemistry_Notes>
This compound contains an acetal/aminal-like group ( X-CH(R)-Y where X, Y are N, S, or O) that may be acid/base labile, releasing an aldehyde.

> <s_lp_Force_Field>
OPLS_2005

> <r_lp_Energy>
39.1669

> <b_lp_Chiralities_Consistent>
1

> <s_lp_Variant>
AV-unprocessed.smi:114-8

> <Gold.Version>
5.8.1

> <Gold.Id.Protein>
6NUR|6NUR_protein|mol2

> <Gold.PLP.Fitness>
38.7940

> <Gold.PLP.PLP>
-26.2573

> <Gold.PLP.part.hbond>
-5.1099

> <Gold.PLP.part.metal>
0.0000

> <Gold.PLP.part.buried>
-1.2069

> <Gold.PLP.part.nonpolar>
-22.7324

> <Gold.PLP.part.repulsive>
3.6870

> <Gold.PLP.ligand.clash>
0.0000

> <Gold.PLP.ligand.torsion>
0.6415

> <Gold.PLP.Chemscore.Hbond>
3.9913

> <Gold.PLP.Chemscore.CHOScore>
0.6110

> <Gold.PLP.Chemscore.Metal>
0.0000

> <Gold.Chemscore.Hbonds>
donor molecule, donor type, donor heavy atom, donor atom, acceptor molecule, acceptor atom, score
      L1  H     1    25       P1  7921  1.00
      L1  H     1    26       P1 10171  1.00
      L1  H    16    30       P1 10747  1.00
      L1  H    20    32       P1 10956  1.00
      L1  C    10    27       P1 10747  0.62

> <Gold.PLP.Chemscore.Internal.Correction>
0.0130

> <Gold.Rescore>
     Score         DG    S(hbond)    S(metal)    S(lipo)     H(rot)  DE(clash)    DE(int)     intcor
      8.87     -10.02       3.26        0.00      33.83       4.03       0.78       0.37       ----

> <Gold.Chemscore.Fitness>
8.8731

> <Gold.Chemscore.DG>
-10.0203

> <Gold.Chemscore.ZeroCoef>
-5.4800

> <Gold.Chemscore.Hbond>
3.2613

> <Gold.Chemscore.Metal>
0.0000

> <Gold.Chemscore.Lipo>
33.8331

> <Gold.Chemscore.Internal_Hbond>
0.0000

> <Gold.Chemscore.DEClash>
0.7786

> <Gold.Chemscore.DEInternal>
0.3686

> <Gold.Chemscore.Rot>
4.0277

> <Gold.Chemscore.Internal.Correction>
   9.000000E+99

> <Gold.Chemscore.Hbonds>
donor molecule, donor type, donor heavy atom, donor atom, acceptor molecule, acceptor atom, score
      L1  H     1    25       P1  7921  0.93
      L1  H     1    26       P1 10171  1.00
      L1  H    16    30       P1 10747  0.34
      L1  H    20    32       P1 10956  0.43

> <Gold.Chemscore.Hbond.Weighted>
-10.8928

> <Gold.Chemscore.Metal.Weighted>
-0.0000

> <Gold.Chemscore.Lipo.Weighted>
-3.9585

> <Gold.Chemscore.Internal_Hbond.Weighted>
0.0000

> <Gold.Chemscore.DEClash.Weighted>
0.7786

> <Gold.Chemscore.DEInternal.Weighted>
0.3686

> <Gold.Chemscore.Rot.Weighted>
10.3110

> <Gold.Chemscore.Internal.Correction.Weighted>
   9.000000E+99

> <Gold.Protein.RotatedTorsions>
[ 6907 6896 6895 6894 ] final   -5.14 input  -60.11 | X-H torsion
[ 7974 7965 7964 7962 ] final  -98.03 input  175.53 | X-H torsion
[ 8008 7997 7996 7995 ] final  -48.41 input   59.86 | X-H torsion
[ 10167 10162 10161 10158 ] final -179.13 input  -65.29 | X-H torsion
[ 10718 10713 10712 10709 ] final  -28.05 input   66.30 | X-H torsion
[ 10763 10752 10751 10750 ] final   76.91 input  -60.55 | X-H torsion
[ 11005 11000 10999 10996 ] final -175.67 input  -57.11 | X-H torsion

> <Gold.Protein.ActiveResidues>
 VAL166  LYS551  ARG553  GLY616  TRP617  ASP618  TYR619  PRO620  LYS621  CYS622 
 ASP623  PHE694  ASN695  SER759  ASP760  ASP761  ALA762  ILE779  LEU786  VAL792 
 PHE793  MET794  SER795  GLU796  ALA797  LYS798  CYS799  TRP800  GLU811  SER814 

> <Gold.Protein.RotatedAtoms>
  151.4864  135.1055  159.9791 H   0  0  0  0  0  0  0  0  0  0  0  0  # atno 6907 bound_to 6896
  152.4758  133.8132  159.7025 H   0  0  0  0  0  0  0  0  0  0  0  0  # atno 6908 bound_to 6896
  150.8796  133.7329  159.2962 H   0  0  0  0  0  0  0  0  0  0  0  0  # atno 6909 bound_to 6896
  145.3259  140.9431  143.2689 H   0  0  0  0  0  0  0  0  0  0  0  0  # atno 7974 bound_to 7965
  154.4028  140.1322  156.4334 H   0  0  0  0  0  0  0  0  0  0  0  0  # atno 8008 bound_to 7997
  155.7529  140.3487  155.5139 H   0  0  0  0  0  0  0  0  0  0  0  0  # atno 8009 bound_to 7997
  155.8932  140.1007  157.1394 H   0  0  0  0  0  0  0  0  0  0  0  0  # atno 8010 bound_to 7997
  139.5400  144.2389  152.0875 H   0  0  0  0  0  0  0  0  0  0  0  0  # atno 10167 bound_to 10162
  156.4302  130.4443  149.7122 H   0  0  0  0  0  0  0  0  0  0  0  0  # atno 10718 bound_to 10713
  153.0760  135.4933  154.8405 H   0  0  0  0  0  0  0  0  0  0  0  0  # atno 10763 bound_to 10752
  154.7088  135.3016  154.9232 H   0  0  0  0  0  0  0  0  0  0  0  0  # atno 10764 bound_to 10752
  153.9932  135.6775  153.4808 H   0  0  0  0  0  0  0  0  0  0  0  0  # atno 10765 bound_to 10752
  140.4607  134.6257  157.4841 H   0  0  0  0  0  0  0  0  0  0  0  0  # atno 11005 bound_to 11000
  144.8902  139.4785  143.6681 LP  0  0  0  0  0  0  0  0  0  0  0  0  # atno 17320 bound_to 7965
  146.3064  139.7595  142.9053 LP  0  0  0  0  0  0  0  0  0  0  0  0  # atno 17321 bound_to 7965
  140.1866  144.4792  150.6500 LP  0  0  0  0  0  0  0  0  0  0  0  0  # atno 17342 bound_to 10162
  140.6625  143.2257  151.5821 LP  0  0  0  0  0  0  0  0  0  0  0  0  # atno 17343 bound_to 10162
  156.4028  130.7683  151.2692 LP  0  0  0  0  0  0  0  0  0  0  0  0  # atno 17370 bound_to 10713
  157.7508  131.0234  150.3835 LP  0  0  0  0  0  0  0  0  0  0  0  0  # atno 17371 bound_to 10713
  139.9947  134.6930  155.9629 LP  0  0  0  0  0  0  0  0  0  0  0  0  # atno 17394 bound_to 11000
  141.1622  133.6538  156.4359 LP  0  0  0  0  0  0  0  0  0  0  0  0  # atno 17395 bound_to 11000

$$$$
