AV-unprocessed.smi:1684|AV-procd|sdf|6753|dock8
  -GOLD-   22720 7513D 1   1.00000     0.00000
 Structure written by MMmdl.
 42 43  0  0  0  0  0  0  0  0  1 V2000
  147.6251  132.8357  152.5655 C   0  0  0  0  0  0  0  0  0  0  0  0
  146.3702  132.9623  151.7171 C   0  0  0  0  0  0  0  0  0  0  0  0
  145.7387  131.7942  151.2396 C   0  0  0  0  0  0  0  0  0  0  0  0
  144.5778  131.9132  150.4565 C   0  0  0  0  0  0  0  0  0  0  0  0
  144.0949  133.2040  150.1816 C   0  0  0  0  0  0  0  0  0  0  0  0
  144.6929  134.3254  150.6323 N   0  0  0  0  0  0  0  0  0  0  0  0
  145.8144  134.2282  151.3899 C   0  0  0  0  0  0  0  0  0  0  0  0
  146.4968  135.3677  151.9026 N   0  0  0  0  0  0  0  0  0  0  0  0
  146.0093  136.3637  152.6630 C   0  0  0  0  0  0  0  0  0  0  0  0
  144.8406  136.4672  153.0368 O   0  0  0  0  0  0  0  0  0  0  0  0
  146.9693  137.2494  152.9692 N   0  0  0  0  0  0  0  0  0  0  0  0
  146.7977  138.4493  153.7864 C   0  0  2  0  0  0  0  0  0  0  0  0
  146.8906  139.6844  152.8801 C   0  0  0  0  0  0  0  0  0  0  0  0
  147.8653  138.4996  154.9014 C   0  0  0  0  0  0  0  0  0  0  0  0
  149.1183  137.7993  154.6162 N   0  0  0  0  0  0  0  0  0  0  0  0
  150.2708  138.6121  154.9884 C   0  0  0  0  0  0  0  0  0  0  0  0
  151.5999  137.8966  154.6900 C   0  0  0  0  0  0  0  0  0  0  0  0
  151.6278  136.6413  155.3612 O   0  0  0  0  0  0  0  0  0  0  0  0
  150.5413  135.7983  154.9923 C   0  0  0  0  0  0  0  0  0  0  0  0
  149.2113  136.5088  155.2962 C   0  0  0  0  0  0  0  0  0  0  0  0
  147.8973  131.7910  152.7190 H   0  0  0  0  0  0  0  0  0  0  0  0
  147.4709  133.2888  153.5453 H   0  0  0  0  0  0  0  0  0  0  0  0
  148.4653  133.3339  152.0807 H   0  0  0  0  0  0  0  0  0  0  0  0
  146.1367  130.8167  151.4695 H   0  0  0  0  0  0  0  0  0  0  0  0
  144.0709  131.0385  150.0769 H   0  0  0  0  0  0  0  0  0  0  0  0
  143.2055  133.3404  149.5844 H   0  0  0  0  0  0  0  0  0  0  0  0
  147.4755  135.4264  151.6648 H   0  0  0  0  0  0  0  0  0  0  0  0
  147.8991  137.0762  152.6167 H   0  0  0  0  0  0  0  0  0  0  0  0
  145.8008  138.4632  154.2278 H   0  0  0  0  0  0  0  0  0  0  0  0
  146.7374  140.6005  153.4512 H   0  0  0  0  0  0  0  0  0  0  0  0
  146.1324  139.6554  152.0969 H   0  0  0  0  0  0  0  0  0  0  0  0
  147.8662  139.7529  152.3973 H   0  0  0  0  0  0  0  0  0  0  0  0
  148.0858  139.5492  155.1006 H   0  0  0  0  0  0  0  0  0  0  0  0
  147.4389  138.1084  155.8263 H   0  0  0  0  0  0  0  0  0  0  0  0
  150.2454  139.5595  154.4487 H   0  0  0  0  0  0  0  0  0  0  0  0
  150.2234  138.8564  156.0507 H   0  0  0  0  0  0  0  0  0  0  0  0
  151.7252  137.7457  153.6167 H   0  0  0  0  0  0  0  0  0  0  0  0
  152.4406  138.5016  155.0294 H   0  0  0  0  0  0  0  0  0  0  0  0
  150.6095  135.5450  153.9331 H   0  0  0  0  0  0  0  0  0  0  0  0
  150.6088  134.8646  155.5505 H   0  0  0  0  0  0  0  0  0  0  0  0
  149.1151  136.6495  156.3737 H   0  0  0  0  0  0  0  0  0  0  0  0
  148.3938  135.8567  154.9933 H   0  0  0  0  0  0  0  0  0  0  0  0
  1  2  1  0  0  0  0
  1 21  1  0  0  0  0
  1 22  1  0  0  0  0
  1 23  1  0  0  0  0
  2  7  1  0  0  0  0
  2  3  2  0  0  0  0
  3  4  1  0  0  0  0
  3 24  1  0  0  0  0
  4  5  2  0  0  0  0
  4 25  1  0  0  0  0
  5  6  1  0  0  0  0
  5 26  1  0  0  0  0
  6  7  2  0  0  0  0
  7  8  1  0  0  0  0
  8  9  1  0  0  0  0
  8 27  1  0  0  0  0
  9 10  2  0  0  0  0
  9 11  1  0  0  0  0
 11 12  1  0  0  0  0
 11 28  1  0  0  0  0
 12 13  1  0  0  0  0
 12 14  1  0  0  0  0
 12 29  1  0  0  0  0
 13 30  1  0  0  0  0
 13 31  1  0  0  0  0
 13 32  1  0  0  0  0
 14 15  1  0  0  0  0
 14 33  1  0  0  0  0
 14 34  1  0  0  0  0
 15 20  1  0  0  0  0
 15 16  1  0  0  0  0
 16 17  1  0  0  0  0
 16 35  1  0  0  0  0
 16 36  1  0  0  0  0
 17 18  1  0  0  0  0
 17 37  1  0  0  0  0
 17 38  1  0  0  0  0
 18 19  1  0  0  0  0
 19 20  1  0  0  0  0
 19 39  1  0  0  0  0
 19 40  1  0  0  0  0
 20 41  1  0  0  0  0
 20 42  1  0  0  0  0
M  END
> <s_m_source_file>
AV-unprocessed.smi

> <i_m_source_file_index>
1684

> <i_lp_mmshare_version>
43012

> <i_f3d_flags>
0

> <s_epik_input>
W0NIM11jMVtjSF1bY0hdW2NIXW5jMVtOSF1DKD1PKVtOSF1bQ0BIXShbQ0gzXSlbQ0gyXU4yW0NIMl1bQ0gyXU9bQ0gyXVtDSDJdMg==

> <s_epik_cmdline>
J2VwaWtfcHl0aG9uJywgJy1waCcsICc3LjAnLCAnLXRuJywgJzgnLCAnLW1hJywgJzIwMCcsICctbWV0YWxfYmluZGluZycsICctaW1hZScsICc8aW5maWxlLm1hZT4nLCAnLW9tYWUnLCAnPG91dGZpbGUubWFlPic=

> <r_epik_Ionization_Penalty>
0.26605

> <r_epik_Ionization_Penalty_Charging>
0

> <r_epik_Ionization_Penalty_Neutral>
0.26605

> <r_epik_State_Penalty>
0.257924

> <r_epik_Charging_Adjusted_Penalty>
0.257924

> <i_epik_Tot_Q>
0

> <i_epik_Tot_abs_Q>
0

> <r_epik_Metal_State_Penalty>
0.257922

> <b_epik_Metal_Only>
0

> <s_lp_Force_Field>
OPLS_2005

> <r_lp_Energy>
27.9157

> <b_lp_Chiralities_Consistent>
1

> <s_lp_Variant>
AV-unprocessed.smi:1684-1

> <Gold.Version>
5.8.1

> <Gold.Id.Protein>
6NUR|6NUR_protein|mol2

> <Gold.PLP.Fitness>
38.9950

> <Gold.PLP.PLP>
-30.3568

> <Gold.PLP.part.hbond>
-2.8445

> <Gold.PLP.part.metal>
0.0000

> <Gold.PLP.part.buried>
-5.0350

> <Gold.PLP.part.nonpolar>
-24.5302

> <Gold.PLP.part.repulsive>
0.6670

> <Gold.PLP.ligand.clash>
0.0000

> <Gold.PLP.ligand.torsion>
1.6798

> <Gold.PLP.Chemscore.Hbond>
2.9920

> <Gold.PLP.Chemscore.CHOScore>
1.0000

> <Gold.PLP.Chemscore.Metal>
0.0000

> <Gold.Chemscore.Hbonds>
donor molecule, donor type, donor heavy atom, donor atom, acceptor molecule, acceptor atom, score
      L1  H     8    27       P1  7948  0.99
      L1  H    11    28       P1  7948  1.00
      P1  H 10752 10764       L1    18  1.00
      L1  C     5    26       P1 10186  1.00

> <Gold.PLP.Chemscore.Internal.Correction>
0.0218

> <Gold.Rescore>
     Score         DG    S(hbond)    S(metal)    S(lipo)     H(rot)  DE(clash)    DE(int)     intcor
     17.31     -18.90       2.58        0.00      73.01       1.46       0.07       1.52       ----

> <Gold.Chemscore.Fitness>
17.3087

> <Gold.Chemscore.DG>
-18.9041

> <Gold.Chemscore.ZeroCoef>
-5.4800

> <Gold.Chemscore.Hbond>
2.5793

> <Gold.Chemscore.Metal>
0.0000

> <Gold.Chemscore.Lipo>
73.0068

> <Gold.Chemscore.Internal_Hbond>
0.0000

> <Gold.Chemscore.DEClash>
0.0721

> <Gold.Chemscore.DEInternal>
1.5232

> <Gold.Chemscore.Rot>
1.4581

> <Gold.Chemscore.Internal.Correction>
   9.000000E+99

> <Gold.Chemscore.Hbonds>
donor molecule, donor type, donor heavy atom, donor atom, acceptor molecule, acceptor atom, score
      L1  H     8    27       P1  7948  0.90
      L1  H    11    28       P1  7948  0.92
      P1  H 10752 10764       L1    18  0.23

> <Gold.Chemscore.Hbond.Weighted>
-8.6149

> <Gold.Chemscore.Metal.Weighted>
-0.0000

> <Gold.Chemscore.Lipo.Weighted>
-8.5418

> <Gold.Chemscore.Internal_Hbond.Weighted>
0.0000

> <Gold.Chemscore.DEClash.Weighted>
0.0721

> <Gold.Chemscore.DEInternal.Weighted>
1.5232

> <Gold.Chemscore.Rot.Weighted>
3.7327

> <Gold.Chemscore.Internal.Correction.Weighted>
   9.000000E+99

> <Gold.Protein.RotatedTorsions>
[ 6907 6896 6895 6894 ] final  128.78 input  -60.11 | X-H torsion
[ 7974 7965 7964 7962 ] final   63.30 input  175.53 | X-H torsion
[ 8008 7997 7996 7995 ] final   29.95 input   59.86 | X-H torsion
[ 10167 10162 10161 10158 ] final  -90.67 input  -65.29 | X-H torsion
[ 10718 10713 10712 10709 ] final  -35.68 input   66.30 | X-H torsion
[ 10763 10752 10751 10750 ] final  -34.32 input  -60.55 | X-H torsion
[ 11005 11000 10999 10996 ] final   95.29 input  -57.11 | X-H torsion

> <Gold.Protein.ActiveResidues>
 VAL166  LYS551  ARG553  GLY616  TRP617  ASP618  TYR619  PRO620  LYS621  CYS622 
 ASP623  PHE694  ASN695  SER759  ASP760  ASP761  ALA762  ILE779  LEU786  VAL792 
 PHE793  MET794  SER795  GLU796  ALA797  LYS798  CYS799  TRP800  GLU811  SER814 

> <Gold.Protein.RotatedAtoms>
  152.3687  133.6390  159.6070 H   0  0  0  0  0  0  0  0  0  0  0  0  # atno 6907 bound_to 6896
  150.7653  133.9306  159.3434 H   0  0  0  0  0  0  0  0  0  0  0  0  # atno 6908 bound_to 6896
  151.7132  135.0910  160.0322 H   0  0  0  0  0  0  0  0  0  0  0  0  # atno 6909 bound_to 6896
  145.8634  139.3330  143.0805 H   0  0  0  0  0  0  0  0  0  0  0  0  # atno 7974 bound_to 7965
  155.0826  140.3212  155.4597 H   0  0  0  0  0  0  0  0  0  0  0  0  # atno 8008 bound_to 7997
  156.2763  140.2092  156.5900 H   0  0  0  0  0  0  0  0  0  0  0  0  # atno 8009 bound_to 7997
  154.6966  140.0511  157.0404 H   0  0  0  0  0  0  0  0  0  0  0  0  # atno 8010 bound_to 7997
  140.3525  143.2883  151.9709 H   0  0  0  0  0  0  0  0  0  0  0  0  # atno 10167 bound_to 10162
  156.3358  130.4286  149.7831 H   0  0  0  0  0  0  0  0  0  0  0  0  # atno 10718 bound_to 10713
  153.8448  135.6854  153.4799 H   0  0  0  0  0  0  0  0  0  0  0  0  # atno 10763 bound_to 10752
  153.1432  135.4648  154.9525 H   0  0  0  0  0  0  0  0  0  0  0  0  # atno 10764 bound_to 10752
  154.7829  135.3275  154.7898 H   0  0  0  0  0  0  0  0  0  0  0  0  # atno 10765 bound_to 10752
  139.8790  134.8891  156.3990 H   0  0  0  0  0  0  0  0  0  0  0  0  # atno 11005 bound_to 11000
  145.9222  140.9107  143.0399 LP  0  0  0  0  0  0  0  0  0  0  0  0  # atno 17320 bound_to 7965
  144.6726  140.1304  143.7444 LP  0  0  0  0  0  0  0  0  0  0  0  0  # atno 17321 bound_to 7965
  139.4824  144.6063  151.7515 LP  0  0  0  0  0  0  0  0  0  0  0  0  # atno 17342 bound_to 10162
  140.5205  144.0886  150.6021 LP  0  0  0  0  0  0  0  0  0  0  0  0  # atno 17343 bound_to 10162
  156.5086  130.8162  151.3160 LP  0  0  0  0  0  0  0  0  0  0  0  0  # atno 17370 bound_to 10713
  157.7438  130.9921  150.2625 LP  0  0  0  0  0  0  0  0  0  0  0  0  # atno 17371 bound_to 10713
  140.9280  133.7599  155.9989 LP  0  0  0  0  0  0  0  0  0  0  0  0  # atno 17394 bound_to 11000
  140.8363  134.3119  157.5330 LP  0  0  0  0  0  0  0  0  0  0  0  0  # atno 17395 bound_to 11000

$$$$
