AV-unprocessed.smi:311|AV-procd|sdf|2303|dock7
  -GOLD-   2262022203D 1   1.00000     0.00000
 Structure written by MMmdl.
 44 46  0  0  0  0  0  0  0  0  2 V2000
  146.9554  141.1372  153.8135 C   0  0  0  0  0  0  0  0  0  0  0  0
  148.2614  140.4209  154.0047 C   0  0  0  0  0  0  0  0  0  0  0  0
  149.3958  141.0841  153.8569 N   0  0  0  0  0  0  0  0  0  0  0  0
  150.4155  140.1592  154.1002 O   0  0  0  0  0  0  0  0  0  0  0  0
  149.8477  138.9610  154.3897 C   0  0  0  0  0  0  0  0  0  0  0  0
  150.7750  137.8343  154.6965 C   0  0  0  0  0  0  0  0  0  0  0  0
  148.4838  139.0566  154.3492 C   0  0  0  0  0  0  0  0  0  0  0  0
  147.4589  137.9852  154.6242 C   0  0  0  0  0  0  0  0  0  0  0  0
  146.6512  137.7299  153.3526 C   0  0  0  0  0  0  0  0  0  0  0  0
  146.1614  138.6713  152.7299 O   0  0  0  0  0  0  0  0  0  0  0  0
  146.5540  136.4518  152.9562 N   0  0  0  0  0  0  0  0  0  0  0  0
  145.9656  136.0119  151.6956 C   0  0  2  0  0  0  0  0  0  0  0  0
  144.4315  136.0554  151.6953 C   0  0  0  0  0  0  0  0  0  0  0  0
  143.9956  134.8868  150.7928 C   0  0  0  0  0  0  0  0  0  0  0  0
  145.2413  134.2262  150.3433 N   0  3  2  0  0  0  0  0  0  0  0  0
  145.1306  132.7958  149.9582 C   0  0  0  0  0  0  0  0  0  0  0  0
  145.0894  131.8538  151.1732 C   0  0  0  0  0  0  0  0  0  0  0  0
  146.2816  132.1137  152.0993 C   0  0  0  0  0  0  0  0  0  0  0  0
  146.2746  133.5789  152.5457 C   0  0  0  0  0  0  0  0  0  0  0  0
  146.2895  134.5506  151.3362 C   0  0  2  0  0  0  0  0  0  0  0  0
  147.0675  142.2160  153.9281 H   0  0  0  0  0  0  0  0  0  0  0  0
  146.2147  140.8062  154.5412 H   0  0  0  0  0  0  0  0  0  0  0  0
  146.5515  140.9487  152.8188 H   0  0  0  0  0  0  0  0  0  0  0  0
  150.7184  137.5680  155.7519 H   0  0  0  0  0  0  0  0  0  0  0  0
  151.8075  138.1002  154.4690 H   0  0  0  0  0  0  0  0  0  0  0  0
  150.5171  136.9518  154.1111 H   0  0  0  0  0  0  0  0  0  0  0  0
  147.9240  137.0529  154.9461 H   0  0  0  0  0  0  0  0  0  0  0  0
  146.7821  138.2810  155.4269 H   0  0  0  0  0  0  0  0  0  0  0  0
  146.9835  135.7439  153.5342 H   0  0  0  0  0  0  0  0  0  0  0  0
  146.3211  136.6579  150.8896 H   0  0  0  0  0  0  0  0  0  0  0  0
  144.0358  135.9072  152.7016 H   0  0  0  0  0  0  0  0  0  0  0  0
  144.0578  137.0144  151.3347 H   0  0  0  0  0  0  0  0  0  0  0  0
  143.3685  134.1959  151.3575 H   0  0  0  0  0  0  0  0  0  0  0  0
  143.4218  135.2279  149.9307 H   0  0  0  0  0  0  0  0  0  0  0  0
  144.2534  132.6508  149.3264 H   0  0  0  0  0  0  0  0  0  0  0  0
  145.9976  132.5482  149.3445 H   0  0  0  0  0  0  0  0  0  0  0  0
  144.1576  131.9879  151.7233 H   0  0  0  0  0  0  0  0  0  0  0  0
  145.0997  130.8163  150.8373 H   0  0  0  0  0  0  0  0  0  0  0  0
  146.2346  131.4565  152.9682 H   0  0  0  0  0  0  0  0  0  0  0  0
  147.2149  131.8858  151.5827 H   0  0  0  0  0  0  0  0  0  0  0  0
  145.3931  133.7562  153.1632 H   0  0  0  0  0  0  0  0  0  0  0  0
  147.1371  133.7618  153.1871 H   0  0  0  0  0  0  0  0  0  0  0  0
  147.2641  134.4873  150.8500 H   0  0  0  0  0  0  0  0  0  0  0  0
  145.5059  134.7227  149.5044 H   0  0  0  0  0  0  0  0  0  0  0  0
  1  2  1  0  0  0  0
  1 21  1  0  0  0  0
  1 22  1  0  0  0  0
  1 23  1  0  0  0  0
  2  7  1  0  0  0  0
  2  3  2  0  0  0  0
  3  4  1  0  0  0  0
  4  5  1  0  0  0  0
  5  6  1  0  0  0  0
  5  7  2  0  0  0  0
  6 24  1  0  0  0  0
  6 25  1  0  0  0  0
  6 26  1  0  0  0  0
  7  8  1  0  0  0  0
  8  9  1  0  0  0  0
  8 27  1  0  0  0  0
  8 28  1  0  0  0  0
  9 10  2  0  0  0  0
  9 11  1  0  0  0  0
 11 12  1  0  0  0  0
 11 29  1  0  0  0  0
 12 20  1  0  0  0  0
 12 13  1  0  0  0  0
 12 30  1  0  0  0  0
 13 14  1  0  0  0  0
 13 31  1  0  0  0  0
 13 32  1  0  0  0  0
 14 15  1  0  0  0  0
 14 33  1  0  0  0  0
 14 34  1  0  0  0  0
 15 20  1  0  0  0  0
 15 16  1  0  0  0  0
 15 44  1  0  0  0  0
 16 17  1  0  0  0  0
 16 35  1  0  0  0  0
 16 36  1  0  0  0  0
 17 18  1  0  0  0  0
 17 37  1  0  0  0  0
 17 38  1  0  0  0  0
 18 19  1  0  0  0  0
 18 39  1  0  0  0  0
 18 40  1  0  0  0  0
 19 20  1  0  0  0  0
 19 41  1  0  0  0  0
 19 42  1  0  0  0  0
 20 43  1  0  0  0  0
M  CHG  1  15   1
M  END
> <s_m_source_file>
AV-unprocessed.smi

> <i_m_source_file_index>
311

> <i_lp_mmshare_version>
43012

> <i_f3d_flags>
0

> <s_epik_input>
W0NIM11jMW5vYyhbQ0gzXSljMVtDSDJdQyg9TylbTkhdW0NASF0oW0NIMl1bQ0gyXTIpW0NAQEhdKE4yMylbQ0gyXVtDSDJdW0NIMl1bQ0gyXTM=

> <s_epik_cmdline>
J2VwaWtfcHl0aG9uJywgJy1waCcsICc3LjAnLCAnLXRuJywgJzgnLCAnLW1hJywgJzIwMCcsICctbWV0YWxfYmluZGluZycsICctaW1hZScsICc8aW5maWxlLm1hZT4nLCAnLW9tYWUnLCAnPG91dGZpbGUubWFlPic=

> <r_epik_Ionization_Penalty>
0.00173669

> <r_epik_Ionization_Penalty_Charging>
0.0017366

> <r_epik_Ionization_Penalty_Neutral>
9.2145e-08

> <r_epik_State_Penalty>
0.00117499

> <r_epik_Charging_Adjusted_Penalty>
0.00291159

> <i_epik_Tot_Q>
1

> <i_epik_Tot_abs_Q>
1

> <r_epik_Metal_State_Penalty>
-0

> <b_epik_Metal_Only>
0

> <s_lp_Force_Field>
OPLS_2005

> <r_lp_Energy>
29.2013

> <b_lp_Chiralities_Consistent>
1

> <s_lp_Variant>
AV-unprocessed.smi:311-7

> <Gold.Version>
5.8.1

> <Gold.Id.Protein>
6NUR|6NUR_protein|mol2

> <Gold.PLP.Fitness>
38.7175

> <Gold.PLP.PLP>
-30.7891

> <Gold.PLP.part.hbond>
-4.7642

> <Gold.PLP.part.metal>
0.0000

> <Gold.PLP.part.buried>
-1.7327

> <Gold.PLP.part.nonpolar>
-26.0975

> <Gold.PLP.part.repulsive>
2.9627

> <Gold.PLP.ligand.clash>
0.0000

> <Gold.PLP.ligand.torsion>
0.2920

> <Gold.PLP.Chemscore.Hbond>
2.8360

> <Gold.PLP.Chemscore.CHOScore>
0.0000

> <Gold.PLP.Chemscore.Metal>
0.0000

> <Gold.Chemscore.Hbonds>
donor molecule, donor type, donor heavy atom, donor atom, acceptor molecule, acceptor atom, score
      L1  H    15    44       P1  7921  1.00
      P1  H  7989  7998       L1     4  0.99
      P1  H  8011  8017       L1     3  0.84

> <Gold.PLP.Chemscore.Internal.Correction>
0.0045

> <Gold.Rescore>
     Score         DG    S(hbond)    S(metal)    S(lipo)     H(rot)  DE(clash)    DE(int)     intcor
     14.43     -18.68       2.09        0.00      82.92       1.36       1.39       2.86       ----

> <Gold.Chemscore.Fitness>
14.4327

> <Gold.Chemscore.DG>
-18.6839

> <Gold.Chemscore.ZeroCoef>
-5.4800

> <Gold.Chemscore.Hbond>
2.0883

> <Gold.Chemscore.Metal>
0.0000

> <Gold.Chemscore.Lipo>
82.9219

> <Gold.Chemscore.Internal_Hbond>
0.0000

> <Gold.Chemscore.DEClash>
1.3912

> <Gold.Chemscore.DEInternal>
2.8600

> <Gold.Chemscore.Rot>
1.3567

> <Gold.Chemscore.Internal.Correction>
   9.000000E+99

> <Gold.Chemscore.Hbonds>
donor molecule, donor type, donor heavy atom, donor atom, acceptor molecule, acceptor atom, score
      L1  H    15    44       P1  7921  0.93
      P1  H  7989  7998       L1     4  0.27
      P1  H  8011  8017       L1     3  0.70

> <Gold.Chemscore.Hbond.Weighted>
-6.9751

> <Gold.Chemscore.Metal.Weighted>
-0.0000

> <Gold.Chemscore.Lipo.Weighted>
-9.7019

> <Gold.Chemscore.Internal_Hbond.Weighted>
0.0000

> <Gold.Chemscore.DEClash.Weighted>
1.3912

> <Gold.Chemscore.DEInternal.Weighted>
2.8600

> <Gold.Chemscore.Rot.Weighted>
3.4731

> <Gold.Chemscore.Internal.Correction.Weighted>
   9.000000E+99

> <Gold.Protein.RotatedTorsions>
[ 6907 6896 6895 6894 ] final   -8.72 input  -60.11 | X-H torsion
[ 7974 7965 7964 7962 ] final   75.33 input  175.53 | X-H torsion
[ 8008 7997 7996 7995 ] final -113.21 input   59.86 | X-H torsion
[ 10167 10162 10161 10158 ] final  -79.49 input  -65.29 | X-H torsion
[ 10718 10713 10712 10709 ] final  177.16 input   66.30 | X-H torsion
[ 10763 10752 10751 10750 ] final  176.90 input  -60.55 | X-H torsion
[ 11005 11000 10999 10996 ] final -125.40 input  -57.11 | X-H torsion

> <Gold.Protein.ActiveResidues>
 VAL166  LYS551  ARG553  GLY616  TRP617  ASP618  TYR619  PRO620  LYS621  CYS622 
 ASP623  PHE694  ASN695  SER759  ASP760  ASP761  ALA762  ILE779  LEU786  VAL792 
 PHE793  MET794  SER795  GLU796  ALA797  LYS798  CYS799  TRP800  GLU811  SER814 

> <Gold.Protein.RotatedAtoms>
  151.4292  135.1007  159.9636 H   0  0  0  0  0  0  0  0  0  0  0  0  # atno 6907 bound_to 6896
  152.4962  133.8633  159.7272 H   0  0  0  0  0  0  0  0  0  0  0  0  # atno 6908 bound_to 6896
  150.9167  133.6872  159.2869 H   0  0  0  0  0  0  0  0  0  0  0  0  # atno 6909 bound_to 6896
  145.7169  139.2634  143.1618 H   0  0  0  0  0  0  0  0  0  0  0  0  # atno 7974 bound_to 7965
  155.0171  140.0393  157.2423 H   0  0  0  0  0  0  0  0  0  0  0  0  # atno 8008 bound_to 7997
  154.7409  140.2749  155.6350 H   0  0  0  0  0  0  0  0  0  0  0  0  # atno 8009 bound_to 7997
  156.2864  140.2665  156.2137 H   0  0  0  0  0  0  0  0  0  0  0  0  # atno 8010 bound_to 7997
  140.4589  143.2460  151.8379 H   0  0  0  0  0  0  0  0  0  0  0  0  # atno 10167 bound_to 10162
  156.9094  130.9905  151.3023 H   0  0  0  0  0  0  0  0  0  0  0  0  # atno 10718 bound_to 10713
  154.4873  135.2777  155.1524 H   0  0  0  0  0  0  0  0  0  0  0  0  # atno 10763 bound_to 10752
  154.3210  135.6209  153.5511 H   0  0  0  0  0  0  0  0  0  0  0  0  # atno 10764 bound_to 10752
  152.9883  135.5742  154.5286 H   0  0  0  0  0  0  0  0  0  0  0  0  # atno 10765 bound_to 10752
  140.9765  134.0733  157.3813 H   0  0  0  0  0  0  0  0  0  0  0  0  # atno 11005 bound_to 11000
  146.0661  140.7919  142.9711 LP  0  0  0  0  0  0  0  0  0  0  0  0  # atno 17320 bound_to 7965
  144.6927  140.3271  143.7222 LP  0  0  0  0  0  0  0  0  0  0  0  0  # atno 17321 bound_to 7965
  139.4804  144.5032  151.9033 LP  0  0  0  0  0  0  0  0  0  0  0  0  # atno 17342 bound_to 10162
  140.4118  144.2359  150.5888 LP  0  0  0  0  0  0  0  0  0  0  0  0  # atno 17343 bound_to 10162
  157.5977  130.8489  149.8754 LP  0  0  0  0  0  0  0  0  0  0  0  0  # atno 17370 bound_to 10713
  156.0543  130.3711  150.1127 LP  0  0  0  0  0  0  0  0  0  0  0  0  # atno 17371 bound_to 10713
  139.8932  135.0129  156.6889 LP  0  0  0  0  0  0  0  0  0  0  0  0  # atno 17394 bound_to 11000
  140.7251  133.9107  155.8173 LP  0  0  0  0  0  0  0  0  0  0  0  0  # atno 17395 bound_to 11000

$$$$
