AV-unprocessed.smi:2998|AV-procd|sdf|11416|dock6
  -GOLD-   2272016343D 1   1.00000     0.00000
 Structure written by MMmdl.
 41 43  0  0  0  0  0  0  0  0  1 V2000
  148.1759  137.8565  156.5413 O   0  0  0  0  0  0  0  0  0  0  0  0
  148.5760  137.8108  155.3772 C   0  0  0  0  0  0  0  0  0  0  0  0
  149.1032  139.0712  154.6752 C   0  0  0  0  0  0  0  0  0  0  0  0
  149.6841  140.0593  155.6030 N   0  0  0  0  0  0  0  0  0  0  0  0
  148.7863  140.7272  156.4589 C   0  0  0  0  0  0  0  0  0  0  0  0
  149.1903  141.6076  157.3182 N   0  0  0  0  0  0  0  0  0  0  0  0
  150.5519  141.9196  157.4076 C   0  0  0  0  0  0  0  0  0  0  0  0
  150.9708  142.9785  158.4182 C   0  0  0  0  0  0  0  0  0  0  0  0
  151.7507  144.1829  157.8636 C   0  0  0  0  0  0  0  0  0  0  0  0
  152.6094  144.1280  159.1321 C   0  0  0  0  0  0  0  0  0  0  0  0
  152.2202  142.6503  159.2518 C   0  0  0  0  0  0  0  0  0  0  0  0
  151.4518  141.3142  156.5968 C   0  0  0  0  0  0  0  0  0  0  0  0
  151.0264  140.3107  155.6212 C   0  0  0  0  0  0  0  0  0  0  0  0
  151.8174  139.7347  154.8739 O   0  0  0  0  0  0  0  0  0  0  0  0
  148.5978  136.6829  154.6518 N   0  0  0  0  0  0  0  0  0  0  0  0
  148.1391  135.3765  155.1160 C   0  0  0  0  0  0  0  0  0  0  0  0
  149.2640  134.3342  154.9845 C   0  0  0  0  0  0  0  0  0  0  0  0
  148.8792  133.4532  153.7961 C   0  0  0  0  0  0  0  0  0  0  0  0
  147.3544  133.4342  153.8281 C   0  0  0  0  0  0  0  0  0  0  0  0
  146.9648  134.8485  154.2641 C   0  0  0  0  0  0  0  0  0  0  0  0
  149.8243  138.7590  153.9175 H   0  0  0  0  0  0  0  0  0  0  0  0
  148.2894  139.5346  154.1139 H   0  0  0  0  0  0  0  0  0  0  0  0
  147.7358  140.4543  156.3442 H   0  0  0  0  0  0  0  0  0  0  0  0
  150.1343  143.2906  159.0462 H   0  0  0  0  0  0  0  0  0  0  0  0
  152.3273  143.9569  156.9645 H   0  0  0  0  0  0  0  0  0  0  0  0
  151.1630  145.0941  157.7484 H   0  0  0  0  0  0  0  0  0  0  0  0
  153.6726  144.3099  158.9732 H   0  0  0  0  0  0  0  0  0  0  0  0
  152.2089  144.7390  159.9427 H   0  0  0  0  0  0  0  0  0  0  0  0
  152.0160  142.3114  160.2678 H   0  0  0  0  0  0  0  0  0  0  0  0
  152.9242  141.9916  158.7397 H   0  0  0  0  0  0  0  0  0  0  0  0
  152.4997  141.5674  156.6664 H   0  0  0  0  0  0  0  0  0  0  0  0
  148.9465  136.7334  153.7054 H   0  0  0  0  0  0  0  0  0  0  0  0
  147.8450  135.4487  156.1648 H   0  0  0  0  0  0  0  0  0  0  0  0
  150.2549  134.7754  154.8672 H   0  0  0  0  0  0  0  0  0  0  0  0
  149.2923  133.7220  155.8868 H   0  0  0  0  0  0  0  0  0  0  0  0
  149.2215  133.9145  152.8689 H   0  0  0  0  0  0  0  0  0  0  0  0
  149.3143  132.4551  153.8538 H   0  0  0  0  0  0  0  0  0  0  0  0
  146.9171  133.1547  152.8690 H   0  0  0  0  0  0  0  0  0  0  0  0
  147.0135  132.7131  154.5721 H   0  0  0  0  0  0  0  0  0  0  0  0
  146.0238  134.8573  154.8148 H   0  0  0  0  0  0  0  0  0  0  0  0
  146.8214  135.4676  153.3768 H   0  0  0  0  0  0  0  0  0  0  0  0
  1  2  2  0  0  0  0
  2  3  1  0  0  0  0
  2 15  1  0  0  0  0
  3  4  1  0  0  0  0
  3 21  1  0  0  0  0
  3 22  1  0  0  0  0
  4 13  1  0  0  0  0
  4  5  1  0  0  0  0
  5  6  2  0  0  0  0
  5 23  1  0  0  0  0
  6  7  1  0  0  0  0
  7  8  1  0  0  0  0
  7 12  2  0  0  0  0
  8 11  1  0  0  0  0
  8  9  1  0  0  0  0
  8 24  1  0  0  0  0
  9 10  1  0  0  0  0
  9 25  1  0  0  0  0
  9 26  1  0  0  0  0
 10 11  1  0  0  0  0
 10 27  1  0  0  0  0
 10 28  1  0  0  0  0
 11 29  1  0  0  0  0
 11 30  1  0  0  0  0
 12 13  1  0  0  0  0
 12 31  1  0  0  0  0
 13 14  2  0  0  0  0
 15 16  1  0  0  0  0
 15 32  1  0  0  0  0
 16 20  1  0  0  0  0
 16 17  1  0  0  0  0
 16 33  1  0  0  0  0
 17 18  1  0  0  0  0
 17 34  1  0  0  0  0
 17 35  1  0  0  0  0
 18 19  1  0  0  0  0
 18 36  1  0  0  0  0
 18 37  1  0  0  0  0
 19 20  1  0  0  0  0
 19 38  1  0  0  0  0
 19 39  1  0  0  0  0
 20 40  1  0  0  0  0
 20 41  1  0  0  0  0
M  END
> <s_m_source_file>
AV-unprocessed.smi

> <i_m_source_file_index>
2998

> <i_lp_mmshare_version>
43012

> <i_f3d_flags>
0

> <s_epik_input>
W0NIMl0xW0NIMl1bQ0gyXVtDSDJdW0NIXTFbTkhdQyg9TylbQ0gyXW4yW2NIXW5jKFtjSF1jMj1PKVtDSF0zW0NIMl1bQ0gyXVtDSDJdMw==

> <s_epik_cmdline>
J2VwaWtfcHl0aG9uJywgJy1waCcsICc3LjAnLCAnLXRuJywgJzgnLCAnLW1hJywgJzIwMCcsICctbWV0YWxfYmluZGluZycsICctaW1hZScsICc8aW5maWxlLm1hZT4nLCAnLW9tYWUnLCAnPG91dGZpbGUubWFlPic=

> <r_lp_tautomer_probability>
1

> <r_epik_Ionization_Penalty>
7.51496e-06

> <r_epik_Ionization_Penalty_Charging>
8.69507e-09

> <r_epik_Ionization_Penalty_Neutral>
7.50627e-06

> <r_epik_State_Penalty>
-0

> <r_epik_Charging_Adjusted_Penalty>
8.69507e-09

> <i_epik_Tot_Q>
0

> <i_epik_Tot_abs_Q>
0

> <r_epik_Metal_State_Penalty>
-0

> <b_epik_Metal_Only>
0

> <s_lp_Force_Field>
OPLS_2005

> <r_lp_Energy>
32.6408

> <b_lp_Chiralities_Consistent>
1

> <s_lp_Variant>
AV-unprocessed.smi:2998-1

> <Gold.Version>
5.8.1

> <Gold.Id.Protein>
6NUR|6NUR_protein|mol2

> <Gold.PLP.Fitness>
40.5139

> <Gold.PLP.PLP>
-35.6688

> <Gold.PLP.part.hbond>
-1.8951

> <Gold.PLP.part.metal>
0.0000

> <Gold.PLP.part.buried>
-3.9904

> <Gold.PLP.part.nonpolar>
-30.0052

> <Gold.PLP.part.repulsive>
0.1532

> <Gold.PLP.ligand.clash>
0.0000

> <Gold.PLP.ligand.torsion>
0.6822

> <Gold.PLP.Chemscore.Hbond>
1.9440

> <Gold.PLP.Chemscore.CHOScore>
0.0000

> <Gold.PLP.Chemscore.Metal>
0.0000

> <Gold.Chemscore.Hbonds>
donor molecule, donor type, donor heavy atom, donor atom, acceptor molecule, acceptor atom, score
      L1  H    15    32       P1  7948  1.00
      P1  H  7989  7998       L1    14  0.85

> <Gold.PLP.Chemscore.Internal.Correction>
0.3775

> <Gold.Rescore>
     Score         DG    S(hbond)    S(metal)    S(lipo)     H(rot)  DE(clash)    DE(int)     intcor
     15.65     -17.48       1.92        0.00      83.51       1.63       0.01       1.82       ----

> <Gold.Chemscore.Fitness>
15.6510

> <Gold.Chemscore.DG>
-17.4773

> <Gold.Chemscore.ZeroCoef>
-5.4800

> <Gold.Chemscore.Hbond>
1.9151

> <Gold.Chemscore.Metal>
0.0000

> <Gold.Chemscore.Lipo>
83.5143

> <Gold.Chemscore.Internal_Hbond>
0.0000

> <Gold.Chemscore.DEClash>
0.0077

> <Gold.Chemscore.DEInternal>
1.8186

> <Gold.Chemscore.Rot>
1.6290

> <Gold.Chemscore.Internal.Correction>
   9.000000E+99

> <Gold.Chemscore.Hbonds>
donor molecule, donor type, donor heavy atom, donor atom, acceptor molecule, acceptor atom, score
      L1  H    15    32       P1  7948  0.97
      P1  H  7989  7998       L1    14  0.14

> <Gold.Chemscore.Hbond.Weighted>
-6.3963

> <Gold.Chemscore.Metal.Weighted>
-0.0000

> <Gold.Chemscore.Lipo.Weighted>
-9.7712

> <Gold.Chemscore.Internal_Hbond.Weighted>
0.0000

> <Gold.Chemscore.DEClash.Weighted>
0.0077

> <Gold.Chemscore.DEInternal.Weighted>
1.8186

> <Gold.Chemscore.Rot.Weighted>
4.1702

> <Gold.Chemscore.Internal.Correction.Weighted>
   9.000000E+99

> <Gold.Protein.RotatedTorsions>
[ 6907 6896 6895 6894 ] final  168.74 input  -60.11 | X-H torsion
[ 7974 7965 7964 7962 ] final   59.11 input  175.53 | X-H torsion
[ 8008 7997 7996 7995 ] final   75.53 input   59.86 | X-H torsion
[ 10167 10162 10161 10158 ] final -140.62 input  -65.29 | X-H torsion
[ 10718 10713 10712 10709 ] final  -53.03 input   66.30 | X-H torsion
[ 10763 10752 10751 10750 ] final -155.82 input  -60.55 | X-H torsion
[ 11005 11000 10999 10996 ] final  120.59 input  -57.11 | X-H torsion

> <Gold.Protein.ActiveResidues>
 VAL166  LYS551  ARG553  GLY616  TRP617  ASP618  TYR619  PRO620  LYS621  CYS622 
 ASP623  PHE694  ASN695  SER759  ASP760  ASP761  ALA762  ILE779  LEU786  VAL792 
 PHE793  MET794  SER795  GLU796  ALA797  LYS798  CYS799  TRP800  GLU811  SER814 

> <Gold.Protein.RotatedAtoms>
  151.8429  133.3426  159.3648 H   0  0  0  0  0  0  0  0  0  0  0  0  # atno 6907 bound_to 6896
  150.7229  134.5374  159.5739 H   0  0  0  0  0  0  0  0  0  0  0  0  # atno 6908 bound_to 6896
  152.2851  134.7786  160.0440 H   0  0  0  0  0  0  0  0  0  0  0  0  # atno 6909 bound_to 6896
  145.9108  139.3652  143.0537 H   0  0  0  0  0  0  0  0  0  0  0  0  # atno 7974 bound_to 7965
  155.8142  140.3472  155.5475 H   0  0  0  0  0  0  0  0  0  0  0  0  # atno 8008 bound_to 7997
  155.8409  140.0941  157.1755 H   0  0  0  0  0  0  0  0  0  0  0  0  # atno 8009 bound_to 7997
  154.4005  140.1394  156.3715 H   0  0  0  0  0  0  0  0  0  0  0  0  # atno 8010 bound_to 7997
  139.8264  143.7506  152.2666 H   0  0  0  0  0  0  0  0  0  0  0  0  # atno 10167 bound_to 10162
  156.1570  130.4150  149.9853 H   0  0  0  0  0  0  0  0  0  0  0  0  # atno 10718 bound_to 10713
  154.7759  135.3159  154.8093 H   0  0  0  0  0  0  0  0  0  0  0  0  # atno 10763 bound_to 10752
  153.8817  135.6834  153.4771 H   0  0  0  0  0  0  0  0  0  0  0  0  # atno 10764 bound_to 10752
  153.1382  135.4750  154.9391 H   0  0  0  0  0  0  0  0  0  0  0  0  # atno 10765 bound_to 10752
  139.9191  134.9635  156.7829 H   0  0  0  0  0  0  0  0  0  0  0  0  # atno 11005 bound_to 11000
  145.8674  140.9440  143.0668 LP  0  0  0  0  0  0  0  0  0  0  0  0  # atno 17320 bound_to 7965
  144.6743  140.0610  143.7476 LP  0  0  0  0  0  0  0  0  0  0  0  0  # atno 17321 bound_to 7965
  139.7700  144.7480  151.0239 LP  0  0  0  0  0  0  0  0  0  0  0  0  # atno 17342 bound_to 10162
  140.7810  143.4656  151.0217 LP  0  0  0  0  0  0  0  0  0  0  0  0  # atno 17343 bound_to 10162
  156.7693  130.9180  151.3644 LP  0  0  0  0  0  0  0  0  0  0  0  0  # atno 17370 bound_to 10713
  157.6703  130.9045  150.0025 LP  0  0  0  0  0  0  0  0  0  0  0  0  # atno 17371 bound_to 10713
  140.6529  133.9715  155.7764 LP  0  0  0  0  0  0  0  0  0  0  0  0  # atno 17394 bound_to 11000
  141.0696  134.0226  157.3545 LP  0  0  0  0  0  0  0  0  0  0  0  0  # atno 17395 bound_to 11000

$$$$
