AV-unprocessed.smi:111|AV-procd|sdf|1080|dock4
  -GOLD-   2262018173D 1   1.00000     0.00000
 Structure written by MMmdl.
 46 48  0  0  0  0  0  0  0  0  1 V2000
  151.7051  135.4272  155.7819 O   0  0  0  0  0  0  0  0  0  0  0  0
  151.0225  135.7358  156.7603 C   0  0  0  0  0  0  0  0  0  0  0  0
  149.9451  134.9008  157.2788 C   0  0  0  0  0  0  0  0  0  0  0  0
  149.6510  133.7401  156.6689 F   0  0  0  0  0  0  0  0  0  0  0  0
  149.2310  135.2775  158.3608 C   0  0  0  0  0  0  0  0  0  0  0  0
  149.4647  136.4569  159.0465 N   0  0  0  0  0  0  0  0  0  0  0  0
  148.6398  136.8304  160.2573 C   0  0  1  0  0  0  0  0  0  0  0  0
  147.4853  135.8391  160.4431 C   0  0  0  0  0  0  0  0  0  0  0  0
  148.0452  134.8935  161.4839 C   0  0  0  0  0  0  0  0  0  0  0  0
  148.8973  135.8349  162.3259 C   0  0  0  0  0  0  0  0  0  0  0  0
  149.4495  136.7615  161.3958 O   0  0  0  0  0  0  0  0  0  0  0  0
  150.4705  137.3417  158.5994 C   0  0  0  0  0  0  0  0  0  0  0  0
  150.6632  138.4148  159.1753 O   0  0  0  0  0  0  0  0  0  0  0  0
  151.2261  136.9472  157.4676 N   0  0  0  0  0  0  0  0  0  0  0  0
  152.2707  137.8377  156.9769 C   0  0  0  0  0  0  0  0  0  0  0  0
  151.7472  139.1782  156.4095 C   0  0  2  0  0  0  0  0  0  0  0  0
  152.4032  139.4279  155.1834 O   0  0  0  0  0  0  0  0  0  0  0  0
  151.9392  140.3966  157.3439 C   0  0  0  0  0  0  0  0  0  0  0  0
  151.1353  141.6361  156.9148 C   0  0  0  0  0  0  0  0  0  0  0  0
  151.3408  142.8181  157.8479 C   0  0  0  0  0  0  0  0  0  0  0  0
  152.0371  142.6572  159.0647 C   0  0  0  0  0  0  0  0  0  0  0  0
  152.2436  143.7617  159.9138 C   0  0  0  0  0  0  0  0  0  0  0  0
  151.7490  145.0300  159.5536 C   0  0  0  0  0  0  0  0  0  0  0  0
  151.0468  145.1929  158.3443 C   0  0  0  0  0  0  0  0  0  0  0  0
  150.8443  144.0899  157.4928 C   0  0  0  0  0  0  0  0  0  0  0  0
  148.4409  134.6213  158.6939 H   0  0  0  0  0  0  0  0  0  0  0  0
  148.3149  137.8611  160.1085 H   0  0  0  0  0  0  0  0  0  0  0  0
  146.6254  136.3785  160.8417 H   0  0  0  0  0  0  0  0  0  0  0  0
  147.1964  135.3569  159.5091 H   0  0  0  0  0  0  0  0  0  0  0  0
  147.2722  134.3850  162.0605 H   0  0  0  0  0  0  0  0  0  0  0  0
  148.6739  134.1381  161.0125 H   0  0  0  0  0  0  0  0  0  0  0  0
  148.2746  136.3788  163.0374 H   0  0  0  0  0  0  0  0  0  0  0  0
  149.6768  135.3141  162.8822 H   0  0  0  0  0  0  0  0  0  0  0  0
  153.0072  137.9989  157.7645 H   0  0  0  0  0  0  0  0  0  0  0  0
  152.8046  137.2712  156.2109 H   0  0  0  0  0  0  0  0  0  0  0  0
  150.6943  139.0659  156.1569 H   0  0  0  0  0  0  0  0  0  0  0  0
  152.3865  138.6367  154.6671 H   0  0  0  0  0  0  0  0  0  0  0  0
  151.6613  140.1498  158.3664 H   0  0  0  0  0  0  0  0  0  0  0  0
  152.9972  140.6571  157.4016 H   0  0  0  0  0  0  0  0  0  0  0  0
  151.4395  141.9372  155.9119 H   0  0  0  0  0  0  0  0  0  0  0  0
  150.0743  141.3916  156.8501 H   0  0  0  0  0  0  0  0  0  0  0  0
  152.4249  141.6890  159.3457 H   0  0  0  0  0  0  0  0  0  0  0  0
  152.7833  143.6361  160.8408 H   0  0  0  0  0  0  0  0  0  0  0  0
  151.9088  145.8770  160.2044 H   0  0  0  0  0  0  0  0  0  0  0  0
  150.6651  146.1641  158.0685 H   0  0  0  0  0  0  0  0  0  0  0  0
  150.3108  144.2225  156.5631 H   0  0  0  0  0  0  0  0  0  0  0  0
  1  2  2  0  0  0  0
  2 14  1  0  0  0  0
  2  3  1  0  0  0  0
  3  4  1  0  0  0  0
  3  5  2  0  0  0  0
  5  6  1  0  0  0  0
  5 26  1  0  0  0  0
  6  7  1  0  0  0  0
  6 12  1  0  0  0  0
  7 11  1  0  0  0  0
  7  8  1  0  0  0  0
  7 27  1  0  0  0  0
  8  9  1  0  0  0  0
  8 28  1  0  0  0  0
  8 29  1  0  0  0  0
  9 10  1  0  0  0  0
  9 30  1  0  0  0  0
  9 31  1  0  0  0  0
 10 11  1  0  0  0  0
 10 32  1  0  0  0  0
 10 33  1  0  0  0  0
 12 13  2  0  0  0  0
 12 14  1  0  0  0  0
 14 15  1  0  0  0  0
 15 16  1  0  0  0  0
 15 34  1  0  0  0  0
 15 35  1  0  0  0  0
 16 17  1  0  0  0  0
 16 18  1  0  0  0  0
 16 36  1  0  0  0  0
 17 37  1  0  0  0  0
 18 19  1  0  0  0  0
 18 38  1  0  0  0  0
 18 39  1  0  0  0  0
 19 20  1  0  0  0  0
 19 40  1  0  0  0  0
 19 41  1  0  0  0  0
 20 25  1  0  0  0  0
 20 21  2  0  0  0  0
 21 22  1  0  0  0  0
 21 42  1  0  0  0  0
 22 23  2  0  0  0  0
 22 43  1  0  0  0  0
 23 24  1  0  0  0  0
 23 44  1  0  0  0  0
 24 25  2  0  0  0  0
 24 45  1  0  0  0  0
 25 46  1  0  0  0  0
M  END
> <s_m_source_file>
AV-unprocessed.smi

> <i_m_source_file_index>
111

> <i_lp_mmshare_version>
43012

> <i_f3d_flags>
0

> <s_epik_input>
TzFbQ0gyXVtDSDJdW0NIMl1bQ0BIXTFuKFtjSF1jKEYpYzI9TyljKD1PKW4yW0NIMl1bQ0BIXShbT0hdKVtDSDJdW0NIMl1jM1tjSF1bY0hdW2NIXVtjSF1bY0hdMw==

> <s_epik_cmdline>
J2VwaWtfcHl0aG9uJywgJy1waCcsICc3LjAnLCAnLXRuJywgJzgnLCAnLW1hJywgJzIwMCcsICctbWV0YWxfYmluZGluZycsICctaW1hZScsICc8aW5maWxlLm1hZT4nLCAnLW9tYWUnLCAnPG91dGZpbGUubWFlPic=

> <r_lp_tautomer_probability>
1

> <r_epik_Ionization_Penalty>
1.88248e-07

> <r_epik_Ionization_Penalty_Charging>
4.03974e-08

> <r_epik_Ionization_Penalty_Neutral>
1.47851e-07

> <r_epik_State_Penalty>
-0

> <r_epik_Charging_Adjusted_Penalty>
4.03974e-08

> <i_epik_Tot_Q>
0

> <i_epik_Tot_abs_Q>
0

> <r_epik_Metal_State_Penalty>
-0

> <b_epik_Metal_Only>
0

> <s_epik_Chemistry_Notes>
This compound contains an acetal/aminal-like group ( X-CH(R)-Y where X, Y are N, S, or O) that may be acid/base labile, releasing an aldehyde.

> <s_lp_Force_Field>
OPLS_2005

> <r_lp_Energy>
34.7798

> <b_lp_Chiralities_Consistent>
1

> <s_lp_Variant>
AV-unprocessed.smi:111-2

> <Gold.Version>
5.8.1

> <Gold.Id.Protein>
6NUR|6NUR_protein|mol2

> <Gold.PLP.Fitness>
50.5271

> <Gold.PLP.PLP>
-43.4103

> <Gold.PLP.part.hbond>
-4.0000

> <Gold.PLP.part.metal>
0.0000

> <Gold.PLP.part.buried>
-6.1009

> <Gold.PLP.part.nonpolar>
-33.9925

> <Gold.PLP.part.repulsive>
0.0248

> <Gold.PLP.ligand.clash>
0.0000

> <Gold.PLP.ligand.torsion>
0.9804

> <Gold.PLP.Chemscore.Hbond>
3.0000

> <Gold.PLP.Chemscore.CHOScore>
0.0000

> <Gold.PLP.Chemscore.Metal>
0.0000

> <Gold.Chemscore.Hbonds>
donor molecule, donor type, donor heavy atom, donor atom, acceptor molecule, acceptor atom, score
      P1  H  6931  6943       L1    11  0.64
      P1  H  7989  7998       L1    17  0.17
      P1  H  7997  8008       L1    17  0.22
      P1  H 10752 10764       L1     1  1.00

> <Gold.PLP.Chemscore.Internal.Correction>
0.0777

> <Gold.Rescore>
     Score         DG    S(hbond)    S(metal)    S(lipo)     H(rot)  DE(clash)    DE(int)     intcor
     18.46     -20.60       2.69        0.00     111.01       2.67       0.08       2.07       ----

> <Gold.Chemscore.Fitness>
18.4607

> <Gold.Chemscore.DG>
-20.6027

> <Gold.Chemscore.ZeroCoef>
-5.4800

> <Gold.Chemscore.Hbond>
2.6888

> <Gold.Chemscore.Metal>
0.0000

> <Gold.Chemscore.Lipo>
111.0107

> <Gold.Chemscore.Internal_Hbond>
0.0000

> <Gold.Chemscore.DEClash>
0.0754

> <Gold.Chemscore.DEInternal>
2.0666

> <Gold.Chemscore.Rot>
2.6743

> <Gold.Chemscore.Internal.Correction>
   9.000000E+99

> <Gold.Chemscore.Hbonds>
donor molecule, donor type, donor heavy atom, donor atom, acceptor molecule, acceptor atom, score
      P1  H  6931  6943       L1    11  0.05
      P1  H  7989  7998       L1    17  0.03
      P1  H  7997  8008       L1    17  0.02
      P1  H 10752 10764       L1     1  0.97

> <Gold.Chemscore.Hbond.Weighted>
-8.9807

> <Gold.Chemscore.Metal.Weighted>
-0.0000

> <Gold.Chemscore.Lipo.Weighted>
-12.9883

> <Gold.Chemscore.Internal_Hbond.Weighted>
0.0000

> <Gold.Chemscore.DEClash.Weighted>
0.0754

> <Gold.Chemscore.DEInternal.Weighted>
2.0666

> <Gold.Chemscore.Rot.Weighted>
6.8463

> <Gold.Chemscore.Internal.Correction.Weighted>
   9.000000E+99

> <Gold.Protein.RotatedTorsions>
[ 6907 6896 6895 6894 ] final  -25.81 input  -60.11 | X-H torsion
[ 7974 7965 7964 7962 ] final   40.18 input  175.53 | X-H torsion
[ 8008 7997 7996 7995 ] final  -35.70 input   59.86 | X-H torsion
[ 10167 10162 10161 10158 ] final -129.08 input  -65.29 | X-H torsion
[ 10718 10713 10712 10709 ] final -177.48 input   66.30 | X-H torsion
[ 10763 10752 10751 10750 ] final  -48.03 input  -60.55 | X-H torsion
[ 11005 11000 10999 10996 ] final   77.72 input  -57.11 | X-H torsion

> <Gold.Protein.ActiveResidues>
 VAL166  LYS551  ARG553  GLY616  TRP617  ASP618  TYR619  PRO620  LYS621  CYS622 
 ASP623  PHE694  ASN695  SER759  ASP760  ASP761  ALA762  ILE779  LEU786  VAL792 
 PHE793  MET794  SER795  GLU796  ALA797  LYS798  CYS799  TRP800  GLU811  SER814 

> <Gold.Protein.RotatedAtoms>
  151.1699  135.0313  159.8746 H   0  0  0  0  0  0  0  0  0  0  0  0  # atno 6907 bound_to 6896
  152.5449  134.1182  159.8398 H   0  0  0  0  0  0  0  0  0  0  0  0  # atno 6908 bound_to 6896
  151.1287  133.5006  159.2632 H   0  0  0  0  0  0  0  0  0  0  0  0  # atno 6909 bound_to 6896
  146.0925  139.5563  142.9466 H   0  0  0  0  0  0  0  0  0  0  0  0  # atno 7974 bound_to 7965
  154.4089  140.1650  156.2254 H   0  0  0  0  0  0  0  0  0  0  0  0  # atno 8008 bound_to 7997
  155.9328  140.3413  155.6240 H   0  0  0  0  0  0  0  0  0  0  0  0  # atno 8009 bound_to 7997
  155.7086  140.0754  157.2371 H   0  0  0  0  0  0  0  0  0  0  0  0  # atno 8010 bound_to 7997
  139.9435  143.6136  152.2496 H   0  0  0  0  0  0  0  0  0  0  0  0  # atno 10167 bound_to 10162
  156.8301  130.9650  151.3107 H   0  0  0  0  0  0  0  0  0  0  0  0  # atno 10718 bound_to 10713
  154.0711  135.6604  153.4824 H   0  0  0  0  0  0  0  0  0  0  0  0  # atno 10763 bound_to 10752
  153.0390  135.5157  154.7566 H   0  0  0  0  0  0  0  0  0  0  0  0  # atno 10764 bound_to 10752
  154.6632  135.3018  154.9807 H   0  0  0  0  0  0  0  0  0  0  0  0  # atno 10765 bound_to 10752
  139.9242  134.7706  156.1558 H   0  0  0  0  0  0  0  0  0  0  0  0  # atno 11005 bound_to 11000
  145.6011  141.0355  143.2018 LP  0  0  0  0  0  0  0  0  0  0  0  0  # atno 17320 bound_to 7965
  144.7371  139.7555  143.7325 LP  0  0  0  0  0  0  0  0  0  0  0  0  # atno 17321 bound_to 7965
  139.6685  144.7661  151.1827 LP  0  0  0  0  0  0  0  0  0  0  0  0  # atno 17342 bound_to 10162
  140.7604  143.5901  150.8805 LP  0  0  0  0  0  0  0  0  0  0  0  0  # atno 17343 bound_to 10162
  157.6411  130.8806  149.9450 LP  0  0  0  0  0  0  0  0  0  0  0  0  # atno 17370 bound_to 10713
  156.0939  130.3661  150.0343 LP  0  0  0  0  0  0  0  0  0  0  0  0  # atno 17371 bound_to 10713
  141.0788  133.6763  156.2292 LP  0  0  0  0  0  0  0  0  0  0  0  0  # atno 17394 bound_to 11000
  140.6383  134.5192  157.5567 LP  0  0  0  0  0  0  0  0  0  0  0  0  # atno 17395 bound_to 11000

$$$$
