AV-unprocessed.smi:1075|AV-procd|sdf|4693|dock2
  -GOLD-   22720 3213D 1   1.00000     0.00000
 Structure written by MMmdl.
 50 51  0  0  0  0  0  0  0  0  1 V2000
  151.6754  138.9839  158.0170 C   0  0  0  0  0  0  0  0  0  0  0  0
  152.1211  140.1548  158.8456 C   0  0  0  0  0  0  0  0  0  0  0  0
  152.8939  139.9455  159.8974 N   0  0  0  0  0  0  0  0  0  0  0  0
  153.1023  141.1697  160.4195 N   0  0  0  0  0  0  0  0  0  0  0  0
  153.9235  141.3040  161.6072 C   0  0  0  0  0  0  0  0  0  0  0  0
  152.4566  142.1558  159.6989 C   0  0  0  0  0  0  0  0  0  0  0  0
  152.5298  143.5962  160.0972 C   0  0  0  0  0  0  0  0  0  0  0  0
  151.8098  141.5345  158.6597 C   0  0  0  0  0  0  0  0  0  0  0  0
  150.9442  142.1231  157.5609 C   0  0  2  0  0  0  0  0  0  0  0  0
  151.1579  143.6432  157.4301 C   0  0  0  0  0  0  0  0  0  0  0  0
  149.4671  141.7353  157.7647 C   0  0  0  0  0  0  0  0  0  0  0  0
  149.1342  141.0195  158.7093 O   0  0  0  0  0  0  0  0  0  0  0  0
  148.5944  142.2335  156.8692 N   0  0  0  0  0  0  0  0  0  0  0  0
  147.1403  142.0443  156.7877 C   0  0  1  0  0  0  0  0  0  0  0  0
  146.4442  142.7991  157.9410 C   0  0  0  0  0  0  0  0  0  0  0  0
  146.5864  142.5114  155.4166 C   0  0  0  0  0  0  0  0  0  0  0  0
  147.1427  141.6901  154.2389 C   0  0  0  0  0  0  0  0  0  0  0  0
  146.8653  140.1863  154.4180 C   0  0  1  0  0  0  0  0  0  0  0  0
  147.4337  139.3668  153.2512 C   0  0  0  0  0  0  0  0  0  0  0  0
  147.4123  139.6953  155.7707 C   0  0  0  0  0  0  0  0  0  0  0  0
  146.8609  140.5302  156.9422 C   0  0  0  0  0  0  0  0  0  0  0  0
  150.5872  138.9209  157.9889 H   0  0  0  0  0  0  0  0  0  0  0  0
  152.0510  138.0396  158.4131 H   0  0  0  0  0  0  0  0  0  0  0  0
  152.0303  139.0767  156.9903 H   0  0  0  0  0  0  0  0  0  0  0  0
  154.7017  142.0470  161.4330 H   0  0  0  0  0  0  0  0  0  0  0  0
  154.3966  140.3537  161.8590 H   0  0  0  0  0  0  0  0  0  0  0  0
  153.3046  141.6248  162.4453 H   0  0  0  0  0  0  0  0  0  0  0  0
  151.7708  144.1910  159.5907 H   0  0  0  0  0  0  0  0  0  0  0  0
  153.5053  144.0149  159.8495 H   0  0  0  0  0  0  0  0  0  0  0  0
  152.3724  143.7137  161.1695 H   0  0  0  0  0  0  0  0  0  0  0  0
  151.2241  141.6872  156.6013 H   0  0  0  0  0  0  0  0  0  0  0  0
  150.8701  144.1762  158.3364 H   0  0  0  0  0  0  0  0  0  0  0  0
  150.5797  144.0578  156.6037 H   0  0  0  0  0  0  0  0  0  0  0  0
  152.2064  143.8694  157.2345 H   0  0  0  0  0  0  0  0  0  0  0  0
  148.9911  142.8109  156.1418 H   0  0  0  0  0  0  0  0  0  0  0  0
  145.3758  142.5822  157.9648 H   0  0  0  0  0  0  0  0  0  0  0  0
  146.5457  143.8798  157.8457 H   0  0  0  0  0  0  0  0  0  0  0  0
  146.8576  142.5127  158.9089 H   0  0  0  0  0  0  0  0  0  0  0  0
  145.4991  142.4223  155.4198 H   0  0  0  0  0  0  0  0  0  0  0  0
  146.7910  143.5693  155.2526 H   0  0  0  0  0  0  0  0  0  0  0  0
  146.6933  142.0410  153.3092 H   0  0  0  0  0  0  0  0  0  0  0  0
  148.2154  141.8620  154.1414 H   0  0  0  0  0  0  0  0  0  0  0  0
  145.7836  140.0438  154.4231 H   0  0  0  0  0  0  0  0  0  0  0  0
  148.5183  139.4629  153.1901 H   0  0  0  0  0  0  0  0  0  0  0  0
  147.0161  139.6970  152.2997 H   0  0  0  0  0  0  0  0  0  0  0  0
  147.1987  138.3079  153.3640 H   0  0  0  0  0  0  0  0  0  0  0  0
  147.1486  138.6475  155.9183 H   0  0  0  0  0  0  0  0  0  0  0  0
  148.5025  139.7351  155.7670 H   0  0  0  0  0  0  0  0  0  0  0  0
  147.2827  140.1637  157.8793 H   0  0  0  0  0  0  0  0  0  0  0  0
  145.7852  140.3625  157.0127 H   0  0  0  0  0  0  0  0  0  0  0  0
  1  2  1  0  0  0  0
  1 22  1  0  0  0  0
  1 23  1  0  0  0  0
  1 24  1  0  0  0  0
  2  8  1  0  0  0  0
  2  3  2  0  0  0  0
  3  4  1  0  0  0  0
  4  5  1  0  0  0  0
  4  6  1  0  0  0  0
  5 25  1  0  0  0  0
  5 26  1  0  0  0  0
  5 27  1  0  0  0  0
  6  7  1  0  0  0  0
  6  8  2  0  0  0  0
  7 28  1  0  0  0  0
  7 29  1  0  0  0  0
  7 30  1  0  0  0  0
  8  9  1  0  0  0  0
  9 10  1  0  0  0  0
  9 11  1  0  0  0  0
  9 31  1  0  0  0  0
 10 32  1  0  0  0  0
 10 33  1  0  0  0  0
 10 34  1  0  0  0  0
 11 12  2  0  0  0  0
 11 13  1  0  0  0  0
 13 14  1  0  0  0  0
 13 35  1  0  0  0  0
 14 21  1  0  0  0  0
 14 15  1  0  0  0  0
 14 16  1  0  0  0  0
 15 36  1  0  0  0  0
 15 37  1  0  0  0  0
 15 38  1  0  0  0  0
 16 17  1  0  0  0  0
 16 39  1  0  0  0  0
 16 40  1  0  0  0  0
 17 18  1  0  0  0  0
 17 41  1  0  0  0  0
 17 42  1  0  0  0  0
 18 19  1  0  0  0  0
 18 20  1  0  0  0  0
 18 43  1  0  0  0  0
 19 44  1  0  0  0  0
 19 45  1  0  0  0  0
 19 46  1  0  0  0  0
 20 21  1  0  0  0  0
 20 47  1  0  0  0  0
 20 48  1  0  0  0  0
 21 49  1  0  0  0  0
 21 50  1  0  0  0  0
M  END
> <s_m_source_file>
AV-unprocessed.smi

> <i_m_source_file_index>
1075

> <i_lp_mmshare_version>
43012

> <i_f3d_flags>
0

> <s_epik_input>
W0NIM11jMW5uKFtDSDNdKWMoW0NIM10pYzFbQ0BIXShbQ0gzXSlDKD1PKVtOSF1bQ0BAXTIoW0NIM10pW0NIMl1bQ0gyXVtDQEBIXShbQ0gzXSlbQ0gyXVtDSDJdMg==

> <s_epik_cmdline>
J2VwaWtfcHl0aG9uJywgJy1waCcsICc3LjAnLCAnLXRuJywgJzgnLCAnLW1hJywgJzIwMCcsICctbWV0YWxfYmluZGluZycsICctaW1hZScsICc8aW5maWxlLm1hZT4nLCAnLW9tYWUnLCAnPG91dGZpbGUubWFlPic=

> <r_lp_tautomer_probability>
1

> <r_epik_Ionization_Penalty>
0.00502928

> <r_epik_Ionization_Penalty_Charging>
0

> <r_epik_Ionization_Penalty_Neutral>
0.00502928

> <r_epik_State_Penalty>
0.0036576

> <r_epik_Charging_Adjusted_Penalty>
0.0036576

> <i_epik_Tot_Q>
0

> <i_epik_Tot_abs_Q>
0

> <r_epik_Metal_State_Penalty>
-0

> <b_epik_Metal_Only>
0

> <s_lp_Force_Field>
OPLS_2005

> <r_lp_Energy>
4.57547

> <b_lp_Chiralities_Consistent>
1

> <s_lp_Variant>
AV-unprocessed.smi:1075-1

> <Gold.Version>
5.8.1

> <Gold.Id.Protein>
6NUR|6NUR_protein|mol2

> <Gold.PLP.Fitness>
37.0457

> <Gold.PLP.PLP>
-35.8766

> <Gold.PLP.part.hbond>
-2.2434

> <Gold.PLP.part.metal>
0.0000

> <Gold.PLP.part.buried>
2.2957

> <Gold.PLP.part.nonpolar>
-35.0826

> <Gold.PLP.part.repulsive>
0.0212

> <Gold.PLP.ligand.clash>
0.0117

> <Gold.PLP.ligand.torsion>
0.5823

> <Gold.PLP.Chemscore.Hbond>
0.7520

> <Gold.PLP.Chemscore.CHOScore>
0.0000

> <Gold.PLP.Chemscore.Metal>
0.0000

> <Gold.Chemscore.Hbonds>
donor molecule, donor type, donor heavy atom, donor atom, acceptor molecule, acceptor atom, score
      L1  H    13    35       P1  8028  0.70

> <Gold.PLP.Chemscore.Internal.Correction>
0.0894

> <Gold.Rescore>
     Score         DG    S(hbond)    S(metal)    S(lipo)     H(rot)  DE(clash)    DE(int)     intcor
     13.18     -16.46       0.91        0.00      94.81       1.23       0.39       2.90       ----

> <Gold.Chemscore.Fitness>
13.1800

> <Gold.Chemscore.DG>
-16.4636

> <Gold.Chemscore.ZeroCoef>
-5.4800

> <Gold.Chemscore.Hbond>
0.9118

> <Gold.Chemscore.Metal>
0.0000

> <Gold.Chemscore.Lipo>
94.8061

> <Gold.Chemscore.Internal_Hbond>
0.0000

> <Gold.Chemscore.DEClash>
0.3867

> <Gold.Chemscore.DEInternal>
2.8969

> <Gold.Chemscore.Rot>
1.2321

> <Gold.Chemscore.Internal.Correction>
   9.000000E+99

> <Gold.Chemscore.Hbonds>
donor molecule, donor type, donor heavy atom, donor atom, acceptor molecule, acceptor atom, score
      L1  H    13    35       P1  8028  0.69

> <Gold.Chemscore.Hbond.Weighted>
-3.0454

> <Gold.Chemscore.Metal.Weighted>
-0.0000

> <Gold.Chemscore.Lipo.Weighted>
-11.0923

> <Gold.Chemscore.Internal_Hbond.Weighted>
0.0000

> <Gold.Chemscore.DEClash.Weighted>
0.3867

> <Gold.Chemscore.DEInternal.Weighted>
2.8969

> <Gold.Chemscore.Rot.Weighted>
3.1541

> <Gold.Chemscore.Internal.Correction.Weighted>
   9.000000E+99

> <Gold.Protein.RotatedTorsions>
[ 6907 6896 6895 6894 ] final -115.75 input  -60.11 | X-H torsion
[ 7974 7965 7964 7962 ] final   83.31 input  175.53 | X-H torsion
[ 8008 7997 7996 7995 ] final  167.74 input   59.86 | X-H torsion
[ 10167 10162 10161 10158 ] final  -25.59 input  -65.29 | X-H torsion
[ 10718 10713 10712 10709 ] final  141.47 input   66.30 | X-H torsion
[ 10763 10752 10751 10750 ] final   88.96 input  -60.55 | X-H torsion
[ 11005 11000 10999 10996 ] final  132.42 input  -57.11 | X-H torsion

> <Gold.Protein.ActiveResidues>
 VAL166  LYS551  ARG553  GLY616  TRP617  ASP618  TYR619  PRO620  LYS621  CYS622 
 ASP623  PHE694  ASN695  SER759  ASP760  ASP761  ALA762  ILE779  LEU786  VAL792 
 PHE793  MET794  SER795  GLU796  ALA797  LYS798  CYS799  TRP800  GLU811  SER814 

> <Gold.Protein.RotatedAtoms>
  150.8002  133.8614  159.3232 H   0  0  0  0  0  0  0  0  0  0  0  0  # atno 6907 bound_to 6896
  151.6429  135.1009  160.0154 H   0  0  0  0  0  0  0  0  0  0  0  0  # atno 6908 bound_to 6896
  152.4088  133.6891  159.6415 H   0  0  0  0  0  0  0  0  0  0  0  0  # atno 6909 bound_to 6896
  145.6136  139.2373  143.2178 H   0  0  0  0  0  0  0  0  0  0  0  0  # atno 7974 bound_to 7965
  156.1608  140.1609  156.8616 H   0  0  0  0  0  0  0  0  0  0  0  0  # atno 8008 bound_to 7997
  154.5158  140.0790  156.8115 H   0  0  0  0  0  0  0  0  0  0  0  0  # atno 8009 bound_to 7997
  155.3712  140.3400  155.4245 H   0  0  0  0  0  0  0  0  0  0  0  0  # atno 8010 bound_to 7997
  140.7286  143.4251  151.0889 H   0  0  0  0  0  0  0  0  0  0  0  0  # atno 10167 bound_to 10162
  157.3916  131.1005  151.0640 H   0  0  0  0  0  0  0  0  0  0  0  0  # atno 10718 bound_to 10713
  153.1821  135.4488  155.0042 H   0  0  0  0  0  0  0  0  0  0  0  0  # atno 10763 bound_to 10752
  154.8037  135.3266  154.7488 H   0  0  0  0  0  0  0  0  0  0  0  0  # atno 10764 bound_to 10752
  153.7951  135.6967  153.4920 H   0  0  0  0  0  0  0  0  0  0  0  0  # atno 10765 bound_to 10752
  139.9789  134.9554  156.9580 H   0  0  0  0  0  0  0  0  0  0  0  0  # atno 11005 bound_to 11000
  146.1485  140.6959  142.9333 LP  0  0  0  0  0  0  0  0  0  0  0  0  # atno 17320 bound_to 7965
  144.7259  140.4524  143.6973 LP  0  0  0  0  0  0  0  0  0  0  0  0  # atno 17321 bound_to 7965
  139.7902  143.8230  152.3150 LP  0  0  0  0  0  0  0  0  0  0  0  0  # atno 17342 bound_to 10162
  139.8211  144.7295  150.9572 LP  0  0  0  0  0  0  0  0  0  0  0  0  # atno 17343 bound_to 10162
  157.1672  130.6251  149.5629 LP  0  0  0  0  0  0  0  0  0  0  0  0  # atno 17370 bound_to 10713
  155.9800  130.4797  150.6747 LP  0  0  0  0  0  0  0  0  0  0  0  0  # atno 17371 bound_to 10713
  140.5137  134.0977  155.7276 LP  0  0  0  0  0  0  0  0  0  0  0  0  # atno 17394 bound_to 11000
  141.1463  133.9048  157.2206 LP  0  0  0  0  0  0  0  0  0  0  0  0  # atno 17395 bound_to 11000

$$$$
