AV-unprocessed.smi:3181|AV-procd|sdf|12136|dock5
  -GOLD-   2272017573D 1   1.00000     0.00000
 Structure written by MMmdl.
 42 43  0  0  0  0  0  0  0  0  2 V2000
  146.7890  140.4742  152.6166 C   0  0  0  0  0  0  0  0  0  0  0  0
  147.0107  138.9915  152.9575 C   0  0  1  0  0  0  0  0  0  0  0  0
  146.2941  138.0480  151.9670 C   0  0  0  0  0  0  0  0  0  0  0  0
  145.3502  137.1585  152.6175 N   0  0  0  0  0  0  0  0  0  0  0  0
  144.0162  137.1647  152.6310 C   0  0  0  0  0  0  0  0  0  0  0  0
  143.4843  136.1756  153.3349 N   0  0  0  0  0  0  0  0  0  0  0  0
  144.6259  135.5501  153.7504 C   0  0  0  0  0  0  0  0  0  0  0  0
  145.7720  136.0979  153.3450 N   0  0  0  0  0  0  0  0  0  0  0  0
  148.4627  138.7003  152.9781 N   0  3  0  0  0  0  0  0  0  0  0  0
  149.1579  138.9376  154.2647 C   0  0  2  0  0  0  0  0  0  0  0  0
  148.9577  140.4013  154.6971 C   0  0  0  0  0  0  0  0  0  0  0  0
  149.6878  140.7137  156.0125 C   0  0  0  0  0  0  0  0  0  0  0  0
  151.1887  140.3785  155.9169 C   0  0  1  0  0  0  0  0  0  0  0  0
  151.9431  140.7680  157.1988 C   0  0  0  0  0  0  0  0  0  0  0  0
  151.4172  138.9056  155.4915 C   0  0  1  0  0  0  0  0  0  0  0  0
  151.0829  137.8719  156.5861 C   0  0  0  0  0  0  0  0  0  0  0  0
  150.6651  138.6056  154.1775 C   0  0  0  0  0  0  0  0  0  0  0  0
  145.7329  140.7420  152.6593 H   0  0  0  0  0  0  0  0  0  0  0  0
  147.1513  140.7103  151.6155 H   0  0  0  0  0  0  0  0  0  0  0  0
  147.3128  141.1205  153.3216 H   0  0  0  0  0  0  0  0  0  0  0  0
  146.6026  138.8278  153.9562 H   0  0  0  0  0  0  0  0  0  0  0  0
  145.7558  138.6290  151.2166 H   0  0  0  0  0  0  0  0  0  0  0  0
  147.0131  137.4346  151.4236 H   0  0  0  0  0  0  0  0  0  0  0  0
  143.4217  137.9074  152.1188 H   0  0  0  0  0  0  0  0  0  0  0  0
  144.6115  134.6641  154.3680 H   0  0  0  0  0  0  0  0  0  0  0  0
  148.6146  137.7451  152.6873 H   0  0  0  0  0  0  0  0  0  0  0  0
  148.6883  138.2999  155.0147 H   0  0  0  0  0  0  0  0  0  0  0  0
  149.3232  141.0705  153.9169 H   0  0  0  0  0  0  0  0  0  0  0  0
  147.8944  140.6153  154.8124 H   0  0  0  0  0  0  0  0  0  0  0  0
  149.5594  141.7698  156.2524 H   0  0  0  0  0  0  0  0  0  0  0  0
  149.2281  140.1593  156.8313 H   0  0  0  0  0  0  0  0  0  0  0  0
  151.6020  141.0009  155.1215 H   0  0  0  0  0  0  0  0  0  0  0  0
  151.5367  140.2650  158.0766 H   0  0  0  0  0  0  0  0  0  0  0  0
  151.8742  141.8412  157.3783 H   0  0  0  0  0  0  0  0  0  0  0  0
  153.0011  140.5151  157.1261 H   0  0  0  0  0  0  0  0  0  0  0  0
  152.4811  138.7898  155.2792 H   0  0  0  0  0  0  0  0  0  0  0  0
  150.0479  137.9416  156.9189 H   0  0  0  0  0  0  0  0  0  0  0  0
  151.7202  137.9965  157.4614 H   0  0  0  0  0  0  0  0  0  0  0  0
  151.2431  136.8565  156.2226 H   0  0  0  0  0  0  0  0  0  0  0  0
  150.8137  137.5583  153.9134 H   0  0  0  0  0  0  0  0  0  0  0  0
  151.1151  139.1863  153.3711 H   0  0  0  0  0  0  0  0  0  0  0  0
  148.8940  139.3087  152.2972 H   0  0  0  0  0  0  0  0  0  0  0  0
  1  2  1  0  0  0  0
  1 18  1  0  0  0  0
  1 19  1  0  0  0  0
  1 20  1  0  0  0  0
  2  3  1  0  0  0  0
  2  9  1  0  0  0  0
  2 21  1  0  0  0  0
  3  4  1  0  0  0  0
  3 22  1  0  0  0  0
  3 23  1  0  0  0  0
  4  8  1  0  0  0  0
  4  5  1  0  0  0  0
  5  6  2  0  0  0  0
  5 24  1  0  0  0  0
  6  7  1  0  0  0  0
  7  8  2  0  0  0  0
  7 25  1  0  0  0  0
  9 10  1  0  0  0  0
  9 26  1  0  0  0  0
  9 42  1  0  0  0  0
 10 17  1  0  0  0  0
 10 11  1  0  0  0  0
 10 27  1  0  0  0  0
 11 12  1  0  0  0  0
 11 28  1  0  0  0  0
 11 29  1  0  0  0  0
 12 13  1  0  0  0  0
 12 30  1  0  0  0  0
 12 31  1  0  0  0  0
 13 14  1  0  0  0  0
 13 15  1  0  0  0  0
 13 32  1  0  0  0  0
 14 33  1  0  0  0  0
 14 34  1  0  0  0  0
 14 35  1  0  0  0  0
 15 16  1  0  0  0  0
 15 17  1  0  0  0  0
 15 36  1  0  0  0  0
 16 37  1  0  0  0  0
 16 38  1  0  0  0  0
 16 39  1  0  0  0  0
 17 40  1  0  0  0  0
 17 41  1  0  0  0  0
M  CHG  1   9   1
M  END
> <s_m_source_file>
AV-unprocessed.smi

> <i_m_source_file_index>
3181

> <i_lp_mmshare_version>
43012

> <i_f3d_flags>
0

> <s_epik_input>
bjFbY0hdbltjSF1uMVtDSDJdW0NAQEhdKFtDSDNdKVtOSF1bQ0BASF0yW0NIMl1bQ0gyXVtDQEBIXShbQ0gzXSlbQ0BASF0oW0NIM10pW0NIMl0y

> <s_epik_cmdline>
J2VwaWtfcHl0aG9uJywgJy1waCcsICc3LjAnLCAnLXRuJywgJzgnLCAnLW1hJywgJzIwMCcsICctbWV0YWxfYmluZGluZycsICctaW1hZScsICc8aW5maWxlLm1hZT4nLCAnLW9tYWUnLCAnPG91dGZpbGUubWFlPic=

> <r_lp_tautomer_probability>
1

> <r_epik_Ionization_Penalty>
0.000617007

> <r_epik_Ionization_Penalty_Charging>
0.000616215

> <r_epik_Ionization_Penalty_Neutral>
7.92544e-07

> <r_epik_State_Penalty>
0.000388807

> <r_epik_Charging_Adjusted_Penalty>
0.00100502

> <i_epik_Tot_Q>
1

> <i_epik_Tot_abs_Q>
1

> <r_epik_Metal_State_Penalty>
-0

> <b_epik_Metal_Only>
0

> <s_lp_Force_Field>
OPLS_2005

> <r_lp_Energy>
21.1382

> <b_lp_Chiralities_Consistent>
1

> <s_lp_Variant>
AV-unprocessed.smi:3181-2

> <Gold.Version>
5.8.1

> <Gold.Id.Protein>
6NUR|6NUR_protein|mol2

> <Gold.PLP.Fitness>
39.5671

> <Gold.PLP.PLP>
-27.8339

> <Gold.PLP.part.hbond>
-1.9629

> <Gold.PLP.part.metal>
0.0000

> <Gold.PLP.part.buried>
-0.7627

> <Gold.PLP.part.nonpolar>
-25.4555

> <Gold.PLP.part.repulsive>
0.2558

> <Gold.PLP.ligand.clash>
0.0000

> <Gold.PLP.ligand.torsion>
1.2725

> <Gold.PLP.Chemscore.Hbond>
2.9750

> <Gold.PLP.Chemscore.CHOScore>
1.7735

> <Gold.PLP.Chemscore.Metal>
0.0000

> <Gold.Chemscore.Hbonds>
donor molecule, donor type, donor heavy atom, donor atom, acceptor molecule, acceptor atom, score
      L1  H     9    26       P1  7948  2.00
      L1  H     9    42       P1  7957  0.98
      L1  C     5    24       P1 10171  0.87
      L1  C     5    24       P1 10175  0.86

> <Gold.PLP.Chemscore.Internal.Correction>
0.0328

> <Gold.Rescore>
     Score         DG    S(hbond)    S(metal)    S(lipo)     H(rot)  DE(clash)    DE(int)     intcor
     13.81     -15.17       1.97        0.00      72.69       2.11       0.17       1.20       ----

> <Gold.Chemscore.Fitness>
13.8096

> <Gold.Chemscore.DG>
-15.1744

> <Gold.Chemscore.ZeroCoef>
-5.4800

> <Gold.Chemscore.Hbond>
1.9729

> <Gold.Chemscore.Metal>
0.0000

> <Gold.Chemscore.Lipo>
72.6935

> <Gold.Chemscore.Internal_Hbond>
0.0000

> <Gold.Chemscore.DEClash>
0.1655

> <Gold.Chemscore.DEInternal>
1.1993

> <Gold.Chemscore.Rot>
2.1095

> <Gold.Chemscore.Internal.Correction>
   9.000000E+99

> <Gold.Chemscore.Hbonds>
donor molecule, donor type, donor heavy atom, donor atom, acceptor molecule, acceptor atom, score
      L1  H     9    26       P1  7948  1.00
      L1  H     9    42       P1  7957  0.91

> <Gold.Chemscore.Hbond.Weighted>
-6.5896

> <Gold.Chemscore.Metal.Weighted>
-0.0000

> <Gold.Chemscore.Lipo.Weighted>
-8.5051

> <Gold.Chemscore.Internal_Hbond.Weighted>
0.0000

> <Gold.Chemscore.DEClash.Weighted>
0.1655

> <Gold.Chemscore.DEInternal.Weighted>
1.1993

> <Gold.Chemscore.Rot.Weighted>
5.4003

> <Gold.Chemscore.Internal.Correction.Weighted>
   9.000000E+99

> <Gold.Protein.RotatedTorsions>
[ 6907 6896 6895 6894 ] final  -31.68 input  -60.11 | X-H torsion
[ 7974 7965 7964 7962 ] final  102.17 input  175.53 | X-H torsion
[ 8008 7997 7996 7995 ] final  168.49 input   59.86 | X-H torsion
[ 10167 10162 10161 10158 ] final -163.11 input  -65.29 | X-H torsion
[ 10718 10713 10712 10709 ] final -160.47 input   66.30 | X-H torsion
[ 10763 10752 10751 10750 ] final    0.85 input  -60.55 | X-H torsion
[ 11005 11000 10999 10996 ] final    2.23 input  -57.11 | X-H torsion

> <Gold.Protein.ActiveResidues>
 VAL166  LYS551  ARG553  GLY616  TRP617  ASP618  TYR619  PRO620  LYS621  CYS622 
 ASP623  PHE694  ASN695  SER759  ASP760  ASP761  ALA762  ILE779  LEU786  VAL792 
 PHE793  MET794  SER795  GLU796  ALA797  LYS798  CYS799  TRP800  GLU811  SER814 

> <Gold.Protein.RotatedAtoms>
  151.0888  134.9903  159.8392 H   0  0  0  0  0  0  0  0  0  0  0  0  # atno 6907 bound_to 6896
  152.5427  134.2091  159.8753 H   0  0  0  0  0  0  0  0  0  0  0  0  # atno 6908 bound_to 6896
  151.2126  133.4503  159.2632 H   0  0  0  0  0  0  0  0  0  0  0  0  # atno 6909 bound_to 6896
  145.3626  139.2415  143.3498 H   0  0  0  0  0  0  0  0  0  0  0  0  # atno 7974 bound_to 7965
  156.1542  140.1589  156.8720 H   0  0  0  0  0  0  0  0  0  0  0  0  # atno 8008 bound_to 7997
  154.5099  140.0803  156.8006 H   0  0  0  0  0  0  0  0  0  0  0  0  # atno 8009 bound_to 7997
  155.3836  140.3406  155.4250 H   0  0  0  0  0  0  0  0  0  0  0  0  # atno 8010 bound_to 7997
  139.6344  144.0379  152.2042 H   0  0  0  0  0  0  0  0  0  0  0  0  # atno 10167 bound_to 10162
  156.5826  130.8736  151.2868 H   0  0  0  0  0  0  0  0  0  0  0  0  # atno 10718 bound_to 10713
  153.3154  135.6965  153.7078 H   0  0  0  0  0  0  0  0  0  0  0  0  # atno 10763 bound_to 10752
  153.5938  135.3475  155.2921 H   0  0  0  0  0  0  0  0  0  0  0  0  # atno 10764 bound_to 10752
  154.8585  135.4324  154.2304 H   0  0  0  0  0  0  0  0  0  0  0  0  # atno 10765 bound_to 10752
  140.6067  133.9786  155.8157 H   0  0  0  0  0  0  0  0  0  0  0  0  # atno 11005 bound_to 11000
  146.2920  140.4263  142.8736 LP  0  0  0  0  0  0  0  0  0  0  0  0  # atno 17320 bound_to 7965
  144.8635  140.7173  143.6092 LP  0  0  0  0  0  0  0  0  0  0  0  0  # atno 17321 bound_to 7965
  140.0052  144.6264  150.7695 LP  0  0  0  0  0  0  0  0  0  0  0  0  # atno 17342 bound_to 10162
  140.7457  143.2879  151.3411 LP  0  0  0  0  0  0  0  0  0  0  0  0  # atno 17343 bound_to 10162
  157.7323  130.9713  150.1921 LP  0  0  0  0  0  0  0  0  0  0  0  0  # atno 17370 bound_to 10713
  156.2618  130.3712  149.8122 LP  0  0  0  0  0  0  0  0  0  0  0  0  # atno 17371 bound_to 10713
  141.0836  134.0025  157.3348 LP  0  0  0  0  0  0  0  0  0  0  0  0  # atno 17394 bound_to 11000
  139.9209  135.0200  156.8061 LP  0  0  0  0  0  0  0  0  0  0  0  0  # atno 17395 bound_to 11000

$$$$
