AV-unprocessed.smi:803|AV-procd|sdf|3793|dock7
  -GOLD-   22720 1233D 1   1.00000     0.00000
 Structure written by MMmdl.
 37 38  0  0  0  0  0  0  0  0  1 V2000
  145.9026  143.1221  153.9262 C   0  0  0  0  0  0  0  0  0  0  0  0
  147.0716  142.2216  154.3440 C   0  0  0  0  0  0  0  0  0  0  0  0
  146.7359  140.8153  154.2351 N   0  0  0  0  0  0  0  0  0  0  0  0
  147.2922  139.8671  153.3993 C   0  0  0  0  0  0  0  0  0  0  0  0
  146.6350  138.7013  153.6744 C   0  0  0  0  0  0  0  0  0  0  0  0
  146.8122  137.4136  153.1089 N   0  0  0  0  0  0  0  0  0  0  0  0
  145.8698  136.4814  152.8925 C   0  0  0  0  0  0  0  0  0  0  0  0
  144.6772  136.6019  153.1742 O   0  0  0  0  0  0  0  0  0  0  0  0
  146.3938  135.3832  152.3295 N   0  0  0  0  0  0  0  0  0  0  0  0
  145.6489  134.1789  151.9751 C   0  0  0  0  0  0  0  0  0  0  0  0
  146.6163  133.0391  151.5949 C   0  0  0  0  0  0  0  0  0  0  0  0
  145.8549  131.7845  151.1376 C   0  0  0  0  0  0  0  0  0  0  0  0
  144.8951  132.1041  149.9807 C   0  0  0  0  0  0  0  0  0  0  0  0
  143.9254  133.2339  150.3605 C   0  0  0  0  0  0  0  0  0  0  0  0
  144.6849  134.4908  150.8148 C   0  0  0  0  0  0  0  0  0  0  0  0
  145.6934  139.0172  154.6878 C   0  0  0  0  0  0  0  0  0  0  0  0
  145.7574  140.2979  155.0188 N   0  0  0  0  0  0  0  0  0  0  0  0
  146.1676  144.1742  154.0310 H   0  0  0  0  0  0  0  0  0  0  0  0
  145.0232  142.9366  154.5439 H   0  0  0  0  0  0  0  0  0  0  0  0
  145.6237  142.9526  152.8858 H   0  0  0  0  0  0  0  0  0  0  0  0
  147.9467  142.4210  153.7243 H   0  0  0  0  0  0  0  0  0  0  0  0
  147.3579  142.4334  155.3748 H   0  0  0  0  0  0  0  0  0  0  0  0
  148.0858  140.1068  152.7069 H   0  0  0  0  0  0  0  0  0  0  0  0
  147.7572  137.1757  152.8452 H   0  0  0  0  0  0  0  0  0  0  0  0
  147.3844  135.3764  152.1350 H   0  0  0  0  0  0  0  0  0  0  0  0
  145.0511  133.8604  152.8315 H   0  0  0  0  0  0  0  0  0  0  0  0
  147.2802  133.3696  150.7945 H   0  0  0  0  0  0  0  0  0  0  0  0
  147.2558  132.7895  152.4426 H   0  0  0  0  0  0  0  0  0  0  0  0
  146.5612  131.0121  150.8316 H   0  0  0  0  0  0  0  0  0  0  0  0
  145.2921  131.3739  151.9768 H   0  0  0  0  0  0  0  0  0  0  0  0
  145.4687  132.3955  149.1001 H   0  0  0  0  0  0  0  0  0  0  0  0
  144.3352  131.2104  149.7038 H   0  0  0  0  0  0  0  0  0  0  0  0
  143.2839  133.4735  149.5124 H   0  0  0  0  0  0  0  0  0  0  0  0
  143.2656  132.8960  151.1610 H   0  0  0  0  0  0  0  0  0  0  0  0
  143.9726  135.2593  151.1170 H   0  0  0  0  0  0  0  0  0  0  0  0
  145.2413  134.9001  149.9700 H   0  0  0  0  0  0  0  0  0  0  0  0
  144.9799  138.3752  155.1827 H   0  0  0  0  0  0  0  0  0  0  0  0
  1  2  1  0  0  0  0
  1 18  1  0  0  0  0
  1 19  1  0  0  0  0
  1 20  1  0  0  0  0
  2  3  1  0  0  0  0
  2 21  1  0  0  0  0
  2 22  1  0  0  0  0
  3 17  1  0  0  0  0
  3  4  1  0  0  0  0
  4  5  2  0  0  0  0
  4 23  1  0  0  0  0
  5  6  1  0  0  0  0
  5 16  1  0  0  0  0
  6  7  1  0  0  0  0
  6 24  1  0  0  0  0
  7  8  2  0  0  0  0
  7  9  1  0  0  0  0
  9 10  1  0  0  0  0
  9 25  1  0  0  0  0
 10 15  1  0  0  0  0
 10 11  1  0  0  0  0
 10 26  1  0  0  0  0
 11 12  1  0  0  0  0
 11 27  1  0  0  0  0
 11 28  1  0  0  0  0
 12 13  1  0  0  0  0
 12 29  1  0  0  0  0
 12 30  1  0  0  0  0
 13 14  1  0  0  0  0
 13 31  1  0  0  0  0
 13 32  1  0  0  0  0
 14 15  1  0  0  0  0
 14 33  1  0  0  0  0
 14 34  1  0  0  0  0
 15 35  1  0  0  0  0
 15 36  1  0  0  0  0
 16 17  2  0  0  0  0
 16 37  1  0  0  0  0
M  END
> <s_m_source_file>
AV-unprocessed.smi

> <i_m_source_file_index>
803

> <i_lp_mmshare_version>
43012

> <i_f3d_flags>
0

> <s_epik_input>
W0NIM11bQ0gyXW4xW2NIXWMoW2NIXW4xKVtOSF1DKD1PKVtOSF1bQ0hdMltDSDJdW0NIMl1bQ0gyXVtDSDJdW0NIMl0y

> <s_epik_cmdline>
J2VwaWtfcHl0aG9uJywgJy1waCcsICc3LjAnLCAnLXRuJywgJzgnLCAnLW1hJywgJzIwMCcsICctbWV0YWxfYmluZGluZycsICctaW1hZScsICc8aW5maWxlLm1hZT4nLCAnLW9tYWUnLCAnPG91dGZpbGUubWFlPic=

> <r_lp_tautomer_probability>
1

> <r_epik_Ionization_Penalty>
0.000191435

> <r_epik_Ionization_Penalty_Charging>
0

> <r_epik_Ionization_Penalty_Neutral>
0.000191435

> <r_epik_State_Penalty>
-0

> <r_epik_Charging_Adjusted_Penalty>
0

> <i_epik_Tot_Q>
0

> <i_epik_Tot_abs_Q>
0

> <r_epik_Metal_State_Penalty>
-0

> <b_epik_Metal_Only>
0

> <s_lp_Force_Field>
OPLS_2005

> <r_lp_Energy>
12.5011

> <b_lp_Chiralities_Consistent>
1

> <s_lp_Variant>
AV-unprocessed.smi:803-1

> <Gold.Version>
5.8.1

> <Gold.Id.Protein>
6NUR|6NUR_protein|mol2

> <Gold.PLP.Fitness>
38.8712

> <Gold.PLP.PLP>
-30.5273

> <Gold.PLP.part.hbond>
-2.0000

> <Gold.PLP.part.metal>
0.0000

> <Gold.PLP.part.buried>
-4.7384

> <Gold.PLP.part.nonpolar>
-25.1208

> <Gold.PLP.part.repulsive>
0.2688

> <Gold.PLP.ligand.clash>
0.0000

> <Gold.PLP.ligand.torsion>
0.3297

> <Gold.PLP.Chemscore.Hbond>
2.0000

> <Gold.PLP.Chemscore.CHOScore>
1.0000

> <Gold.PLP.Chemscore.Metal>
0.0000

> <Gold.Chemscore.Hbonds>
donor molecule, donor type, donor heavy atom, donor atom, acceptor molecule, acceptor atom, score
      L1  H     6    24       P1  7948  1.00
      L1  H     9    25       P1  7948  1.00
      L1  C     4    23       P1  7957  1.00

> <Gold.PLP.Chemscore.Internal.Correction>
0.0032

> <Gold.Rescore>
     Score         DG    S(hbond)    S(metal)    S(lipo)     H(rot)  DE(clash)    DE(int)     intcor
     16.70     -17.82       1.92        0.00      76.33       1.17       0.07       1.05       ----

> <Gold.Chemscore.Fitness>
16.7000

> <Gold.Chemscore.DG>
-17.8250

> <Gold.Chemscore.ZeroCoef>
-5.4800

> <Gold.Chemscore.Hbond>
1.9165

> <Gold.Chemscore.Metal>
0.0000

> <Gold.Chemscore.Lipo>
76.3294

> <Gold.Chemscore.Internal_Hbond>
0.0000

> <Gold.Chemscore.DEClash>
0.0743

> <Gold.Chemscore.DEInternal>
1.0506

> <Gold.Chemscore.Rot>
1.1667

> <Gold.Chemscore.Internal.Correction>
   9.000000E+99

> <Gold.Chemscore.Hbonds>
donor molecule, donor type, donor heavy atom, donor atom, acceptor molecule, acceptor atom, score
      L1  H     6    24       P1  7948  0.96
      L1  H     9    25       P1  7948  0.97

> <Gold.Chemscore.Hbond.Weighted>
-6.4011

> <Gold.Chemscore.Metal.Weighted>
-0.0000

> <Gold.Chemscore.Lipo.Weighted>
-8.9305

> <Gold.Chemscore.Internal_Hbond.Weighted>
0.0000

> <Gold.Chemscore.DEClash.Weighted>
0.0743

> <Gold.Chemscore.DEInternal.Weighted>
1.0506

> <Gold.Chemscore.Rot.Weighted>
2.9867

> <Gold.Chemscore.Internal.Correction.Weighted>
   9.000000E+99

> <Gold.Protein.RotatedTorsions>
[ 6907 6896 6895 6894 ] final  -92.35 input  -60.11 | X-H torsion
[ 7974 7965 7964 7962 ] final -169.37 input  175.53 | X-H torsion
[ 8008 7997 7996 7995 ] final   56.68 input   59.86 | X-H torsion
[ 10167 10162 10161 10158 ] final -107.84 input  -65.29 | X-H torsion
[ 10718 10713 10712 10709 ] final  160.15 input   66.30 | X-H torsion
[ 10763 10752 10751 10750 ] final -179.04 input  -60.55 | X-H torsion
[ 11005 11000 10999 10996 ] final -132.01 input  -57.11 | X-H torsion

> <Gold.Protein.ActiveResidues>
 VAL166  LYS551  ARG553  GLY616  TRP617  ASP618  TYR619  PRO620  LYS621  CYS622 
 ASP623  PHE694  ASN695  SER759  ASP760  ASP761  ALA762  ILE779  LEU786  VAL792 
 PHE793  MET794  SER795  GLU796  ALA797  LYS798  CYS799  TRP800  GLU811  SER814 

> <Gold.Protein.RotatedAtoms>
  150.6905  134.2135  159.4368 H   0  0  0  0  0  0  0  0  0  0  0  0  # atno 6907 bound_to 6896
  152.0095  134.9881  160.0577 H   0  0  0  0  0  0  0  0  0  0  0  0  # atno 6908 bound_to 6896
  152.1502  133.4482  159.4846 H   0  0  0  0  0  0  0  0  0  0  0  0  # atno 6909 bound_to 6896
  144.7186  140.2231  143.6313 H   0  0  0  0  0  0  0  0  0  0  0  0  # atno 7974 bound_to 7965
  155.5214  140.3480  155.4407 H   0  0  0  0  0  0  0  0  0  0  0  0  # atno 8008 bound_to 7997
  156.0781  140.1380  156.9773 H   0  0  0  0  0  0  0  0  0  0  0  0  # atno 8009 bound_to 7997
  154.4565  140.0951  156.6746 H   0  0  0  0  0  0  0  0  0  0  0  0  # atno 8010 bound_to 7997
  140.1726  143.4031  152.1343 H   0  0  0  0  0  0  0  0  0  0  0  0  # atno 10167 bound_to 10162
  157.1544  131.0572  151.2264 H   0  0  0  0  0  0  0  0  0  0  0  0  # atno 10718 bound_to 10713
  154.5400  135.2805  155.1104 H   0  0  0  0  0  0  0  0  0  0  0  0  # atno 10763 bound_to 10752
  154.2590  135.6325  153.5271 H   0  0  0  0  0  0  0  0  0  0  0  0  # atno 10764 bound_to 10752
  152.9977  135.5601  154.5937 H   0  0  0  0  0  0  0  0  0  0  0  0  # atno 10765 bound_to 10752
  140.9208  134.1446  157.4315 H   0  0  0  0  0  0  0  0  0  0  0  0  # atno 11005 bound_to 11000
  145.8482  139.2162  143.1787 LP  0  0  0  0  0  0  0  0  0  0  0  0  # atno 17320 bound_to 7965
  146.0285  140.8281  142.9888 LP  0  0  0  0  0  0  0  0  0  0  0  0  # atno 17321 bound_to 7965
  139.5331  144.7181  151.4986 LP  0  0  0  0  0  0  0  0  0  0  0  0  # atno 17342 bound_to 10162
  140.6572  143.8574  150.6848 LP  0  0  0  0  0  0  0  0  0  0  0  0  # atno 17343 bound_to 10162
  157.4191  130.7427  149.6899 LP  0  0  0  0  0  0  0  0  0  0  0  0  # atno 17370 bound_to 10713
  155.9765  130.4075  150.3777 LP  0  0  0  0  0  0  0  0  0  0  0  0  # atno 17371 bound_to 10713
  139.8775  134.9971  156.5827 LP  0  0  0  0  0  0  0  0  0  0  0  0  # atno 17394 bound_to 11000
  140.7990  133.8521  155.8710 LP  0  0  0  0  0  0  0  0  0  0  0  0  # atno 17395 bound_to 11000

$$$$
