AV-unprocessed.smi:1657|AV-procd|sdf|6647|dock6
  -GOLD-   22720 7353D 1   1.00000     0.00000
 Structure written by MMmdl.
 52 54  0  0  0  0  0  0  0  0  2 V2000
  149.0732  135.5352  156.5139 O   0  0  0  0  0  0  0  0  0  0  0  0
  149.1274  135.7759  155.3078 C   0  0  0  0  0  0  0  0  0  0  0  0
  148.6975  134.9231  154.3671 N   0  0  0  0  0  0  0  0  0  0  0  0
  148.1090  133.6158  154.6344 C   0  0  0  0  0  0  0  0  0  0  0  0
  148.5815  132.5654  153.6112 C   0  0  0  0  0  0  0  0  0  0  0  0
  147.5630  132.2985  152.5645 N   0  3  0  0  0  0  0  0  0  0  0  0
  146.4645  131.4273  153.0587 C   0  0  0  0  0  0  0  0  0  0  0  0
  145.4976  131.0515  151.9233 C   0  0  0  0  0  0  0  0  0  0  0  0
  144.9322  132.3060  151.2452 C   0  0  0  0  0  0  0  0  0  0  0  0
  146.0792  133.2095  150.7746 C   0  0  0  0  0  0  0  0  0  0  0  0
  147.0339  133.5387  151.9348 C   0  0  0  0  0  0  0  0  0  0  0  0
  149.6363  136.8920  154.7590 N   0  0  0  0  0  0  0  0  0  0  0  0
  150.1811  138.0264  155.4183 C   0  0  0  0  0  0  0  0  0  0  0  0
  150.8384  139.0894  154.7577 C   0  0  0  0  0  0  0  0  0  0  0  0
  151.3560  140.1519  155.5228 C   0  0  0  0  0  0  0  0  0  0  0  0
  151.2105  140.1299  156.9305 C   0  0  0  0  0  0  0  0  0  0  0  0
  151.7170  141.1879  157.7182 N   0  0  0  0  0  0  0  0  0  0  0  0
  151.8724  140.9608  159.1544 C   0  0  0  0  0  0  0  0  0  0  0  0
  152.6974  142.0910  159.7925 C   0  0  0  0  0  0  0  0  0  0  0  0
  152.0990  143.3482  159.4965 O   0  0  0  0  0  0  0  0  0  0  0  0
  152.0623  143.5986  158.0957 C   0  0  0  0  0  0  0  0  0  0  0  0
  151.2157  142.5220  157.3948 C   0  0  0  0  0  0  0  0  0  0  0  0
  150.5978  139.0970  157.5604 N   0  0  0  0  0  0  0  0  0  0  0  0
  150.1050  138.0796  156.8238 C   0  0  0  0  0  0  0  0  0  0  0  0
  148.7805  135.1996  153.3994 H   0  0  0  0  0  0  0  0  0  0  0  0
  148.3481  133.3177  155.6557 H   0  0  0  0  0  0  0  0  0  0  0  0
  147.0245  133.7175  154.5878 H   0  0  0  0  0  0  0  0  0  0  0  0
  149.4920  132.9417  153.1423 H   0  0  0  0  0  0  0  0  0  0  0  0
  148.8544  131.6297  154.1019 H   0  0  0  0  0  0  0  0  0  0  0  0
  146.8801  130.5146  153.4875 H   0  0  0  0  0  0  0  0  0  0  0  0
  145.9263  131.9377  153.8591 H   0  0  0  0  0  0  0  0  0  0  0  0
  146.0178  130.4378  151.1865 H   0  0  0  0  0  0  0  0  0  0  0  0
  144.6829  130.4412  152.3142 H   0  0  0  0  0  0  0  0  0  0  0  0
  144.2996  132.0275  150.4017 H   0  0  0  0  0  0  0  0  0  0  0  0
  144.2979  132.8499  151.9466 H   0  0  0  0  0  0  0  0  0  0  0  0
  146.6313  132.7161  149.9733 H   0  0  0  0  0  0  0  0  0  0  0  0
  145.6768  134.1303  150.3509 H   0  0  0  0  0  0  0  0  0  0  0  0
  146.5157  134.1368  152.6863 H   0  0  0  0  0  0  0  0  0  0  0  0
  147.8504  134.1519  151.5556 H   0  0  0  0  0  0  0  0  0  0  0  0
  149.6960  136.9075  153.7512 H   0  0  0  0  0  0  0  0  0  0  0  0
  150.9717  139.1023  153.6870 H   0  0  0  0  0  0  0  0  0  0  0  0
  151.8733  140.9565  155.0221 H   0  0  0  0  0  0  0  0  0  0  0  0
  150.8872  140.9092  159.6198 H   0  0  0  0  0  0  0  0  0  0  0  0
  152.3701  140.0073  159.3361 H   0  0  0  0  0  0  0  0  0  0  0  0
  152.7361  141.9620  160.8742 H   0  0  0  0  0  0  0  0  0  0  0  0
  153.7274  142.0718  159.4327 H   0  0  0  0  0  0  0  0  0  0  0  0
  151.6315  144.5849  157.9231 H   0  0  0  0  0  0  0  0  0  0  0  0
  153.0761  143.6198  157.6921 H   0  0  0  0  0  0  0  0  0  0  0  0
  151.2251  142.7113  156.3227 H   0  0  0  0  0  0  0  0  0  0  0  0
  150.1770  142.5950  157.7198 H   0  0  0  0  0  0  0  0  0  0  0  0
  149.6277  137.2846  157.3780 H   0  0  0  0  0  0  0  0  0  0  0  0
  148.0296  131.7740  151.8383 H   0  0  0  0  0  0  0  0  0  0  0  0
  1  2  2  0  0  0  0
  2  3  1  0  0  0  0
  2 12  1  0  0  0  0
  3  4  1  0  0  0  0
  3 25  1  0  0  0  0
  4  5  1  0  0  0  0
  4 26  1  0  0  0  0
  4 27  1  0  0  0  0
  5  6  1  0  0  0  0
  5 28  1  0  0  0  0
  5 29  1  0  0  0  0
  6 11  1  0  0  0  0
  6  7  1  0  0  0  0
  6 52  1  0  0  0  0
  7  8  1  0  0  0  0
  7 30  1  0  0  0  0
  7 31  1  0  0  0  0
  8  9  1  0  0  0  0
  8 32  1  0  0  0  0
  8 33  1  0  0  0  0
  9 10  1  0  0  0  0
  9 34  1  0  0  0  0
  9 35  1  0  0  0  0
 10 11  1  0  0  0  0
 10 36  1  0  0  0  0
 10 37  1  0  0  0  0
 11 38  1  0  0  0  0
 11 39  1  0  0  0  0
 12 13  1  0  0  0  0
 12 40  1  0  0  0  0
 13 24  1  0  0  0  0
 13 14  2  0  0  0  0
 14 15  1  0  0  0  0
 14 41  1  0  0  0  0
 15 16  2  0  0  0  0
 15 42  1  0  0  0  0
 16 17  1  0  0  0  0
 16 23  1  0  0  0  0
 17 22  1  0  0  0  0
 17 18  1  0  0  0  0
 18 19  1  0  0  0  0
 18 43  1  0  0  0  0
 18 44  1  0  0  0  0
 19 20  1  0  0  0  0
 19 45  1  0  0  0  0
 19 46  1  0  0  0  0
 20 21  1  0  0  0  0
 21 22  1  0  0  0  0
 21 47  1  0  0  0  0
 21 48  1  0  0  0  0
 22 49  1  0  0  0  0
 22 50  1  0  0  0  0
 23 24  2  0  0  0  0
 24 51  1  0  0  0  0
M  CHG  1   6   1
M  END
> <s_m_source_file>
AV-unprocessed.smi

> <i_m_source_file_index>
1657

> <i_lp_mmshare_version>
43012

> <i_f3d_flags>
0

> <s_epik_input>
W0NIMl0xW0NIMl1bQ0gyXVtDSDJdW0NIMl1OMVtDSDJdW0NIMl1bTkhdQyg9TylbTkhdYzJbY0hdW2NIXWMobltjSF0yKU4zW0NIMl1bQ0gyXU9bQ0gyXVtDSDJdMw==

> <s_epik_cmdline>
J2VwaWtfcHl0aG9uJywgJy1waCcsICc3LjAnLCAnLXRuJywgJzgnLCAnLW1hJywgJzIwMCcsICctbWV0YWxfYmluZGluZycsICctaW1hZScsICc8aW5maWxlLm1hZT4nLCAnLW9tYWUnLCAnPG91dGZpbGUubWFlPic=

> <r_lp_tautomer_probability>
1

> <r_epik_Ionization_Penalty>
0.00380107

> <r_epik_Ionization_Penalty_Charging>
0.00211816

> <r_epik_Ionization_Penalty_Neutral>
0.00168291

> <r_epik_State_Penalty>
-0

> <r_epik_Charging_Adjusted_Penalty>
0.00211816

> <i_epik_Tot_Q>
1

> <i_epik_Tot_abs_Q>
1

> <r_epik_Metal_State_Penalty>
-0

> <b_epik_Metal_Only>
0

> <s_lp_Force_Field>
OPLS_2005

> <r_lp_Energy>
33.9821

> <b_lp_Chiralities_Consistent>
1

> <s_lp_Variant>
AV-unprocessed.smi:1657-1

> <Gold.Version>
5.8.1

> <Gold.Id.Protein>
6NUR|6NUR_protein|mol2

> <Gold.PLP.Fitness>
50.1834

> <Gold.PLP.PLP>
-42.3189

> <Gold.PLP.part.hbond>
-3.0000

> <Gold.PLP.part.metal>
0.0000

> <Gold.PLP.part.buried>
-6.5369

> <Gold.PLP.part.nonpolar>
-33.9308

> <Gold.PLP.part.repulsive>
0.0541

> <Gold.PLP.ligand.clash>
0.0000

> <Gold.PLP.ligand.torsion>
0.7644

> <Gold.PLP.Chemscore.Hbond>
3.0000

> <Gold.PLP.Chemscore.CHOScore>
0.0000

> <Gold.PLP.Chemscore.Metal>
0.0000

> <Gold.Chemscore.Hbonds>
donor molecule, donor type, donor heavy atom, donor atom, acceptor molecule, acceptor atom, score
      L1  H     3    25       P1  7948  1.00
      L1  H     6    52       P1 10747  0.98
      L1  H    12    40       P1  7948  0.81

> <Gold.PLP.Chemscore.Internal.Correction>
0.3934

> <Gold.Rescore>
     Score         DG    S(hbond)    S(metal)    S(lipo)     H(rot)  DE(clash)    DE(int)     intcor
     20.92     -23.20       2.75        0.00     108.52       1.62       0.25       2.03       ----

> <Gold.Chemscore.Fitness>
20.9188

> <Gold.Chemscore.DG>
-23.2000

> <Gold.Chemscore.ZeroCoef>
-5.4800

> <Gold.Chemscore.Hbond>
2.7458

> <Gold.Chemscore.Metal>
0.0000

> <Gold.Chemscore.Lipo>
108.5176

> <Gold.Chemscore.Internal_Hbond>
0.0000

> <Gold.Chemscore.DEClash>
0.2488

> <Gold.Chemscore.DEInternal>
2.0323

> <Gold.Chemscore.Rot>
1.6201

> <Gold.Chemscore.Internal.Correction>
   9.000000E+99

> <Gold.Chemscore.Hbonds>
donor molecule, donor type, donor heavy atom, donor atom, acceptor molecule, acceptor atom, score
      L1  H     3    25       P1  7948  0.70
      L1  H     6    52       P1 10747  0.92
      L1  H    12    40       P1  7948  0.52

> <Gold.Chemscore.Hbond.Weighted>
-9.1710

> <Gold.Chemscore.Metal.Weighted>
-0.0000

> <Gold.Chemscore.Lipo.Weighted>
-12.6966

> <Gold.Chemscore.Internal_Hbond.Weighted>
0.0000

> <Gold.Chemscore.DEClash.Weighted>
0.2488

> <Gold.Chemscore.DEInternal.Weighted>
2.0323

> <Gold.Chemscore.Rot.Weighted>
4.1475

> <Gold.Chemscore.Internal.Correction.Weighted>
   9.000000E+99

> <Gold.Protein.RotatedTorsions>
[ 6907 6896 6895 6894 ] final  105.90 input  -60.11 | X-H torsion
[ 7974 7965 7964 7962 ] final  127.65 input  175.53 | X-H torsion
[ 8008 7997 7996 7995 ] final -138.49 input   59.86 | X-H torsion
[ 10167 10162 10161 10158 ] final -163.80 input  -65.29 | X-H torsion
[ 10718 10713 10712 10709 ] final  -18.06 input   66.30 | X-H torsion
[ 10763 10752 10751 10750 ] final -169.39 input  -60.55 | X-H torsion
[ 11005 11000 10999 10996 ] final  -51.57 input  -57.11 | X-H torsion

> <Gold.Protein.ActiveResidues>
 VAL166  LYS551  ARG553  GLY616  TRP617  ASP618  TYR619  PRO620  LYS621  CYS622 
 ASP623  PHE694  ASN695  SER759  ASP760  ASP761  ALA762  ILE779  LEU786  VAL792 
 PHE793  MET794  SER795  GLU796  ALA797  LYS798  CYS799  TRP800  GLU811  SER814 

> <Gold.Protein.RotatedAtoms>
  152.5213  133.9460  159.7648 H   0  0  0  0  0  0  0  0  0  0  0  0  # atno 6907 bound_to 6896
  150.9780  133.6267  159.2734 H   0  0  0  0  0  0  0  0  0  0  0  0  # atno 6908 bound_to 6896
  151.3454  135.0879  159.9438 H   0  0  0  0  0  0  0  0  0  0  0  0  # atno 6909 bound_to 6896
  145.0482  139.3905  143.5067 H   0  0  0  0  0  0  0  0  0  0  0  0  # atno 7974 bound_to 7965
  155.4292  140.0524  157.3020 H   0  0  0  0  0  0  0  0  0  0  0  0  # atno 8008 bound_to 7997
  154.4867  140.2104  155.9597 H   0  0  0  0  0  0  0  0  0  0  0  0  # atno 8009 bound_to 7997
  156.1285  140.3176  155.8318 H   0  0  0  0  0  0  0  0  0  0  0  0  # atno 8010 bound_to 7997
  139.6295  144.0467  152.2003 H   0  0  0  0  0  0  0  0  0  0  0  0  # atno 10167 bound_to 10162
  156.5649  130.4735  149.6389 H   0  0  0  0  0  0  0  0  0  0  0  0  # atno 10718 bound_to 10713
  154.6528  135.2914  154.9966 H   0  0  0  0  0  0  0  0  0  0  0  0  # atno 10763 bound_to 10752
  154.1053  135.6570  153.4879 H   0  0  0  0  0  0  0  0  0  0  0  0  # atno 10764 bound_to 10752
  153.0386  135.5252  154.7443 H   0  0  0  0  0  0  0  0  0  0  0  0  # atno 10765 bound_to 10752
  141.0878  133.6639  156.3897 H   0  0  0  0  0  0  0  0  0  0  0  0  # atno 11005 bound_to 11000
  146.3515  140.0118  142.8666 LP  0  0  0  0  0  0  0  0  0  0  0  0  # atno 17320 bound_to 7965
  145.1561  140.9648  143.4404 LP  0  0  0  0  0  0  0  0  0  0  0  0  # atno 17321 bound_to 7965
  140.0129  144.6210  150.7632 LP  0  0  0  0  0  0  0  0  0  0  0  0  # atno 17342 bound_to 10162
  140.7431  143.2841  151.3514 LP  0  0  0  0  0  0  0  0  0  0  0  0  # atno 17343 bound_to 10162
  156.2766  130.7047  151.1860 LP  0  0  0  0  0  0  0  0  0  0  0  0  # atno 17370 bound_to 10713
  157.7361  131.0566  150.5434 LP  0  0  0  0  0  0  0  0  0  0  0  0  # atno 17371 bound_to 10713
  140.5322  134.6201  157.5353 LP  0  0  0  0  0  0  0  0  0  0  0  0  # atno 17394 bound_to 11000
  139.9699  134.7310  156.0063 LP  0  0  0  0  0  0  0  0  0  0  0  0  # atno 17395 bound_to 11000

$$$$
