AV-unprocessed.smi:1759|AV-procd|sdf|7087|dock6
  -GOLD-   22720 8303D 1   1.00000     0.00000
 Structure written by MMmdl.
 31 32  0  0  0  0  0  0  0  0  1 V2000
  149.7350  130.1205  152.9254 C   0  0  0  0  0  0  0  0  0  0  0  0
  150.0903  131.4927  153.3843 C   0  0  0  0  0  0  0  0  0  0  0  0
  149.7425  132.7395  152.9462 C   0  0  0  0  0  0  0  0  0  0  0  0
  150.4369  133.5974  153.8399 C   0  0  0  0  0  0  0  0  0  0  0  0
  150.3325  135.0067  153.7239 N   0  0  0  0  0  0  0  0  0  0  0  0
  151.0872  135.9364  154.3333 C   0  0  0  0  0  0  0  0  0  0  0  0
  152.0306  135.7009  155.0889 O   0  0  0  0  0  0  0  0  0  0  0  0
  150.6885  137.1750  154.0113 N   0  0  0  0  0  0  0  0  0  0  0  0
  151.3168  138.4033  154.4835 C   0  0  0  0  0  0  0  0  0  0  0  0
  150.4463  139.1099  155.5353 C   0  0  2  0  0  0  0  0  0  0  0  0
  149.2022  139.7780  154.9512 C   0  0  0  0  0  0  0  0  0  0  0  0
  148.9498  140.8861  155.9474 C   0  0  0  0  0  0  0  0  0  0  0  0
  150.3710  141.3320  156.2718 C   0  0  0  0  0  0  0  0  0  0  0  0
  151.1775  140.1624  156.1633 O   0  0  0  0  0  0  0  0  0  0  0  0
  151.1454  132.9344  154.7412 N   0  0  0  0  0  0  0  0  0  0  0  0
  150.9270  131.5819  154.4537 O   0  0  0  0  0  0  0  0  0  0  0  0
  149.0654  130.1580  152.0660 H   0  0  0  0  0  0  0  0  0  0  0  0
  149.2354  129.5656  153.7196 H   0  0  0  0  0  0  0  0  0  0  0  0
  150.6281  129.5672  152.6350 H   0  0  0  0  0  0  0  0  0  0  0  0
  149.0947  132.9936  152.1203 H   0  0  0  0  0  0  0  0  0  0  0  0
  149.6001  135.3434  153.1169 H   0  0  0  0  0  0  0  0  0  0  0  0
  149.9081  137.2780  153.3793 H   0  0  0  0  0  0  0  0  0  0  0  0
  152.2891  138.1526  154.9083 H   0  0  0  0  0  0  0  0  0  0  0  0
  151.5106  139.0712  153.6421 H   0  0  0  0  0  0  0  0  0  0  0  0
  150.1365  138.4083  156.3117 H   0  0  0  0  0  0  0  0  0  0  0  0
  149.4162  140.2033  153.9695 H   0  0  0  0  0  0  0  0  0  0  0  0
  148.3606  139.0923  154.8507 H   0  0  0  0  0  0  0  0  0  0  0  0
  148.3297  141.6898  155.5497 H   0  0  0  0  0  0  0  0  0  0  0  0
  148.4661  140.4868  156.8399 H   0  0  0  0  0  0  0  0  0  0  0  0
  150.7174  142.0591  155.5363 H   0  0  0  0  0  0  0  0  0  0  0  0
  150.4519  141.7849  157.2602 H   0  0  0  0  0  0  0  0  0  0  0  0
  1  2  1  0  0  0  0
  1 17  1  0  0  0  0
  1 18  1  0  0  0  0
  1 19  1  0  0  0  0
  2 16  1  0  0  0  0
  2  3  2  0  0  0  0
  3  4  1  0  0  0  0
  3 20  1  0  0  0  0
  4  5  1  0  0  0  0
  4 15  2  0  0  0  0
  5  6  1  0  0  0  0
  5 21  1  0  0  0  0
  6  7  2  0  0  0  0
  6  8  1  0  0  0  0
  8  9  1  0  0  0  0
  8 22  1  0  0  0  0
  9 10  1  0  0  0  0
  9 23  1  0  0  0  0
  9 24  1  0  0  0  0
 10 14  1  0  0  0  0
 10 11  1  0  0  0  0
 10 25  1  0  0  0  0
 11 12  1  0  0  0  0
 11 26  1  0  0  0  0
 11 27  1  0  0  0  0
 12 13  1  0  0  0  0
 12 28  1  0  0  0  0
 12 29  1  0  0  0  0
 13 14  1  0  0  0  0
 13 30  1  0  0  0  0
 13 31  1  0  0  0  0
 15 16  1  0  0  0  0
M  END
> <s_m_source_file>
AV-unprocessed.smi

> <i_m_source_file_index>
1759

> <i_lp_mmshare_version>
43012

> <i_f3d_flags>
0

> <s_epik_input>
W0NIM11jMVtjSF1jKG5vMSlbTkhdQyg9TylbTkhdW0NIMl1bQ0BASF0yW0NIMl1bQ0gyXVtDSDJdTzI=

> <s_epik_cmdline>
J2VwaWtfcHl0aG9uJywgJy1waCcsICc3LjAnLCAnLXRuJywgJzgnLCAnLW1hJywgJzIwMCcsICctbWV0YWxfYmluZGluZycsICctaW1hZScsICc8aW5maWxlLm1hZT4nLCAnLW9tYWUnLCAnPG91dGZpbGUubWFlPic=

> <r_lp_tautomer_probability>
1

> <r_epik_Ionization_Penalty>
2.1743e-05

> <r_epik_Ionization_Penalty_Charging>
0

> <r_epik_Ionization_Penalty_Neutral>
2.1743e-05

> <r_epik_State_Penalty>
-0

> <r_epik_Charging_Adjusted_Penalty>
0

> <i_epik_Tot_Q>
0

> <i_epik_Tot_abs_Q>
0

> <r_epik_Metal_State_Penalty>
-0

> <b_epik_Metal_Only>
0

> <s_lp_Force_Field>
OPLS_2005

> <r_lp_Energy>
14.3546

> <b_lp_Chiralities_Consistent>
1

> <s_lp_Variant>
AV-unprocessed.smi:1759-1

> <Gold.Version>
5.8.1

> <Gold.Id.Protein>
6NUR|6NUR_protein|mol2

> <Gold.PLP.Fitness>
37.1184

> <Gold.PLP.PLP>
-29.1854

> <Gold.PLP.part.hbond>
-5.0521

> <Gold.PLP.part.metal>
0.0000

> <Gold.PLP.part.buried>
-1.2232

> <Gold.PLP.part.nonpolar>
-21.4639

> <Gold.PLP.part.repulsive>
0.1996

> <Gold.PLP.ligand.clash>
0.0000

> <Gold.PLP.ligand.torsion>
0.1801

> <Gold.PLP.Chemscore.Hbond>
2.7640

> <Gold.PLP.Chemscore.CHOScore>
0.0000

> <Gold.PLP.Chemscore.Metal>
0.0000

> <Gold.Chemscore.Hbonds>
donor molecule, donor type, donor heavy atom, donor atom, acceptor molecule, acceptor atom, score
      L1  H     5    21       P1  7948  0.30
      L1  H     8    22       P1  7948  0.76

> <Gold.PLP.Chemscore.Internal.Correction>
0.0013

> <Gold.Rescore>
     Score         DG    S(hbond)    S(metal)    S(lipo)     H(rot)  DE(clash)    DE(int)     intcor
     12.50     -14.31       2.02        0.00      46.10       1.30       0.36       1.44       ----

> <Gold.Chemscore.Fitness>
12.5006

> <Gold.Chemscore.DG>
-14.3075

> <Gold.Chemscore.ZeroCoef>
-5.4800

> <Gold.Chemscore.Hbond>
2.0220

> <Gold.Chemscore.Metal>
0.0000

> <Gold.Chemscore.Lipo>
46.0954

> <Gold.Chemscore.Internal_Hbond>
0.0000

> <Gold.Chemscore.DEClash>
0.3643

> <Gold.Chemscore.DEInternal>
1.4426

> <Gold.Chemscore.Rot>
1.2965

> <Gold.Chemscore.Internal.Correction>
   9.000000E+99

> <Gold.Chemscore.Hbonds>
donor molecule, donor type, donor heavy atom, donor atom, acceptor molecule, acceptor atom, score
      L1  H     8    22       P1  7948  0.32
      P1  H 10752 10765       L1     7  0.01

> <Gold.Chemscore.Hbond.Weighted>
-6.7535

> <Gold.Chemscore.Metal.Weighted>
-0.0000

> <Gold.Chemscore.Lipo.Weighted>
-5.3932

> <Gold.Chemscore.Internal_Hbond.Weighted>
0.0000

> <Gold.Chemscore.DEClash.Weighted>
0.3643

> <Gold.Chemscore.DEInternal.Weighted>
1.4426

> <Gold.Chemscore.Rot.Weighted>
3.3192

> <Gold.Chemscore.Internal.Correction.Weighted>
   9.000000E+99

> <Gold.Protein.RotatedTorsions>
[ 6907 6896 6895 6894 ] final  -59.26 input  -60.11 | X-H torsion
[ 7974 7965 7964 7962 ] final   65.81 input  175.53 | X-H torsion
[ 8008 7997 7996 7995 ] final  167.58 input   59.86 | X-H torsion
[ 10167 10162 10161 10158 ] final -148.14 input  -65.29 | X-H torsion
[ 10718 10713 10712 10709 ] final   58.65 input   66.30 | X-H torsion
[ 10763 10752 10751 10750 ] final -161.80 input  -60.55 | X-H torsion
[ 11005 11000 10999 10996 ] final  143.99 input  -57.11 | X-H torsion

> <Gold.Protein.ActiveResidues>
 VAL166  LYS551  ARG553  GLY616  TRP617  ASP618  TYR619  PRO620  LYS621  CYS622 
 ASP623  PHE694  ASN695  SER759  ASP760  ASP761  ALA762  ILE779  LEU786  VAL792 
 PHE793  MET794  SER795  GLU796  ALA797  LYS798  CYS799  TRP800  GLU811  SER814 

> <Gold.Protein.RotatedAtoms>
  150.7944  134.6992  159.6540 H   0  0  0  0  0  0  0  0  0  0  0  0  # atno 6907 bound_to 6896
  152.4054  134.6212  160.0061 H   0  0  0  0  0  0  0  0  0  0  0  0  # atno 6908 bound_to 6896
  151.6471  133.3286  159.3179 H   0  0  0  0  0  0  0  0  0  0  0  0  # atno 6909 bound_to 6896
  145.8341  139.3156  143.0970 H   0  0  0  0  0  0  0  0  0  0  0  0  # atno 7974 bound_to 7965
  156.1621  140.1613  156.8593 H   0  0  0  0  0  0  0  0  0  0  0  0  # atno 8008 bound_to 7997
  154.5171  140.0787  156.8138 H   0  0  0  0  0  0  0  0  0  0  0  0  # atno 8009 bound_to 7997
  155.3685  140.3399  155.4245 H   0  0  0  0  0  0  0  0  0  0  0  0  # atno 8010 bound_to 7997
  139.7558  143.8450  152.2597 H   0  0  0  0  0  0  0  0  0  0  0  0  # atno 10167 bound_to 10162
  157.5613  130.8837  149.9115 H   0  0  0  0  0  0  0  0  0  0  0  0  # atno 10718 bound_to 10713
  154.7271  135.3038  154.8952 H   0  0  0  0  0  0  0  0  0  0  0  0  # atno 10763 bound_to 10752
  153.9806  135.6731  153.4754 H   0  0  0  0  0  0  0  0  0  0  0  0  # atno 10764 bound_to 10752
  153.0885  135.4971  154.8564 H   0  0  0  0  0  0  0  0  0  0  0  0  # atno 10765 bound_to 10752
  140.0597  134.9211  157.1162 H   0  0  0  0  0  0  0  0  0  0  0  0  # atno 11005 bound_to 11000
  145.9538  140.8888  143.0245 LP  0  0  0  0  0  0  0  0  0  0  0  0  # atno 17320 bound_to 7965
  144.6737  140.1717  143.7413 LP  0  0  0  0  0  0  0  0  0  0  0  0  # atno 17321 bound_to 7965
  139.8441  144.7196  150.9294 LP  0  0  0  0  0  0  0  0  0  0  0  0  # atno 17342 bound_to 10162
  140.7802  143.3957  151.1234 LP  0  0  0  0  0  0  0  0  0  0  0  0  # atno 17343 bound_to 10162
  156.0665  130.3691  150.0867 LP  0  0  0  0  0  0  0  0  0  0  0  0  # atno 17370 bound_to 10713
  156.9031  130.9627  151.3573 LP  0  0  0  0  0  0  0  0  0  0  0  0  # atno 17371 bound_to 10713
  140.3789  134.2308  155.7172 LP  0  0  0  0  0  0  0  0  0  0  0  0  # atno 17394 bound_to 11000
  141.1968  133.8075  157.0657 LP  0  0  0  0  0  0  0  0  0  0  0  0  # atno 17395 bound_to 11000

$$$$
