AV-unprocessed.smi:3334|AV-procd|sdf|12836|dock3
  -GOLD-   2272019213D 1   1.00000     0.00000
 Structure written by MMmdl.
 41 42  0  0  0  0  0  0  0  0  1 V2000
  153.0493  140.6235  160.3747 C   0  0  0  0  0  0  0  0  0  0  0  0
  152.7878  141.7612  159.3771 C   0  0  0  0  0  0  0  0  0  0  0  0
  152.0852  142.9601  160.0272 C   0  0  0  0  0  0  0  0  0  0  0  0
  152.0606  141.2839  158.1582 C   0  0  0  0  0  0  0  0  0  0  0  0
  152.4899  140.2694  157.4035 N   0  0  0  0  0  0  0  0  0  0  0  0
  151.6503  140.0048  156.3165 C   0  0  0  0  0  0  0  0  0  0  0  0
  152.0128  138.9183  155.3426 C   0  0  0  0  0  0  0  0  0  0  0  0
  150.8704  138.5582  154.3737 C   0  0  0  0  0  0  0  0  0  0  0  0
  150.7708  137.1152  154.1761 N   0  0  0  0  0  0  0  0  0  0  0  0
  150.3586  136.2345  155.0988 C   0  0  0  0  0  0  0  0  0  0  0  0
  150.1808  136.5229  156.2824 O   0  0  0  0  0  0  0  0  0  0  0  0
  150.0622  134.8176  154.5969 C   0  0  0  0  0  0  0  0  0  0  0  0
  150.0198  133.7691  155.7312 C   0  0  1  0  0  0  0  0  0  0  0  0
  149.6125  132.3870  155.2767 C   0  0  0  0  0  0  0  0  0  0  0  0
  150.4643  131.4444  155.6720 C   0  0  0  0  0  0  0  0  0  0  0  0
  151.6163  132.0038  156.4590 C   0  0  0  0  0  0  0  0  0  0  0  0
  151.3977  133.5324  156.4005 C   0  0  0  0  0  0  0  0  0  0  0  0
  150.5738  140.8531  156.2475 C   0  0  0  0  0  0  0  0  0  0  0  0
  150.5810  142.0182  157.5435 S   0  0  0  0  0  0  0  0  0  0  0  0
  153.6045  139.8106  159.9055 H   0  0  0  0  0  0  0  0  0  0  0  0
  152.1179  140.2111  160.7635 H   0  0  0  0  0  0  0  0  0  0  0  0
  153.6347  140.9745  161.2247 H   0  0  0  0  0  0  0  0  0  0  0  0
  153.7653  142.1134  159.0447 H   0  0  0  0  0  0  0  0  0  0  0  0
  151.9767  143.7813  159.3180 H   0  0  0  0  0  0  0  0  0  0  0  0
  152.6528  143.3339  160.8795 H   0  0  0  0  0  0  0  0  0  0  0  0
  151.0910  142.6907  160.3841 H   0  0  0  0  0  0  0  0  0  0  0  0
  152.8804  139.2286  154.7587 H   0  0  0  0  0  0  0  0  0  0  0  0
  152.3278  138.0221  155.8778 H   0  0  0  0  0  0  0  0  0  0  0  0
  149.9201  138.9486  154.7384 H   0  0  0  0  0  0  0  0  0  0  0  0
  151.0653  139.0487  153.4186 H   0  0  0  0  0  0  0  0  0  0  0  0
  150.9000  136.7801  153.2321 H   0  0  0  0  0  0  0  0  0  0  0  0
  149.1123  134.8143  154.0592 H   0  0  0  0  0  0  0  0  0  0  0  0
  150.8287  134.5449  153.8711 H   0  0  0  0  0  0  0  0  0  0  0  0
  149.3020  134.0820  156.4911 H   0  0  0  0  0  0  0  0  0  0  0  0
  148.7108  132.2042  154.7102 H   0  0  0  0  0  0  0  0  0  0  0  0
  150.3602  130.3883  155.4718 H   0  0  0  0  0  0  0  0  0  0  0  0
  151.5813  131.6293  157.4823 H   0  0  0  0  0  0  0  0  0  0  0  0
  152.5668  131.7122  156.0114 H   0  0  0  0  0  0  0  0  0  0  0  0
  152.1955  133.9893  155.8134 H   0  0  0  0  0  0  0  0  0  0  0  0
  151.4389  133.9798  157.3941 H   0  0  0  0  0  0  0  0  0  0  0  0
  149.7902  140.8754  155.5049 H   0  0  0  0  0  0  0  0  0  0  0  0
  1  2  1  0  0  0  0
  1 20  1  0  0  0  0
  1 21  1  0  0  0  0
  1 22  1  0  0  0  0
  2  3  1  0  0  0  0
  2  4  1  0  0  0  0
  2 23  1  0  0  0  0
  3 24  1  0  0  0  0
  3 25  1  0  0  0  0
  3 26  1  0  0  0  0
  4 19  1  0  0  0  0
  4  5  2  0  0  0  0
  5  6  1  0  0  0  0
  6  7  1  0  0  0  0
  6 18  2  0  0  0  0
  7  8  1  0  0  0  0
  7 27  1  0  0  0  0
  7 28  1  0  0  0  0
  8  9  1  0  0  0  0
  8 29  1  0  0  0  0
  8 30  1  0  0  0  0
  9 10  1  0  0  0  0
  9 31  1  0  0  0  0
 10 11  2  0  0  0  0
 10 12  1  0  0  0  0
 12 13  1  0  0  0  0
 12 32  1  0  0  0  0
 12 33  1  0  0  0  0
 13 17  1  0  0  0  0
 13 14  1  0  0  0  0
 13 34  1  0  0  0  0
 14 15  2  0  0  0  0
 14 35  1  0  0  0  0
 15 16  1  0  0  0  0
 15 36  1  0  0  0  0
 16 17  1  0  0  0  0
 16 37  1  0  0  0  0
 16 38  1  0  0  0  0
 17 39  1  0  0  0  0
 17 40  1  0  0  0  0
 18 19  1  0  0  0  0
 18 41  1  0  0  0  0
M  END
> <s_m_source_file>
AV-unprocessed.smi

> <i_m_source_file_index>
3334

> <i_lp_mmshare_version>
43012

> <i_f3d_flags>
0

> <s_epik_input>
W0NIM11bQ0hdKFtDSDNdKWMxbmMoW2NIXXMxKVtDSDJdW0NIMl1bTkhdQyg9TylbQ0gyXVtDQEBIXTJbQ0hdPVtDSF1bQ0gyXVtDSDJdMg==

> <s_epik_cmdline>
J2VwaWtfcHl0aG9uJywgJy1waCcsICc3LjAnLCAnLXRuJywgJzgnLCAnLW1hJywgJzIwMCcsICctbWV0YWxfYmluZGluZycsICctaW1hZScsICc8aW5maWxlLm1hZT4nLCAnLW9tYWUnLCAnPG91dGZpbGUubWFlPic=

> <r_epik_Ionization_Penalty>
0.000771592

> <r_epik_Ionization_Penalty_Charging>
0

> <r_epik_Ionization_Penalty_Neutral>
0.000771592

> <r_epik_State_Penalty>
0.000494253

> <r_epik_Charging_Adjusted_Penalty>
0.000494253

> <i_epik_Tot_Q>
0

> <i_epik_Tot_abs_Q>
0

> <r_epik_Metal_State_Penalty>
-0

> <b_epik_Metal_Only>
0

> <s_lp_Force_Field>
OPLS_2005

> <r_lp_Energy>
5.93023

> <b_lp_Chiralities_Consistent>
1

> <s_lp_Variant>
AV-unprocessed.smi:3334-2

> <Gold.Version>
5.8.1

> <Gold.Id.Protein>
6NUR|6NUR_protein|mol2

> <Gold.PLP.Fitness>
42.7124

> <Gold.PLP.PLP>
-38.4876

> <Gold.PLP.part.hbond>
-2.8892

> <Gold.PLP.part.metal>
0.0000

> <Gold.PLP.part.buried>
-1.8203

> <Gold.PLP.part.nonpolar>
-32.9063

> <Gold.PLP.part.repulsive>
0.1101

> <Gold.PLP.ligand.clash>
0.0000

> <Gold.PLP.ligand.torsion>
0.8104

> <Gold.PLP.Chemscore.Hbond>
1.9120

> <Gold.PLP.Chemscore.CHOScore>
0.0000

> <Gold.PLP.Chemscore.Metal>
0.0000

> <Gold.Chemscore.Hbonds>
donor molecule, donor type, donor heavy atom, donor atom, acceptor molecule, acceptor atom, score
      L1  H     9    31       P1  7949  0.85
      P1  H  7997  8008       L1     5  0.98

> <Gold.PLP.Chemscore.Internal.Correction>
0.1096

> <Gold.Rescore>
     Score         DG    S(hbond)    S(metal)    S(lipo)     H(rot)  DE(clash)    DE(int)     intcor
     17.96     -18.85       1.54        0.00     103.46       1.52       0.12       0.77       ----

> <Gold.Chemscore.Fitness>
17.9564

> <Gold.Chemscore.DG>
-18.8464

> <Gold.Chemscore.ZeroCoef>
-5.4800

> <Gold.Chemscore.Hbond>
1.5397

> <Gold.Chemscore.Metal>
0.0000

> <Gold.Chemscore.Lipo>
103.4643

> <Gold.Chemscore.Internal_Hbond>
0.0000

> <Gold.Chemscore.DEClash>
0.1171

> <Gold.Chemscore.DEInternal>
0.7729

> <Gold.Chemscore.Rot>
1.5162

> <Gold.Chemscore.Internal.Correction>
   9.000000E+99

> <Gold.Chemscore.Hbonds>
donor molecule, donor type, donor heavy atom, donor atom, acceptor molecule, acceptor atom, score
      L1  H     9    31       P1  7949  0.15
      P1  H  7997  8008       L1     5  0.43

> <Gold.Chemscore.Hbond.Weighted>
-5.1426

> <Gold.Chemscore.Metal.Weighted>
-0.0000

> <Gold.Chemscore.Lipo.Weighted>
-12.1053

> <Gold.Chemscore.Internal_Hbond.Weighted>
0.0000

> <Gold.Chemscore.DEClash.Weighted>
0.1171

> <Gold.Chemscore.DEInternal.Weighted>
0.7729

> <Gold.Chemscore.Rot.Weighted>
3.8815

> <Gold.Chemscore.Internal.Correction.Weighted>
   9.000000E+99

> <Gold.Protein.RotatedTorsions>
[ 6907 6896 6895 6894 ] final -124.69 input  -60.11 | X-H torsion
[ 7974 7965 7964 7962 ] final -109.34 input  175.53 | X-H torsion
[ 8008 7997 7996 7995 ] final  -61.30 input   59.86 | X-H torsion
[ 10167 10162 10161 10158 ] final  150.20 input  -65.29 | X-H torsion
[ 10718 10713 10712 10709 ] final   75.21 input   66.30 | X-H torsion
[ 10763 10752 10751 10750 ] final  -57.27 input  -60.55 | X-H torsion
[ 11005 11000 10999 10996 ] final -161.21 input  -57.11 | X-H torsion

> <Gold.Protein.ActiveResidues>
 VAL166  LYS551  ARG553  GLY616  TRP617  ASP618  TYR619  PRO620  LYS621  CYS622 
 ASP623  PHE694  ASN695  SER759  ASP760  ASP761  ALA762  ILE779  LEU786  VAL792 
 PHE793  MET794  SER795  GLU796  ALA797  LYS798  CYS799  TRP800  GLU811  SER814 

> <Gold.Protein.RotatedAtoms>
  150.8793  133.7394  159.2936 H   0  0  0  0  0  0  0  0  0  0  0  0  # atno 6907 bound_to 6896
  151.4981  135.1059  159.9831 H   0  0  0  0  0  0  0  0  0  0  0  0  # atno 6908 bound_to 6896
  152.4749  133.8069  159.7038 H   0  0  0  0  0  0  0  0  0  0  0  0  # atno 6909 bound_to 6896
  145.1817  140.8974  143.3476 H   0  0  0  0  0  0  0  0  0  0  0  0  # atno 7974 bound_to 7965
  154.4441  140.1020  156.6409 H   0  0  0  0  0  0  0  0  0  0  0  0  # atno 8008 bound_to 7997
  155.5502  140.3485  155.4448 H   0  0  0  0  0  0  0  0  0  0  0  0  # atno 8009 bound_to 7997
  156.0534  140.1309  157.0013 H   0  0  0  0  0  0  0  0  0  0  0  0  # atno 8010 bound_to 7997
  139.4852  144.5541  151.7349 H   0  0  0  0  0  0  0  0  0  0  0  0  # atno 10167 bound_to 10162
  157.6625  130.9715  150.1321 H   0  0  0  0  0  0  0  0  0  0  0  0  # atno 10718 bound_to 10713
  154.2198  135.6379  153.5141 H   0  0  0  0  0  0  0  0  0  0  0  0  # atno 10763 bound_to 10752
  152.9971  135.5494  154.6126 H   0  0  0  0  0  0  0  0  0  0  0  0  # atno 10764 bound_to 10752
  154.5583  135.2907  155.0917 H   0  0  0  0  0  0  0  0  0  0  0  0  # atno 10765 bound_to 10752
  140.6230  134.4731  157.5225 H   0  0  0  0  0  0  0  0  0  0  0  0  # atno 11005 bound_to 11000
  145.0129  139.3493  143.6111 LP  0  0  0  0  0  0  0  0  0  0  0  0  # atno 17320 bound_to 7965
  146.3452  139.9399  142.8742 LP  0  0  0  0  0  0  0  0  0  0  0  0  # atno 17321 bound_to 7965
  140.5099  144.1040  150.5992 LP  0  0  0  0  0  0  0  0  0  0  0  0  # atno 17342 bound_to 10162
  140.3963  143.2727  152.0001 LP  0  0  0  0  0  0  0  0  0  0  0  0  # atno 17343 bound_to 10162
  156.2165  130.3670  149.8607 LP  0  0  0  0  0  0  0  0  0  0  0  0  # atno 17370 bound_to 10713
  156.6471  130.8728  151.3524 LP  0  0  0  0  0  0  0  0  0  0  0  0  # atno 17371 bound_to 10713
  139.9146  134.8273  156.1410 LP  0  0  0  0  0  0  0  0  0  0  0  0  # atno 17394 bound_to 11000
  141.0729  133.6788  156.2177 LP  0  0  0  0  0  0  0  0  0  0  0  0  # atno 17395 bound_to 11000

$$$$
