AV-unprocessed.smi:527|AV-procd|sdf|2820|dock3
  -GOLD-   2262023303D 1   1.00000     0.00000
 Structure written by MMmdl.
 42 43  0  0  0  0  0  0  0  0  1 V2000
  152.0747  144.4214  161.2115 C   0  0  0  0  0  0  0  0  0  0  0  0
  152.7832  143.2529  160.5012 C   0  0  1  0  0  0  0  0  0  0  0  0
  153.2743  142.2358  161.5510 C   0  0  0  0  0  0  0  0  0  0  0  0
  154.0187  141.0628  160.9045 C   0  0  0  0  0  0  0  0  0  0  0  0
  153.1279  140.3606  159.8759 C   0  0  0  0  0  0  0  0  0  0  0  0
  152.6313  141.3448  158.7989 C   0  0  1  0  0  0  0  0  0  0  0  0
  151.7541  140.6389  157.8654 N   0  0  0  0  0  0  0  0  0  0  0  0
  152.1196  139.6201  157.0733 C   0  0  0  0  0  0  0  0  0  0  0  0
  153.1434  138.9567  157.2521 O   0  0  0  0  0  0  0  0  0  0  0  0
  151.2276  139.4373  156.0804 N   0  0  0  0  0  0  0  0  0  0  0  0
  151.2656  138.5120  155.0998 C   0  0  0  0  0  0  0  0  0  0  0  0
  152.1493  137.6610  154.9674 O   0  0  0  0  0  0  0  0  0  0  0  0
  150.0972  138.5824  154.1073 C   0  0  0  0  0  0  0  0  0  0  0  0
  149.0941  139.5672  154.4759 N   0  0  0  0  0  0  0  0  0  0  0  0
  149.2220  140.9502  154.4386 C   0  0  0  0  0  0  0  0  0  0  0  0
  148.0214  141.4675  154.8701 C   0  0  0  0  0  0  0  0  0  0  0  0
  147.1464  140.4285  155.1779 N   0  0  0  0  0  0  0  0  0  0  0  0
  147.8501  139.3344  154.9176 C   0  0  0  0  0  0  0  0  0  0  0  0
  151.8982  142.5637  159.4231 C   0  0  2  0  0  0  0  0  0  0  0  0
  151.4434  143.5552  158.3292 C   0  0  0  0  0  0  0  0  0  0  0  0
  151.1346  144.1020  161.6620 H   0  0  0  0  0  0  0  0  0  0  0  0
  151.8596  145.2436  160.5299 H   0  0  0  0  0  0  0  0  0  0  0  0
  152.6985  144.8307  162.0066 H   0  0  0  0  0  0  0  0  0  0  0  0
  153.6643  143.6604  160.0031 H   0  0  0  0  0  0  0  0  0  0  0  0
  153.9338  142.7271  162.2672 H   0  0  0  0  0  0  0  0  0  0  0  0
  152.4266  141.8571  162.1239 H   0  0  0  0  0  0  0  0  0  0  0  0
  154.9284  141.4225  160.4221 H   0  0  0  0  0  0  0  0  0  0  0  0
  154.3325  140.3529  161.6702 H   0  0  0  0  0  0  0  0  0  0  0  0
  153.6848  139.5444  159.4141 H   0  0  0  0  0  0  0  0  0  0  0  0
  152.2762  139.9050  160.3832 H   0  0  0  0  0  0  0  0  0  0  0  0
  153.4978  141.7226  158.2519 H   0  0  0  0  0  0  0  0  0  0  0  0
  150.8001  140.9640  157.8110 H   0  0  0  0  0  0  0  0  0  0  0  0
  150.4410  140.0694  156.0649 H   0  0  0  0  0  0  0  0  0  0  0  0
  150.4757  138.8250  153.1132 H   0  0  0  0  0  0  0  0  0  0  0  0
  149.6184  137.6046  154.0411 H   0  0  0  0  0  0  0  0  0  0  0  0
  150.1292  141.4381  154.1134 H   0  0  0  0  0  0  0  0  0  0  0  0
  147.7217  142.4992  154.9803 H   0  0  0  0  0  0  0  0  0  0  0  0
  147.4506  138.3396  155.0507 H   0  0  0  0  0  0  0  0  0  0  0  0
  151.0009  142.1917  159.9207 H   0  0  0  0  0  0  0  0  0  0  0  0
  152.2989  144.0026  157.8225 H   0  0  0  0  0  0  0  0  0  0  0  0
  150.8374  144.3622  158.7385 H   0  0  0  0  0  0  0  0  0  0  0  0
  150.8288  143.0713  157.5705 H   0  0  0  0  0  0  0  0  0  0  0  0
  1  2  1  0  0  0  0
  1 21  1  0  0  0  0
  1 22  1  0  0  0  0
  1 23  1  0  0  0  0
  2 19  1  0  0  0  0
  2  3  1  0  0  0  0
  2 24  1  0  0  0  0
  3  4  1  0  0  0  0
  3 25  1  0  0  0  0
  3 26  1  0  0  0  0
  4  5  1  0  0  0  0
  4 27  1  0  0  0  0
  4 28  1  0  0  0  0
  5  6  1  0  0  0  0
  5 29  1  0  0  0  0
  5 30  1  0  0  0  0
  6  7  1  0  0  0  0
  6 19  1  0  0  0  0
  6 31  1  0  0  0  0
  7  8  1  0  0  0  0
  7 32  1  0  0  0  0
  8  9  2  0  0  0  0
  8 10  1  0  0  0  0
 10 11  1  0  0  0  0
 10 33  1  0  0  0  0
 11 12  2  0  0  0  0
 11 13  1  0  0  0  0
 13 14  1  0  0  0  0
 13 34  1  0  0  0  0
 13 35  1  0  0  0  0
 14 18  1  0  0  0  0
 14 15  1  0  0  0  0
 15 16  2  0  0  0  0
 15 36  1  0  0  0  0
 16 17  1  0  0  0  0
 16 37  1  0  0  0  0
 17 18  2  0  0  0  0
 18 38  1  0  0  0  0
 19 20  1  0  0  0  0
 19 39  1  0  0  0  0
 20 40  1  0  0  0  0
 20 41  1  0  0  0  0
 20 42  1  0  0  0  0
M  END
> <s_m_source_file>
AV-unprocessed.smi

> <i_m_source_file_index>
527

> <i_lp_mmshare_version>
43012

> <i_f3d_flags>
0

> <s_epik_input>
W0NIM11bQ0BASF0xW0NIMl1bQ0gyXVtDSDJdW0NASF0oW0NASF0xW0NIM10pW05IXUMoPU8pW05IXUMoPU8pW0NIMl1uMltjSF1bY0hdbltjSF0y

> <s_epik_cmdline>
J2VwaWtfcHl0aG9uJywgJy1waCcsICc3LjAnLCAnLXRuJywgJzgnLCAnLW1hJywgJzIwMCcsICctbWV0YWxfYmluZGluZycsICctaW1hZScsICc8aW5maWxlLm1hZT4nLCAnLW9tYWUnLCAnPG91dGZpbGUubWFlPic=

> <r_lp_tautomer_probability>
1

> <r_epik_Ionization_Penalty>
0.172132

> <r_epik_Ionization_Penalty_Charging>
0.172105

> <r_epik_Ionization_Penalty_Neutral>
2.71747e-05

> <r_epik_State_Penalty>
0.161503

> <r_epik_Charging_Adjusted_Penalty>
0.333607

> <i_epik_Tot_Q>
0

> <i_epik_Tot_abs_Q>
0

> <r_epik_Metal_State_Penalty>
0.124763

> <b_epik_Metal_Only>
0

> <s_lp_Force_Field>
OPLS_2005

> <r_lp_Energy>
15.9673

> <b_lp_Chiralities_Consistent>
1

> <s_lp_Variant>
AV-unprocessed.smi:527-6

> <Gold.Version>
5.8.1

> <Gold.Id.Protein>
6NUR|6NUR_protein|mol2

> <Gold.PLP.Fitness>
48.1492

> <Gold.PLP.PLP>
-41.1819

> <Gold.PLP.part.hbond>
-2.0000

> <Gold.PLP.part.metal>
0.0000

> <Gold.PLP.part.buried>
-5.0550

> <Gold.PLP.part.nonpolar>
-36.5281

> <Gold.PLP.part.repulsive>
0.3121

> <Gold.PLP.ligand.clash>
0.0000

> <Gold.PLP.ligand.torsion>
0.2149

> <Gold.PLP.Chemscore.Hbond>
1.4545

> <Gold.PLP.Chemscore.CHOScore>
1.0000

> <Gold.PLP.Chemscore.Metal>
0.0000

> <Gold.Chemscore.Hbonds>
donor molecule, donor type, donor heavy atom, donor atom, acceptor molecule, acceptor atom, score
      P1  H  7997  8010       L1     9  1.00
      P1  H 10752 10765       L1    12  0.38
      L1  C    16    37       P1  8028  0.90

> <Gold.PLP.Chemscore.Internal.Correction>
0.0336

> <Gold.Rescore>
     Score         DG    S(hbond)    S(metal)    S(lipo)     H(rot)  DE(clash)    DE(int)     intcor
     17.82     -19.70       1.82        0.00     105.95       1.66       0.17       1.71       ----

> <Gold.Chemscore.Fitness>
17.8176

> <Gold.Chemscore.DG>
-19.6988

> <Gold.Chemscore.ZeroCoef>
-5.4800

> <Gold.Chemscore.Hbond>
1.8203

> <Gold.Chemscore.Metal>
0.0000

> <Gold.Chemscore.Lipo>
105.9471

> <Gold.Chemscore.Internal_Hbond>
0.0000

> <Gold.Chemscore.DEClash>
0.1726

> <Gold.Chemscore.DEInternal>
1.7085

> <Gold.Chemscore.Rot>
1.6629

> <Gold.Chemscore.Internal.Correction>
   9.000000E+99

> <Gold.Chemscore.Hbonds>
donor molecule, donor type, donor heavy atom, donor atom, acceptor molecule, acceptor atom, score
      P1  H  7997  8010       L1     9  0.65
      P1  H 10752 10765       L1    12  0.38

> <Gold.Chemscore.Hbond.Weighted>
-6.0799

> <Gold.Chemscore.Metal.Weighted>
-0.0000

> <Gold.Chemscore.Lipo.Weighted>
-12.3958

> <Gold.Chemscore.Internal_Hbond.Weighted>
0.0000

> <Gold.Chemscore.DEClash.Weighted>
0.1726

> <Gold.Chemscore.DEInternal.Weighted>
1.7085

> <Gold.Chemscore.Rot.Weighted>
4.2569

> <Gold.Chemscore.Internal.Correction.Weighted>
   9.000000E+99

> <Gold.Protein.RotatedTorsions>
[ 6907 6896 6895 6894 ] final   10.90 input  -60.11 | X-H torsion
[ 7974 7965 7964 7962 ] final   70.00 input  175.53 | X-H torsion
[ 8008 7997 7996 7995 ] final   37.78 input   59.86 | X-H torsion
[ 10167 10162 10161 10158 ] final  -64.95 input  -65.29 | X-H torsion
[ 10718 10713 10712 10709 ] final -145.87 input   66.30 | X-H torsion
[ 10763 10752 10751 10750 ] final  176.29 input  -60.55 | X-H torsion
[ 11005 11000 10999 10996 ] final  -61.77 input  -57.11 | X-H torsion

> <Gold.Protein.ActiveResidues>
 VAL166  LYS551  ARG553  GLY616  TRP617  ASP618  TYR619  PRO620  LYS621  CYS622 
 ASP623  PHE694  ASN695  SER759  ASP760  ASP761  ALA762  ILE779  LEU786  VAL792 
 PHE793  MET794  SER795  GLU796  ALA797  LYS798  CYS799  TRP800  GLU811  SER814 

> <Gold.Protein.RotatedAtoms>
  151.7457  135.0844  160.0322 H   0  0  0  0  0  0  0  0  0  0  0  0  # atno 6907 bound_to 6896
  152.3450  133.6107  159.5912 H   0  0  0  0  0  0  0  0  0  0  0  0  # atno 6908 bound_to 6896
  150.7503  133.9579  159.3548 H   0  0  0  0  0  0  0  0  0  0  0  0  # atno 6909 bound_to 6896
  145.7835  139.2899  143.1252 H   0  0  0  0  0  0  0  0  0  0  0  0  # atno 7974 bound_to 7965
  155.2094  140.3322  155.4331 H   0  0  0  0  0  0  0  0  0  0  0  0  # atno 8008 bound_to 7997
  156.2376  140.1880  156.7125 H   0  0  0  0  0  0  0  0  0  0  0  0  # atno 8009 bound_to 7997
  154.6088  140.0612  156.9452 H   0  0  0  0  0  0  0  0  0  0  0  0  # atno 8010 bound_to 7997
  140.5764  143.2322  151.6432 H   0  0  0  0  0  0  0  0  0  0  0  0  # atno 10167 bound_to 10162
  156.3878  130.7870  151.2069 H   0  0  0  0  0  0  0  0  0  0  0  0  # atno 10718 bound_to 10713
  154.4792  135.2774  155.1584 H   0  0  0  0  0  0  0  0  0  0  0  0  # atno 10763 bound_to 10752
  154.3301  135.6192  153.5551 H   0  0  0  0  0  0  0  0  0  0  0  0  # atno 10764 bound_to 10752
  152.9873  135.5763  154.5189 H   0  0  0  0  0  0  0  0  0  0  0  0  # atno 10765 bound_to 10752
  141.1336  133.6633  156.5426 H   0  0  0  0  0  0  0  0  0  0  0  0  # atno 11005 bound_to 11000
  146.0050  140.8487  142.9999 LP  0  0  0  0  0  0  0  0  0  0  0  0  # atno 17320 bound_to 7965
  144.6792  140.2407  143.7344 LP  0  0  0  0  0  0  0  0  0  0  0  0  # atno 17321 bound_to 7965
  139.5145  144.3408  152.0742 LP  0  0  0  0  0  0  0  0  0  0  0  0  # atno 17342 bound_to 10162
  140.2552  144.4126  150.6206 LP  0  0  0  0  0  0  0  0  0  0  0  0  # atno 17343 bound_to 10162
  157.7497  131.0324  150.4227 LP  0  0  0  0  0  0  0  0  0  0  0  0  # atno 17370 bound_to 10713
  156.4483  130.4006  149.6652 LP  0  0  0  0  0  0  0  0  0  0  0  0  # atno 17371 bound_to 10713
  140.4128  134.7257  157.4845 LP  0  0  0  0  0  0  0  0  0  0  0  0  # atno 17394 bound_to 11000
  140.0415  134.6260  155.8974 LP  0  0  0  0  0  0  0  0  0  0  0  0  # atno 17395 bound_to 11000

$$$$
