AV-unprocessed.smi:630|AV-procd|sdf|3123|dock4
  -GOLD-   22720 0 43D 1   1.00000     0.00000
 Structure written by MMmdl.
 36 37  0  0  0  0  0  0  0  0  2 V2000
  149.1617  135.6730  154.5377 N   0  0  0  0  0  0  0  0  0  0  0  0
  150.0580  136.5625  154.9739 C   0  0  0  0  0  0  0  0  0  0  0  0
  151.2591  136.3022  155.0254 O   0  0  0  0  0  0  0  0  0  0  0  0
  149.5214  137.9422  155.4133 C   0  0  2  0  0  0  0  0  0  0  0  0
  150.0746  139.0385  154.4653 C   0  0  0  0  0  0  0  0  0  0  0  0
  150.0971  140.4766  155.0085 C   0  0  0  0  0  0  0  0  0  0  0  0
  151.3476  140.7742  155.8528 C   0  0  0  0  0  0  0  0  0  0  0  0
  151.3099  140.2000  157.2752 C   0  0  0  0  0  0  0  0  0  0  0  0
  151.1191  138.6761  157.3609 C   0  0  0  0  0  0  0  0  0  0  0  0
  149.7038  138.2179  156.9425 C   0  0  2  0  0  0  0  0  0  0  0  0
  149.3140  137.0587  157.7539 N   0  0  0  0  0  0  0  0  0  0  0  0
  149.4645  136.9248  159.0807 C   0  0  0  0  0  0  0  0  0  0  0  0
  149.9964  137.8250  159.7346 O   0  0  0  0  0  0  0  0  0  0  0  0
  148.9744  135.7628  159.5688 N   0  5  0  0  0  0  0  0  0  0  0  0
  148.2259  135.7651  160.6837 C   0  0  0  0  0  0  0  0  0  0  0  0
  147.8293  136.8867  161.2959 N   0  0  0  0  0  0  0  0  0  0  0  0
  147.0674  136.6537  162.4424 C   0  0  0  0  0  0  0  0  0  0  0  0
  146.8859  135.3235  162.7136 C   0  0  0  0  0  0  0  0  0  0  0  0
  147.6721  134.3177  161.5306 S   0  0  0  0  0  0  0  0  0  0  0  0
  149.4620  134.7469  154.2715 H   0  0  0  0  0  0  0  0  0  0  0  0
  148.1830  135.9197  154.5076 H   0  0  0  0  0  0  0  0  0  0  0  0
  148.4422  137.9267  155.2494 H   0  0  0  0  0  0  0  0  0  0  0  0
  151.0776  138.7903  154.1151 H   0  0  0  0  0  0  0  0  0  0  0  0
  149.4582  139.0298  153.5653 H   0  0  0  0  0  0  0  0  0  0  0  0
  150.1134  141.1522  154.1525 H   0  0  0  0  0  0  0  0  0  0  0  0
  149.1815  140.7126  155.5518 H   0  0  0  0  0  0  0  0  0  0  0  0
  152.2395  140.4199  155.3345 H   0  0  0  0  0  0  0  0  0  0  0  0
  151.4638  141.8558  155.9300 H   0  0  0  0  0  0  0  0  0  0  0  0
  152.2453  140.4601  157.7718 H   0  0  0  0  0  0  0  0  0  0  0  0
  150.5267  140.6978  157.8482 H   0  0  0  0  0  0  0  0  0  0  0  0
  151.8895  138.1590  156.7892 H   0  0  0  0  0  0  0  0  0  0  0  0
  151.2910  138.3969  158.4016 H   0  0  0  0  0  0  0  0  0  0  0  0
  149.0127  139.0144  157.2235 H   0  0  0  0  0  0  0  0  0  0  0  0
  148.8727  136.2940  157.2644 H   0  0  0  0  0  0  0  0  0  0  0  0
  146.6952  137.4953  163.0070 H   0  0  0  0  0  0  0  0  0  0  0  0
  146.3433  134.8761  163.5323 H   0  0  0  0  0  0  0  0  0  0  0  0
  1  2  1  0  0  0  0
  1 20  1  0  0  0  0
  1 21  1  0  0  0  0
  2  3  2  0  0  0  0
  2  4  1  0  0  0  0
  4 10  1  0  0  0  0
  4  5  1  0  0  0  0
  4 22  1  0  0  0  0
  5  6  1  0  0  0  0
  5 23  1  0  0  0  0
  5 24  1  0  0  0  0
  6  7  1  0  0  0  0
  6 25  1  0  0  0  0
  6 26  1  0  0  0  0
  7  8  1  0  0  0  0
  7 27  1  0  0  0  0
  7 28  1  0  0  0  0
  8  9  1  0  0  0  0
  8 29  1  0  0  0  0
  8 30  1  0  0  0  0
  9 10  1  0  0  0  0
  9 31  1  0  0  0  0
  9 32  1  0  0  0  0
 10 11  1  0  0  0  0
 10 33  1  0  0  0  0
 11 12  1  0  0  0  0
 11 34  1  0  0  0  0
 12 13  2  0  0  0  0
 12 14  1  0  0  0  0
 14 15  1  0  0  0  0
 15 19  1  0  0  0  0
 15 16  2  0  0  0  0
 16 17  1  0  0  0  0
 17 18  2  0  0  0  0
 17 35  1  0  0  0  0
 18 19  1  0  0  0  0
 18 36  1  0  0  0  0
M  CHG  1  14  -1
M  END
> <s_m_source_file>
AV-unprocessed.smi

> <i_m_source_file_index>
630

> <i_lp_mmshare_version>
43012

> <i_f3d_flags>
0

> <s_epik_input>
W05IMl1DKD1PKVtDQEBIXTFbQ0gyXVtDSDJdW0NIMl1bQ0gyXVtDSDJdW0NASF0xW05IXUMoPU8pW05IXWMybltjSF1bY0hdczI=

> <s_epik_cmdline>
J2VwaWtfcHl0aG9uJywgJy1waCcsICc3LjAnLCAnLXRuJywgJzgnLCAnLW1hJywgJzIwMCcsICctbWV0YWxfYmluZGluZycsICctaW1hZScsICc8aW5maWxlLm1hZT4nLCAnLW9tYWUnLCAnPG91dGZpbGUubWFlPic=

> <r_lp_tautomer_probability>
0.999

> <r_epik_Ionization_Penalty>
8.29606

> <r_epik_Ionization_Penalty_Charging>
6.67551

> <r_epik_Ionization_Penalty_Neutral>
1.62055

> <r_epik_State_Penalty>
6.67568

> <r_epik_Charging_Adjusted_Penalty>
13.3512

> <i_epik_Tot_Q>
-1

> <i_epik_Tot_abs_Q>
1

> <r_epik_Metal_State_Penalty>
2.59802

> <b_epik_Metal_Only>
1

> <s_lp_Force_Field>
OPLS_2005

> <r_lp_Energy>
8.77772

> <b_lp_Chiralities_Consistent>
1

> <s_lp_Variant>
AV-unprocessed.smi:630-7

> <Gold.Version>
5.8.1

> <Gold.Id.Protein>
6NUR|6NUR_protein|mol2

> <Gold.PLP.Fitness>
44.4866

> <Gold.PLP.PLP>
-32.6196

> <Gold.PLP.part.hbond>
-5.6755

> <Gold.PLP.part.metal>
0.0000

> <Gold.PLP.part.buried>
-2.8389

> <Gold.PLP.part.nonpolar>
-24.1918

> <Gold.PLP.part.repulsive>
0.2102

> <Gold.PLP.ligand.clash>
0.0000

> <Gold.PLP.ligand.torsion>
0.5552

> <Gold.PLP.Chemscore.Hbond>
4.2745

> <Gold.PLP.Chemscore.CHOScore>
0.0000

> <Gold.PLP.Chemscore.Metal>
0.0000

> <Gold.Chemscore.Hbonds>
donor molecule, donor type, donor heavy atom, donor atom, acceptor molecule, acceptor atom, score
      P1  H  6896  6909       L1    14  1.85
      P1  H  6931  6943       L1    16  1.00
      P1  H  6934  6947       L1    16  0.32
      P1  H 10752 10764       L1     3  1.00

> <Gold.PLP.Chemscore.Internal.Correction>
0.1539

> <Gold.Rescore>
     Score         DG    S(hbond)    S(metal)    S(lipo)     H(rot)  DE(clash)    DE(int)     intcor
     13.85     -17.30       2.54        0.00      61.40       1.50       0.18       3.27       ----

> <Gold.Chemscore.Fitness>
13.8484

> <Gold.Chemscore.DG>
-17.2953

> <Gold.Chemscore.ZeroCoef>
-5.4800

> <Gold.Chemscore.Hbond>
2.5398

> <Gold.Chemscore.Metal>
0.0000

> <Gold.Chemscore.Lipo>
61.3965

> <Gold.Chemscore.Internal_Hbond>
0.0000

> <Gold.Chemscore.DEClash>
0.1800

> <Gold.Chemscore.DEInternal>
3.2668

> <Gold.Chemscore.Rot>
1.5044

> <Gold.Chemscore.Internal.Correction>
   9.000000E+99

> <Gold.Chemscore.Hbonds>
donor molecule, donor type, donor heavy atom, donor atom, acceptor molecule, acceptor atom, score
      P1  H  6896  6909       L1    14  0.25
      P1  H  6931  6943       L1    16  0.34
      P1  H  6934  6947       L1    16  0.06
      P1  H 10752 10764       L1     3  1.00

> <Gold.Chemscore.Hbond.Weighted>
-8.4830

> <Gold.Chemscore.Metal.Weighted>
-0.0000

> <Gold.Chemscore.Lipo.Weighted>
-7.1834

> <Gold.Chemscore.Internal_Hbond.Weighted>
0.0000

> <Gold.Chemscore.DEClash.Weighted>
0.1800

> <Gold.Chemscore.DEInternal.Weighted>
3.2668

> <Gold.Chemscore.Rot.Weighted>
3.8512

> <Gold.Chemscore.Internal.Correction.Weighted>
   9.000000E+99

> <Gold.Protein.RotatedTorsions>
[ 6907 6896 6895 6894 ] final   49.77 input  -60.11 | X-H torsion
[ 7974 7965 7964 7962 ] final   92.61 input  175.53 | X-H torsion
[ 8008 7997 7996 7995 ] final   89.17 input   59.86 | X-H torsion
[ 10167 10162 10161 10158 ] final -160.56 input  -65.29 | X-H torsion
[ 10718 10713 10712 10709 ] final  147.54 input   66.30 | X-H torsion
[ 10763 10752 10751 10750 ] final  -48.67 input  -60.55 | X-H torsion
[ 11005 11000 10999 10996 ] final  104.03 input  -57.11 | X-H torsion

> <Gold.Protein.ActiveResidues>
 VAL166  LYS551  ARG553  GLY616  TRP617  ASP618  TYR619  PRO620  LYS621  CYS622 
 ASP623  PHE694  ASN695  SER759  ASP760  ASP761  ALA762  ILE779  LEU786  VAL792 
 PHE793  MET794  SER795  GLU796  ALA797  LYS798  CYS799  TRP800  GLU811  SER814 

> <Gold.Protein.RotatedAtoms>
  152.2944  134.7684  160.0370 H   0  0  0  0  0  0  0  0  0  0  0  0  # atno 6907 bound_to 6896
  151.8219  133.3390  159.3595 H   0  0  0  0  0  0  0  0  0  0  0  0  # atno 6908 bound_to 6896
  150.7245  134.5495  159.5831 H   0  0  0  0  0  0  0  0  0  0  0  0  # atno 6909 bound_to 6896
  145.4900  139.2276  143.2835 H   0  0  0  0  0  0  0  0  0  0  0  0  # atno 7974 bound_to 7965
  155.9968  140.3363  155.6806 H   0  0  0  0  0  0  0  0  0  0  0  0  # atno 8008 bound_to 7997
  155.6346  140.0688  157.2656 H   0  0  0  0  0  0  0  0  0  0  0  0  # atno 8009 bound_to 7997
  154.4236  140.1753  156.1495 H   0  0  0  0  0  0  0  0  0  0  0  0  # atno 8010 bound_to 7997
  139.6530  144.0049  152.2175 H   0  0  0  0  0  0  0  0  0  0  0  0  # atno 10167 bound_to 10162
  157.3197  131.0902  151.1250 H   0  0  0  0  0  0  0  0  0  0  0  0  # atno 10718 bound_to 10713
  154.0815  135.6590  153.4838 H   0  0  0  0  0  0  0  0  0  0  0  0  # atno 10763 bound_to 10752
  153.0354  135.5181  154.7469 H   0  0  0  0  0  0  0  0  0  0  0  0  # atno 10764 bound_to 10752
  154.6565  135.3009  154.9889 H   0  0  0  0  0  0  0  0  0  0  0  0  # atno 10765 bound_to 10752
  139.8788  134.9285  156.5300 H   0  0  0  0  0  0  0  0  0  0  0  0  # atno 11005 bound_to 11000
  146.2290  140.5694  142.8984 LP  0  0  0  0  0  0  0  0  0  0  0  0  # atno 17320 bound_to 7965
  144.7839  140.5897  143.6587 LP  0  0  0  0  0  0  0  0  0  0  0  0  # atno 17321 bound_to 7965
  139.9768  144.6456  150.7937 LP  0  0  0  0  0  0  0  0  0  0  0  0  # atno 17342 bound_to 10162
  140.7546  143.3031  151.3031 LP  0  0  0  0  0  0  0  0  0  0  0  0  # atno 17343 bound_to 10162
  157.2540  130.6627  149.5944 LP  0  0  0  0  0  0  0  0  0  0  0  0  # atno 17370 bound_to 10713
  155.9685  130.4529  150.5792 LP  0  0  0  0  0  0  0  0  0  0  0  0  # atno 17371 bound_to 10713
  140.8387  133.8222  155.9054 LP  0  0  0  0  0  0  0  0  0  0  0  0  # atno 17394 bound_to 11000
  140.9258  134.2084  157.4897 LP  0  0  0  0  0  0  0  0  0  0  0  0  # atno 17395 bound_to 11000

$$$$
