AV-unprocessed.smi:2215|AV-procd|sdf|8963|dock8
  -GOLD-   2272012183D 1   1.00000     0.00000
 Structure written by MMmdl.
 40 41  0  0  0  0  0  0  0  0  1 V2000
  143.5362  131.7867  150.4472 C   0  0  0  0  0  0  0  0  0  0  0  0
  144.3566  132.9665  150.9243 C   0  0  0  0  0  0  0  0  0  0  0  0
  145.7633  132.9356  150.8869 C   0  0  0  0  0  0  0  0  0  0  0  0
  146.4789  134.0623  151.3351 C   0  0  0  0  0  0  0  0  0  0  0  0
  145.7739  135.1924  151.8071 C   0  0  0  0  0  0  0  0  0  0  0  0
  146.5891  136.2781  152.2243 N   0  0  0  0  0  0  0  0  0  0  0  0
  146.2022  137.4644  152.7255 C   0  0  0  0  0  0  0  0  0  0  0  0
  145.0391  137.7967  152.9557 O   0  0  0  0  0  0  0  0  0  0  0  0
  147.2563  138.2609  152.9531 N   0  0  0  0  0  0  0  0  0  0  0  0
  147.1826  139.6154  153.4923 C   0  0  0  0  0  0  0  0  0  0  0  0
  148.5676  140.1741  153.8990 C   0  0  1  0  0  0  0  0  0  0  0  0
  148.4344  141.2863  154.9663 C   0  0  0  0  0  0  0  0  0  0  0  0
  149.7997  141.8277  155.4168 C   0  0  0  0  0  0  0  0  0  0  0  0
  150.6973  140.6982  155.9387 C   0  0  0  0  0  0  0  0  0  0  0  0
  150.8667  139.6057  154.8749 C   0  0  0  0  0  0  0  0  0  0  0  0
  149.5055  139.0530  154.4127 C   0  0  2  0  0  0  0  0  0  0  0  0
  149.7521  138.1099  153.3889 O   0  0  0  0  0  0  0  0  0  0  0  0
  144.4179  135.2120  151.8403 N   0  0  0  0  0  0  0  0  0  0  0  0
  143.7327  134.1314  151.4113 C   0  0  0  0  0  0  0  0  0  0  0  0
  144.1137  130.8631  150.4983 H   0  0  0  0  0  0  0  0  0  0  0  0
  143.2234  131.9405  149.4144 H   0  0  0  0  0  0  0  0  0  0  0  0
  142.6446  131.6633  151.0627 H   0  0  0  0  0  0  0  0  0  0  0  0
  146.2885  132.0661  150.5195 H   0  0  0  0  0  0  0  0  0  0  0  0
  147.5589  134.0556  151.3112 H   0  0  0  0  0  0  0  0  0  0  0  0
  147.5824  136.1439  152.1072 H   0  0  0  0  0  0  0  0  0  0  0  0
  148.1766  137.9072  152.7367 H   0  0  0  0  0  0  0  0  0  0  0  0
  146.7337  140.2549  152.7318 H   0  0  0  0  0  0  0  0  0  0  0  0
  146.4948  139.6244  154.3393 H   0  0  0  0  0  0  0  0  0  0  0  0
  149.0307  140.6167  153.0151 H   0  0  0  0  0  0  0  0  0  0  0  0
  147.8384  142.1144  154.5818 H   0  0  0  0  0  0  0  0  0  0  0  0
  147.8977  140.8985  155.8331 H   0  0  0  0  0  0  0  0  0  0  0  0
  150.2891  142.3294  154.5809 H   0  0  0  0  0  0  0  0  0  0  0  0
  149.6624  142.5813  156.1927 H   0  0  0  0  0  0  0  0  0  0  0  0
  151.6719  141.0964  156.2225 H   0  0  0  0  0  0  0  0  0  0  0  0
  150.2619  140.2686  156.8420 H   0  0  0  0  0  0  0  0  0  0  0  0
  151.4082  140.0171  154.0216 H   0  0  0  0  0  0  0  0  0  0  0  0
  151.4836  138.7988  155.2721 H   0  0  0  0  0  0  0  0  0  0  0  0
  149.0289  138.5330  155.2448 H   0  0  0  0  0  0  0  0  0  0  0  0
  149.7534  138.5603  152.5581 H   0  0  0  0  0  0  0  0  0  0  0  0
  142.6557  134.2017  151.4557 H   0  0  0  0  0  0  0  0  0  0  0  0
  1  2  1  0  0  0  0
  1 20  1  0  0  0  0
  1 21  1  0  0  0  0
  1 22  1  0  0  0  0
  2 19  1  0  0  0  0
  2  3  2  0  0  0  0
  3  4  1  0  0  0  0
  3 23  1  0  0  0  0
  4  5  2  0  0  0  0
  4 24  1  0  0  0  0
  5  6  1  0  0  0  0
  5 18  1  0  0  0  0
  6  7  1  0  0  0  0
  6 25  1  0  0  0  0
  7  8  2  0  0  0  0
  7  9  1  0  0  0  0
  9 10  1  0  0  0  0
  9 26  1  0  0  0  0
 10 11  1  0  0  0  0
 10 27  1  0  0  0  0
 10 28  1  0  0  0  0
 11 16  1  0  0  0  0
 11 12  1  0  0  0  0
 11 29  1  0  0  0  0
 12 13  1  0  0  0  0
 12 30  1  0  0  0  0
 12 31  1  0  0  0  0
 13 14  1  0  0  0  0
 13 32  1  0  0  0  0
 13 33  1  0  0  0  0
 14 15  1  0  0  0  0
 14 34  1  0  0  0  0
 14 35  1  0  0  0  0
 15 16  1  0  0  0  0
 15 36  1  0  0  0  0
 15 37  1  0  0  0  0
 16 17  1  0  0  0  0
 16 38  1  0  0  0  0
 17 39  1  0  0  0  0
 18 19  2  0  0  0  0
 19 40  1  0  0  0  0
M  END
> <s_m_source_file>
AV-unprocessed.smi

> <i_m_source_file_index>
2215

> <i_lp_mmshare_version>
43012

> <i_f3d_flags>
0

> <s_epik_input>
W0NIM11jMVtjSF1bY0hdYyhuW2NIXTEpW05IXUMoPU8pW05IXVtDSDJdW0NAQEhdMltDSDJdW0NIMl1bQ0gyXVtDSDJdW0NASF0yW09IXQ==

> <s_epik_cmdline>
J2VwaWtfcHl0aG9uJywgJy1waCcsICc3LjAnLCAnLXRuJywgJzgnLCAnLW1hJywgJzIwMCcsICctbWV0YWxfYmluZGluZycsICctaW1hZScsICc8aW5maWxlLm1hZT4nLCAnLW9tYWUnLCAnPG91dGZpbGUubWFlPic=

> <r_lp_tautomer_probability>
1

> <r_epik_Ionization_Penalty>
6.08491e-05

> <r_epik_Ionization_Penalty_Charging>
0

> <r_epik_Ionization_Penalty_Neutral>
6.08491e-05

> <r_epik_State_Penalty>
-0

> <r_epik_Charging_Adjusted_Penalty>
0

> <i_epik_Tot_Q>
0

> <i_epik_Tot_abs_Q>
0

> <r_epik_Metal_State_Penalty>
-0

> <b_epik_Metal_Only>
0

> <s_lp_Force_Field>
OPLS_2005

> <r_lp_Energy>
14.1492

> <b_lp_Chiralities_Consistent>
1

> <s_lp_Variant>
AV-unprocessed.smi:2215-4

> <Gold.Version>
5.8.1

> <Gold.Id.Protein>
6NUR|6NUR_protein|mol2

> <Gold.PLP.Fitness>
41.2600

> <Gold.PLP.PLP>
-32.5040

> <Gold.PLP.part.hbond>
-3.9456

> <Gold.PLP.part.metal>
0.0000

> <Gold.PLP.part.buried>
1.3208

> <Gold.PLP.part.nonpolar>
-31.3581

> <Gold.PLP.part.repulsive>
1.0971

> <Gold.PLP.ligand.clash>
0.0000

> <Gold.PLP.ligand.torsion>
0.3454

> <Gold.PLP.Chemscore.Hbond>
2.3695

> <Gold.PLP.Chemscore.CHOScore>
0.7781

> <Gold.PLP.Chemscore.Metal>
0.0000

> <Gold.Chemscore.Hbonds>
donor molecule, donor type, donor heavy atom, donor atom, acceptor molecule, acceptor atom, score
      L1  H     6    25       P1  7948  0.62
      L1  H     9    26       P1  7948  0.75
      L1  H    17    39       P1  7957  1.00
      L1  C    19    40       P1 10186  0.77

> <Gold.PLP.Chemscore.Internal.Correction>
0.0038

> <Gold.Rescore>
     Score         DG    S(hbond)    S(metal)    S(lipo)     H(rot)  DE(clash)    DE(int)     intcor
     14.13     -18.23       2.22        0.00      83.67       1.73       0.75       3.35       ----

> <Gold.Chemscore.Fitness>
14.1322

> <Gold.Chemscore.DG>
-18.2348

> <Gold.Chemscore.ZeroCoef>
-5.4800

> <Gold.Chemscore.Hbond>
2.2169

> <Gold.Chemscore.Metal>
0.0000

> <Gold.Chemscore.Lipo>
83.6681

> <Gold.Chemscore.Internal_Hbond>
0.0000

> <Gold.Chemscore.DEClash>
0.7482

> <Gold.Chemscore.DEInternal>
3.3545

> <Gold.Chemscore.Rot>
1.7339

> <Gold.Chemscore.Internal.Correction>
   9.000000E+99

> <Gold.Chemscore.Hbonds>
donor molecule, donor type, donor heavy atom, donor atom, acceptor molecule, acceptor atom, score
      L1  H     6    25       P1  7948  0.63
      L1  H     9    26       P1  7948  0.69
      L1  H    17    39       P1  7957  0.42

> <Gold.Chemscore.Hbond.Weighted>
-7.4043

> <Gold.Chemscore.Metal.Weighted>
-0.0000

> <Gold.Chemscore.Lipo.Weighted>
-9.7892

> <Gold.Chemscore.Internal_Hbond.Weighted>
0.0000

> <Gold.Chemscore.DEClash.Weighted>
0.7482

> <Gold.Chemscore.DEInternal.Weighted>
3.3545

> <Gold.Chemscore.Rot.Weighted>
4.4387

> <Gold.Chemscore.Internal.Correction.Weighted>
   9.000000E+99

> <Gold.Protein.RotatedTorsions>
[ 6907 6896 6895 6894 ] final  137.57 input  -60.11 | X-H torsion
[ 7974 7965 7964 7962 ] final  -81.90 input  175.53 | X-H torsion
[ 8008 7997 7996 7995 ] final    2.93 input   59.86 | X-H torsion
[ 10167 10162 10161 10158 ] final   40.05 input  -65.29 | X-H torsion
[ 10718 10713 10712 10709 ] final   13.63 input   66.30 | X-H torsion
[ 10763 10752 10751 10750 ] final   34.76 input  -60.55 | X-H torsion
[ 11005 11000 10999 10996 ] final   85.15 input  -57.11 | X-H torsion

> <Gold.Protein.ActiveResidues>
 VAL166  LYS551  ARG553  GLY616  TRP617  ASP618  TYR619  PRO620  LYS621  CYS622 
 ASP623  PHE694  ASN695  SER759  ASP760  ASP761  ALA762  ILE779  LEU786  VAL792 
 PHE793  MET794  SER795  GLU796  ALA797  LYS798  CYS799  TRP800  GLU811  SER814 

> <Gold.Protein.RotatedAtoms>
  152.2765  133.5431  159.5471 H   0  0  0  0  0  0  0  0  0  0  0  0  # atno 6907 bound_to 6896
  150.7179  134.0624  159.3844 H   0  0  0  0  0  0  0  0  0  0  0  0  # atno 6908 bound_to 6896
  151.8536  135.0549  160.0512 H   0  0  0  0  0  0  0  0  0  0  0  0  # atno 6909 bound_to 6896
  145.5405  140.9510  143.1553 H   0  0  0  0  0  0  0  0  0  0  0  0  # atno 7974 bound_to 7965
  154.6975  140.2666  155.6751 H   0  0  0  0  0  0  0  0  0  0  0  0  # atno 8008 bound_to 7997
  156.2754  140.2779  156.1498 H   0  0  0  0  0  0  0  0  0  0  0  0  # atno 8009 bound_to 7997
  155.0810  140.0372  157.2629 H   0  0  0  0  0  0  0  0  0  0  0  0  # atno 8010 bound_to 7997
  140.3780  144.2018  150.6131 H   0  0  0  0  0  0  0  0  0  0  0  0  # atno 10167 bound_to 10162
  157.0274  130.6179  149.5730 H   0  0  0  0  0  0  0  0  0  0  0  0  # atno 10718 bound_to 10713
  153.0149  135.6351  154.1720 H   0  0  0  0  0  0  0  0  0  0  0  0  # atno 10763 bound_to 10752
  154.1460  135.2832  155.3150 H   0  0  0  0  0  0  0  0  0  0  0  0  # atno 10764 bound_to 10752
  154.6089  135.5563  153.7513 H   0  0  0  0  0  0  0  0  0  0  0  0  # atno 10765 bound_to 10752
  139.8980  134.8266  156.2542 H   0  0  0  0  0  0  0  0  0  0  0  0  # atno 11005 bound_to 11000
  144.7579  139.7028  143.7246 LP  0  0  0  0  0  0  0  0  0  0  0  0  # atno 17320 bound_to 7965
  146.1984  139.5264  142.9759 LP  0  0  0  0  0  0  0  0  0  0  0  0  # atno 17321 bound_to 7965
  140.4967  143.2330  151.8739 LP  0  0  0  0  0  0  0  0  0  0  0  0  # atno 17342 bound_to 10162
  139.4798  144.5106  151.8938 LP  0  0  0  0  0  0  0  0  0  0  0  0  # atno 17343 bound_to 10162
  156.0081  130.5170  150.7898 LP  0  0  0  0  0  0  0  0  0  0  0  0  # atno 17370 bound_to 10713
  157.5204  131.0931  151.0086 LP  0  0  0  0  0  0  0  0  0  0  0  0  # atno 17371 bound_to 10713
  141.0204  133.7044  156.1259 LP  0  0  0  0  0  0  0  0  0  0  0  0  # atno 17394 bound_to 11000
  140.7241  134.4326  157.5572 LP  0  0  0  0  0  0  0  0  0  0  0  0  # atno 17395 bound_to 11000

$$$$
