AV-unprocessed.smi:2790|AV-procd|sdf|10769|dock6
  -GOLD-   2272015203D 1   1.00000     0.00000
 Structure written by MMmdl.
 45 46  0  0  0  0  0  0  0  0  3 V2000
  154.9695  139.0461  161.9797 C   0  0  0  0  0  0  0  0  0  0  0  0
  153.7399  138.3625  161.5262 N   0  3  0  0  0  0  0  0  0  0  0  0
  153.4198  137.1839  162.3650 C   0  0  0  0  0  0  0  0  0  0  0  0
  153.7620  138.0618  160.0718 C   0  0  0  0  0  0  0  0  0  0  0  0
  152.3367  138.0405  159.5099 C   0  0  0  0  0  0  0  0  0  0  0  0
  151.5783  137.1341  159.8670 O   0  0  0  0  0  0  0  0  0  0  0  0
  152.1289  139.0967  158.6765 N   0  5  0  0  0  0  0  0  0  0  0  0
  150.8034  139.6064  158.3166 C   0  0  0  0  0  0  0  0  0  0  0  0
  150.8979  140.7836  157.2667 C   0  0  0  0  0  0  0  0  0  0  0  0
  151.4697  142.0516  157.9675 C   0  0  0  0  0  0  0  0  0  0  0  0
  151.5224  143.3054  157.3022 C   0  0  0  0  0  0  0  0  0  0  0  0
  152.0346  144.4305  157.9767 C   0  0  0  0  0  0  0  0  0  0  0  0
  152.4927  144.3917  159.2439 N   0  0  0  0  0  0  0  0  0  0  0  0
  152.4523  143.2068  159.8842 C   0  0  0  0  0  0  0  0  0  0  0  0
  151.9526  142.0252  159.3032 C   0  0  0  0  0  0  0  0  0  0  0  0
  151.7847  140.3930  156.0262 C   0  0  0  0  0  0  0  0  0  0  0  0
  151.1669  139.3832  155.0343 C   0  0  0  0  0  0  0  0  0  0  0  0
  149.8085  139.8682  154.5226 C   0  0  0  0  0  0  0  0  0  0  0  0
  148.8641  140.1433  155.6952 C   0  0  0  0  0  0  0  0  0  0  0  0
  149.4790  141.1464  156.6974 C   0  0  0  0  0  0  0  0  0  0  0  0
  155.8445  138.4094  161.8426 H   0  0  0  0  0  0  0  0  0  0  0  0
  154.8968  139.3084  163.0356 H   0  0  0  0  0  0  0  0  0  0  0  0
  155.1238  139.9699  161.4210 H   0  0  0  0  0  0  0  0  0  0  0  0
  154.1763  136.4064  162.2532 H   0  0  0  0  0  0  0  0  0  0  0  0
  152.4508  136.7609  162.0983 H   0  0  0  0  0  0  0  0  0  0  0  0
  153.3730  137.4643  163.4174 H   0  0  0  0  0  0  0  0  0  0  0  0
  154.3283  138.8246  159.5341 H   0  0  0  0  0  0  0  0  0  0  0  0
  154.2661  137.1119  159.8865 H   0  0  0  0  0  0  0  0  0  0  0  0
  150.1835  138.8084  157.9087 H   0  0  0  0  0  0  0  0  0  0  0  0
  150.2536  139.9682  159.1869 H   0  0  0  0  0  0  0  0  0  0  0  0
  151.1598  143.4233  156.2927 H   0  0  0  0  0  0  0  0  0  0  0  0
  152.0724  145.3907  157.4838 H   0  0  0  0  0  0  0  0  0  0  0  0
  152.8180  143.2007  160.9002 H   0  0  0  0  0  0  0  0  0  0  0  0
  151.9415  141.1269  159.8996 H   0  0  0  0  0  0  0  0  0  0  0  0
  151.9790  141.2980  155.4484 H   0  0  0  0  0  0  0  0  0  0  0  0
  152.7690  140.0266  156.3237 H   0  0  0  0  0  0  0  0  0  0  0  0
  151.8434  139.2417  154.1909 H   0  0  0  0  0  0  0  0  0  0  0  0
  151.0608  138.4026  155.4990 H   0  0  0  0  0  0  0  0  0  0  0  0
  149.9396  140.7774  153.9344 H   0  0  0  0  0  0  0  0  0  0  0  0
  149.3716  139.1251  153.8552 H   0  0  0  0  0  0  0  0  0  0  0  0
  147.9212  140.5393  155.3169 H   0  0  0  0  0  0  0  0  0  0  0  0
  148.6147  139.2071  156.1955 H   0  0  0  0  0  0  0  0  0  0  0  0
  148.7500  141.3242  157.4897 H   0  0  0  0  0  0  0  0  0  0  0  0
  149.5610  142.0993  156.1718 H   0  0  0  0  0  0  0  0  0  0  0  0
  152.9850  139.0233  161.6495 H   0  0  0  0  0  0  0  0  0  0  0  0
  1  2  1  0  0  0  0
  1 21  1  0  0  0  0
  1 22  1  0  0  0  0
  1 23  1  0  0  0  0
  2  3  1  0  0  0  0
  2  4  1  0  0  0  0
  2 45  1  0  0  0  0
  3 24  1  0  0  0  0
  3 25  1  0  0  0  0
  3 26  1  0  0  0  0
  4  5  1  0  0  0  0
  4 27  1  0  0  0  0
  4 28  1  0  0  0  0
  5  6  2  0  0  0  0
  5  7  1  0  0  0  0
  7  8  1  0  0  0  0
  8  9  1  0  0  0  0
  8 29  1  0  0  0  0
  8 30  1  0  0  0  0
  9 20  1  0  0  0  0
  9 10  1  0  0  0  0
  9 16  1  0  0  0  0
 10 15  1  0  0  0  0
 10 11  2  0  0  0  0
 11 12  1  0  0  0  0
 11 31  1  0  0  0  0
 12 13  2  0  0  0  0
 12 32  1  0  0  0  0
 13 14  1  0  0  0  0
 14 15  2  0  0  0  0
 14 33  1  0  0  0  0
 15 34  1  0  0  0  0
 16 17  1  0  0  0  0
 16 35  1  0  0  0  0
 16 36  1  0  0  0  0
 17 18  1  0  0  0  0
 17 37  1  0  0  0  0
 17 38  1  0  0  0  0
 18 19  1  0  0  0  0
 18 39  1  0  0  0  0
 18 40  1  0  0  0  0
 19 20  1  0  0  0  0
 19 41  1  0  0  0  0
 19 42  1  0  0  0  0
 20 43  1  0  0  0  0
 20 44  1  0  0  0  0
M  CHG  1   2   1
M  CHG  1   7  -1
M  END
> <s_m_source_file>
AV-unprocessed.smi

> <i_m_source_file_index>
2790

> <i_lp_mmshare_version>
43012

> <i_f3d_flags>
0

> <s_epik_input>
W0NIM11OKFtDSDNdKVtDSDJdQyg9TylbTkhdW0NIMl1DMShbQ0gyXVtDSDJdW0NIMl1bQ0gyXVtDSDJdMSljMltjSF1bY0hdbltjSF1bY0hdMg==

> <s_epik_cmdline>
J2VwaWtfcHl0aG9uJywgJy1waCcsICc3LjAnLCAnLXRuJywgJzgnLCAnLW1hJywgJzIwMCcsICctbWV0YWxfYmluZGluZycsICctaW1hZScsICc8aW5maWxlLm1hZT4nLCAnLW9tYWUnLCAnPG91dGZpbGUubWFlPic=

> <r_epik_Ionization_Penalty>
6.38592

> <r_epik_Ionization_Penalty_Charging>
6.21784

> <r_epik_Ionization_Penalty_Neutral>
0.168075

> <r_epik_State_Penalty>
6.29446

> <r_epik_Charging_Adjusted_Penalty>
12.5123

> <i_epik_Tot_Q>
0

> <i_epik_Tot_abs_Q>
2

> <r_epik_Metal_State_Penalty>
2.27801

> <b_epik_Metal_Only>
1

> <s_lp_Force_Field>
OPLS_2005

> <r_lp_Energy>
25.1562

> <b_lp_Chiralities_Consistent>
1

> <s_lp_Variant>
AV-unprocessed.smi:2790-4

> <Gold.Version>
5.8.1

> <Gold.Id.Protein>
6NUR|6NUR_protein|mol2

> <Gold.PLP.Fitness>
39.8375

> <Gold.PLP.PLP>
-38.0137

> <Gold.PLP.part.hbond>
-1.0000

> <Gold.PLP.part.metal>
0.0000

> <Gold.PLP.part.buried>
-5.1018

> <Gold.PLP.part.nonpolar>
-31.4289

> <Gold.PLP.part.repulsive>
0.0187

> <Gold.PLP.ligand.clash>
0.0000

> <Gold.PLP.ligand.torsion>
0.6239

> <Gold.PLP.Chemscore.Hbond>
1.0000

> <Gold.PLP.Chemscore.CHOScore>
0.0000

> <Gold.PLP.Chemscore.Metal>
0.0000

> <Gold.Chemscore.Hbonds>
donor molecule, donor type, donor heavy atom, donor atom, acceptor molecule, acceptor atom, score
      P1  H  6896  6908       L1     6  1.00

> <Gold.PLP.Chemscore.Internal.Correction>
0.0716

> <Gold.Rescore>
     Score         DG    S(hbond)    S(metal)    S(lipo)     H(rot)  DE(clash)    DE(int)     intcor
     16.54     -17.35       0.98        0.00     108.29       1.59       0.23       0.58       ----

> <Gold.Chemscore.Fitness>
16.5431

> <Gold.Chemscore.DG>
-17.3523

> <Gold.Chemscore.ZeroCoef>
-5.4800

> <Gold.Chemscore.Hbond>
0.9827

> <Gold.Chemscore.Metal>
0.0000

> <Gold.Chemscore.Lipo>
108.2929

> <Gold.Chemscore.Internal_Hbond>
0.0000

> <Gold.Chemscore.DEClash>
0.2265

> <Gold.Chemscore.DEInternal>
0.5826

> <Gold.Chemscore.Rot>
1.5938

> <Gold.Chemscore.Internal.Correction>
   9.000000E+99

> <Gold.Chemscore.Hbonds>
donor molecule, donor type, donor heavy atom, donor atom, acceptor molecule, acceptor atom, score
      P1  H  6896  6908       L1     6  0.96

> <Gold.Chemscore.Hbond.Weighted>
-3.2823

> <Gold.Chemscore.Metal.Weighted>
-0.0000

> <Gold.Chemscore.Lipo.Weighted>
-12.6703

> <Gold.Chemscore.Internal_Hbond.Weighted>
0.0000

> <Gold.Chemscore.DEClash.Weighted>
0.2265

> <Gold.Chemscore.DEInternal.Weighted>
0.5826

> <Gold.Chemscore.Rot.Weighted>
4.0802

> <Gold.Chemscore.Internal.Correction.Weighted>
   9.000000E+99

> <Gold.Protein.RotatedTorsions>
[ 6907 6896 6895 6894 ] final -108.48 input  -60.11 | X-H torsion
[ 7974 7965 7964 7962 ] final -167.91 input  175.53 | X-H torsion
[ 8008 7997 7996 7995 ] final   68.31 input   59.86 | X-H torsion
[ 10167 10162 10161 10158 ] final -179.56 input  -65.29 | X-H torsion
[ 10718 10713 10712 10709 ] final   -7.44 input   66.30 | X-H torsion
[ 10763 10752 10751 10750 ] final  179.87 input  -60.55 | X-H torsion
[ 11005 11000 10999 10996 ] final -157.99 input  -57.11 | X-H torsion

> <Gold.Protein.ActiveResidues>
 VAL166  LYS551  ARG553  GLY616  TRP617  ASP618  TYR619  PRO620  LYS621  CYS622 
 ASP623  PHE694  ASN695  SER759  ASP760  ASP761  ALA762  ILE779  LEU786  VAL792 
 PHE793  MET794  SER795  GLU796  ALA797  LYS798  CYS799  TRP800  GLU811  SER814 

> <Gold.Protein.RotatedAtoms>
  150.7504  133.9671  159.3533 H   0  0  0  0  0  0  0  0  0  0  0  0  # atno 6907 bound_to 6896
  151.7602  135.0810  160.0354 H   0  0  0  0  0  0  0  0  0  0  0  0  # atno 6908 bound_to 6896
  152.3408  133.6028  159.5911 H   0  0  0  0  0  0  0  0  0  0  0  0  # atno 6909 bound_to 6896
  144.7213  140.2448  143.6286 H   0  0  0  0  0  0  0  0  0  0  0  0  # atno 7974 bound_to 7965
  155.7064  140.3495  155.4955 H   0  0  0  0  0  0  0  0  0  0  0  0  # atno 8008 bound_to 7997
  155.9395  140.1099  157.1089 H   0  0  0  0  0  0  0  0  0  0  0  0  # atno 8009 bound_to 7997
  154.4100  140.1215  156.4895 H   0  0  0  0  0  0  0  0  0  0  0  0  # atno 8010 bound_to 7997
  139.5380  144.2441  152.0836 H   0  0  0  0  0  0  0  0  0  0  0  0  # atno 10167 bound_to 10162
  156.7171  130.5139  149.5877 H   0  0  0  0  0  0  0  0  0  0  0  0  # atno 10718 bound_to 10713
  154.5262  135.2797  155.1219 H   0  0  0  0  0  0  0  0  0  0  0  0  # atno 10763 bound_to 10752
  154.2757  135.6295  153.5331 H   0  0  0  0  0  0  0  0  0  0  0  0  # atno 10764 bound_to 10752
  152.9947  135.5639  154.5764 H   0  0  0  0  0  0  0  0  0  0  0  0  # atno 10765 bound_to 10752
  140.6586  134.4374  157.5234 H   0  0  0  0  0  0  0  0  0  0  0  0  # atno 11005 bound_to 11000
  145.8284  139.2075  143.1897 LP  0  0  0  0  0  0  0  0  0  0  0  0  # atno 17320 bound_to 7965
  146.0452  140.8125  142.9809 LP  0  0  0  0  0  0  0  0  0  0  0  0  # atno 17321 bound_to 7965
  140.1915  144.4747  150.6476 LP  0  0  0  0  0  0  0  0  0  0  0  0  # atno 17342 bound_to 10162
  140.6597  143.2248  151.5885 LP  0  0  0  0  0  0  0  0  0  0  0  0  # atno 17343 bound_to 10162
  156.1620  130.6380  151.0731 LP  0  0  0  0  0  0  0  0  0  0  0  0  # atno 17370 bound_to 10713
  157.6913  131.0809  150.7100 LP  0  0  0  0  0  0  0  0  0  0  0  0  # atno 17371 bound_to 10713
  139.9021  134.8532  156.1854 LP  0  0  0  0  0  0  0  0  0  0  0  0  # atno 17394 bound_to 11000
  141.0483  133.6902  156.1724 LP  0  0  0  0  0  0  0  0  0  0  0  0  # atno 17395 bound_to 11000

$$$$
