AV-unprocessed.smi:1715|AV-procd|sdf|6910|dock1
  -GOLD-   22720 8113D 1   1.00000     0.00000
 Structure written by MMmdl.
 40 41  0  0  0  0  0  0  0  0  1 V2000
  153.2214  138.6274  154.4164 C   0  0  0  0  0  0  0  0  0  0  0  0
  151.8572  137.9765  154.1645 C   0  0  2  0  0  0  0  0  0  0  0  0
  150.6908  138.9498  154.4197 C   0  0  0  0  0  0  0  0  0  0  0  0
  149.3929  138.3062  154.2504 N   0  0  0  0  0  0  0  0  0  0  0  0
  148.3060  139.2538  154.4898 C   0  0  0  0  0  0  0  0  0  0  0  0
  147.1858  139.2386  153.4328 C   0  0  0  0  0  0  0  0  0  0  0  0
  147.0745  137.9313  152.7974 N   0  0  0  0  0  0  0  0  0  0  0  0
  145.9226  137.2923  152.5490 C   0  0  0  0  0  0  0  0  0  0  0  0
  144.8154  137.7476  152.8362 O   0  0  0  0  0  0  0  0  0  0  0  0
  146.1403  136.1070  151.9559 N   0  0  0  0  0  0  0  0  0  0  0  0
  145.1695  135.1599  151.5429 C   0  0  0  0  0  0  0  0  0  0  0  0
  145.4051  133.7644  151.4120 C   0  0  0  0  0  0  0  0  0  0  0  0
  144.3165  133.1255  151.0080 N   0  0  0  0  0  0  0  0  0  0  0  0
  143.3881  134.1002  150.8793 N   0  0  0  0  0  0  0  0  0  0  0  0
  143.8621  135.3545  151.1949 C   0  0  0  0  0  0  0  0  0  0  0  0
  149.3260  137.1398  155.1276 C   0  0  0  0  0  0  0  0  0  0  0  0
  150.4918  136.1630  154.8792 C   0  0  2  0  0  0  0  0  0  0  0  0
  150.4762  134.9817  155.8552 C   0  0  0  0  0  0  0  0  0  0  0  0
  151.7261  136.8574  155.0368 O   0  0  0  0  0  0  0  0  0  0  0  0
  142.4456  133.8960  150.5783 H   0  0  0  0  0  0  0  0  0  0  0  0
  153.3730  139.4861  153.7619 H   0  0  0  0  0  0  0  0  0  0  0  0
  154.0304  137.9207  154.2303 H   0  0  0  0  0  0  0  0  0  0  0  0
  153.3101  138.9720  155.4471 H   0  0  0  0  0  0  0  0  0  0  0  0
  151.8217  137.6264  153.1315 H   0  0  0  0  0  0  0  0  0  0  0  0
  150.7716  139.3558  155.4296 H   0  0  0  0  0  0  0  0  0  0  0  0
  150.7735  139.7963  153.7369 H   0  0  0  0  0  0  0  0  0  0  0  0
  147.8782  139.0812  155.4786 H   0  0  0  0  0  0  0  0  0  0  0  0
  148.7249  140.2608  154.5174 H   0  0  0  0  0  0  0  0  0  0  0  0
  146.2317  139.5205  153.8819 H   0  0  0  0  0  0  0  0  0  0  0  0
  147.3863  139.9632  152.6446 H   0  0  0  0  0  0  0  0  0  0  0  0
  147.9371  137.4821  152.5272 H   0  0  0  0  0  0  0  0  0  0  0  0
  147.1019  135.8553  151.7805 H   0  0  0  0  0  0  0  0  0  0  0  0
  146.3113  133.2053  151.5931 H   0  0  0  0  0  0  0  0  0  0  0  0
  143.2422  136.2372  151.1427 H   0  0  0  0  0  0  0  0  0  0  0  0
  149.3371  137.4617  156.1701 H   0  0  0  0  0  0  0  0  0  0  0  0
  148.3885  136.6061  154.9750 H   0  0  0  0  0  0  0  0  0  0  0  0
  150.4325  135.7761  153.8605 H   0  0  0  0  0  0  0  0  0  0  0  0
  149.5530  134.4088  155.7642 H   0  0  0  0  0  0  0  0  0  0  0  0
  150.5597  135.3217  156.8878 H   0  0  0  0  0  0  0  0  0  0  0  0
  151.3079  134.3046  155.6593 H   0  0  0  0  0  0  0  0  0  0  0  0
  1  2  1  0  0  0  0
  1 21  1  0  0  0  0
  1 22  1  0  0  0  0
  1 23  1  0  0  0  0
  2 19  1  0  0  0  0
  2  3  1  0  0  0  0
  2 24  1  0  0  0  0
  3  4  1  0  0  0  0
  3 25  1  0  0  0  0
  3 26  1  0  0  0  0
  4  5  1  0  0  0  0
  4 16  1  0  0  0  0
  5  6  1  0  0  0  0
  5 27  1  0  0  0  0
  5 28  1  0  0  0  0
  6  7  1  0  0  0  0
  6 29  1  0  0  0  0
  6 30  1  0  0  0  0
  7  8  1  0  0  0  0
  7 31  1  0  0  0  0
  8  9  2  0  0  0  0
  8 10  1  0  0  0  0
 10 11  1  0  0  0  0
 10 32  1  0  0  0  0
 11 15  2  0  0  0  0
 11 12  1  0  0  0  0
 12 13  2  0  0  0  0
 12 33  1  0  0  0  0
 13 14  1  0  0  0  0
 14 20  1  0  0  0  0
 14 15  1  0  0  0  0
 15 34  1  0  0  0  0
 16 17  1  0  0  0  0
 16 35  1  0  0  0  0
 16 36  1  0  0  0  0
 17 18  1  0  0  0  0
 17 19  1  0  0  0  0
 17 37  1  0  0  0  0
 18 38  1  0  0  0  0
 18 39  1  0  0  0  0
 18 40  1  0  0  0  0
M  END
> <s_m_source_file>
AV-unprocessed.smi

> <i_m_source_file_index>
1715

> <i_lp_mmshare_version>
43012

> <i_f3d_flags>
0

> <s_epik_input>
W0NIM11bQ0BASF0xW0NIMl1OKFtDSDJdW0NASF0oTzEpW0NIM10pW0NIMl1bQ0gyXVtOSF1DKD1PKVtOSF1jMltjSF1uW25IXVtjSF0y

> <s_epik_cmdline>
J2VwaWtfcHl0aG9uJywgJy1waCcsICc3LjAnLCAnLXRuJywgJzgnLCAnLW1hJywgJzIwMCcsICctbWV0YWxfYmluZGluZycsICctaW1hZScsICc8aW5maWxlLm1hZT4nLCAnLW9tYWUnLCAnPG91dGZpbGUubWFlPic=

> <r_lp_tautomer_probability>
0.5

> <r_epik_Ionization_Penalty>
0.242771

> <r_epik_Ionization_Penalty_Charging>
0

> <r_epik_Ionization_Penalty_Neutral>
0.242771

> <r_epik_State_Penalty>
0.233765

> <r_epik_Charging_Adjusted_Penalty>
0.233765

> <i_epik_Tot_Q>
0

> <i_epik_Tot_abs_Q>
0

> <r_epik_Metal_State_Penalty>
0.233764

> <b_epik_Metal_Only>
0

> <s_lp_Force_Field>
OPLS_2005

> <r_lp_Energy>
21.5882

> <b_lp_Chiralities_Consistent>
1

> <s_lp_Variant>
AV-unprocessed.smi:1715-2

> <Gold.Version>
5.8.1

> <Gold.Id.Protein>
6NUR|6NUR_protein|mol2

> <Gold.PLP.Fitness>
43.2547

> <Gold.PLP.PLP>
-30.3923

> <Gold.PLP.part.hbond>
-4.0000

> <Gold.PLP.part.metal>
0.0000

> <Gold.PLP.part.buried>
-6.2473

> <Gold.PLP.part.nonpolar>
-23.1801

> <Gold.PLP.part.repulsive>
1.7302

> <Gold.PLP.ligand.clash>
0.0000

> <Gold.PLP.ligand.torsion>
1.1048

> <Gold.PLP.Chemscore.Hbond>
4.0000

> <Gold.PLP.Chemscore.CHOScore>
1.0000

> <Gold.PLP.Chemscore.Metal>
0.0000

> <Gold.Chemscore.Hbonds>
donor molecule, donor type, donor heavy atom, donor atom, acceptor molecule, acceptor atom, score
      L1  H     7    31       P1  7948  1.00
      L1  H    10    32       P1  7948  1.00
      L1  H    14    20       P1 10186  0.94
      P1  H 10752 10765       L1    19  1.00
      L1  C    15    34       P1 10171  0.42

> <Gold.PLP.Chemscore.Internal.Correction>
0.0720

> <Gold.Rescore>
     Score         DG    S(hbond)    S(metal)    S(lipo)     H(rot)  DE(clash)    DE(int)     intcor
     18.28     -20.39       3.37        0.00      66.79       1.63       0.90       1.21       ----

> <Gold.Chemscore.Fitness>
18.2782

> <Gold.Chemscore.DG>
-20.3873

> <Gold.Chemscore.ZeroCoef>
-5.4800

> <Gold.Chemscore.Hbond>
3.3720

> <Gold.Chemscore.Metal>
0.0000

> <Gold.Chemscore.Lipo>
66.7898

> <Gold.Chemscore.Internal_Hbond>
0.0000

> <Gold.Chemscore.DEClash>
0.8989

> <Gold.Chemscore.DEInternal>
1.2102

> <Gold.Chemscore.Rot>
1.6287

> <Gold.Chemscore.Internal.Correction>
   9.000000E+99

> <Gold.Chemscore.Hbonds>
donor molecule, donor type, donor heavy atom, donor atom, acceptor molecule, acceptor atom, score
      L1  H     7    31       P1  7948  0.99
      L1  H    10    32       P1  7948  0.96
      L1  H    14    20       P1 10186  0.78
      P1  H 10752 10765       L1    19  0.38

> <Gold.Chemscore.Hbond.Weighted>
-11.2624

> <Gold.Chemscore.Metal.Weighted>
-0.0000

> <Gold.Chemscore.Lipo.Weighted>
-7.8144

> <Gold.Chemscore.Internal_Hbond.Weighted>
0.0000

> <Gold.Chemscore.DEClash.Weighted>
0.8989

> <Gold.Chemscore.DEInternal.Weighted>
1.2102

> <Gold.Chemscore.Rot.Weighted>
4.1695

> <Gold.Chemscore.Internal.Correction.Weighted>
   9.000000E+99

> <Gold.Protein.RotatedTorsions>
[ 6907 6896 6895 6894 ] final  144.37 input  -60.11 | X-H torsion
[ 7974 7965 7964 7962 ] final   92.77 input  175.53 | X-H torsion
[ 8008 7997 7996 7995 ] final   38.94 input   59.86 | X-H torsion
[ 10167 10162 10161 10158 ] final  159.65 input  -65.29 | X-H torsion
[ 10718 10713 10712 10709 ] final  129.51 input   66.30 | X-H torsion
[ 10763 10752 10751 10750 ] final -167.70 input  -60.55 | X-H torsion
[ 11005 11000 10999 10996 ] final -133.69 input  -57.11 | X-H torsion

> <Gold.Protein.ActiveResidues>
 VAL166  LYS551  ARG553  GLY616  TRP617  ASP618  TYR619  PRO620  LYS621  CYS622 
 ASP623  PHE694  ASN695  SER759  ASP760  ASP761  ALA762  ILE779  LEU786  VAL792 
 PHE793  MET794  SER795  GLU796  ALA797  LYS798  CYS799  TRP800  GLU811  SER814 

> <Gold.Protein.RotatedAtoms>
  152.1946  133.4797  159.5025 H   0  0  0  0  0  0  0  0  0  0  0  0  # atno 6907 bound_to 6896
  150.6957  134.1669  159.4206 H   0  0  0  0  0  0  0  0  0  0  0  0  # atno 6908 bound_to 6896
  151.9585  135.0135  160.0597 H   0  0  0  0  0  0  0  0  0  0  0  0  # atno 6909 bound_to 6896
  145.4879  139.2277  143.2846 H   0  0  0  0  0  0  0  0  0  0  0  0  # atno 7974 bound_to 7965
  155.2284  140.3336  155.4306 H   0  0  0  0  0  0  0  0  0  0  0  0  # atno 8008 bound_to 7997
  156.2305  140.1848  156.7302 H   0  0  0  0  0  0  0  0  0  0  0  0  # atno 8009 bound_to 7997
  154.5969  140.0629  156.9301 H   0  0  0  0  0  0  0  0  0  0  0  0  # atno 8010 bound_to 7997
  139.4834  144.4709  151.8577 H   0  0  0  0  0  0  0  0  0  0  0  0  # atno 10167 bound_to 10162
  157.5147  131.1097  150.9242 H   0  0  0  0  0  0  0  0  0  0  0  0  # atno 10718 bound_to 10713
  154.6704  135.2938  154.9749 H   0  0  0  0  0  0  0  0  0  0  0  0  # atno 10763 bound_to 10752
  154.0778  135.6609  153.4837 H   0  0  0  0  0  0  0  0  0  0  0  0  # atno 10764 bound_to 10752
  153.0483  135.5190  154.7698 H   0  0  0  0  0  0  0  0  0  0  0  0  # atno 10765 bound_to 10752
  140.9058  134.1632  157.4427 H   0  0  0  0  0  0  0  0  0  0  0  0  # atno 11005 bound_to 11000
  146.2302  140.5670  142.8979 LP  0  0  0  0  0  0  0  0  0  0  0  0  # atno 17320 bound_to 7965
  144.7851  140.5920  143.6579 LP  0  0  0  0  0  0  0  0  0  0  0  0  # atno 17321 bound_to 7965
  140.4178  144.2283  150.5887 LP  0  0  0  0  0  0  0  0  0  0  0  0  # atno 17342 bound_to 10162
  140.4903  143.2349  151.8828 LP  0  0  0  0  0  0  0  0  0  0  0  0  # atno 17343 bound_to 10162
  156.9871  130.5549  149.5300 LP  0  0  0  0  0  0  0  0  0  0  0  0  # atno 17370 bound_to 10713
  156.0312  130.5403  150.8539 LP  0  0  0  0  0  0  0  0  0  0  0  0  # atno 17371 bound_to 10713
  139.8749  134.9916  156.5557 LP  0  0  0  0  0  0  0  0  0  0  0  0  # atno 17394 bound_to 11000
  140.8173  133.8381  155.8864 LP  0  0  0  0  0  0  0  0  0  0  0  0  # atno 17395 bound_to 11000

$$$$
