AV-unprocessed.smi:18|AV-procd|sdf|108|dock5
  -GOLD-   2262015263D 1   1.00000     0.00000
 Structure written by MMmdl.
 47 50  0  0  0  0  0  0  0  0  1 V2000
  148.3144  138.3737  153.2511 O   0  0  0  0  0  0  0  0  0  0  0  0
  148.3558  138.6163  154.6430 C   0  0  0  0  0  0  0  0  0  0  0  0
  147.4199  137.6645  155.4094 C   0  0  0  0  0  0  0  0  0  0  0  0
  147.1284  138.2005  156.8270 C   0  0  0  0  0  0  0  0  0  0  0  0
  148.3133  138.6095  157.5664 N   0  0  0  0  0  0  0  0  0  0  0  0
  148.9189  137.9184  158.5929 C   0  0  0  0  0  0  0  0  0  0  0  0
  149.9765  138.4884  159.1027 N   0  0  0  0  0  0  0  0  0  0  0  0
  150.1006  139.6688  158.3820 C   0  0  0  0  0  0  0  0  0  0  0  0
  151.0161  140.7538  158.4200 C   0  0  0  0  0  0  0  0  0  0  0  0
  152.0651  140.7733  159.2776 N   0  0  0  0  0  0  0  0  0  0  0  0
  152.8416  139.5459  159.1330 C   0  0  0  0  0  0  0  0  0  0  0  0
  153.9266  139.4641  160.2133 C   0  0  0  0  0  0  0  0  0  0  0  0
  154.7450  140.6212  160.1262 O   0  0  0  0  0  0  0  0  0  0  0  0
  154.0059  141.8095  160.3807 C   0  0  0  0  0  0  0  0  0  0  0  0
  152.8819  141.9953  159.3336 C   0  0  2  0  0  0  0  0  0  0  0  0
  152.0326  143.2512  159.6624 C   0  0  0  0  0  0  0  0  0  0  0  0
  152.6794  144.5802  159.2419 C   0  0  0  0  0  0  0  0  0  0  0  0
  152.7887  144.6503  157.9155 F   0  0  0  0  0  0  0  0  0  0  0  0
  151.9334  145.5978  159.6697 F   0  0  0  0  0  0  0  0  0  0  0  0
  150.8319  141.7688  157.5340 N   0  0  0  0  0  0  0  0  0  0  0  0
  149.8045  141.7332  156.6801 C   0  0  0  0  0  0  0  0  0  0  0  0
  148.8690  140.7916  156.5388 N   0  0  0  0  0  0  0  0  0  0  0  0
  149.0607  139.7647  157.4154 C   0  0  0  0  0  0  0  0  0  0  0  0
  146.1997  137.1963  154.6031 C   0  0  0  0  0  0  0  0  0  0  0  0
  146.8192  135.9295  154.2970 O   0  0  0  0  0  0  0  0  0  0  0  0
  147.8019  136.1802  155.3237 C   0  0  0  0  0  0  0  0  0  0  0  0
  148.8917  138.9870  152.8220 H   0  0  0  0  0  0  0  0  0  0  0  0
  149.3858  138.5370  154.9913 H   0  0  0  0  0  0  0  0  0  0  0  0
  148.0636  139.6539  154.8078 H   0  0  0  0  0  0  0  0  0  0  0  0
  146.4533  139.0560  156.7814 H   0  0  0  0  0  0  0  0  0  0  0  0
  146.6028  137.4488  157.4171 H   0  0  0  0  0  0  0  0  0  0  0  0
  148.5528  136.9660  158.9485 H   0  0  0  0  0  0  0  0  0  0  0  0
  152.1906  138.6732  159.2049 H   0  0  0  0  0  0  0  0  0  0  0  0
  153.3020  139.5223  158.1438 H   0  0  0  0  0  0  0  0  0  0  0  0
  153.4859  139.3820  161.2081 H   0  0  0  0  0  0  0  0  0  0  0  0
  154.5439  138.5788  160.0611 H   0  0  0  0  0  0  0  0  0  0  0  0
  153.5978  141.7799  161.3925 H   0  0  0  0  0  0  0  0  0  0  0  0
  154.7059  142.6431  160.3458 H   0  0  0  0  0  0  0  0  0  0  0  0
  153.3501  142.1307  158.3577 H   0  0  0  0  0  0  0  0  0  0  0  0
  151.0604  143.1967  159.1734 H   0  0  0  0  0  0  0  0  0  0  0  0
  151.8238  143.2754  160.7327 H   0  0  0  0  0  0  0  0  0  0  0  0
  153.6722  144.7195  159.6678 H   0  0  0  0  0  0  0  0  0  0  0  0
  149.7219  142.5785  156.0130 H   0  0  0  0  0  0  0  0  0  0  0  0
  145.2942  137.0618  155.1960 H   0  0  0  0  0  0  0  0  0  0  0  0
  145.9972  137.7939  153.7136 H   0  0  0  0  0  0  0  0  0  0  0  0
  148.8220  136.0003  154.9825 H   0  0  0  0  0  0  0  0  0  0  0  0
  147.5905  135.6148  156.2329 H   0  0  0  0  0  0  0  0  0  0  0  0
  1  2  1  0  0  0  0
  1 27  1  0  0  0  0
  2  3  1  0  0  0  0
  2 28  1  0  0  0  0
  2 29  1  0  0  0  0
  3 26  1  0  0  0  0
  3  4  1  0  0  0  0
  3 24  1  0  0  0  0
  4  5  1  0  0  0  0
  4 30  1  0  0  0  0
  4 31  1  0  0  0  0
  5 23  1  0  0  0  0
  5  6  1  0  0  0  0
  6  7  2  0  0  0  0
  6 32  1  0  0  0  0
  7  8  1  0  0  0  0
  8 23  2  0  0  0  0
  8  9  1  0  0  0  0
  9 10  1  0  0  0  0
  9 20  2  0  0  0  0
 10 15  1  0  0  0  0
 10 11  1  0  0  0  0
 11 12  1  0  0  0  0
 11 33  1  0  0  0  0
 11 34  1  0  0  0  0
 12 13  1  0  0  0  0
 12 35  1  0  0  0  0
 12 36  1  0  0  0  0
 13 14  1  0  0  0  0
 14 15  1  0  0  0  0
 14 37  1  0  0  0  0
 14 38  1  0  0  0  0
 15 16  1  0  0  0  0
 15 39  1  0  0  0  0
 16 17  1  0  0  0  0
 16 40  1  0  0  0  0
 16 41  1  0  0  0  0
 17 18  1  0  0  0  0
 17 19  1  0  0  0  0
 17 42  1  0  0  0  0
 20 21  1  0  0  0  0
 21 22  2  0  0  0  0
 21 43  1  0  0  0  0
 22 23  1  0  0  0  0
 24 25  1  0  0  0  0
 24 44  1  0  0  0  0
 24 45  1  0  0  0  0
 25 26  1  0  0  0  0
 26 46  1  0  0  0  0
 26 47  1  0  0  0  0
M  END
> <s_m_source_file>
AV-unprocessed.smi

> <i_m_source_file_index>
18

> <i_lp_mmshare_version>
43012

> <i_f3d_flags>
0

> <s_epik_input>
W0NIMl0xT1tDSDJdQzEoW0NIMl1bT0hdKVtDSDJdbihbY0hdbjIpYyhjMjMpbltjSF1uYzNONFtDSDJdW0NIMl1PW0NIMl1bQ0BIXTRbQ0gyXVtDSF0oRilG

> <s_epik_cmdline>
J2VwaWtfcHl0aG9uJywgJy1waCcsICc3LjAnLCAnLXRuJywgJzgnLCAnLW1hJywgJzIwMCcsICctbWV0YWxfYmluZGluZycsICctaW1hZScsICc8aW5maWxlLm1hZT4nLCAnLW9tYWUnLCAnPG91dGZpbGUubWFlPic=

> <r_lp_tautomer_probability>
1

> <r_epik_Ionization_Penalty>
6.63711e-05

> <r_epik_Ionization_Penalty_Charging>
0

> <r_epik_Ionization_Penalty_Neutral>
6.63711e-05

> <r_epik_State_Penalty>
-0

> <r_epik_Charging_Adjusted_Penalty>
0

> <i_epik_Tot_Q>
0

> <i_epik_Tot_abs_Q>
0

> <r_epik_Metal_State_Penalty>
-0

> <b_epik_Metal_Only>
0

> <s_lp_Force_Field>
OPLS_2005

> <r_lp_Energy>
38.6195

> <b_lp_Chiralities_Consistent>
1

> <s_lp_Variant>
AV-unprocessed.smi:18-2

> <Gold.Version>
5.8.1

> <Gold.Id.Protein>
6NUR|6NUR_protein|mol2

> <Gold.PLP.Fitness>
45.7963

> <Gold.PLP.PLP>
-41.1163

> <Gold.PLP.part.hbond>
-2.6401

> <Gold.PLP.part.metal>
0.0000

> <Gold.PLP.part.buried>
-7.4777

> <Gold.PLP.part.nonpolar>
-31.7887

> <Gold.PLP.part.repulsive>
1.3771

> <Gold.PLP.ligand.clash>
0.0000

> <Gold.PLP.ligand.torsion>
0.9379

> <Gold.PLP.Chemscore.Hbond>
1.0000

> <Gold.PLP.Chemscore.CHOScore>
1.0000

> <Gold.PLP.Chemscore.Metal>
0.0000

> <Gold.Chemscore.Hbonds>
donor molecule, donor type, donor heavy atom, donor atom, acceptor molecule, acceptor atom, score
      L1  H     1    27       P1  7957  0.86
      L1  C    21    43       P1  8028  1.00

> <Gold.PLP.Chemscore.Internal.Correction>
0.5559

> <Gold.Rescore>
     Score         DG    S(hbond)    S(metal)    S(lipo)     H(rot)  DE(clash)    DE(int)     intcor
      5.65      -8.84       1.00        0.00      64.92       2.96       0.12       3.06       ----

> <Gold.Chemscore.Fitness>
5.6505

> <Gold.Chemscore.DG>
-8.8357

> <Gold.Chemscore.ZeroCoef>
-5.4800

> <Gold.Chemscore.Hbond>
1.0025

> <Gold.Chemscore.Metal>
0.0000

> <Gold.Chemscore.Lipo>
64.9231

> <Gold.Chemscore.Internal_Hbond>
0.0000

> <Gold.Chemscore.DEClash>
0.1214

> <Gold.Chemscore.DEInternal>
3.0637

> <Gold.Chemscore.Rot>
2.9643

> <Gold.Chemscore.Internal.Correction>
   9.000000E+99

> <Gold.Chemscore.Hbonds>
donor molecule, donor type, donor heavy atom, donor atom, acceptor molecule, acceptor atom, score
      L1  H     1    27       P1  7957  0.81

> <Gold.Chemscore.Hbond.Weighted>
-3.3483

> <Gold.Chemscore.Metal.Weighted>
-0.0000

> <Gold.Chemscore.Lipo.Weighted>
-7.5960

> <Gold.Chemscore.Internal_Hbond.Weighted>
0.0000

> <Gold.Chemscore.DEClash.Weighted>
0.1214

> <Gold.Chemscore.DEInternal.Weighted>
3.0637

> <Gold.Chemscore.Rot.Weighted>
7.5886

> <Gold.Chemscore.Internal.Correction.Weighted>
   9.000000E+99

> <Gold.Protein.RotatedTorsions>
[ 6907 6896 6895 6894 ] final  -25.34 input  -60.11 | X-H torsion
[ 7974 7965 7964 7962 ] final  173.84 input  175.53 | X-H torsion
[ 8008 7997 7996 7995 ] final  -16.89 input   59.86 | X-H torsion
[ 10167 10162 10161 10158 ] final -125.02 input  -65.29 | X-H torsion
[ 10718 10713 10712 10709 ] final -105.71 input   66.30 | X-H torsion
[ 10763 10752 10751 10750 ] final  124.62 input  -60.55 | X-H torsion
[ 11005 11000 10999 10996 ] final  178.98 input  -57.11 | X-H torsion

> <Gold.Protein.ActiveResidues>
 VAL166  LYS551  ARG553  GLY616  TRP617  ASP618  TYR619  PRO620  LYS621  CYS622 
 ASP623  PHE694  ASN695  SER759  ASP760  ASP761  ALA762  ILE779  LEU786  VAL792 
 PHE793  MET794  SER795  GLU796  ALA797  LYS798  CYS799  TRP800  GLU811  SER814 

> <Gold.Protein.RotatedAtoms>
  151.1766  135.0342  159.8774 H   0  0  0  0  0  0  0  0  0  0  0  0  # atno 6907 bound_to 6896
  152.5446  134.1110  159.8368 H   0  0  0  0  0  0  0  0  0  0  0  0  # atno 6908 bound_to 6896
  151.1222  133.5049  159.2634 H   0  0  0  0  0  0  0  0  0  0  0  0  # atno 6909 bound_to 6896
  144.7234  139.9708  143.6437 H   0  0  0  0  0  0  0  0  0  0  0  0  # atno 7974 bound_to 7965
  154.5019  140.2157  155.9329 H   0  0  0  0  0  0  0  0  0  0  0  0  # atno 8008 bound_to 7997
  156.1445  140.3173  155.8515 H   0  0  0  0  0  0  0  0  0  0  0  0  # atno 8009 bound_to 7997
  155.4058  140.0487  157.3025 H   0  0  0  0  0  0  0  0  0  0  0  0  # atno 8010 bound_to 7997
  139.9865  143.5686  152.2358 H   0  0  0  0  0  0  0  0  0  0  0  0  # atno 10167 bound_to 10162
  156.0358  130.5577  150.7578 H   0  0  0  0  0  0  0  0  0  0  0  0  # atno 10718 bound_to 10713
  153.6643  135.3341  155.3136 H   0  0  0  0  0  0  0  0  0  0  0  0  # atno 10763 bound_to 10752
  154.8507  135.4371  154.1771 H   0  0  0  0  0  0  0  0  0  0  0  0  # atno 10764 bound_to 10752
  153.2746  135.7003  153.7522 H   0  0  0  0  0  0  0  0  0  0  0  0  # atno 10765 bound_to 10752
  140.4011  134.6776  157.4562 H   0  0  0  0  0  0  0  0  0  0  0  0  # atno 11005 bound_to 11000
  146.0564  139.3561  143.0608 LP  0  0  0  0  0  0  0  0  0  0  0  0  # atno 17320 bound_to 7965
  145.8149  140.9708  143.0929 LP  0  0  0  0  0  0  0  0  0  0  0  0  # atno 17321 bound_to 7965
  139.6371  144.7651  151.2415 LP  0  0  0  0  0  0  0  0  0  0  0  0  # atno 17342 bound_to 10162
  140.7470  143.6380  150.8361 LP  0  0  0  0  0  0  0  0  0  0  0  0  # atno 17343 bound_to 10162
  157.5106  131.0925  151.0203 LP  0  0  0  0  0  0  0  0  0  0  0  0  # atno 17370 bound_to 10713
  157.0560  130.5806  149.5378 LP  0  0  0  0  0  0  0  0  0  0  0  0  # atno 17371 bound_to 10713
  140.0335  134.6371  155.9074 LP  0  0  0  0  0  0  0  0  0  0  0  0  # atno 17394 bound_to 11000
  141.1856  133.6555  156.5205 LP  0  0  0  0  0  0  0  0  0  0  0  0  # atno 17395 bound_to 11000

$$$$
