AV-unprocessed.smi:906|AV-procd|sdf|4104|dock9
  -GOLD-   22720 1593D 1   1.00000     0.00000
 Structure written by MMmdl.
 48 49  0  0  0  0  0  0  0  0  2 V2000
  151.9666  144.9386  159.9850 C   0  0  0  0  0  0  0  0  0  0  0  0
  151.4859  143.6867  159.2817 C   0  0  0  0  0  0  0  0  0  0  0  0
  152.1174  142.4444  159.5023 C   0  0  0  0  0  0  0  0  0  0  0  0
  151.6258  141.3127  158.8237 C   0  0  0  0  0  0  0  0  0  0  0  0
  150.5263  141.4654  157.9545 C   0  0  0  0  0  0  0  0  0  0  0  0
  149.9533  140.2773  157.2079 C   0  0  0  0  0  0  0  0  0  0  0  0
  150.1106  140.4241  155.6857 C   0  0  0  0  0  0  0  0  0  0  0  0
  148.8275  140.3253  155.0004 N   0  0  0  0  0  0  0  0  0  0  0  0
  148.5394  139.4597  154.0138 C   0  0  0  0  0  0  0  0  0  0  0  0
  149.3559  138.6330  153.6058 O   0  0  0  0  0  0  0  0  0  0  0  0
  147.2623  139.5243  153.5618 N   0  0  0  0  0  0  0  0  0  0  0  0
  146.7123  138.7721  152.4247 C   0  0  0  0  0  0  0  0  0  0  0  0
  145.8478  137.6157  152.9611 C   0  0  0  0  0  0  0  0  0  0  0  0
  144.7800  138.1174  153.8737 N   0  3  0  0  0  0  0  0  0  0  0  0
  143.8228  137.0887  154.3829 C   0  0  2  0  0  0  0  0  0  0  0  0
  144.5141  135.8317  154.9502 C   0  0  0  0  0  0  0  0  0  0  0  0
  142.7320  136.7466  153.3437 C   0  0  0  0  0  0  0  0  0  0  0  0
  141.8689  135.8743  153.8651 F   0  0  0  0  0  0  0  0  0  0  0  0
  142.0653  137.8297  152.9464 F   0  0  0  0  0  0  0  0  0  0  0  0
  143.2972  136.1855  152.2751 F   0  0  0  0  0  0  0  0  0  0  0  0
  145.3068  139.0086  154.9447 C   0  0  0  0  0  0  0  0  0  0  0  0
  146.1891  140.1252  154.3582 C   0  0  0  0  0  0  0  0  0  0  0  0
  149.9681  142.7523  157.8031 C   0  0  0  0  0  0  0  0  0  0  0  0
  150.4326  143.8430  158.4498 N   0  0  0  0  0  0  0  0  0  0  0  0
  152.8420  144.7341  160.6021 H   0  0  0  0  0  0  0  0  0  0  0  0
  151.1821  145.3366  160.6293 H   0  0  0  0  0  0  0  0  0  0  0  0
  152.2354  145.7041  159.2565 H   0  0  0  0  0  0  0  0  0  0  0  0
  152.9577  142.3574  160.1754 H   0  0  0  0  0  0  0  0  0  0  0  0
  152.0840  140.3458  158.9711 H   0  0  0  0  0  0  0  0  0  0  0  0
  150.4518  139.3717  157.5565 H   0  0  0  0  0  0  0  0  0  0  0  0
  148.8995  140.1674  157.4677 H   0  0  0  0  0  0  0  0  0  0  0  0
  150.5427  141.3971  155.4503 H   0  0  0  0  0  0  0  0  0  0  0  0
  150.8021  139.6743  155.2970 H   0  0  0  0  0  0  0  0  0  0  0  0
  148.1003  140.9553  155.3060 H   0  0  0  0  0  0  0  0  0  0  0  0
  146.1021  139.4415  151.8165 H   0  0  0  0  0  0  0  0  0  0  0  0
  147.4706  138.3760  151.7491 H   0  0  0  0  0  0  0  0  0  0  0  0
  145.4104  137.0826  152.1190 H   0  0  0  0  0  0  0  0  0  0  0  0
  146.4906  136.9100  153.4883 H   0  0  0  0  0  0  0  0  0  0  0  0
  143.2893  137.5541  155.2133 H   0  0  0  0  0  0  0  0  0  0  0  0
  143.7874  135.1751  155.4287 H   0  0  0  0  0  0  0  0  0  0  0  0
  145.2607  136.0863  155.7022 H   0  0  0  0  0  0  0  0  0  0  0  0
  145.0061  135.2495  154.1711 H   0  0  0  0  0  0  0  0  0  0  0  0
  144.4792  139.4578  155.4948 H   0  0  0  0  0  0  0  0  0  0  0  0
  145.8841  138.4225  155.6611 H   0  0  0  0  0  0  0  0  0  0  0  0
  146.5672  140.7645  155.1574 H   0  0  0  0  0  0  0  0  0  0  0  0
  145.5921  140.7778  153.7192 H   0  0  0  0  0  0  0  0  0  0  0  0
  149.1238  142.9111  157.1483 H   0  0  0  0  0  0  0  0  0  0  0  0
  144.2144  138.7280  153.3012 H   0  0  0  0  0  0  0  0  0  0  0  0
  1  2  1  0  0  0  0
  1 25  1  0  0  0  0
  1 26  1  0  0  0  0
  1 27  1  0  0  0  0
  2 24  1  0  0  0  0
  2  3  2  0  0  0  0
  3  4  1  0  0  0  0
  3 28  1  0  0  0  0
  4  5  2  0  0  0  0
  4 29  1  0  0  0  0
  5  6  1  0  0  0  0
  5 23  1  0  0  0  0
  6  7  1  0  0  0  0
  6 30  1  0  0  0  0
  6 31  1  0  0  0  0
  7  8  1  0  0  0  0
  7 32  1  0  0  0  0
  7 33  1  0  0  0  0
  8  9  1  0  0  0  0
  8 34  1  0  0  0  0
  9 10  2  0  0  0  0
  9 11  1  0  0  0  0
 11 22  1  0  0  0  0
 11 12  1  0  0  0  0
 12 13  1  0  0  0  0
 12 35  1  0  0  0  0
 12 36  1  0  0  0  0
 13 14  1  0  0  0  0
 13 37  1  0  0  0  0
 13 38  1  0  0  0  0
 14 15  1  0  0  0  0
 14 21  1  0  0  0  0
 14 48  1  0  0  0  0
 15 16  1  0  0  0  0
 15 17  1  0  0  0  0
 15 39  1  0  0  0  0
 16 40  1  0  0  0  0
 16 41  1  0  0  0  0
 16 42  1  0  0  0  0
 17 18  1  0  0  0  0
 17 19  1  0  0  0  0
 17 20  1  0  0  0  0
 21 22  1  0  0  0  0
 21 43  1  0  0  0  0
 21 44  1  0  0  0  0
 22 45  1  0  0  0  0
 22 46  1  0  0  0  0
 23 24  2  0  0  0  0
 23 47  1  0  0  0  0
M  CHG  1  14   1
M  END
> <s_m_source_file>
AV-unprocessed.smi

> <i_m_source_file_index>
906

> <i_lp_mmshare_version>
43012

> <i_f3d_flags>
0

> <s_epik_input>
W0NIM11jMVtjSF1bY0hdYyhbY0hdbjEpW0NIMl1bQ0gyXVtOSF1DKD1PKU4yW0NIMl1bQ0gyXU4oW0NASF0oW0NIM10pQyhGKShGKUYpW0NIMl1bQ0gyXTI=

> <s_epik_cmdline>
J2VwaWtfcHl0aG9uJywgJy1waCcsICc3LjAnLCAnLXRuJywgJzgnLCAnLW1hJywgJzIwMCcsICctbWV0YWxfYmluZGluZycsICctaW1hZScsICc8aW5maWxlLm1hZT4nLCAnLW9tYWUnLCAnPG91dGZpbGUubWFlPic=

> <r_epik_Ionization_Penalty>
2.02136

> <r_epik_Ionization_Penalty_Charging>
1.96814

> <r_epik_Ionization_Penalty_Neutral>
0.0532286

> <r_epik_State_Penalty>
2.14285

> <r_epik_Charging_Adjusted_Penalty>
4.11098

> <i_epik_Tot_Q>
1

> <i_epik_Tot_abs_Q>
1

> <r_epik_Metal_State_Penalty>
2.1406

> <b_epik_Metal_Only>
0

> <s_lp_Force_Field>
OPLS_2005

> <r_lp_Energy>
50.8751

> <b_lp_Chiralities_Consistent>
1

> <s_lp_Variant>
AV-unprocessed.smi:906-5

> <Gold.Version>
5.8.1

> <Gold.Id.Protein>
6NUR|6NUR_protein|mol2

> <Gold.PLP.Fitness>
41.7327

> <Gold.PLP.PLP>
-34.9865

> <Gold.PLP.part.hbond>
-1.0000

> <Gold.PLP.part.metal>
0.0000

> <Gold.PLP.part.buried>
-3.6659

> <Gold.PLP.part.nonpolar>
-32.8803

> <Gold.PLP.part.repulsive>
2.0775

> <Gold.PLP.ligand.clash>
0.9830

> <Gold.PLP.ligand.torsion>
1.0153

> <Gold.PLP.Chemscore.Hbond>
2.0000

> <Gold.PLP.Chemscore.CHOScore>
1.0000

> <Gold.PLP.Chemscore.Metal>
0.0000

> <Gold.Chemscore.Hbonds>
donor molecule, donor type, donor heavy atom, donor atom, acceptor molecule, acceptor atom, score
      L1  H    14    48       P1 10175  2.00
      L1  C    23    47       P1  8028  0.90

> <Gold.PLP.Chemscore.Internal.Correction>
0.7600

> <Gold.Rescore>
     Score         DG    S(hbond)    S(metal)    S(lipo)     H(rot)  DE(clash)    DE(int)     intcor
     11.71     -14.69       1.00        0.00      85.62       1.62       1.86       1.13       ----

> <Gold.Chemscore.Fitness>
11.7054

> <Gold.Chemscore.DG>
-14.6945

> <Gold.Chemscore.ZeroCoef>
-5.4800

> <Gold.Chemscore.Hbond>
0.9991

> <Gold.Chemscore.Metal>
0.0000

> <Gold.Chemscore.Lipo>
85.6191

> <Gold.Chemscore.Internal_Hbond>
0.0000

> <Gold.Chemscore.DEClash>
1.8639

> <Gold.Chemscore.DEInternal>
1.1252

> <Gold.Chemscore.Rot>
1.6171

> <Gold.Chemscore.Internal.Correction>
   9.000000E+99

> <Gold.Chemscore.Hbonds>
donor molecule, donor type, donor heavy atom, donor atom, acceptor molecule, acceptor atom, score
      L1  H    14    48       P1 10175  0.96

> <Gold.Chemscore.Hbond.Weighted>
-3.3369

> <Gold.Chemscore.Metal.Weighted>
-0.0000

> <Gold.Chemscore.Lipo.Weighted>
-10.0174

> <Gold.Chemscore.Internal_Hbond.Weighted>
0.0000

> <Gold.Chemscore.DEClash.Weighted>
1.8639

> <Gold.Chemscore.DEInternal.Weighted>
1.1252

> <Gold.Chemscore.Rot.Weighted>
4.1398

> <Gold.Chemscore.Internal.Correction.Weighted>
   9.000000E+99

> <Gold.Protein.RotatedTorsions>
[ 6907 6896 6895 6894 ] final -128.91 input  -60.11 | X-H torsion
[ 7974 7965 7964 7962 ] final  114.03 input  175.53 | X-H torsion
[ 8008 7997 7996 7995 ] final   36.15 input   59.86 | X-H torsion
[ 10167 10162 10161 10158 ] final  -86.53 input  -65.29 | X-H torsion
[ 10718 10713 10712 10709 ] final  154.77 input   66.30 | X-H torsion
[ 10763 10752 10751 10750 ] final  -55.66 input  -60.55 | X-H torsion
[ 11005 11000 10999 10996 ] final  145.39 input  -57.11 | X-H torsion

> <Gold.Protein.ActiveResidues>
 VAL166  LYS551  ARG553  GLY616  TRP617  ASP618  TYR619  PRO620  LYS621  CYS622 
 ASP623  PHE694  ASN695  SER759  ASP760  ASP761  ALA762  ILE779  LEU786  VAL792 
 PHE793  MET794  SER795  GLU796  ALA797  LYS798  CYS799  TRP800  GLU811  SER814 

> <Gold.Protein.RotatedAtoms>
  150.9229  133.6858  159.2827 H   0  0  0  0  0  0  0  0  0  0  0  0  # atno 6907 bound_to 6896
  151.4306  135.1008  159.9651 H   0  0  0  0  0  0  0  0  0  0  0  0  # atno 6908 bound_to 6896
  152.4988  133.8660  159.7329 H   0  0  0  0  0  0  0  0  0  0  0  0  # atno 6909 bound_to 6896
  145.2095  139.2913  143.4276 H   0  0  0  0  0  0  0  0  0  0  0  0  # atno 7974 bound_to 7965
  155.1827  140.3301  155.4372 H   0  0  0  0  0  0  0  0  0  0  0  0  # atno 8008 bound_to 7997
  156.2471  140.1924  156.6875 H   0  0  0  0  0  0  0  0  0  0  0  0  # atno 8009 bound_to 7997
  154.6260  140.0589  156.9660 H   0  0  0  0  0  0  0  0  0  0  0  0  # atno 8010 bound_to 7997
  140.3932  143.2695  151.9237 H   0  0  0  0  0  0  0  0  0  0  0  0  # atno 10167 bound_to 10162
  157.2273  131.0731  151.1875 H   0  0  0  0  0  0  0  0  0  0  0  0  # atno 10718 bound_to 10713
  154.1943  135.6422  153.5069 H   0  0  0  0  0  0  0  0  0  0  0  0  # atno 10763 bound_to 10752
  153.0027  135.5436  154.6383 H   0  0  0  0  0  0  0  0  0  0  0  0  # atno 10764 bound_to 10752
  154.5779  135.2922  155.0735 H   0  0  0  0  0  0  0  0  0  0  0  0  # atno 10765 bound_to 10752
  140.0708  134.9152  157.1342 H   0  0  0  0  0  0  0  0  0  0  0  0  # atno 11005 bound_to 11000
  146.3400  140.2366  142.8594 LP  0  0  0  0  0  0  0  0  0  0  0  0  # atno 17320 bound_to 7965
  144.9869  140.8512  143.5363 LP  0  0  0  0  0  0  0  0  0  0  0  0  # atno 17321 bound_to 7965
  139.4788  144.5706  151.8093 LP  0  0  0  0  0  0  0  0  0  0  0  0  # atno 17342 bound_to 10162
  140.4817  144.1439  150.5934 LP  0  0  0  0  0  0  0  0  0  0  0  0  # atno 17343 bound_to 10162
  157.3515  130.7084  149.6443 LP  0  0  0  0  0  0  0  0  0  0  0  0  # atno 17370 bound_to 10713
  155.9678  130.4251  150.4639 LP  0  0  0  0  0  0  0  0  0  0  0  0  # atno 17371 bound_to 10713
  140.3629  134.2474  155.7185 LP  0  0  0  0  0  0  0  0  0  0  0  0  # atno 17394 bound_to 11000
  141.2011  133.7971  157.0456 LP  0  0  0  0  0  0  0  0  0  0  0  0  # atno 17395 bound_to 11000

$$$$
