AV-unprocessed.smi:1605|AV-procd|sdf|6456|dock8
  -GOLD-   22720 7113D 1   1.00000     0.00000
 Structure written by MMmdl.
 52 54  0  0  0  0  0  0  0  0  3 V2000
  146.4541  133.6898  153.4253 C   0  0  0  0  0  0  0  0  0  0  0  0
  146.6399  133.7883  154.8291 O   0  0  0  0  0  0  0  0  0  0  0  0
  147.6569  134.6993  155.2240 C   0  0  2  0  0  0  0  0  0  0  0  0
  147.2836  136.0815  154.6684 C   0  0  0  0  0  0  0  0  0  0  0  0
  148.3850  137.1150  154.9554 C   0  0  0  0  0  0  0  0  0  0  0  0
  149.6900  136.6734  154.3993 N   0  3  1  0  0  0  0  0  0  0  0  0
  150.7406  137.7164  154.5301 C   0  0  0  0  0  0  0  0  0  0  0  0
  150.6365  138.5136  155.8495 C   0  0  1  0  0  0  0  0  0  0  0  0
  150.7112  137.6112  156.9359 O   0  0  0  0  0  0  0  0  0  0  0  0
  151.7363  139.5898  156.0005 C   0  0  0  0  0  0  0  0  0  0  0  0
  151.2497  140.8947  156.4792 N   0  0  0  0  0  0  0  0  0  0  0  0
  150.3941  141.7764  155.8924 C   0  0  0  0  0  0  0  0  0  0  0  0
  150.2529  142.8365  156.7351 N   0  3  0  0  0  0  0  0  0  0  0  0
  151.0206  142.6260  157.8822 C   0  0  0  0  0  0  0  0  0  0  0  0
  151.2010  143.4132  159.0135 C   0  0  0  0  0  0  0  0  0  0  0  0
  152.0562  142.9102  160.0199 C   0  0  0  0  0  0  0  0  0  0  0  0
  152.2817  143.7486  161.2667 C   0  0  0  0  0  0  0  0  0  0  0  0
  152.6925  141.6504  159.8738 C   0  0  0  0  0  0  0  0  0  0  0  0
  153.6075  141.1160  160.9624 C   0  0  0  0  0  0  0  0  0  0  0  0
  152.4942  140.8646  158.7164 C   0  0  0  0  0  0  0  0  0  0  0  0
  151.6557  141.3782  157.7295 C   0  0  0  0  0  0  0  0  0  0  0  0
  150.0946  135.3535  154.9530 C   0  0  0  0  0  0  0  0  0  0  0  0
  149.0300  134.2817  154.6658 C   0  0  0  0  0  0  0  0  0  0  0  0
  145.6881  132.9438  153.2140 H   0  0  0  0  0  0  0  0  0  0  0  0
  147.3716  133.3759  152.9261 H   0  0  0  0  0  0  0  0  0  0  0  0
  146.1234  134.6329  152.9911 H   0  0  0  0  0  0  0  0  0  0  0  0
  147.6994  134.7627  156.3130 H   0  0  0  0  0  0  0  0  0  0  0  0
  147.1201  136.0148  153.5918 H   0  0  0  0  0  0  0  0  0  0  0  0
  146.3407  136.4146  155.1034 H   0  0  0  0  0  0  0  0  0  0  0  0
  148.0982  138.0698  154.5130 H   0  0  0  0  0  0  0  0  0  0  0  0
  148.4807  137.2783  156.0302 H   0  0  0  0  0  0  0  0  0  0  0  0
  151.7249  137.2481  154.4829 H   0  0  0  0  0  0  0  0  0  0  0  0
  150.6837  138.3887  153.6725 H   0  0  0  0  0  0  0  0  0  0  0  0
  149.6758  139.0229  155.9125 H   0  0  0  0  0  0  0  0  0  0  0  0
  149.9304  137.0789  156.9492 H   0  0  0  0  0  0  0  0  0  0  0  0
  152.4826  139.2473  156.7185 H   0  0  0  0  0  0  0  0  0  0  0  0
  152.2719  139.7352  155.0618 H   0  0  0  0  0  0  0  0  0  0  0  0
  149.9152  141.6587  154.9311 H   0  0  0  0  0  0  0  0  0  0  0  0
  150.7102  144.3696  159.1198 H   0  0  0  0  0  0  0  0  0  0  0  0
  151.9350  143.2171  162.1530 H   0  0  0  0  0  0  0  0  0  0  0  0
  151.7442  144.6958  161.2134 H   0  0  0  0  0  0  0  0  0  0  0  0
  153.3411  143.9747  161.3905 H   0  0  0  0  0  0  0  0  0  0  0  0
  154.0018  140.1325  160.7045 H   0  0  0  0  0  0  0  0  0  0  0  0
  153.0678  141.0211  161.9048 H   0  0  0  0  0  0  0  0  0  0  0  0
  154.4547  141.7856  161.1129 H   0  0  0  0  0  0  0  0  0  0  0  0
  152.9826  139.9079  158.6056 H   0  0  0  0  0  0  0  0  0  0  0  0
  151.0411  135.0308  154.5215 H   0  0  0  0  0  0  0  0  0  0  0  0
  150.2548  135.4421  156.0288 H   0  0  0  0  0  0  0  0  0  0  0  0
  149.3497  133.3342  155.0988 H   0  0  0  0  0  0  0  0  0  0  0  0
  148.9558  134.1207  153.5892 H   0  0  0  0  0  0  0  0  0  0  0  0
  149.5392  136.5453  153.4089 H   0  0  0  0  0  0  0  0  0  0  0  0
  149.6703  143.6414  156.5423 H   0  0  0  0  0  0  0  0  0  0  0  0
  1  2  1  0  0  0  0
  1 24  1  0  0  0  0
  1 25  1  0  0  0  0
  1 26  1  0  0  0  0
  2  3  1  0  0  0  0
  3 23  1  0  0  0  0
  3  4  1  0  0  0  0
  3 27  1  0  0  0  0
  4  5  1  0  0  0  0
  4 28  1  0  0  0  0
  4 29  1  0  0  0  0
  5  6  1  0  0  0  0
  5 30  1  0  0  0  0
  5 31  1  0  0  0  0
  6  7  1  0  0  0  0
  6 22  1  0  0  0  0
  6 51  1  0  0  0  0
  7  8  1  0  0  0  0
  7 32  1  0  0  0  0
  7 33  1  0  0  0  0
  8  9  1  0  0  0  0
  8 10  1  0  0  0  0
  8 34  1  0  0  0  0
  9 35  1  0  0  0  0
 10 11  1  0  0  0  0
 10 36  1  0  0  0  0
 10 37  1  0  0  0  0
 11 21  1  0  0  0  0
 11 12  1  0  0  0  0
 12 13  2  0  0  0  0
 12 38  1  0  0  0  0
 13 14  1  0  0  0  0
 13 52  1  0  0  0  0
 14 21  2  0  0  0  0
 14 15  1  0  0  0  0
 15 16  2  0  0  0  0
 15 39  1  0  0  0  0
 16 17  1  0  0  0  0
 16 18  1  0  0  0  0
 17 40  1  0  0  0  0
 17 41  1  0  0  0  0
 17 42  1  0  0  0  0
 18 19  1  0  0  0  0
 18 20  2  0  0  0  0
 19 43  1  0  0  0  0
 19 44  1  0  0  0  0
 19 45  1  0  0  0  0
 20 21  1  0  0  0  0
 20 46  1  0  0  0  0
 22 23  1  0  0  0  0
 22 47  1  0  0  0  0
 22 48  1  0  0  0  0
 23 49  1  0  0  0  0
 23 50  1  0  0  0  0
M  CHG  1   6   1
M  CHG  1  13   1
M  END
> <s_m_source_file>
AV-unprocessed.smi

> <i_m_source_file_index>
1605

> <i_lp_mmshare_version>
43012

> <i_f3d_flags>
0

> <s_epik_input>
W0NIM11PW0NIXTFbQ0gyXVtDSDJdTihbQ0gyXVtDSDJdMSlbQ0gyXVtDQEhdKFtPSF0pW0NIMl1uKFtjSF1uMiljKGMyMylbY0hdYyhbQ0gzXSljKFtjSF0zKVtDSDNd

> <s_epik_cmdline>
J2VwaWtfcHl0aG9uJywgJy1waCcsICc3LjAnLCAnLXRuJywgJzgnLCAnLW1hJywgJzIwMCcsICctbWV0YWxfYmluZGluZycsICctaW1hZScsICc8aW5maWxlLm1hZT4nLCAnLW9tYWUnLCAnPG91dGZpbGUubWFlPic=

> <r_epik_Ionization_Penalty>
1.19848

> <r_epik_Ionization_Penalty_Charging>
1.19848

> <r_epik_Ionization_Penalty_Neutral>
1.67134e-06

> <r_epik_State_Penalty>
1.2782

> <r_epik_Charging_Adjusted_Penalty>
2.47668

> <i_epik_Tot_Q>
2

> <i_epik_Tot_abs_Q>
2

> <r_epik_Metal_State_Penalty>
5.29544

> <b_epik_Metal_Only>
0

> <s_lp_Force_Field>
OPLS_2005

> <r_lp_Energy>
33.6993

> <b_lp_Chiralities_Consistent>
1

> <s_lp_Variant>
AV-unprocessed.smi:1605-6

> <Gold.Version>
5.8.1

> <Gold.Id.Protein>
6NUR|6NUR_protein|mol2

> <Gold.PLP.Fitness>
53.1920

> <Gold.PLP.PLP>
-43.0588

> <Gold.PLP.part.hbond>
-2.4977

> <Gold.PLP.part.metal>
0.0000

> <Gold.PLP.part.buried>
-4.5184

> <Gold.PLP.part.nonpolar>
-35.7417

> <Gold.PLP.part.repulsive>
0.1206

> <Gold.PLP.ligand.clash>
0.0000

> <Gold.PLP.ligand.torsion>
0.9624

> <Gold.PLP.Chemscore.Hbond>
4.0000

> <Gold.PLP.Chemscore.CHOScore>
0.0000

> <Gold.PLP.Chemscore.Metal>
0.0000

> <Gold.Chemscore.Hbonds>
donor molecule, donor type, donor heavy atom, donor atom, acceptor molecule, acceptor atom, score
      L1  H     6    51       P1  7948  2.00
      L1  H    13    52       P1  8028  2.00

> <Gold.PLP.Chemscore.Internal.Correction>
0.0580

> <Gold.Rescore>
     Score         DG    S(hbond)    S(metal)    S(lipo)     H(rot)  DE(clash)    DE(int)     intcor
     18.15     -19.30       1.93        0.00     113.06       2.28       0.02       1.14       ----

> <Gold.Chemscore.Fitness>
18.1484

> <Gold.Chemscore.DG>
-19.3040

> <Gold.Chemscore.ZeroCoef>
-5.4800

> <Gold.Chemscore.Hbond>
1.9291

> <Gold.Chemscore.Metal>
0.0000

> <Gold.Chemscore.Lipo>
113.0554

> <Gold.Chemscore.Internal_Hbond>
0.0000

> <Gold.Chemscore.DEClash>
0.0174

> <Gold.Chemscore.DEInternal>
1.1381

> <Gold.Chemscore.Rot>
2.2839

> <Gold.Chemscore.Internal.Correction>
   9.000000E+99

> <Gold.Chemscore.Hbonds>
donor molecule, donor type, donor heavy atom, donor atom, acceptor molecule, acceptor atom, score
      L1  H     6    51       P1  7948  0.65
      L1  H    13    52       P1  8028  0.97

> <Gold.Chemscore.Hbond.Weighted>
-6.4433

> <Gold.Chemscore.Metal.Weighted>
-0.0000

> <Gold.Chemscore.Lipo.Weighted>
-13.2275

> <Gold.Chemscore.Internal_Hbond.Weighted>
0.0000

> <Gold.Chemscore.DEClash.Weighted>
0.0174

> <Gold.Chemscore.DEInternal.Weighted>
1.1381

> <Gold.Chemscore.Rot.Weighted>
5.8469

> <Gold.Chemscore.Internal.Correction.Weighted>
   9.000000E+99

> <Gold.Protein.RotatedTorsions>
[ 6907 6896 6895 6894 ] final  137.87 input  -60.11 | X-H torsion
[ 7974 7965 7964 7962 ] final  -94.06 input  175.53 | X-H torsion
[ 8008 7997 7996 7995 ] final  123.38 input   59.86 | X-H torsion
[ 10167 10162 10161 10158 ] final    4.80 input  -65.29 | X-H torsion
[ 10718 10713 10712 10709 ] final  -24.68 input   66.30 | X-H torsion
[ 10763 10752 10751 10750 ] final   -7.82 input  -60.55 | X-H torsion
[ 11005 11000 10999 10996 ] final  103.17 input  -57.11 | X-H torsion

> <Gold.Protein.ActiveResidues>
 VAL166  LYS551  ARG553  GLY616  TRP617  ASP618  TYR619  PRO620  LYS621  CYS622 
 ASP623  PHE694  ASN695  SER759  ASP760  ASP761  ALA762  ILE779  LEU786  VAL792 
 PHE793  MET794  SER795  GLU796  ALA797  LYS798  CYS799  TRP800  GLU811  SER814 

> <Gold.Protein.RotatedAtoms>
  152.2732  133.5401  159.5451 H   0  0  0  0  0  0  0  0  0  0  0  0  # atno 6907 bound_to 6896
  150.7167  134.0669  159.3859 H   0  0  0  0  0  0  0  0  0  0  0  0  # atno 6908 bound_to 6896
  151.8583  135.0533  160.0517 H   0  0  0  0  0  0  0  0  0  0  0  0  # atno 6909 bound_to 6896
  145.3783  140.9514  143.2408 H   0  0  0  0  0  0  0  0  0  0  0  0  # atno 7974 bound_to 7965
  156.2764  140.2764  156.1619 H   0  0  0  0  0  0  0  0  0  0  0  0  # atno 8008 bound_to 7997
  155.0745  140.0387  157.2637 H   0  0  0  0  0  0  0  0  0  0  0  0  # atno 8009 bound_to 7997
  154.7013  140.2650  155.6722 H   0  0  0  0  0  0  0  0  0  0  0  0  # atno 8010 bound_to 7997
  140.6516  143.7531  150.7584 H   0  0  0  0  0  0  0  0  0  0  0  0  # atno 10167 bound_to 10162
  156.4744  130.4531  149.6849 H   0  0  0  0  0  0  0  0  0  0  0  0  # atno 10718 bound_to 10713
  153.4318  135.7012  153.6226 H   0  0  0  0  0  0  0  0  0  0  0  0  # atno 10763 bound_to 10752
  153.4638  135.3730  155.2353 H   0  0  0  0  0  0  0  0  0  0  0  0  # atno 10764 bound_to 10752
  154.8725  135.4026  154.3703 H   0  0  0  0  0  0  0  0  0  0  0  0  # atno 10765 bound_to 10752
  139.8782  134.9252  156.5168 H   0  0  0  0  0  0  0  0  0  0  0  0  # atno 11005 bound_to 11000
  144.8526  139.5299  143.6849 LP  0  0  0  0  0  0  0  0  0  0  0  0  # atno 17320 bound_to 7965
  146.2854  139.6989  142.9199 LP  0  0  0  0  0  0  0  0  0  0  0  0  # atno 17321 bound_to 7965
  140.1183  143.4635  152.2328 LP  0  0  0  0  0  0  0  0  0  0  0  0  # atno 17342 bound_to 10162
  139.5732  144.7473  151.3836 LP  0  0  0  0  0  0  0  0  0  0  0  0  # atno 17343 bound_to 10162
  156.3585  130.7469  151.2438 LP  0  0  0  0  0  0  0  0  0  0  0  0  # atno 17370 bound_to 10713
  157.7488  131.0357  150.4374 LP  0  0  0  0  0  0  0  0  0  0  0  0  # atno 17371 bound_to 10713
  140.8479  133.8154  155.9140 LP  0  0  0  0  0  0  0  0  0  0  0  0  # atno 17394 bound_to 11000
  140.9173  134.2186  157.4949 LP  0  0  0  0  0  0  0  0  0  0  0  0  # atno 17395 bound_to 11000

$$$$
