AV-unprocessed.smi:2881|AV-procd|sdf|11067|dock2
  -GOLD-   2272015543D 1   1.00000     0.00000
 Structure written by MMmdl.
 40 42  0  0  0  0  0  0  0  0  1 V2000
  147.1015  140.7706  153.1580 C   0  0  0  0  0  0  0  0  0  0  0  0
  146.9264  141.1184  154.6068 C   0  0  0  0  0  0  0  0  0  0  0  0
  146.6586  142.3965  155.1789 C   0  0  0  0  0  0  0  0  0  0  0  0
  146.5944  142.1592  156.5235 C   0  0  0  0  0  0  0  0  0  0  0  0
  146.3396  143.0770  157.6751 C   0  0  0  0  0  0  0  0  0  0  0  0
  147.4791  143.0094  158.6915 C   0  0  0  0  0  0  0  0  0  0  0  0
  147.2443  142.7017  159.8596 O   0  0  0  0  0  0  0  0  0  0  0  0
  148.7083  143.2920  158.2318 N   0  0  0  0  0  0  0  0  0  0  0  0
  149.9348  143.2945  159.0305 C   0  0  2  0  0  0  0  0  0  0  0  0
  150.6059  144.6836  158.9696 C   0  0  1  0  0  0  0  0  0  0  0  0
  151.6553  144.7862  160.0917 C   0  0  0  0  0  0  0  0  0  0  0  0
  152.7742  143.8543  159.5885 C   0  0  0  0  0  0  0  0  0  0  0  0
  152.2157  143.3401  158.2466 C   0  0  2  0  0  0  0  0  0  0  0  0
  151.4867  144.5742  157.7308 C   0  0  0  0  0  0  0  0  0  0  0  0
  151.0606  142.3448  158.5185 C   0  0  2  0  0  0  0  0  0  0  0  0
  150.7101  141.4660  157.2961 C   0  0  0  0  0  0  0  0  0  0  0  0
  150.2392  142.2663  156.2322 O   0  0  0  0  0  0  0  0  0  0  0  0
  146.8150  140.8094  156.6844 N   0  0  0  0  0  0  0  0  0  0  0  0
  147.0202  140.1644  155.5212 N   0  0  0  0  0  0  0  0  0  0  0  0
  146.8295  140.3221  157.5690 H   0  0  0  0  0  0  0  0  0  0  0  0
  146.9659  141.6469  152.5237 H   0  0  0  0  0  0  0  0  0  0  0  0
  146.3772  140.0189  152.8435 H   0  0  0  0  0  0  0  0  0  0  0  0
  148.0990  140.3744  152.9671 H   0  0  0  0  0  0  0  0  0  0  0  0
  146.5335  143.3449  154.6774 H   0  0  0  0  0  0  0  0  0  0  0  0
  145.3926  142.8284  158.1567 H   0  0  0  0  0  0  0  0  0  0  0  0
  146.2443  144.1030  157.3180 H   0  0  0  0  0  0  0  0  0  0  0  0
  148.8043  143.5306  157.2556 H   0  0  0  0  0  0  0  0  0  0  0  0
  149.6823  143.0585  160.0662 H   0  0  0  0  0  0  0  0  0  0  0  0
  149.9023  145.5173  158.9638 H   0  0  0  0  0  0  0  0  0  0  0  0
  152.0230  145.8086  160.1883 H   0  0  0  0  0  0  0  0  0  0  0  0
  151.2617  144.4805  161.0617 H   0  0  0  0  0  0  0  0  0  0  0  0
  153.6970  144.4150  159.4341 H   0  0  0  0  0  0  0  0  0  0  0  0
  152.9906  143.0458  160.2878 H   0  0  0  0  0  0  0  0  0  0  0  0
  152.9902  142.9563  157.5821 H   0  0  0  0  0  0  0  0  0  0  0  0
  150.9260  144.3997  156.8116 H   0  0  0  0  0  0  0  0  0  0  0  0
  152.1417  145.4356  157.5883 H   0  0  0  0  0  0  0  0  0  0  0  0
  151.3447  141.6711  159.3286 H   0  0  0  0  0  0  0  0  0  0  0  0
  151.5936  140.9342  156.9421 H   0  0  0  0  0  0  0  0  0  0  0  0
  149.9558  140.7184  157.5421 H   0  0  0  0  0  0  0  0  0  0  0  0
  149.8845  143.0657  156.5902 H   0  0  0  0  0  0  0  0  0  0  0  0
  1 21  1  0  0  0  0
  1 22  1  0  0  0  0
  1 23  1  0  0  0  0
  1  2  1  0  0  0  0
  2 19  2  0  0  0  0
  2  3  1  0  0  0  0
  3  4  2  0  0  0  0
  3 24  1  0  0  0  0
  4 18  1  0  0  0  0
  4  5  1  0  0  0  0
  5  6  1  0  0  0  0
  5 25  1  0  0  0  0
  5 26  1  0  0  0  0
  6  7  2  0  0  0  0
  6  8  1  0  0  0  0
  8  9  1  0  0  0  0
  8 27  1  0  0  0  0
  9 15  1  0  0  0  0
  9 10  1  0  0  0  0
  9 28  1  0  0  0  0
 10 14  1  0  0  0  0
 10 11  1  0  0  0  0
 10 29  1  0  0  0  0
 11 12  1  0  0  0  0
 11 30  1  0  0  0  0
 11 31  1  0  0  0  0
 12 13  1  0  0  0  0
 12 32  1  0  0  0  0
 12 33  1  0  0  0  0
 13 14  1  0  0  0  0
 13 15  1  0  0  0  0
 13 34  1  0  0  0  0
 14 35  1  0  0  0  0
 14 36  1  0  0  0  0
 15 16  1  0  0  0  0
 15 37  1  0  0  0  0
 16 17  1  0  0  0  0
 16 38  1  0  0  0  0
 16 39  1  0  0  0  0
 17 40  1  0  0  0  0
 18 19  1  0  0  0  0
 18 20  1  0  0  0  0
M  END
> <s_m_source_file>
AV-unprocessed.smi

> <i_m_source_file_index>
2881

> <i_lp_mmshare_version>
43012

> <i_f3d_flags>
0

> <s_epik_input>
W0NIM11jMVtjSF1jKG5bbkhdMSlbQ0gyXUMoPU8pW05IXVtDQEhdKFtDQEBIXTIzKVtDQEhdKFtDSDJdW09IXSlbQ0BASF0oW0NIMl0zKVtDSDJdW0NIMl0y

> <s_epik_cmdline>
J2VwaWtfcHl0aG9uJywgJy1waCcsICc3LjAnLCAnLXRuJywgJzgnLCAnLW1hJywgJzIwMCcsICctbWV0YWxfYmluZGluZycsICctaW1hZScsICc8aW5maWxlLm1hZT4nLCAnLW9tYWUnLCAnPG91dGZpbGUubWFlPic=

> <r_lp_tautomer_probability>
0.5

> <r_epik_Ionization_Penalty>
0.00013396

> <r_epik_Ionization_Penalty_Charging>
0

> <r_epik_Ionization_Penalty_Neutral>
0.00013396

> <r_epik_State_Penalty>
0.41068

> <r_epik_Charging_Adjusted_Penalty>
0.41068

> <i_epik_Tot_Q>
0

> <i_epik_Tot_abs_Q>
0

> <r_epik_Metal_State_Penalty>
0.41066

> <b_epik_Metal_Only>
0

> <s_lp_Force_Field>
OPLS_2005

> <r_lp_Energy>
49.1739

> <b_lp_Chiralities_Consistent>
1

> <s_lp_Variant>
AV-unprocessed.smi:2881-13

> <Gold.Version>
5.8.1

> <Gold.Id.Protein>
6NUR|6NUR_protein|mol2

> <Gold.PLP.Fitness>
43.2749

> <Gold.PLP.PLP>
-34.5278

> <Gold.PLP.part.hbond>
-5.0000

> <Gold.PLP.part.metal>
0.0000

> <Gold.PLP.part.buried>
-3.2626

> <Gold.PLP.part.nonpolar>
-27.7206

> <Gold.PLP.part.repulsive>
0.1789

> <Gold.PLP.ligand.clash>
0.0000

> <Gold.PLP.ligand.torsion>
0.0364

> <Gold.PLP.Chemscore.Hbond>
2.9308

> <Gold.PLP.Chemscore.CHOScore>
0.0000

> <Gold.PLP.Chemscore.Metal>
0.0000

> <Gold.Chemscore.Hbonds>
donor molecule, donor type, donor heavy atom, donor atom, acceptor molecule, acceptor atom, score
      L1  H     8    27       P1  8028  1.00
      L1  H    17    40       P1  8028  0.46
      P1  H  6933  6944       L1     7  0.73
      P1  H  6934  6946       L1     7  0.72

> <Gold.PLP.Chemscore.Internal.Correction>
0.0275

> <Gold.Rescore>
     Score         DG    S(hbond)    S(metal)    S(lipo)     H(rot)  DE(clash)    DE(int)     intcor
     15.88     -18.38       2.10        0.00     100.05       2.28       0.02       2.48       ----

> <Gold.Chemscore.Fitness>
15.8839

> <Gold.Chemscore.DG>
-18.3845

> <Gold.Chemscore.ZeroCoef>
-5.4800

> <Gold.Chemscore.Hbond>
2.1029

> <Gold.Chemscore.Metal>
0.0000

> <Gold.Chemscore.Lipo>
100.0499

> <Gold.Chemscore.Internal_Hbond>
0.0000

> <Gold.Chemscore.DEClash>
0.0237

> <Gold.Chemscore.DEInternal>
2.4768

> <Gold.Chemscore.Rot>
2.2755

> <Gold.Chemscore.Internal.Correction>
   9.000000E+99

> <Gold.Chemscore.Hbonds>
donor molecule, donor type, donor heavy atom, donor atom, acceptor molecule, acceptor atom, score
      L1  H     8    27       P1  8028  0.25
      L1  H    17    40       P1  8028  0.45
      P1  H  6933  6944       L1     7  0.68
      P1  H  6934  6946       L1     7  0.67

> <Gold.Chemscore.Hbond.Weighted>
-7.0238

> <Gold.Chemscore.Metal.Weighted>
-0.0000

> <Gold.Chemscore.Lipo.Weighted>
-11.7058

> <Gold.Chemscore.Internal_Hbond.Weighted>
0.0000

> <Gold.Chemscore.DEClash.Weighted>
0.0237

> <Gold.Chemscore.DEInternal.Weighted>
2.4768

> <Gold.Chemscore.Rot.Weighted>
5.8252

> <Gold.Chemscore.Internal.Correction.Weighted>
   9.000000E+99

> <Gold.Protein.RotatedTorsions>
[ 6907 6896 6895 6894 ] final -110.55 input  -60.11 | X-H torsion
[ 7974 7965 7964 7962 ] final  142.09 input  175.53 | X-H torsion
[ 8008 7997 7996 7995 ] final  129.72 input   59.86 | X-H torsion
[ 10167 10162 10161 10158 ] final   77.83 input  -65.29 | X-H torsion
[ 10718 10713 10712 10709 ] final  122.12 input   66.30 | X-H torsion
[ 10763 10752 10751 10750 ] final -135.95 input  -60.55 | X-H torsion
[ 11005 11000 10999 10996 ] final -107.69 input  -57.11 | X-H torsion

> <Gold.Protein.ActiveResidues>
 VAL166  LYS551  ARG553  GLY616  TRP617  ASP618  TYR619  PRO620  LYS621  CYS622 
 ASP623  PHE694  ASN695  SER759  ASP760  ASP761  ALA762  ILE779  LEU786  VAL792 
 PHE793  MET794  SER795  GLU796  ALA797  LYS798  CYS799  TRP800  GLU811  SER814 

> <Gold.Protein.RotatedAtoms>
  150.7632  133.9365  159.3442 H   0  0  0  0  0  0  0  0  0  0  0  0  # atno 6907 bound_to 6896
  151.7268  135.0881  160.0303 H   0  0  0  0  0  0  0  0  0  0  0  0  # atno 6908 bound_to 6896
  152.3615  133.6265  159.6054 H   0  0  0  0  0  0  0  0  0  0  0  0  # atno 6909 bound_to 6896
  144.9038  139.5386  143.5741 H   0  0  0  0  0  0  0  0  0  0  0  0  # atno 7974 bound_to 7965
  156.2941  140.2613  156.2644 H   0  0  0  0  0  0  0  0  0  0  0  0  # atno 8008 bound_to 7997
  154.9756  140.0390  157.2273 H   0  0  0  0  0  0  0  0  0  0  0  0  # atno 8009 bound_to 7997
  154.7818  140.2796  155.6062 H   0  0  0  0  0  0  0  0  0  0  0  0  # atno 8010 bound_to 7997
  139.9774  144.5851  150.7931 H   0  0  0  0  0  0  0  0  0  0  0  0  # atno 10167 bound_to 10162
  157.5766  131.1079  150.8267 H   0  0  0  0  0  0  0  0  0  0  0  0  # atno 10718 bound_to 10713
  154.8693  135.3687  154.4981 H   0  0  0  0  0  0  0  0  0  0  0  0  # atno 10763 bound_to 10752
  153.5624  135.7022  153.5546 H   0  0  0  0  0  0  0  0  0  0  0  0  # atno 10764 bound_to 10752
  153.3616  135.4045  155.1686 H   0  0  0  0  0  0  0  0  0  0  0  0  # atno 10765 bound_to 10752
  141.0941  133.9003  157.2006 H   0  0  0  0  0  0  0  0  0  0  0  0  # atno 11005 bound_to 11000
  146.3123  139.7790  142.9010 LP  0  0  0  0  0  0  0  0  0  0  0  0  # atno 17320 bound_to 7965
  145.3570  141.0318  143.3306 LP  0  0  0  0  0  0  0  0  0  0  0  0  # atno 17321 bound_to 7965
  140.7501  143.2949  151.3230 LP  0  0  0  0  0  0  0  0  0  0  0  0  # atno 17342 bound_to 10162
  139.6435  144.0494  152.2573 LP  0  0  0  0  0  0  0  0  0  0  0  0  # atno 17343 bound_to 10162
  156.8724  130.5151  149.5296 LP  0  0  0  0  0  0  0  0  0  0  0  0  # atno 17370 bound_to 10713
  156.0811  130.5821  150.9564 LP  0  0  0  0  0  0  0  0  0  0  0  0  # atno 17371 bound_to 10713
  139.9773  135.0110  156.9662 LP  0  0  0  0  0  0  0  0  0  0  0  0  # atno 17394 bound_to 11000
  140.5183  134.0933  155.7286 LP  0  0  0  0  0  0  0  0  0  0  0  0  # atno 17395 bound_to 11000

$$$$
