AV-unprocessed.smi:55|AV-procd|sdf|569|dock2
  -GOLD-   2262016473D 1   1.00000     0.00000
 Structure written by MMmdl.
 30 31  0  0  0  0  0  0  0  0  2 V2000
  149.4171  136.5668  159.0405 C   0  0  0  0  0  0  0  0  0  0  0  0
  150.3109  137.0015  157.8919 C   0  0  0  0  0  0  0  0  0  0  0  0
  150.6259  138.2976  157.6734 C   0  0  0  0  0  0  0  0  0  0  0  0
  151.4440  138.6959  156.6267 N   0  0  0  0  0  0  0  0  0  0  0  0
  151.7323  140.1590  156.3255 C   0  0  2  0  0  0  0  0  0  0  0  0
  151.3250  141.1388  157.4323 C   0  0  0  0  0  0  0  0  0  0  0  0
  149.9494  141.5864  156.9729 C   0  0  1  0  0  0  0  0  0  0  0  0
  149.6517  142.8779  157.4632 O   0  0  0  0  0  0  0  0  0  0  0  0
  150.0867  141.5604  155.4473 C   0  0  2  0  0  0  0  0  0  0  0  0
  148.7623  141.2776  154.7215 C   0  0  0  0  0  0  0  0  0  0  0  0
  148.9713  141.2284  153.3262 O   0  0  0  0  0  0  0  0  0  0  0  0
  151.0125  140.5074  155.1802 O   0  0  0  0  0  0  0  0  0  0  0  0
  151.9166  137.7159  155.7113 C   0  0  0  0  0  0  0  0  0  0  0  0
  152.5853  138.0933  154.7487 O   0  0  0  0  0  0  0  0  0  0  0  0
  151.6160  136.4044  155.9318 N   0  5  0  0  0  0  0  0  0  0  0  0
  150.8471  135.9885  156.9774 C   0  0  0  0  0  0  0  0  0  0  0  0
  150.5916  134.8003  157.1704 O   0  0  0  0  0  0  0  0  0  0  0  0
  152.8076  140.2081  156.1465 H   0  0  0  0  0  0  0  0  0  0  0  0
  149.1812  140.8865  157.3000 H   0  0  0  0  0  0  0  0  0  0  0  0
  150.5308  142.4986  155.1085 H   0  0  0  0  0  0  0  0  0  0  0  0
  149.0933  137.4201  159.6370 H   0  0  0  0  0  0  0  0  0  0  0  0
  149.9484  135.8780  159.6979 H   0  0  0  0  0  0  0  0  0  0  0  0
  148.5273  136.0639  158.6607 H   0  0  0  0  0  0  0  0  0  0  0  0
  150.2146  139.0266  158.3507 H   0  0  0  0  0  0  0  0  0  0  0  0
  151.3711  140.7086  158.4326 H   0  0  0  0  0  0  0  0  0  0  0  0
  152.0231  141.9769  157.3990 H   0  0  0  0  0  0  0  0  0  0  0  0
  149.1352  143.3320  156.8150 H   0  0  0  0  0  0  0  0  0  0  0  0
  148.3104  140.3495  155.0731 H   0  0  0  0  0  0  0  0  0  0  0  0
  148.0489  142.0790  154.9150 H   0  0  0  0  0  0  0  0  0  0  0  0
  149.4039  140.4153  153.1158 H   0  0  0  0  0  0  0  0  0  0  0  0
  1  2  1  0  0  0  0
  1 21  1  0  0  0  0
  1 22  1  0  0  0  0
  1 23  1  0  0  0  0
  2 16  1  0  0  0  0
  2  3  2  0  0  0  0
  3  4  1  0  0  0  0
  3 24  1  0  0  0  0
  4  5  1  0  0  0  0
  4 13  1  0  0  0  0
  5 18  1  0  0  0  0
  5 12  1  0  0  0  0
  5  6  1  0  0  0  0
  6  7  1  0  0  0  0
  6 25  1  0  0  0  0
  6 26  1  0  0  0  0
  7 19  1  0  0  0  0
  7  8  1  0  0  0  0
  7  9  1  0  0  0  0
  8 27  1  0  0  0  0
  9 20  1  0  0  0  0
  9 10  1  0  0  0  0
  9 12  1  0  0  0  0
 10 11  1  0  0  0  0
 10 28  1  0  0  0  0
 10 29  1  0  0  0  0
 11 30  1  0  0  0  0
 13 14  2  0  0  0  0
 13 15  1  0  0  0  0
 15 16  1  0  0  0  0
 16 17  2  0  0  0  0
M  CHG  1  15  -1
M  END
> <s_m_source_file>
AV-unprocessed.smi

> <i_m_source_file_index>
55

> <i_lp_mmshare_version>
43012

> <i_f3d_flags>
0

> <s_epik_input>
Tz1jMVtuSF1jKD1PKW4oW2NIXWMxW0NIM10pW0NAQEhdMltDSDJdW0NAQEhdKFtPSF0pW0NAQEhdKE8yKVtDSDJdW09IXQ==

> <s_epik_cmdline>
J2VwaWtfcHl0aG9uJywgJy1waCcsICc3LjAnLCAnLXRuJywgJzgnLCAnLW1hJywgJzIwMCcsICctbWV0YWxfYmluZGluZycsICctaW1hZScsICc8aW5maWxlLm1hZT4nLCAnLW9tYWUnLCAnPG91dGZpbGUubWFlPic=

> <r_lp_tautomer_probability>
0.999537

> <r_epik_Ionization_Penalty>
3.66603

> <r_epik_Ionization_Penalty_Charging>
1.09773e-07

> <r_epik_Ionization_Penalty_Neutral>
3.66603

> <r_epik_State_Penalty>
3.66562

> <r_epik_Charging_Adjusted_Penalty>
3.66562

> <i_epik_Tot_Q>
-1

> <i_epik_Tot_abs_Q>
1

> <r_epik_Metal_State_Penalty>
0.234536

> <b_epik_Metal_Only>
1

> <s_epik_Chemistry_Notes>
This compound contains an acetal/aminal-like group ( X-CH(R)-Y where X, Y are N, S, or O) that may be acid/base labile, releasing an aldehyde.

> <s_lp_Force_Field>
OPLS_2005

> <r_lp_Energy>
34.2807

> <b_lp_Chiralities_Consistent>
1

> <s_lp_Variant>
AV-unprocessed.smi:55-9

> <Gold.Version>
5.8.1

> <Gold.Id.Protein>
6NUR|6NUR_protein|mol2

> <Gold.PLP.Fitness>
42.8479

> <Gold.PLP.PLP>
-26.4728

> <Gold.PLP.part.hbond>
-7.1997

> <Gold.PLP.part.metal>
0.0000

> <Gold.PLP.part.buried>
-4.4774

> <Gold.PLP.part.nonpolar>
-15.4950

> <Gold.PLP.part.repulsive>
0.1284

> <Gold.PLP.ligand.clash>
0.0000

> <Gold.PLP.ligand.torsion>
0.2056

> <Gold.PLP.Chemscore.Hbond>
5.5781

> <Gold.PLP.Chemscore.CHOScore>
0.0000

> <Gold.PLP.Chemscore.Metal>
0.0000

> <Gold.Chemscore.Hbonds>
donor molecule, donor type, donor heavy atom, donor atom, acceptor molecule, acceptor atom, score
      L1  H     8    27       P1  8028  1.00
      L1  H    11    30       P1  7957  0.30
      P1  H  6896  6907       L1    17  0.21
      P1  H  7989  7998       L1    12  0.98
      P1  H  8011  8017       L1    11  1.00
      P1  H 10752 10764       L1    15  2.00

> <Gold.PLP.Chemscore.Internal.Correction>
0.0520

> <Gold.Rescore>
     Score         DG    S(hbond)    S(metal)    S(lipo)     H(rot)  DE(clash)    DE(int)     intcor
     12.77     -14.31       3.42        0.00      36.73       2.69       0.05       1.49       ----

> <Gold.Chemscore.Fitness>
12.7711

> <Gold.Chemscore.DG>
-14.3103

> <Gold.Chemscore.ZeroCoef>
-5.4800

> <Gold.Chemscore.Hbond>
3.4168

> <Gold.Chemscore.Metal>
0.0000

> <Gold.Chemscore.Lipo>
36.7285

> <Gold.Chemscore.Internal_Hbond>
0.0000

> <Gold.Chemscore.DEClash>
0.0482

> <Gold.Chemscore.DEInternal>
1.4910

> <Gold.Chemscore.Rot>
2.6871

> <Gold.Chemscore.Internal.Correction>
   9.000000E+99

> <Gold.Chemscore.Hbonds>
donor molecule, donor type, donor heavy atom, donor atom, acceptor molecule, acceptor atom, score
      L1  H     8    27       P1  8028  0.88
      L1  H    11    30       P1  7957  0.29
      P1  H  6896  6907       L1    17  0.19
      P1  H  7989  7998       L1    12  0.42
      P1  H  8011  8017       L1    11  0.43
      P1  H 10752 10764       L1    15  0.29

> <Gold.Chemscore.Hbond.Weighted>
-11.4121

> <Gold.Chemscore.Metal.Weighted>
-0.0000

> <Gold.Chemscore.Lipo.Weighted>
-4.2972

> <Gold.Chemscore.Internal_Hbond.Weighted>
0.0000

> <Gold.Chemscore.DEClash.Weighted>
0.0482

> <Gold.Chemscore.DEInternal.Weighted>
1.4910

> <Gold.Chemscore.Rot.Weighted>
6.8791

> <Gold.Chemscore.Internal.Correction.Weighted>
   9.000000E+99

> <Gold.Protein.RotatedTorsions>
[ 6907 6896 6895 6894 ] final  -99.89 input  -60.11 | X-H torsion
[ 7974 7965 7964 7962 ] final  142.36 input  175.53 | X-H torsion
[ 8008 7997 7996 7995 ] final  -23.19 input   59.86 | X-H torsion
[ 10167 10162 10161 10158 ] final  113.41 input  -65.29 | X-H torsion
[ 10718 10713 10712 10709 ] final   96.46 input   66.30 | X-H torsion
[ 10763 10752 10751 10750 ] final  -39.47 input  -60.55 | X-H torsion
[ 11005 11000 10999 10996 ] final -141.49 input  -57.11 | X-H torsion

> <Gold.Protein.ActiveResidues>
 VAL166  LYS551  ARG553  GLY616  TRP617  ASP618  TYR619  PRO620  LYS621  CYS622 
 ASP623  PHE694  ASN695  SER759  ASP760  ASP761  ALA762  ILE779  LEU786  VAL792 
 PHE793  MET794  SER795  GLU796  ALA797  LYS798  CYS799  TRP800  GLU811  SER814 

> <Gold.Protein.RotatedAtoms>
  150.7096  134.0971  159.3952 H   0  0  0  0  0  0  0  0  0  0  0  0  # atno 6907 bound_to 6896
  151.8957  135.0396  160.0511 H   0  0  0  0  0  0  0  0  0  0  0  0  # atno 6908 bound_to 6896
  152.2455  133.5135  159.5331 H   0  0  0  0  0  0  0  0  0  0  0  0  # atno 6909 bound_to 6896
  144.9014  139.5418  143.5752 H   0  0  0  0  0  0  0  0  0  0  0  0  # atno 7974 bound_to 7965
  154.4599  140.1987  156.0273 H   0  0  0  0  0  0  0  0  0  0  0  0  # atno 8008 bound_to 7997
  156.0820  140.3270  155.7678 H   0  0  0  0  0  0  0  0  0  0  0  0  # atno 8009 bound_to 7997
  155.5096  140.0560  157.2916 H   0  0  0  0  0  0  0  0  0  0  0  0  # atno 8010 bound_to 7997
  139.6463  144.7126  151.2135 H   0  0  0  0  0  0  0  0  0  0  0  0  # atno 10167 bound_to 10162
  157.6926  131.0579  150.4495 H   0  0  0  0  0  0  0  0  0  0  0  0  # atno 10718 bound_to 10713
  153.9299  135.6773  153.4746 H   0  0  0  0  0  0  0  0  0  0  0  0  # atno 10763 bound_to 10752
  153.0985  135.4839  154.8820 H   0  0  0  0  0  0  0  0  0  0  0  0  # atno 10764 bound_to 10752
  154.7434  135.3166  154.8646 H   0  0  0  0  0  0  0  0  0  0  0  0  # atno 10765 bound_to 10752
  140.8319  134.2507  157.4852 H   0  0  0  0  0  0  0  0  0  0  0  0  # atno 11005 bound_to 11000
  146.3110  139.7747  142.9019 LP  0  0  0  0  0  0  0  0  0  0  0  0  # atno 17320 bound_to 7965
  145.3610  141.0326  143.3285 LP  0  0  0  0  0  0  0  0  0  0  0  0  # atno 17321 bound_to 7965
  140.7516  143.6225  150.8500 LP  0  0  0  0  0  0  0  0  0  0  0  0  # atno 17342 bound_to 10162
  139.9868  143.5890  152.2924 LP  0  0  0  0  0  0  0  0  0  0  0  0  # atno 17343 bound_to 10162
  156.4847  130.4082  149.6441 LP  0  0  0  0  0  0  0  0  0  0  0  0  # atno 17370 bound_to 10713
  156.3473  130.7413  151.2368 LP  0  0  0  0  0  0  0  0  0  0  0  0  # atno 17371 bound_to 10713
  139.8705  134.9590  156.4319 LP  0  0  0  0  0  0  0  0  0  0  0  0  # atno 17394 bound_to 11000
  140.8989  133.7794  155.9657 LP  0  0  0  0  0  0  0  0  0  0  0  0  # atno 17395 bound_to 11000

$$$$
