AV-unprocessed.smi:3056|AV-procd|sdf|11646|dock8
  -GOLD-   2272017 43D 1   1.00000     0.00000
 Structure written by MMmdl.
 48 49  0  0  0  0  0  0  0  0  2 V2000
  152.2486  144.6692  160.2580 C   0  0  0  0  0  0  0  0  0  0  0  0
  152.7959  143.2819  160.0869 C   0  0  0  0  0  0  0  0  0  0  0  0
  152.8116  142.4875  158.9060 C   0  0  0  0  0  0  0  0  0  0  0  0
  153.3521  141.2953  159.0965 N   0  0  0  0  0  0  0  0  0  0  0  0
  153.7154  141.2883  160.3975 N   0  0  0  0  0  0  0  0  0  0  0  0
  154.3113  140.0869  160.9720 C   0  0  1  0  0  0  0  0  0  0  0  0
  154.6134  140.3152  162.4658 C   0  0  0  0  0  0  0  0  0  0  0  0
  153.4169  138.8479  160.7006 C   0  0  2  0  0  0  0  0  0  0  0  0
  153.9617  137.5695  161.3663 C   0  0  0  0  0  0  0  0  0  0  0  0
  153.2854  138.6316  159.2375 N   0  3  0  0  0  0  0  0  0  0  0  0
  152.3500  137.5606  158.8198 C   0  0  0  0  0  0  0  0  0  0  0  0
  152.5671  137.0868  157.3720 C   0  0  0  0  0  0  0  0  0  0  0  0
  153.1408  136.0145  157.1776 O   0  0  0  0  0  0  0  0  0  0  0  0
  152.1177  137.8579  156.3531 N   0  0  0  0  0  0  0  0  0  0  0  0
  152.3082  137.5973  154.9224 C   0  0  0  0  0  0  0  0  0  0  0  0
  153.1466  138.7419  154.3265 C   0  0  0  0  0  0  0  0  0  0  0  0
  152.4960  139.9878  154.5620 O   0  0  0  0  0  0  0  0  0  0  0  0
  152.2874  140.2626  155.9459 C   0  0  1  0  0  0  0  0  0  0  0  0
  151.6136  141.6337  156.0666 C   0  0  0  0  0  0  0  0  0  0  0  0
  151.4306  139.1366  156.5583 C   0  0  0  0  0  0  0  0  0  0  0  0
  153.3824  142.4753  161.0200 C   0  0  0  0  0  0  0  0  0  0  0  0
  152.1971  145.2039  159.3094 H   0  0  0  0  0  0  0  0  0  0  0  0
  152.8647  145.2667  160.9301 H   0  0  0  0  0  0  0  0  0  0  0  0
  151.2408  144.6532  160.6733 H   0  0  0  0  0  0  0  0  0  0  0  0
  152.4393  142.7378  157.9235 H   0  0  0  0  0  0  0  0  0  0  0  0
  155.2711  139.9294  160.4755 H   0  0  0  0  0  0  0  0  0  0  0  0
  155.2306  139.5174  162.8780 H   0  0  0  0  0  0  0  0  0  0  0  0
  153.6993  140.3692  163.0578 H   0  0  0  0  0  0  0  0  0  0  0  0
  155.1616  141.2462  162.6150 H   0  0  0  0  0  0  0  0  0  0  0  0
  152.4272  139.0541  161.1112 H   0  0  0  0  0  0  0  0  0  0  0  0
  153.9723  137.6549  162.4525 H   0  0  0  0  0  0  0  0  0  0  0  0
  154.9793  137.3554  161.0384 H   0  0  0  0  0  0  0  0  0  0  0  0
  153.3507  136.6982  161.1319 H   0  0  0  0  0  0  0  0  0  0  0  0
  152.9582  139.4929  158.8216 H   0  0  0  0  0  0  0  0  0  0  0  0
  152.5139  136.7083  159.4797 H   0  0  0  0  0  0  0  0  0  0  0  0
  151.3208  137.8886  158.9627 H   0  0  0  0  0  0  0  0  0  0  0  0
  152.7949  136.6483  154.7052 H   0  0  0  0  0  0  0  0  0  0  0  0
  151.3339  137.5536  154.4336 H   0  0  0  0  0  0  0  0  0  0  0  0
  154.1485  138.7570  154.7588 H   0  0  0  0  0  0  0  0  0  0  0  0
  153.2644  138.6039  153.2516 H   0  0  0  0  0  0  0  0  0  0  0  0
  153.2550  140.3039  156.4495 H   0  0  0  0  0  0  0  0  0  0  0  0
  151.4477  141.8987  157.1112 H   0  0  0  0  0  0  0  0  0  0  0  0
  150.6480  141.6454  155.5601 H   0  0  0  0  0  0  0  0  0  0  0  0
  152.2327  142.4127  155.6214 H   0  0  0  0  0  0  0  0  0  0  0  0
  150.4526  139.0983  156.0761 H   0  0  0  0  0  0  0  0  0  0  0  0
  151.2389  139.3503  157.6107 H   0  0  0  0  0  0  0  0  0  0  0  0
  153.5777  142.6454  162.0686 H   0  0  0  0  0  0  0  0  0  0  0  0
  154.2038  138.4303  158.8687 H   0  0  0  0  0  0  0  0  0  0  0  0
  1  2  1  0  0  0  0
  1 22  1  0  0  0  0
  1 23  1  0  0  0  0
  1 24  1  0  0  0  0
  2 21  2  0  0  0  0
  2  3  1  0  0  0  0
  3  4  2  0  0  0  0
  3 25  1  0  0  0  0
  4  5  1  0  0  0  0
  5  6  1  0  0  0  0
  5 21  1  0  0  0  0
  6  7  1  0  0  0  0
  6  8  1  0  0  0  0
  6 26  1  0  0  0  0
  7 27  1  0  0  0  0
  7 28  1  0  0  0  0
  7 29  1  0  0  0  0
  8  9  1  0  0  0  0
  8 10  1  0  0  0  0
  8 30  1  0  0  0  0
  9 31  1  0  0  0  0
  9 32  1  0  0  0  0
  9 33  1  0  0  0  0
 10 11  1  0  0  0  0
 10 34  1  0  0  0  0
 10 48  1  0  0  0  0
 11 12  1  0  0  0  0
 11 35  1  0  0  0  0
 11 36  1  0  0  0  0
 12 13  2  0  0  0  0
 12 14  1  0  0  0  0
 14 20  1  0  0  0  0
 14 15  1  0  0  0  0
 15 16  1  0  0  0  0
 15 37  1  0  0  0  0
 15 38  1  0  0  0  0
 16 17  1  0  0  0  0
 16 39  1  0  0  0  0
 16 40  1  0  0  0  0
 17 18  1  0  0  0  0
 18 19  1  0  0  0  0
 18 20  1  0  0  0  0
 18 41  1  0  0  0  0
 19 42  1  0  0  0  0
 19 43  1  0  0  0  0
 19 44  1  0  0  0  0
 20 45  1  0  0  0  0
 20 46  1  0  0  0  0
 21 47  1  0  0  0  0
M  CHG  1  10   1
M  END
> <s_m_source_file>
AV-unprocessed.smi

> <i_m_source_file_index>
3056

> <i_lp_mmshare_version>
43012

> <i_f3d_flags>
0

> <s_epik_input>
W0NIM11jMVtjSF1ubihbY0hdMSlbQ0BIXShbQ0gzXSlbQ0BIXShbQ0gzXSlbTkhdW0NIMl1DKD1PKU4yW0NIMl1bQ0gyXU9bQ0BASF0oW0NIM10pW0NIMl0y

> <s_epik_cmdline>
J2VwaWtfcHl0aG9uJywgJy1waCcsICc3LjAnLCAnLXRuJywgJzgnLCAnLW1hJywgJzIwMCcsICctbWV0YWxfYmluZGluZycsICctaW1hZScsICc8aW5maWxlLm1hZT4nLCAnLW9tYWUnLCAnPG91dGZpbGUubWFlPic=

> <r_lp_tautomer_probability>
1

> <r_epik_Ionization_Penalty>
0.233715

> <r_epik_Ionization_Penalty_Charging>
0.233698

> <r_epik_Ionization_Penalty_Neutral>
1.68157e-05

> <r_epik_State_Penalty>
0.225221

> <r_epik_Charging_Adjusted_Penalty>
0.458919

> <i_epik_Tot_Q>
1

> <i_epik_Tot_abs_Q>
1

> <r_epik_Metal_State_Penalty>
0.225535

> <b_epik_Metal_Only>
0

> <s_lp_Force_Field>
OPLS_2005

> <r_lp_Energy>
27.0437

> <b_lp_Chiralities_Consistent>
1

> <s_lp_Variant>
AV-unprocessed.smi:3056-2

> <Gold.Version>
5.8.1

> <Gold.Id.Protein>
6NUR|6NUR_protein|mol2

> <Gold.PLP.Fitness>
47.1776

> <Gold.PLP.PLP>
-41.8213

> <Gold.PLP.part.hbond>
-1.9213

> <Gold.PLP.part.metal>
0.0000

> <Gold.PLP.part.buried>
-4.4873

> <Gold.PLP.part.nonpolar>
-35.1055

> <Gold.PLP.part.repulsive>
0.1454

> <Gold.PLP.ligand.clash>
0.0000

> <Gold.PLP.ligand.torsion>
0.3730

> <Gold.PLP.Chemscore.Hbond>
1.9913

> <Gold.PLP.Chemscore.CHOScore>
0.0000

> <Gold.PLP.Chemscore.Metal>
0.0000

> <Gold.Chemscore.Hbonds>
donor molecule, donor type, donor heavy atom, donor atom, acceptor molecule, acceptor atom, score
      P1  H  7989  7998       L1    17  0.51
      P1  H 10752 10763       L1    13  1.00

> <Gold.PLP.Chemscore.Internal.Correction>
0.1286

> <Gold.Rescore>
     Score         DG    S(hbond)    S(metal)    S(lipo)     H(rot)  DE(clash)    DE(int)     intcor
     19.88     -20.42       1.86        0.00     112.65       1.74       0.11       0.44       ----

> <Gold.Chemscore.Fitness>
19.8762

> <Gold.Chemscore.DG>
-20.4240

> <Gold.Chemscore.ZeroCoef>
-5.4800

> <Gold.Chemscore.Hbond>
1.8583

> <Gold.Chemscore.Metal>
0.0000

> <Gold.Chemscore.Lipo>
112.6474

> <Gold.Chemscore.Internal_Hbond>
0.0000

> <Gold.Chemscore.DEClash>
0.1080

> <Gold.Chemscore.DEInternal>
0.4398

> <Gold.Chemscore.Rot>
1.7354

> <Gold.Chemscore.Internal.Correction>
   9.000000E+99

> <Gold.Chemscore.Hbonds>
donor molecule, donor type, donor heavy atom, donor atom, acceptor molecule, acceptor atom, score
      P1  H  7989  7998       L1    17  0.49
      P1  H 10752 10763       L1    13  0.96

> <Gold.Chemscore.Hbond.Weighted>
-6.2069

> <Gold.Chemscore.Metal.Weighted>
-0.0000

> <Gold.Chemscore.Lipo.Weighted>
-13.1797

> <Gold.Chemscore.Internal_Hbond.Weighted>
0.0000

> <Gold.Chemscore.DEClash.Weighted>
0.1080

> <Gold.Chemscore.DEInternal.Weighted>
0.4398

> <Gold.Chemscore.Rot.Weighted>
4.4426

> <Gold.Chemscore.Internal.Correction.Weighted>
   9.000000E+99

> <Gold.Protein.RotatedTorsions>
[ 6907 6896 6895 6894 ] final  177.28 input  -60.11 | X-H torsion
[ 7974 7965 7964 7962 ] final  -84.75 input  175.53 | X-H torsion
[ 8008 7997 7996 7995 ] final   22.50 input   59.86 | X-H torsion
[ 10167 10162 10161 10158 ] final -102.53 input  -65.29 | X-H torsion
[ 10718 10713 10712 10709 ] final  -20.62 input   66.30 | X-H torsion
[ 10763 10752 10751 10750 ] final  121.23 input  -60.55 | X-H torsion
[ 11005 11000 10999 10996 ] final  171.53 input  -57.11 | X-H torsion

> <Gold.Protein.ActiveResidues>
 VAL166  LYS551  ARG553  GLY616  TRP617  ASP618  TYR619  PRO620  LYS621  CYS622 
 ASP623  PHE694  ASN695  SER759  ASP760  ASP761  ALA762  ILE779  LEU786  VAL792 
 PHE793  MET794  SER795  GLU796  ALA797  LYS798  CYS799  TRP800  GLU811  SER814 

> <Gold.Protein.RotatedAtoms>
  151.7066  133.3311  159.3279 H   0  0  0  0  0  0  0  0  0  0  0  0  # atno 6907 bound_to 6896
  150.7712  134.6569  159.6328 H   0  0  0  0  0  0  0  0  0  0  0  0  # atno 6908 bound_to 6896
  152.3737  134.6698  160.0219 H   0  0  0  0  0  0  0  0  0  0  0  0  # atno 6909 bound_to 6896
  145.5025  140.9546  143.1752 H   0  0  0  0  0  0  0  0  0  0  0  0  # atno 7974 bound_to 7965
  154.9667  140.3085  155.5006 H   0  0  0  0  0  0  0  0  0  0  0  0  # atno 8008 bound_to 7997
  156.2971  140.2291  156.4695 H   0  0  0  0  0  0  0  0  0  0  0  0  # atno 8009 bound_to 7997
  154.7914  140.0439  157.1192 H   0  0  0  0  0  0  0  0  0  0  0  0  # atno 8010 bound_to 7997
  140.2296  143.3616  152.0898 H   0  0  0  0  0  0  0  0  0  0  0  0  # atno 10167 bound_to 10162
  156.5294  130.4651  149.6555 H   0  0  0  0  0  0  0  0  0  0  0  0  # atno 10718 bound_to 10713
  153.6109  135.3430  155.2978 H   0  0  0  0  0  0  0  0  0  0  0  0  # atno 10763 bound_to 10752
  154.8619  135.4250  154.2311 H   0  0  0  0  0  0  0  0  0  0  0  0  # atno 10764 bound_to 10752
  153.3161  135.7035  153.7144 H   0  0  0  0  0  0  0  0  0  0  0  0  # atno 10765 bound_to 10752
  140.3200  134.7445  157.4057 H   0  0  0  0  0  0  0  0  0  0  0  0  # atno 11005 bound_to 11000
  144.7772  139.6604  143.7170 LP  0  0  0  0  0  0  0  0  0  0  0  0  # atno 17320 bound_to 7965
  146.2217  139.5648  142.9614 LP  0  0  0  0  0  0  0  0  0  0  0  0  # atno 17321 bound_to 7965
  139.5114  144.6901  151.5783 LP  0  0  0  0  0  0  0  0  0  0  0  0  # atno 17342 bound_to 10162
  140.6194  143.9286  150.6514 LP  0  0  0  0  0  0  0  0  0  0  0  0  # atno 17343 bound_to 10162
  156.3074  130.7210  151.2095 LP  0  0  0  0  0  0  0  0  0  0  0  0  # atno 17370 bound_to 10713
  157.7424  131.0490  150.5025 LP  0  0  0  0  0  0  0  0  0  0  0  0  # atno 17371 bound_to 10713
  140.0950  134.5550  155.8407 LP  0  0  0  0  0  0  0  0  0  0  0  0  # atno 17394 bound_to 11000
  141.2088  133.6678  156.6400 LP  0  0  0  0  0  0  0  0  0  0  0  0  # atno 17395 bound_to 11000

$$$$
