AV-unprocessed.smi:2464|AV-procd|sdf|9721|dock5
  -GOLD-   2272013363D 1   1.00000     0.00000
 Structure written by MMmdl.
 32 33  0  0  0  0  0  0  0  0  3 V2000
  152.5318  142.1834  158.5779 C   0  0  0  0  0  0  0  0  0  0  0  0
  151.5567  143.3547  158.4197 C   0  0  0  0  0  0  0  0  0  0  0  0
  150.6944  143.1323  157.2570 N   0  0  0  0  0  0  0  0  0  0  0  0
  150.1880  141.9557  156.8555 C   0  0  0  0  0  0  0  0  0  0  0  0
  150.3898  140.8903  157.4388 O   0  0  0  0  0  0  0  0  0  0  0  0
  149.4595  142.0985  155.7357 N   0  0  0  0  0  0  0  0  0  0  0  0
  148.7914  141.0876  154.9881 C   0  0  0  0  0  0  0  0  0  0  0  0
  147.5096  141.3053  154.4267 C   0  0  0  0  0  0  0  0  0  0  0  0
  146.9222  140.2889  153.6510 C   0  0  0  0  0  0  0  0  0  0  0  0
  147.5245  139.1107  153.3972 N   0  0  0  0  0  0  0  0  0  0  0  0
  148.7523  138.9077  153.9179 C   0  0  0  0  0  0  0  0  0  0  0  0
  149.4383  139.8499  154.7189 C   0  0  0  0  0  0  0  0  0  0  0  0
  150.7785  139.5154  155.2375 N   0  3  0  0  0  0  0  0  0  0  0  0
  151.6652  140.3605  155.1711 O   0  0  0  0  0  0  0  0  0  0  0  0
  150.9327  138.4054  155.7353 O   0  5  0  0  0  0  0  0  0  0  0  0
  150.7620  143.8316  159.6547 C   0  0  0  0  0  0  0  0  0  0  0  0
  151.8511  144.8831  159.8814 C   0  0  0  0  0  0  0  0  0  0  0  0
  152.1453  144.7779  158.3820 C   0  0  0  0  0  0  0  0  0  0  0  0
  153.2609  142.3721  159.3661 H   0  0  0  0  0  0  0  0  0  0  0  0
  153.0899  142.0023  157.6586 H   0  0  0  0  0  0  0  0  0  0  0  0
  152.0137  141.2595  158.8359 H   0  0  0  0  0  0  0  0  0  0  0  0
  150.4711  143.9489  156.7069 H   0  0  0  0  0  0  0  0  0  0  0  0
  149.4715  143.0154  155.3136 H   0  0  0  0  0  0  0  0  0  0  0  0
  146.9782  142.2352  154.5618 H   0  0  0  0  0  0  0  0  0  0  0  0
  145.9460  140.4324  153.2122 H   0  0  0  0  0  0  0  0  0  0  0  0
  149.1991  137.9508  153.6905 H   0  0  0  0  0  0  0  0  0  0  0  0
  149.7959  144.2805  159.4140 H   0  0  0  0  0  0  0  0  0  0  0  0
  150.6704  143.0941  160.4528 H   0  0  0  0  0  0  0  0  0  0  0  0
  151.4865  145.8567  160.2094 H   0  0  0  0  0  0  0  0  0  0  0  0
  152.6696  144.5228  160.5066 H   0  0  0  0  0  0  0  0  0  0  0  0
  153.2036  144.8309  158.1244 H   0  0  0  0  0  0  0  0  0  0  0  0
  151.5561  145.4842  157.7933 H   0  0  0  0  0  0  0  0  0  0  0  0
  1  2  1  0  0  0  0
  1 19  1  0  0  0  0
  1 20  1  0  0  0  0
  1 21  1  0  0  0  0
  2 18  1  0  0  0  0
  2  3  1  0  0  0  0
  2 16  1  0  0  0  0
  3  4  1  0  0  0  0
  3 22  1  0  0  0  0
  4  5  2  0  0  0  0
  4  6  1  0  0  0  0
  6  7  1  0  0  0  0
  6 23  1  0  0  0  0
  7 12  1  0  0  0  0
  7  8  2  0  0  0  0
  8  9  1  0  0  0  0
  8 24  1  0  0  0  0
  9 10  2  0  0  0  0
  9 25  1  0  0  0  0
 10 11  1  0  0  0  0
 11 12  2  0  0  0  0
 11 26  1  0  0  0  0
 12 13  1  0  0  0  0
 13 14  2  0  0  0  0
 13 15  1  0  0  0  0
 16 17  1  0  0  0  0
 16 27  1  0  0  0  0
 16 28  1  0  0  0  0
 17 18  1  0  0  0  0
 17 29  1  0  0  0  0
 17 30  1  0  0  0  0
 18 31  1  0  0  0  0
 18 32  1  0  0  0  0
M  CHG  1  13   1
M  CHG  1  15  -1
M  END
> <s_m_source_file>
AV-unprocessed.smi

> <i_m_source_file_index>
2464

> <i_lp_mmshare_version>
43012

> <i_f3d_flags>
0

> <s_epik_input>
W0NIMl0xW0NIMl1bQ0gyXUMxKFtDSDNdKVtOSF1DKD1PKVtOSF1jMltjSF1bY0hdbltjSF1jMltOK10oPU8pW08tXQ==

> <s_epik_cmdline>
J2VwaWtfcHl0aG9uJywgJy1waCcsICc3LjAnLCAnLXRuJywgJzgnLCAnLW1hJywgJzIwMCcsICctbWV0YWxfYmluZGluZycsICctaW1hZScsICc8aW5maWxlLm1hZT4nLCAnLW9tYWUnLCAnPG91dGZpbGUubWFlPic=

> <r_lp_tautomer_probability>
1

> <r_epik_Ionization_Penalty>
0.000161487

> <r_epik_Ionization_Penalty_Charging>
0

> <r_epik_Ionization_Penalty_Neutral>
0.000161487

> <r_epik_State_Penalty>
-0

> <r_epik_Charging_Adjusted_Penalty>
0

> <i_epik_Tot_Q>
0

> <i_epik_Tot_abs_Q>
2

> <r_epik_Metal_State_Penalty>
-0

> <b_epik_Metal_Only>
0

> <s_lp_Force_Field>
OPLS_2005

> <r_lp_Energy>
25.6435

> <b_lp_Chiralities_Consistent>
1

> <s_lp_Variant>
AV-unprocessed.smi:2464-1

> <Gold.Version>
5.8.1

> <Gold.Id.Protein>
6NUR|6NUR_protein|mol2

> <Gold.PLP.Fitness>
44.9994

> <Gold.PLP.PLP>
-34.3474

> <Gold.PLP.part.hbond>
-3.0000

> <Gold.PLP.part.metal>
0.0000

> <Gold.PLP.part.buried>
-5.3131

> <Gold.PLP.part.nonpolar>
-28.0843

> <Gold.PLP.part.repulsive>
0.4212

> <Gold.PLP.ligand.clash>
0.0307

> <Gold.PLP.ligand.torsion>
1.4723

> <Gold.PLP.Chemscore.Hbond>
2.4480

> <Gold.PLP.Chemscore.CHOScore>
1.9940

> <Gold.PLP.Chemscore.Metal>
0.0000

> <Gold.Chemscore.Hbonds>
donor molecule, donor type, donor heavy atom, donor atom, acceptor molecule, acceptor atom, score
      L1  H     3    22       P1  8028  0.79
      L1  H     6    23       P1  8028  0.80
      P1  H  7989  7998       L1    14  0.86
      L1  C     9    25       P1 10175  1.00
      L1  C    11    26       P1  7948  1.00

> <Gold.PLP.Chemscore.Internal.Correction>
0.3012

> <Gold.Rescore>
     Score         DG    S(hbond)    S(metal)    S(lipo)     H(rot)  DE(clash)    DE(int)     intcor
     13.16     -21.92       2.81        0.00      82.14       1.00       0.00       8.76       ----

> <Gold.Chemscore.Fitness>
13.1592

> <Gold.Chemscore.DG>
-21.9211

> <Gold.Chemscore.ZeroCoef>
-5.4800

> <Gold.Chemscore.Hbond>
2.8114

> <Gold.Chemscore.Metal>
0.0000

> <Gold.Chemscore.Lipo>
82.1440

> <Gold.Chemscore.Internal_Hbond>
0.0000

> <Gold.Chemscore.DEClash>
0.0019

> <Gold.Chemscore.DEInternal>
8.7599

> <Gold.Chemscore.Rot>
1.0000

> <Gold.Chemscore.Internal.Correction>
   9.000000E+99

> <Gold.Chemscore.Hbonds>
donor molecule, donor type, donor heavy atom, donor atom, acceptor molecule, acceptor atom, score
      L1  H     3    22       P1  8028  0.73
      L1  H     6    23       P1  8028  0.80
      P1  H  7989  7998       L1    14  0.42

> <Gold.Chemscore.Hbond.Weighted>
-9.3902

> <Gold.Chemscore.Metal.Weighted>
-0.0000

> <Gold.Chemscore.Lipo.Weighted>
-9.6109

> <Gold.Chemscore.Internal_Hbond.Weighted>
0.0000

> <Gold.Chemscore.DEClash.Weighted>
0.0019

> <Gold.Chemscore.DEInternal.Weighted>
8.7599

> <Gold.Chemscore.Rot.Weighted>
2.5600

> <Gold.Chemscore.Internal.Correction.Weighted>
   9.000000E+99

> <Gold.Protein.RotatedTorsions>
[ 6907 6896 6895 6894 ] final  -57.95 input  -60.11 | X-H torsion
[ 7974 7965 7964 7962 ] final   19.97 input  175.53 | X-H torsion
[ 8008 7997 7996 7995 ] final   55.73 input   59.86 | X-H torsion
[ 10167 10162 10161 10158 ] final   22.33 input  -65.29 | X-H torsion
[ 10718 10713 10712 10709 ] final   59.34 input   66.30 | X-H torsion
[ 10763 10752 10751 10750 ] final  -50.54 input  -60.55 | X-H torsion
[ 11005 11000 10999 10996 ] final  130.86 input  -57.11 | X-H torsion

> <Gold.Protein.ActiveResidues>
 VAL166  LYS551  ARG553  GLY616  TRP617  ASP618  TYR619  PRO620  LYS621  CYS622 
 ASP623  PHE694  ASN695  SER759  ASP760  ASP761  ALA762  ILE779  LEU786  VAL792 
 PHE793  MET794  SER795  GLU796  ALA797  LYS798  CYS799  TRP800  GLU811  SER814 

> <Gold.Protein.RotatedAtoms>
  150.8045  134.7161  159.6630 H   0  0  0  0  0  0  0  0  0  0  0  0  # atno 6907 bound_to 6896
  152.4164  134.6031  160.0015 H   0  0  0  0  0  0  0  0  0  0  0  0  # atno 6908 bound_to 6896
  151.6259  133.3298  159.3134 H   0  0  0  0  0  0  0  0  0  0  0  0  # atno 6909 bound_to 6896
  146.2129  139.8237  142.8674 H   0  0  0  0  0  0  0  0  0  0  0  0  # atno 7974 bound_to 7965
  155.5058  140.3475  155.4379 H   0  0  0  0  0  0  0  0  0  0  0  0  # atno 8008 bound_to 7997
  156.0883  140.1404  156.9653 H   0  0  0  0  0  0  0  0  0  0  0  0  # atno 8009 bound_to 7997
  154.4619  140.0931  156.6894 H   0  0  0  0  0  0  0  0  0  0  0  0  # atno 8010 bound_to 7997
  140.5356  143.9765  150.6490 H   0  0  0  0  0  0  0  0  0  0  0  0  # atno 10167 bound_to 10162
  157.5668  130.8877  149.9201 H   0  0  0  0  0  0  0  0  0  0  0  0  # atno 10718 bound_to 10713
  154.1120  135.6547  153.4887 H   0  0  0  0  0  0  0  0  0  0  0  0  # atno 10763 bound_to 10752
  153.0253  135.5250  154.7182 H   0  0  0  0  0  0  0  0  0  0  0  0  # atno 10764 bound_to 10752
  154.6365  135.2983  155.0124 H   0  0  0  0  0  0  0  0  0  0  0  0  # atno 10765 bound_to 10752
  139.9696  134.9581  156.9354 H   0  0  0  0  0  0  0  0  0  0  0  0  # atno 11005 bound_to 11000
  145.3070  141.0209  143.3576 LP  0  0  0  0  0  0  0  0  0  0  0  0  # atno 17320 bound_to 7965
  144.8964  139.4707  143.6653 LP  0  0  0  0  0  0  0  0  0  0  0  0  # atno 17321 bound_to 7965
  140.3152  143.3172  152.0839 LP  0  0  0  0  0  0  0  0  0  0  0  0  # atno 17342 bound_to 10162
  139.4970  144.6610  151.6465 LP  0  0  0  0  0  0  0  0  0  0  0  0  # atno 17343 bound_to 10162
  156.0716  130.3684  150.0764 LP  0  0  0  0  0  0  0  0  0  0  0  0  # atno 17370 bound_to 10713
  156.8922  130.9592  151.3587 LP  0  0  0  0  0  0  0  0  0  0  0  0  # atno 17371 bound_to 10713
  140.5322  134.0803  155.7318 LP  0  0  0  0  0  0  0  0  0  0  0  0  # atno 17394 bound_to 11000
  141.1376  133.9195  157.2399 LP  0  0  0  0  0  0  0  0  0  0  0  0  # atno 17395 bound_to 11000

$$$$
