AV-unprocessed.smi:640|AV-procd|sdf|3150|dock9
  -GOLD-   22720 0 73D 1   1.00000     0.00000
 Structure written by MMmdl.
 38 40  0  0  0  0  0  0  0  0  3 V2000
  150.3144  141.1525  158.4854 O   0  0  0  0  0  0  0  0  0  0  0  0
  151.0736  141.9753  157.9721 C   0  0  0  0  0  0  0  0  0  0  0  0
  151.0189  142.2509  156.4632 C   0  0  0  0  0  0  0  0  0  0  0  0
  150.5635  141.0865  155.6856 N   0  0  0  0  0  0  0  0  0  0  0  0
  149.3350  141.2077  155.0061 C   0  0  0  0  0  0  0  0  0  0  0  0
  148.8286  140.2071  154.2590 C   0  0  0  0  0  0  0  0  0  0  0  0
  147.5693  140.3507  153.5619 N   0  3  0  0  0  0  0  0  0  0  0  0
  146.9497  141.4034  153.6768 O   0  0  0  0  0  0  0  0  0  0  0  0
  147.1580  139.4187  152.8772 O   0  5  0  0  0  0  0  0  0  0  0  0
  149.5925  138.9774  154.1721 C   0  0  0  0  0  0  0  0  0  0  0  0
  150.7700  138.8571  154.8162 C   0  0  0  0  0  0  0  0  0  0  0  0
  151.3221  139.9496  155.6236 C   0  0  0  0  0  0  0  0  0  0  0  0
  152.4009  139.8487  156.2084 O   0  0  0  0  0  0  0  0  0  0  0  0
  151.9983  142.6593  158.6635 N   0  0  0  0  0  0  0  0  0  0  0  0
  152.2417  142.5498  160.0980 C   0  0  0  0  0  0  0  0  0  0  0  0
  152.0234  143.8745  160.8057 C   0  0  0  0  0  0  0  0  0  0  0  0
  150.6984  144.5963  160.7334 C   0  0  0  0  0  0  0  0  0  0  0  0
  151.9103  145.1638  160.0283 C   0  0  0  0  0  0  0  0  0  0  0  0
  153.6257  142.0050  160.4080 C   0  0  0  0  0  0  0  0  0  0  0  0
  153.8772  140.5205  160.5256 C   0  0  0  0  0  0  0  0  0  0  0  0
  153.9500  141.3995  161.7534 C   0  0  0  0  0  0  0  0  0  0  0  0
  150.3745  143.1102  156.2673 H   0  0  0  0  0  0  0  0  0  0  0  0
  152.0136  142.5624  156.1412 H   0  0  0  0  0  0  0  0  0  0  0  0
  148.8479  142.1644  155.1283 H   0  0  0  0  0  0  0  0  0  0  0  0
  149.2271  138.1446  153.5895 H   0  0  0  0  0  0  0  0  0  0  0  0
  151.3230  137.9325  154.7370 H   0  0  0  0  0  0  0  0  0  0  0  0
  152.5807  143.3090  158.1552 H   0  0  0  0  0  0  0  0  0  0  0  0
  151.5151  141.8503  160.5167 H   0  0  0  0  0  0  0  0  0  0  0  0
  152.5439  143.9461  161.7592 H   0  0  0  0  0  0  0  0  0  0  0  0
  149.9152  144.1679  160.1110 H   0  0  0  0  0  0  0  0  0  0  0  0
  150.3541  145.1047  161.6316 H   0  0  0  0  0  0  0  0  0  0  0  0
  152.3729  146.0504  160.4567 H   0  0  0  0  0  0  0  0  0  0  0  0
  151.9340  145.1039  158.9419 H   0  0  0  0  0  0  0  0  0  0  0  0
  154.4276  142.5818  159.9504 H   0  0  0  0  0  0  0  0  0  0  0  0
  153.0236  139.8512  160.4394 H   0  0  0  0  0  0  0  0  0  0  0  0
  154.8126  140.1376  160.1228 H   0  0  0  0  0  0  0  0  0  0  0  0
  154.9345  141.6011  162.1706 H   0  0  0  0  0  0  0  0  0  0  0  0
  153.1455  141.3061  162.4801 H   0  0  0  0  0  0  0  0  0  0  0  0
  1  2  2  0  0  0  0
  2  3  1  0  0  0  0
  2 14  1  0  0  0  0
  3  4  1  0  0  0  0
  3 22  1  0  0  0  0
  3 23  1  0  0  0  0
  4 12  1  0  0  0  0
  4  5  1  0  0  0  0
  5  6  2  0  0  0  0
  5 24  1  0  0  0  0
  6  7  1  0  0  0  0
  6 10  1  0  0  0  0
  7  8  2  0  0  0  0
  7  9  1  0  0  0  0
 10 11  2  0  0  0  0
 10 25  1  0  0  0  0
 11 12  1  0  0  0  0
 11 26  1  0  0  0  0
 12 13  2  0  0  0  0
 14 15  1  0  0  0  0
 14 27  1  0  0  0  0
 15 16  1  0  0  0  0
 15 19  1  0  0  0  0
 15 28  1  0  0  0  0
 16 18  1  0  0  0  0
 16 17  1  0  0  0  0
 16 29  1  0  0  0  0
 17 18  1  0  0  0  0
 17 30  1  0  0  0  0
 17 31  1  0  0  0  0
 18 32  1  0  0  0  0
 18 33  1  0  0  0  0
 19 21  1  0  0  0  0
 19 20  1  0  0  0  0
 19 34  1  0  0  0  0
 20 21  1  0  0  0  0
 20 35  1  0  0  0  0
 20 36  1  0  0  0  0
 21 37  1  0  0  0  0
 21 38  1  0  0  0  0
M  CHG  1   7   1
M  CHG  1   9  -1
M  END
> <s_m_source_file>
AV-unprocessed.smi

> <i_m_source_file_index>
640

> <i_lp_mmshare_version>
43012

> <i_f3d_flags>
0

> <s_epik_input>
W0NIMl0xW0NIMl1bQ0hdMVtDSF0oW0NIXTJbQ0gyXVtDSDJdMilbTkhdQyg9TylbQ0gyXW4zW2NIXWMoW04rXSg9TylbTy1dKVtjSF1bY0hdYzM9Tw==

> <s_epik_cmdline>
J2VwaWtfcHl0aG9uJywgJy1waCcsICc3LjAnLCAnLXRuJywgJzgnLCAnLW1hJywgJzIwMCcsICctbWV0YWxfYmluZGluZycsICctaW1hZScsICc8aW5maWxlLm1hZT4nLCAnLW9tYWUnLCAnPG91dGZpbGUubWFlPic=

> <r_lp_tautomer_probability>
1

> <r_epik_Ionization_Penalty>
2.04963e-08

> <r_epik_Ionization_Penalty_Charging>
8.36809e-11

> <r_epik_Ionization_Penalty_Neutral>
2.04126e-08

> <r_epik_State_Penalty>
-0

> <r_epik_Charging_Adjusted_Penalty>
8.36809e-11

> <i_epik_Tot_Q>
0

> <i_epik_Tot_abs_Q>
2

> <r_epik_Metal_State_Penalty>
-0

> <b_epik_Metal_Only>
0

> <s_lp_Force_Field>
OPLS_2005

> <r_lp_Energy>
35.0527

> <b_lp_Chiralities_Consistent>
1

> <s_lp_Variant>
AV-unprocessed.smi:640-1

> <Gold.Version>
5.8.1

> <Gold.Id.Protein>
6NUR|6NUR_protein|mol2

> <Gold.PLP.Fitness>
53.0867

> <Gold.PLP.PLP>
-48.2469

> <Gold.PLP.part.hbond>
-1.0000

> <Gold.PLP.part.metal>
0.0000

> <Gold.PLP.part.buried>
-3.4003

> <Gold.PLP.part.nonpolar>
-43.9688

> <Gold.PLP.part.repulsive>
0.6920

> <Gold.PLP.ligand.clash>
0.0000

> <Gold.PLP.ligand.torsion>
1.6473

> <Gold.PLP.Chemscore.Hbond>
1.0000

> <Gold.PLP.Chemscore.CHOScore>
0.9984

> <Gold.PLP.Chemscore.Metal>
0.0000

> <Gold.Chemscore.Hbonds>
donor molecule, donor type, donor heavy atom, donor atom, acceptor molecule, acceptor atom, score
      P1  H  7997  8010       L1    13  1.00
      L1  C     5    24       P1  8028  0.83

> <Gold.PLP.Chemscore.Internal.Correction>
2.1392

> <Gold.Rescore>
     Score         DG    S(hbond)    S(metal)    S(lipo)     H(rot)  DE(clash)    DE(int)     intcor
     14.99     -16.85       1.00        0.00     111.02       1.94       0.02       1.83       ----

> <Gold.Chemscore.Fitness>
14.9913

> <Gold.Chemscore.DG>
-16.8482

> <Gold.Chemscore.ZeroCoef>
-5.4800

> <Gold.Chemscore.Hbond>
1.0000

> <Gold.Chemscore.Metal>
0.0000

> <Gold.Chemscore.Lipo>
111.0221

> <Gold.Chemscore.Internal_Hbond>
0.0000

> <Gold.Chemscore.DEClash>
0.0239

> <Gold.Chemscore.DEInternal>
1.8331

> <Gold.Chemscore.Rot>
1.9380

> <Gold.Chemscore.Internal.Correction>
   9.000000E+99

> <Gold.Chemscore.Hbonds>
donor molecule, donor type, donor heavy atom, donor atom, acceptor molecule, acceptor atom, score
      P1  H  7997  8010       L1    13  0.97

> <Gold.Chemscore.Hbond.Weighted>
-3.3399

> <Gold.Chemscore.Metal.Weighted>
-0.0000

> <Gold.Chemscore.Lipo.Weighted>
-12.9896

> <Gold.Chemscore.Internal_Hbond.Weighted>
0.0000

> <Gold.Chemscore.DEClash.Weighted>
0.0239

> <Gold.Chemscore.DEInternal.Weighted>
1.8331

> <Gold.Chemscore.Rot.Weighted>
4.9613

> <Gold.Chemscore.Internal.Correction.Weighted>
   9.000000E+99

> <Gold.Protein.RotatedTorsions>
[ 6907 6896 6895 6894 ] final   33.95 input  -60.11 | X-H torsion
[ 7974 7965 7964 7962 ] final   98.41 input  175.53 | X-H torsion
[ 8008 7997 7996 7995 ] final   89.97 input   59.86 | X-H torsion
[ 10167 10162 10161 10158 ] final   -4.35 input  -65.29 | X-H torsion
[ 10718 10713 10712 10709 ] final -100.53 input   66.30 | X-H torsion
[ 10763 10752 10751 10750 ] final  -36.24 input  -60.55 | X-H torsion
[ 11005 11000 10999 10996 ] final -154.44 input  -57.11 | X-H torsion

> <Gold.Protein.ActiveResidues>
 VAL166  LYS551  ARG553  GLY616  TRP617  ASP618  TYR619  PRO620  LYS621  CYS622 
 ASP623  PHE694  ASN695  SER759  ASP760  ASP761  ALA762  ILE779  LEU786  VAL792 
 PHE793  MET794  SER795  GLU796  ALA797  LYS798  CYS799  TRP800  GLU811  SER814 

> <Gold.Protein.RotatedAtoms>
  152.0956  134.9377  160.0570 H   0  0  0  0  0  0  0  0  0  0  0  0  # atno 6907 bound_to 6896
  152.0612  133.4058  159.4427 H   0  0  0  0  0  0  0  0  0  0  0  0  # atno 6908 bound_to 6896
  150.6838  134.3118  159.4793 H   0  0  0  0  0  0  0  0  0  0  0  0  # atno 6909 bound_to 6896
  145.4125  139.2332  143.3240 H   0  0  0  0  0  0  0  0  0  0  0  0  # atno 7974 bound_to 7965
  156.0063  140.3355  155.6896 H   0  0  0  0  0  0  0  0  0  0  0  0  # atno 8008 bound_to 7997
  155.6220  140.0676  157.2693 H   0  0  0  0  0  0  0  0  0  0  0  0  # atno 8009 bound_to 7997
  154.4266  140.1775  156.1369 H   0  0  0  0  0  0  0  0  0  0  0  0  # atno 8010 bound_to 7997
  140.6924  143.6434  150.8415 H   0  0  0  0  0  0  0  0  0  0  0  0  # atno 10167 bound_to 10162
  156.0166  130.5332  150.6830 H   0  0  0  0  0  0  0  0  0  0  0  0  # atno 10718 bound_to 10713
  153.8765  135.6826  153.4770 H   0  0  0  0  0  0  0  0  0  0  0  0  # atno 10763 bound_to 10752
  153.1258  135.4719  154.9267 H   0  0  0  0  0  0  0  0  0  0  0  0  # atno 10764 bound_to 10752
  154.7689  135.3232  154.8181 H   0  0  0  0  0  0  0  0  0  0  0  0  # atno 10765 bound_to 10752
  140.6973  134.3976  157.5213 H   0  0  0  0  0  0  0  0  0  0  0  0  # atno 11005 bound_to 11000
  146.2698  140.4838  142.8819 LP  0  0  0  0  0  0  0  0  0  0  0  0  # atno 17320 bound_to 7965
  144.8299  140.6690  143.6297 LP  0  0  0  0  0  0  0  0  0  0  0  0  # atno 17321 bound_to 7965
  140.0148  143.5604  152.2824 LP  0  0  0  0  0  0  0  0  0  0  0  0  # atno 17342 bound_to 10162
  139.6341  144.7648  151.2474 LP  0  0  0  0  0  0  0  0  0  0  0  0  # atno 17343 bound_to 10162
  157.4528  131.0874  151.0828 LP  0  0  0  0  0  0  0  0  0  0  0  0  # atno 17370 bound_to 10713
  157.1338  130.6114  149.5536 LP  0  0  0  0  0  0  0  0  0  0  0  0  # atno 17371 bound_to 10713
  139.8906  134.8799  156.2359 LP  0  0  0  0  0  0  0  0  0  0  0  0  # atno 17394 bound_to 11000
  141.0193  133.7051  156.1241 LP  0  0  0  0  0  0  0  0  0  0  0  0  # atno 17395 bound_to 11000

$$$$
