AV-unprocessed.smi:2335|AV-procd|sdf|9326|dock2
  -GOLD-   2272012543D 1   1.00000     0.00000
 Structure written by MMmdl.
 41 42  0  0  0  0  0  0  0  0  2 V2000
  152.3872  143.9820  158.5290 C   0  0  0  0  0  0  0  0  0  0  0  0
  152.7287  142.6362  159.1776 C   0  0  0  0  0  0  0  0  0  0  0  0
  151.9453  141.5060  158.5981 C   0  0  0  0  0  0  0  0  0  0  0  0
  151.0935  141.6607  157.5810 N   0  0  0  0  0  0  0  0  0  0  0  0
  150.5126  140.4604  157.1985 N   0  0  0  0  0  0  0  0  0  0  0  0
  150.9347  139.4167  157.9263 C   0  0  0  0  0  0  0  0  0  0  0  0
  150.5004  138.1640  157.7121 N   0  5  0  0  0  0  0  0  0  0  0  0
  150.1538  137.3807  158.7583 C   0  0  0  0  0  0  0  0  0  0  0  0
  150.8317  137.1646  159.7652 O   0  0  0  0  0  0  0  0  0  0  0  0
  148.9494  136.8084  158.6243 N   0  0  0  0  0  0  0  0  0  0  0  0
  148.3191  135.8933  159.5743 C   0  0  1  0  0  0  0  0  0  0  0  0
  147.9769  136.5955  160.8733 C   0  0  0  0  0  0  0  0  0  0  0  0
  146.8537  135.7282  161.4529 C   0  0  0  0  0  0  0  0  0  0  0  0
  147.3996  134.5955  162.3392 C   0  0  0  0  0  0  0  0  0  0  0  0
  145.8057  136.5606  162.2074 C   0  0  0  0  0  0  0  0  0  0  0  0
  146.2243  135.1209  160.3258 O   0  0  0  0  0  0  0  0  0  0  0  0
  146.9446  135.3565  159.1156 C   0  0  0  0  0  0  0  0  0  0  0  0
  146.1085  136.3642  158.2994 C   0  0  0  0  0  0  0  0  0  0  0  0
  147.0568  134.0165  158.3712 C   0  0  0  0  0  0  0  0  0  0  0  0
  152.1252  139.8501  159.1526 S   0  0  0  0  0  0  0  0  0  0  0  0
  152.9764  144.7864  158.9695 H   0  0  0  0  0  0  0  0  0  0  0  0
  151.3333  144.2273  158.6632 H   0  0  0  0  0  0  0  0  0  0  0  0
  152.5931  143.9650  157.4583 H   0  0  0  0  0  0  0  0  0  0  0  0
  153.7909  142.4235  159.0538 H   0  0  0  0  0  0  0  0  0  0  0  0
  152.5424  142.6811  160.2514 H   0  0  0  0  0  0  0  0  0  0  0  0
  148.4323  137.0163  157.7828 H   0  0  0  0  0  0  0  0  0  0  0  0
  148.9911  135.0644  159.8054 H   0  0  0  0  0  0  0  0  0  0  0  0
  148.8334  136.6928  161.5410 H   0  0  0  0  0  0  0  0  0  0  0  0
  147.6091  137.6019  160.6659 H   0  0  0  0  0  0  0  0  0  0  0  0
  147.9182  134.9928  163.2123 H   0  0  0  0  0  0  0  0  0  0  0  0
  148.1027  133.9646  161.7949 H   0  0  0  0  0  0  0  0  0  0  0  0
  146.5941  133.9533  162.6964 H   0  0  0  0  0  0  0  0  0  0  0  0
  146.2476  137.0635  163.0679 H   0  0  0  0  0  0  0  0  0  0  0  0
  144.9911  135.9329  162.5700 H   0  0  0  0  0  0  0  0  0  0  0  0
  145.3684  137.3239  161.5629 H   0  0  0  0  0  0  0  0  0  0  0  0
  146.5617  136.5682  157.3286 H   0  0  0  0  0  0  0  0  0  0  0  0
  146.0002  137.3143  158.8229 H   0  0  0  0  0  0  0  0  0  0  0  0
  145.1058  135.9785  158.1140 H   0  0  0  0  0  0  0  0  0  0  0  0
  147.5821  134.1323  157.4231 H   0  0  0  0  0  0  0  0  0  0  0  0
  146.0714  133.6041  158.1530 H   0  0  0  0  0  0  0  0  0  0  0  0
  147.5973  133.2783  158.9640 H   0  0  0  0  0  0  0  0  0  0  0  0
  1  2  1  0  0  0  0
  1 21  1  0  0  0  0
  1 22  1  0  0  0  0
  1 23  1  0  0  0  0
  2  3  1  0  0  0  0
  2 24  1  0  0  0  0
  2 25  1  0  0  0  0
  3 20  1  0  0  0  0
  3  4  2  0  0  0  0
  4  5  1  0  0  0  0
  5  6  2  0  0  0  0
  6  7  1  0  0  0  0
  6 20  1  0  0  0  0
  7  8  1  0  0  0  0
  8  9  2  0  0  0  0
  8 10  1  0  0  0  0
 10 11  1  0  0  0  0
 10 26  1  0  0  0  0
 11 17  1  0  0  0  0
 11 12  1  0  0  0  0
 11 27  1  0  0  0  0
 12 13  1  0  0  0  0
 12 28  1  0  0  0  0
 12 29  1  0  0  0  0
 13 14  1  0  0  0  0
 13 15  1  0  0  0  0
 13 16  1  0  0  0  0
 14 30  1  0  0  0  0
 14 31  1  0  0  0  0
 14 32  1  0  0  0  0
 15 33  1  0  0  0  0
 15 34  1  0  0  0  0
 15 35  1  0  0  0  0
 16 17  1  0  0  0  0
 17 18  1  0  0  0  0
 17 19  1  0  0  0  0
 18 36  1  0  0  0  0
 18 37  1  0  0  0  0
 18 38  1  0  0  0  0
 19 39  1  0  0  0  0
 19 40  1  0  0  0  0
 19 41  1  0  0  0  0
M  CHG  1   7  -1
M  END
> <s_m_source_file>
AV-unprocessed.smi

> <i_m_source_file_index>
2335

> <i_lp_mmshare_version>
43012

> <i_f3d_flags>
0

> <s_epik_input>
W0NIM11bQ0gyXWMxbm5jKHMxKVtOSF1DKD1PKVtOSF1bQ0BASF0oQyhPMikoW0NIM10pW0NIM10pW0NIMl1DMihbQ0gzXSlbQ0gzXQ==

> <s_epik_cmdline>
J2VwaWtfcHl0aG9uJywgJy1waCcsICc3LjAnLCAnLXRuJywgJzgnLCAnLW1hJywgJzIwMCcsICctbWV0YWxfYmluZGluZycsICctaW1hZScsICc8aW5maWxlLm1hZT4nLCAnLW9tYWUnLCAnPG91dGZpbGUubWFlPic=

> <r_lp_tautomer_probability>
1

> <r_epik_Ionization_Penalty>
4.33319

> <r_epik_Ionization_Penalty_Charging>
4.17028

> <r_epik_Ionization_Penalty_Neutral>
0.162913

> <r_epik_State_Penalty>
4.16976

> <r_epik_Charging_Adjusted_Penalty>
8.34004

> <i_epik_Tot_Q>
-1

> <i_epik_Tot_abs_Q>
1

> <r_epik_Metal_State_Penalty>
0.677358

> <b_epik_Metal_Only>
1

> <s_lp_Force_Field>
OPLS_2005

> <r_lp_Energy>
10.6877

> <b_lp_Chiralities_Consistent>
1

> <s_lp_Variant>
AV-unprocessed.smi:2335-4

> <Gold.Version>
5.8.1

> <Gold.Id.Protein>
6NUR|6NUR_protein|mol2

> <Gold.PLP.Fitness>
31.9417

> <Gold.PLP.PLP>
-30.6479

> <Gold.PLP.part.hbond>
-1.0384

> <Gold.PLP.part.metal>
0.0000

> <Gold.PLP.part.buried>
-4.2746

> <Gold.PLP.part.nonpolar>
-25.4068

> <Gold.PLP.part.repulsive>
0.1786

> <Gold.PLP.ligand.clash>
0.0000

> <Gold.PLP.ligand.torsion>
0.8560

> <Gold.PLP.Chemscore.Hbond>
0.9913

> <Gold.PLP.Chemscore.CHOScore>
0.0000

> <Gold.PLP.Chemscore.Metal>
0.0000

> <Gold.Chemscore.Hbonds>
donor molecule, donor type, donor heavy atom, donor atom, acceptor molecule, acceptor atom, score
      P1  H  6896  6909       L1     9  0.89

> <Gold.PLP.Chemscore.Internal.Correction>
0.0321

> <Gold.Rescore>
     Score         DG    S(hbond)    S(metal)    S(lipo)     H(rot)  DE(clash)    DE(int)     intcor
     14.06     -15.10       0.98        0.00      80.49       1.19       0.03       1.02       ----

> <Gold.Chemscore.Fitness>
14.0597

> <Gold.Chemscore.DG>
-15.1022

> <Gold.Chemscore.ZeroCoef>
-5.4800

> <Gold.Chemscore.Hbond>
0.9767

> <Gold.Chemscore.Metal>
0.0000

> <Gold.Chemscore.Lipo>
80.4903

> <Gold.Chemscore.Internal_Hbond>
0.0000

> <Gold.Chemscore.DEClash>
0.0253

> <Gold.Chemscore.DEInternal>
1.0172

> <Gold.Chemscore.Rot>
1.1942

> <Gold.Chemscore.Internal.Correction>
   9.000000E+99

> <Gold.Chemscore.Hbonds>
donor molecule, donor type, donor heavy atom, donor atom, acceptor molecule, acceptor atom, score
      P1  H  6896  6909       L1     9  0.67

> <Gold.Chemscore.Hbond.Weighted>
-3.2621

> <Gold.Chemscore.Metal.Weighted>
-0.0000

> <Gold.Chemscore.Lipo.Weighted>
-9.4174

> <Gold.Chemscore.Internal_Hbond.Weighted>
0.0000

> <Gold.Chemscore.DEClash.Weighted>
0.0253

> <Gold.Chemscore.DEInternal.Weighted>
1.0172

> <Gold.Chemscore.Rot.Weighted>
3.0573

> <Gold.Chemscore.Internal.Correction.Weighted>
   9.000000E+99

> <Gold.Protein.RotatedTorsions>
[ 6907 6896 6895 6894 ] final  103.18 input  -60.11 | X-H torsion
[ 7974 7965 7964 7962 ] final  118.91 input  175.53 | X-H torsion
[ 8008 7997 7996 7995 ] final -148.41 input   59.86 | X-H torsion
[ 10167 10162 10161 10158 ] final -171.24 input  -65.29 | X-H torsion
[ 10718 10713 10712 10709 ] final   94.50 input   66.30 | X-H torsion
[ 10763 10752 10751 10750 ] final  -23.51 input  -60.55 | X-H torsion
[ 11005 11000 10999 10996 ] final  -51.61 input  -57.11 | X-H torsion

> <Gold.Protein.ActiveResidues>
 VAL166  LYS551  ARG553  GLY616  TRP617  ASP618  TYR619  PRO620  LYS621  CYS622 
 ASP623  PHE694  ASN695  SER759  ASP760  ASP761  ALA762  ILE779  LEU786  VAL792 
 PHE793  MET794  SER795  GLU796  ALA797  LYS798  CYS799  TRP800  GLU811  SER814 

> <Gold.Protein.RotatedAtoms>
  152.5303  133.9864  159.7830 H   0  0  0  0  0  0  0  0  0  0  0  0  # atno 6907 bound_to 6896
  151.0108  133.5959  159.2690 H   0  0  0  0  0  0  0  0  0  0  0  0  # atno 6908 bound_to 6896
  151.3034  135.0781  159.9300 H   0  0  0  0  0  0  0  0  0  0  0  0  # atno 6909 bound_to 6896
  145.1495  139.3219  143.4574 H   0  0  0  0  0  0  0  0  0  0  0  0  # atno 7974 bound_to 7965
  155.5912  140.0653  157.2758 H   0  0  0  0  0  0  0  0  0  0  0  0  # atno 8008 bound_to 7997
  154.4305  140.1835  156.1123 H   0  0  0  0  0  0  0  0  0  0  0  0  # atno 8009 bound_to 7997
  156.0231  140.3314  155.7063 H   0  0  0  0  0  0  0  0  0  0  0  0  # atno 8010 bound_to 7997
  139.5814  144.1415  152.1520 H   0  0  0  0  0  0  0  0  0  0  0  0  # atno 10167 bound_to 10162
  157.6947  131.0514  150.4195 H   0  0  0  0  0  0  0  0  0  0  0  0  # atno 10718 bound_to 10713
  153.6689  135.6972  153.5153 H   0  0  0  0  0  0  0  0  0  0  0  0  # atno 10763 bound_to 10752
  153.2573  135.4256  155.0858 H   0  0  0  0  0  0  0  0  0  0  0  0  # atno 10764 bound_to 10752
  154.8432  135.3546  154.6234 H   0  0  0  0  0  0  0  0  0  0  0  0  # atno 10765 bound_to 10752
  141.0880  133.6638  156.3903 H   0  0  0  0  0  0  0  0  0  0  0  0  # atno 11005 bound_to 11000
  146.3496  140.1563  142.8591 LP  0  0  0  0  0  0  0  0  0  0  0  0  # atno 17320 bound_to 7965
  145.0446  140.8972  143.5032 LP  0  0  0  0  0  0  0  0  0  0  0  0  # atno 17321 bound_to 7965
  140.0969  144.5573  150.7016 LP  0  0  0  0  0  0  0  0  0  0  0  0  # atno 17342 bound_to 10162
  140.7092  143.2491  151.4634 LP  0  0  0  0  0  0  0  0  0  0  0  0  # atno 17343 bound_to 10162
  156.4571  130.4024  149.6599 LP  0  0  0  0  0  0  0  0  0  0  0  0  # atno 17370 bound_to 10713
  156.3727  130.7539  151.2524 LP  0  0  0  0  0  0  0  0  0  0  0  0  # atno 17371 bound_to 10713
  140.5318  134.6206  157.5352 LP  0  0  0  0  0  0  0  0  0  0  0  0  # atno 17394 bound_to 11000
  139.9701  134.7306  156.0058 LP  0  0  0  0  0  0  0  0  0  0  0  0  # atno 17395 bound_to 11000

$$$$
