AV-unprocessed.smi:2267|AV-procd|sdf|9149|dock1
  -GOLD-   2272012353D 1   1.00000     0.00000
 Structure written by MMmdl.
 41 42  0  0  0  0  0  0  0  0  1 V2000
  151.7475  145.2685  159.1457 C   0  0  0  0  0  0  0  0  0  0  0  0
  151.9988  143.7752  159.1099 C   0  0  0  0  0  0  0  0  0  0  0  0
  152.7718  143.1598  160.1147 C   0  0  0  0  0  0  0  0  0  0  0  0
  153.0015  141.7725  160.0729 C   0  0  0  0  0  0  0  0  0  0  0  0
  152.4597  140.9999  159.0283 C   0  0  0  0  0  0  0  0  0  0  0  0
  151.6843  141.5991  158.0145 C   0  0  0  0  0  0  0  0  0  0  0  0
  151.1924  140.7677  157.0310 O   0  0  0  0  0  0  0  0  0  0  0  0
  150.6074  141.3585  155.8779 C   0  0  0  0  0  0  0  0  0  0  0  0
  150.0934  140.2421  154.9530 C   0  0  1  0  0  0  0  0  0  0  0  0
  149.7951  140.8382  153.7056 O   0  0  0  0  0  0  0  0  0  0  0  0
  151.1637  139.1527  154.7140 C   0  0  0  0  0  0  0  0  0  0  0  0
  150.5919  137.7956  154.7440 N   0  0  0  0  0  0  0  0  0  0  0  0
  149.2141  137.6947  154.4908 C   0  0  0  0  0  0  0  0  0  0  0  0
  148.6050  136.5544  154.4897 N   0  0  0  0  0  0  0  0  0  0  0  0
  149.3201  135.3818  154.7497 C   0  0  0  0  0  0  0  0  0  0  0  0
  148.5077  134.0990  154.7245 C   0  0  0  0  0  0  0  0  0  0  0  0
  150.6558  135.4112  155.0093 C   0  0  0  0  0  0  0  0  0  0  0  0
  151.4855  134.1673  155.3022 C   0  0  0  0  0  0  0  0  0  0  0  0
  151.3624  136.7026  155.0156 C   0  0  0  0  0  0  0  0  0  0  0  0
  152.5682  136.8039  155.2504 O   0  0  0  0  0  0  0  0  0  0  0  0
  151.4589  142.9984  158.0639 C   0  0  0  0  0  0  0  0  0  0  0  0
  152.0343  145.6963  160.1068 H   0  0  0  0  0  0  0  0  0  0  0  0
  150.6904  145.4808  158.9831 H   0  0  0  0  0  0  0  0  0  0  0  0
  152.3225  145.7655  158.3641 H   0  0  0  0  0  0  0  0  0  0  0  0
  153.1904  143.7473  160.9188 H   0  0  0  0  0  0  0  0  0  0  0  0
  153.5937  141.2998  160.8424 H   0  0  0  0  0  0  0  0  0  0  0  0
  152.6411  139.9352  159.0044 H   0  0  0  0  0  0  0  0  0  0  0  0
  149.8019  142.0472  156.1399 H   0  0  0  0  0  0  0  0  0  0  0  0
  151.3811  141.9309  155.3633 H   0  0  0  0  0  0  0  0  0  0  0  0
  149.1910  139.8033  155.3809 H   0  0  0  0  0  0  0  0  0  0  0  0
  149.6565  140.1531  153.0697 H   0  0  0  0  0  0  0  0  0  0  0  0
  151.7112  139.3489  153.7895 H   0  0  0  0  0  0  0  0  0  0  0  0
  151.9277  139.2141  155.4911 H   0  0  0  0  0  0  0  0  0  0  0  0
  148.7008  138.6389  154.3006 H   0  0  0  0  0  0  0  0  0  0  0  0
  148.8947  133.4150  153.9685 H   0  0  0  0  0  0  0  0  0  0  0  0
  147.4607  134.2968  154.4910 H   0  0  0  0  0  0  0  0  0  0  0  0
  148.5453  133.6048  155.6957 H   0  0  0  0  0  0  0  0  0  0  0  0
  151.9341  134.2403  156.2933 H   0  0  0  0  0  0  0  0  0  0  0  0
  152.2897  134.0711  154.5722 H   0  0  0  0  0  0  0  0  0  0  0  0
  150.9051  133.2466  155.2725 H   0  0  0  0  0  0  0  0  0  0  0  0
  150.8736  143.4998  157.3083 H   0  0  0  0  0  0  0  0  0  0  0  0
  1  2  1  0  0  0  0
  1 22  1  0  0  0  0
  1 23  1  0  0  0  0
  1 24  1  0  0  0  0
  2 21  1  0  0  0  0
  2  3  2  0  0  0  0
  3  4  1  0  0  0  0
  3 25  1  0  0  0  0
  4  5  2  0  0  0  0
  4 26  1  0  0  0  0
  5  6  1  0  0  0  0
  5 27  1  0  0  0  0
  6  7  1  0  0  0  0
  6 21  2  0  0  0  0
  7  8  1  0  0  0  0
  8  9  1  0  0  0  0
  8 28  1  0  0  0  0
  8 29  1  0  0  0  0
  9 10  1  0  0  0  0
  9 11  1  0  0  0  0
  9 30  1  0  0  0  0
 10 31  1  0  0  0  0
 11 12  1  0  0  0  0
 11 32  1  0  0  0  0
 11 33  1  0  0  0  0
 12 19  1  0  0  0  0
 12 13  1  0  0  0  0
 13 14  2  0  0  0  0
 13 34  1  0  0  0  0
 14 15  1  0  0  0  0
 15 16  1  0  0  0  0
 15 17  2  0  0  0  0
 16 35  1  0  0  0  0
 16 36  1  0  0  0  0
 16 37  1  0  0  0  0
 17 18  1  0  0  0  0
 17 19  1  0  0  0  0
 18 38  1  0  0  0  0
 18 39  1  0  0  0  0
 18 40  1  0  0  0  0
 19 20  2  0  0  0  0
 21 41  1  0  0  0  0
M  END
> <s_m_source_file>
AV-unprocessed.smi

> <i_m_source_file_index>
2267

> <i_lp_mmshare_version>
43012

> <i_f3d_flags>
0

> <s_epik_input>
W0NIM11jMVtjSF1bY0hdW2NIXWMoW2NIXTEpT1tDSDJdW0NASF0oW09IXSlbQ0gyXW4yW2NIXW5jKFtDSDNdKWMoW0NIM10pYzI9Tw==

> <s_epik_cmdline>
J2VwaWtfcHl0aG9uJywgJy1waCcsICc3LjAnLCAnLXRuJywgJzgnLCAnLW1hJywgJzIwMCcsICctbWV0YWxfYmluZGluZycsICctaW1hZScsICc8aW5maWxlLm1hZT4nLCAnLW9tYWUnLCAnPG91dGZpbGUubWFlPic=

> <r_lp_tautomer_probability>
1

> <r_epik_Ionization_Penalty>
3.72236e-05

> <r_epik_Ionization_Penalty_Charging>
8.38864e-08

> <r_epik_Ionization_Penalty_Neutral>
3.71397e-05

> <r_epik_State_Penalty>
-0

> <r_epik_Charging_Adjusted_Penalty>
8.38864e-08

> <i_epik_Tot_Q>
0

> <i_epik_Tot_abs_Q>
0

> <r_epik_Metal_State_Penalty>
-0

> <b_epik_Metal_Only>
0

> <s_lp_Force_Field>
OPLS_2005

> <r_lp_Energy>
23.9214

> <b_lp_Chiralities_Consistent>
1

> <s_lp_Variant>
AV-unprocessed.smi:2267-2

> <Gold.Version>
5.8.1

> <Gold.Id.Protein>
6NUR|6NUR_protein|mol2

> <Gold.PLP.Fitness>
49.1560

> <Gold.PLP.PLP>
-43.7995

> <Gold.PLP.part.hbond>
-3.8550

> <Gold.PLP.part.metal>
0.0000

> <Gold.PLP.part.buried>
-4.2443

> <Gold.PLP.part.nonpolar>
-35.5196

> <Gold.PLP.part.repulsive>
0.7201

> <Gold.PLP.ligand.clash>
0.5741

> <Gold.PLP.ligand.torsion>
1.1016

> <Gold.PLP.Chemscore.Hbond>
2.6656

> <Gold.PLP.Chemscore.CHOScore>
0.0000

> <Gold.PLP.Chemscore.Metal>
0.0000

> <Gold.Chemscore.Hbonds>
donor molecule, donor type, donor heavy atom, donor atom, acceptor molecule, acceptor atom, score
      L1  H    10    31       P1  7957  0.72
      P1  H  7989  7998       L1    10  0.09
      P1  H  8011  8017       L1    10  0.69
      P1  H 10752 10765       L1    20  0.46

> <Gold.PLP.Chemscore.Internal.Correction>
0.1369

> <Gold.Rescore>
     Score         DG    S(hbond)    S(metal)    S(lipo)     H(rot)  DE(clash)    DE(int)     intcor
     18.07     -19.36       1.96        0.00     114.11       2.35       0.14       1.15       ----

> <Gold.Chemscore.Fitness>
18.0696

> <Gold.Chemscore.DG>
-19.3559

> <Gold.Chemscore.ZeroCoef>
-5.4800

> <Gold.Chemscore.Hbond>
1.9577

> <Gold.Chemscore.Metal>
0.0000

> <Gold.Chemscore.Lipo>
114.1086

> <Gold.Chemscore.Internal_Hbond>
0.0000

> <Gold.Chemscore.DEClash>
0.1393

> <Gold.Chemscore.DEInternal>
1.1470

> <Gold.Chemscore.Rot>
2.3490

> <Gold.Chemscore.Internal.Correction>
   9.000000E+99

> <Gold.Chemscore.Hbonds>
donor molecule, donor type, donor heavy atom, donor atom, acceptor molecule, acceptor atom, score
      L1  H    10    31       P1  7957  0.72
      P1  H  8011  8017       L1    10  0.09
      P1  H 10752 10765       L1    20  0.18

> <Gold.Chemscore.Hbond.Weighted>
-6.5387

> <Gold.Chemscore.Metal.Weighted>
-0.0000

> <Gold.Chemscore.Lipo.Weighted>
-13.3507

> <Gold.Chemscore.Internal_Hbond.Weighted>
0.0000

> <Gold.Chemscore.DEClash.Weighted>
0.1393

> <Gold.Chemscore.DEInternal.Weighted>
1.1470

> <Gold.Chemscore.Rot.Weighted>
6.0136

> <Gold.Chemscore.Internal.Correction.Weighted>
   9.000000E+99

> <Gold.Protein.RotatedTorsions>
[ 6907 6896 6895 6894 ] final   36.36 input  -60.11 | X-H torsion
[ 7974 7965 7964 7962 ] final  118.97 input  175.53 | X-H torsion
[ 8008 7997 7996 7995 ] final  -37.86 input   59.86 | X-H torsion
[ 10167 10162 10161 10158 ] final -150.18 input  -65.29 | X-H torsion
[ 10718 10713 10712 10709 ] final  -97.02 input   66.30 | X-H torsion
[ 10763 10752 10751 10750 ] final -161.16 input  -60.55 | X-H torsion
[ 11005 11000 10999 10996 ] final   36.95 input  -57.11 | X-H torsion

> <Gold.Protein.ActiveResidues>
 VAL166  LYS551  ARG553  GLY616  TRP617  ASP618  TYR619  PRO620  LYS621  CYS622 
 ASP623  PHE694  ASN695  SER759  ASP760  ASP761  ALA762  ILE779  LEU786  VAL792 
 PHE793  MET794  SER795  GLU796  ALA797  LYS798  CYS799  TRP800  GLU811  SER814 

> <Gold.Protein.RotatedAtoms>
  152.1287  134.9151  160.0559 H   0  0  0  0  0  0  0  0  0  0  0  0  # atno 6907 bound_to 6896
  152.0264  133.3914  159.4287 H   0  0  0  0  0  0  0  0  0  0  0  0  # atno 6908 bound_to 6896
  150.6854  134.3490  159.4944 H   0  0  0  0  0  0  0  0  0  0  0  0  # atno 6909 bound_to 6896
  145.1488  139.3223  143.4577 H   0  0  0  0  0  0  0  0  0  0  0  0  # atno 7974 bound_to 7965
  154.4046  140.1593  156.2606 H   0  0  0  0  0  0  0  0  0  0  0  0  # atno 8008 bound_to 7997
  155.9040  140.3431  155.6025 H   0  0  0  0  0  0  0  0  0  0  0  0  # atno 8009 bound_to 7997
  155.7415  140.0793  157.2234 H   0  0  0  0  0  0  0  0  0  0  0  0  # atno 8010 bound_to 7997
  139.7377  143.8711  152.2553 H   0  0  0  0  0  0  0  0  0  0  0  0  # atno 10167 bound_to 10162
  156.0074  130.5176  150.6313 H   0  0  0  0  0  0  0  0  0  0  0  0  # atno 10718 bound_to 10713
  154.7328  135.3050  154.8863 H   0  0  0  0  0  0  0  0  0  0  0  0  # atno 10763 bound_to 10752
  153.9701  135.6743  153.4751 H   0  0  0  0  0  0  0  0  0  0  0  0  # atno 10764 bound_to 10752
  153.0934  135.4948  154.8654 H   0  0  0  0  0  0  0  0  0  0  0  0  # atno 10765 bound_to 10752
  140.2274  134.3568  155.7978 H   0  0  0  0  0  0  0  0  0  0  0  0  # atno 11005 bound_to 11000
  146.3497  140.1554  142.8591 LP  0  0  0  0  0  0  0  0  0  0  0  0  # atno 17320 bound_to 7965
  145.0453  140.8977  143.5028 LP  0  0  0  0  0  0  0  0  0  0  0  0  # atno 17321 bound_to 7965
  139.8652  144.7097  150.9052 LP  0  0  0  0  0  0  0  0  0  0  0  0  # atno 17342 bound_to 10162
  140.7781  143.3784  151.1521 LP  0  0  0  0  0  0  0  0  0  0  0  0  # atno 17343 bound_to 10162
  157.4110  131.0823  151.1220 LP  0  0  0  0  0  0  0  0  0  0  0  0  # atno 17370 bound_to 10713
  157.1852  130.6327  149.5685 LP  0  0  0  0  0  0  0  0  0  0  0  0  # atno 17371 bound_to 10713
  141.2220  133.7226  156.8675 LP  0  0  0  0  0  0  0  0  0  0  0  0  # atno 17394 bound_to 11000
  140.1786  134.9049  157.2921 LP  0  0  0  0  0  0  0  0  0  0  0  0  # atno 17395 bound_to 11000

$$$$
