AV-unprocessed.smi:168|AV-procd|sdf|1397|dock4
  -GOLD-   2262019143D 1   1.00000     0.00000
 Structure written by MMmdl.
 62 66  0  0  0  0  0  0  0  0  1 V2000
  150.6473  138.3303  158.3872 C   0  0  0  0  0  0  0  0  0  0  0  0
  149.1884  138.0185  158.0244 C   0  0  0  0  0  0  0  0  0  0  0  0
  148.6295  136.9494  158.9897 C   0  0  0  0  0  0  0  0  0  0  0  0
  149.0321  137.7257  156.5078 C   0  0  1  0  0  0  0  0  0  0  0  0
  147.6240  137.7264  156.1030 N   0  0  0  0  0  0  0  0  0  0  0  0
  147.1692  136.6069  155.3302 C   0  0  0  0  0  0  0  0  0  0  0  0
  147.3635  135.3507  155.8171 N   0  0  0  0  0  0  0  0  0  0  0  0
  146.9804  134.2677  155.1368 C   0  0  0  0  0  0  0  0  0  0  0  0
  146.3952  134.2005  153.9425 N   0  0  0  0  0  0  0  0  0  0  0  0
  146.2111  135.4452  153.4209 C   0  0  0  0  0  0  0  0  0  0  0  0
  146.5723  136.6813  154.0343 C   0  0  0  0  0  0  0  0  0  0  0  0
  146.2542  137.7283  153.1770 N   0  0  0  0  0  0  0  0  0  0  0  0
  145.7379  137.1505  152.1285 C   0  0  0  0  0  0  0  0  0  0  0  0
  145.6447  135.7807  152.2029 N   0  0  0  0  0  0  0  0  0  0  0  0
  145.1634  134.8987  151.1794 C   0  0  0  0  0  0  0  0  0  0  0  0
  144.0261  133.9111  151.4588 C   0  0  0  0  0  0  0  0  0  0  0  0
  144.6977  132.8588  150.5487 C   0  0  0  0  0  0  0  0  0  0  0  0
  144.7791  131.4418  151.1370 C   0  0  0  0  0  0  0  0  0  0  0  0
  145.6308  131.3988  152.2641 O   0  0  0  0  0  0  0  0  0  0  0  0
  144.1559  132.7217  149.1081 C   0  0  0  0  0  0  0  0  0  0  0  0
  142.8817  132.1141  149.0451 O   0  0  0  0  0  0  0  0  0  0  0  0
  145.9876  133.6931  150.7172 C   0  0  0  0  0  0  0  0  0  0  0  0
  147.7659  138.9951  155.3905 C   0  0  0  0  0  0  0  0  0  0  0  0
  149.2861  138.7839  155.3998 C   0  0  0  0  0  0  0  0  0  0  0  0
  149.8553  138.2356  154.0722 C   0  0  0  0  0  0  0  0  0  0  0  0
  151.3471  137.8723  154.1530 C   0  0  0  0  0  0  0  0  0  0  0  0
  152.1864  139.0859  154.5656 C   0  0  0  0  0  0  0  0  0  0  0  0
  151.6475  139.7102  155.8574 C   0  0  0  0  0  0  0  0  0  0  0  0
  150.1433  140.0195  155.7447 C   0  0  0  0  0  0  0  0  0  0  0  0
  151.2845  137.4569  158.2461 H   0  0  0  0  0  0  0  0  0  0  0  0
  150.7366  138.6395  159.4290 H   0  0  0  0  0  0  0  0  0  0  0  0
  151.0427  139.1392  157.7728 H   0  0  0  0  0  0  0  0  0  0  0  0
  148.6396  138.9345  158.2381 H   0  0  0  0  0  0  0  0  0  0  0  0
  149.1726  136.0078  158.9047 H   0  0  0  0  0  0  0  0  0  0  0  0
  147.5755  136.7396  158.8240 H   0  0  0  0  0  0  0  0  0  0  0  0
  148.7249  137.2799  160.0243 H   0  0  0  0  0  0  0  0  0  0  0  0
  149.5536  136.8114  156.2284 H   0  0  0  0  0  0  0  0  0  0  0  0
  147.1707  133.3203  155.6191 H   0  0  0  0  0  0  0  0  0  0  0  0
  145.4068  137.7144  151.2685 H   0  0  0  0  0  0  0  0  0  0  0  0
  144.9148  135.5398  150.3328 H   0  0  0  0  0  0  0  0  0  0  0  0
  143.9920  133.6013  152.5047 H   0  0  0  0  0  0  0  0  0  0  0  0
  143.0456  134.2488  151.1216 H   0  0  0  0  0  0  0  0  0  0  0  0
  143.7930  131.0764  151.4255 H   0  0  0  0  0  0  0  0  0  0  0  0
  145.1660  130.7352  150.4021 H   0  0  0  0  0  0  0  0  0  0  0  0
  146.3404  132.0075  152.1273 H   0  0  0  0  0  0  0  0  0  0  0  0
  144.0796  133.6991  148.6308 H   0  0  0  0  0  0  0  0  0  0  0  0
  144.8289  132.1264  148.4907 H   0  0  0  0  0  0  0  0  0  0  0  0
  142.2283  132.7661  149.2474 H   0  0  0  0  0  0  0  0  0  0  0  0
  146.5492  133.8614  149.7976 H   0  0  0  0  0  0  0  0  0  0  0  0
  146.6413  133.3145  151.5048 H   0  0  0  0  0  0  0  0  0  0  0  0
  147.3371  139.0591  154.3906 H   0  0  0  0  0  0  0  0  0  0  0  0
  147.4426  139.8365  156.0029 H   0  0  0  0  0  0  0  0  0  0  0  0
  149.3036  137.3521  153.7517 H   0  0  0  0  0  0  0  0  0  0  0  0
  149.7099  138.9672  153.2762 H   0  0  0  0  0  0  0  0  0  0  0  0
  151.4920  137.0638  154.8704 H   0  0  0  0  0  0  0  0  0  0  0  0
  151.6907  137.4950  153.1896 H   0  0  0  0  0  0  0  0  0  0  0  0
  153.2300  138.7972  154.6932 H   0  0  0  0  0  0  0  0  0  0  0  0
  152.1651  139.8293  153.7679 H   0  0  0  0  0  0  0  0  0  0  0  0
  151.8283  139.0304  156.6896 H   0  0  0  0  0  0  0  0  0  0  0  0
  152.1981  140.6239  156.0828 H   0  0  0  0  0  0  0  0  0  0  0  0
  150.0001  140.7870  154.9829 H   0  0  0  0  0  0  0  0  0  0  0  0
  149.8145  140.4827  156.6718 H   0  0  0  0  0  0  0  0  0  0  0  0
  1  2  1  0  0  0  0
  1 30  1  0  0  0  0
  1 31  1  0  0  0  0
  1 32  1  0  0  0  0
  2  3  1  0  0  0  0
  2  4  1  0  0  0  0
  2 33  1  0  0  0  0
  3 34  1  0  0  0  0
  3 35  1  0  0  0  0
  3 36  1  0  0  0  0
  4 24  1  0  0  0  0
  4  5  1  0  0  0  0
  4 37  1  0  0  0  0
  5  6  1  0  0  0  0
  5 23  1  0  0  0  0
  6 11  1  0  0  0  0
  6  7  2  0  0  0  0
  7  8  1  0  0  0  0
  8  9  2  0  0  0  0
  8 38  1  0  0  0  0
  9 10  1  0  0  0  0
 10 14  1  0  0  0  0
 10 11  2  0  0  0  0
 11 12  1  0  0  0  0
 12 13  2  0  0  0  0
 13 14  1  0  0  0  0
 13 39  1  0  0  0  0
 14 15  1  0  0  0  0
 15 22  1  0  0  0  0
 15 16  1  0  0  0  0
 15 40  1  0  0  0  0
 16 17  1  0  0  0  0
 16 41  1  0  0  0  0
 16 42  1  0  0  0  0
 17 18  1  0  0  0  0
 17 20  1  0  0  0  0
 17 22  1  0  0  0  0
 18 19  1  0  0  0  0
 18 43  1  0  0  0  0
 18 44  1  0  0  0  0
 19 45  1  0  0  0  0
 20 21  1  0  0  0  0
 20 46  1  0  0  0  0
 20 47  1  0  0  0  0
 21 48  1  0  0  0  0
 22 49  1  0  0  0  0
 22 50  1  0  0  0  0
 23 24  1  0  0  0  0
 23 51  1  0  0  0  0
 23 52  1  0  0  0  0
 24 29  1  0  0  0  0
 24 25  1  0  0  0  0
 25 26  1  0  0  0  0
 25 53  1  0  0  0  0
 25 54  1  0  0  0  0
 26 27  1  0  0  0  0
 26 55  1  0  0  0  0
 26 56  1  0  0  0  0
 27 28  1  0  0  0  0
 27 57  1  0  0  0  0
 27 58  1  0  0  0  0
 28 29  1  0  0  0  0
 28 59  1  0  0  0  0
 28 60  1  0  0  0  0
 29 61  1  0  0  0  0
 29 62  1  0  0  0  0
M  END
> <s_m_source_file>
AV-unprocessed.smi

> <i_m_source_file_index>
168

> <i_lp_mmshare_version>
43012

> <i_f3d_flags>
0

> <s_epik_input>
W0NIMl0xW0NIMl1bQ0gyXVtDSDJdW0NIMl1DMTJbQ0BIXShbQ0hdKFtDSDNdKVtDSDNdKU4oW0NIMl0yKWMobltjSF1uMyljKGMzNCluW2NIXW40W0NIXShbQ0gyXTUpW0NIMl1DNShbQ0gyXVtPSF0pW0NIMl1bT0hd

> <s_epik_cmdline>
J2VwaWtfcHl0aG9uJywgJy1waCcsICc3LjAnLCAnLXRuJywgJzgnLCAnLW1hJywgJzIwMCcsICctbWV0YWxfYmluZGluZycsICctaW1hZScsICc8aW5maWxlLm1hZT4nLCAnLW9tYWUnLCAnPG91dGZpbGUubWFlPic=

> <r_lp_tautomer_probability>
1

> <r_epik_Ionization_Penalty>
0.00324652

> <r_epik_Ionization_Penalty_Charging>
0

> <r_epik_Ionization_Penalty_Neutral>
0.00324652

> <r_epik_State_Penalty>
0.00223464

> <r_epik_Charging_Adjusted_Penalty>
0.00223464

> <i_epik_Tot_Q>
0

> <i_epik_Tot_abs_Q>
0

> <r_epik_Metal_State_Penalty>
-0

> <b_epik_Metal_Only>
0

> <s_lp_Force_Field>
OPLS_2005

> <r_lp_Energy>
69.202

> <b_lp_Chiralities_Consistent>
1

> <s_lp_Variant>
AV-unprocessed.smi:168-2

> <Gold.Version>
5.8.1

> <Gold.Id.Protein>
6NUR|6NUR_protein|mol2

> <Gold.PLP.Fitness>
49.3349

> <Gold.PLP.PLP>
-41.1701

> <Gold.PLP.part.hbond>
-3.0000

> <Gold.PLP.part.metal>
0.0000

> <Gold.PLP.part.buried>
-5.6878

> <Gold.PLP.part.nonpolar>
-33.7044

> <Gold.PLP.part.repulsive>
0.3318

> <Gold.PLP.ligand.clash>
0.0000

> <Gold.PLP.ligand.torsion>
0.7611

> <Gold.PLP.Chemscore.Hbond>
1.9663

> <Gold.PLP.Chemscore.CHOScore>
1.0000

> <Gold.PLP.Chemscore.Metal>
0.0000

> <Gold.Chemscore.Hbonds>
donor molecule, donor type, donor heavy atom, donor atom, acceptor molecule, acceptor atom, score
      L1  H    21    48       P1 10186  0.91
      P1  H 10785 10796       L1    21  1.00
      L1  C    13    39       P1 10171  1.00

> <Gold.PLP.Chemscore.Internal.Correction>
0.7883

> <Gold.Rescore>
     Score         DG    S(hbond)    S(metal)    S(lipo)     H(rot)  DE(clash)    DE(int)     intcor
     11.83     -13.82       1.63        0.00      92.99       3.12       0.00       1.99       ----

> <Gold.Chemscore.Fitness>
11.8292

> <Gold.Chemscore.DG>
-13.8200

> <Gold.Chemscore.ZeroCoef>
-5.4800

> <Gold.Chemscore.Hbond>
1.6294

> <Gold.Chemscore.Metal>
0.0000

> <Gold.Chemscore.Lipo>
92.9931

> <Gold.Chemscore.Internal_Hbond>
0.0000

> <Gold.Chemscore.DEClash>
0.0009

> <Gold.Chemscore.DEInternal>
1.9899

> <Gold.Chemscore.Rot>
3.1181

> <Gold.Chemscore.Internal.Correction>
   9.000000E+99

> <Gold.Chemscore.Hbonds>
donor molecule, donor type, donor heavy atom, donor atom, acceptor molecule, acceptor atom, score
      L1  H    21    48       P1 10186  0.87
      P1  H 10785 10796       L1    21  0.56

> <Gold.Chemscore.Hbond.Weighted>
-5.4421

> <Gold.Chemscore.Metal.Weighted>
-0.0000

> <Gold.Chemscore.Lipo.Weighted>
-10.8802

> <Gold.Chemscore.Internal_Hbond.Weighted>
0.0000

> <Gold.Chemscore.DEClash.Weighted>
0.0009

> <Gold.Chemscore.DEInternal.Weighted>
1.9899

> <Gold.Chemscore.Rot.Weighted>
7.9823

> <Gold.Chemscore.Internal.Correction.Weighted>
   9.000000E+99

> <Gold.Protein.RotatedTorsions>
[ 6907 6896 6895 6894 ] final -118.52 input  -60.11 | X-H torsion
[ 7974 7965 7964 7962 ] final   39.22 input  175.53 | X-H torsion
[ 8008 7997 7996 7995 ] final  166.29 input   59.86 | X-H torsion
[ 10167 10162 10161 10158 ] final   58.52 input  -65.29 | X-H torsion
[ 10718 10713 10712 10709 ] final   -4.85 input   66.30 | X-H torsion
[ 10763 10752 10751 10750 ] final  -95.39 input  -60.55 | X-H torsion
[ 11005 11000 10999 10996 ] final  127.83 input  -57.11 | X-H torsion

> <Gold.Protein.ActiveResidues>
 VAL166  LYS551  ARG553  GLY616  TRP617  ASP618  TYR619  PRO620  LYS621  CYS622 
 ASP623  PHE694  ASN695  SER759  ASP760  ASP761  ALA762  ILE779  LEU786  VAL792 
 PHE793  MET794  SER795  GLU796  ALA797  LYS798  CYS799  TRP800  GLU811  SER814 

> <Gold.Protein.RotatedAtoms>
  150.8227  133.8225  159.3131 H   0  0  0  0  0  0  0  0  0  0  0  0  # atno 6907 bound_to 6896
  151.5978  135.1047  160.0063 H   0  0  0  0  0  0  0  0  0  0  0  0  # atno 6908 bound_to 6896
  152.4315  133.7244  159.6608 H   0  0  0  0  0  0  0  0  0  0  0  0  # atno 6909 bound_to 6896
  146.1001  139.5677  142.9420 H   0  0  0  0  0  0  0  0  0  0  0  0  # atno 7974 bound_to 7965
  156.1731  140.1647  156.8412 H   0  0  0  0  0  0  0  0  0  0  0  0  # atno 8008 bound_to 7997
  154.5277  140.0764  156.8323 H   0  0  0  0  0  0  0  0  0  0  0  0  # atno 8009 bound_to 7997
  155.3471  140.3388  155.4241 H   0  0  0  0  0  0  0  0  0  0  0  0  # atno 8010 bound_to 7997
  140.1863  144.4131  150.6591 H   0  0  0  0  0  0  0  0  0  0  0  0  # atno 10167 bound_to 10162
  156.7552  130.5252  149.5796 H   0  0  0  0  0  0  0  0  0  0  0  0  # atno 10718 bound_to 10713
  154.7143  135.5122  153.8714 H   0  0  0  0  0  0  0  0  0  0  0  0  # atno 10763 bound_to 10752
  153.0807  135.6630  154.0059 H   0  0  0  0  0  0  0  0  0  0  0  0  # atno 10764 bound_to 10752
  153.9895  135.3021  155.3392 H   0  0  0  0  0  0  0  0  0  0  0  0  # atno 10765 bound_to 10752
  139.9528  134.9619  156.8912 H   0  0  0  0  0  0  0  0  0  0  0  0  # atno 11005 bound_to 11000
  145.5871  141.0375  143.2090 LP  0  0  0  0  0  0  0  0  0  0  0  0  # atno 17320 bound_to 7965
  144.7426  139.7407  143.7305 LP  0  0  0  0  0  0  0  0  0  0  0  0  # atno 17321 bound_to 7965
  140.6486  143.2219  151.6130 LP  0  0  0  0  0  0  0  0  0  0  0  0  # atno 17342 bound_to 10162
  139.5274  144.3016  152.1068 LP  0  0  0  0  0  0  0  0  0  0  0  0  # atno 17343 bound_to 10162
  156.1375  130.6221  151.0421 LP  0  0  0  0  0  0  0  0  0  0  0  0  # atno 17370 bound_to 10713
  157.6759  131.0850  150.7495 LP  0  0  0  0  0  0  0  0  0  0  0  0  # atno 17371 bound_to 10713
  140.5679  134.0471  155.7420 LP  0  0  0  0  0  0  0  0  0  0  0  0  # atno 17394 bound_to 11000
  141.1194  133.9486  157.2759 LP  0  0  0  0  0  0  0  0  0  0  0  0  # atno 17395 bound_to 11000

$$$$
