AV-unprocessed.smi:2084|AV-procd|sdf|8515|dock10
  -GOLD-   2272011233D 1   1.00000     0.00000
 Structure written by MMmdl.
 38 39  0  0  0  0  0  0  0  0  3 V2000
  148.9221  136.4920  155.4993 C   0  0  0  0  0  0  0  0  0  0  0  0
  148.9580  137.9039  155.9727 N   0  3  0  0  0  0  0  0  0  0  0  0
  148.6456  138.8272  154.8507 C   0  0  0  0  0  0  0  0  0  0  0  0
  150.1513  138.2950  156.8094 C   0  0  0  0  0  0  0  0  0  0  0  0
  150.2923  137.3127  158.0163 C   0  0  0  0  0  0  0  0  0  0  0  0
  149.2980  137.5255  159.0691 N   0  0  0  0  0  0  0  0  0  0  0  0
  148.5525  136.5883  159.6710 C   0  0  0  0  0  0  0  0  0  0  0  0
  148.6539  135.4065  159.3343 O   0  0  0  0  0  0  0  0  0  0  0  0
  147.7468  137.0810  160.6378 N   0  5  0  0  0  0  0  0  0  0  0  0
  146.8070  136.2980  161.1919 C   0  0  0  0  0  0  0  0  0  0  0  0
  145.4954  136.4942  161.0155 N   0  0  0  0  0  0  0  0  0  0  0  0
  144.7000  135.5648  161.6884 C   0  0  0  0  0  0  0  0  0  0  0  0
  145.4229  134.6454  162.4013 C   0  0  0  0  0  0  0  0  0  0  0  0
  147.1345  134.9201  162.2464 S   0  0  0  0  0  0  0  0  0  0  0  0
  151.4550  138.2643  155.9525 C   0  0  0  0  0  0  0  0  0  0  0  0
  151.9022  139.7171  155.7770 C   0  0  0  0  0  0  0  0  0  0  0  0
  151.4099  140.4127  157.0403 C   0  0  0  0  0  0  0  0  0  0  0  0
  150.0530  139.7633  157.3186 C   0  0  0  0  0  0  0  0  0  0  0  0
  149.6676  136.2963  154.7296 H   0  0  0  0  0  0  0  0  0  0  0  0
  147.9477  136.2756  155.0604 H   0  0  0  0  0  0  0  0  0  0  0  0
  149.0607  135.7632  156.2947 H   0  0  0  0  0  0  0  0  0  0  0  0
  149.5041  138.9605  154.1920 H   0  0  0  0  0  0  0  0  0  0  0  0
  148.3207  139.8041  155.2055 H   0  0  0  0  0  0  0  0  0  0  0  0
  147.8231  138.4405  154.2479 H   0  0  0  0  0  0  0  0  0  0  0  0
  150.1308  136.2833  157.7006 H   0  0  0  0  0  0  0  0  0  0  0  0
  151.3083  137.3513  158.4124 H   0  0  0  0  0  0  0  0  0  0  0  0
  149.1709  138.4764  159.3835 H   0  0  0  0  0  0  0  0  0  0  0  0
  143.6256  135.6340  161.6057 H   0  0  0  0  0  0  0  0  0  0  0  0
  145.0568  133.8289  163.0048 H   0  0  0  0  0  0  0  0  0  0  0  0
  152.2580  137.7335  156.4599 H   0  0  0  0  0  0  0  0  0  0  0  0
  151.3517  137.7414  155.0021 H   0  0  0  0  0  0  0  0  0  0  0  0
  152.9805  139.8089  155.6430 H   0  0  0  0  0  0  0  0  0  0  0  0
  151.4201  140.1563  154.9032 H   0  0  0  0  0  0  0  0  0  0  0  0
  152.0968  140.2095  157.8632 H   0  0  0  0  0  0  0  0  0  0  0  0
  151.3419  141.4946  156.9248 H   0  0  0  0  0  0  0  0  0  0  0  0
  149.2887  140.3311  156.7916 H   0  0  0  0  0  0  0  0  0  0  0  0
  149.7907  139.8274  158.3752 H   0  0  0  0  0  0  0  0  0  0  0  0
  148.1717  137.9816  156.6020 H   0  0  0  0  0  0  0  0  0  0  0  0
  1  2  1  0  0  0  0
  1 19  1  0  0  0  0
  1 20  1  0  0  0  0
  1 21  1  0  0  0  0
  2  3  1  0  0  0  0
  2  4  1  0  0  0  0
  2 38  1  0  0  0  0
  3 22  1  0  0  0  0
  3 23  1  0  0  0  0
  3 24  1  0  0  0  0
  4 18  1  0  0  0  0
  4  5  1  0  0  0  0
  4 15  1  0  0  0  0
  5  6  1  0  0  0  0
  5 25  1  0  0  0  0
  5 26  1  0  0  0  0
  6  7  1  0  0  0  0
  6 27  1  0  0  0  0
  7  8  2  0  0  0  0
  7  9  1  0  0  0  0
  9 10  1  0  0  0  0
 10 14  1  0  0  0  0
 10 11  2  0  0  0  0
 11 12  1  0  0  0  0
 12 13  2  0  0  0  0
 12 28  1  0  0  0  0
 13 14  1  0  0  0  0
 13 29  1  0  0  0  0
 15 16  1  0  0  0  0
 15 30  1  0  0  0  0
 15 31  1  0  0  0  0
 16 17  1  0  0  0  0
 16 32  1  0  0  0  0
 16 33  1  0  0  0  0
 17 18  1  0  0  0  0
 17 34  1  0  0  0  0
 17 35  1  0  0  0  0
 18 36  1  0  0  0  0
 18 37  1  0  0  0  0
M  CHG  1   2   1
M  CHG  1   9  -1
M  END
> <s_m_source_file>
AV-unprocessed.smi

> <i_m_source_file_index>
2084

> <i_lp_mmshare_version>
43012

> <i_f3d_flags>
0

> <s_epik_input>
W0NIMl0xW0NIMl1bQ0gyXVtDSDJdQzEoTihbQ0gzXSlbQ0gzXSlbQ0gyXVtOSF1DKD1PKVtOSF1jMm5bY0hdW2NIXXMy

> <s_epik_cmdline>
J2VwaWtfcHl0aG9uJywgJy1waCcsICc3LjAnLCAnLXRuJywgJzgnLCAnLW1hJywgJzIwMCcsICctbWV0YWxfYmluZGluZycsICctaW1hZScsICc8aW5maWxlLm1hZT4nLCAnLW9tYWUnLCAnPG91dGZpbGUubWFlPic=

> <r_lp_tautomer_probability>
1

> <r_epik_Ionization_Penalty>
7.73928

> <r_epik_Ionization_Penalty_Charging>
6.33943

> <r_epik_Ionization_Penalty_Neutral>
1.39985

> <r_epik_State_Penalty>
6.33766

> <r_epik_Charging_Adjusted_Penalty>
12.6771

> <i_epik_Tot_Q>
0

> <i_epik_Tot_abs_Q>
2

> <r_epik_Metal_State_Penalty>
2.27131

> <b_epik_Metal_Only>
1

> <s_lp_Force_Field>
OPLS_2005

> <r_lp_Energy>
28.85

> <b_lp_Chiralities_Consistent>
1

> <s_lp_Variant>
AV-unprocessed.smi:2084-2

> <Gold.Version>
5.8.1

> <Gold.Id.Protein>
6NUR|6NUR_protein|mol2

> <Gold.PLP.Fitness>
36.5053

> <Gold.PLP.PLP>
-24.7661

> <Gold.PLP.part.hbond>
-3.0000

> <Gold.PLP.part.metal>
0.0000

> <Gold.PLP.part.buried>
-4.3231

> <Gold.PLP.part.nonpolar>
-19.0029

> <Gold.PLP.part.repulsive>
0.2270

> <Gold.PLP.ligand.clash>
0.0000

> <Gold.PLP.ligand.torsion>
0.9261

> <Gold.PLP.Chemscore.Hbond>
4.4880

> <Gold.PLP.Chemscore.CHOScore>
0.0000

> <Gold.PLP.Chemscore.Metal>
0.0000

> <Gold.Chemscore.Hbonds>
donor molecule, donor type, donor heavy atom, donor atom, acceptor molecule, acceptor atom, score
      P1  H  6896  6907       L1     8  0.60
      P1  H  6931  6943       L1     9  1.19
      P1  H  6934  6947       L1     9  1.78

> <Gold.PLP.Chemscore.Internal.Correction>
0.1274

> <Gold.Rescore>
     Score         DG    S(hbond)    S(metal)    S(lipo)     H(rot)  DE(clash)    DE(int)     intcor
     13.77     -14.91       2.04        0.00      56.48       1.55       0.21       0.93       ----

> <Gold.Chemscore.Fitness>
13.7653

> <Gold.Chemscore.DG>
-14.9120

> <Gold.Chemscore.ZeroCoef>
-5.4800

> <Gold.Chemscore.Hbond>
2.0370

> <Gold.Chemscore.Metal>
0.0000

> <Gold.Chemscore.Lipo>
56.4811

> <Gold.Chemscore.Internal_Hbond>
0.0000

> <Gold.Chemscore.DEClash>
0.2147

> <Gold.Chemscore.DEInternal>
0.9321

> <Gold.Chemscore.Rot>
1.5546

> <Gold.Chemscore.Internal.Correction>
   9.000000E+99

> <Gold.Chemscore.Hbonds>
donor molecule, donor type, donor heavy atom, donor atom, acceptor molecule, acceptor atom, score
      P1  H  6896  6907       L1     8  0.51
      P1  H  6931  6943       L1     9  0.29
      P1  H  6934  6947       L1     9  0.54

> <Gold.Chemscore.Hbond.Weighted>
-6.8036

> <Gold.Chemscore.Metal.Weighted>
-0.0000

> <Gold.Chemscore.Lipo.Weighted>
-6.6083

> <Gold.Chemscore.Internal_Hbond.Weighted>
0.0000

> <Gold.Chemscore.DEClash.Weighted>
0.2147

> <Gold.Chemscore.DEInternal.Weighted>
0.9321

> <Gold.Chemscore.Rot.Weighted>
3.9798

> <Gold.Chemscore.Internal.Correction.Weighted>
   9.000000E+99

> <Gold.Protein.RotatedTorsions>
[ 6907 6896 6895 6894 ] final  -67.61 input  -60.11 | X-H torsion
[ 7974 7965 7964 7962 ] final   78.56 input  175.53 | X-H torsion
[ 8008 7997 7996 7995 ] final  -29.39 input   59.86 | X-H torsion
[ 10167 10162 10161 10158 ] final   32.94 input  -65.29 | X-H torsion
[ 10718 10713 10712 10709 ] final  110.03 input   66.30 | X-H torsion
[ 10763 10752 10751 10750 ] final  144.65 input  -60.55 | X-H torsion
[ 11005 11000 10999 10996 ] final    9.60 input  -57.11 | X-H torsion

> <Gold.Protein.ActiveResidues>
 VAL166  LYS551  ARG553  GLY616  TRP617  ASP618  TYR619  PRO620  LYS621  CYS622 
 ASP623  PHE694  ASN695  SER759  ASP760  ASP761  ALA762  ILE779  LEU786  VAL792 
 PHE793  MET794  SER795  GLU796  ALA797  LYS798  CYS799  TRP800  GLU811  SER814 

> <Gold.Protein.RotatedAtoms>
  150.7400  134.5856  159.5960 H   0  0  0  0  0  0  0  0  0  0  0  0  # atno 6907 bound_to 6896
  152.3258  134.7319  160.0311 H   0  0  0  0  0  0  0  0  0  0  0  0  # atno 6908 bound_to 6896
  151.7820  133.3315  159.3511 H   0  0  0  0  0  0  0  0  0  0  0  0  # atno 6909 bound_to 6896
  145.6756  139.2509  143.1843 H   0  0  0  0  0  0  0  0  0  0  0  0  # atno 7974 bound_to 7965
  154.4292  140.1819  156.1240 H   0  0  0  0  0  0  0  0  0  0  0  0  # atno 8008 bound_to 7997
  156.0120  140.3349  155.6925 H   0  0  0  0  0  0  0  0  0  0  0  0  # atno 8009 bound_to 7997
  155.6097  140.0649  157.2700 H   0  0  0  0  0  0  0  0  0  0  0  0  # atno 8010 bound_to 7997
  140.4453  144.1128  150.6181 H   0  0  0  0  0  0  0  0  0  0  0  0  # atno 10167 bound_to 10162
  157.6513  131.0925  150.6542 H   0  0  0  0  0  0  0  0  0  0  0  0  # atno 10718 bound_to 10713
  153.9924  135.2931  155.3410 H   0  0  0  0  0  0  0  0  0  0  0  0  # atno 10763 bound_to 10752
  154.7207  135.5110  153.8810 H   0  0  0  0  0  0  0  0  0  0  0  0  # atno 10764 bound_to 10752
  153.0804  135.6677  154.0174 H   0  0  0  0  0  0  0  0  0  0  0  0  # atno 10765 bound_to 10752
  140.5239  134.0532  155.7853 H   0  0  0  0  0  0  0  0  0  0  0  0  # atno 11005 bound_to 11000
  146.1008  140.7546  142.9550 LP  0  0  0  0  0  0  0  0  0  0  0  0  # atno 17320 bound_to 7965
  144.7042  140.3784  143.7131 LP  0  0  0  0  0  0  0  0  0  0  0  0  # atno 17321 bound_to 7965
  140.4271  143.2585  151.9642 LP  0  0  0  0  0  0  0  0  0  0  0  0  # atno 17342 bound_to 10162
  139.4792  144.5778  151.7983 LP  0  0  0  0  0  0  0  0  0  0  0  0  # atno 17343 bound_to 10162
  156.6853  130.4579  149.5616 LP  0  0  0  0  0  0  0  0  0  0  0  0  # atno 17370 bound_to 10713
  156.1900  130.6554  151.1050 LP  0  0  0  0  0  0  0  0  0  0  0  0  # atno 17371 bound_to 10713
  141.1319  133.9287  157.2517 LP  0  0  0  0  0  0  0  0  0  0  0  0  # atno 17394 bound_to 11000
  139.9591  135.0158  156.9210 LP  0  0  0  0  0  0  0  0  0  0  0  0  # atno 17395 bound_to 11000

$$$$
