AV-unprocessed.smi:837|AV-procd|sdf|3897|dock5
  -GOLD-   22720 1353D 1   1.00000     0.00000
 Structure written by MMmdl.
 50 52  0  0  0  0  0  0  0  0  2 V2000
  151.7390  138.3713  158.4103 C   0  0  0  0  0  0  0  0  0  0  0  0
  151.2570  139.8331  158.5207 C   0  0  1  0  0  0  0  0  0  0  0  0
  152.4564  140.8057  158.5156 C   0  0  0  0  0  0  0  0  0  0  0  0
  152.0083  142.2608  158.7221 C   0  0  0  0  0  0  0  0  0  0  0  0
  150.9738  142.6852  157.6704 C   0  0  0  0  0  0  0  0  0  0  0  0
  149.7679  141.7288  157.6584 C   0  0  0  0  0  0  0  0  0  0  0  0
  150.1713  140.2435  157.4758 C   0  0  2  0  0  0  0  0  0  0  0  0
  148.9918  139.4026  157.5863 N   0  0  0  0  0  0  0  0  0  0  0  0
  148.7047  138.7439  156.4572 C   0  0  0  0  0  0  0  0  0  0  0  0
  147.7465  137.9880  156.3010 O   0  0  0  0  0  0  0  0  0  0  0  0
  149.6361  139.0542  155.5386 N   0  0  0  0  0  0  0  0  0  0  0  0
  149.6375  138.5403  154.1631 C   0  0  0  0  0  0  0  0  0  0  0  0
  148.2863  138.7234  153.4591 C   0  0  0  0  0  0  0  0  0  0  0  0
  147.6745  139.7896  153.5345 O   0  0  0  0  0  0  0  0  0  0  0  0
  147.8324  137.6639  152.7732 N   0  0  0  0  0  0  0  0  0  0  0  0
  146.5623  137.6056  152.0548 C   0  0  0  0  0  0  0  0  0  0  0  0
  145.4292  136.9507  152.8723 C   0  0  0  0  0  0  0  0  0  0  0  0
  145.0455  135.5639  152.3842 C   0  0  0  0  0  0  0  0  0  0  0  0
  145.5543  135.0638  151.1645 C   0  0  0  0  0  0  0  0  0  0  0  0
  145.1730  133.7772  150.7313 C   0  0  0  0  0  0  0  0  0  0  0  0
  144.2951  133.0165  151.5298 C   0  0  0  0  0  0  0  0  0  0  0  0
  143.8314  133.5261  152.6921 N   0  3  0  0  0  0  0  0  0  0  0  0
  144.1705  134.7548  153.1407 C   0  0  0  0  0  0  0  0  0  0  0  0
  150.5343  139.9224  156.0242 C   0  0  0  0  0  0  0  0  0  0  0  0
  151.4966  140.3984  155.4215 O   0  0  0  0  0  0  0  0  0  0  0  0
  152.2635  138.1870  157.4725 H   0  0  0  0  0  0  0  0  0  0  0  0
  150.9093  137.6674  158.4741 H   0  0  0  0  0  0  0  0  0  0  0  0
  152.4282  138.1288  159.2195 H   0  0  0  0  0  0  0  0  0  0  0  0
  150.7911  139.9198  159.5038 H   0  0  0  0  0  0  0  0  0  0  0  0
  153.1558  140.5329  159.3067 H   0  0  0  0  0  0  0  0  0  0  0  0
  153.0120  140.7211  157.5814 H   0  0  0  0  0  0  0  0  0  0  0  0
  151.5803  142.3718  159.7192 H   0  0  0  0  0  0  0  0  0  0  0  0
  152.8724  142.9244  158.6818 H   0  0  0  0  0  0  0  0  0  0  0  0
  150.6352  143.7008  157.8767 H   0  0  0  0  0  0  0  0  0  0  0  0
  151.4411  142.7176  156.6862 H   0  0  0  0  0  0  0  0  0  0  0  0
  149.2224  141.8400  158.5967 H   0  0  0  0  0  0  0  0  0  0  0  0
  149.0739  142.0355  156.8740 H   0  0  0  0  0  0  0  0  0  0  0  0
  148.4452  139.3428  158.4330 H   0  0  0  0  0  0  0  0  0  0  0  0
  150.4069  139.0359  153.5688 H   0  0  0  0  0  0  0  0  0  0  0  0
  149.9053  137.4820  154.1713 H   0  0  0  0  0  0  0  0  0  0  0  0
  148.4061  136.8329  152.7533 H   0  0  0  0  0  0  0  0  0  0  0  0
  146.2691  138.6053  151.7302 H   0  0  0  0  0  0  0  0  0  0  0  0
  146.7332  137.0259  151.1474 H   0  0  0  0  0  0  0  0  0  0  0  0
  145.7209  136.8866  153.9213 H   0  0  0  0  0  0  0  0  0  0  0  0
  144.5459  137.5897  152.8496 H   0  0  0  0  0  0  0  0  0  0  0  0
  146.2224  135.6616  150.5613 H   0  0  0  0  0  0  0  0  0  0  0  0
  145.5475  133.3824  149.7980 H   0  0  0  0  0  0  0  0  0  0  0  0
  143.9520  132.0242  151.2754 H   0  0  0  0  0  0  0  0  0  0  0  0
  143.7329  135.0515  154.0828 H   0  0  0  0  0  0  0  0  0  0  0  0
  143.1975  132.9585  153.2553 H   0  0  0  0  0  0  0  0  0  0  0  0
  1  2  1  0  0  0  0
  1 26  1  0  0  0  0
  1 27  1  0  0  0  0
  1 28  1  0  0  0  0
  2  7  1  0  0  0  0
  2  3  1  0  0  0  0
  2 29  1  0  0  0  0
  3  4  1  0  0  0  0
  3 30  1  0  0  0  0
  3 31  1  0  0  0  0
  4  5  1  0  0  0  0
  4 32  1  0  0  0  0
  4 33  1  0  0  0  0
  5  6  1  0  0  0  0
  5 34  1  0  0  0  0
  5 35  1  0  0  0  0
  6  7  1  0  0  0  0
  6 36  1  0  0  0  0
  6 37  1  0  0  0  0
  7 24  1  0  0  0  0
  7  8  1  0  0  0  0
  8  9  1  0  0  0  0
  8 38  1  0  0  0  0
  9 10  2  0  0  0  0
  9 11  1  0  0  0  0
 11 12  1  0  0  0  0
 11 24  1  0  0  0  0
 12 13  1  0  0  0  0
 12 39  1  0  0  0  0
 12 40  1  0  0  0  0
 13 14  2  0  0  0  0
 13 15  1  0  0  0  0
 15 16  1  0  0  0  0
 15 41  1  0  0  0  0
 16 17  1  0  0  0  0
 16 42  1  0  0  0  0
 16 43  1  0  0  0  0
 17 18  1  0  0  0  0
 17 44  1  0  0  0  0
 17 45  1  0  0  0  0
 18 23  1  0  0  0  0
 18 19  2  0  0  0  0
 19 20  1  0  0  0  0
 19 46  1  0  0  0  0
 20 21  2  0  0  0  0
 20 47  1  0  0  0  0
 21 22  1  0  0  0  0
 21 48  1  0  0  0  0
 22 23  2  0  0  0  0
 22 50  1  0  0  0  0
 23 49  1  0  0  0  0
 24 25  2  0  0  0  0
M  CHG  1  22   1
M  END
> <s_m_source_file>
AV-unprocessed.smi

> <i_m_source_file_index>
837

> <i_lp_mmshare_version>
43012

> <i_f3d_flags>
0

> <s_epik_input>
W0NIMl0xW0NIMl1bQ0gyXVtDSDJdW0NAQEhdKFtDSDNdKVtDQEBdMTJbTkhdQyg9TylOKEMyPU8pW0NIMl1DKD1PKVtOSF1bQ0gyXVtDSDJdYzNbY0hdW2NIXVtjSF1uW2NIXTM=

> <s_epik_cmdline>
J2VwaWtfcHl0aG9uJywgJy1waCcsICc3LjAnLCAnLXRuJywgJzgnLCAnLW1hJywgJzIwMCcsICctbWV0YWxfYmluZGluZycsICctaW1hZScsICc8aW5maWxlLm1hZT4nLCAnLW9tYWUnLCAnPG91dGZpbGUubWFlPic=

> <r_lp_tautomer_probability>
1

> <r_epik_Ionization_Penalty>
2.28139

> <r_epik_Ionization_Penalty_Charging>
2.28135

> <r_epik_Ionization_Penalty_Neutral>
4.65525e-05

> <r_epik_State_Penalty>
2.43066

> <r_epik_Charging_Adjusted_Penalty>
4.71201

> <i_epik_Tot_Q>
1

> <i_epik_Tot_abs_Q>
1

> <r_epik_Metal_State_Penalty>
2.4646

> <b_epik_Metal_Only>
0

> <s_lp_Force_Field>
OPLS_2005

> <r_lp_Energy>
25.3405

> <b_lp_Chiralities_Consistent>
1

> <s_lp_Variant>
AV-unprocessed.smi:837-6

> <Gold.Version>
5.8.1

> <Gold.Id.Protein>
6NUR|6NUR_protein|mol2

> <Gold.PLP.Fitness>
44.1415

> <Gold.PLP.PLP>
-34.0657

> <Gold.PLP.part.hbond>
-3.0000

> <Gold.PLP.part.metal>
0.0000

> <Gold.PLP.part.buried>
-5.7444

> <Gold.PLP.part.nonpolar>
-26.8777

> <Gold.PLP.part.repulsive>
0.3583

> <Gold.PLP.ligand.clash>
0.0000

> <Gold.PLP.ligand.torsion>
0.8476

> <Gold.PLP.Chemscore.Hbond>
3.9120

> <Gold.PLP.Chemscore.CHOScore>
0.0000

> <Gold.PLP.Chemscore.Metal>
0.0000

> <Gold.Chemscore.Hbonds>
donor molecule, donor type, donor heavy atom, donor atom, acceptor molecule, acceptor atom, score
      L1  H    15    41       P1  7948  0.12
      L1  H    22    50       P1 10957  2.00
      P1  H  7989  7998       L1    25  0.88

> <Gold.PLP.Chemscore.Internal.Correction>
0.0350

> <Gold.Rescore>
     Score         DG    S(hbond)    S(metal)    S(lipo)     H(rot)  DE(clash)    DE(int)     intcor
     17.55     -19.04       2.85        0.00      77.54       1.96       0.02       1.48       ----

> <Gold.Chemscore.Fitness>
17.5453

> <Gold.Chemscore.DG>
-19.0434

> <Gold.Chemscore.ZeroCoef>
-5.4800

> <Gold.Chemscore.Hbond>
2.8501

> <Gold.Chemscore.Metal>
0.0000

> <Gold.Chemscore.Lipo>
77.5351

> <Gold.Chemscore.Internal_Hbond>
0.0000

> <Gold.Chemscore.DEClash>
0.0168

> <Gold.Chemscore.DEInternal>
1.4813

> <Gold.Chemscore.Rot>
1.9638

> <Gold.Chemscore.Internal.Correction>
   9.000000E+99

> <Gold.Chemscore.Hbonds>
donor molecule, donor type, donor heavy atom, donor atom, acceptor molecule, acceptor atom, score
      L1  H    15    41       P1  7948  0.13
      L1  H    22    50       P1 10957  0.66
      P1  H  7989  7998       L1    25  0.85

> <Gold.Chemscore.Hbond.Weighted>
-9.5193

> <Gold.Chemscore.Metal.Weighted>
-0.0000

> <Gold.Chemscore.Lipo.Weighted>
-9.0716

> <Gold.Chemscore.Internal_Hbond.Weighted>
0.0000

> <Gold.Chemscore.DEClash.Weighted>
0.0168

> <Gold.Chemscore.DEInternal.Weighted>
1.4813

> <Gold.Chemscore.Rot.Weighted>
5.0274

> <Gold.Chemscore.Internal.Correction.Weighted>
   9.000000E+99

> <Gold.Protein.RotatedTorsions>
[ 6907 6896 6895 6894 ] final  -51.47 input  -60.11 | X-H torsion
[ 7974 7965 7964 7962 ] final   92.63 input  175.53 | X-H torsion
[ 8008 7997 7996 7995 ] final   75.04 input   59.86 | X-H torsion
[ 10167 10162 10161 10158 ] final   99.71 input  -65.29 | X-H torsion
[ 10718 10713 10712 10709 ] final   -3.66 input   66.30 | X-H torsion
[ 10763 10752 10751 10750 ] final  -71.43 input  -60.55 | X-H torsion
[ 11005 11000 10999 10996 ] final  142.10 input  -57.11 | X-H torsion

> <Gold.Protein.ActiveResidues>
 VAL166  LYS551  ARG553  GLY616  TRP617  ASP618  TYR619  PRO620  LYS621  CYS622 
 ASP623  PHE694  ASN695  SER759  ASP760  ASP761  ALA762  ILE779  LEU786  VAL792 
 PHE793  MET794  SER795  GLU796  ALA797  LYS798  CYS799  TRP800  GLU811  SER814 

> <Gold.Protein.RotatedAtoms>
  150.8608  134.7960  159.7081 H   0  0  0  0  0  0  0  0  0  0  0  0  # atno 6907 bound_to 6896
  152.4646  134.5102  159.9761 H   0  0  0  0  0  0  0  0  0  0  0  0  # atno 6908 bound_to 6896
  151.5207  133.3429  159.2936 H   0  0  0  0  0  0  0  0  0  0  0  0  # atno 6909 bound_to 6896
  145.4897  139.2276  143.2836 H   0  0  0  0  0  0  0  0  0  0  0  0  # atno 7974 bound_to 7965
  155.8071  140.3474  155.5436 H   0  0  0  0  0  0  0  0  0  0  0  0  # atno 8008 bound_to 7997
  155.8478  140.0951  157.1714 H   0  0  0  0  0  0  0  0  0  0  0  0  # atno 8009 bound_to 7997
  154.4007  140.1382  156.3795 H   0  0  0  0  0  0  0  0  0  0  0  0  # atno 8010 bound_to 7997
  139.7592  144.6959  151.0317 H   0  0  0  0  0  0  0  0  0  0  0  0  # atno 10167 bound_to 10162
  156.7728  130.5305  149.5764 H   0  0  0  0  0  0  0  0  0  0  0  0  # atno 10718 bound_to 10713
  154.4316  135.5962  153.6072 H   0  0  0  0  0  0  0  0  0  0  0  0  # atno 10763 bound_to 10752
  152.9799  135.5976  154.3832 H   0  0  0  0  0  0  0  0  0  0  0  0  # atno 10764 bound_to 10752
  154.3671  135.2841  155.2266 H   0  0  0  0  0  0  0  0  0  0  0  0  # atno 10765 bound_to 10752
  140.0451  134.9285  157.0915 H   0  0  0  0  0  0  0  0  0  0  0  0  # atno 11005 bound_to 11000
  146.2291  140.5690  142.8983 LP  0  0  0  0  0  0  0  0  0  0  0  0  # atno 17320 bound_to 7965
  144.7841  140.5900  143.6586 LP  0  0  0  0  0  0  0  0  0  0  0  0  # atno 17321 bound_to 7965
  140.7805  143.4716  151.0138 LP  0  0  0  0  0  0  0  0  0  0  0  0  # atno 17342 bound_to 10162
  139.8403  143.7573  152.3180 LP  0  0  0  0  0  0  0  0  0  0  0  0  # atno 17343 bound_to 10162
  156.1267  130.6149  151.0274 LP  0  0  0  0  0  0  0  0  0  0  0  0  # atno 17370 bound_to 10713
  157.6683  131.0867  150.7675 LP  0  0  0  0  0  0  0  0  0  0  0  0  # atno 17371 bound_to 10713
  140.4006  134.2086  155.7163 LP  0  0  0  0  0  0  0  0  0  0  0  0  # atno 17394 bound_to 11000
  141.1903  133.8220  157.0924 LP  0  0  0  0  0  0  0  0  0  0  0  0  # atno 17395 bound_to 11000

$$$$
