AV-unprocessed.smi:66|AV-procd|sdf|620|dock6
  -GOLD-   2262016513D 1   1.00000     0.00000
 Structure written by MMmdl.
 28 30  0  0  0  0  0  0  0  0  2 V2000
  153.7577  139.6636  158.4138 O   0  0  0  0  0  0  0  0  0  0  0  0
  153.0280  140.5599  158.8906 C   0  0  0  0  0  0  0  0  0  0  0  0
  153.3366  141.3145  159.8402 O   0  5  0  0  0  0  0  0  0  0  0  0
  151.6402  140.7343  158.2525 C   0  0  1  0  0  0  0  0  0  0  0  0
  150.8783  141.9455  158.8203 C   0  0  0  0  0  0  0  0  0  0  0  0
  151.2070  143.0798  157.8510 C   0  0  2  0  0  0  0  0  0  0  0  0
  150.2370  144.1062  157.8650 O   0  0  0  0  0  0  0  0  0  0  0  0
  151.2787  142.3636  156.5029 C   0  0  0  0  0  0  0  0  0  0  0  0
  151.7342  141.0154  156.8160 N   0  0  0  0  0  0  0  0  0  0  0  0
  151.8327  140.0348  155.8761 C   0  0  0  0  0  0  0  0  0  0  0  0
  153.0547  139.4873  155.6360 N   0  0  0  0  0  0  0  0  0  0  0  0
  153.2086  138.5238  154.7240 C   0  0  0  0  0  0  0  0  0  0  0  0
  152.2861  137.9592  153.9438 N   0  0  0  0  0  0  0  0  0  0  0  0
  151.0586  138.5006  154.1743 C   0  0  0  0  0  0  0  0  0  0  0  0
  149.8670  138.1774  153.5612 N   0  0  0  0  0  0  0  0  0  0  0  0
  148.9181  138.9916  154.1256 C   0  0  0  0  0  0  0  0  0  0  0  0
  149.3741  139.8052  155.0389 N   0  0  0  0  0  0  0  0  0  0  0  0
  150.7389  139.5296  155.1084 C   0  0  0  0  0  0  0  0  0  0  0  0
  149.7759  137.4725  152.8442 H   0  0  0  0  0  0  0  0  0  0  0  0
  151.0530  139.8327  158.4333 H   0  0  0  0  0  0  0  0  0  0  0  0
  149.8080  141.7340  158.7999 H   0  0  0  0  0  0  0  0  0  0  0  0
  151.1440  142.1852  159.8510 H   0  0  0  0  0  0  0  0  0  0  0  0
  152.1816  143.5029  158.0979 H   0  0  0  0  0  0  0  0  0  0  0  0
  149.6803  144.0002  157.1088 H   0  0  0  0  0  0  0  0  0  0  0  0
  150.2951  142.3075  156.0338 H   0  0  0  0  0  0  0  0  0  0  0  0
  151.9614  142.8798  155.8276 H   0  0  0  0  0  0  0  0  0  0  0  0
  154.2159  138.1536  154.6033 H   0  0  0  0  0  0  0  0  0  0  0  0
  147.8774  138.9632  153.8377 H   0  0  0  0  0  0  0  0  0  0  0  0
  1  2  2  0  0  0  0
  2  3  1  0  0  0  0
  2  4  1  0  0  0  0
  4  5  1  0  0  0  0
  4 20  1  0  0  0  0
  4  9  1  0  0  0  0
  5  6  1  0  0  0  0
  5 21  1  0  0  0  0
  5 22  1  0  0  0  0
  6  7  1  0  0  0  0
  6  8  1  0  0  0  0
  6 23  1  0  0  0  0
  7 24  1  0  0  0  0
  8 25  1  0  0  0  0
  8 26  1  0  0  0  0
  8  9  1  0  0  0  0
  9 10  1  0  0  0  0
 10 11  1  0  0  0  0
 10 18  2  0  0  0  0
 11 12  2  0  0  0  0
 12 27  1  0  0  0  0
 12 13  1  0  0  0  0
 13 14  2  0  0  0  0
 14 15  1  0  0  0  0
 14 18  1  0  0  0  0
 15 16  1  0  0  0  0
 15 19  1  0  0  0  0
 16 17  2  0  0  0  0
 16 28  1  0  0  0  0
 17 18  1  0  0  0  0
M  CHG  1   3  -1
M  END
> <s_m_source_file>
AV-unprocessed.smi

> <i_m_source_file_index>
66

> <i_lp_mmshare_version>
43012

> <i_f3d_flags>
0

> <s_epik_input>
Tz1DKFtPSF0pW0NAQEhdMVtDSDJdW0NAQEhdKFtPSF0pW0NIMl1OMWMobltjSF1uMiljKGMyMylbbkhdW2NIXW4z

> <s_epik_cmdline>
J2VwaWtfcHl0aG9uJywgJy1waCcsICc3LjAnLCAnLXRuJywgJzgnLCAnLW1hJywgJzIwMCcsICctbWV0YWxfYmluZGluZycsICctaW1hZScsICc8aW5maWxlLm1hZT4nLCAnLW9tYWUnLCAnPG91dGZpbGUubWFlPic=

> <r_lp_tautomer_probability>
0.955585

> <r_epik_Ionization_Penalty>
0.00455415

> <r_epik_Ionization_Penalty_Charging>
0.000248217

> <r_epik_Ionization_Penalty_Neutral>
0.00430593

> <r_epik_State_Penalty>
0.0207074

> <r_epik_Charging_Adjusted_Penalty>
0.0209557

> <i_epik_Tot_Q>
-1

> <i_epik_Tot_abs_Q>
1

> <r_epik_Metal_State_Penalty>
0.337372

> <b_epik_Metal_Only>
0

> <s_lp_Force_Field>
OPLS_2005

> <r_lp_Energy>
24.8219

> <b_lp_Chiralities_Consistent>
1

> <s_lp_Variant>
AV-unprocessed.smi:66-4

> <Gold.Version>
5.8.1

> <Gold.Id.Protein>
6NUR|6NUR_protein|mol2

> <Gold.PLP.Fitness>
42.7313

> <Gold.PLP.PLP>
-30.7069

> <Gold.PLP.part.hbond>
-6.6545

> <Gold.PLP.part.metal>
0.0000

> <Gold.PLP.part.buried>
-4.6014

> <Gold.PLP.part.nonpolar>
-19.8256

> <Gold.PLP.part.repulsive>
0.2832

> <Gold.PLP.ligand.clash>
0.0000

> <Gold.PLP.ligand.torsion>
1.3459

> <Gold.PLP.Chemscore.Hbond>
4.8689

> <Gold.PLP.Chemscore.CHOScore>
0.0000

> <Gold.PLP.Chemscore.Metal>
0.0000

> <Gold.Chemscore.Hbonds>
donor molecule, donor type, donor heavy atom, donor atom, acceptor molecule, acceptor atom, score
      L1  H     7    24       P1  8028  0.96
      L1  H    15    19       P1  7948  1.00
      P1  H  7997  8008       L1    11  0.62
      P1  H  7997  8010       L1     1  1.92
      P1  H 10752 10763       L1    13  0.13

> <Gold.PLP.Chemscore.Internal.Correction>
0.1094

> <Gold.Rescore>
     Score         DG    S(hbond)    S(metal)    S(lipo)     H(rot)  DE(clash)    DE(int)     intcor
     12.38     -16.76       3.39        0.00      38.74       1.78       1.68       2.71       ----

> <Gold.Chemscore.Fitness>
12.3804

> <Gold.Chemscore.DG>
-16.7633

> <Gold.Chemscore.ZeroCoef>
-5.4800

> <Gold.Chemscore.Hbond>
3.3889

> <Gold.Chemscore.Metal>
0.0000

> <Gold.Chemscore.Lipo>
38.7363

> <Gold.Chemscore.Internal_Hbond>
0.0000

> <Gold.Chemscore.DEClash>
1.6763

> <Gold.Chemscore.DEInternal>
2.7066

> <Gold.Chemscore.Rot>
1.7842

> <Gold.Chemscore.Internal.Correction>
   9.000000E+99

> <Gold.Chemscore.Hbonds>
donor molecule, donor type, donor heavy atom, donor atom, acceptor molecule, acceptor atom, score
      L1  H     7    24       P1  8028  0.69
      L1  H    15    19       P1  7948  0.39
      P1  H  7997  8008       L1    11  0.22
      P1  H  7997  8010       L1     1  0.91
      P1  H 10752 10763       L1    13  0.03

> <Gold.Chemscore.Hbond.Weighted>
-11.3188

> <Gold.Chemscore.Metal.Weighted>
-0.0000

> <Gold.Chemscore.Lipo.Weighted>
-4.5322

> <Gold.Chemscore.Internal_Hbond.Weighted>
0.0000

> <Gold.Chemscore.DEClash.Weighted>
1.6763

> <Gold.Chemscore.DEInternal.Weighted>
2.7066

> <Gold.Chemscore.Rot.Weighted>
4.5676

> <Gold.Chemscore.Internal.Correction.Weighted>
   9.000000E+99

> <Gold.Protein.RotatedTorsions>
[ 6907 6896 6895 6894 ] final  114.80 input  -60.11 | X-H torsion
[ 7974 7965 7964 7962 ] final  -60.62 input  175.53 | X-H torsion
[ 8008 7997 7996 7995 ] final    5.03 input   59.86 | X-H torsion
[ 10167 10162 10161 10158 ] final   56.81 input  -65.29 | X-H torsion
[ 10718 10713 10712 10709 ] final  -67.39 input   66.30 | X-H torsion
[ 10763 10752 10751 10750 ] final   24.25 input  -60.55 | X-H torsion
[ 11005 11000 10999 10996 ] final   67.19 input  -57.11 | X-H torsion

> <Gold.Protein.ActiveResidues>
 VAL166  LYS551  ARG553  GLY616  TRP617  ASP618  TYR619  PRO620  LYS621  CYS622 
 ASP623  PHE694  ASN695  SER759  ASP760  ASP761  ALA762  ILE779  LEU786  VAL792 
 PHE793  MET794  SER795  GLU796  ALA797  LYS798  CYS799  TRP800  GLU811  SER814 

> <Gold.Protein.RotatedAtoms>
  152.4780  133.8185  159.7040 H   0  0  0  0  0  0  0  0  0  0  0  0  # atno 6907 bound_to 6896
  150.8810  133.7362  159.2938 H   0  0  0  0  0  0  0  0  0  0  0  0  # atno 6908 bound_to 6896
  151.4866  135.1059  159.9844 H   0  0  0  0  0  0  0  0  0  0  0  0  # atno 6909 bound_to 6896
  145.8134  140.8585  143.0170 H   0  0  0  0  0  0  0  0  0  0  0  0  # atno 7974 bound_to 7965
  154.7232  140.2716  155.6522 H   0  0  0  0  0  0  0  0  0  0  0  0  # atno 8008 bound_to 7997
  156.2829  140.2730  156.1835 H   0  0  0  0  0  0  0  0  0  0  0  0  # atno 8009 bound_to 7997
  155.0479  140.0371  157.2523 H   0  0  0  0  0  0  0  0  0  0  0  0  # atno 8010 bound_to 7997
  140.2048  144.3951  150.6514 H   0  0  0  0  0  0  0  0  0  0  0  0  # atno 10167 bound_to 10162
  156.0560  130.4277  150.1847 H   0  0  0  0  0  0  0  0  0  0  0  0  # atno 10718 bound_to 10713
  153.0777  135.6609  154.0110 H   0  0  0  0  0  0  0  0  0  0  0  0  # atno 10763 bound_to 10752
  153.9740  135.2962  155.3426 H   0  0  0  0  0  0  0  0  0  0  0  0  # atno 10764 bound_to 10752
  154.7170  135.5181  153.8823 H   0  0  0  0  0  0  0  0  0  0  0  0  # atno 10765 bound_to 10752
  139.9785  134.6782  156.0307 H   0  0  0  0  0  0  0  0  0  0  0  0  # atno 11005 bound_to 11000
  144.6755  140.0428  143.7480 LP  0  0  0  0  0  0  0  0  0  0  0  0  # atno 17320 bound_to 7965
  145.9753  139.2900  143.1074 LP  0  0  0  0  0  0  0  0  0  0  0  0  # atno 17321 bound_to 7965
  140.6365  143.2196  151.6383 LP  0  0  0  0  0  0  0  0  0  0  0  0  # atno 17342 bound_to 10162
  139.5203  144.3227  152.0896 LP  0  0  0  0  0  0  0  0  0  0  0  0  # atno 17343 bound_to 10162
  156.9923  130.9897  151.3411 LP  0  0  0  0  0  0  0  0  0  0  0  0  # atno 17370 bound_to 10713
  157.5530  130.8195  149.8169 LP  0  0  0  0  0  0  0  0  0  0  0  0  # atno 17371 bound_to 10713
  141.1460  133.6556  156.3869 LP  0  0  0  0  0  0  0  0  0  0  0  0  # atno 17394 bound_to 11000
  140.5144  134.6364  157.5296 LP  0  0  0  0  0  0  0  0  0  0  0  0  # atno 17395 bound_to 11000

$$$$
