AV-unprocessed.smi:2712|AV-procd|sdf|10475|dock7
  -GOLD-   2272014513D 1   1.00000     0.00000
 Structure written by MMmdl.
 52 53  0  0  0  0  0  0  0  0  1 V2000
  151.6112  145.3725  159.9268 C   0  0  0  0  0  0  0  0  0  0  0  0
  151.8413  143.9717  159.4424 C   0  0  0  0  0  0  0  0  0  0  0  0
  152.5043  142.9594  160.2420 C   0  0  0  0  0  0  0  0  0  0  0  0
  152.6749  141.7206  159.7326 C   0  0  0  0  0  0  0  0  0  0  0  0
  152.2088  141.3699  158.3926 C   0  0  0  0  0  0  0  0  0  0  0  0
  152.3509  140.2510  157.8995 O   0  0  0  0  0  0  0  0  0  0  0  0
  151.6030  142.4025  157.7340 N   0  0  0  0  0  0  0  0  0  0  0  0
  151.0918  142.2415  156.3649 C   0  0  0  0  0  0  0  0  0  0  0  0
  149.7539  141.4899  156.2911 C   0  0  0  0  0  0  0  0  0  0  0  0
  149.5593  140.4673  156.9504 O   0  0  0  0  0  0  0  0  0  0  0  0
  148.8345  142.0156  155.4666 N   0  0  0  0  0  0  0  0  0  0  0  0
  147.4971  141.4751  155.2292 C   0  0  1  0  0  0  0  0  0  0  0  0
  146.7156  141.4813  156.5562 C   0  0  0  0  0  0  0  0  0  0  0  0
  145.1972  141.3058  156.4042 C   0  0  0  0  0  0  0  0  0  0  0  0
  144.4481  142.6402  156.2231 C   0  0  0  0  0  0  0  0  0  0  0  0
  144.5918  143.3330  154.8387 C   0  0  1  0  0  0  0  0  0  0  0  0
  143.7480  144.6562  154.7152 C   0  0  0  0  0  0  0  0  0  0  0  0
  142.2296  144.3764  154.7514 C   0  0  0  0  0  0  0  0  0  0  0  0
  144.0724  145.4037  153.4008 C   0  0  0  0  0  0  0  0  0  0  0  0
  144.0949  145.6354  155.8623 C   0  0  0  0  0  0  0  0  0  0  0  0
  146.0846  143.5207  154.4426 C   0  0  0  0  0  0  0  0  0  0  0  0
  146.7957  142.2091  154.0648 C   0  0  0  0  0  0  0  0  0  0  0  0
  151.4238  143.6732  158.2560 N   0  0  0  0  0  0  0  0  0  0  0  0
  151.9395  145.4926  160.9593 H   0  0  0  0  0  0  0  0  0  0  0  0
  150.5530  145.6316  159.8811 H   0  0  0  0  0  0  0  0  0  0  0  0
  152.1617  146.0884  159.3154 H   0  0  0  0  0  0  0  0  0  0  0  0
  152.8564  143.2029  161.2336 H   0  0  0  0  0  0  0  0  0  0  0  0
  153.1704  140.9682  160.3285 H   0  0  0  0  0  0  0  0  0  0  0  0
  150.9773  143.2137  155.8824 H   0  0  0  0  0  0  0  0  0  0  0  0
  151.8238  141.7021  155.7606 H   0  0  0  0  0  0  0  0  0  0  0  0
  149.0779  142.8573  154.9649 H   0  0  0  0  0  0  0  0  0  0  0  0
  147.6085  140.4321  154.9265 H   0  0  0  0  0  0  0  0  0  0  0  0
  147.1040  140.6744  157.1790 H   0  0  0  0  0  0  0  0  0  0  0  0
  146.9162  142.3967  157.1152 H   0  0  0  0  0  0  0  0  0  0  0  0
  144.9571  140.6047  155.6041 H   0  0  0  0  0  0  0  0  0  0  0  0
  144.8242  140.8443  157.3193 H   0  0  0  0  0  0  0  0  0  0  0  0
  143.3985  142.4132  156.4027 H   0  0  0  0  0  0  0  0  0  0  0  0
  144.7435  143.3226  157.0196 H   0  0  0  0  0  0  0  0  0  0  0  0
  144.1584  142.6422  154.1140 H   0  0  0  0  0  0  0  0  0  0  0  0
  141.6591  145.3008  154.6544 H   0  0  0  0  0  0  0  0  0  0  0  0
  141.9226  143.9117  155.6883 H   0  0  0  0  0  0  0  0  0  0  0  0
  141.9155  143.7219  153.9389 H   0  0  0  0  0  0  0  0  0  0  0  0
  143.7053  144.8730  152.5225 H   0  0  0  0  0  0  0  0  0  0  0  0
  145.1461  145.5524  153.2810 H   0  0  0  0  0  0  0  0  0  0  0  0
  143.6043  146.3886  153.3759 H   0  0  0  0  0  0  0  0  0  0  0  0
  143.6249  146.6075  155.7085 H   0  0  0  0  0  0  0  0  0  0  0  0
  145.1700  145.8052  155.9310 H   0  0  0  0  0  0  0  0  0  0  0  0
  143.7498  145.2891  156.8350 H   0  0  0  0  0  0  0  0  0  0  0  0
  146.1583  144.1581  153.5655 H   0  0  0  0  0  0  0  0  0  0  0  0
  146.6363  144.0451  155.2234 H   0  0  0  0  0  0  0  0  0  0  0  0
  147.5265  142.4178  153.2823 H   0  0  0  0  0  0  0  0  0  0  0  0
  146.0821  141.5346  153.5909 H   0  0  0  0  0  0  0  0  0  0  0  0
  1  2  1  0  0  0  0
  1 24  1  0  0  0  0
  1 25  1  0  0  0  0
  1 26  1  0  0  0  0
  2 23  2  0  0  0  0
  2  3  1  0  0  0  0
  3  4  2  0  0  0  0
  3 27  1  0  0  0  0
  4  5  1  0  0  0  0
  4 28  1  0  0  0  0
  5  6  2  0  0  0  0
  5  7  1  0  0  0  0
  7  8  1  0  0  0  0
  7 23  1  0  0  0  0
  8  9  1  0  0  0  0
  8 29  1  0  0  0  0
  8 30  1  0  0  0  0
  9 10  2  0  0  0  0
  9 11  1  0  0  0  0
 11 12  1  0  0  0  0
 11 31  1  0  0  0  0
 12 22  1  0  0  0  0
 12 13  1  0  0  0  0
 12 32  1  0  0  0  0
 13 14  1  0  0  0  0
 13 33  1  0  0  0  0
 13 34  1  0  0  0  0
 14 15  1  0  0  0  0
 14 35  1  0  0  0  0
 14 36  1  0  0  0  0
 15 16  1  0  0  0  0
 15 37  1  0  0  0  0
 15 38  1  0  0  0  0
 16 17  1  0  0  0  0
 16 21  1  0  0  0  0
 16 39  1  0  0  0  0
 17 18  1  0  0  0  0
 17 19  1  0  0  0  0
 17 20  1  0  0  0  0
 18 40  1  0  0  0  0
 18 41  1  0  0  0  0
 18 42  1  0  0  0  0
 19 43  1  0  0  0  0
 19 44  1  0  0  0  0
 19 45  1  0  0  0  0
 20 46  1  0  0  0  0
 20 47  1  0  0  0  0
 20 48  1  0  0  0  0
 21 22  1  0  0  0  0
 21 49  1  0  0  0  0
 21 50  1  0  0  0  0
 22 51  1  0  0  0  0
 22 52  1  0  0  0  0
M  END
> <s_m_source_file>
AV-unprocessed.smi

> <i_m_source_file_index>
2712

> <i_lp_mmshare_version>
43012

> <i_f3d_flags>
0

> <s_epik_input>
W0NIM11jMVtjSF1bY0hdYyg9TyluKG4xKVtDSDJdQyg9TylbTkhdW0NAQEhdMltDSDJdW0NIMl1bQ0gyXVtDQEBIXShDKFtDSDNdKShbQ0gzXSlbQ0gzXSlbQ0gyXVtDSDJdMg==

> <s_epik_cmdline>
J2VwaWtfcHl0aG9uJywgJy1waCcsICc3LjAnLCAnLXRuJywgJzgnLCAnLW1hJywgJzIwMCcsICctbWV0YWxfYmluZGluZycsICctaW1hZScsICc8aW5maWxlLm1hZT4nLCAnLW9tYWUnLCAnPG91dGZpbGUubWFlPic=

> <r_lp_tautomer_probability>
1

> <r_epik_Ionization_Penalty>
8.71758e-07

> <r_epik_Ionization_Penalty_Charging>
8.50442e-07

> <r_epik_Ionization_Penalty_Neutral>
2.13165e-08

> <r_epik_State_Penalty>
-0

> <r_epik_Charging_Adjusted_Penalty>
8.50442e-07

> <i_epik_Tot_Q>
0

> <i_epik_Tot_abs_Q>
0

> <r_epik_Metal_State_Penalty>
-0

> <b_epik_Metal_Only>
0

> <s_lp_Force_Field>
OPLS_2005

> <r_lp_Energy>
40.0092

> <b_lp_Chiralities_Consistent>
1

> <s_lp_Variant>
AV-unprocessed.smi:2712-2

> <Gold.Version>
5.8.1

> <Gold.Id.Protein>
6NUR|6NUR_protein|mol2

> <Gold.PLP.Fitness>
44.3813

> <Gold.PLP.PLP>
-41.3447

> <Gold.PLP.part.hbond>
-1.9679

> <Gold.PLP.part.metal>
0.0000

> <Gold.PLP.part.buried>
-8.0623

> <Gold.PLP.part.nonpolar>
-31.4291

> <Gold.PLP.part.repulsive>
0.2583

> <Gold.PLP.ligand.clash>
0.0000

> <Gold.PLP.ligand.torsion>
0.6688

> <Gold.PLP.Chemscore.Hbond>
1.4296

> <Gold.PLP.Chemscore.CHOScore>
0.0000

> <Gold.PLP.Chemscore.Metal>
0.0000

> <Gold.Chemscore.Hbonds>
donor molecule, donor type, donor heavy atom, donor atom, acceptor molecule, acceptor atom, score
      L1  H    11    31       P1  8028  0.53
      P1  H  7997  8010       L1     6  0.16

> <Gold.PLP.Chemscore.Internal.Correction>
0.0853

> <Gold.Rescore>
     Score         DG    S(hbond)    S(metal)    S(lipo)     H(rot)  DE(clash)    DE(int)     intcor
     16.39     -18.65       1.80        0.00      94.39       1.52       0.04       2.22       ----

> <Gold.Chemscore.Fitness>
16.3853

> <Gold.Chemscore.DG>
-18.6474

> <Gold.Chemscore.ZeroCoef>
-5.4800

> <Gold.Chemscore.Hbond>
1.7981

> <Gold.Chemscore.Metal>
0.0000

> <Gold.Chemscore.Lipo>
94.3875

> <Gold.Chemscore.Internal_Hbond>
0.0000

> <Gold.Chemscore.DEClash>
0.0385

> <Gold.Chemscore.DEInternal>
2.2236

> <Gold.Chemscore.Rot>
1.5162

> <Gold.Chemscore.Internal.Correction>
   9.000000E+99

> <Gold.Chemscore.Hbonds>
donor molecule, donor type, donor heavy atom, donor atom, acceptor molecule, acceptor atom, score
      L1  H    11    31       P1  8028  0.51
      P1  H  7997  8010       L1     6  0.13

> <Gold.Chemscore.Hbond.Weighted>
-6.0055

> <Gold.Chemscore.Metal.Weighted>
-0.0000

> <Gold.Chemscore.Lipo.Weighted>
-11.0433

> <Gold.Chemscore.Internal_Hbond.Weighted>
0.0000

> <Gold.Chemscore.DEClash.Weighted>
0.0385

> <Gold.Chemscore.DEInternal.Weighted>
2.2236

> <Gold.Chemscore.Rot.Weighted>
3.8814

> <Gold.Chemscore.Internal.Correction.Weighted>
   9.000000E+99

> <Gold.Protein.RotatedTorsions>
[ 6907 6896 6895 6894 ] final   86.92 input  -60.11 | X-H torsion
[ 7974 7965 7964 7962 ] final   51.97 input  175.53 | X-H torsion
[ 8008 7997 7996 7995 ] final   52.54 input   59.86 | X-H torsion
[ 10167 10162 10161 10158 ] final  150.73 input  -65.29 | X-H torsion
[ 10718 10713 10712 10709 ] final  -97.90 input   66.30 | X-H torsion
[ 10763 10752 10751 10750 ] final -106.22 input  -60.55 | X-H torsion
[ 11005 11000 10999 10996 ] final  158.93 input  -57.11 | X-H torsion

> <Gold.Protein.ActiveResidues>
 VAL166  LYS551  ARG553  GLY616  TRP617  ASP618  TYR619  PRO620  LYS621  CYS622 
 ASP623  PHE694  ASN695  SER759  ASP760  ASP761  ALA762  ILE779  LEU786  VAL792 
 PHE793  MET794  SER795  GLU796  ALA797  LYS798  CYS799  TRP800  GLU811  SER814 

> <Gold.Protein.RotatedAtoms>
  152.5402  134.2357  159.8842 H   0  0  0  0  0  0  0  0  0  0  0  0  # atno 6907 bound_to 6896
  151.2327  133.4435  159.2612 H   0  0  0  0  0  0  0  0  0  0  0  0  # atno 6908 bound_to 6896
  151.0700  134.9806  159.8360 H   0  0  0  0  0  0  0  0  0  0  0  0  # atno 6909 bound_to 6896
  145.9860  139.4290  143.0102 H   0  0  0  0  0  0  0  0  0  0  0  0  # atno 7974 bound_to 7965
  155.4535  140.3459  155.4304 H   0  0  0  0  0  0  0  0  0  0  0  0  # atno 8008 bound_to 7997
  156.1205  140.1486  156.9240 H   0  0  0  0  0  0  0  0  0  0  0  0  # atno 8009 bound_to 7997
  154.4820  140.0867  156.7379 H   0  0  0  0  0  0  0  0  0  0  0  0  # atno 8010 bound_to 7997
  139.4847  144.5499  151.7420 H   0  0  0  0  0  0  0  0  0  0  0  0  # atno 10167 bound_to 10162
  156.0094  130.5214  150.6443 H   0  0  0  0  0  0  0  0  0  0  0  0  # atno 10718 bound_to 10713
  154.7998  135.4720  154.0247 H   0  0  0  0  0  0  0  0  0  0  0  0  # atno 10763 bound_to 10752
  153.1762  135.6833  153.8547 H   0  0  0  0  0  0  0  0  0  0  0  0  # atno 10764 bound_to 10752
  153.8112  135.3216  155.3378 H   0  0  0  0  0  0  0  0  0  0  0  0  # atno 10765 bound_to 10752
  140.1913  134.8405  157.2915 H   0  0  0  0  0  0  0  0  0  0  0  0  # atno 11005 bound_to 11000
  145.7699  140.9900  143.1155 LP  0  0  0  0  0  0  0  0  0  0  0  0  # atno 17320 bound_to 7965
  144.6875  139.9435  143.7476 LP  0  0  0  0  0  0  0  0  0  0  0  0  # atno 17321 bound_to 7965
  140.5051  144.1110  150.5980 LP  0  0  0  0  0  0  0  0  0  0  0  0  # atno 17342 bound_to 10162
  140.4017  143.2700  151.9940 LP  0  0  0  0  0  0  0  0  0  0  0  0  # atno 17343 bound_to 10162
  157.4217  131.0837  151.1124 LP  0  0  0  0  0  0  0  0  0  0  0  0  # atno 17370 bound_to 10713
  157.1724  130.6273  149.5645 LP  0  0  0  0  0  0  0  0  0  0  0  0  # atno 17371 bound_to 10713
  140.2157  134.4085  155.7590 LP  0  0  0  0  0  0  0  0  0  0  0  0  # atno 17394 bound_to 11000
  141.2226  133.7140  156.8409 LP  0  0  0  0  0  0  0  0  0  0  0  0  # atno 17395 bound_to 11000

$$$$
