AV-unprocessed.smi:1196|AV-procd|sdf|4998|dock6
  -GOLD-   22720 4 03D 1   1.00000     0.00000
 Structure written by MMmdl.
 37 38  0  0  0  0  0  0  0  0  1 V2000
  154.7544  140.3515  161.0974 C   0  0  0  0  0  0  0  0  0  0  0  0
  153.7457  141.1422  160.2497 C   0  0  2  0  0  0  0  0  0  0  0  0
  153.3024  142.4360  160.9604 C   0  0  0  0  0  0  0  0  0  0  0  0
  152.5003  143.2933  160.1052 N   0  0  0  0  0  0  0  0  0  0  0  0
  152.8168  143.8031  158.8633 C   0  0  0  0  0  0  0  0  0  0  0  0
  151.7555  144.5565  158.4511 C   0  0  0  0  0  0  0  0  0  0  0  0
  150.8248  144.4434  159.5214 C   0  0  0  0  0  0  0  0  0  0  0  0
  151.2727  143.6853  160.5091 N   0  0  0  0  0  0  0  0  0  0  0  0
  152.5807  140.3105  159.9530 N   0  0  0  0  0  0  0  0  0  0  0  0
  152.3250  139.7205  158.7758 C   0  0  0  0  0  0  0  0  0  0  0  0
  153.0827  139.7901  157.8074 O   0  0  0  0  0  0  0  0  0  0  0  0
  151.0074  138.9434  158.6949 C   0  0  0  0  0  0  0  0  0  0  0  0
  150.3905  138.9146  157.2824 C   0  0  0  0  0  0  0  0  0  0  0  0
  151.3105  138.2600  156.2340 C   0  0  1  0  0  0  0  0  0  0  0  0
  151.3384  136.8108  156.3375 N   0  0  0  0  0  0  0  0  0  0  0  0
  150.9168  136.2083  155.2174 C   0  0  0  0  0  0  0  0  0  0  0  0
  150.8416  134.9957  155.0345 O   0  0  0  0  0  0  0  0  0  0  0  0
  150.5921  137.1591  154.3347 N   0  0  0  0  0  0  0  0  0  0  0  0
  150.7718  138.3863  154.8199 C   0  0  0  0  0  0  0  0  0  0  0  0
  150.5474  139.4497  154.2450 O   0  0  0  0  0  0  0  0  0  0  0  0
  155.6366  140.9531  161.3176 H   0  0  0  0  0  0  0  0  0  0  0  0
  155.0923  139.4550  160.5766 H   0  0  0  0  0  0  0  0  0  0  0  0
  154.3179  140.0408  162.0471 H   0  0  0  0  0  0  0  0  0  0  0  0
  154.2361  141.4212  159.3150 H   0  0  0  0  0  0  0  0  0  0  0  0
  152.7293  142.2036  161.8592 H   0  0  0  0  0  0  0  0  0  0  0  0
  154.1748  143.0040  161.2866 H   0  0  0  0  0  0  0  0  0  0  0  0
  153.7612  143.5921  158.3836 H   0  0  0  0  0  0  0  0  0  0  0  0
  151.6582  145.1050  157.5260 H   0  0  0  0  0  0  0  0  0  0  0  0
  149.8439  144.8867  159.6094 H   0  0  0  0  0  0  0  0  0  0  0  0
  151.9038  140.1975  160.6935 H   0  0  0  0  0  0  0  0  0  0  0  0
  151.1849  137.9231  159.0375 H   0  0  0  0  0  0  0  0  0  0  0  0
  150.3072  139.3942  159.3991 H   0  0  0  0  0  0  0  0  0  0  0  0
  149.4336  138.3896  157.3097 H   0  0  0  0  0  0  0  0  0  0  0  0
  150.1688  139.9359  156.9684 H   0  0  0  0  0  0  0  0  0  0  0  0
  152.3239  138.6605  156.2852 H   0  0  0  0  0  0  0  0  0  0  0  0
  151.6438  136.3242  157.1679 H   0  0  0  0  0  0  0  0  0  0  0  0
  150.2404  136.9678  153.4079 H   0  0  0  0  0  0  0  0  0  0  0  0
  1  2  1  0  0  0  0
  1 21  1  0  0  0  0
  1 22  1  0  0  0  0
  1 23  1  0  0  0  0
  2  3  1  0  0  0  0
  2  9  1  0  0  0  0
  2 24  1  0  0  0  0
  3  4  1  0  0  0  0
  3 25  1  0  0  0  0
  3 26  1  0  0  0  0
  4  8  1  0  0  0  0
  4  5  1  0  0  0  0
  5  6  2  0  0  0  0
  5 27  1  0  0  0  0
  6  7  1  0  0  0  0
  6 28  1  0  0  0  0
  7  8  2  0  0  0  0
  7 29  1  0  0  0  0
  9 10  1  0  0  0  0
  9 30  1  0  0  0  0
 10 11  2  0  0  0  0
 10 12  1  0  0  0  0
 12 13  1  0  0  0  0
 12 31  1  0  0  0  0
 12 32  1  0  0  0  0
 13 14  1  0  0  0  0
 13 33  1  0  0  0  0
 13 34  1  0  0  0  0
 14 19  1  0  0  0  0
 14 15  1  0  0  0  0
 14 35  1  0  0  0  0
 15 16  1  0  0  0  0
 15 36  1  0  0  0  0
 16 17  2  0  0  0  0
 16 18  1  0  0  0  0
 18 19  1  0  0  0  0
 18 37  1  0  0  0  0
 19 20  2  0  0  0  0
M  END
> <s_m_source_file>
AV-unprocessed.smi

> <i_m_source_file_index>
1196

> <i_lp_mmshare_version>
43012

> <i_f3d_flags>
0

> <s_epik_input>
bjFbY0hdW2NIXVtjSF1uMVtDSDJdW0NAQEhdKFtDSDNdKVtOSF1DKD1PKVtDSDJdW0NIMl1bQ0BASF0yW05IXUMoPU8pW05IXUMyPU8=

> <s_epik_cmdline>
J2VwaWtfcHl0aG9uJywgJy1waCcsICc3LjAnLCAnLXRuJywgJzgnLCAnLW1hJywgJzIwMCcsICctbWV0YWxfYmluZGluZycsICctaW1hZScsICc8aW5maWxlLm1hZT4nLCAnLW9tYWUnLCAnPG91dGZpbGUubWFlPic=

> <r_lp_tautomer_probability>
1

> <r_epik_Ionization_Penalty>
0.00815973

> <r_epik_Ionization_Penalty_Charging>
0

> <r_epik_Ionization_Penalty_Neutral>
0.00815973

> <r_epik_State_Penalty>
0.00583796

> <r_epik_Charging_Adjusted_Penalty>
0.00583796

> <i_epik_Tot_Q>
0

> <i_epik_Tot_abs_Q>
0

> <r_epik_Metal_State_Penalty>
0.409204

> <b_epik_Metal_Only>
0

> <s_lp_Force_Field>
OPLS_2005

> <r_lp_Energy>
16.3903

> <b_lp_Chiralities_Consistent>
1

> <s_lp_Variant>
AV-unprocessed.smi:1196-3

> <Gold.Version>
5.8.1

> <Gold.Id.Protein>
6NUR|6NUR_protein|mol2

> <Gold.PLP.Fitness>
47.4354

> <Gold.PLP.PLP>
-39.7094

> <Gold.PLP.part.hbond>
-4.0096

> <Gold.PLP.part.metal>
0.0000

> <Gold.PLP.part.buried>
-5.8707

> <Gold.PLP.part.nonpolar>
-30.9694

> <Gold.PLP.part.repulsive>
1.2749

> <Gold.PLP.ligand.clash>
0.0000

> <Gold.PLP.ligand.torsion>
0.6730

> <Gold.PLP.Chemscore.Hbond>
3.0000

> <Gold.PLP.Chemscore.CHOScore>
0.0000

> <Gold.PLP.Chemscore.Metal>
0.0000

> <Gold.Chemscore.Hbonds>
donor molecule, donor type, donor heavy atom, donor atom, acceptor molecule, acceptor atom, score
      L1  H    18    37       P1  7948  0.59
      P1  H  7989  7998       L1    20  1.00
      P1  H  7997  8010       L1    11  1.00

> <Gold.PLP.Chemscore.Internal.Correction>
0.0719

> <Gold.Rescore>
     Score         DG    S(hbond)    S(metal)    S(lipo)     H(rot)  DE(clash)    DE(int)     intcor
     16.47     -17.49       2.93        0.00      83.59       2.96       0.22       0.80       ----

> <Gold.Chemscore.Fitness>
16.4734

> <Gold.Chemscore.DG>
-17.4882

> <Gold.Chemscore.ZeroCoef>
-5.4800

> <Gold.Chemscore.Hbond>
2.9339

> <Gold.Chemscore.Metal>
0.0000

> <Gold.Chemscore.Lipo>
83.5925

> <Gold.Chemscore.Internal_Hbond>
0.0000

> <Gold.Chemscore.DEClash>
0.2164

> <Gold.Chemscore.DEInternal>
0.7984

> <Gold.Chemscore.Rot>
2.9575

> <Gold.Chemscore.Internal.Correction>
   9.000000E+99

> <Gold.Chemscore.Hbonds>
donor molecule, donor type, donor heavy atom, donor atom, acceptor molecule, acceptor atom, score
      L1  H    18    37       P1  7948  0.06
      P1  H  7989  7998       L1    20  0.99
      P1  H  7997  8010       L1    11  1.00

> <Gold.Chemscore.Hbond.Weighted>
-9.7992

> <Gold.Chemscore.Metal.Weighted>
-0.0000

> <Gold.Chemscore.Lipo.Weighted>
-9.7803

> <Gold.Chemscore.Internal_Hbond.Weighted>
0.0000

> <Gold.Chemscore.DEClash.Weighted>
0.2164

> <Gold.Chemscore.DEInternal.Weighted>
0.7984

> <Gold.Chemscore.Rot.Weighted>
7.5713

> <Gold.Chemscore.Internal.Correction.Weighted>
   9.000000E+99

> <Gold.Protein.RotatedTorsions>
[ 6907 6896 6895 6894 ] final  -26.34 input  -60.11 | X-H torsion
[ 7974 7965 7964 7962 ] final   62.19 input  175.53 | X-H torsion
[ 8008 7997 7996 7995 ] final   44.37 input   59.86 | X-H torsion
[ 10167 10162 10161 10158 ] final  -99.60 input  -65.29 | X-H torsion
[ 10718 10713 10712 10709 ] final   82.59 input   66.30 | X-H torsion
[ 10763 10752 10751 10750 ] final -149.87 input  -60.55 | X-H torsion
[ 11005 11000 10999 10996 ] final   79.24 input  -57.11 | X-H torsion

> <Gold.Protein.ActiveResidues>
 VAL166  LYS551  ARG553  GLY616  TRP617  ASP618  TYR619  PRO620  LYS621  CYS622 
 ASP623  PHE694  ASN695  SER759  ASP760  ASP761  ALA762  ILE779  LEU786  VAL792 
 PHE793  MET794  SER795  GLU796  ALA797  LYS798  CYS799  TRP800  GLU811  SER814 

> <Gold.Protein.RotatedAtoms>
  151.1624  135.0279  159.8715 H   0  0  0  0  0  0  0  0  0  0  0  0  # atno 6907 bound_to 6896
  152.5451  134.1264  159.8431 H   0  0  0  0  0  0  0  0  0  0  0  0  # atno 6908 bound_to 6896
  151.1361  133.4957  159.2630 H   0  0  0  0  0  0  0  0  0  0  0  0  # atno 6909 bound_to 6896
  145.8762  139.3412  143.0733 H   0  0  0  0  0  0  0  0  0  0  0  0  # atno 7974 bound_to 7965
  155.3182  140.3395  155.4242 H   0  0  0  0  0  0  0  0  0  0  0  0  # atno 8008 bound_to 7997
  156.1922  140.1702  156.8107 H   0  0  0  0  0  0  0  0  0  0  0  0  # atno 8009 bound_to 7997
  154.5456  140.0716  156.8566 H   0  0  0  0  0  0  0  0  0  0  0  0  # atno 8010 bound_to 7997
  140.2608  143.3409  152.0628 H   0  0  0  0  0  0  0  0  0  0  0  0  # atno 10167 bound_to 10162
  157.6860  131.0054  150.2398 H   0  0  0  0  0  0  0  0  0  0  0  0  # atno 10718 bound_to 10713
  154.8152  135.3298  154.7196 H   0  0  0  0  0  0  0  0  0  0  0  0  # atno 10763 bound_to 10752
  153.7838  135.6916  153.4888 H   0  0  0  0  0  0  0  0  0  0  0  0  # atno 10764 bound_to 10752
  153.1962  135.4532  155.0158 H   0  0  0  0  0  0  0  0  0  0  0  0  # atno 10765 bound_to 10752
  139.9180  134.7827  156.1753 H   0  0  0  0  0  0  0  0  0  0  0  0  # atno 11005 bound_to 11000
  145.9078  140.9200  143.0470 LP  0  0  0  0  0  0  0  0  0  0  0  0  # atno 17320 bound_to 7965
  144.6726  140.1119  143.7455 LP  0  0  0  0  0  0  0  0  0  0  0  0  # atno 17321 bound_to 7965
  139.5017  144.6720  151.6220 LP  0  0  0  0  0  0  0  0  0  0  0  0  # atno 17342 bound_to 10162
  140.5968  143.9682  150.6359 LP  0  0  0  0  0  0  0  0  0  0  0  0  # atno 17343 bound_to 10162
  156.3014  130.3759  149.7747 LP  0  0  0  0  0  0  0  0  0  0  0  0  # atno 17370 bound_to 10713
  156.5375  130.8285  151.3258 LP  0  0  0  0  0  0  0  0  0  0  0  0  # atno 17371 bound_to 10713
  141.0675  133.6812  156.2074 LP  0  0  0  0  0  0  0  0  0  0  0  0  # atno 17394 bound_to 11000
  140.6561  134.5017  157.5580 LP  0  0  0  0  0  0  0  0  0  0  0  0  # atno 17395 bound_to 11000

$$$$
