AV-unprocessed.smi:330|AV-procd|sdf|2349|dock1
  -GOLD-   2262022263D 1   1.00000     0.00000
 Structure written by MMmdl.
 36 38  0  0  0  0  0  0  0  0  1 V2000
  151.4313  144.2761  160.6770 C   0  0  0  0  0  0  0  0  0  0  0  0
  152.3229  143.0489  160.7617 C   0  0  0  0  0  0  0  0  0  0  0  0
  152.9415  142.6104  161.8630 C   0  0  0  0  0  0  0  0  0  0  0  0
  153.8572  141.1487  161.5869 S   0  0  0  0  0  0  0  0  0  0  0  0
  153.3515  141.1477  159.8591 C   0  0  0  0  0  0  0  0  0  0  0  0
  153.7050  140.2809  159.0612 O   0  0  0  0  0  0  0  0  0  0  0  0
  152.5360  142.2550  159.6260 N   0  0  0  0  0  0  0  0  0  0  0  0
  151.9592  142.5561  158.3091 C   0  0  0  0  0  0  0  0  0  0  0  0
  151.2555  141.3539  157.6658 C   0  0  0  0  0  0  0  0  0  0  0  0
  151.3586  140.2249  158.1476 O   0  0  0  0  0  0  0  0  0  0  0  0
  150.5399  141.6215  156.5627 N   0  0  0  0  0  0  0  0  0  0  0  0
  149.7866  140.6475  155.7800 C   0  0  0  0  0  0  0  0  0  0  0  0
  150.6862  139.6207  155.1125 C   0  0  0  0  0  0  0  0  0  0  0  0
  150.1156  138.5088  154.2637 C   0  0  0  0  0  0  0  0  0  0  0  0
  150.7470  138.1925  155.6003 C   0  0  0  0  0  0  0  0  0  0  0  0
  148.9008  141.3246  154.7504 C   0  0  0  0  0  0  0  0  0  0  0  0
  147.4434  141.5967  155.0354 C   0  0  0  0  0  0  0  0  0  0  0  0
  147.8319  140.5593  154.0062 C   0  0  0  0  0  0  0  0  0  0  0  0
  151.1300  144.5951  161.6752 H   0  0  0  0  0  0  0  0  0  0  0  0
  150.5225  144.0756  160.1096 H   0  0  0  0  0  0  0  0  0  0  0  0
  151.9656  145.1007  160.2049 H   0  0  0  0  0  0  0  0  0  0  0  0
  152.9048  143.0651  162.8418 H   0  0  0  0  0  0  0  0  0  0  0  0
  151.2669  143.3957  158.3753 H   0  0  0  0  0  0  0  0  0  0  0  0
  152.7484  142.8872  157.6322 H   0  0  0  0  0  0  0  0  0  0  0  0
  150.5145  142.5774  156.2387 H   0  0  0  0  0  0  0  0  0  0  0  0
  149.1206  140.1068  156.4557 H   0  0  0  0  0  0  0  0  0  0  0  0
  151.6290  140.0375  154.7627 H   0  0  0  0  0  0  0  0  0  0  0  0
  149.0332  138.4228  154.1925 H   0  0  0  0  0  0  0  0  0  0  0  0
  150.6657  138.2280  153.3681 H   0  0  0  0  0  0  0  0  0  0  0  0
  151.7186  137.7029  155.5960 H   0  0  0  0  0  0  0  0  0  0  0  0
  150.0824  137.9022  156.4115 H   0  0  0  0  0  0  0  0  0  0  0  0
  149.4162  142.0904  154.1733 H   0  0  0  0  0  0  0  0  0  0  0  0
  147.0360  141.2396  155.9793 H   0  0  0  0  0  0  0  0  0  0  0  0
  147.0282  142.5353  154.6736 H   0  0  0  0  0  0  0  0  0  0  0  0
  147.6752  140.8060  152.9583 H   0  0  0  0  0  0  0  0  0  0  0  0
  147.6743  139.5150  154.2683 H   0  0  0  0  0  0  0  0  0  0  0  0
  1  2  1  0  0  0  0
  1 19  1  0  0  0  0
  1 20  1  0  0  0  0
  1 21  1  0  0  0  0
  2  7  1  0  0  0  0
  2  3  2  0  0  0  0
  3  4  1  0  0  0  0
  3 22  1  0  0  0  0
  4  5  1  0  0  0  0
  5  6  2  0  0  0  0
  5  7  1  0  0  0  0
  7  8  1  0  0  0  0
  8  9  1  0  0  0  0
  8 23  1  0  0  0  0
  8 24  1  0  0  0  0
  9 10  2  0  0  0  0
  9 11  1  0  0  0  0
 11 12  1  0  0  0  0
 11 25  1  0  0  0  0
 12 13  1  0  0  0  0
 12 16  1  0  0  0  0
 12 26  1  0  0  0  0
 13 15  1  0  0  0  0
 13 14  1  0  0  0  0
 13 27  1  0  0  0  0
 14 15  1  0  0  0  0
 14 28  1  0  0  0  0
 14 29  1  0  0  0  0
 15 30  1  0  0  0  0
 15 31  1  0  0  0  0
 16 18  1  0  0  0  0
 16 17  1  0  0  0  0
 16 32  1  0  0  0  0
 17 18  1  0  0  0  0
 17 33  1  0  0  0  0
 17 34  1  0  0  0  0
 18 35  1  0  0  0  0
 18 36  1  0  0  0  0
M  END
> <s_m_source_file>
AV-unprocessed.smi

> <i_m_source_file_index>
330

> <i_lp_mmshare_version>
43012

> <i_f3d_flags>
0

> <s_epik_input>
W0NIM11jMVtjSF1zYyg9TyluMVtDSDJdQyg9TylbTkhdW0NIXShbQ0hdMltDSDJdW0NIMl0yKVtDSF0zW0NIMl1bQ0gyXTM=

> <s_epik_cmdline>
J2VwaWtfcHl0aG9uJywgJy1waCcsICc3LjAnLCAnLXRuJywgJzgnLCAnLW1hJywgJzIwMCcsICctbWV0YWxfYmluZGluZycsICctaW1hZScsICc8aW5maWxlLm1hZT4nLCAnLW9tYWUnLCAnPG91dGZpbGUubWFlPic=

> <r_lp_tautomer_probability>
1

> <r_epik_Ionization_Penalty>
1.36851e-06

> <r_epik_Ionization_Penalty_Charging>
1.26835e-06

> <r_epik_Ionization_Penalty_Neutral>
1.00162e-07

> <r_epik_State_Penalty>
-0

> <r_epik_Charging_Adjusted_Penalty>
1.26835e-06

> <i_epik_Tot_Q>
0

> <i_epik_Tot_abs_Q>
0

> <r_epik_Metal_State_Penalty>
-0

> <b_epik_Metal_Only>
0

> <s_lp_Force_Field>
OPLS_2005

> <r_lp_Energy>
27.3766

> <b_lp_Chiralities_Consistent>
1

> <s_lp_Variant>
AV-unprocessed.smi:330-1

> <Gold.Version>
5.8.1

> <Gold.Id.Protein>
6NUR|6NUR_protein|mol2

> <Gold.PLP.Fitness>
45.5119

> <Gold.PLP.PLP>
-43.7052

> <Gold.PLP.part.hbond>
-1.0000

> <Gold.PLP.part.metal>
0.0000

> <Gold.PLP.part.buried>
-2.5820

> <Gold.PLP.part.nonpolar>
-39.5524

> <Gold.PLP.part.repulsive>
0.0880

> <Gold.PLP.ligand.clash>
0.0000

> <Gold.PLP.ligand.torsion>
1.5461

> <Gold.PLP.Chemscore.Hbond>
0.8882

> <Gold.PLP.Chemscore.CHOScore>
0.0000

> <Gold.PLP.Chemscore.Metal>
0.0000

> <Gold.Chemscore.Hbonds>
donor molecule, donor type, donor heavy atom, donor atom, acceptor molecule, acceptor atom, score
      P1  H  7997  8010       L1     6  0.57

> <Gold.PLP.Chemscore.Internal.Correction>
2.2345

> <Gold.Rescore>
     Score         DG    S(hbond)    S(metal)    S(lipo)     H(rot)  DE(clash)    DE(int)     intcor
     11.77     -16.03       0.89        0.00     101.59       1.69       0.09       4.17       ----

> <Gold.Chemscore.Fitness>
11.7688

> <Gold.Chemscore.DG>
-16.0321

> <Gold.Chemscore.ZeroCoef>
-5.4800

> <Gold.Chemscore.Hbond>
0.8936

> <Gold.Chemscore.Metal>
0.0000

> <Gold.Chemscore.Lipo>
101.5947

> <Gold.Chemscore.Internal_Hbond>
0.0000

> <Gold.Chemscore.DEClash>
0.0894

> <Gold.Chemscore.DEInternal>
4.1739

> <Gold.Chemscore.Rot>
1.6871

> <Gold.Chemscore.Internal.Correction>
   9.000000E+99

> <Gold.Chemscore.Hbonds>
donor molecule, donor type, donor heavy atom, donor atom, acceptor molecule, acceptor atom, score
      P1  H  7997  8010       L1     6  0.56

> <Gold.Chemscore.Hbond.Weighted>
-2.9845

> <Gold.Chemscore.Metal.Weighted>
-0.0000

> <Gold.Chemscore.Lipo.Weighted>
-11.8866

> <Gold.Chemscore.Internal_Hbond.Weighted>
0.0000

> <Gold.Chemscore.DEClash.Weighted>
0.0894

> <Gold.Chemscore.DEInternal.Weighted>
4.1739

> <Gold.Chemscore.Rot.Weighted>
4.3189

> <Gold.Chemscore.Internal.Correction.Weighted>
   9.000000E+99

> <Gold.Protein.RotatedTorsions>
[ 6907 6896 6895 6894 ] final  158.02 input  -60.11 | X-H torsion
[ 7974 7965 7964 7962 ] final  155.55 input  175.53 | X-H torsion
[ 8008 7997 7996 7995 ] final   11.94 input   59.86 | X-H torsion
[ 10167 10162 10161 10158 ] final  -79.43 input  -65.29 | X-H torsion
[ 10718 10713 10712 10709 ] final -166.33 input   66.30 | X-H torsion
[ 10763 10752 10751 10750 ] final -132.91 input  -60.55 | X-H torsion
[ 11005 11000 10999 10996 ] final   47.76 input  -57.11 | X-H torsion

> <Gold.Protein.ActiveResidues>
 VAL166  LYS551  ARG553  GLY616  TRP617  ASP618  TYR619  PRO620  LYS621  CYS622 
 ASP623  PHE694  ASN695  SER759  ASP760  ASP761  ALA762  ILE779  LEU786  VAL792 
 PHE793  MET794  SER795  GLU796  ALA797  LYS798  CYS799  TRP800  GLU811  SER814 

> <Gold.Protein.RotatedAtoms>
  152.0066  133.3845  159.4202 H   0  0  0  0  0  0  0  0  0  0  0  0  # atno 6907 bound_to 6896
  150.6904  134.3776  159.5029 H   0  0  0  0  0  0  0  0  0  0  0  0  # atno 6908 bound_to 6896
  152.1531  134.8972  160.0597 H   0  0  0  0  0  0  0  0  0  0  0  0  # atno 6909 bound_to 6896
  144.8017  139.7084  143.6179 H   0  0  0  0  0  0  0  0  0  0  0  0  # atno 7974 bound_to 7965
  154.8138  140.2872  155.5834 H   0  0  0  0  0  0  0  0  0  0  0  0  # atno 8008 bound_to 7997
  156.2991  140.2563  156.2961 H   0  0  0  0  0  0  0  0  0  0  0  0  # atno 8009 bound_to 7997
  154.9417  140.0381  157.2089 H   0  0  0  0  0  0  0  0  0  0  0  0  # atno 8010 bound_to 7997
  140.4594  143.2458  151.8372 H   0  0  0  0  0  0  0  0  0  0  0  0  # atno 10167 bound_to 10162
  156.6663  130.9066  151.3037 H   0  0  0  0  0  0  0  0  0  0  0  0  # atno 10718 bound_to 10713
  154.8738  135.3783  154.4487 H   0  0  0  0  0  0  0  0  0  0  0  0  # atno 10763 bound_to 10752
  153.5165  135.7029  153.5758 H   0  0  0  0  0  0  0  0  0  0  0  0  # atno 10764 bound_to 10752
  153.4024  135.3945  155.1962 H   0  0  0  0  0  0  0  0  0  0  0  0  # atno 10765 bound_to 10752
  140.1250  134.4780  155.8567 H   0  0  0  0  0  0  0  0  0  0  0  0  # atno 11005 bound_to 11000
  146.2300  139.5796  142.9561 LP  0  0  0  0  0  0  0  0  0  0  0  0  # atno 17320 bound_to 7965
  145.5536  141.0411  143.2265 LP  0  0  0  0  0  0  0  0  0  0  0  0  # atno 17321 bound_to 7965
  139.4804  144.5026  151.9040 LP  0  0  0  0  0  0  0  0  0  0  0  0  # atno 17342 bound_to 10162
  140.4112  144.2366  150.5889 LP  0  0  0  0  0  0  0  0  0  0  0  0  # atno 17343 bound_to 10162
  157.7092  130.9421  150.1033 LP  0  0  0  0  0  0  0  0  0  0  0  0  # atno 17370 bound_to 10713
  156.1972  130.3658  149.8834 LP  0  0  0  0  0  0  0  0  0  0  0  0  # atno 17371 bound_to 10713
  141.2159  133.6774  156.6961 LP  0  0  0  0  0  0  0  0  0  0  0  0  # atno 17394 bound_to 11000
  140.2916  134.8236  157.4021 LP  0  0  0  0  0  0  0  0  0  0  0  0  # atno 17395 bound_to 11000

$$$$
