AV-unprocessed.smi:3350|AV-procd|sdf|12944|dock8
  -GOLD-   2272019383D 1   1.00000     0.00000
 Structure written by MMmdl.
 41 42  0  0  0  0  0  0  0  0  1 V2000
  151.6739  136.1346  155.7940 C   0  0  0  0  0  0  0  0  0  0  0  0
  150.4712  136.9205  155.2544 C   0  0  1  0  0  0  0  0  0  0  0  0
  150.9195  138.2225  154.5555 C   0  0  0  0  0  0  0  0  0  0  0  0
  149.9472  139.2935  154.6837 N   0  0  0  0  0  0  0  0  0  0  0  0
  148.6011  139.2700  154.3842 C   0  0  0  0  0  0  0  0  0  0  0  0
  148.0955  140.5009  154.6888 C   0  0  0  0  0  0  0  0  0  0  0  0
  149.2254  141.2202  155.1690 C   0  0  0  0  0  0  0  0  0  0  0  0
  150.3331  140.4963  155.1607 N   0  0  0  0  0  0  0  0  0  0  0  0
  149.7219  136.0661  154.3336 N   0  0  0  0  0  0  0  0  0  0  0  0
  149.3325  134.8063  154.5780 C   0  0  0  0  0  0  0  0  0  0  0  0
  149.5844  134.1960  155.6169 O   0  0  0  0  0  0  0  0  0  0  0  0
  148.6156  134.3067  153.5595 N   0  0  0  0  0  0  0  0  0  0  0  0
  147.9843  132.9872  153.4808 C   0  0  2  0  0  0  0  0  0  0  0  0
  149.0256  131.8629  153.6416 C   0  0  0  0  0  0  0  0  0  0  0  0
  147.1237  132.8368  152.2064 C   0  0  1  0  0  0  0  0  0  0  0  0
  146.3236  131.5361  152.1290 C   0  0  0  0  0  0  0  0  0  0  0  0
  145.1615  131.8859  151.2129 C   0  0  0  0  0  0  0  0  0  0  0  0
  145.1580  133.4169  151.1826 C   0  0  0  0  0  0  0  0  0  0  0  0
  146.0925  133.8118  152.1773 O   0  0  0  0  0  0  0  0  0  0  0  0
  152.2364  136.7268  156.5162 H   0  0  0  0  0  0  0  0  0  0  0  0
  152.3570  135.8515  154.9922 H   0  0  0  0  0  0  0  0  0  0  0  0
  151.3534  135.2219  156.2975 H   0  0  0  0  0  0  0  0  0  0  0  0
  149.8460  137.1783  156.1115 H   0  0  0  0  0  0  0  0  0  0  0  0
  151.8619  138.5715  154.9801 H   0  0  0  0  0  0  0  0  0  0  0  0
  151.1053  138.0444  153.4952 H   0  0  0  0  0  0  0  0  0  0  0  0
  148.1190  138.3862  153.9934 H   0  0  0  0  0  0  0  0  0  0  0  0
  147.0741  140.8359  154.5872 H   0  0  0  0  0  0  0  0  0  0  0  0
  149.2734  142.2399  155.5212 H   0  0  0  0  0  0  0  0  0  0  0  0
  149.4627  136.4756  153.4482 H   0  0  0  0  0  0  0  0  0  0  0  0
  148.4814  134.9039  152.7570 H   0  0  0  0  0  0  0  0  0  0  0  0
  147.3168  132.9362  154.3416 H   0  0  0  0  0  0  0  0  0  0  0  0
  148.5426  130.8912  153.7442 H   0  0  0  0  0  0  0  0  0  0  0  0
  149.6358  132.0173  154.5321 H   0  0  0  0  0  0  0  0  0  0  0  0
  149.6963  131.8046  152.7841 H   0  0  0  0  0  0  0  0  0  0  0  0
  147.7321  132.9396  151.3063 H   0  0  0  0  0  0  0  0  0  0  0  0
  146.9154  130.6982  151.7596 H   0  0  0  0  0  0  0  0  0  0  0  0
  145.9412  131.2687  153.1151 H   0  0  0  0  0  0  0  0  0  0  0  0
  145.3105  131.4835  150.2103 H   0  0  0  0  0  0  0  0  0  0  0  0
  144.2240  131.4856  151.6001 H   0  0  0  0  0  0  0  0  0  0  0  0
  145.4925  133.7818  150.2106 H   0  0  0  0  0  0  0  0  0  0  0  0
  144.1728  133.8380  151.3833 H   0  0  0  0  0  0  0  0  0  0  0  0
  1  2  1  0  0  0  0
  1 20  1  0  0  0  0
  1 21  1  0  0  0  0
  1 22  1  0  0  0  0
  2  3  1  0  0  0  0
  2  9  1  0  0  0  0
  2 23  1  0  0  0  0
  3  4  1  0  0  0  0
  3 24  1  0  0  0  0
  3 25  1  0  0  0  0
  4  8  1  0  0  0  0
  4  5  1  0  0  0  0
  5  6  2  0  0  0  0
  5 26  1  0  0  0  0
  6  7  1  0  0  0  0
  6 27  1  0  0  0  0
  7  8  2  0  0  0  0
  7 28  1  0  0  0  0
  9 10  1  0  0  0  0
  9 29  1  0  0  0  0
 10 11  2  0  0  0  0
 10 12  1  0  0  0  0
 12 13  1  0  0  0  0
 12 30  1  0  0  0  0
 13 14  1  0  0  0  0
 13 15  1  0  0  0  0
 13 31  1  0  0  0  0
 14 32  1  0  0  0  0
 14 33  1  0  0  0  0
 14 34  1  0  0  0  0
 15 19  1  0  0  0  0
 15 16  1  0  0  0  0
 15 35  1  0  0  0  0
 16 17  1  0  0  0  0
 16 36  1  0  0  0  0
 16 37  1  0  0  0  0
 17 18  1  0  0  0  0
 17 38  1  0  0  0  0
 17 39  1  0  0  0  0
 18 19  1  0  0  0  0
 18 40  1  0  0  0  0
 18 41  1  0  0  0  0
M  END
> <s_m_source_file>
AV-unprocessed.smi

> <i_m_source_file_index>
3350

> <i_lp_mmshare_version>
43012

> <i_f3d_flags>
0

> <s_epik_input>
bjFbY0hdW2NIXVtjSF1uMVtDSDJdW0NAQEhdKFtDSDNdKVtOSF1DKD1PKVtOSF1bQ0BIXShbQ0gzXSlbQ0BASF0yW0NIMl1bQ0gyXVtDSDJdTzI=

> <s_epik_cmdline>
J2VwaWtfcHl0aG9uJywgJy1waCcsICc3LjAnLCAnLXRuJywgJzgnLCAnLW1hJywgJzIwMCcsICctbWV0YWxfYmluZGluZycsICctaW1hZScsICc8aW5maWxlLm1hZT4nLCAnLW9tYWUnLCAnPG91dGZpbGUubWFlPic=

> <r_lp_tautomer_probability>
1

> <r_epik_Ionization_Penalty>
6.42349e-05

> <r_epik_Ionization_Penalty_Charging>
0

> <r_epik_Ionization_Penalty_Neutral>
6.42349e-05

> <r_epik_State_Penalty>
-0

> <r_epik_Charging_Adjusted_Penalty>
0

> <i_epik_Tot_Q>
0

> <i_epik_Tot_abs_Q>
0

> <r_epik_Metal_State_Penalty>
-0

> <b_epik_Metal_Only>
0

> <s_lp_Force_Field>
OPLS_2005

> <r_lp_Energy>
15.9813

> <b_lp_Chiralities_Consistent>
1

> <s_lp_Variant>
AV-unprocessed.smi:3350-6

> <Gold.Version>
5.8.1

> <Gold.Id.Protein>
6NUR|6NUR_protein|mol2

> <Gold.PLP.Fitness>
44.5485

> <Gold.PLP.PLP>
-33.3579

> <Gold.PLP.part.hbond>
-3.0000

> <Gold.PLP.part.metal>
0.0000

> <Gold.PLP.part.buried>
-1.5944

> <Gold.PLP.part.nonpolar>
-28.4000

> <Gold.PLP.part.repulsive>
0.2714

> <Gold.PLP.ligand.clash>
0.0000

> <Gold.PLP.ligand.torsion>
0.5717

> <Gold.PLP.Chemscore.Hbond>
3.0000

> <Gold.PLP.Chemscore.CHOScore>
1.0806

> <Gold.PLP.Chemscore.Metal>
0.0000

> <Gold.Chemscore.Hbonds>
donor molecule, donor type, donor heavy atom, donor atom, acceptor molecule, acceptor atom, score
      L1  H     9    29       P1  7948  0.94
      L1  H    12    30       P1  7948  0.99
      P1  H  7989  7998       L1     8  0.50
      L1  C     7    28       P1  8028  1.00

> <Gold.PLP.Chemscore.Internal.Correction>
0.0922

> <Gold.Rescore>
     Score         DG    S(hbond)    S(metal)    S(lipo)     H(rot)  DE(clash)    DE(int)     intcor
     14.97     -17.30       2.54        0.00      68.33       1.82       0.09       2.24       ----

> <Gold.Chemscore.Fitness>
14.9732

> <Gold.Chemscore.DG>
-17.3040

> <Gold.Chemscore.ZeroCoef>
-5.4800

> <Gold.Chemscore.Hbond>
2.5412

> <Gold.Chemscore.Metal>
0.0000

> <Gold.Chemscore.Lipo>
68.3320

> <Gold.Chemscore.Internal_Hbond>
0.0000

> <Gold.Chemscore.DEClash>
0.0882

> <Gold.Chemscore.DEInternal>
2.2425

> <Gold.Chemscore.Rot>
1.8197

> <Gold.Chemscore.Internal.Correction>
   9.000000E+99

> <Gold.Chemscore.Hbonds>
donor molecule, donor type, donor heavy atom, donor atom, acceptor molecule, acceptor atom, score
      L1  H     9    29       P1  7948  0.67
      L1  H    12    30       P1  7948  0.42
      P1  H  7989  7998       L1     8  0.04

> <Gold.Chemscore.Hbond.Weighted>
-8.4875

> <Gold.Chemscore.Metal.Weighted>
-0.0000

> <Gold.Chemscore.Lipo.Weighted>
-7.9948

> <Gold.Chemscore.Internal_Hbond.Weighted>
0.0000

> <Gold.Chemscore.DEClash.Weighted>
0.0882

> <Gold.Chemscore.DEInternal.Weighted>
2.2425

> <Gold.Chemscore.Rot.Weighted>
4.6583

> <Gold.Chemscore.Internal.Correction.Weighted>
   9.000000E+99

> <Gold.Protein.RotatedTorsions>
[ 6907 6896 6895 6894 ] final -136.81 input  -60.11 | X-H torsion
[ 7974 7965 7964 7962 ] final   66.01 input  175.53 | X-H torsion
[ 8008 7997 7996 7995 ] final  -95.40 input   59.86 | X-H torsion
[ 10167 10162 10161 10158 ] final   64.66 input  -65.29 | X-H torsion
[ 10718 10713 10712 10709 ] final -151.84 input   66.30 | X-H torsion
[ 10763 10752 10751 10750 ] final  -94.00 input  -60.55 | X-H torsion
[ 11005 11000 10999 10996 ] final  107.19 input  -57.11 | X-H torsion

> <Gold.Protein.ActiveResidues>
 VAL166  LYS551  ARG553  GLY616  TRP617  ASP618  TYR619  PRO620  LYS621  CYS622 
 ASP623  PHE694  ASN695  SER759  ASP760  ASP761  ALA762  ILE779  LEU786  VAL792 
 PHE793  MET794  SER795  GLU796  ALA797  LYS798  CYS799  TRP800  GLU811  SER814 

> <Gold.Protein.RotatedAtoms>
  151.0147  133.5932  159.2678 H   0  0  0  0  0  0  0  0  0  0  0  0  # atno 6907 bound_to 6896
  151.3071  135.0783  159.9269 H   0  0  0  0  0  0  0  0  0  0  0  0  # atno 6908 bound_to 6896
  152.5308  133.9818  159.7864 H   0  0  0  0  0  0  0  0  0  0  0  0  # atno 6909 bound_to 6896
  145.8317  139.3143  143.0983 H   0  0  0  0  0  0  0  0  0  0  0  0  # atno 7974 bound_to 7965
  154.7609  140.0480  157.0972 H   0  0  0  0  0  0  0  0  0  0  0  0  # atno 8008 bound_to 7997
  154.9939  140.3116  155.4875 H   0  0  0  0  0  0  0  0  0  0  0  0  # atno 8009 bound_to 7997
  156.2904  140.2213  156.5045 H   0  0  0  0  0  0  0  0  0  0  0  0  # atno 8010 bound_to 7997
  140.1197  144.4742  150.6928 H   0  0  0  0  0  0  0  0  0  0  0  0  # atno 10167 bound_to 10162
  156.4646  130.8229  151.2460 H   0  0  0  0  0  0  0  0  0  0  0  0  # atno 10718 bound_to 10713
  154.7013  135.5173  153.8531 H   0  0  0  0  0  0  0  0  0  0  0  0  # atno 10763 bound_to 10752
  153.0706  135.6600  154.0264 H   0  0  0  0  0  0  0  0  0  0  0  0  # atno 10764 bound_to 10752
  154.0122  135.3001  155.3370 H   0  0  0  0  0  0  0  0  0  0  0  0  # atno 10765 bound_to 10752
  139.8824  134.9393  156.5782 H   0  0  0  0  0  0  0  0  0  0  0  0  # atno 11005 bound_to 11000
  145.9563  140.8870  143.0233 LP  0  0  0  0  0  0  0  0  0  0  0  0  # atno 17320 bound_to 7965
  144.6739  140.1750  143.7411 LP  0  0  0  0  0  0  0  0  0  0  0  0  # atno 17321 bound_to 7965
  140.6879  143.2360  151.5211 LP  0  0  0  0  0  0  0  0  0  0  0  0  # atno 17342 bound_to 10162
  139.5575  144.2239  152.1637 LP  0  0  0  0  0  0  0  0  0  0  0  0  # atno 17343 bound_to 10162
  157.7495  131.0096  150.3274 LP  0  0  0  0  0  0  0  0  0  0  0  0  # atno 17370 bound_to 10713
  156.3681  130.3858  149.7197 LP  0  0  0  0  0  0  0  0  0  0  0  0  # atno 17371 bound_to 10713
  140.8047  133.8477  155.8757 LP  0  0  0  0  0  0  0  0  0  0  0  0  # atno 17394 bound_to 11000
  140.9560  134.1717  157.4691 LP  0  0  0  0  0  0  0  0  0  0  0  0  # atno 17395 bound_to 11000

$$$$
