AV-unprocessed.smi:550|AV-procd|sdf|2897|dock4
  -GOLD-   2262023393D 1   1.00000     0.00000
 Structure written by MMmdl.
 46 48  0  0  0  0  0  0  0  0  2 V2000
  146.6848  140.0464  153.6311 O   0  0  0  0  0  0  0  0  0  0  0  0
  147.6074  139.3436  153.2191 C   0  0  0  0  0  0  0  0  0  0  0  0
  147.4554  138.4052  152.2741 N   0  0  0  0  0  0  0  0  0  0  0  0
  146.1939  138.0776  151.6172 C   0  0  0  0  0  0  0  0  0  0  0  0
  145.6132  136.7404  152.1169 C   0  0  1  0  0  0  0  0  0  0  0  0
  144.0753  136.7682  152.2124 C   0  0  0  0  0  0  0  0  0  0  0  0
  143.5755  135.3374  152.4289 C   0  0  0  0  0  0  0  0  0  0  0  0
  144.7015  134.2770  151.4507 S   0  0  0  0  0  0  0  0  0  0  0  0
  145.1942  133.1821  152.3000 O   0  0  0  0  0  0  0  0  0  0  0  0
  144.0964  134.0048  150.1382 O   0  0  0  0  0  0  0  0  0  0  0  0
  146.0172  135.5378  151.2439 C   0  0  0  0  0  0  0  0  0  0  0  0
  148.8761  139.3918  153.6611 N   0  0  0  0  0  0  0  0  0  0  0  0
  149.4371  140.2650  154.6319 C   0  0  0  0  0  0  0  0  0  0  0  0
  150.5921  139.8340  155.3195 C   0  0  0  0  0  0  0  0  0  0  0  0
  151.1898  140.6752  156.2804 C   0  0  0  0  0  0  0  0  0  0  0  0
  150.6271  141.9476  156.5346 C   0  0  0  0  0  0  0  0  0  0  0  0
  151.1447  142.8591  157.4659 N   0  0  0  0  0  0  0  0  0  0  0  0
  152.2236  142.3452  158.2932 C   0  0  0  0  0  0  0  0  0  0  0  0
  152.8881  143.5783  158.9110 C   0  0  0  0  0  0  0  0  0  0  0  0
  152.5072  144.7375  157.9824 C   0  0  0  0  0  0  0  0  0  0  0  0
  151.6374  144.1013  156.8946 C   0  0  0  0  0  0  0  0  0  0  0  0
  149.5303  142.3298  155.8449 N   0  3  0  0  0  0  0  0  0  0  0  0
  148.9261  141.5546  154.9185 C   0  0  0  0  0  0  0  0  0  0  0  0
  148.2649  137.8704  151.9951 H   0  0  0  0  0  0  0  0  0  0  0  0
  145.4742  138.8842  151.7669 H   0  0  0  0  0  0  0  0  0  0  0  0
  146.3766  138.0276  150.5432 H   0  0  0  0  0  0  0  0  0  0  0  0
  145.9874  136.5518  153.1245 H   0  0  0  0  0  0  0  0  0  0  0  0
  143.7319  137.4333  153.0054 H   0  0  0  0  0  0  0  0  0  0  0  0
  143.6620  137.1472  151.2767 H   0  0  0  0  0  0  0  0  0  0  0  0
  143.6660  135.0512  153.4771 H   0  0  0  0  0  0  0  0  0  0  0  0
  142.5432  135.1890  152.1120 H   0  0  0  0  0  0  0  0  0  0  0  0
  146.0520  135.8086  150.1883 H   0  0  0  0  0  0  0  0  0  0  0  0
  146.9834  135.1187  151.5255 H   0  0  0  0  0  0  0  0  0  0  0  0
  149.5022  138.6905  153.2932 H   0  0  0  0  0  0  0  0  0  0  0  0
  151.0179  138.8617  155.1184 H   0  0  0  0  0  0  0  0  0  0  0  0
  152.0704  140.3430  156.8107 H   0  0  0  0  0  0  0  0  0  0  0  0
  151.8430  141.6695  159.0598 H   0  0  0  0  0  0  0  0  0  0  0  0
  152.9449  141.7951  157.6873 H   0  0  0  0  0  0  0  0  0  0  0  0
  152.4935  143.7606  159.9113 H   0  0  0  0  0  0  0  0  0  0  0  0
  153.9678  143.4523  158.9975 H   0  0  0  0  0  0  0  0  0  0  0  0
  151.9373  145.4849  158.5359 H   0  0  0  0  0  0  0  0  0  0  0  0
  153.3805  145.2334  157.5577 H   0  0  0  0  0  0  0  0  0  0  0  0
  152.2363  143.9039  156.0048 H   0  0  0  0  0  0  0  0  0  0  0  0
  150.8136  144.7552  156.6071 H   0  0  0  0  0  0  0  0  0  0  0  0
  148.0698  142.0054  154.4399 H   0  0  0  0  0  0  0  0  0  0  0  0
  149.1386  143.2533  156.0310 H   0  0  0  0  0  0  0  0  0  0  0  0
  1  2  2  0  0  0  0
  2  3  1  0  0  0  0
  2 12  1  0  0  0  0
  3  4  1  0  0  0  0
  3 24  1  0  0  0  0
  4  5  1  0  0  0  0
  4 25  1  0  0  0  0
  4 26  1  0  0  0  0
  5 11  1  0  0  0  0
  5  6  1  0  0  0  0
  5 27  1  0  0  0  0
  6  7  1  0  0  0  0
  6 28  1  0  0  0  0
  6 29  1  0  0  0  0
  7  8  1  0  0  0  0
  7 30  1  0  0  0  0
  7 31  1  0  0  0  0
  8  9  2  0  0  0  0
  8 10  2  0  0  0  0
  8 11  1  0  0  0  0
 11 32  1  0  0  0  0
 11 33  1  0  0  0  0
 12 13  1  0  0  0  0
 12 34  1  0  0  0  0
 13 23  1  0  0  0  0
 13 14  2  0  0  0  0
 14 15  1  0  0  0  0
 14 35  1  0  0  0  0
 15 16  2  0  0  0  0
 15 36  1  0  0  0  0
 16 17  1  0  0  0  0
 16 22  1  0  0  0  0
 17 21  1  0  0  0  0
 17 18  1  0  0  0  0
 18 19  1  0  0  0  0
 18 37  1  0  0  0  0
 18 38  1  0  0  0  0
 19 20  1  0  0  0  0
 19 39  1  0  0  0  0
 19 40  1  0  0  0  0
 20 21  1  0  0  0  0
 20 41  1  0  0  0  0
 20 42  1  0  0  0  0
 21 43  1  0  0  0  0
 21 44  1  0  0  0  0
 22 23  2  0  0  0  0
 22 46  1  0  0  0  0
 23 45  1  0  0  0  0
M  CHG  1  22   1
M  END
> <s_m_source_file>
AV-unprocessed.smi

> <i_m_source_file_index>
550

> <i_lp_mmshare_version>
43012

> <i_f3d_flags>
0

> <s_epik_input>
Tz1TMSg9TylbQ0gyXVtDSDJdW0NASF0oW0NIMl0xKVtDSDJdW05IXUMoPU8pW05IXWMyW2NIXVtjSF1jKG5bY0hdMilOM1tDSDJdW0NIMl1bQ0gyXVtDSDJdMw==

> <s_epik_cmdline>
J2VwaWtfcHl0aG9uJywgJy1waCcsICc3LjAnLCAnLXRuJywgJzgnLCAnLW1hJywgJzIwMCcsICctbWV0YWxfYmluZGluZycsICctaW1hZScsICc8aW5maWxlLm1hZT4nLCAnLW9tYWUnLCAnPG91dGZpbGUubWFlPic=

> <r_lp_tautomer_probability>
0.999994

> <r_epik_Ionization_Penalty>
1.12573

> <r_epik_Ionization_Penalty_Charging>
1.12571

> <r_epik_Ionization_Penalty_Neutral>
1.93198e-05

> <r_epik_State_Penalty>
1.18495

> <r_epik_Charging_Adjusted_Penalty>
2.31065

> <i_epik_Tot_Q>
1

> <i_epik_Tot_abs_Q>
1

> <r_epik_Metal_State_Penalty>
1.26884

> <b_epik_Metal_Only>
0

> <s_lp_Force_Field>
OPLS_2005

> <r_lp_Energy>
40.0908

> <b_lp_Chiralities_Consistent>
1

> <s_lp_Variant>
AV-unprocessed.smi:550-4

> <Gold.Version>
5.8.1

> <Gold.Id.Protein>
6NUR|6NUR_protein|mol2

> <Gold.PLP.Fitness>
50.7493

> <Gold.PLP.PLP>
-43.4740

> <Gold.PLP.part.hbond>
-3.9321

> <Gold.PLP.part.metal>
0.0000

> <Gold.PLP.part.buried>
0.0786

> <Gold.PLP.part.nonpolar>
-40.3688

> <Gold.PLP.part.repulsive>
0.8632

> <Gold.PLP.ligand.clash>
0.0000

> <Gold.PLP.ligand.torsion>
0.7670

> <Gold.PLP.Chemscore.Hbond>
2.9280

> <Gold.PLP.Chemscore.CHOScore>
0.0000

> <Gold.PLP.Chemscore.Metal>
0.0000

> <Gold.Chemscore.Hbonds>
donor molecule, donor type, donor heavy atom, donor atom, acceptor molecule, acceptor atom, score
      L1  H     3    24       P1  7948  0.93
      L1  H    22    46       P1  8028  2.00

> <Gold.PLP.Chemscore.Internal.Correction>
0.0253

> <Gold.Rescore>
     Score         DG    S(hbond)    S(metal)    S(lipo)     H(rot)  DE(clash)    DE(int)     intcor
     15.94     -20.30       1.94        0.00     104.08       1.50       2.77       1.59       ----

> <Gold.Chemscore.Fitness>
15.9418

> <Gold.Chemscore.DG>
-20.2984

> <Gold.Chemscore.ZeroCoef>
-5.4800

> <Gold.Chemscore.Hbond>
1.9376

> <Gold.Chemscore.Metal>
0.0000

> <Gold.Chemscore.Lipo>
104.0774

> <Gold.Chemscore.Internal_Hbond>
0.0000

> <Gold.Chemscore.DEClash>
2.7650

> <Gold.Chemscore.DEInternal>
1.5915

> <Gold.Chemscore.Rot>
1.4962

> <Gold.Chemscore.Internal.Correction>
   9.000000E+99

> <Gold.Chemscore.Hbonds>
donor molecule, donor type, donor heavy atom, donor atom, acceptor molecule, acceptor atom, score
      L1  H     3    24       P1  7948  0.90
      L1  H    22    46       P1  8028  0.90

> <Gold.Chemscore.Hbond.Weighted>
-6.4716

> <Gold.Chemscore.Metal.Weighted>
-0.0000

> <Gold.Chemscore.Lipo.Weighted>
-12.1771

> <Gold.Chemscore.Internal_Hbond.Weighted>
0.0000

> <Gold.Chemscore.DEClash.Weighted>
2.7650

> <Gold.Chemscore.DEInternal.Weighted>
1.5915

> <Gold.Chemscore.Rot.Weighted>
3.8303

> <Gold.Chemscore.Internal.Correction.Weighted>
   9.000000E+99

> <Gold.Protein.RotatedTorsions>
[ 6907 6896 6895 6894 ] final   -1.87 input  -60.11 | X-H torsion
[ 7974 7965 7964 7962 ] final  137.30 input  175.53 | X-H torsion
[ 8008 7997 7996 7995 ] final  -40.01 input   59.86 | X-H torsion
[ 10167 10162 10161 10158 ] final   -2.29 input  -65.29 | X-H torsion
[ 10718 10713 10712 10709 ] final  -83.79 input   66.30 | X-H torsion
[ 10763 10752 10751 10750 ] final  102.20 input  -60.55 | X-H torsion
[ 11005 11000 10999 10996 ] final  145.96 input  -57.11 | X-H torsion

> <Gold.Protein.ActiveResidues>
 VAL166  LYS551  ARG553  GLY616  TRP617  ASP618  TYR619  PRO620  LYS621  CYS622 
 ASP623  PHE694  ASN695  SER759  ASP760  ASP761  ALA762  ILE779  LEU786  VAL792 
 PHE793  MET794  SER795  GLU796  ALA797  LYS798  CYS799  TRP800  GLU811  SER814 

> <Gold.Protein.RotatedAtoms>
  151.5391  135.1068  159.9921 H   0  0  0  0  0  0  0  0  0  0  0  0  # atno 6907 bound_to 6896
  152.4544  133.7688  159.6798 H   0  0  0  0  0  0  0  0  0  0  0  0  # atno 6908 bound_to 6896
  150.8482  133.7762  159.3060 H   0  0  0  0  0  0  0  0  0  0  0  0  # atno 6909 bound_to 6896
  144.9481  139.4850  143.5539 H   0  0  0  0  0  0  0  0  0  0  0  0  # atno 7974 bound_to 7965
  154.4016  140.1536  156.2957 H   0  0  0  0  0  0  0  0  0  0  0  0  # atno 8008 bound_to 7997
  155.8745  140.3447  155.5823 H   0  0  0  0  0  0  0  0  0  0  0  0  # atno 8009 bound_to 7997
  155.7736  140.0834  157.2086 H   0  0  0  0  0  0  0  0  0  0  0  0  # atno 8010 bound_to 7997
  140.6845  143.6674  150.8214 H   0  0  0  0  0  0  0  0  0  0  0  0  # atno 10167 bound_to 10162
  156.0014  130.4677  150.4311 H   0  0  0  0  0  0  0  0  0  0  0  0  # atno 10718 bound_to 10713
  153.3365  135.4018  155.1538 H   0  0  0  0  0  0  0  0  0  0  0  0  # atno 10763 bound_to 10752
  154.8634  135.3623  154.5401 H   0  0  0  0  0  0  0  0  0  0  0  0  # atno 10764 bound_to 10752
  153.5843  135.7075  153.5509 H   0  0  0  0  0  0  0  0  0  0  0  0  # atno 10765 bound_to 10752
  140.0754  134.9128  157.1414 H   0  0  0  0  0  0  0  0  0  0  0  0  # atno 11005 bound_to 11000
  146.3311  139.8548  142.8866 LP  0  0  0  0  0  0  0  0  0  0  0  0  # atno 17320 bound_to 7965
  145.2886  141.0160  143.3676 LP  0  0  0  0  0  0  0  0  0  0  0  0  # atno 17321 bound_to 7965
  140.0379  143.5376  152.2731 LP  0  0  0  0  0  0  0  0  0  0  0  0  # atno 17342 bound_to 10162
  139.6193  144.7626  151.2777 LP  0  0  0  0  0  0  0  0  0  0  0  0  # atno 17343 bound_to 10162
  157.2359  131.0514  151.2465 LP  0  0  0  0  0  0  0  0  0  0  0  0  # atno 17370 bound_to 10713
  157.3666  130.7159  149.6537 LP  0  0  0  0  0  0  0  0  0  0  0  0  # atno 17371 bound_to 10713
  140.3565  134.2541  155.7192 LP  0  0  0  0  0  0  0  0  0  0  0  0  # atno 17394 bound_to 11000
  141.2027  133.7930  157.0375 LP  0  0  0  0  0  0  0  0  0  0  0  0  # atno 17395 bound_to 11000

$$$$
