AV-unprocessed.smi:35|AV-procd|sdf|255|dock8
  -GOLD-   2262016 13D 1   1.00000     0.00000
 Structure written by MMmdl.
 29 30  0  0  0  0  0  0  0  0  1 V2000
  150.0192  131.6954  155.9333 O   0  0  0  0  0  0  0  0  0  0  0  0
  150.0853  132.9210  155.8684 C   0  0  0  0  0  0  0  0  0  0  0  0
  150.7506  133.6453  156.8614 N   0  0  0  0  0  0  0  0  0  0  0  0
  150.8918  135.0339  156.8943 C   0  0  0  0  0  0  0  0  0  0  0  0
  151.5096  135.5694  157.8137 O   0  0  0  0  0  0  0  0  0  0  0  0
  150.3119  135.7700  155.8369 N   0  0  0  0  0  0  0  0  0  0  0  0
  150.4511  137.2817  155.8525 C   0  0  2  0  0  0  0  0  0  0  0  0
  149.2184  137.8732  155.5606 O   0  0  0  0  0  0  0  0  0  0  0  0
  149.2415  138.4375  154.2529 C   0  0  1  0  0  0  0  0  0  0  0  0
  148.1665  139.5267  154.0960 C   0  0  0  0  0  0  0  0  0  0  0  0
  147.5210  139.3911  152.8480 O   0  0  0  0  0  0  0  0  0  0  0  0
  150.6927  138.9118  154.1122 C   0  0  1  0  0  0  0  0  0  0  0  0
  150.8911  140.1548  154.7617 O   0  0  0  0  0  0  0  0  0  0  0  0
  151.4745  137.8115  154.8172 C   0  0  2  0  0  0  0  0  0  0  0  0
  151.8867  136.8422  153.8684 O   0  0  0  0  0  0  0  0  0  0  0  0
  149.6404  135.0921  154.8262 C   0  0  0  0  0  0  0  0  0  0  0  0
  149.5138  133.7442  154.8082 C   0  0  0  0  0  0  0  0  0  0  0  0
  148.5205  132.9692  153.2796 Br  0  0  0  0  0  0  0  0  0  0  0  0
  151.1652  133.1198  157.6172 H   0  0  0  0  0  0  0  0  0  0  0  0
  150.7013  137.5464  156.8816 H   0  0  0  0  0  0  0  0  0  0  0  0
  149.0774  137.6463  153.5190 H   0  0  0  0  0  0  0  0  0  0  0  0
  147.4365  139.4864  154.9051 H   0  0  0  0  0  0  0  0  0  0  0  0
  148.6265  140.5150  154.1188 H   0  0  0  0  0  0  0  0  0  0  0  0
  148.0926  139.7286  152.1752 H   0  0  0  0  0  0  0  0  0  0  0  0
  150.9825  139.0299  153.0671 H   0  0  0  0  0  0  0  0  0  0  0  0
  151.5624  140.0476  155.4182 H   0  0  0  0  0  0  0  0  0  0  0  0
  152.3599  138.1887  155.3309 H   0  0  0  0  0  0  0  0  0  0  0  0
  151.2073  136.7577  153.2168 H   0  0  0  0  0  0  0  0  0  0  0  0
  149.1927  135.6402  154.0118 H   0  0  0  0  0  0  0  0  0  0  0  0
  1  2  2  0  0  0  0
  2 17  1  0  0  0  0
  2  3  1  0  0  0  0
  3 19  1  0  0  0  0
  3  4  1  0  0  0  0
  4  5  2  0  0  0  0
  4  6  1  0  0  0  0
  6  7  1  0  0  0  0
  6 16  1  0  0  0  0
  7 14  1  0  0  0  0
  7  8  1  0  0  0  0
  7 20  1  0  0  0  0
  8  9  1  0  0  0  0
  9 10  1  0  0  0  0
  9 12  1  0  0  0  0
  9 21  1  0  0  0  0
 10 11  1  0  0  0  0
 10 22  1  0  0  0  0
 10 23  1  0  0  0  0
 11 24  1  0  0  0  0
 12 13  1  0  0  0  0
 12 14  1  0  0  0  0
 12 25  1  0  0  0  0
 13 26  1  0  0  0  0
 14 15  1  0  0  0  0
 14 27  1  0  0  0  0
 15 28  1  0  0  0  0
 16 17  2  0  0  0  0
 16 29  1  0  0  0  0
 17 18  1  0  0  0  0
M  END
> <s_m_source_file>
AV-unprocessed.smi

> <i_m_source_file_index>
35

> <i_lp_mmshare_version>
43012

> <i_f3d_flags>
0

> <s_epik_input>
Tz1jMVtuSF1jKD1PKW4oW2NIXWMxQnIpW0NAQEhdMk9bQ0BASF0oW0NIMl1bT0hdKVtDQEBIXShbT0hdKVtDQEhdMltPSF0=

> <s_epik_cmdline>
J2VwaWtfcHl0aG9uJywgJy1waCcsICc3LjAnLCAnLXRuJywgJzgnLCAnLW1hJywgJzIwMCcsICctbWV0YWxfYmluZGluZycsICctaW1hZScsICc8aW5maWxlLm1hZT4nLCAnLW9tYWUnLCAnPG91dGZpbGUubWFlPic=

> <r_lp_tautomer_probability>
0.999537

> <r_epik_Ionization_Penalty>
0.10812

> <r_epik_Ionization_Penalty_Charging>
0.108119

> <r_epik_Ionization_Penalty_Neutral>
4.93006e-07

> <r_epik_State_Penalty>
0.0979238

> <r_epik_Charging_Adjusted_Penalty>
0.206043

> <i_epik_Tot_Q>
0

> <i_epik_Tot_abs_Q>
0

> <r_epik_Metal_State_Penalty>
3.07911

> <b_epik_Metal_Only>
0

> <s_epik_Chemistry_Notes>
This compound contains an acetal/aminal-like group ( X-CH(R)-Y where X, Y are N, S, or O) that may be acid/base labile, releasing an aldehyde.

> <s_lp_Force_Field>
OPLS_2005

> <r_lp_Energy>
34.1394

> <b_lp_Chiralities_Consistent>
1

> <s_lp_Variant>
AV-unprocessed.smi:35-9

> <Gold.Version>
5.8.1

> <Gold.Id.Protein>
6NUR|6NUR_protein|mol2

> <Gold.PLP.Fitness>
39.1123

> <Gold.PLP.PLP>
-27.9115

> <Gold.PLP.part.hbond>
-5.0000

> <Gold.PLP.part.metal>
0.0000

> <Gold.PLP.part.buried>
-3.7666

> <Gold.PLP.part.nonpolar>
-19.7901

> <Gold.PLP.part.repulsive>
0.1994

> <Gold.PLP.ligand.clash>
0.0000

> <Gold.PLP.ligand.torsion>
0.9695

> <Gold.PLP.Chemscore.Hbond>
3.3605

> <Gold.PLP.Chemscore.CHOScore>
1.0000

> <Gold.PLP.Chemscore.Metal>
0.0000

> <Gold.Chemscore.Hbonds>
donor molecule, donor type, donor heavy atom, donor atom, acceptor molecule, acceptor atom, score
      L1  H    11    24       P1  7957  1.00
      L1  H    15    28       P1  7949  0.66
      P1  H  6896  6907       L1     5  0.10
      P1  H  7989  7998       L1    13  0.80
      P1  H 10752 10763       L1    15  1.00
      L1  C    16    29       P1  7948  1.00

> <Gold.PLP.Chemscore.Internal.Correction>
0.0583

> <Gold.Rescore>
     Score         DG    S(hbond)    S(metal)    S(lipo)     H(rot)  DE(clash)    DE(int)     intcor
      8.67     -10.24       2.65        0.00      45.34       3.67       0.18       1.39       ----

> <Gold.Chemscore.Fitness>
8.6732

> <Gold.Chemscore.DG>
-10.2428

> <Gold.Chemscore.ZeroCoef>
-5.4800

> <Gold.Chemscore.Hbond>
2.6507

> <Gold.Chemscore.Metal>
0.0000

> <Gold.Chemscore.Lipo>
45.3415

> <Gold.Chemscore.Internal_Hbond>
0.0000

> <Gold.Chemscore.DEClash>
0.1761

> <Gold.Chemscore.DEInternal>
1.3935

> <Gold.Chemscore.Rot>
3.6701

> <Gold.Chemscore.Internal.Correction>
   9.000000E+99

> <Gold.Chemscore.Hbonds>
donor molecule, donor type, donor heavy atom, donor atom, acceptor molecule, acceptor atom, score
      L1  H    11    24       P1  7957  1.00
      L1  H    15    28       P1  7949  0.36
      P1  H  6896  6907       L1     5  0.07
      P1  H  7989  7998       L1    13  0.06
      P1  H 10752 10763       L1    15  0.98

> <Gold.Chemscore.Hbond.Weighted>
-8.8533

> <Gold.Chemscore.Metal.Weighted>
-0.0000

> <Gold.Chemscore.Lipo.Weighted>
-5.3050

> <Gold.Chemscore.Internal_Hbond.Weighted>
0.0000

> <Gold.Chemscore.DEClash.Weighted>
0.1761

> <Gold.Chemscore.DEInternal.Weighted>
1.3935

> <Gold.Chemscore.Rot.Weighted>
9.3955

> <Gold.Chemscore.Internal.Correction.Weighted>
   9.000000E+99

> <Gold.Protein.RotatedTorsions>
[ 6907 6896 6895 6894 ] final  -54.13 input  -60.11 | X-H torsion
[ 7974 7965 7964 7962 ] final  -25.90 input  175.53 | X-H torsion
[ 8008 7997 7996 7995 ] final  129.35 input   59.86 | X-H torsion
[ 10167 10162 10161 10158 ] final   86.77 input  -65.29 | X-H torsion
[ 10718 10713 10712 10709 ] final  -76.65 input   66.30 | X-H torsion
[ 10763 10752 10751 10750 ] final   30.58 input  -60.55 | X-H torsion
[ 11005 11000 10999 10996 ] final   17.60 input  -57.11 | X-H torsion

> <Gold.Protein.ActiveResidues>
 VAL166  LYS551  ARG553  GLY616  TRP617  ASP618  TYR619  PRO620  LYS621  CYS622 
 ASP623  PHE694  ASN695  SER759  ASP760  ASP761  ALA762  ILE779  LEU786  VAL792 
 PHE793  MET794  SER795  GLU796  ALA797  LYS798  CYS799  TRP800  GLU811  SER814 

> <Gold.Protein.RotatedAtoms>
  150.8365  134.7640  159.6896 H   0  0  0  0  0  0  0  0  0  0  0  0  # atno 6907 bound_to 6896
  152.4460  134.5489  159.9871 H   0  0  0  0  0  0  0  0  0  0  0  0  # atno 6908 bound_to 6896
  151.5638  133.3361  159.3012 H   0  0  0  0  0  0  0  0  0  0  0  0  # atno 6909 bound_to 6896
  146.1461  140.4948  142.8631 H   0  0  0  0  0  0  0  0  0  0  0  0  # atno 7974 bound_to 7965
  156.2934  140.2622  156.2585 H   0  0  0  0  0  0  0  0  0  0  0  0  # atno 8008 bound_to 7997
  154.9812  140.0390  157.2297 H   0  0  0  0  0  0  0  0  0  0  0  0  # atno 8009 bound_to 7997
  154.7770  140.2788  155.6098 H   0  0  0  0  0  0  0  0  0  0  0  0  # atno 8010 bound_to 7997
  139.8842  144.6423  150.8810 H   0  0  0  0  0  0  0  0  0  0  0  0  # atno 10167 bound_to 10162
  156.0168  130.4471  150.3226 H   0  0  0  0  0  0  0  0  0  0  0  0  # atno 10718 bound_to 10713
  153.0363  135.6460  154.1067 H   0  0  0  0  0  0  0  0  0  0  0  0  # atno 10763 bound_to 10752
  154.0781  135.2875  155.3297 H   0  0  0  0  0  0  0  0  0  0  0  0  # atno 10764 bound_to 10752
  154.6549  135.5412  153.8010 H   0  0  0  0  0  0  0  0  0  0  0  0  # atno 10765 bound_to 10752
  140.4341  134.1389  155.7683 H   0  0  0  0  0  0  0  0  0  0  0  0  # atno 11005 bound_to 11000
  144.7848  140.5914  143.6581 LP  0  0  0  0  0  0  0  0  0  0  0  0  # atno 17320 bound_to 7965
  145.4934  139.1487  143.3697 LP  0  0  0  0  0  0  0  0  0  0  0  0  # atno 17321 bound_to 7965
  140.7739  143.3562  151.1917 LP  0  0  0  0  0  0  0  0  0  0  0  0  # atno 17342 bound_to 10162
  139.7168  143.9287  152.2970 LP  0  0  0  0  0  0  0  0  0  0  0  0  # atno 17343 bound_to 10162
  157.1326  131.0276  151.2962 LP  0  0  0  0  0  0  0  0  0  0  0  0  # atno 17370 bound_to 10713
  157.4538  130.7613  149.7175 LP  0  0  0  0  0  0  0  0  0  0  0  0  # atno 17371 bound_to 10713
  141.1733  133.8565  157.1502 LP  0  0  0  0  0  0  0  0  0  0  0  0  # atno 17394 bound_to 11000
  140.0114  134.9986  157.0402 LP  0  0  0  0  0  0  0  0  0  0  0  0  # atno 17395 bound_to 11000

$$$$
