AV-unprocessed.smi:2806|AV-procd|sdf|10815|dock4
  -GOLD-   2272015253D 1   1.00000     0.00000
 Structure written by MMmdl.
 47 48  0  0  0  0  0  0  0  0  1 V2000
  146.0175  132.8098  149.9352 C   0  0  0  0  0  0  0  0  0  0  0  0
  144.7598  133.1648  150.7465 C   0  0  0  0  0  0  0  0  0  0  0  0
  143.6169  132.2284  150.3167 C   0  0  0  0  0  0  0  0  0  0  0  0
  145.0652  132.9761  152.2438 C   0  0  0  0  0  0  0  0  0  0  0  0
  144.3546  134.9145  150.3976 S   0  0  0  0  0  0  0  0  0  0  0  0
  145.7382  135.8881  151.0759 C   0  0  0  0  0  0  0  0  0  0  0  0
  145.3166  136.9334  152.1095 C   0  0  0  0  0  0  0  0  0  0  0  0
  144.1351  137.0440  152.4374 O   0  0  0  0  0  0  0  0  0  0  0  0
  146.2979  137.6875  152.6273 N   0  0  0  0  0  0  0  0  0  0  0  0
  146.1119  138.6836  153.6752 C   0  0  0  0  0  0  0  0  0  0  0  0
  147.3591  139.5150  153.9208 C   0  0  0  0  0  0  0  0  0  0  0  0
  147.4337  140.8476  153.4718 C   0  0  0  0  0  0  0  0  0  0  0  0
  148.6117  141.5725  153.7287 C   0  0  0  0  0  0  0  0  0  0  0  0
  149.6726  141.0536  154.3817 N   0  0  0  0  0  0  0  0  0  0  0  0
  149.6110  139.7722  154.8219 C   0  0  0  0  0  0  0  0  0  0  0  0
  150.7312  139.2432  155.4991 N   0  0  0  0  0  0  0  0  0  0  0  0
  151.9404  138.9737  154.7231 C   0  0  0  0  0  0  0  0  0  0  0  0
  152.9274  138.1295  155.5467 C   0  0  0  0  0  0  0  0  0  0  0  0
  153.2003  138.7797  156.7836 O   0  0  0  0  0  0  0  0  0  0  0  0
  152.0246  138.9358  157.5711 C   0  0  0  0  0  0  0  0  0  0  0  0
  151.0061  139.8079  156.8176 C   0  0  0  0  0  0  0  0  0  0  0  0
  148.4659  138.9692  154.6045 C   0  0  0  0  0  0  0  0  0  0  0  0
  146.3236  131.7764  150.1027 H   0  0  0  0  0  0  0  0  0  0  0  0
  146.8587  133.4488  150.2068 H   0  0  0  0  0  0  0  0  0  0  0  0
  145.8451  132.9312  148.8650 H   0  0  0  0  0  0  0  0  0  0  0  0
  143.3056  132.4205  149.2892 H   0  0  0  0  0  0  0  0  0  0  0  0
  142.7436  132.3354  150.9583 H   0  0  0  0  0  0  0  0  0  0  0  0
  143.9247  131.1845  150.3758 H   0  0  0  0  0  0  0  0  0  0  0  0
  145.4091  131.9617  152.4493 H   0  0  0  0  0  0  0  0  0  0  0  0
  144.1876  133.1457  152.8659 H   0  0  0  0  0  0  0  0  0  0  0  0
  145.8454  133.6608  152.5780 H   0  0  0  0  0  0  0  0  0  0  0  0
  146.5056  135.2284  151.4782 H   0  0  0  0  0  0  0  0  0  0  0  0
  146.1991  136.4235  150.2456 H   0  0  0  0  0  0  0  0  0  0  0  0
  147.2414  137.5343  152.3022 H   0  0  0  0  0  0  0  0  0  0  0  0
  145.3053  139.3518  153.3733 H   0  0  0  0  0  0  0  0  0  0  0  0
  145.7847  138.2029  154.5989 H   0  0  0  0  0  0  0  0  0  0  0  0
  146.6100  141.3080  152.9467 H   0  0  0  0  0  0  0  0  0  0  0  0
  148.7059  142.5967  153.3994 H   0  0  0  0  0  0  0  0  0  0  0  0
  151.6904  138.4417  153.8043 H   0  0  0  0  0  0  0  0  0  0  0  0
  152.4046  139.9189  154.4380 H   0  0  0  0  0  0  0  0  0  0  0  0
  152.5269  137.1309  155.7291 H   0  0  0  0  0  0  0  0  0  0  0  0
  153.8609  138.0025  154.9982 H   0  0  0  0  0  0  0  0  0  0  0  0
  151.5997  137.9591  157.8089 H   0  0  0  0  0  0  0  0  0  0  0  0
  152.2919  139.4055  158.5179 H   0  0  0  0  0  0  0  0  0  0  0  0
  151.4066  140.8138  156.6883 H   0  0  0  0  0  0  0  0  0  0  0  0
  150.1021  139.8994  157.4176 H   0  0  0  0  0  0  0  0  0  0  0  0
  148.4313  137.9436  154.9403 H   0  0  0  0  0  0  0  0  0  0  0  0
  1  2  1  0  0  0  0
  1 23  1  0  0  0  0
  1 24  1  0  0  0  0
  1 25  1  0  0  0  0
  2  3  1  0  0  0  0
  2  4  1  0  0  0  0
  2  5  1  0  0  0  0
  3 26  1  0  0  0  0
  3 27  1  0  0  0  0
  3 28  1  0  0  0  0
  4 29  1  0  0  0  0
  4 30  1  0  0  0  0
  4 31  1  0  0  0  0
  5  6  1  0  0  0  0
  6  7  1  0  0  0  0
  6 32  1  0  0  0  0
  6 33  1  0  0  0  0
  7  8  2  0  0  0  0
  7  9  1  0  0  0  0
  9 10  1  0  0  0  0
  9 34  1  0  0  0  0
 10 11  1  0  0  0  0
 10 35  1  0  0  0  0
 10 36  1  0  0  0  0
 11 22  1  0  0  0  0
 11 12  2  0  0  0  0
 12 13  1  0  0  0  0
 12 37  1  0  0  0  0
 13 14  2  0  0  0  0
 13 38  1  0  0  0  0
 14 15  1  0  0  0  0
 15 16  1  0  0  0  0
 15 22  2  0  0  0  0
 16 21  1  0  0  0  0
 16 17  1  0  0  0  0
 17 18  1  0  0  0  0
 17 39  1  0  0  0  0
 17 40  1  0  0  0  0
 18 19  1  0  0  0  0
 18 41  1  0  0  0  0
 18 42  1  0  0  0  0
 19 20  1  0  0  0  0
 20 21  1  0  0  0  0
 20 43  1  0  0  0  0
 20 44  1  0  0  0  0
 21 45  1  0  0  0  0
 21 46  1  0  0  0  0
 22 47  1  0  0  0  0
M  END
> <s_m_source_file>
AV-unprocessed.smi

> <i_m_source_file_index>
2806

> <i_lp_mmshare_version>
43012

> <i_f3d_flags>
0

> <s_epik_input>
W0NIM11DKFtDSDNdKShbQ0gzXSlTW0NIMl1DKD1PKVtOSF1bQ0gyXWMxW2NIXVtjSF1uYyhbY0hdMSlOMltDSDJdW0NIMl1PW0NIMl1bQ0gyXTI=

> <s_epik_cmdline>
J2VwaWtfcHl0aG9uJywgJy1waCcsICc3LjAnLCAnLXRuJywgJzgnLCAnLW1hJywgJzIwMCcsICctbWV0YWxfYmluZGluZycsICctaW1hZScsICc8aW5maWxlLm1hZT4nLCAnLW9tYWUnLCAnPG91dGZpbGUubWFlPic=

> <r_lp_tautomer_probability>
1

> <r_epik_Ionization_Penalty>
0.00423361

> <r_epik_Ionization_Penalty_Charging>
0

> <r_epik_Ionization_Penalty_Neutral>
0.00423361

> <r_epik_State_Penalty>
0.00304279

> <r_epik_Charging_Adjusted_Penalty>
0.00304279

> <i_epik_Tot_Q>
0

> <i_epik_Tot_abs_Q>
0

> <r_epik_Metal_State_Penalty>
-0

> <b_epik_Metal_Only>
0

> <s_lp_Force_Field>
OPLS_2005

> <r_lp_Energy>
13.38

> <b_lp_Chiralities_Consistent>
1

> <s_lp_Variant>
AV-unprocessed.smi:2806-1

> <Gold.Version>
5.8.1

> <Gold.Id.Protein>
6NUR|6NUR_protein|mol2

> <Gold.PLP.Fitness>
42.9433

> <Gold.PLP.PLP>
-36.5724

> <Gold.PLP.part.hbond>
-3.0000

> <Gold.PLP.part.metal>
0.0000

> <Gold.PLP.part.buried>
-0.5533

> <Gold.PLP.part.nonpolar>
-32.8260

> <Gold.PLP.part.repulsive>
0.3743

> <Gold.PLP.ligand.clash>
0.0000

> <Gold.PLP.ligand.torsion>
0.7807

> <Gold.PLP.Chemscore.Hbond>
2.5085

> <Gold.PLP.Chemscore.CHOScore>
0.0000

> <Gold.PLP.Chemscore.Metal>
0.0000

> <Gold.Chemscore.Hbonds>
donor molecule, donor type, donor heavy atom, donor atom, acceptor molecule, acceptor atom, score
      L1  H     9    34       P1  7948  0.63
      P1  H  7989  7998       L1    14  0.33
      P1  H  7997  8009       L1    19  1.00

> <Gold.PLP.Chemscore.Internal.Correction>
0.4067

> <Gold.Rescore>
     Score         DG    S(hbond)    S(metal)    S(lipo)     H(rot)  DE(clash)    DE(int)     intcor
     16.98     -19.06       1.89        0.00      99.91       1.73       1.04       1.04       ----

> <Gold.Chemscore.Fitness>
16.9816

> <Gold.Chemscore.DG>
-19.0566

> <Gold.Chemscore.ZeroCoef>
-5.4800

> <Gold.Chemscore.Hbond>
1.8915

> <Gold.Chemscore.Metal>
0.0000

> <Gold.Chemscore.Lipo>
99.9130

> <Gold.Chemscore.Internal_Hbond>
0.0000

> <Gold.Chemscore.DEClash>
1.0366

> <Gold.Chemscore.DEInternal>
1.0384

> <Gold.Chemscore.Rot>
1.7308

> <Gold.Chemscore.Internal.Correction>
   9.000000E+99

> <Gold.Chemscore.Hbonds>
donor molecule, donor type, donor heavy atom, donor atom, acceptor molecule, acceptor atom, score
      L1  H     9    34       P1  7948  0.61
      P1  H  7989  7998       L1    14  0.05
      P1  H  7997  8009       L1    19  0.68

> <Gold.Chemscore.Hbond.Weighted>
-6.3177

> <Gold.Chemscore.Metal.Weighted>
-0.0000

> <Gold.Chemscore.Lipo.Weighted>
-11.6898

> <Gold.Chemscore.Internal_Hbond.Weighted>
0.0000

> <Gold.Chemscore.DEClash.Weighted>
1.0366

> <Gold.Chemscore.DEInternal.Weighted>
1.0384

> <Gold.Chemscore.Rot.Weighted>
4.4309

> <Gold.Chemscore.Internal.Correction.Weighted>
   9.000000E+99

> <Gold.Protein.RotatedTorsions>
[ 6907 6896 6895 6894 ] final  140.21 input  -60.11 | X-H torsion
[ 7974 7965 7964 7962 ] final  -97.51 input  175.53 | X-H torsion
[ 8008 7997 7996 7995 ] final -172.70 input   59.86 | X-H torsion
[ 10167 10162 10161 10158 ] final  125.68 input  -65.29 | X-H torsion
[ 10718 10713 10712 10709 ] final   77.25 input   66.30 | X-H torsion
[ 10763 10752 10751 10750 ] final  -32.26 input  -60.55 | X-H torsion
[ 11005 11000 10999 10996 ] final  176.14 input  -57.11 | X-H torsion

> <Gold.Protein.ActiveResidues>
 VAL166  LYS551  ARG553  GLY616  TRP617  ASP618  TYR619  PRO620  LYS621  CYS622 
 ASP623  PHE694  ASN695  SER759  ASP760  ASP761  ALA762  ILE779  LEU786  VAL792 
 PHE793  MET794  SER795  GLU796  ALA797  LYS798  CYS799  TRP800  GLU811  SER814 

> <Gold.Protein.RotatedAtoms>
  152.2458  133.5173  159.5295 H   0  0  0  0  0  0  0  0  0  0  0  0  # atno 6907 bound_to 6896
  150.7078  134.1028  159.3981 H   0  0  0  0  0  0  0  0  0  0  0  0  # atno 6908 bound_to 6896
  151.8948  135.0402  160.0552 H   0  0  0  0  0  0  0  0  0  0  0  0  # atno 6909 bound_to 6896
  145.3328  140.9445  143.2652 H   0  0  0  0  0  0  0  0  0  0  0  0  # atno 7974 bound_to 7965
  155.9479  140.1121  157.1001 H   0  0  0  0  0  0  0  0  0  0  0  0  # atno 8008 bound_to 7997
  154.4103  140.1206  156.5080 H   0  0  0  0  0  0  0  0  0  0  0  0  # atno 8009 bound_to 7997
  155.6879  140.3473  155.4884 H   0  0  0  0  0  0  0  0  0  0  0  0  # atno 8010 bound_to 7997
  139.5672  144.6918  151.3877 H   0  0  0  0  0  0  0  0  0  0  0  0  # atno 10167 bound_to 10162
  157.6703  130.9813  150.1614 H   0  0  0  0  0  0  0  0  0  0  0  0  # atno 10718 bound_to 10713
  153.8108  135.6882  153.4841 H   0  0  0  0  0  0  0  0  0  0  0  0  # atno 10763 bound_to 10752
  153.1629  135.4572  154.9796 H   0  0  0  0  0  0  0  0  0  0  0  0  # atno 10764 bound_to 10752
  154.7968  135.3322  154.7589 H   0  0  0  0  0  0  0  0  0  0  0  0  # atno 10765 bound_to 10752
  140.3698  134.7039  157.4385 H   0  0  0  0  0  0  0  0  0  0  0  0  # atno 11005 bound_to 11000
  144.8851  139.4851  143.6704 LP  0  0  0  0  0  0  0  0  0  0  0  0  # atno 17320 bound_to 7965
  146.3039  139.7515  142.9071 LP  0  0  0  0  0  0  0  0  0  0  0  0  # atno 17321 bound_to 7965
  140.6956  143.7757  150.7321 LP  0  0  0  0  0  0  0  0  0  0  0  0  # atno 17342 bound_to 10162
  140.1252  143.4575  152.2288 LP  0  0  0  0  0  0  0  0  0  0  0  0  # atno 17343 bound_to 10162
  156.2390  130.3689  149.8359 LP  0  0  0  0  0  0  0  0  0  0  0  0  # atno 17370 bound_to 10713
  156.6164  130.8608  151.3466 LP  0  0  0  0  0  0  0  0  0  0  0  0  # atno 17371 bound_to 10713
  140.0560  134.6062  155.8804 LP  0  0  0  0  0  0  0  0  0  0  0  0  # atno 17394 bound_to 11000
  141.1958  133.6588  156.5660 LP  0  0  0  0  0  0  0  0  0  0  0  0  # atno 17395 bound_to 11000

$$$$
