AV-unprocessed.smi:1878|AV-procd|sdf|7630|dock3
  -GOLD-   22720 9353D 1   1.00000     0.00000
 Structure written by MMmdl.
 35 36  0  0  0  0  0  0  0  0  3 V2000
  151.2506  140.8571  156.8071 O   0  0  0  0  0  0  0  0  0  0  0  0
  150.5686  141.7267  156.2642 C   0  0  0  0  0  0  0  0  0  0  0  0
  150.2705  142.8408  156.9450 N   0  0  0  0  0  0  0  0  0  0  0  0
  150.6877  143.1282  158.3125 C   0  0  0  0  0  0  0  0  0  0  0  0
  151.6220  144.3457  158.3630 C   0  0  0  0  0  0  0  0  0  0  0  0
  150.9603  145.3886  158.8632 F   0  0  0  0  0  0  0  0  0  0  0  0
  152.6735  144.0923  159.1426 F   0  0  0  0  0  0  0  0  0  0  0  0
  152.0474  144.6564  157.1382 F   0  0  0  0  0  0  0  0  0  0  0  0
  150.0485  141.7176  155.0105 N   0  5  0  0  0  0  0  0  0  0  0  0
  149.1644  140.8321  154.5019 C   0  0  0  0  0  0  0  0  0  0  0  0
  147.7910  141.1194  154.6844 C   0  0  0  0  0  0  0  0  0  0  0  0
  146.7919  140.2561  154.1926 C   0  0  0  0  0  0  0  0  0  0  0  0
  147.1722  139.0854  153.5033 C   0  0  0  0  0  0  0  0  0  0  0  0
  146.2644  138.1575  152.9742 N   0  0  0  0  0  0  0  0  0  0  0  0
  146.3147  136.8341  153.5733 C   0  0  0  0  0  0  0  0  0  0  0  0
  145.5833  135.9129  152.5936 C   0  0  0  0  0  0  0  0  0  0  0  0
  145.6349  136.6475  151.2487 C   0  0  0  0  0  0  0  0  0  0  0  0
  146.3805  137.9525  151.5402 C   0  0  0  0  0  0  0  0  0  0  0  0
  148.4846  138.8256  153.3404 N   0  3  0  0  0  0  0  0  0  0  0  0
  149.4654  139.6320  153.8010 C   0  0  0  0  0  0  0  0  0  0  0  0
  149.7116  143.5413  156.4802 H   0  0  0  0  0  0  0  0  0  0  0  0
  149.8053  143.3116  158.9275 H   0  0  0  0  0  0  0  0  0  0  0  0
  151.1933  142.2548  158.7272 H   0  0  0  0  0  0  0  0  0  0  0  0
  147.4942  142.0153  155.2111 H   0  0  0  0  0  0  0  0  0  0  0  0
  145.7510  140.4968  154.3495 H   0  0  0  0  0  0  0  0  0  0  0  0
  147.3466  136.5034  153.6972 H   0  0  0  0  0  0  0  0  0  0  0  0
  145.8410  136.8305  154.5554 H   0  0  0  0  0  0  0  0  0  0  0  0
  146.0463  134.9268  152.5471 H   0  0  0  0  0  0  0  0  0  0  0  0
  144.5460  135.7784  152.9028 H   0  0  0  0  0  0  0  0  0  0  0  0
  146.1363  136.0639  150.4760 H   0  0  0  0  0  0  0  0  0  0  0  0
  144.6226  136.8578  150.9014 H   0  0  0  0  0  0  0  0  0  0  0  0
  145.9520  138.7901  150.9889 H   0  0  0  0  0  0  0  0  0  0  0  0
  147.4281  137.8595  151.2501 H   0  0  0  0  0  0  0  0  0  0  0  0
  150.4572  139.2701  153.5823 H   0  0  0  0  0  0  0  0  0  0  0  0
  148.7529  137.9763  152.8434 H   0  0  0  0  0  0  0  0  0  0  0  0
  1  2  2  0  0  0  0
  2  3  1  0  0  0  0
  2  9  1  0  0  0  0
  3  4  1  0  0  0  0
  3 21  1  0  0  0  0
  4  5  1  0  0  0  0
  4 22  1  0  0  0  0
  4 23  1  0  0  0  0
  5  6  1  0  0  0  0
  5  7  1  0  0  0  0
  5  8  1  0  0  0  0
  9 10  1  0  0  0  0
 10 20  1  0  0  0  0
 10 11  2  0  0  0  0
 11 12  1  0  0  0  0
 11 24  1  0  0  0  0
 12 13  2  0  0  0  0
 12 25  1  0  0  0  0
 13 14  1  0  0  0  0
 13 19  1  0  0  0  0
 14 18  1  0  0  0  0
 14 15  1  0  0  0  0
 15 16  1  0  0  0  0
 15 26  1  0  0  0  0
 15 27  1  0  0  0  0
 16 17  1  0  0  0  0
 16 28  1  0  0  0  0
 16 29  1  0  0  0  0
 17 18  1  0  0  0  0
 17 30  1  0  0  0  0
 17 31  1  0  0  0  0
 18 32  1  0  0  0  0
 18 33  1  0  0  0  0
 19 20  2  0  0  0  0
 19 35  1  0  0  0  0
 20 34  1  0  0  0  0
M  CHG  1   9  -1
M  CHG  1  19   1
M  END
> <s_m_source_file>
AV-unprocessed.smi

> <i_m_source_file_index>
1878

> <i_lp_mmshare_version>
43012

> <i_f3d_flags>
0

> <s_epik_input>
RkMoRikoRilbQ0gyXVtOSF1DKD1PKVtOSF1jMVtjSF1bY0hdYyhuW2NIXTEpTjJbQ0gyXVtDSDJdW0NIMl1bQ0gyXTI=

> <s_epik_cmdline>
J2VwaWtfcHl0aG9uJywgJy1waCcsICc3LjAnLCAnLXRuJywgJzgnLCAnLW1hJywgJzIwMCcsICctbWV0YWxfYmluZGluZycsICctaW1hZScsICc8aW5maWxlLm1hZT4nLCAnLW9tYWUnLCAnPG91dGZpbGUubWFlPic=

> <r_lp_tautomer_probability>
0.999994

> <r_epik_Ionization_Penalty>
6.00991

> <r_epik_Ionization_Penalty_Charging>
6.00991

> <r_epik_Ionization_Penalty_Neutral>
1.33916e-07

> <r_epik_State_Penalty>
7.27363

> <r_epik_Charging_Adjusted_Penalty>
13.2835

> <i_epik_Tot_Q>
0

> <i_epik_Tot_abs_Q>
2

> <r_epik_Metal_State_Penalty>
3.28277

> <b_epik_Metal_Only>
1

> <s_lp_Force_Field>
OPLS_2005

> <r_lp_Energy>
31.9355

> <b_lp_Chiralities_Consistent>
1

> <s_lp_Variant>
AV-unprocessed.smi:1878-5

> <Gold.Version>
5.8.1

> <Gold.Id.Protein>
6NUR|6NUR_protein|mol2

> <Gold.PLP.Fitness>
42.8784

> <Gold.PLP.PLP>
-38.4052

> <Gold.PLP.part.hbond>
-3.9317

> <Gold.PLP.part.metal>
0.0000

> <Gold.PLP.part.buried>
4.1709

> <Gold.PLP.part.nonpolar>
-39.7907

> <Gold.PLP.part.repulsive>
0.4966

> <Gold.PLP.ligand.clash>
0.0000

> <Gold.PLP.ligand.torsion>
2.3318

> <Gold.PLP.Chemscore.Hbond>
3.0176

> <Gold.PLP.Chemscore.CHOScore>
0.0000

> <Gold.PLP.Chemscore.Metal>
0.0000

> <Gold.Chemscore.Hbonds>
donor molecule, donor type, donor heavy atom, donor atom, acceptor molecule, acceptor atom, score
      L1  H     3    21       P1  8028  1.00
      L1  H    19    35       P1  7948  2.00
      P1  H  7989  7998       L1     9  0.04

> <Gold.PLP.Chemscore.Internal.Correction>
0.0840

> <Gold.Rescore>
     Score         DG    S(hbond)    S(metal)    S(lipo)     H(rot)  DE(clash)    DE(int)     intcor
     13.20     -16.03       1.90        0.00      64.98       1.33       0.41       2.41       ----

> <Gold.Chemscore.Fitness>
13.2048

> <Gold.Chemscore.DG>
-16.0317

> <Gold.Chemscore.ZeroCoef>
-5.4800

> <Gold.Chemscore.Hbond>
1.9037

> <Gold.Chemscore.Metal>
0.0000

> <Gold.Chemscore.Lipo>
64.9799

> <Gold.Chemscore.Internal_Hbond>
0.0000

> <Gold.Chemscore.DEClash>
0.4123

> <Gold.Chemscore.DEInternal>
2.4146

> <Gold.Chemscore.Rot>
1.3317

> <Gold.Chemscore.Internal.Correction>
   9.000000E+99

> <Gold.Chemscore.Hbonds>
donor molecule, donor type, donor heavy atom, donor atom, acceptor molecule, acceptor atom, score
      L1  H     3    21       P1  8028  1.00
      L1  H    19    35       P1  7948  0.97

> <Gold.Chemscore.Hbond.Weighted>
-6.3583

> <Gold.Chemscore.Metal.Weighted>
-0.0000

> <Gold.Chemscore.Lipo.Weighted>
-7.6027

> <Gold.Chemscore.Internal_Hbond.Weighted>
0.0000

> <Gold.Chemscore.DEClash.Weighted>
0.4123

> <Gold.Chemscore.DEInternal.Weighted>
2.4146

> <Gold.Chemscore.Rot.Weighted>
3.4092

> <Gold.Chemscore.Internal.Correction.Weighted>
   9.000000E+99

> <Gold.Protein.RotatedTorsions>
[ 6907 6896 6895 6894 ] final  -19.09 input  -60.11 | X-H torsion
[ 7974 7965 7964 7962 ] final   91.86 input  175.53 | X-H torsion
[ 8008 7997 7996 7995 ] final   24.16 input   59.86 | X-H torsion
[ 10167 10162 10161 10158 ] final -146.80 input  -65.29 | X-H torsion
[ 10718 10713 10712 10709 ] final -173.85 input   66.30 | X-H torsion
[ 10763 10752 10751 10750 ] final -172.06 input  -60.55 | X-H torsion
[ 11005 11000 10999 10996 ] final   59.53 input  -57.11 | X-H torsion

> <Gold.Protein.ActiveResidues>
 VAL166  LYS551  ARG553  GLY616  TRP617  ASP618  TYR619  PRO620  LYS621  CYS622 
 ASP623  PHE694  ASN695  SER759  ASP760  ASP761  ALA762  ILE779  LEU786  VAL792 
 PHE793  MET794  SER795  GLU796  ALA797  LYS798  CYS799  TRP800  GLU811  SER814 

> <Gold.Protein.RotatedAtoms>
  151.2684  135.0676  159.9124 H   0  0  0  0  0  0  0  0  0  0  0  0  # atno 6907 bound_to 6896
  152.5354  134.0157  159.7969 H   0  0  0  0  0  0  0  0  0  0  0  0  # atno 6908 bound_to 6896
  151.0391  133.5672  159.2684 H   0  0  0  0  0  0  0  0  0  0  0  0  # atno 6909 bound_to 6896
  145.5000  139.2276  143.2782 H   0  0  0  0  0  0  0  0  0  0  0  0  # atno 7974 bound_to 7965
  154.9921  140.3115  155.4902 H   0  0  0  0  0  0  0  0  0  0  0  0  # atno 8008 bound_to 7997
  156.2938  140.2247  156.4966 H   0  0  0  0  0  0  0  0  0  0  0  0  # atno 8009 bound_to 7997
  154.7694  140.0453  157.1027 H   0  0  0  0  0  0  0  0  0  0  0  0  # atno 8010 bound_to 7997
  139.7680  143.8279  152.2619 H   0  0  0  0  0  0  0  0  0  0  0  0  # atno 10167 bound_to 10162
  156.7764  130.9467  151.3120 H   0  0  0  0  0  0  0  0  0  0  0  0  # atno 10718 bound_to 10713
  154.6235  135.2878  155.0299 H   0  0  0  0  0  0  0  0  0  0  0  0  # atno 10763 bound_to 10752
  154.1485  135.6507  153.4962 H   0  0  0  0  0  0  0  0  0  0  0  0  # atno 10764 bound_to 10752
  153.0247  135.5350  154.7034 H   0  0  0  0  0  0  0  0  0  0  0  0  # atno 10765 bound_to 10752
  140.0297  134.6030  155.9524 H   0  0  0  0  0  0  0  0  0  0  0  0  # atno 11005 bound_to 11000
  146.2232  140.5800  142.9008 LP  0  0  0  0  0  0  0  0  0  0  0  0  # atno 17320 bound_to 7965
  144.7785  140.5791  143.6621 LP  0  0  0  0  0  0  0  0  0  0  0  0  # atno 17321 bound_to 7965
  139.8305  144.7256  150.9456 LP  0  0  0  0  0  0  0  0  0  0  0  0  # atno 17342 bound_to 10162
  140.7812  143.4074  151.1048 LP  0  0  0  0  0  0  0  0  0  0  0  0  # atno 17343 bound_to 10162
  157.6667  130.9014  149.9948 LP  0  0  0  0  0  0  0  0  0  0  0  0  # atno 17370 bound_to 10713
  156.1246  130.3645  149.9831 LP  0  0  0  0  0  0  0  0  0  0  0  0  # atno 17371 bound_to 10713
  141.1824  133.6549  156.5074 LP  0  0  0  0  0  0  0  0  0  0  0  0  # atno 17394 bound_to 11000
  140.4246  134.7156  157.4909 LP  0  0  0  0  0  0  0  0  0  0  0  0  # atno 17395 bound_to 11000

$$$$
