AV-unprocessed.smi:2061|AV-procd|sdf|8363|dock8
  -GOLD-   2272011 33D 1   1.00000     0.00000
 Structure written by MMmdl.
 45 46  0  0  0  0  0  0  0  0  1 V2000
  143.7738  143.6964  162.3998 C   0  0  0  0  0  0  0  0  0  0  0  0
  144.4960  143.9317  161.1177 C   0  0  0  0  0  0  0  0  0  0  0  0
  145.5348  143.2895  160.5044 C   0  0  0  0  0  0  0  0  0  0  0  0
  145.7176  144.0423  159.3140 C   0  0  0  0  0  0  0  0  0  0  0  0
  146.7257  143.6922  158.3799 N   0  0  0  0  0  0  0  0  0  0  0  0
  147.3260  142.4991  158.2305 C   0  0  0  0  0  0  0  0  0  0  0  0
  147.0905  141.4987  158.9083 O   0  0  0  0  0  0  0  0  0  0  0  0
  148.2307  142.5327  157.2409 N   0  0  0  0  0  0  0  0  0  0  0  0
  149.0648  141.4128  156.8098 C   0  0  0  0  0  0  0  0  0  0  0  0
  149.9970  140.8838  157.9368 C   0  0  1  0  0  0  0  0  0  0  0  0
  150.4741  139.4560  157.5669 C   0  0  0  0  0  0  0  0  0  0  0  0
  151.1203  141.8018  158.2434 N   0  0  0  0  0  0  0  0  0  0  0  0
  152.1417  141.1828  159.0937 C   0  0  0  0  0  0  0  0  0  0  0  0
  153.3226  142.1238  159.3923 C   0  0  2  0  0  0  0  0  0  0  0  0
  154.3395  141.4869  160.3456 C   0  0  0  0  0  0  0  0  0  0  0  0
  152.8379  143.3166  159.9991 O   0  0  0  0  0  0  0  0  0  0  0  0
  151.8335  143.9991  159.2524 C   0  0  1  0  0  0  0  0  0  0  0  0
  152.4205  144.7251  158.0297 C   0  0  0  0  0  0  0  0  0  0  0  0
  150.6798  143.0396  158.8977 C   0  0  0  0  0  0  0  0  0  0  0  0
  144.8677  145.0526  159.2101 N   0  0  0  0  0  0  0  0  0  0  0  0
  144.0810  144.9873  160.3662 O   0  0  0  0  0  0  0  0  0  0  0  0
  144.0062  142.7098  162.8012 H   0  0  0  0  0  0  0  0  0  0  0  0
  142.6951  143.7567  162.2542 H   0  0  0  0  0  0  0  0  0  0  0  0
  144.0575  144.4403  163.1443 H   0  0  0  0  0  0  0  0  0  0  0  0
  146.0744  142.4216  160.8538 H   0  0  0  0  0  0  0  0  0  0  0  0
  147.0209  144.4300  157.7578 H   0  0  0  0  0  0  0  0  0  0  0  0
  148.3546  143.4022  156.7435 H   0  0  0  0  0  0  0  0  0  0  0  0
  148.4647  140.5942  156.4089 H   0  0  0  0  0  0  0  0  0  0  0  0
  149.6376  141.8099  155.9743 H   0  0  0  0  0  0  0  0  0  0  0  0
  149.3861  140.7902  158.8360 H   0  0  0  0  0  0  0  0  0  0  0  0
  149.6503  138.7967  157.2971 H   0  0  0  0  0  0  0  0  0  0  0  0
  150.9696  138.9558  158.3976 H   0  0  0  0  0  0  0  0  0  0  0  0
  151.1646  139.4777  156.7231 H   0  0  0  0  0  0  0  0  0  0  0  0
  151.6905  140.8498  160.0299 H   0  0  0  0  0  0  0  0  0  0  0  0
  152.5587  140.3004  158.6125 H   0  0  0  0  0  0  0  0  0  0  0  0
  153.8354  142.3701  158.4621 H   0  0  0  0  0  0  0  0  0  0  0  0
  154.7505  140.5684  159.9258 H   0  0  0  0  0  0  0  0  0  0  0  0
  153.8815  141.2418  161.3043 H   0  0  0  0  0  0  0  0  0  0  0  0
  155.1712  142.1651  160.5376 H   0  0  0  0  0  0  0  0  0  0  0  0
  151.4339  144.7683  159.9139 H   0  0  0  0  0  0  0  0  0  0  0  0
  151.6620  145.3396  157.5441 H   0  0  0  0  0  0  0  0  0  0  0  0
  152.8016  144.0298  157.2821 H   0  0  0  0  0  0  0  0  0  0  0  0
  153.2387  145.3828  158.3238 H   0  0  0  0  0  0  0  0  0  0  0  0
  149.9898  143.5930  158.2643 H   0  0  0  0  0  0  0  0  0  0  0  0
  150.1355  142.7903  159.8099 H   0  0  0  0  0  0  0  0  0  0  0  0
  1  2  1  0  0  0  0
  1 22  1  0  0  0  0
  1 23  1  0  0  0  0
  1 24  1  0  0  0  0
  2 21  1  0  0  0  0
  2  3  2  0  0  0  0
  3  4  1  0  0  0  0
  3 25  1  0  0  0  0
  4  5  1  0  0  0  0
  4 20  2  0  0  0  0
  5  6  1  0  0  0  0
  5 26  1  0  0  0  0
  6  7  2  0  0  0  0
  6  8  1  0  0  0  0
  8  9  1  0  0  0  0
  8 27  1  0  0  0  0
  9 10  1  0  0  0  0
  9 28  1  0  0  0  0
  9 29  1  0  0  0  0
 10 11  1  0  0  0  0
 10 12  1  0  0  0  0
 10 30  1  0  0  0  0
 11 31  1  0  0  0  0
 11 32  1  0  0  0  0
 11 33  1  0  0  0  0
 12 19  1  0  0  0  0
 12 13  1  0  0  0  0
 13 14  1  0  0  0  0
 13 34  1  0  0  0  0
 13 35  1  0  0  0  0
 14 15  1  0  0  0  0
 14 16  1  0  0  0  0
 14 36  1  0  0  0  0
 15 37  1  0  0  0  0
 15 38  1  0  0  0  0
 15 39  1  0  0  0  0
 16 17  1  0  0  0  0
 17 18  1  0  0  0  0
 17 19  1  0  0  0  0
 17 40  1  0  0  0  0
 18 41  1  0  0  0  0
 18 42  1  0  0  0  0
 18 43  1  0  0  0  0
 19 44  1  0  0  0  0
 19 45  1  0  0  0  0
 20 21  1  0  0  0  0
M  END
> <s_m_source_file>
AV-unprocessed.smi

> <i_m_source_file_index>
2061

> <i_lp_mmshare_version>
43012

> <i_f3d_flags>
0

> <s_epik_input>
W0NIM11jMVtjSF1jKG5vMSlbTkhdQyg9TylbTkhdW0NIMl1bQ0BIXShbQ0gzXSlOMltDSDJdW0NAQEhdKFtDSDNdKU9bQ0BASF0oW0NIM10pW0NIMl0y

> <s_epik_cmdline>
J2VwaWtfcHl0aG9uJywgJy1waCcsICc3LjAnLCAnLXRuJywgJzgnLCAnLW1hJywgJzIwMCcsICctbWV0YWxfYmluZGluZycsICctaW1hZScsICc8aW5maWxlLm1hZT4nLCAnLW9tYWUnLCAnPG91dGZpbGUubWFlPic=

> <r_epik_Ionization_Penalty>
0.214073

> <r_epik_Ionization_Penalty_Charging>
0

> <r_epik_Ionization_Penalty_Neutral>
0.214073

> <r_epik_State_Penalty>
0.204211

> <r_epik_Charging_Adjusted_Penalty>
0.204211

> <i_epik_Tot_Q>
0

> <i_epik_Tot_abs_Q>
0

> <r_epik_Metal_State_Penalty>
0.217067

> <b_epik_Metal_Only>
0

> <s_lp_Force_Field>
OPLS_2005

> <r_lp_Energy>
29.4213

> <b_lp_Chiralities_Consistent>
1

> <s_lp_Variant>
AV-unprocessed.smi:2061-4

> <Gold.Version>
5.8.1

> <Gold.Id.Protein>
6NUR|6NUR_protein|mol2

> <Gold.PLP.Fitness>
43.5761

> <Gold.PLP.PLP>
-37.1362

> <Gold.PLP.part.hbond>
-3.0000

> <Gold.PLP.part.metal>
0.0000

> <Gold.PLP.part.buried>
-5.5006

> <Gold.PLP.part.nonpolar>
-28.0792

> <Gold.PLP.part.repulsive>
0.3345

> <Gold.PLP.ligand.clash>
0.0000

> <Gold.PLP.ligand.torsion>
0.3903

> <Gold.PLP.Chemscore.Hbond>
2.3980

> <Gold.PLP.Chemscore.CHOScore>
0.0000

> <Gold.PLP.Chemscore.Metal>
0.0000

> <Gold.Chemscore.Hbonds>
donor molecule, donor type, donor heavy atom, donor atom, acceptor molecule, acceptor atom, score
      L1  H     5    26       P1  8029  0.85
      L1  H     8    27       P1  8028  0.95
      P1  H  6934  6946       L1     7  0.43

> <Gold.PLP.Chemscore.Internal.Correction>
0.0264

> <Gold.Rescore>
     Score         DG    S(hbond)    S(metal)    S(lipo)     H(rot)  DE(clash)    DE(int)     intcor
     13.74     -15.84       1.12        0.00      90.46       1.55       0.21       1.89       ----

> <Gold.Chemscore.Fitness>
13.7420

> <Gold.Chemscore.DG>
-15.8438

> <Gold.Chemscore.ZeroCoef>
-5.4800

> <Gold.Chemscore.Hbond>
1.1202

> <Gold.Chemscore.Metal>
0.0000

> <Gold.Chemscore.Lipo>
90.4592

> <Gold.Chemscore.Internal_Hbond>
0.0000

> <Gold.Chemscore.DEClash>
0.2088

> <Gold.Chemscore.DEInternal>
1.8930

> <Gold.Chemscore.Rot>
1.5474

> <Gold.Chemscore.Internal.Correction>
   9.000000E+99

> <Gold.Chemscore.Hbonds>
donor molecule, donor type, donor heavy atom, donor atom, acceptor molecule, acceptor atom, score
      L1  H     5    26       P1  8029  0.15
      L1  H     8    27       P1  8028  0.22
      P1  H  6934  6946       L1     7  0.44

> <Gold.Chemscore.Hbond.Weighted>
-3.7413

> <Gold.Chemscore.Metal.Weighted>
-0.0000

> <Gold.Chemscore.Lipo.Weighted>
-10.5837

> <Gold.Chemscore.Internal_Hbond.Weighted>
0.0000

> <Gold.Chemscore.DEClash.Weighted>
0.2088

> <Gold.Chemscore.DEInternal.Weighted>
1.8930

> <Gold.Chemscore.Rot.Weighted>
3.9612

> <Gold.Chemscore.Internal.Correction.Weighted>
   9.000000E+99

> <Gold.Protein.RotatedTorsions>
[ 6907 6896 6895 6894 ] final -175.50 input  -60.11 | X-H torsion
[ 7974 7965 7964 7962 ] final -136.74 input  175.53 | X-H torsion
[ 8008 7997 7996 7995 ] final  152.46 input   59.86 | X-H torsion
[ 10167 10162 10161 10158 ] final  -97.55 input  -65.29 | X-H torsion
[ 10718 10713 10712 10709 ] final  -60.48 input   66.30 | X-H torsion
[ 10763 10752 10751 10750 ] final -151.44 input  -60.55 | X-H torsion
[ 11005 11000 10999 10996 ] final -136.20 input  -57.11 | X-H torsion

> <Gold.Protein.ActiveResidues>
 VAL166  LYS551  ARG553  GLY616  TRP617  ASP618  TYR619  PRO620  LYS621  CYS622 
 ASP623  PHE694  ASN695  SER759  ASP760  ASP761  ALA762  ILE779  LEU786  VAL792 
 PHE793  MET794  SER795  GLU796  ALA797  LYS798  CYS799  TRP800  GLU811  SER814 

> <Gold.Protein.RotatedAtoms>
  151.5896  133.3368  159.3024 H   0  0  0  0  0  0  0  0  0  0  0  0  # atno 6907 bound_to 6896
  150.8267  134.7505  159.6830 H   0  0  0  0  0  0  0  0  0  0  0  0  # atno 6908 bound_to 6896
  152.4356  134.5699  159.9970 H   0  0  0  0  0  0  0  0  0  0  0  0  # atno 6909 bound_to 6896
  144.8901  140.6630  143.5151 H   0  0  0  0  0  0  0  0  0  0  0  0  # atno 7974 bound_to 7965
  156.2628  140.2020  156.6337 H   0  0  0  0  0  0  0  0  0  0  0  0  # atno 8008 bound_to 7997
  154.6663  140.0555  157.0141 H   0  0  0  0  0  0  0  0  0  0  0  0  # atno 8009 bound_to 7997
  155.1203  140.3224  155.4502 H   0  0  0  0  0  0  0  0  0  0  0  0  # atno 8010 bound_to 7997
  140.2822  143.3275  152.0430 H   0  0  0  0  0  0  0  0  0  0  0  0  # atno 10167 bound_to 10162
  156.0988  130.4189  150.0859 H   0  0  0  0  0  0  0  0  0  0  0  0  # atno 10718 bound_to 10713
  154.8057  135.3260  154.7436 H   0  0  0  0  0  0  0  0  0  0  0  0  # atno 10763 bound_to 10752
  153.8095  135.6897  153.4847 H   0  0  0  0  0  0  0  0  0  0  0  0  # atno 10764 bound_to 10752
  153.1802  135.4589  154.9962 H   0  0  0  0  0  0  0  0  0  0  0  0  # atno 10765 bound_to 10752
  140.8827  134.1912  157.4580 H   0  0  0  0  0  0  0  0  0  0  0  0  # atno 11005 bound_to 11000
  145.3798  139.1639  143.4286 LP  0  0  0  0  0  0  0  0  0  0  0  0  # atno 17320 bound_to 7965
  146.3048  140.3878  142.8691 LP  0  0  0  0  0  0  0  0  0  0  0  0  # atno 17321 bound_to 7965
  139.4959  144.6584  151.6521 LP  0  0  0  0  0  0  0  0  0  0  0  0  # atno 17342 bound_to 10162
  140.5802  143.9959  150.6264 LP  0  0  0  0  0  0  0  0  0  0  0  0  # atno 17343 bound_to 10162
  156.8852  130.9570  151.3595 LP  0  0  0  0  0  0  0  0  0  0  0  0  # atno 17370 bound_to 10713
  157.6154  130.8614  149.9020 LP  0  0  0  0  0  0  0  0  0  0  0  0  # atno 17371 bound_to 10713
  139.8721  134.9824  156.5156 LP  0  0  0  0  0  0  0  0  0  0  0  0  # atno 17394 bound_to 11000
  140.8442  133.8181  155.9105 LP  0  0  0  0  0  0  0  0  0  0  0  0  # atno 17395 bound_to 11000

$$$$
