AV-unprocessed.smi:1962|AV-procd|sdf|7923|dock1
  -GOLD-   2272010 93D 1   1.00000     0.00000
 Structure written by MMmdl.
 36 37  0  0  0  0  0  0  0  0  1 V2000
  151.4090  139.6318  155.2296 C   0  0  0  0  0  0  0  0  0  0  0  0
  151.0130  140.8277  156.1058 C   0  0  1  0  0  0  0  0  0  0  0  0
  149.4963  140.8402  156.3890 C   0  0  0  0  0  0  0  0  0  0  0  0
  148.7024  140.9377  155.1764 N   0  0  0  0  0  0  0  0  0  0  0  0
  147.8131  141.9269  154.8131 C   0  0  0  0  0  0  0  0  0  0  0  0
  147.2965  141.5821  153.5970 C   0  0  0  0  0  0  0  0  0  0  0  0
  147.9413  140.3507  153.2929 C   0  0  0  0  0  0  0  0  0  0  0  0
  148.7845  139.9689  154.2384 N   0  0  0  0  0  0  0  0  0  0  0  0
  151.7727  140.7746  157.3540 N   0  0  0  0  0  0  0  0  0  0  0  0
  151.6525  141.6285  158.3881 C   0  0  0  0  0  0  0  0  0  0  0  0
  150.8862  142.5922  158.3787 O   0  0  0  0  0  0  0  0  0  0  0  0
  152.4996  141.3344  159.5744 C   0  0  0  0  0  0  0  0  0  0  0  0
  152.5648  142.1831  160.5522 N   0  0  0  0  0  0  0  0  0  0  0  0
  153.3297  141.9484  161.6765 N   0  0  0  0  0  0  0  0  0  0  0  0
  153.0878  142.8682  162.7862 C   0  0  0  0  0  0  0  0  0  0  0  0
  154.2708  140.9771  161.7802 C   0  0  0  0  0  0  0  0  0  0  0  0
  154.9358  140.7742  162.7961 O   0  0  0  0  0  0  0  0  0  0  0  0
  154.5138  140.1259  160.5307 C   0  0  0  0  0  0  0  0  0  0  0  0
  153.2598  140.0244  159.6398 C   0  0  0  0  0  0  0  0  0  0  0  0
  150.8831  139.6549  154.2748 H   0  0  0  0  0  0  0  0  0  0  0  0
  151.1723  138.6856  155.7172 H   0  0  0  0  0  0  0  0  0  0  0  0
  152.4783  139.6385  155.0155 H   0  0  0  0  0  0  0  0  0  0  0  0
  151.2710  141.7316  155.5511 H   0  0  0  0  0  0  0  0  0  0  0  0
  149.2049  139.9228  156.9019 H   0  0  0  0  0  0  0  0  0  0  0  0
  149.2371  141.6640  157.0564 H   0  0  0  0  0  0  0  0  0  0  0  0
  147.6200  142.7803  155.4463 H   0  0  0  0  0  0  0  0  0  0  0  0
  146.5677  142.1256  153.0144 H   0  0  0  0  0  0  0  0  0  0  0  0
  147.8233  139.7273  152.4189 H   0  0  0  0  0  0  0  0  0  0  0  0
  152.4263  140.0110  157.4537 H   0  0  0  0  0  0  0  0  0  0  0  0
  153.9895  143.4382  163.0151 H   0  0  0  0  0  0  0  0  0  0  0  0
  152.7932  142.3206  163.6827 H   0  0  0  0  0  0  0  0  0  0  0  0
  152.2940  143.5826  162.5611 H   0  0  0  0  0  0  0  0  0  0  0  0
  155.3249  140.5922  159.9701 H   0  0  0  0  0  0  0  0  0  0  0  0
  154.8588  139.1314  160.8148 H   0  0  0  0  0  0  0  0  0  0  0  0
  152.5982  139.2434  160.0161 H   0  0  0  0  0  0  0  0  0  0  0  0
  153.5711  139.7092  158.6430 H   0  0  0  0  0  0  0  0  0  0  0  0
  1  2  1  0  0  0  0
  1 20  1  0  0  0  0
  1 21  1  0  0  0  0
  1 22  1  0  0  0  0
  2  3  1  0  0  0  0
  2  9  1  0  0  0  0
  2 23  1  0  0  0  0
  3  4  1  0  0  0  0
  3 24  1  0  0  0  0
  3 25  1  0  0  0  0
  4  8  1  0  0  0  0
  4  5  1  0  0  0  0
  5  6  2  0  0  0  0
  5 26  1  0  0  0  0
  6  7  1  0  0  0  0
  6 27  1  0  0  0  0
  7  8  2  0  0  0  0
  7 28  1  0  0  0  0
  9 10  1  0  0  0  0
  9 29  1  0  0  0  0
 10 11  2  0  0  0  0
 10 12  1  0  0  0  0
 12 19  1  0  0  0  0
 12 13  2  0  0  0  0
 13 14  1  0  0  0  0
 14 15  1  0  0  0  0
 14 16  1  0  0  0  0
 15 30  1  0  0  0  0
 15 31  1  0  0  0  0
 15 32  1  0  0  0  0
 16 17  2  0  0  0  0
 16 18  1  0  0  0  0
 18 19  1  0  0  0  0
 18 33  1  0  0  0  0
 18 34  1  0  0  0  0
 19 35  1  0  0  0  0
 19 36  1  0  0  0  0
M  END
> <s_m_source_file>
AV-unprocessed.smi

> <i_m_source_file_index>
1962

> <i_lp_mmshare_version>
43012

> <i_f3d_flags>
0

> <s_epik_input>
bjFbY0hdW2NIXVtjSF1uMVtDSDJdW0NAQEhdKFtDSDNdKVtOSF1DKD1PKUMyPU5OKFtDSDNdKUMoPU8pW0NIMl1bQ0gyXTI=

> <s_epik_cmdline>
J2VwaWtfcHl0aG9uJywgJy1waCcsICc3LjAnLCAnLXRuJywgJzgnLCAnLW1hJywgJzIwMCcsICctbWV0YWxfYmluZGluZycsICctaW1hZScsICc8aW5maWxlLm1hZT4nLCAnLW9tYWUnLCAnPG91dGZpbGUubWFlPic=

> <r_lp_tautomer_probability>
1

> <r_epik_Ionization_Penalty>
9.43868e-05

> <r_epik_Ionization_Penalty_Charging>
0

> <r_epik_Ionization_Penalty_Neutral>
9.43868e-05

> <r_epik_State_Penalty>
-0

> <r_epik_Charging_Adjusted_Penalty>
0

> <i_epik_Tot_Q>
0

> <i_epik_Tot_abs_Q>
0

> <r_epik_Metal_State_Penalty>
0.0732556

> <b_epik_Metal_Only>
0

> <s_epik_Chemistry_Notes>
This compound has an imine and may undergo hydrolysis.

> <s_lp_Force_Field>
OPLS_2005

> <r_lp_Energy>
16.0721

> <b_lp_Chiralities_Consistent>
1

> <s_lp_Variant>
AV-unprocessed.smi:1962-2

> <Gold.Version>
5.8.1

> <Gold.Id.Protein>
6NUR|6NUR_protein|mol2

> <Gold.PLP.Fitness>
41.8319

> <Gold.PLP.PLP>
-37.3867

> <Gold.PLP.part.hbond>
-1.0000

> <Gold.PLP.part.metal>
0.0000

> <Gold.PLP.part.buried>
-1.4498

> <Gold.PLP.part.nonpolar>
-34.3114

> <Gold.PLP.part.repulsive>
0.3113

> <Gold.PLP.ligand.clash>
0.0000

> <Gold.PLP.ligand.torsion>
0.0591

> <Gold.PLP.Chemscore.Hbond>
0.0000

> <Gold.PLP.Chemscore.CHOScore>
1.5018

> <Gold.PLP.Chemscore.Metal>
0.0000

> <Gold.Chemscore.Hbonds>
donor molecule, donor type, donor heavy atom, donor atom, acceptor molecule, acceptor atom, score
      L1  C     5    26       P1  8028  0.97
      L1  C     7    28       P1  7957  0.56

> <Gold.PLP.Chemscore.Internal.Correction>
0.0580

> <Gold.Rescore>
     Score         DG    S(hbond)    S(metal)    S(lipo)     H(rot)  DE(clash)    DE(int)     intcor
      8.45      -9.85       0.00        0.00      70.77       1.53       0.10       1.31       ----

> <Gold.Chemscore.Fitness>
8.4476

> <Gold.Chemscore.DG>
-9.8546

> <Gold.Chemscore.ZeroCoef>
-5.4800

> <Gold.Chemscore.Hbond>
0.0000

> <Gold.Chemscore.Metal>
0.0000

> <Gold.Chemscore.Lipo>
70.7663

> <Gold.Chemscore.Internal_Hbond>
0.0000

> <Gold.Chemscore.DEClash>
0.0952

> <Gold.Chemscore.DEInternal>
1.3118

> <Gold.Chemscore.Rot>
1.5254

> <Gold.Chemscore.Internal.Correction>
   9.000000E+99

> <Gold.Chemscore.Hbond.Weighted>
-0.0000

> <Gold.Chemscore.Metal.Weighted>
-0.0000

> <Gold.Chemscore.Lipo.Weighted>
-8.2797

> <Gold.Chemscore.Internal_Hbond.Weighted>
0.0000

> <Gold.Chemscore.DEClash.Weighted>
0.0952

> <Gold.Chemscore.DEInternal.Weighted>
1.3118

> <Gold.Chemscore.Rot.Weighted>
3.9051

> <Gold.Chemscore.Internal.Correction.Weighted>
   9.000000E+99

> <Gold.Protein.RotatedTorsions>
[ 6907 6896 6895 6894 ] final  -93.77 input  -60.11 | X-H torsion
[ 7974 7965 7964 7962 ] final   82.56 input  175.53 | X-H torsion
[ 8008 7997 7996 7995 ] final  160.81 input   59.86 | X-H torsion
[ 10167 10162 10161 10158 ] final  163.34 input  -65.29 | X-H torsion
[ 10718 10713 10712 10709 ] final  113.40 input   66.30 | X-H torsion
[ 10763 10752 10751 10750 ] final  -48.33 input  -60.55 | X-H torsion
[ 11005 11000 10999 10996 ] final -161.78 input  -57.11 | X-H torsion

> <Gold.Protein.ActiveResidues>
 VAL166  LYS551  ARG553  GLY616  TRP617  ASP618  TYR619  PRO620  LYS621  CYS622 
 ASP623  PHE694  ASN695  SER759  ASP760  ASP761  ALA762  ILE779  LEU786  VAL792 
 PHE793  MET794  SER795  GLU796  ALA797  LYS798  CYS799  TRP800  GLU811  SER814 

> <Gold.Protein.RotatedAtoms>
  150.6929  134.1916  159.4287 H   0  0  0  0  0  0  0  0  0  0  0  0  # atno 6907 bound_to 6896
  151.9886  134.9988  160.0570 H   0  0  0  0  0  0  0  0  0  0  0  0  # atno 6908 bound_to 6896
  152.1688  133.4595  159.4935 H   0  0  0  0  0  0  0  0  0  0  0  0  # atno 6909 bound_to 6896
  145.6235  139.2390  143.2125 H   0  0  0  0  0  0  0  0  0  0  0  0  # atno 7974 bound_to 7965
  156.2146  140.1794  156.7617 H   0  0  0  0  0  0  0  0  0  0  0  0  # atno 8008 bound_to 7997
  154.5773  140.0672  156.9082 H   0  0  0  0  0  0  0  0  0  0  0  0  # atno 8009 bound_to 7997
  155.2565  140.3333  155.4279 H   0  0  0  0  0  0  0  0  0  0  0  0  # atno 8010 bound_to 7997
  139.4872  144.4347  151.9027 H   0  0  0  0  0  0  0  0  0  0  0  0  # atno 10167 bound_to 10162
  157.6340  131.0983  150.7036 H   0  0  0  0  0  0  0  0  0  0  0  0  # atno 10718 bound_to 10713
  154.0760  135.6598  153.4831 H   0  0  0  0  0  0  0  0  0  0  0  0  # atno 10763 bound_to 10752
  153.0373  135.5168  154.7520 H   0  0  0  0  0  0  0  0  0  0  0  0  # atno 10764 bound_to 10752
  154.6601  135.3013  154.9846 H   0  0  0  0  0  0  0  0  0  0  0  0  # atno 10765 bound_to 10752
  140.6166  134.4794  157.5220 H   0  0  0  0  0  0  0  0  0  0  0  0  # atno 11005 bound_to 11000
  146.1413  140.7054  142.9366 LP  0  0  0  0  0  0  0  0  0  0  0  0  # atno 17320 bound_to 7965
  144.7222  140.4409  143.7000 LP  0  0  0  0  0  0  0  0  0  0  0  0  # atno 17321 bound_to 7965
  140.3796  144.2752  150.5910 LP  0  0  0  0  0  0  0  0  0  0  0  0  # atno 17342 bound_to 10162
  140.5245  143.2257  151.8336 LP  0  0  0  0  0  0  0  0  0  0  0  0  # atno 17343 bound_to 10162
  156.7370  130.4727  149.5486 LP  0  0  0  0  0  0  0  0  0  0  0  0  # atno 17370 bound_to 10713
  156.1564  130.6345  151.0663 LP  0  0  0  0  0  0  0  0  0  0  0  0  # atno 17371 bound_to 10713
  139.9170  134.8225  156.1333 LP  0  0  0  0  0  0  0  0  0  0  0  0  # atno 17394 bound_to 11000
  141.0771  133.6770  156.2259 LP  0  0  0  0  0  0  0  0  0  0  0  0  # atno 17395 bound_to 11000

$$$$
