AV-unprocessed.smi:893|AV-procd|sdf|4070|dock4
  -GOLD-   22720 1553D 1   1.00000     0.00000
 Structure written by MMmdl.
 26 27  0  0  0  0  0  0  0  0  2 V2000
  149.0266  140.4890  154.4116 C   0  0  0  0  0  0  0  0  0  0  0  0
  149.7707  141.3930  155.4135 C   0  0  0  0  0  0  0  0  0  0  0  0
  150.5737  140.6727  156.5317 C   0  0  1  0  0  0  0  0  0  0  0  0
  151.2811  141.6882  157.4157 C   0  0  0  0  0  0  0  0  0  0  0  0
  152.1467  141.4315  158.5210 C   0  0  0  0  0  0  0  0  0  0  0  0
  152.6095  142.5323  159.0905 N   0  0  0  0  0  0  0  0  0  0  0  0
  152.0630  143.5329  158.3720 N   0  0  0  0  0  0  0  0  0  0  0  0
  152.3576  144.9062  158.7201 C   0  0  0  0  0  0  0  0  0  0  0  0
  151.2623  143.0563  157.3575 C   0  0  0  0  0  0  0  0  0  0  0  0
  149.7016  139.7940  157.3013 N   0  5  0  0  0  0  0  0  0  0  0  0
  150.1890  138.5319  157.2384 C   0  0  0  0  0  0  0  0  0  0  0  0
  149.7349  137.5231  157.7733 O   0  0  0  0  0  0  0  0  0  0  0  0
  151.2888  138.4874  156.4799 N   0  0  0  0  0  0  0  0  0  0  0  0
  151.6005  139.6844  155.9921 C   0  0  0  0  0  0  0  0  0  0  0  0
  152.5349  139.9605  155.2400 O   0  0  0  0  0  0  0  0  0  0  0  0
  148.4776  141.0915  153.6879 H   0  0  0  0  0  0  0  0  0  0  0  0
  148.3049  139.8446  154.9136 H   0  0  0  0  0  0  0  0  0  0  0  0
  149.7126  139.8542  153.8512 H   0  0  0  0  0  0  0  0  0  0  0  0
  150.4443  142.0345  154.8441 H   0  0  0  0  0  0  0  0  0  0  0  0
  149.0475  142.0669  155.8749 H   0  0  0  0  0  0  0  0  0  0  0  0
  152.4479  140.4762  158.9252 H   0  0  0  0  0  0  0  0  0  0  0  0
  151.8287  145.5836  158.0489 H   0  0  0  0  0  0  0  0  0  0  0  0
  153.4294  145.0870  158.6339 H   0  0  0  0  0  0  0  0  0  0  0  0
  152.0408  145.1038  159.7446 H   0  0  0  0  0  0  0  0  0  0  0  0
  150.7463  143.7226  156.6817 H   0  0  0  0  0  0  0  0  0  0  0  0
  151.8093  137.6444  156.2886 H   0  0  0  0  0  0  0  0  0  0  0  0
  1  2  1  0  0  0  0
  1 16  1  0  0  0  0
  1 17  1  0  0  0  0
  1 18  1  0  0  0  0
  2  3  1  0  0  0  0
  2 19  1  0  0  0  0
  2 20  1  0  0  0  0
  3 14  1  0  0  0  0
  3  4  1  0  0  0  0
  3 10  1  0  0  0  0
  4  9  2  0  0  0  0
  4  5  1  0  0  0  0
  5  6  2  0  0  0  0
  5 21  1  0  0  0  0
  6  7  1  0  0  0  0
  7  8  1  0  0  0  0
  7  9  1  0  0  0  0
  8 22  1  0  0  0  0
  8 23  1  0  0  0  0
  8 24  1  0  0  0  0
  9 25  1  0  0  0  0
 10 11  1  0  0  0  0
 11 12  2  0  0  0  0
 11 13  1  0  0  0  0
 13 14  1  0  0  0  0
 13 26  1  0  0  0  0
 14 15  2  0  0  0  0
M  CHG  1  10  -1
M  END
> <s_m_source_file>
AV-unprocessed.smi

> <i_m_source_file_index>
893

> <i_lp_mmshare_version>
43012

> <i_f3d_flags>
0

> <s_epik_input>
Tz1DMVtOSF1DKD1PKVtOSF1bQ0BAXTEoW0NIMl1bQ0gzXSljMltjSF1ubihbQ0gzXSlbY0hdMg==

> <s_epik_cmdline>
J2VwaWtfcHl0aG9uJywgJy1waCcsICc3LjAnLCAnLXRuJywgJzgnLCAnLW1hJywgJzIwMCcsICctbWV0YWxfYmluZGluZycsICctaW1hZScsICc8aW5maWxlLm1hZT4nLCAnLW9tYWUnLCAnPG91dGZpbGUubWFlPic=

> <r_lp_tautomer_probability>
1

> <r_epik_Ionization_Penalty>
4.97057

> <r_epik_Ionization_Penalty_Charging>
4.97009

> <r_epik_Ionization_Penalty_Neutral>
0.000472554

> <r_epik_State_Penalty>
4.98892

> <r_epik_Charging_Adjusted_Penalty>
9.95901

> <i_epik_Tot_Q>
-1

> <i_epik_Tot_abs_Q>
1

> <r_epik_Metal_State_Penalty>
1.41037

> <b_epik_Metal_Only>
1

> <s_lp_Force_Field>
OPLS_2005

> <r_lp_Energy>
9.72866

> <b_lp_Chiralities_Consistent>
1

> <s_lp_Variant>
AV-unprocessed.smi:893-5

> <Gold.Version>
5.8.1

> <Gold.Id.Protein>
6NUR|6NUR_protein|mol2

> <Gold.PLP.Fitness>
35.7576

> <Gold.PLP.PLP>
-28.3528

> <Gold.PLP.part.hbond>
-2.0000

> <Gold.PLP.part.metal>
0.0000

> <Gold.PLP.part.buried>
-3.2179

> <Gold.PLP.part.nonpolar>
-23.5970

> <Gold.PLP.part.repulsive>
0.0657

> <Gold.PLP.ligand.clash>
0.0000

> <Gold.PLP.ligand.torsion>
0.0584

> <Gold.PLP.Chemscore.Hbond>
1.4780

> <Gold.PLP.Chemscore.CHOScore>
1.0000

> <Gold.PLP.Chemscore.Metal>
0.0000

> <Gold.Chemscore.Hbonds>
donor molecule, donor type, donor heavy atom, donor atom, acceptor molecule, acceptor atom, score
      P1  H  7989  7998       L1    15  0.43
      P1  H  7997  8009       L1    15  0.98
      L1  C     9    25       P1  8028  1.00

> <Gold.PLP.Chemscore.Internal.Correction>
0.0877

> <Gold.Rescore>
     Score         DG    S(hbond)    S(metal)    S(lipo)     H(rot)  DE(clash)    DE(int)     intcor
     13.18     -13.29       1.29        0.00      57.95       1.28       0.02       0.09       ----

> <Gold.Chemscore.Fitness>
13.1770

> <Gold.Chemscore.DG>
-13.2861

> <Gold.Chemscore.ZeroCoef>
-5.4800

> <Gold.Chemscore.Hbond>
1.2885

> <Gold.Chemscore.Metal>
0.0000

> <Gold.Chemscore.Lipo>
57.9546

> <Gold.Chemscore.Internal_Hbond>
0.0000

> <Gold.Chemscore.DEClash>
0.0202

> <Gold.Chemscore.DEInternal>
0.0888

> <Gold.Chemscore.Rot>
1.2805

> <Gold.Chemscore.Internal.Correction>
   9.000000E+99

> <Gold.Chemscore.Hbonds>
donor molecule, donor type, donor heavy atom, donor atom, acceptor molecule, acceptor atom, score
      P1  H  7989  7998       L1    15  0.25
      P1  H  7997  8009       L1    15  0.91

> <Gold.Chemscore.Hbond.Weighted>
-4.3036

> <Gold.Chemscore.Metal.Weighted>
-0.0000

> <Gold.Chemscore.Lipo.Weighted>
-6.7807

> <Gold.Chemscore.Internal_Hbond.Weighted>
0.0000

> <Gold.Chemscore.DEClash.Weighted>
0.0202

> <Gold.Chemscore.DEInternal.Weighted>
0.0888

> <Gold.Chemscore.Rot.Weighted>
3.2782

> <Gold.Chemscore.Internal.Correction.Weighted>
   9.000000E+99

> <Gold.Protein.RotatedTorsions>
[ 6907 6896 6895 6894 ] final   66.32 input  -60.11 | X-H torsion
[ 7974 7965 7964 7962 ] final  -80.60 input  175.53 | X-H torsion
[ 8008 7997 7996 7995 ] final -132.70 input   59.86 | X-H torsion
[ 10167 10162 10161 10158 ] final -108.73 input  -65.29 | X-H torsion
[ 10718 10713 10712 10709 ] final  153.00 input   66.30 | X-H torsion
[ 10763 10752 10751 10750 ] final   -7.99 input  -60.55 | X-H torsion
[ 11005 11000 10999 10996 ] final   72.64 input  -57.11 | X-H torsion

> <Gold.Protein.ActiveResidues>
 VAL166  LYS551  ARG553  GLY616  TRP617  ASP618  TYR619  PRO620  LYS621  CYS622 
 ASP623  PHE694  ASN695  SER759  ASP760  ASP761  ALA762  ILE779  LEU786  VAL792 
 PHE793  MET794  SER795  GLU796  ALA797  LYS798  CYS799  TRP800  GLU811  SER814 

> <Gold.Protein.RotatedAtoms>
  152.4472  134.5469  159.9855 H   0  0  0  0  0  0  0  0  0  0  0  0  # atno 6907 bound_to 6896
  151.5551  133.3405  159.2968 H   0  0  0  0  0  0  0  0  0  0  0  0  # atno 6908 bound_to 6896
  150.8391  134.7709  159.6981 H   0  0  0  0  0  0  0  0  0  0  0  0  # atno 6909 bound_to 6896
  145.5578  140.9487  143.1464 H   0  0  0  0  0  0  0  0  0  0  0  0  # atno 7974 bound_to 7965
  155.3333  140.0468  157.3043 H   0  0  0  0  0  0  0  0  0  0  0  0  # atno 8008 bound_to 7997
  154.5316  140.2259  155.8759 H   0  0  0  0  0  0  0  0  0  0  0  0  # atno 8009 bound_to 7997
  156.1794  140.3077  155.9127 H   0  0  0  0  0  0  0  0  0  0  0  0  # atno 8010 bound_to 7997
  140.1629  143.4105  152.1412 H   0  0  0  0  0  0  0  0  0  0  0  0  # atno 10167 bound_to 10162
  157.2505  131.0778  151.1733 H   0  0  0  0  0  0  0  0  0  0  0  0  # atno 10718 bound_to 10713
  153.4341  135.7012  153.6211 H   0  0  0  0  0  0  0  0  0  0  0  0  # atno 10763 bound_to 10752
  153.4613  135.3735  155.2340 H   0  0  0  0  0  0  0  0  0  0  0  0  # atno 10764 bound_to 10752
  154.8726  135.4020  154.3730 H   0  0  0  0  0  0  0  0  0  0  0  0  # atno 10765 bound_to 10752
  139.9480  134.7277  156.0931 H   0  0  0  0  0  0  0  0  0  0  0  0  # atno 11005 bound_to 11000
  144.7497  139.7225  143.7278 LP  0  0  0  0  0  0  0  0  0  0  0  0  # atno 17320 bound_to 7965
  146.1872  139.5093  142.9828 LP  0  0  0  0  0  0  0  0  0  0  0  0  # atno 17321 bound_to 7965
  139.5373  144.7222  151.4852 LP  0  0  0  0  0  0  0  0  0  0  0  0  # atno 17342 bound_to 10162
  140.6631  143.8456  150.6911 LP  0  0  0  0  0  0  0  0  0  0  0  0  # atno 17343 bound_to 10162
  157.3283  130.6972  149.6309 LP  0  0  0  0  0  0  0  0  0  0  0  0  # atno 17370 bound_to 10713
  155.9666  130.4315  150.4923 LP  0  0  0  0  0  0  0  0  0  0  0  0  # atno 17371 bound_to 10713
  141.1136  133.6635  156.3039 LP  0  0  0  0  0  0  0  0  0  0  0  0  # atno 17394 bound_to 11000
  140.5786  134.5768  157.5474 LP  0  0  0  0  0  0  0  0  0  0  0  0  # atno 17395 bound_to 11000

$$$$
