AV-unprocessed.smi:1142|AV-procd|sdf|4873|dock1
  -GOLD-   22720 3443D 1   1.00000     0.00000
 Structure written by MMmdl.
 33 34  0  0  0  0  0  0  0  0  1 V2000
  153.6648  137.1663  161.4335 C   0  0  0  0  0  0  0  0  0  0  0  0
  152.9490  137.4548  160.4873 C   0  0  0  0  0  0  0  0  0  0  0  0
  152.0944  137.7945  159.3373 C   0  0  0  0  0  0  0  0  0  0  0  0
  151.9068  139.2324  159.1844 N   0  0  0  0  0  0  0  0  0  0  0  0
  152.8879  140.1276  158.9810 C   0  0  0  0  0  0  0  0  0  0  0  0
  154.0779  139.8243  158.8877 O   0  0  0  0  0  0  0  0  0  0  0  0
  152.4283  141.5546  158.8322 C   0  0  0  0  0  0  0  0  0  0  0  0
  152.8402  142.5161  159.7841 C   0  0  0  0  0  0  0  0  0  0  0  0
  152.4556  143.8592  159.6275 C   0  0  0  0  0  0  0  0  0  0  0  0
  151.6736  144.2000  158.5113 C   0  0  0  0  0  0  0  0  0  0  0  0
  151.2725  143.3007  157.5910 N   0  0  0  0  0  0  0  0  0  0  0  0
  151.6337  142.0008  157.7337 C   0  0  0  0  0  0  0  0  0  0  0  0
  151.1457  141.1030  156.7621 N   0  0  0  0  0  0  0  0  0  0  0  0
  152.1164  140.2501  156.0833 C   0  0  0  0  0  0  0  0  0  0  0  0
  151.3828  139.1802  155.2567 C   0  0  0  0  0  0  0  0  0  0  0  0
  150.4819  139.8108  154.3502 O   0  0  0  0  0  0  0  0  0  0  0  0
  149.4927  140.5818  155.0268 C   0  0  0  0  0  0  0  0  0  0  0  0
  150.1723  141.6899  155.8488 C   0  0  0  0  0  0  0  0  0  0  0  0
  154.2893  136.9115  162.2603 H   0  0  0  0  0  0  0  0  0  0  0  0
  152.5245  137.3494  158.4387 H   0  0  0  0  0  0  0  0  0  0  0  0
  151.1219  137.3270  159.4920 H   0  0  0  0  0  0  0  0  0  0  0  0
  150.9582  139.5743  159.2343 H   0  0  0  0  0  0  0  0  0  0  0  0
  153.4564  142.2360  160.6264 H   0  0  0  0  0  0  0  0  0  0  0  0
  152.7596  144.6105  160.3414 H   0  0  0  0  0  0  0  0  0  0  0  0
  151.3608  145.2214  158.3525 H   0  0  0  0  0  0  0  0  0  0  0  0
  152.7443  140.8550  155.4275 H   0  0  0  0  0  0  0  0  0  0  0  0
  152.7703  139.7751  156.8157 H   0  0  0  0  0  0  0  0  0  0  0  0
  152.0995  138.5855  154.6903 H   0  0  0  0  0  0  0  0  0  0  0  0
  150.8392  138.4921  155.9061 H   0  0  0  0  0  0  0  0  0  0  0  0
  148.8180  141.0195  154.2913 H   0  0  0  0  0  0  0  0  0  0  0  0
  148.8899  139.9370  155.6691 H   0  0  0  0  0  0  0  0  0  0  0  0
  149.4204  142.2604  156.3943 H   0  0  0  0  0  0  0  0  0  0  0  0
  150.6822  142.3893  155.1848 H   0  0  0  0  0  0  0  0  0  0  0  0
  1  2  3  0  0  0  0
  1 19  1  0  0  0  0
  2  3  1  0  0  0  0
  3  4  1  0  0  0  0
  3 20  1  0  0  0  0
  3 21  1  0  0  0  0
  4  5  1  0  0  0  0
  4 22  1  0  0  0  0
  5  6  2  0  0  0  0
  5  7  1  0  0  0  0
  7 12  1  0  0  0  0
  7  8  2  0  0  0  0
  8  9  1  0  0  0  0
  8 23  1  0  0  0  0
  9 10  2  0  0  0  0
  9 24  1  0  0  0  0
 10 11  1  0  0  0  0
 10 25  1  0  0  0  0
 11 12  2  0  0  0  0
 12 13  1  0  0  0  0
 13 18  1  0  0  0  0
 13 14  1  0  0  0  0
 14 15  1  0  0  0  0
 14 26  1  0  0  0  0
 14 27  1  0  0  0  0
 15 16  1  0  0  0  0
 15 28  1  0  0  0  0
 15 29  1  0  0  0  0
 16 17  1  0  0  0  0
 17 18  1  0  0  0  0
 17 30  1  0  0  0  0
 17 31  1  0  0  0  0
 18 32  1  0  0  0  0
 18 33  1  0  0  0  0
M  END
> <s_m_source_file>
AV-unprocessed.smi

> <i_m_source_file_index>
1142

> <i_lp_mmshare_version>
43012

> <i_f3d_flags>
0

> <s_epik_input>
W0NIXSNDW0NIMl1bTkhdQyg9TyljMVtjSF1bY0hdW2NIXW5jMU4yW0NIMl1bQ0gyXU9bQ0gyXVtDSDJdMg==

> <s_epik_cmdline>
J2VwaWtfcHl0aG9uJywgJy1waCcsICc3LjAnLCAnLXRuJywgJzgnLCAnLW1hJywgJzIwMCcsICctbWV0YWxfYmluZGluZycsICctaW1hZScsICc8aW5maWxlLm1hZT4nLCAnLW9tYWUnLCAnPG91dGZpbGUubWFlPic=

> <r_lp_tautomer_probability>
1

> <r_epik_Ionization_Penalty>
1.59202e-05

> <r_epik_Ionization_Penalty_Charging>
0

> <r_epik_Ionization_Penalty_Neutral>
1.59202e-05

> <r_epik_State_Penalty>
-0

> <r_epik_Charging_Adjusted_Penalty>
0

> <i_epik_Tot_Q>
0

> <i_epik_Tot_abs_Q>
0

> <r_epik_Metal_State_Penalty>
0.00596736

> <b_epik_Metal_Only>
0

> <s_lp_Force_Field>
OPLS_2005

> <r_lp_Energy>
22.9222

> <b_lp_Chiralities_Consistent>
1

> <s_lp_Variant>
AV-unprocessed.smi:1142-1

> <Gold.Version>
5.8.1

> <Gold.Id.Protein>
6NUR|6NUR_protein|mol2

> <Gold.PLP.Fitness>
40.3305

> <Gold.PLP.PLP>
-36.7966

> <Gold.PLP.part.hbond>
-2.0000

> <Gold.PLP.part.metal>
0.0000

> <Gold.PLP.part.buried>
-4.4549

> <Gold.PLP.part.nonpolar>
-30.2993

> <Gold.PLP.part.repulsive>
0.4090

> <Gold.PLP.ligand.clash>
0.0000

> <Gold.PLP.ligand.torsion>
1.3544

> <Gold.PLP.Chemscore.Hbond>
2.0000

> <Gold.PLP.Chemscore.CHOScore>
0.0000

> <Gold.PLP.Chemscore.Metal>
0.0000

> <Gold.Chemscore.Hbonds>
donor molecule, donor type, donor heavy atom, donor atom, acceptor molecule, acceptor atom, score
      P1  H  7989  7998       L1    16  1.00
      P1  H  7997  8010       L1     6  1.00

> <Gold.PLP.Chemscore.Internal.Correction>
0.2429

> <Gold.Rescore>
     Score         DG    S(hbond)    S(metal)    S(lipo)     H(rot)  DE(clash)    DE(int)     intcor
     15.26     -16.79       1.13        0.00      90.39       1.19       0.07       1.46       ----

> <Gold.Chemscore.Fitness>
15.2556

> <Gold.Chemscore.DG>
-16.7851

> <Gold.Chemscore.ZeroCoef>
-5.4800

> <Gold.Chemscore.Hbond>
1.1295

> <Gold.Chemscore.Metal>
0.0000

> <Gold.Chemscore.Lipo>
90.3923

> <Gold.Chemscore.Internal_Hbond>
0.0000

> <Gold.Chemscore.DEClash>
0.0650

> <Gold.Chemscore.DEInternal>
1.4644

> <Gold.Chemscore.Rot>
1.1887

> <Gold.Chemscore.Internal.Correction>
   9.000000E+99

> <Gold.Chemscore.Hbonds>
donor molecule, donor type, donor heavy atom, donor atom, acceptor molecule, acceptor atom, score
      P1  H  7989  7998       L1    16  0.20
      P1  H  7997  8010       L1     6  0.97

> <Gold.Chemscore.Hbond.Weighted>
-3.7724

> <Gold.Chemscore.Metal.Weighted>
-0.0000

> <Gold.Chemscore.Lipo.Weighted>
-10.5759

> <Gold.Chemscore.Internal_Hbond.Weighted>
0.0000

> <Gold.Chemscore.DEClash.Weighted>
0.0650

> <Gold.Chemscore.DEInternal.Weighted>
1.4644

> <Gold.Chemscore.Rot.Weighted>
3.0432

> <Gold.Chemscore.Internal.Correction.Weighted>
   9.000000E+99

> <Gold.Protein.RotatedTorsions>
[ 6907 6896 6895 6894 ] final -109.03 input  -60.11 | X-H torsion
[ 7974 7965 7964 7962 ] final  -21.88 input  175.53 | X-H torsion
[ 8008 7997 7996 7995 ] final    4.64 input   59.86 | X-H torsion
[ 10167 10162 10161 10158 ] final  116.28 input  -65.29 | X-H torsion
[ 10718 10713 10712 10709 ] final   89.72 input   66.30 | X-H torsion
[ 10763 10752 10751 10750 ] final -140.84 input  -60.55 | X-H torsion
[ 11005 11000 10999 10996 ] final  141.48 input  -57.11 | X-H torsion

> <Gold.Protein.ActiveResidues>
 VAL166  LYS551  ARG553  GLY616  TRP617  ASP618  TYR619  PRO620  LYS621  CYS622 
 ASP623  PHE694  ASN695  SER759  ASP760  ASP761  ALA762  ILE779  LEU786  VAL792 
 PHE793  MET794  SER795  GLU796  ALA797  LYS798  CYS799  TRP800  GLU811  SER814 

> <Gold.Protein.RotatedAtoms>
  150.7537  133.9590  159.3509 H   0  0  0  0  0  0  0  0  0  0  0  0  # atno 6907 bound_to 6896
  151.7514  135.0830  160.0341 H   0  0  0  0  0  0  0  0  0  0  0  0  # atno 6908 bound_to 6896
  152.3464  133.6090  159.5949 H   0  0  0  0  0  0  0  0  0  0  0  0  # atno 6909 bound_to 6896
  146.1708  140.4402  142.8533 H   0  0  0  0  0  0  0  0  0  0  0  0  # atno 7974 bound_to 7965
  154.7185  140.2707  155.6563 H   0  0  0  0  0  0  0  0  0  0  0  0  # atno 8008 bound_to 7997
  156.2816  140.2739  156.1773 H   0  0  0  0  0  0  0  0  0  0  0  0  # atno 8009 bound_to 7997
  155.0539  140.0371  157.2543 H   0  0  0  0  0  0  0  0  0  0  0  0  # atno 8010 bound_to 7997
  139.6258  144.7108  151.2537 H   0  0  0  0  0  0  0  0  0  0  0  0  # atno 10167 bound_to 10162
  157.6956  131.0344  150.3469 H   0  0  0  0  0  0  0  0  0  0  0  0  # atno 10718 bound_to 10713
  154.8565  135.3541  154.5771 H   0  0  0  0  0  0  0  0  0  0  0  0  # atno 10763 bound_to 10752
  153.6383  135.6999  153.5255 H   0  0  0  0  0  0  0  0  0  0  0  0  # atno 10764 bound_to 10752
  153.2992  135.4211  155.1196 H   0  0  0  0  0  0  0  0  0  0  0  0  # atno 10765 bound_to 10752
  140.0405  134.9307  157.0834 H   0  0  0  0  0  0  0  0  0  0  0  0  # atno 11005 bound_to 11000
  144.8160  140.6468  143.6384 LP  0  0  0  0  0  0  0  0  0  0  0  0  # atno 17320 bound_to 7965
  145.4346  139.1544  143.4003 LP  0  0  0  0  0  0  0  0  0  0  0  0  # atno 17321 bound_to 7965
  140.7410  143.6571  150.8197 LP  0  0  0  0  0  0  0  0  0  0  0  0  # atno 17342 bound_to 10162
  140.0189  143.5564  152.2809 LP  0  0  0  0  0  0  0  0  0  0  0  0  # atno 17343 bound_to 10162
  156.3922  130.3900  149.7021 LP  0  0  0  0  0  0  0  0  0  0  0  0  # atno 17370 bound_to 10713
  156.4367  130.7841  151.2862 LP  0  0  0  0  0  0  0  0  0  0  0  0  # atno 17371 bound_to 10713
  140.4077  134.2014  155.7163 LP  0  0  0  0  0  0  0  0  0  0  0  0  # atno 17394 bound_to 11000
  141.1880  133.8269  157.1010 LP  0  0  0  0  0  0  0  0  0  0  0  0  # atno 17395 bound_to 11000

$$$$
