AV-unprocessed.smi:81|AV-procd|sdf|793|dock5
  -GOLD-   2262017173D 1   1.00000     0.00000
 Structure written by MMmdl.
 64 67  0  0  0  0  0  0  0  0  2 V2000
  151.4268  131.1217  155.3959 C   0  0  0  0  0  0  0  0  0  0  0  0
  150.3261  130.0490  155.3527 C   0  0  0  0  0  0  0  0  0  0  0  0
  150.6747  128.9616  154.3270 C   0  0  0  0  0  0  0  0  0  0  0  0
  148.9402  130.6598  155.0403 C   0  0  0  0  0  0  0  0  0  0  0  0
  148.8099  132.0802  155.3848 N   0  0  0  0  0  0  0  0  0  0  0  0
  147.8810  132.3743  156.3273 C   0  0  0  0  0  0  0  0  0  0  0  0
  146.5889  132.4543  155.9223 N   0  0  0  0  0  0  0  0  0  0  0  0
  145.6292  132.7668  156.7972 C   0  0  0  0  0  0  0  0  0  0  0  0
  145.7442  133.0418  158.0974 N   0  0  0  0  0  0  0  0  0  0  0  0
  147.0447  132.9866  158.5062 C   0  0  0  0  0  0  0  0  0  0  0  0
  148.1666  132.6617  157.6933 C   0  0  0  0  0  0  0  0  0  0  0  0
  149.3249  132.6911  158.4585 N   0  0  0  0  0  0  0  0  0  0  0  0
  148.9120  133.0145  159.6529 C   0  0  0  0  0  0  0  0  0  0  0  0
  147.5567  133.2393  159.7689 N   0  0  0  0  0  0  0  0  0  0  0  0
  146.8072  133.5960  160.9701 C   0  0  0  0  0  0  0  0  0  0  0  0
  147.5666  134.4744  162.0029 C   0  0  2  0  0  0  0  0  0  0  0  0
  148.1601  133.6090  162.9561 O   0  0  0  0  0  0  0  0  0  0  0  0
  146.6437  135.4211  162.7539 C   0  0  0  0  0  0  0  0  0  0  0  0
  147.6136  136.4486  163.3202 C   0  0  0  0  0  0  0  0  0  0  0  0
  148.6063  136.5928  162.3142 O   0  0  0  0  0  0  0  0  0  0  0  0
  148.6703  135.4321  161.4817 C   0  0  2  0  0  0  0  0  0  0  0  0
  148.4867  135.9641  160.0509 C   0  0  0  0  0  0  0  0  0  0  0  0
  149.0436  133.0508  154.3015 C   0  0  2  0  0  0  0  0  0  0  0  0
  148.6772  134.5192  154.6244 C   0  0  0  0  0  0  0  0  0  0  0  0
  147.2178  134.8931  154.2990 C   0  0  0  0  0  0  0  0  0  0  0  0
  146.8673  134.5250  152.9077 N   0  3  2  0  0  0  0  0  0  0  0  0
  145.5225  135.0045  152.5233 C   0  0  0  0  0  0  0  0  0  0  0  0
  147.0364  133.0733  152.6670 C   0  0  0  0  0  0  0  0  0  0  0  0
  148.4893  132.6307  152.9192 C   0  0  0  0  0  0  0  0  0  0  0  0
  151.5085  131.6440  154.4423 H   0  0  0  0  0  0  0  0  0  0  0  0
  152.3979  130.6781  155.6165 H   0  0  0  0  0  0  0  0  0  0  0  0
  151.2278  131.8668  156.1664 H   0  0  0  0  0  0  0  0  0  0  0  0
  150.2955  129.5589  156.3261 H   0  0  0  0  0  0  0  0  0  0  0  0
  150.7420  129.3727  153.3192 H   0  0  0  0  0  0  0  0  0  0  0  0
  149.9192  128.1752  154.3167 H   0  0  0  0  0  0  0  0  0  0  0  0
  151.6311  128.4930  154.5605 H   0  0  0  0  0  0  0  0  0  0  0  0
  148.7372  130.5372  153.9758 H   0  0  0  0  0  0  0  0  0  0  0  0
  148.1650  130.0911  155.5523 H   0  0  0  0  0  0  0  0  0  0  0  0
  144.6263  132.8059  156.3977 H   0  0  0  0  0  0  0  0  0  0  0  0
  149.5993  133.0933  160.4816 H   0  0  0  0  0  0  0  0  0  0  0  0
  145.8955  134.1081  160.6621 H   0  0  0  0  0  0  0  0  0  0  0  0
  146.4770  132.6699  161.4424 H   0  0  0  0  0  0  0  0  0  0  0  0
  148.7818  134.1075  163.4645 H   0  0  0  0  0  0  0  0  0  0  0  0
  145.9620  135.9140  162.0594 H   0  0  0  0  0  0  0  0  0  0  0  0
  146.0421  134.9320  163.5212 H   0  0  0  0  0  0  0  0  0  0  0  0
  147.1333  137.4005  163.5473 H   0  0  0  0  0  0  0  0  0  0  0  0
  148.0820  136.0776  164.2329 H   0  0  0  0  0  0  0  0  0  0  0  0
  149.6597  134.9789  161.5633 H   0  0  0  0  0  0  0  0  0  0  0  0
  148.6726  135.1943  159.3057 H   0  0  0  0  0  0  0  0  0  0  0  0
  149.1931  136.7694  159.8483 H   0  0  0  0  0  0  0  0  0  0  0  0
  147.4830  136.3598  159.8947 H   0  0  0  0  0  0  0  0  0  0  0  0
  150.1294  133.0488  154.1992 H   0  0  0  0  0  0  0  0  0  0  0  0
  148.9158  134.7584  155.6611 H   0  0  0  0  0  0  0  0  0  0  0  0
  149.3211  135.1630  154.0237 H   0  0  0  0  0  0  0  0  0  0  0  0
  146.5195  134.4130  154.9829 H   0  0  0  0  0  0  0  0  0  0  0  0
  147.0882  135.9677  154.4326 H   0  0  0  0  0  0  0  0  0  0  0  0
  144.7507  134.5354  153.1351 H   0  0  0  0  0  0  0  0  0  0  0  0
  145.3159  134.7772  151.4770 H   0  0  0  0  0  0  0  0  0  0  0  0
  145.4487  136.0851  152.6487 H   0  0  0  0  0  0  0  0  0  0  0  0
  146.3394  132.5217  153.2943 H   0  0  0  0  0  0  0  0  0  0  0  0
  146.7691  132.8439  151.6348 H   0  0  0  0  0  0  0  0  0  0  0  0
  149.1123  133.0953  152.1538 H   0  0  0  0  0  0  0  0  0  0  0  0
  148.5900  131.5568  152.7626 H   0  0  0  0  0  0  0  0  0  0  0  0
  147.5255  134.9990  152.3055 H   0  0  0  0  0  0  0  0  0  0  0  0
  1  2  1  0  0  0  0
  1 30  1  0  0  0  0
  1 31  1  0  0  0  0
  1 32  1  0  0  0  0
  2  3  1  0  0  0  0
  2  4  1  0  0  0  0
  2 33  1  0  0  0  0
  3 34  1  0  0  0  0
  3 35  1  0  0  0  0
  3 36  1  0  0  0  0
  4  5  1  0  0  0  0
  4 37  1  0  0  0  0
  4 38  1  0  0  0  0
  5  6  1  0  0  0  0
  5 23  1  0  0  0  0
  6 11  1  0  0  0  0
  6  7  2  0  0  0  0
  7  8  1  0  0  0  0
  8  9  2  0  0  0  0
  8 39  1  0  0  0  0
  9 10  1  0  0  0  0
 10 14  1  0  0  0  0
 10 11  2  0  0  0  0
 11 12  1  0  0  0  0
 12 13  2  0  0  0  0
 13 14  1  0  0  0  0
 13 40  1  0  0  0  0
 14 15  1  0  0  0  0
 15 16  1  0  0  0  0
 15 41  1  0  0  0  0
 15 42  1  0  0  0  0
 16 21  1  0  0  0  0
 16 17  1  0  0  0  0
 16 18  1  0  0  0  0
 17 43  1  0  0  0  0
 18 19  1  0  0  0  0
 18 44  1  0  0  0  0
 18 45  1  0  0  0  0
 19 20  1  0  0  0  0
 19 46  1  0  0  0  0
 19 47  1  0  0  0  0
 20 21  1  0  0  0  0
 21 22  1  0  0  0  0
 21 48  1  0  0  0  0
 22 49  1  0  0  0  0
 22 50  1  0  0  0  0
 22 51  1  0  0  0  0
 23 29  1  0  0  0  0
 23 24  1  0  0  0  0
 23 52  1  0  0  0  0
 24 25  1  0  0  0  0
 24 53  1  0  0  0  0
 24 54  1  0  0  0  0
 25 26  1  0  0  0  0
 25 55  1  0  0  0  0
 25 56  1  0  0  0  0
 26 27  1  0  0  0  0
 26 28  1  0  0  0  0
 26 64  1  0  0  0  0
 27 57  1  0  0  0  0
 27 58  1  0  0  0  0
 27 59  1  0  0  0  0
 28 29  1  0  0  0  0
 28 60  1  0  0  0  0
 28 61  1  0  0  0  0
 29 62  1  0  0  0  0
 29 63  1  0  0  0  0
M  CHG  1  26   1
M  END
> <s_m_source_file>
AV-unprocessed.smi

> <i_m_source_file_index>
81

> <i_lp_mmshare_version>
43012

> <i_f3d_flags>
0

> <s_epik_input>
W0NIMl0xW0NIMl1OKFtDSDNdKVtDSDJdW0NIMl1bQ0hdMU4oW0NIMl1bQ0hdKFtDSDNdKVtDSDNdKWMobltjSF1uMiljKGMyMyluW2NIXW4zW0NIMl1bQ0BAXTQoW09IXSlbQ0gyXVtDSDJdT1tDQEhdNFtDSDNd

> <s_epik_cmdline>
J2VwaWtfcHl0aG9uJywgJy1waCcsICc3LjAnLCAnLXRuJywgJzgnLCAnLW1hJywgJzIwMCcsICctbWV0YWxfYmluZGluZycsICctaW1hZScsICc8aW5maWxlLm1hZT4nLCAnLW9tYWUnLCAnPG91dGZpbGUubWFlPic=

> <r_lp_tautomer_probability>
1

> <r_epik_Ionization_Penalty>
0.00272708

> <r_epik_Ionization_Penalty_Charging>
0.00158983

> <r_epik_Ionization_Penalty_Neutral>
0.00113725

> <r_epik_State_Penalty>
-0

> <r_epik_Charging_Adjusted_Penalty>
0.00158983

> <i_epik_Tot_Q>
1

> <i_epik_Tot_abs_Q>
1

> <r_epik_Metal_State_Penalty>
-0

> <b_epik_Metal_Only>
0

> <s_lp_Force_Field>
OPLS_2005

> <r_lp_Energy>
52.2974

> <b_lp_Chiralities_Consistent>
1

> <s_lp_Variant>
AV-unprocessed.smi:81-8

> <Gold.Version>
5.8.1

> <Gold.Id.Protein>
6NUR|6NUR_protein|mol2

> <Gold.PLP.Fitness>
44.0977

> <Gold.PLP.PLP>
-33.8520

> <Gold.PLP.part.hbond>
-4.2970

> <Gold.PLP.part.metal>
0.0000

> <Gold.PLP.part.buried>
-2.2912

> <Gold.PLP.part.nonpolar>
-26.9797

> <Gold.PLP.part.repulsive>
0.0932

> <Gold.PLP.ligand.clash>
0.0000

> <Gold.PLP.ligand.torsion>
3.4394

> <Gold.PLP.Chemscore.Hbond>
4.2488

> <Gold.PLP.Chemscore.CHOScore>
1.0000

> <Gold.PLP.Chemscore.Metal>
0.0000

> <Gold.Chemscore.Hbonds>
donor molecule, donor type, donor heavy atom, donor atom, acceptor molecule, acceptor atom, score
      L1  H    26    64       P1  7948  2.00
      P1  H  6931  6943       L1    20  1.00
      L1  C     8    39       P1 10957  0.55

> <Gold.PLP.Chemscore.Internal.Correction>
1.3782

> <Gold.Rescore>
     Score         DG    S(hbond)    S(metal)    S(lipo)     H(rot)  DE(clash)    DE(int)     intcor
     10.88     -15.30       1.85        0.00      81.69       2.32       0.10       4.32       ----

> <Gold.Chemscore.Fitness>
10.8809

> <Gold.Chemscore.DG>
-15.2965

> <Gold.Chemscore.ZeroCoef>
-5.4800

> <Gold.Chemscore.Hbond>
1.8528

> <Gold.Chemscore.Metal>
0.0000

> <Gold.Chemscore.Lipo>
81.6920

> <Gold.Chemscore.Internal_Hbond>
0.0000

> <Gold.Chemscore.DEClash>
0.0984

> <Gold.Chemscore.DEInternal>
4.3172

> <Gold.Chemscore.Rot>
2.3163

> <Gold.Chemscore.Internal.Correction>
   9.000000E+99

> <Gold.Chemscore.Hbonds>
donor molecule, donor type, donor heavy atom, donor atom, acceptor molecule, acceptor atom, score
      L1  H    26    64       P1  7948  0.96
      P1  H  6931  6943       L1    20  0.90

> <Gold.Chemscore.Hbond.Weighted>
-6.1883

> <Gold.Chemscore.Metal.Weighted>
-0.0000

> <Gold.Chemscore.Lipo.Weighted>
-9.5580

> <Gold.Chemscore.Internal_Hbond.Weighted>
0.0000

> <Gold.Chemscore.DEClash.Weighted>
0.0984

> <Gold.Chemscore.DEInternal.Weighted>
4.3172

> <Gold.Chemscore.Rot.Weighted>
5.9297

> <Gold.Chemscore.Internal.Correction.Weighted>
   9.000000E+99

> <Gold.Protein.RotatedTorsions>
[ 6907 6896 6895 6894 ] final -121.09 input  -60.11 | X-H torsion
[ 7974 7965 7964 7962 ] final  -14.92 input  175.53 | X-H torsion
[ 8008 7997 7996 7995 ] final  103.62 input   59.86 | X-H torsion
[ 10167 10162 10161 10158 ] final  168.54 input  -65.29 | X-H torsion
[ 10718 10713 10712 10709 ] final   95.09 input   66.30 | X-H torsion
[ 10763 10752 10751 10750 ] final   -6.43 input  -60.55 | X-H torsion
[ 11005 11000 10999 10996 ] final -122.86 input  -57.11 | X-H torsion

> <Gold.Protein.ActiveResidues>
 VAL166  LYS551  ARG553  GLY616  TRP617  ASP618  TYR619  PRO620  LYS621  CYS622 
 ASP623  PHE694  ASN695  SER759  ASP760  ASP761  ALA762  ILE779  LEU786  VAL792 
 PHE793  MET794  SER795  GLU796  ALA797  LYS798  CYS799  TRP800  GLU811  SER814 

> <Gold.Protein.RotatedAtoms>
  150.8452  133.7873  159.3045 H   0  0  0  0  0  0  0  0  0  0  0  0  # atno 6907 bound_to 6896
  151.5562  135.1065  159.9971 H   0  0  0  0  0  0  0  0  0  0  0  0  # atno 6908 bound_to 6896
  152.4507  133.7581  159.6787 H   0  0  0  0  0  0  0  0  0  0  0  0  # atno 6909 bound_to 6896
  146.2054  140.3418  142.8409 H   0  0  0  0  0  0  0  0  0  0  0  0  # atno 7974 bound_to 7965
  156.1500  140.3161  155.8633 H   0  0  0  0  0  0  0  0  0  0  0  0  # atno 8008 bound_to 7997
  155.3989  140.0498  157.3054 H   0  0  0  0  0  0  0  0  0  0  0  0  # atno 8009 bound_to 7997
  154.5050  140.2143  155.9281 H   0  0  0  0  0  0  0  0  0  0  0  0  # atno 8010 bound_to 7997
  139.4970  144.3803  151.9629 H   0  0  0  0  0  0  0  0  0  0  0  0  # atno 10167 bound_to 10162
  157.6942  131.0534  150.4285 H   0  0  0  0  0  0  0  0  0  0  0  0  # atno 10718 bound_to 10713
  153.4122  135.7008  153.6351 H   0  0  0  0  0  0  0  0  0  0  0  0  # atno 10763 bound_to 10752
  153.4840  135.3687  155.2457 H   0  0  0  0  0  0  0  0  0  0  0  0  # atno 10764 bound_to 10752
  154.8717  135.4073  154.3476 H   0  0  0  0  0  0  0  0  0  0  0  0  # atno 10765 bound_to 10752
  140.9963  134.0466  157.3593 H   0  0  0  0  0  0  0  0  0  0  0  0  # atno 11005 bound_to 11000
  144.8780  140.7362  143.6005 LP  0  0  0  0  0  0  0  0  0  0  0  0  # atno 17320 bound_to 7965
  145.3338  139.1752  143.4522 LP  0  0  0  0  0  0  0  0  0  0  0  0  # atno 17321 bound_to 7965
  140.3239  144.3395  150.6003 LP  0  0  0  0  0  0  0  0  0  0  0  0  # atno 17342 bound_to 10162
  140.5700  143.2182  151.7616 LP  0  0  0  0  0  0  0  0  0  0  0  0  # atno 17343 bound_to 10162
  156.4654  130.4041  149.6550 LP  0  0  0  0  0  0  0  0  0  0  0  0  # atno 17370 bound_to 10713
  156.3650  130.7501  151.2478 LP  0  0  0  0  0  0  0  0  0  0  0  0  # atno 17371 bound_to 10713
  139.9016  135.0166  156.7297 LP  0  0  0  0  0  0  0  0  0  0  0  0  # atno 17394 bound_to 11000
  140.6960  133.9348  155.7995 LP  0  0  0  0  0  0  0  0  0  0  0  0  # atno 17395 bound_to 11000

$$$$
