AV-unprocessed.smi:2324|AV-procd|sdf|9293|dock5
  -GOLD-   2272012513D 1   1.00000     0.00000
 Structure written by MMmdl.
 37 39  0  0  0  0  0  0  0  0  1 V2000
  145.6316  138.3607  153.2261 O   0  0  0  0  0  0  0  0  0  0  0  0
  146.5877  137.7034  152.8183 C   0  0  0  0  0  0  0  0  0  0  0  0
  147.8547  138.1279  153.0130 N   0  0  0  0  0  0  0  0  0  0  0  0
  148.3750  139.2928  153.6493 C   0  0  0  0  0  0  0  0  0  0  0  0
  147.4749  140.3777  153.7210 C   0  0  0  0  0  0  0  0  0  0  0  0
  147.9065  141.5677  154.3307 C   0  0  0  0  0  0  0  0  0  0  0  0
  149.2190  141.5944  154.8314 C   0  0  0  0  0  0  0  0  0  0  0  0
  150.0492  140.5333  154.7422 N   0  0  0  0  0  0  0  0  0  0  0  0
  149.6302  139.4052  154.1599 N   0  0  0  0  0  0  0  0  0  0  0  0
  146.4415  136.5369  152.1681 N   0  0  0  0  0  0  0  0  0  0  0  0
  145.1706  135.8891  151.8610 C   0  0  2  0  0  0  0  0  0  0  0  0
  144.3823  135.5914  153.1475 C   0  0  0  0  0  0  0  0  0  0  0  0
  143.1273  134.7612  152.8352 C   0  0  0  0  0  0  0  0  0  0  0  0
  143.4910  133.5654  152.1539 O   0  0  0  0  0  0  0  0  0  0  0  0
  144.1101  133.8041  150.8936 C   0  0  2  0  0  0  0  0  0  0  0  0
  144.3419  132.4648  150.2227 C   0  0  0  0  0  0  0  0  0  0  0  0
  145.2613  131.4387  150.8433 C   0  0  0  0  0  0  0  0  0  0  0  0
  145.6680  132.1458  149.5725 C   0  0  0  0  0  0  0  0  0  0  0  0
  145.4257  134.5762  151.1062 C   0  0  0  0  0  0  0  0  0  0  0  0
  148.5600  137.5106  152.6381 H   0  0  0  0  0  0  0  0  0  0  0  0
  146.4749  140.3028  153.3188 H   0  0  0  0  0  0  0  0  0  0  0  0
  147.2566  142.4265  154.4115 H   0  0  0  0  0  0  0  0  0  0  0  0
  149.6101  142.4792  155.3113 H   0  0  0  0  0  0  0  0  0  0  0  0
  147.2792  136.0602  151.8651 H   0  0  0  0  0  0  0  0  0  0  0  0
  144.5768  136.5434  151.2199 H   0  0  0  0  0  0  0  0  0  0  0  0
  145.0107  135.0395  153.8479 H   0  0  0  0  0  0  0  0  0  0  0  0
  144.0994  136.5192  153.6460 H   0  0  0  0  0  0  0  0  0  0  0  0
  142.6145  134.4964  153.7599 H   0  0  0  0  0  0  0  0  0  0  0  0
  142.4206  135.3350  152.2337 H   0  0  0  0  0  0  0  0  0  0  0  0
  143.4354  134.3926  150.2687 H   0  0  0  0  0  0  0  0  0  0  0  0
  143.4614  132.0691  149.7199 H   0  0  0  0  0  0  0  0  0  0  0  0
  145.7833  131.7120  151.7583 H   0  0  0  0  0  0  0  0  0  0  0  0
  144.9695  130.3933  150.7672 H   0  0  0  0  0  0  0  0  0  0  0  0
  145.6485  131.5716  148.6485 H   0  0  0  0  0  0  0  0  0  0  0  0
  146.4590  132.8897  149.6425 H   0  0  0  0  0  0  0  0  0  0  0  0
  145.8989  134.7821  150.1453 H   0  0  0  0  0  0  0  0  0  0  0  0
  146.1233  133.9553  151.6708 H   0  0  0  0  0  0  0  0  0  0  0  0
  1  2  2  0  0  0  0
  2  3  1  0  0  0  0
  2 10  1  0  0  0  0
  3  4  1  0  0  0  0
  3 20  1  0  0  0  0
  4  9  1  0  0  0  0
  4  5  2  0  0  0  0
  5  6  1  0  0  0  0
  5 21  1  0  0  0  0
  6  7  2  0  0  0  0
  6 22  1  0  0  0  0
  7  8  1  0  0  0  0
  7 23  1  0  0  0  0
  8  9  2  0  0  0  0
 10 11  1  0  0  0  0
 10 24  1  0  0  0  0
 11 19  1  0  0  0  0
 11 12  1  0  0  0  0
 11 25  1  0  0  0  0
 12 13  1  0  0  0  0
 12 26  1  0  0  0  0
 12 27  1  0  0  0  0
 13 14  1  0  0  0  0
 13 28  1  0  0  0  0
 13 29  1  0  0  0  0
 14 15  1  0  0  0  0
 15 16  1  0  0  0  0
 15 19  1  0  0  0  0
 15 30  1  0  0  0  0
 16 18  1  0  0  0  0
 16 17  1  0  0  0  0
 16 31  1  0  0  0  0
 17 18  1  0  0  0  0
 17 32  1  0  0  0  0
 17 33  1  0  0  0  0
 18 34  1  0  0  0  0
 18 35  1  0  0  0  0
 19 36  1  0  0  0  0
 19 37  1  0  0  0  0
M  END
> <s_m_source_file>
AV-unprocessed.smi

> <i_m_source_file_index>
2324

> <i_lp_mmshare_version>
43012

> <i_f3d_flags>
0

> <s_epik_input>
bjFuW2NIXVtjSF1bY0hdYzFbTkhdQyg9TylbTkhdW0NAQEhdMltDSDJdW0NIMl1PW0NASF0oW0NIMl0yKVtDSF0zW0NIMl1bQ0gyXTM=

> <s_epik_cmdline>
J2VwaWtfcHl0aG9uJywgJy1waCcsICc3LjAnLCAnLXRuJywgJzgnLCAnLW1hJywgJzIwMCcsICctbWV0YWxfYmluZGluZycsICctaW1hZScsICc8aW5maWxlLm1hZT4nLCAnLW9tYWUnLCAnPG91dGZpbGUubWFlPic=

> <r_lp_tautomer_probability>
1

> <r_epik_Ionization_Penalty>
0.00521499

> <r_epik_Ionization_Penalty_Charging>
0

> <r_epik_Ionization_Penalty_Neutral>
0.00521499

> <r_epik_State_Penalty>
-0

> <r_epik_Charging_Adjusted_Penalty>
0

> <i_epik_Tot_Q>
0

> <i_epik_Tot_abs_Q>
0

> <r_epik_Metal_State_Penalty>
-0

> <b_epik_Metal_Only>
0

> <s_lp_Force_Field>
OPLS_2005

> <r_lp_Energy>
26.0154

> <b_lp_Chiralities_Consistent>
1

> <s_lp_Variant>
AV-unprocessed.smi:2324-3

> <Gold.Version>
5.8.1

> <Gold.Id.Protein>
6NUR|6NUR_protein|mol2

> <Gold.PLP.Fitness>
43.7367

> <Gold.PLP.PLP>
-33.3566

> <Gold.PLP.part.hbond>
-3.5704

> <Gold.PLP.part.metal>
0.0000

> <Gold.PLP.part.buried>
-1.6086

> <Gold.PLP.part.nonpolar>
-30.7409

> <Gold.PLP.part.repulsive>
3.3877

> <Gold.PLP.ligand.clash>
0.0000

> <Gold.PLP.ligand.torsion>
0.7712

> <Gold.PLP.Chemscore.Hbond>
2.6169

> <Gold.PLP.Chemscore.CHOScore>
1.0000

> <Gold.PLP.Chemscore.Metal>
0.0000

> <Gold.Chemscore.Hbonds>
donor molecule, donor type, donor heavy atom, donor atom, acceptor molecule, acceptor atom, score
      L1  H     3    20       P1  7948  0.99
      L1  H    10    24       P1  7948  0.85
      P1  H  7989  7998       L1     8  0.75
      L1  C     7    23       P1  8028  1.00

> <Gold.PLP.Chemscore.Internal.Correction>
1.0719

> <Gold.Rescore>
     Score         DG    S(hbond)    S(metal)    S(lipo)     H(rot)  DE(clash)    DE(int)     intcor
     13.72     -17.22       1.88        0.00      74.09       1.25       0.17       3.33       ----

> <Gold.Chemscore.Fitness>
13.7170

> <Gold.Chemscore.DG>
-17.2231

> <Gold.Chemscore.ZeroCoef>
-5.4800

> <Gold.Chemscore.Hbond>
1.8769

> <Gold.Chemscore.Metal>
0.0000

> <Gold.Chemscore.Lipo>
74.0851

> <Gold.Chemscore.Internal_Hbond>
0.0000

> <Gold.Chemscore.DEClash>
0.1744

> <Gold.Chemscore.DEInternal>
3.3317

> <Gold.Chemscore.Rot>
1.2476

> <Gold.Chemscore.Internal.Correction>
   9.000000E+99

> <Gold.Chemscore.Hbonds>
donor molecule, donor type, donor heavy atom, donor atom, acceptor molecule, acceptor atom, score
      L1  H     3    20       P1  7948  0.88
      L1  H    10    24       P1  7948  0.83
      P1  H  7989  7998       L1     8  0.10

> <Gold.Chemscore.Hbond.Weighted>
-6.2689

> <Gold.Chemscore.Metal.Weighted>
-0.0000

> <Gold.Chemscore.Lipo.Weighted>
-8.6680

> <Gold.Chemscore.Internal_Hbond.Weighted>
0.0000

> <Gold.Chemscore.DEClash.Weighted>
0.1744

> <Gold.Chemscore.DEInternal.Weighted>
3.3317

> <Gold.Chemscore.Rot.Weighted>
3.1938

> <Gold.Chemscore.Internal.Correction.Weighted>
   9.000000E+99

> <Gold.Protein.RotatedTorsions>
[ 6907 6896 6895 6894 ] final  178.76 input  -60.11 | X-H torsion
[ 7974 7965 7964 7962 ] final -161.67 input  175.53 | X-H torsion
[ 8008 7997 7996 7995 ] final  -44.67 input   59.86 | X-H torsion
[ 10167 10162 10161 10158 ] final  -85.10 input  -65.29 | X-H torsion
[ 10718 10713 10712 10709 ] final  -58.49 input   66.30 | X-H torsion
[ 10763 10752 10751 10750 ] final   76.37 input  -60.55 | X-H torsion
[ 11005 11000 10999 10996 ] final  101.00 input  -57.11 | X-H torsion

> <Gold.Protein.ActiveResidues>
 VAL166  LYS551  ARG553  GLY616  TRP617  ASP618  TYR619  PRO620  LYS621  CYS622 
 ASP623  PHE694  ASN695  SER759  ASP760  ASP761  ALA762  ILE779  LEU786  VAL792 
 PHE793  MET794  SER795  GLU796  ALA797  LYS798  CYS799  TRP800  GLU811  SER814 

> <Gold.Protein.RotatedAtoms>
  151.6826  133.3312  159.3222 H   0  0  0  0  0  0  0  0  0  0  0  0  # atno 6907 bound_to 6896
  150.7816  134.6768  159.6431 H   0  0  0  0  0  0  0  0  0  0  0  0  # atno 6908 bound_to 6896
  152.3874  134.6498  160.0172 H   0  0  0  0  0  0  0  0  0  0  0  0  # atno 6909 bound_to 6896
  144.7383  140.3364  143.6143 H   0  0  0  0  0  0  0  0  0  0  0  0  # atno 7974 bound_to 7965
  154.3998  140.1416  156.3721 H   0  0  0  0  0  0  0  0  0  0  0  0  # atno 8008 bound_to 7997
  155.8083  140.3473  155.5422 H   0  0  0  0  0  0  0  0  0  0  0  0  # atno 8009 bound_to 7997
  155.8413  140.0927  157.1723 H   0  0  0  0  0  0  0  0  0  0  0  0  # atno 8010 bound_to 7997
  140.4070  143.2638  151.9068 H   0  0  0  0  0  0  0  0  0  0  0  0  # atno 10167 bound_to 10162
  156.1131  130.4173  150.0584 H   0  0  0  0  0  0  0  0  0  0  0  0  # atno 10718 bound_to 10713
  153.0720  135.4954  154.8326 H   0  0  0  0  0  0  0  0  0  0  0  0  # atno 10763 bound_to 10752
  154.7036  135.3006  154.9306 H   0  0  0  0  0  0  0  0  0  0  0  0  # atno 10764 bound_to 10752
  154.0022  135.6765  153.4813 H   0  0  0  0  0  0  0  0  0  0  0  0  # atno 10765 bound_to 10752
  139.8772  134.9164  156.4841 H   0  0  0  0  0  0  0  0  0  0  0  0  # atno 11005 bound_to 11000
  145.7419  139.1767  143.2371 LP  0  0  0  0  0  0  0  0  0  0  0  0  # atno 17320 bound_to 7965
  146.1127  140.7408  142.9495 LP  0  0  0  0  0  0  0  0  0  0  0  0  # atno 17321 bound_to 7965
  139.4783  144.5576  151.8289 LP  0  0  0  0  0  0  0  0  0  0  0  0  # atno 17342 bound_to 10162
  140.4679  144.1629  150.5914 LP  0  0  0  0  0  0  0  0  0  0  0  0  # atno 17343 bound_to 10162
  156.8542  130.9469  151.3623 LP  0  0  0  0  0  0  0  0  0  0  0  0  # atno 17370 bound_to 10713
  157.6314  130.8732  149.9280 LP  0  0  0  0  0  0  0  0  0  0  0  0  # atno 17371 bound_to 10713
  140.8706  133.7991  155.9360 LP  0  0  0  0  0  0  0  0  0  0  0  0  # atno 17394 bound_to 11000
  140.8957  134.2441  157.5070 LP  0  0  0  0  0  0  0  0  0  0  0  0  # atno 17395 bound_to 11000

$$$$
