AV-unprocessed.smi:2991|AV-procd|sdf|11398|dock2
  -GOLD-   2272016323D 1   1.00000     0.00000
 Structure written by MMmdl.
 37 38  0  0  0  0  0  0  0  0  1 V2000
  150.1081  141.1698  155.3906 C   0  0  0  0  0  0  0  0  0  0  0  0
  148.8506  140.7459  154.6553 C   0  0  0  0  0  0  0  0  0  0  0  0
  147.9000  141.6971  154.5264 N   0  0  0  0  0  0  0  0  0  0  0  0
  146.7642  141.3745  153.8750 C   0  0  0  0  0  0  0  0  0  0  0  0
  146.5182  140.0996  153.3305 C   0  0  0  0  0  0  0  0  0  0  0  0
  147.5057  139.0958  153.4762 C   0  0  0  0  0  0  0  0  0  0  0  0
  147.3735  137.7815  152.9469 N   0  0  0  0  0  0  0  0  0  0  0  0
  146.2549  137.0948  152.6591 C   0  0  0  0  0  0  0  0  0  0  0  0
  145.1044  137.4999  152.8252 O   0  0  0  0  0  0  0  0  0  0  0  0
  146.5488  135.8804  152.1725 N   0  0  0  0  0  0  0  0  0  0  0  0
  145.5800  134.8550  151.7825 C   0  0  1  0  0  0  0  0  0  0  0  0
  146.2912  133.7166  151.0169 C   0  0  0  0  0  0  0  0  0  0  0  0
  145.3596  132.8946  150.1124 C   0  0  0  0  0  0  0  0  0  0  0  0
  144.2521  132.1296  150.8522 C   0  0  0  0  0  0  0  0  0  0  0  0
  143.2265  133.0431  151.5453 C   0  0  0  0  0  0  0  0  0  0  0  0
  143.7141  133.5725  152.8128 N   0  0  0  0  0  0  0  0  0  0  0  0
  144.7661  134.3835  153.0026 C   0  0  0  0  0  0  0  0  0  0  0  0
  145.0819  134.7400  154.1376 O   0  0  0  0  0  0  0  0  0  0  0  0
  148.7058  139.4343  154.1451 C   0  0  0  0  0  0  0  0  0  0  0  0
  149.9704  138.2668  154.3410 Cl  0  0  0  0  0  0  0  0  0  0  0  0
  150.2552  140.5519  156.2765 H   0  0  0  0  0  0  0  0  0  0  0  0
  150.0541  142.2109  155.7118 H   0  0  0  0  0  0  0  0  0  0  0  0
  150.9798  141.0622  154.7447 H   0  0  0  0  0  0  0  0  0  0  0  0
  146.0295  142.1603  153.7781 H   0  0  0  0  0  0  0  0  0  0  0  0
  145.5918  139.9253  152.8058 H   0  0  0  0  0  0  0  0  0  0  0  0
  148.2412  137.2784  152.8312 H   0  0  0  0  0  0  0  0  0  0  0  0
  147.5227  135.6290  152.0818 H   0  0  0  0  0  0  0  0  0  0  0  0
  144.8676  135.3336  151.1077 H   0  0  0  0  0  0  0  0  0  0  0  0
  147.0710  134.1364  150.3798 H   0  0  0  0  0  0  0  0  0  0  0  0
  146.8081  133.0595  151.7177 H   0  0  0  0  0  0  0  0  0  0  0  0
  144.9128  133.5477  149.3616 H   0  0  0  0  0  0  0  0  0  0  0  0
  145.9642  132.1766  149.5576 H   0  0  0  0  0  0  0  0  0  0  0  0
  143.7238  131.5155  150.1221 H   0  0  0  0  0  0  0  0  0  0  0  0
  144.6860  131.4322  151.5699 H   0  0  0  0  0  0  0  0  0  0  0  0
  142.9127  133.8555  150.8884 H   0  0  0  0  0  0  0  0  0  0  0  0
  142.3286  132.4660  151.7669 H   0  0  0  0  0  0  0  0  0  0  0  0
  143.2063  133.2851  153.6370 H   0  0  0  0  0  0  0  0  0  0  0  0
  1  2  1  0  0  0  0
  1 21  1  0  0  0  0
  1 22  1  0  0  0  0
  1 23  1  0  0  0  0
  2 19  1  0  0  0  0
  2  3  2  0  0  0  0
  3  4  1  0  0  0  0
  4  5  2  0  0  0  0
  4 24  1  0  0  0  0
  5  6  1  0  0  0  0
  5 25  1  0  0  0  0
  6  7  1  0  0  0  0
  6 19  2  0  0  0  0
  7  8  1  0  0  0  0
  7 26  1  0  0  0  0
  8  9  2  0  0  0  0
  8 10  1  0  0  0  0
 10 11  1  0  0  0  0
 10 27  1  0  0  0  0
 11 17  1  0  0  0  0
 11 12  1  0  0  0  0
 11 28  1  0  0  0  0
 12 13  1  0  0  0  0
 12 29  1  0  0  0  0
 12 30  1  0  0  0  0
 13 14  1  0  0  0  0
 13 31  1  0  0  0  0
 13 32  1  0  0  0  0
 14 15  1  0  0  0  0
 14 33  1  0  0  0  0
 14 34  1  0  0  0  0
 15 16  1  0  0  0  0
 15 35  1  0  0  0  0
 15 36  1  0  0  0  0
 16 17  1  0  0  0  0
 16 37  1  0  0  0  0
 17 18  2  0  0  0  0
 19 20  1  0  0  0  0
M  END
> <s_m_source_file>
AV-unprocessed.smi

> <i_m_source_file_index>
2991

> <i_lp_mmshare_version>
43012

> <i_f3d_flags>
0

> <s_epik_input>
W0NIM11jMW5bY0hdW2NIXWMoYzFDbClbTkhdQyg9TylbTkhdW0NAQEhdMltDSDJdW0NIMl1bQ0gyXVtDSDJdW05IXUMyPU8=

> <s_epik_cmdline>
J2VwaWtfcHl0aG9uJywgJy1waCcsICc3LjAnLCAnLXRuJywgJzgnLCAnLW1hJywgJzIwMCcsICctbWV0YWxfYmluZGluZycsICctaW1hZScsICc8aW5maWxlLm1hZT4nLCAnLW9tYWUnLCAnPG91dGZpbGUubWFlPic=

> <r_epik_Ionization_Penalty>
0.00809016

> <r_epik_Ionization_Penalty_Charging>
0

> <r_epik_Ionization_Penalty_Neutral>
0.00809016

> <r_epik_State_Penalty>
0.00605324

> <r_epik_Charging_Adjusted_Penalty>
0.00605324

> <i_epik_Tot_Q>
0

> <i_epik_Tot_abs_Q>
0

> <r_epik_Metal_State_Penalty>
0.00597181

> <b_epik_Metal_Only>
0

> <s_lp_Force_Field>
OPLS_2005

> <r_lp_Energy>
16.2223

> <b_lp_Chiralities_Consistent>
1

> <s_lp_Variant>
AV-unprocessed.smi:2991-2

> <Gold.Version>
5.8.1

> <Gold.Id.Protein>
6NUR|6NUR_protein|mol2

> <Gold.PLP.Fitness>
37.3122

> <Gold.PLP.PLP>
-29.6446

> <Gold.PLP.part.hbond>
-2.4021

> <Gold.PLP.part.metal>
0.0000

> <Gold.PLP.part.buried>
0.1850

> <Gold.PLP.part.nonpolar>
-28.3074

> <Gold.PLP.part.repulsive>
0.5226

> <Gold.PLP.ligand.clash>
0.0000

> <Gold.PLP.ligand.torsion>
0.1877

> <Gold.PLP.Chemscore.Hbond>
2.6720

> <Gold.PLP.Chemscore.CHOScore>
0.0000

> <Gold.PLP.Chemscore.Metal>
0.0000

> <Gold.Chemscore.Hbonds>
donor molecule, donor type, donor heavy atom, donor atom, acceptor molecule, acceptor atom, score
      L1  H     7    26       P1  7948  0.83
      L1  H    10    27       P1  7948  0.88
      L1  H    16    37       P1 10957  0.91

> <Gold.PLP.Chemscore.Internal.Correction>
0.0270

> <Gold.Rescore>
     Score         DG    S(hbond)    S(metal)    S(lipo)     H(rot)  DE(clash)    DE(int)     intcor
     20.00     -21.58       2.83        0.00      78.77       1.00       0.21       1.38       ----

> <Gold.Chemscore.Fitness>
19.9963

> <Gold.Chemscore.DG>
-21.5835

> <Gold.Chemscore.ZeroCoef>
-5.4800

> <Gold.Chemscore.Hbond>
2.8285

> <Gold.Chemscore.Metal>
0.0000

> <Gold.Chemscore.Lipo>
78.7716

> <Gold.Chemscore.Internal_Hbond>
0.0000

> <Gold.Chemscore.DEClash>
0.2114

> <Gold.Chemscore.DEInternal>
1.3758

> <Gold.Chemscore.Rot>
1.0000

> <Gold.Chemscore.Internal.Correction>
   9.000000E+99

> <Gold.Chemscore.Hbonds>
donor molecule, donor type, donor heavy atom, donor atom, acceptor molecule, acceptor atom, score
      L1  H     7    26       P1  7948  0.80
      L1  H    10    27       P1  7948  0.82
      L1  H    16    37       P1 10957  0.87

> <Gold.Chemscore.Hbond.Weighted>
-9.4472

> <Gold.Chemscore.Metal.Weighted>
-0.0000

> <Gold.Chemscore.Lipo.Weighted>
-9.2163

> <Gold.Chemscore.Internal_Hbond.Weighted>
0.0000

> <Gold.Chemscore.DEClash.Weighted>
0.2114

> <Gold.Chemscore.DEInternal.Weighted>
1.3758

> <Gold.Chemscore.Rot.Weighted>
2.5600

> <Gold.Chemscore.Internal.Correction.Weighted>
   9.000000E+99

> <Gold.Protein.RotatedTorsions>
[ 6907 6896 6895 6894 ] final -172.99 input  -60.11 | X-H torsion
[ 7974 7965 7964 7962 ] final -125.46 input  175.53 | X-H torsion
[ 8008 7997 7996 7995 ] final  -11.39 input   59.86 | X-H torsion
[ 10167 10162 10161 10158 ] final   79.61 input  -65.29 | X-H torsion
[ 10718 10713 10712 10709 ] final  -26.29 input   66.30 | X-H torsion
[ 10763 10752 10751 10750 ] final  105.53 input  -60.55 | X-H torsion
[ 11005 11000 10999 10996 ] final  -41.64 input  -57.11 | X-H torsion

> <Gold.Protein.ActiveResidues>
 VAL166  LYS551  ARG553  GLY616  TRP617  ASP618  TYR619  PRO620  LYS621  CYS622 
 ASP623  PHE694  ASN695  SER759  ASP760  ASP761  ALA762  ILE779  LEU786  VAL792 
 PHE793  MET794  SER795  GLU796  ALA797  LYS798  CYS799  TRP800  GLU811  SER814 

> <Gold.Protein.RotatedAtoms>
  151.5489  133.3420  159.2949 H   0  0  0  0  0  0  0  0  0  0  0  0  # atno 6907 bound_to 6896
  150.8490  134.7812  159.7005 H   0  0  0  0  0  0  0  0  0  0  0  0  # atno 6908 bound_to 6896
  152.4541  134.5338  159.9870 H   0  0  0  0  0  0  0  0  0  0  0  0  # atno 6909 bound_to 6896
  144.9974  140.7789  143.4517 H   0  0  0  0  0  0  0  0  0  0  0  0  # atno 7974 bound_to 7965
  154.5469  140.2304  155.8549 H   0  0  0  0  0  0  0  0  0  0  0  0  # atno 8008 bound_to 7997
  156.1911  140.3077  155.9295 H   0  0  0  0  0  0  0  0  0  0  0  0  # atno 8009 bound_to 7997
  155.3147  140.0437  157.3027 H   0  0  0  0  0  0  0  0  0  0  0  0  # atno 8010 bound_to 7997
  139.9585  144.5977  150.8094 H   0  0  0  0  0  0  0  0  0  0  0  0  # atno 10167 bound_to 10162
  156.4531  130.4488  149.6977 H   0  0  0  0  0  0  0  0  0  0  0  0  # atno 10718 bound_to 10713
  153.3806  135.3907  155.1854 H   0  0  0  0  0  0  0  0  0  0  0  0  # atno 10763 bound_to 10752
  154.8707  135.3724  154.4862 H   0  0  0  0  0  0  0  0  0  0  0  0  # atno 10764 bound_to 10752
  153.5339  135.7085  153.5731 H   0  0  0  0  0  0  0  0  0  0  0  0  # atno 10765 bound_to 10752
  141.0260  133.6841  156.2485 H   0  0  0  0  0  0  0  0  0  0  0  0  # atno 11005 bound_to 11000
  145.2201  139.2163  143.5097 LP  0  0  0  0  0  0  0  0  0  0  0  0  # atno 17320 bound_to 7965
  146.3445  140.2057  142.8589 LP  0  0  0  0  0  0  0  0  0  0  0  0  # atno 17321 bound_to 7965
  140.7560  143.3058  151.2966 LP  0  0  0  0  0  0  0  0  0  0  0  0  # atno 17342 bound_to 10162
  139.6572  144.0254  152.2668 LP  0  0  0  0  0  0  0  0  0  0  0  0  # atno 17343 bound_to 10162
  156.3795  130.7572  151.2563 LP  0  0  0  0  0  0  0  0  0  0  0  0  # atno 17370 bound_to 10713
  157.7502  131.0300  150.4116 LP  0  0  0  0  0  0  0  0  0  0  0  0  # atno 17371 bound_to 10713
  140.6491  134.5086  157.5576 LP  0  0  0  0  0  0  0  0  0  0  0  0  # atno 17394 bound_to 11000
  139.9176  134.8214  156.1315 LP  0  0  0  0  0  0  0  0  0  0  0  0  # atno 17395 bound_to 11000

$$$$
