AV-unprocessed.smi:758|AV-procd|sdf|3618|dock5
  -GOLD-   22720 1 13D 1   1.00000     0.00000
 Structure written by MMmdl.
 47 48  0  0  0  0  0  0  0  0  1 V2000
  152.0119  140.0809  155.9967 C   0  0  0  0  0  0  0  0  0  0  0  0
  150.6799  140.8259  156.2341 C   0  0  0  0  0  0  0  0  0  0  0  0
  150.0133  140.2402  157.4989 C   0  0  0  0  0  0  0  0  0  0  0  0
  150.9977  142.3063  156.5428 C   0  0  0  0  0  0  0  0  0  0  0  0
  149.7111  140.7219  155.0044 C   0  0  2  0  0  0  0  0  0  0  0  0
  148.4914  141.6784  155.0700 C   0  0  0  0  0  0  0  0  0  0  0  0
  147.6007  141.5840  153.8168 C   0  0  0  0  0  0  0  0  0  0  0  0
  147.1219  140.1454  153.5265 C   0  0  2  0  0  0  0  0  0  0  0  0
  146.5071  140.1812  152.2522 O   0  0  0  0  0  0  0  0  0  0  0  0
  146.0297  139.6914  154.5312 C   0  0  0  0  0  0  0  0  0  0  0  0
  144.9870  138.8824  153.9028 N   0  0  0  0  0  0  0  0  0  0  0  0
  144.8173  137.5588  154.0523 C   0  0  0  0  0  0  0  0  0  0  0  0
  145.5315  136.8541  154.7651 O   0  0  0  0  0  0  0  0  0  0  0  0
  143.6663  136.9280  153.2676 C   0  0  0  0  0  0  0  0  0  0  0  0
  144.1556  135.9612  152.3017 N   0  0  0  0  0  0  0  0  0  0  0  0
  143.7855  134.7000  152.0710 C   0  0  0  0  0  0  0  0  0  0  0  0
  144.4683  134.1104  151.0998 N   0  0  0  0  0  0  0  0  0  0  0  0
  145.3004  135.1365  150.7509 C   0  0  0  0  0  0  0  0  0  0  0  0
  145.1541  136.2680  151.4403 N   0  0  0  0  0  0  0  0  0  0  0  0
  148.3524  139.2152  153.4396 C   0  0  0  0  0  0  0  0  0  0  0  0
  149.2192  139.2813  154.7074 C   0  0  0  0  0  0  0  0  0  0  0  0
  152.6608  140.1547  156.8700 H   0  0  0  0  0  0  0  0  0  0  0  0
  152.5685  140.4943  155.1560 H   0  0  0  0  0  0  0  0  0  0  0  0
  151.8592  139.0195  155.8038 H   0  0  0  0  0  0  0  0  0  0  0  0
  149.8868  139.1597  157.4345 H   0  0  0  0  0  0  0  0  0  0  0  0
  149.0319  140.6824  157.6741 H   0  0  0  0  0  0  0  0  0  0  0  0
  150.6169  140.4257  158.3881 H   0  0  0  0  0  0  0  0  0  0  0  0
  151.5734  142.4045  157.4639 H   0  0  0  0  0  0  0  0  0  0  0  0
  150.0865  142.8928  156.6661 H   0  0  0  0  0  0  0  0  0  0  0  0
  151.5919  142.7746  155.7590 H   0  0  0  0  0  0  0  0  0  0  0  0
  150.2901  141.0320  154.1328 H   0  0  0  0  0  0  0  0  0  0  0  0
  147.8950  141.4758  155.9583 H   0  0  0  0  0  0  0  0  0  0  0  0
  148.8195  142.7129  155.1580 H   0  0  0  0  0  0  0  0  0  0  0  0
  146.7466  142.2543  153.9212 H   0  0  0  0  0  0  0  0  0  0  0  0
  148.1719  141.9565  152.9645 H   0  0  0  0  0  0  0  0  0  0  0  0
  145.5723  140.1031  152.3678 H   0  0  0  0  0  0  0  0  0  0  0  0
  146.4811  139.1390  155.3549 H   0  0  0  0  0  0  0  0  0  0  0  0
  145.5558  140.5592  154.9916 H   0  0  0  0  0  0  0  0  0  0  0  0
  144.3535  139.3710  153.2869 H   0  0  0  0  0  0  0  0  0  0  0  0
  142.9767  136.4291  153.9499 H   0  0  0  0  0  0  0  0  0  0  0  0
  143.0993  137.7021  152.7478 H   0  0  0  0  0  0  0  0  0  0  0  0
  143.0032  134.2029  152.6257 H   0  0  0  0  0  0  0  0  0  0  0  0
  146.0363  135.0470  149.9652 H   0  0  0  0  0  0  0  0  0  0  0  0
  148.0562  138.1848  153.2433 H   0  0  0  0  0  0  0  0  0  0  0  0
  148.9676  139.5079  152.5874 H   0  0  0  0  0  0  0  0  0  0  0  0
  150.0605  138.6045  154.5685 H   0  0  0  0  0  0  0  0  0  0  0  0
  148.6494  138.8920  155.5498 H   0  0  0  0  0  0  0  0  0  0  0  0
  1  2  1  0  0  0  0
  1 22  1  0  0  0  0
  1 23  1  0  0  0  0
  1 24  1  0  0  0  0
  2  3  1  0  0  0  0
  2  4  1  0  0  0  0
  2  5  1  0  0  0  0
  3 25  1  0  0  0  0
  3 26  1  0  0  0  0
  3 27  1  0  0  0  0
  4 28  1  0  0  0  0
  4 29  1  0  0  0  0
  4 30  1  0  0  0  0
  5 21  1  0  0  0  0
  5  6  1  0  0  0  0
  5 31  1  0  0  0  0
  6  7  1  0  0  0  0
  6 32  1  0  0  0  0
  6 33  1  0  0  0  0
  7  8  1  0  0  0  0
  7 34  1  0  0  0  0
  7 35  1  0  0  0  0
  8  9  1  0  0  0  0
  8 10  1  0  0  0  0
  8 20  1  0  0  0  0
  9 36  1  0  0  0  0
 10 11  1  0  0  0  0
 10 37  1  0  0  0  0
 10 38  1  0  0  0  0
 11 12  1  0  0  0  0
 11 39  1  0  0  0  0
 12 13  2  0  0  0  0
 12 14  1  0  0  0  0
 14 15  1  0  0  0  0
 14 40  1  0  0  0  0
 14 41  1  0  0  0  0
 15 19  1  0  0  0  0
 15 16  1  0  0  0  0
 16 17  2  0  0  0  0
 16 42  1  0  0  0  0
 17 18  1  0  0  0  0
 18 19  2  0  0  0  0
 18 43  1  0  0  0  0
 20 21  1  0  0  0  0
 20 44  1  0  0  0  0
 20 45  1  0  0  0  0
 21 46  1  0  0  0  0
 21 47  1  0  0  0  0
M  END
> <s_m_source_file>
AV-unprocessed.smi

> <i_m_source_file_index>
758

> <i_lp_mmshare_version>
43012

> <i_f3d_flags>
0

> <s_epik_input>
W0NIM11DKFtDSDNdKShbQ0gzXSlbQ0BASF0oW0NIMl1bQ0gyXTEpW0NIMl1bQ0gyXVtDQEBdMShbT0hdKVtDSDJdW05IXUMoPU8pW0NIMl1uMltjSF1uW2NIXW4y

> <s_epik_cmdline>
J2VwaWtfcHl0aG9uJywgJy1waCcsICc3LjAnLCAnLXRuJywgJzgnLCAnLW1hJywgJzIwMCcsICctbWV0YWxfYmluZGluZycsICctaW1hZScsICc8aW5maWxlLm1hZT4nLCAnLW9tYWUnLCAnPG91dGZpbGUubWFlPic=

> <r_lp_tautomer_probability>
1

> <r_epik_Ionization_Penalty>
1.04836e-05

> <r_epik_Ionization_Penalty_Charging>
0

> <r_epik_Ionization_Penalty_Neutral>
1.04836e-05

> <r_epik_State_Penalty>
-0

> <r_epik_Charging_Adjusted_Penalty>
0

> <i_epik_Tot_Q>
0

> <i_epik_Tot_abs_Q>
0

> <r_epik_Metal_State_Penalty>
-0

> <b_epik_Metal_Only>
0

> <s_lp_Force_Field>
OPLS_2005

> <r_lp_Energy>
24.1988

> <b_lp_Chiralities_Consistent>
1

> <s_lp_Variant>
AV-unprocessed.smi:758-2

> <Gold.Version>
5.8.1

> <Gold.Id.Protein>
6NUR|6NUR_protein|mol2

> <Gold.PLP.Fitness>
39.3040

> <Gold.PLP.PLP>
-32.2335

> <Gold.PLP.part.hbond>
-2.1668

> <Gold.PLP.part.metal>
0.0000

> <Gold.PLP.part.buried>
-1.7501

> <Gold.PLP.part.nonpolar>
-28.9542

> <Gold.PLP.part.repulsive>
0.4051

> <Gold.PLP.ligand.clash>
0.0000

> <Gold.PLP.ligand.torsion>
1.0000

> <Gold.PLP.Chemscore.Hbond>
2.0000

> <Gold.PLP.Chemscore.CHOScore>
1.0000

> <Gold.PLP.Chemscore.Metal>
0.0000

> <Gold.Chemscore.Hbonds>
donor molecule, donor type, donor heavy atom, donor atom, acceptor molecule, acceptor atom, score
      L1  H     9    36       P1 10175  1.00
      L1  H    11    39       P1 10175  0.98
      L1  C    18    43       P1  7921  1.00

> <Gold.PLP.Chemscore.Internal.Correction>
0.0704

> <Gold.Rescore>
     Score         DG    S(hbond)    S(metal)    S(lipo)     H(rot)  DE(clash)    DE(int)     intcor
     10.15     -11.73       1.92        0.00      68.02       3.17       0.73       0.84       ----

> <Gold.Chemscore.Fitness>
10.1540

> <Gold.Chemscore.DG>
-11.7320

> <Gold.Chemscore.ZeroCoef>
-5.4800

> <Gold.Chemscore.Hbond>
1.9159

> <Gold.Chemscore.Metal>
0.0000

> <Gold.Chemscore.Lipo>
68.0210

> <Gold.Chemscore.Internal_Hbond>
0.0000

> <Gold.Chemscore.DEClash>
0.7341

> <Gold.Chemscore.DEInternal>
0.8439

> <Gold.Chemscore.Rot>
3.1663

> <Gold.Chemscore.Internal.Correction>
   9.000000E+99

> <Gold.Chemscore.Hbonds>
donor molecule, donor type, donor heavy atom, donor atom, acceptor molecule, acceptor atom, score
      L1  H     9    36       P1 10175  0.82
      L1  H    11    39       P1 10175  0.91

> <Gold.Chemscore.Hbond.Weighted>
-6.3992

> <Gold.Chemscore.Metal.Weighted>
-0.0000

> <Gold.Chemscore.Lipo.Weighted>
-7.9585

> <Gold.Chemscore.Internal_Hbond.Weighted>
0.0000

> <Gold.Chemscore.DEClash.Weighted>
0.7341

> <Gold.Chemscore.DEInternal.Weighted>
0.8439

> <Gold.Chemscore.Rot.Weighted>
8.1056

> <Gold.Chemscore.Internal.Correction.Weighted>
   9.000000E+99

> <Gold.Protein.RotatedTorsions>
[ 6907 6896 6895 6894 ] final  -14.88 input  -60.11 | X-H torsion
[ 7974 7965 7964 7962 ] final  129.96 input  175.53 | X-H torsion
[ 8008 7997 7996 7995 ] final  -93.12 input   59.86 | X-H torsion
[ 10167 10162 10161 10158 ] final  165.65 input  -65.29 | X-H torsion
[ 10718 10713 10712 10709 ] final   69.96 input   66.30 | X-H torsion
[ 10763 10752 10751 10750 ] final -140.31 input  -60.55 | X-H torsion
[ 11005 11000 10999 10996 ] final   25.87 input  -57.11 | X-H torsion

> <Gold.Protein.ActiveResidues>
 VAL166  LYS551  ARG553  GLY616  TRP617  ASP618  TYR619  PRO620  LYS621  CYS622 
 ASP623  PHE694  ASN695  SER759  ASP760  ASP761  ALA762  ILE779  LEU786  VAL792 
 PHE793  MET794  SER795  GLU796  ALA797  LYS798  CYS799  TRP800  GLU811  SER814 

> <Gold.Protein.RotatedAtoms>
  151.3326  135.0845  159.9343 H   0  0  0  0  0  0  0  0  0  0  0  0  # atno 6907 bound_to 6896
  152.5231  133.9528  159.7690 H   0  0  0  0  0  0  0  0  0  0  0  0  # atno 6908 bound_to 6896
  150.9869  133.6135  159.2744 H   0  0  0  0  0  0  0  0  0  0  0  0  # atno 6909 bound_to 6896
  145.0230  139.4114  143.5188 H   0  0  0  0  0  0  0  0  0  0  0  0  # atno 7974 bound_to 7965
  154.7317  140.0502  157.0732 H   0  0  0  0  0  0  0  0  0  0  0  0  # atno 8008 bound_to 7997
  155.0293  140.3156  155.4745 H   0  0  0  0  0  0  0  0  0  0  0  0  # atno 8009 bound_to 7997
  156.2843  140.2153  156.5414 H   0  0  0  0  0  0  0  0  0  0  0  0  # atno 8010 bound_to 7997
  139.4910  144.4109  151.9300 H   0  0  0  0  0  0  0  0  0  0  0  0  # atno 10167 bound_to 10162
  157.6374  130.9453  150.0585 H   0  0  0  0  0  0  0  0  0  0  0  0  # atno 10718 bound_to 10713
  154.8582  135.3557  154.5686 H   0  0  0  0  0  0  0  0  0  0  0  0  # atno 10763 bound_to 10752
  153.6300  135.7002  153.5284 H   0  0  0  0  0  0  0  0  0  0  0  0  # atno 10764 bound_to 10752
  153.3057  135.4193  155.1252 H   0  0  0  0  0  0  0  0  0  0  0  0  # atno 10765 bound_to 10752
  140.3431  134.2311  155.7688 H   0  0  0  0  0  0  0  0  0  0  0  0  # atno 11005 bound_to 11000
  146.3488  139.9738  142.8703 LP  0  0  0  0  0  0  0  0  0  0  0  0  # atno 17320 bound_to 7965
  145.1870  140.9794  143.4233 LP  0  0  0  0  0  0  0  0  0  0  0  0  # atno 17321 bound_to 7965
  140.3551  144.3042  150.5942 LP  0  0  0  0  0  0  0  0  0  0  0  0  # atno 17342 bound_to 10162
  140.5452  143.2216  151.8019 LP  0  0  0  0  0  0  0  0  0  0  0  0  # atno 17343 bound_to 10162
  156.1625  130.3644  149.9279 LP  0  0  0  0  0  0  0  0  0  0  0  0  # atno 17370 bound_to 10713
  156.7273  130.9030  151.3623 LP  0  0  0  0  0  0  0  0  0  0  0  0  # atno 17371 bound_to 10713
  141.2033  133.7916  157.0347 LP  0  0  0  0  0  0  0  0  0  0  0  0  # atno 17394 bound_to 11000
  140.0764  134.9673  157.1553 LP  0  0  0  0  0  0  0  0  0  0  0  0  # atno 17395 bound_to 11000

$$$$
