AV-unprocessed.smi:1413|AV-procd|sdf|5757|dock5
  -GOLD-   22720 5393D 1   1.00000     0.00000
 Structure written by MMmdl.
 53 55  0  0  0  0  0  0  0  0  1 V2000
  153.5119  141.1994  160.2913 C   0  0  0  0  0  0  0  0  0  0  0  0
  152.7798  141.8029  159.0882 C   0  0  1  0  0  0  0  0  0  0  0  0
  151.8673  140.7755  158.3947 C   0  0  0  0  0  0  0  0  0  0  0  0
  151.1132  141.4193  157.3289 N   0  0  0  0  0  0  0  0  0  0  0  0
  150.3815  140.5217  156.5405 C   0  0  0  0  0  0  0  0  0  0  0  0
  149.2895  139.7939  157.0656 C   0  0  0  0  0  0  0  0  0  0  0  0
  148.6078  138.8971  156.2216 C   0  0  0  0  0  0  0  0  0  0  0  0
  149.0377  138.7450  154.8883 C   0  0  0  0  0  0  0  0  0  0  0  0
  148.3267  137.8380  154.0567 N   0  0  0  0  0  0  0  0  0  0  0  0
  147.0170  137.5366  154.0792 C   0  0  0  0  0  0  0  0  0  0  0  0
  146.1919  138.0159  154.8564 O   0  0  0  0  0  0  0  0  0  0  0  0
  146.7109  136.6485  153.1223 N   0  0  0  0  0  0  0  0  0  0  0  0
  145.3840  136.0936  152.8607 C   0  0  1  0  0  0  0  0  0  0  0  0
  144.3705  137.2467  152.7873 C   0  0  0  0  0  0  0  0  0  0  0  0
  145.4263  135.2585  151.5660 C   0  0  2  0  0  0  0  0  0  0  0  0
  144.1104  134.5618  151.2135 C   0  0  0  0  0  0  0  0  0  0  0  0
  144.5906  133.4051  150.3684 C   0  0  0  0  0  0  0  0  0  0  0  0
  145.8702  133.0038  151.0939 C   0  0  0  0  0  0  0  0  0  0  0  0
  146.3730  134.1973  151.6886 O   0  0  0  0  0  0  0  0  0  0  0  0
  150.1300  139.5353  154.4543 C   0  0  0  0  0  0  0  0  0  0  0  0
  150.7872  140.3983  155.2585 N   0  0  0  0  0  0  0  0  0  0  0  0
  150.3294  142.5511  157.8052 C   0  0  0  0  0  0  0  0  0  0  0  0
  151.2287  143.5641  158.5418 C   0  0  2  0  0  0  0  0  0  0  0  0
  152.1165  144.3961  157.5991 C   0  0  0  0  0  0  0  0  0  0  0  0
  151.9922  142.9000  159.5533 O   0  0  0  0  0  0  0  0  0  0  0  0
  154.1359  140.3578  159.9894 H   0  0  0  0  0  0  0  0  0  0  0  0
  152.8078  140.8419  161.0432 H   0  0  0  0  0  0  0  0  0  0  0  0
  154.1582  141.9392  160.7645 H   0  0  0  0  0  0  0  0  0  0  0  0
  153.5293  142.1618  158.3825 H   0  0  0  0  0  0  0  0  0  0  0  0
  152.4637  139.9606  157.9823 H   0  0  0  0  0  0  0  0  0  0  0  0
  151.1793  140.3383  159.1199 H   0  0  0  0  0  0  0  0  0  0  0  0
  148.9791  139.9145  158.0930 H   0  0  0  0  0  0  0  0  0  0  0  0
  147.7708  138.3284  156.5995 H   0  0  0  0  0  0  0  0  0  0  0  0
  148.8648  137.4207  153.3117 H   0  0  0  0  0  0  0  0  0  0  0  0
  147.4595  136.3162  152.5326 H   0  0  0  0  0  0  0  0  0  0  0  0
  145.0820  135.4360  153.6778 H   0  0  0  0  0  0  0  0  0  0  0  0
  143.3558  136.8761  152.6413 H   0  0  0  0  0  0  0  0  0  0  0  0
  144.5984  137.9259  151.9650 H   0  0  0  0  0  0  0  0  0  0  0  0
  144.3727  137.8283  153.7097 H   0  0  0  0  0  0  0  0  0  0  0  0
  145.7367  135.8799  150.7239 H   0  0  0  0  0  0  0  0  0  0  0  0
  143.6189  134.1860  152.1125 H   0  0  0  0  0  0  0  0  0  0  0  0
  143.4113  135.2117  150.6865 H   0  0  0  0  0  0  0  0  0  0  0  0
  143.8668  132.5929  150.2978 H   0  0  0  0  0  0  0  0  0  0  0  0
  144.8212  133.7488  149.3591 H   0  0  0  0  0  0  0  0  0  0  0  0
  145.6500  132.2894  151.8880 H   0  0  0  0  0  0  0  0  0  0  0  0
  146.6034  132.5523  150.4252 H   0  0  0  0  0  0  0  0  0  0  0  0
  150.4906  139.5046  153.4381 H   0  0  0  0  0  0  0  0  0  0  0  0
  149.8192  143.0322  156.9695 H   0  0  0  0  0  0  0  0  0  0  0  0
  149.5567  142.1915  158.4860 H   0  0  0  0  0  0  0  0  0  0  0  0
  150.5784  144.2668  159.0634 H   0  0  0  0  0  0  0  0  0  0  0  0
  151.5056  144.9872  156.9166 H   0  0  0  0  0  0  0  0  0  0  0  0
  152.7705  143.7736  156.9891 H   0  0  0  0  0  0  0  0  0  0  0  0
  152.7425  145.0870  158.1639 H   0  0  0  0  0  0  0  0  0  0  0  0
  1  2  1  0  0  0  0
  1 26  1  0  0  0  0
  1 27  1  0  0  0  0
  1 28  1  0  0  0  0
  2 25  1  0  0  0  0
  2  3  1  0  0  0  0
  2 29  1  0  0  0  0
  3  4  1  0  0  0  0
  3 30  1  0  0  0  0
  3 31  1  0  0  0  0
  4  5  1  0  0  0  0
  4 22  1  0  0  0  0
  5 21  1  0  0  0  0
  5  6  2  0  0  0  0
  6  7  1  0  0  0  0
  6 32  1  0  0  0  0
  7  8  2  0  0  0  0
  7 33  1  0  0  0  0
  8  9  1  0  0  0  0
  8 20  1  0  0  0  0
  9 10  1  0  0  0  0
  9 34  1  0  0  0  0
 10 11  2  0  0  0  0
 10 12  1  0  0  0  0
 12 13  1  0  0  0  0
 12 35  1  0  0  0  0
 13 14  1  0  0  0  0
 13 15  1  0  0  0  0
 13 36  1  0  0  0  0
 14 37  1  0  0  0  0
 14 38  1  0  0  0  0
 14 39  1  0  0  0  0
 15 19  1  0  0  0  0
 15 16  1  0  0  0  0
 15 40  1  0  0  0  0
 16 17  1  0  0  0  0
 16 41  1  0  0  0  0
 16 42  1  0  0  0  0
 17 18  1  0  0  0  0
 17 43  1  0  0  0  0
 17 44  1  0  0  0  0
 18 19  1  0  0  0  0
 18 45  1  0  0  0  0
 18 46  1  0  0  0  0
 20 21  2  0  0  0  0
 20 47  1  0  0  0  0
 22 23  1  0  0  0  0
 22 48  1  0  0  0  0
 22 49  1  0  0  0  0
 23 24  1  0  0  0  0
 23 25  1  0  0  0  0
 23 50  1  0  0  0  0
 24 51  1  0  0  0  0
 24 52  1  0  0  0  0
 24 53  1  0  0  0  0
M  END
> <s_m_source_file>
AV-unprocessed.smi

> <i_m_source_file_index>
1413

> <i_lp_mmshare_version>
43012

> <i_f3d_flags>
0

> <s_epik_input>
W0NIM11bQ0BASF0xW0NIMl1OKFtDSDJdW0NASF0oTzEpW0NIM10pYzJbY0hdW2NIXWMoW2NIXW4yKVtOSF1DKD1PKVtOSF1bQ0BIXShbQ0gzXSlbQ0BASF0zW0NIMl1bQ0gyXVtDSDJdTzM=

> <s_epik_cmdline>
J2VwaWtfcHl0aG9uJywgJy1waCcsICc3LjAnLCAnLXRuJywgJzgnLCAnLW1hJywgJzIwMCcsICctbWV0YWxfYmluZGluZycsICctaW1hZScsICc8aW5maWxlLm1hZT4nLCAnLW9tYWUnLCAnPG91dGZpbGUubWFlPic=

> <r_lp_tautomer_probability>
1

> <r_epik_Ionization_Penalty>
0.00271172

> <r_epik_Ionization_Penalty_Charging>
0

> <r_epik_Ionization_Penalty_Neutral>
0.00271172

> <r_epik_State_Penalty>
0.00186503

> <r_epik_Charging_Adjusted_Penalty>
0.00186503

> <i_epik_Tot_Q>
0

> <i_epik_Tot_abs_Q>
0

> <r_epik_Metal_State_Penalty>
-0

> <b_epik_Metal_Only>
0

> <s_lp_Force_Field>
OPLS_2005

> <r_lp_Energy>
38.2473

> <b_lp_Chiralities_Consistent>
1

> <s_lp_Variant>
AV-unprocessed.smi:1413-10

> <Gold.Version>
5.8.1

> <Gold.Id.Protein>
6NUR|6NUR_protein|mol2

> <Gold.PLP.Fitness>
48.1318

> <Gold.PLP.PLP>
-39.6336

> <Gold.PLP.part.hbond>
-3.0000

> <Gold.PLP.part.metal>
0.0000

> <Gold.PLP.part.buried>
-7.1221

> <Gold.PLP.part.nonpolar>
-30.5736

> <Gold.PLP.part.repulsive>
0.3327

> <Gold.PLP.ligand.clash>
0.0000

> <Gold.PLP.ligand.torsion>
0.3750

> <Gold.PLP.Chemscore.Hbond>
2.0420

> <Gold.PLP.Chemscore.CHOScore>
1.0000

> <Gold.PLP.Chemscore.Metal>
0.0000

> <Gold.Chemscore.Hbonds>
donor molecule, donor type, donor heavy atom, donor atom, acceptor molecule, acceptor atom, score
      L1  H     9    34       P1  7948  1.00
      L1  H    12    35       P1  7948  1.00
      P1  H  7989  7998       L1    21  0.05
      L1  C    20    47       P1  7957  1.00

> <Gold.PLP.Chemscore.Internal.Correction>
0.1221

> <Gold.Rescore>
     Score         DG    S(hbond)    S(metal)    S(lipo)     H(rot)  DE(clash)    DE(int)     intcor
     18.04     -20.57       1.96        0.00     102.61       1.35       0.06       2.46       ----

> <Gold.Chemscore.Fitness>
18.0402

> <Gold.Chemscore.DG>
-20.5678

> <Gold.Chemscore.ZeroCoef>
-5.4800

> <Gold.Chemscore.Hbond>
1.9552

> <Gold.Chemscore.Metal>
0.0000

> <Gold.Chemscore.Lipo>
102.6134

> <Gold.Chemscore.Internal_Hbond>
0.0000

> <Gold.Chemscore.DEClash>
0.0642

> <Gold.Chemscore.DEInternal>
2.4634

> <Gold.Chemscore.Rot>
1.3471

> <Gold.Chemscore.Internal.Correction>
   9.000000E+99

> <Gold.Chemscore.Hbonds>
donor molecule, donor type, donor heavy atom, donor atom, acceptor molecule, acceptor atom, score
      L1  H     9    34       P1  7948  0.94
      L1  H    12    35       P1  7948  0.99

> <Gold.Chemscore.Hbond.Weighted>
-6.5305

> <Gold.Chemscore.Metal.Weighted>
-0.0000

> <Gold.Chemscore.Lipo.Weighted>
-12.0058

> <Gold.Chemscore.Internal_Hbond.Weighted>
0.0000

> <Gold.Chemscore.DEClash.Weighted>
0.0642

> <Gold.Chemscore.DEInternal.Weighted>
2.4634

> <Gold.Chemscore.Rot.Weighted>
3.4485

> <Gold.Chemscore.Internal.Correction.Weighted>
   9.000000E+99

> <Gold.Protein.RotatedTorsions>
[ 6907 6896 6895 6894 ] final -159.62 input  -60.11 | X-H torsion
[ 7974 7965 7964 7962 ] final -128.62 input  175.53 | X-H torsion
[ 8008 7997 7996 7995 ] final  173.00 input   59.86 | X-H torsion
[ 10167 10162 10161 10158 ] final   14.73 input  -65.29 | X-H torsion
[ 10718 10713 10712 10709 ] final  170.93 input   66.30 | X-H torsion
[ 10763 10752 10751 10750 ] final -108.60 input  -60.55 | X-H torsion
[ 11005 11000 10999 10996 ] final  173.60 input  -57.11 | X-H torsion

> <Gold.Protein.ActiveResidues>
 VAL166  LYS551  ARG553  GLY616  TRP617  ASP618  TYR619  PRO620  LYS621  CYS622 
 ASP623  PHE694  ASN695  SER759  ASP760  ASP761  ALA762  ILE779  LEU786  VAL792 
 PHE793  MET794  SER795  GLU796  ALA797  LYS798  CYS799  TRP800  GLU811  SER814 

> <Gold.Protein.RotatedAtoms>
  151.3364  133.3980  159.2666 H   0  0  0  0  0  0  0  0  0  0  0  0  # atno 6907 bound_to 6896
  150.9913  134.9248  159.7912 H   0  0  0  0  0  0  0  0  0  0  0  0  # atno 6908 bound_to 6896
  152.5248  134.3329  159.9242 H   0  0  0  0  0  0  0  0  0  0  0  0  # atno 6909 bound_to 6896
  144.9652  140.7488  143.4704 H   0  0  0  0  0  0  0  0  0  0  0  0  # atno 7974 bound_to 7965
  156.1119  140.1471  156.9326 H   0  0  0  0  0  0  0  0  0  0  0  0  # atno 8008 bound_to 7997
  154.4773  140.0890  156.7336 H   0  0  0  0  0  0  0  0  0  0  0  0  # atno 8009 bound_to 7997
  155.4581  140.3437  155.4311 H   0  0  0  0  0  0  0  0  0  0  0  0  # atno 8010 bound_to 7997
  140.5915  143.8785  150.6878 H   0  0  0  0  0  0  0  0  0  0  0  0  # atno 10167 bound_to 10162
  157.0009  131.0176  151.2831 H   0  0  0  0  0  0  0  0  0  0  0  0  # atno 10718 bound_to 10713
  154.8145  135.4632  154.0605 H   0  0  0  0  0  0  0  0  0  0  0  0  # atno 10763 bound_to 10752
  153.2009  135.6869  153.8239 H   0  0  0  0  0  0  0  0  0  0  0  0  # atno 10764 bound_to 10752
  153.7724  135.3268  155.3331 H   0  0  0  0  0  0  0  0  0  0  0  0  # atno 10765 bound_to 10752
  140.3423  134.7266  157.4211 H   0  0  0  0  0  0  0  0  0  0  0  0  # atno 11005 bound_to 11000
  145.2640  139.1981  143.4877 LP  0  0  0  0  0  0  0  0  0  0  0  0  # atno 17320 bound_to 7965
  146.3365  140.2575  142.8601 LP  0  0  0  0  0  0  0  0  0  0  0  0  # atno 17321 bound_to 7965
  140.2309  143.3736  152.1566 LP  0  0  0  0  0  0  0  0  0  0  0  0  # atno 17342 bound_to 10162
  139.5231  144.7067  151.5333 LP  0  0  0  0  0  0  0  0  0  0  0  0  # atno 17343 bound_to 10162
  157.5391  130.8108  149.8007 LP  0  0  0  0  0  0  0  0  0  0  0  0  # atno 17370 bound_to 10713
  156.0171  130.3809  150.2075 LP  0  0  0  0  0  0  0  0  0  0  0  0  # atno 17371 bound_to 10713
  140.0771  134.5782  155.8580 LP  0  0  0  0  0  0  0  0  0  0  0  0  # atno 17394 bound_to 11000
  141.2035  133.6632  156.6067 LP  0  0  0  0  0  0  0  0  0  0  0  0  # atno 17395 bound_to 11000

$$$$
