AV-unprocessed.smi:1182|AV-procd|sdf|4967|dock2
  -GOLD-   22720 3563D 1   1.00000     0.00000
 Structure written by MMmdl.
 37 38  0  0  0  0  0  0  0  0  1 V2000
  144.4293  136.2493  152.7593 O   0  0  0  0  0  0  0  0  0  0  0  0
  145.6455  136.2096  152.5708 C   0  0  0  0  0  0  0  0  0  0  0  0
  146.4919  137.1623  152.9883 N   0  0  0  0  0  0  0  0  0  0  0  0
  146.1243  138.3690  153.7277 C   0  0  0  0  0  0  0  0  0  0  0  0
  147.1471  139.5215  153.5677 C   0  0  0  0  0  0  0  0  0  0  0  0
  147.4088  139.6458  152.1808 O   0  0  0  0  0  0  0  0  0  0  0  0
  146.6327  140.8776  154.1153 C   0  0  0  0  0  0  0  0  0  0  0  0
  147.7012  141.9852  154.0848 C   0  0  0  0  0  0  0  0  0  0  0  0
  148.9823  141.5529  154.8109 C   0  0  0  0  0  0  0  0  0  0  0  0
  149.5325  140.2489  154.2185 C   0  0  0  0  0  0  0  0  0  0  0  0
  148.4763  139.1301  154.2576 C   0  0  0  0  0  0  0  0  0  0  0  0
  146.3009  135.2292  151.9248 N   0  0  0  0  0  0  0  0  0  0  0  0
  145.7660  134.0489  151.3429 C   0  0  0  0  0  0  0  0  0  0  0  0
  144.3915  134.1110  151.0196 C   0  0  0  0  0  0  0  0  0  0  0  0
  143.7654  132.9926  150.4358 C   0  0  0  0  0  0  0  0  0  0  0  0
  144.5308  131.8387  150.1903 C   0  0  0  0  0  0  0  0  0  0  0  0
  145.8929  131.8595  150.5426 C   0  0  0  0  0  0  0  0  0  0  0  0
  146.4949  132.9304  151.1020 N   0  0  0  0  0  0  0  0  0  0  0  0
  147.4726  137.0490  152.7783 H   0  0  0  0  0  0  0  0  0  0  0  0
  145.1356  138.7086  153.4142 H   0  0  0  0  0  0  0  0  0  0  0  0
  146.0200  138.1022  154.7802 H   0  0  0  0  0  0  0  0  0  0  0  0
  148.3279  139.8341  152.0670 H   0  0  0  0  0  0  0  0  0  0  0  0
  145.7598  141.2145  153.5554 H   0  0  0  0  0  0  0  0  0  0  0  0
  146.2985  140.7419  155.1448 H   0  0  0  0  0  0  0  0  0  0  0  0
  147.9358  142.2433  153.0514 H   0  0  0  0  0  0  0  0  0  0  0  0
  147.3047  142.8914  154.5432 H   0  0  0  0  0  0  0  0  0  0  0  0
  149.7338  142.3399  154.7417 H   0  0  0  0  0  0  0  0  0  0  0  0
  148.7741  141.4152  155.8728 H   0  0  0  0  0  0  0  0  0  0  0  0
  149.8561  140.4198  153.1911 H   0  0  0  0  0  0  0  0  0  0  0  0
  150.4198  139.9377  154.7703 H   0  0  0  0  0  0  0  0  0  0  0  0
  148.2781  138.8815  155.3012 H   0  0  0  0  0  0  0  0  0  0  0  0
  148.8848  138.2249  153.8064 H   0  0  0  0  0  0  0  0  0  0  0  0
  147.3009  135.3377  151.8448 H   0  0  0  0  0  0  0  0  0  0  0  0
  143.8179  135.0055  151.2149 H   0  0  0  0  0  0  0  0  0  0  0  0
  142.7163  133.0209  150.1810 H   0  0  0  0  0  0  0  0  0  0  0  0
  144.0866  130.9614  149.7438 H   0  0  0  0  0  0  0  0  0  0  0  0
  146.5160  130.9944  150.3708 H   0  0  0  0  0  0  0  0  0  0  0  0
  1  2  2  0  0  0  0
  2  3  1  0  0  0  0
  2 12  1  0  0  0  0
  3  4  1  0  0  0  0
  3 19  1  0  0  0  0
  4  5  1  0  0  0  0
  4 20  1  0  0  0  0
  4 21  1  0  0  0  0
  5 11  1  0  0  0  0
  5  6  1  0  0  0  0
  5  7  1  0  0  0  0
  6 22  1  0  0  0  0
  7  8  1  0  0  0  0
  7 23  1  0  0  0  0
  7 24  1  0  0  0  0
  8  9  1  0  0  0  0
  8 25  1  0  0  0  0
  8 26  1  0  0  0  0
  9 10  1  0  0  0  0
  9 27  1  0  0  0  0
  9 28  1  0  0  0  0
 10 11  1  0  0  0  0
 10 29  1  0  0  0  0
 10 30  1  0  0  0  0
 11 31  1  0  0  0  0
 11 32  1  0  0  0  0
 12 13  1  0  0  0  0
 12 33  1  0  0  0  0
 13 18  1  0  0  0  0
 13 14  2  0  0  0  0
 14 15  1  0  0  0  0
 14 34  1  0  0  0  0
 15 16  2  0  0  0  0
 15 35  1  0  0  0  0
 16 17  1  0  0  0  0
 16 36  1  0  0  0  0
 17 18  2  0  0  0  0
 17 37  1  0  0  0  0
M  END
> <s_m_source_file>
AV-unprocessed.smi

> <i_m_source_file_index>
1182

> <i_lp_mmshare_version>
43012

> <i_f3d_flags>
0

> <s_epik_input>
bjFbY0hdW2NIXVtjSF1bY0hdYzFbTkhdQyg9TylbTkhdW0NIMl1DMihbT0hdKVtDSDJdW0NIMl1bQ0gyXVtDSDJdW0NIMl0y

> <s_epik_cmdline>
J2VwaWtfcHl0aG9uJywgJy1waCcsICc3LjAnLCAnLXRuJywgJzgnLCAnLW1hJywgJzIwMCcsICctbWV0YWxfYmluZGluZycsICctaW1hZScsICc8aW5maWxlLm1hZT4nLCAnLW9tYWUnLCAnPG91dGZpbGUubWFlPic=

> <r_lp_tautomer_probability>
1

> <r_epik_Ionization_Penalty>
5.55141e-05

> <r_epik_Ionization_Penalty_Charging>
0

> <r_epik_Ionization_Penalty_Neutral>
5.55141e-05

> <r_epik_State_Penalty>
-0

> <r_epik_Charging_Adjusted_Penalty>
0

> <i_epik_Tot_Q>
0

> <i_epik_Tot_abs_Q>
0

> <r_epik_Metal_State_Penalty>
-0

> <b_epik_Metal_Only>
0

> <s_lp_Force_Field>
OPLS_2005

> <r_lp_Energy>
16.5718

> <b_lp_Chiralities_Consistent>
1

> <s_lp_Variant>
AV-unprocessed.smi:1182-1

> <Gold.Version>
5.8.1

> <Gold.Id.Protein>
6NUR|6NUR_protein|mol2

> <Gold.PLP.Fitness>
43.5329

> <Gold.PLP.PLP>
-32.2713

> <Gold.PLP.part.hbond>
-2.6939

> <Gold.PLP.part.metal>
0.0000

> <Gold.PLP.part.buried>
-3.5569

> <Gold.PLP.part.nonpolar>
-26.9293

> <Gold.PLP.part.repulsive>
0.3612

> <Gold.PLP.ligand.clash>
0.0000

> <Gold.PLP.ligand.torsion>
0.3560

> <Gold.PLP.Chemscore.Hbond>
3.0000

> <Gold.PLP.Chemscore.CHOScore>
0.9892

> <Gold.PLP.Chemscore.Metal>
0.0000

> <Gold.Chemscore.Hbonds>
donor molecule, donor type, donor heavy atom, donor atom, acceptor molecule, acceptor atom, score
      L1  H     3    19       P1  7948  1.00
      L1  H     6    22       P1  7957  1.00
      L1  H    12    33       P1  7948  1.00
      L1  C    17    37       P1 10747  0.99

> <Gold.PLP.Chemscore.Internal.Correction>
0.0058

> <Gold.Rescore>
     Score         DG    S(hbond)    S(metal)    S(lipo)     H(rot)  DE(clash)    DE(int)     intcor
     17.74     -19.86       2.93        0.00      78.18       1.79       0.32       1.79       ----

> <Gold.Chemscore.Fitness>
17.7408

> <Gold.Chemscore.DG>
-19.8581

> <Gold.Chemscore.ZeroCoef>
-5.4800

> <Gold.Chemscore.Hbond>
2.9345

> <Gold.Chemscore.Metal>
0.0000

> <Gold.Chemscore.Lipo>
78.1820

> <Gold.Chemscore.Internal_Hbond>
0.0000

> <Gold.Chemscore.DEClash>
0.3244

> <Gold.Chemscore.DEInternal>
1.7928

> <Gold.Chemscore.Rot>
1.7853

> <Gold.Chemscore.Internal.Correction>
   9.000000E+99

> <Gold.Chemscore.Hbonds>
donor molecule, donor type, donor heavy atom, donor atom, acceptor molecule, acceptor atom, score
      L1  H     3    19       P1  7948  0.97
      L1  H     6    22       P1  7957  0.91
      L1  H    12    33       P1  7948  0.98

> <Gold.Chemscore.Hbond.Weighted>
-9.8012

> <Gold.Chemscore.Metal.Weighted>
-0.0000

> <Gold.Chemscore.Lipo.Weighted>
-9.1473

> <Gold.Chemscore.Internal_Hbond.Weighted>
0.0000

> <Gold.Chemscore.DEClash.Weighted>
0.3244

> <Gold.Chemscore.DEInternal.Weighted>
1.7928

> <Gold.Chemscore.Rot.Weighted>
4.5704

> <Gold.Chemscore.Internal.Correction.Weighted>
   9.000000E+99

> <Gold.Protein.RotatedTorsions>
[ 6907 6896 6895 6894 ] final  150.50 input  -60.11 | X-H torsion
[ 7974 7965 7964 7962 ] final   31.20 input  175.53 | X-H torsion
[ 8008 7997 7996 7995 ] final -160.28 input   59.86 | X-H torsion
[ 10167 10162 10161 10158 ] final  -63.91 input  -65.29 | X-H torsion
[ 10718 10713 10712 10709 ] final   66.35 input   66.30 | X-H torsion
[ 10763 10752 10751 10750 ] final -165.39 input  -60.55 | X-H torsion
[ 11005 11000 10999 10996 ] final  -92.94 input  -57.11 | X-H torsion

> <Gold.Protein.ActiveResidues>
 VAL166  LYS551  ARG553  GLY616  TRP617  ASP618  TYR619  PRO620  LYS621  CYS622 
 ASP623  PHE694  ASN695  SER759  ASP760  ASP761  ALA762  ILE779  LEU786  VAL792 
 PHE793  MET794  SER795  GLU796  ALA797  LYS798  CYS799  TRP800  GLU811  SER814 

> <Gold.Protein.RotatedAtoms>
  152.1136  133.4314  159.4642 H   0  0  0  0  0  0  0  0  0  0  0  0  # atno 6907 bound_to 6896
  150.6868  134.2619  159.4562 H   0  0  0  0  0  0  0  0  0  0  0  0  # atno 6908 bound_to 6896
  152.0490  134.9665  160.0625 H   0  0  0  0  0  0  0  0  0  0  0  0  # atno 6909 bound_to 6896
  146.1565  139.6688  142.9063 H   0  0  0  0  0  0  0  0  0  0  0  0  # atno 7974 bound_to 7965
  155.7751  140.0857  157.2088 H   0  0  0  0  0  0  0  0  0  0  0  0  # atno 8008 bound_to 7997
  154.3993  140.1518  156.3044 H   0  0  0  0  0  0  0  0  0  0  0  0  # atno 8009 bound_to 7997
  155.8709  140.3425  155.5823 H   0  0  0  0  0  0  0  0  0  0  0  0  # atno 8010 bound_to 7997
  140.5838  143.2331  151.6287 H   0  0  0  0  0  0  0  0  0  0  0  0  # atno 10167 bound_to 10162
  157.6164  130.9263  150.0098 H   0  0  0  0  0  0  0  0  0  0  0  0  # atno 10718 bound_to 10713
  154.6937  135.2975  154.9443 H   0  0  0  0  0  0  0  0  0  0  0  0  # atno 10763 bound_to 10752
  154.0398  135.6659  153.4793 H   0  0  0  0  0  0  0  0  0  0  0  0  # atno 10764 bound_to 10752
  153.0630  135.5104  154.8043 H   0  0  0  0  0  0  0  0  0  0  0  0  # atno 10765 bound_to 10752
  141.1510  133.7854  157.0089 H   0  0  0  0  0  0  0  0  0  0  0  0  # atno 11005 bound_to 11000
  145.4696  141.0435  143.2706 LP  0  0  0  0  0  0  0  0  0  0  0  0  # atno 17320 bound_to 7965
  144.7970  139.6215  143.7088 LP  0  0  0  0  0  0  0  0  0  0  0  0  # atno 17321 bound_to 7965
  139.5185  144.3282  152.0850 LP  0  0  0  0  0  0  0  0  0  0  0  0  # atno 17342 bound_to 10162
  140.2436  144.4244  150.6250 LP  0  0  0  0  0  0  0  0  0  0  0  0  # atno 17343 bound_to 10162
  156.1288  130.3644  149.9766 LP  0  0  0  0  0  0  0  0  0  0  0  0  # atno 17370 bound_to 10713
  156.7831  130.9229  151.3646 LP  0  0  0  0  0  0  0  0  0  0  0  0  # atno 17371 bound_to 10713
  140.0890  134.9603  157.1746 LP  0  0  0  0  0  0  0  0  0  0  0  0  # atno 17394 bound_to 11000
  140.3471  134.2639  155.7203 LP  0  0  0  0  0  0  0  0  0  0  0  0  # atno 17395 bound_to 11000

$$$$
