AV-unprocessed.smi:2829|AV-procd|sdf|10902|dock1
  -GOLD-   2272015353D 1   1.00000     0.00000
 Structure written by MMmdl.
 50 53  0  0  0  0  0  0  0  0  1 V2000
  143.5902  132.4529  149.5920 C   0  0  0  0  0  0  0  0  0  0  0  0
  144.9839  132.4418  150.2602 C   0  0  0  0  0  0  0  0  0  0  0  0
  144.9943  131.2925  151.2898 C   0  0  0  0  0  0  0  0  0  0  0  0
  146.0257  132.1661  149.1558 C   0  0  0  0  0  0  0  0  0  0  0  0
  145.3095  133.7724  150.9627 C   0  0  0  0  0  0  0  0  0  0  0  0
  145.2850  135.0219  150.3026 C   0  0  0  0  0  0  0  0  0  0  0  0
  145.6014  136.1655  151.0546 C   0  0  0  0  0  0  0  0  0  0  0  0
  145.9224  136.0062  152.4175 C   0  0  0  0  0  0  0  0  0  0  0  0
  146.2287  137.2044  153.1134 N   0  0  0  0  0  0  0  0  0  0  0  0
  146.6600  138.3767  152.6076 C   0  0  0  0  0  0  0  0  0  0  0  0
  146.8514  138.5977  151.4134 O   0  0  0  0  0  0  0  0  0  0  0  0
  146.8503  139.3337  153.5329 N   0  0  0  0  0  0  0  0  0  0  0  0
  147.3109  140.7096  153.3172 C   0  0  2  0  0  0  0  0  0  0  0  0
  148.7070  141.0085  153.9245 C   0  0  2  0  0  0  0  0  0  0  0  0
  149.6310  139.9373  154.4536 C   0  0  0  0  0  0  0  0  0  0  0  0
  149.3876  139.9916  155.9642 C   0  0  0  0  0  0  0  0  0  0  0  0
  148.1090  140.6057  156.1055 O   0  0  0  0  0  0  0  0  0  0  0  0
  148.0105  141.6355  155.1265 C   0  0  2  0  0  0  0  0  0  0  0  0
  146.6926  141.6765  154.3415 C   0  0  0  0  0  0  0  0  0  0  0  0
  145.3417  141.4339  155.0358 C   0  0  0  0  0  0  0  0  0  0  0  0
  145.1258  142.9498  155.0335 C   0  0  0  0  0  0  0  0  0  0  0  0
  146.1395  143.0365  153.8889 C   0  0  0  0  0  0  0  0  0  0  0  0
  145.9270  134.7749  152.9874 N   0  0  0  0  0  0  0  0  0  0  0  0
  145.6286  133.6831  152.2771 N   0  0  0  0  0  0  0  0  0  0  0  0
  143.3782  131.5004  149.1046 H   0  0  0  0  0  0  0  0  0  0  0  0
  143.5165  133.2257  148.8257 H   0  0  0  0  0  0  0  0  0  0  0  0
  142.7954  132.6216  150.3197 H   0  0  0  0  0  0  0  0  0  0  0  0
  144.2690  131.4679  152.0851 H   0  0  0  0  0  0  0  0  0  0  0  0
  145.9725  131.1756  151.7575 H   0  0  0  0  0  0  0  0  0  0  0  0
  144.7464  130.3383  150.8234 H   0  0  0  0  0  0  0  0  0  0  0  0
  145.8064  131.2391  148.6250 H   0  0  0  0  0  0  0  0  0  0  0  0
  147.0328  132.0717  149.5629 H   0  0  0  0  0  0  0  0  0  0  0  0
  146.0437  132.9703  148.4191 H   0  0  0  0  0  0  0  0  0  0  0  0
  145.0360  135.1275  149.2581 H   0  0  0  0  0  0  0  0  0  0  0  0
  145.5968  137.1415  150.5917 H   0  0  0  0  0  0  0  0  0  0  0  0
  146.1075  137.1689  154.1147 H   0  0  0  0  0  0  0  0  0  0  0  0
  146.6125  139.0962  154.4854 H   0  0  0  0  0  0  0  0  0  0  0  0
  147.1993  141.0696  152.2931 H   0  0  0  0  0  0  0  0  0  0  0  0
  149.2200  141.7720  153.3376 H   0  0  0  0  0  0  0  0  0  0  0  0
  149.3975  138.9515  154.0543 H   0  0  0  0  0  0  0  0  0  0  0  0
  150.6758  140.1407  154.2178 H   0  0  0  0  0  0  0  0  0  0  0  0
  149.4125  139.0065  156.4302 H   0  0  0  0  0  0  0  0  0  0  0  0
  150.1367  140.6186  156.4503 H   0  0  0  0  0  0  0  0  0  0  0  0
  148.4266  142.5945  155.4382 H   0  0  0  0  0  0  0  0  0  0  0  0
  144.6248  140.9107  154.4009 H   0  0  0  0  0  0  0  0  0  0  0  0
  145.4054  140.9838  156.0268 H   0  0  0  0  0  0  0  0  0  0  0  0
  144.1156  143.2681  154.7749 H   0  0  0  0  0  0  0  0  0  0  0  0
  145.4806  143.4276  155.9482 H   0  0  0  0  0  0  0  0  0  0  0  0
  146.8403  143.8684  153.9622 H   0  0  0  0  0  0  0  0  0  0  0  0
  145.6655  142.9948  152.9069 H   0  0  0  0  0  0  0  0  0  0  0  0
  1  2  1  0  0  0  0
  1 25  1  0  0  0  0
  1 26  1  0  0  0  0
  1 27  1  0  0  0  0
  2  3  1  0  0  0  0
  2  4  1  0  0  0  0
  2  5  1  0  0  0  0
  3 28  1  0  0  0  0
  3 29  1  0  0  0  0
  3 30  1  0  0  0  0
  4 31  1  0  0  0  0
  4 32  1  0  0  0  0
  4 33  1  0  0  0  0
  5 24  1  0  0  0  0
  5  6  2  0  0  0  0
  6  7  1  0  0  0  0
  6 34  1  0  0  0  0
  7  8  2  0  0  0  0
  7 35  1  0  0  0  0
  8  9  1  0  0  0  0
  8 23  1  0  0  0  0
  9 10  1  0  0  0  0
  9 36  1  0  0  0  0
 10 11  2  0  0  0  0
 10 12  1  0  0  0  0
 12 13  1  0  0  0  0
 12 37  1  0  0  0  0
 13 19  1  0  0  0  0
 13 14  1  0  0  0  0
 13 38  1  0  0  0  0
 14 18  1  0  0  0  0
 14 15  1  0  0  0  0
 14 39  1  0  0  0  0
 15 16  1  0  0  0  0
 15 40  1  0  0  0  0
 15 41  1  0  0  0  0
 16 17  1  0  0  0  0
 16 42  1  0  0  0  0
 16 43  1  0  0  0  0
 17 18  1  0  0  0  0
 18 19  1  0  0  0  0
 18 44  1  0  0  0  0
 19 22  1  0  0  0  0
 19 20  1  0  0  0  0
 20 21  1  0  0  0  0
 20 45  1  0  0  0  0
 20 46  1  0  0  0  0
 21 22  1  0  0  0  0
 21 47  1  0  0  0  0
 21 48  1  0  0  0  0
 22 49  1  0  0  0  0
 22 50  1  0  0  0  0
 23 24  2  0  0  0  0
M  END
> <s_m_source_file>
AV-unprocessed.smi

> <i_m_source_file_index>
2829

> <i_lp_mmshare_version>
43012

> <i_f3d_flags>
0

> <s_epik_input>
W0NIM11DKFtDSDNdKShbQ0gzXSljMVtjSF1bY0hdYyhubjEpW05IXUMoPU8pW05IXVtDQEBIXTJbQ0BIXShbQ0gyXVtDSDJdTzMpW0NAQEhdM0MyNFtDSDJdW0NIMl1bQ0gyXTQ=

> <s_epik_cmdline>
J2VwaWtfcHl0aG9uJywgJy1waCcsICc3LjAnLCAnLXRuJywgJzgnLCAnLW1hJywgJzIwMCcsICctbWV0YWxfYmluZGluZycsICctaW1hZScsICc8aW5maWxlLm1hZT4nLCAnLW9tYWUnLCAnPG91dGZpbGUubWFlPic=

> <r_lp_tautomer_probability>
1

> <r_epik_Ionization_Penalty>
0.011915

> <r_epik_Ionization_Penalty_Charging>
0

> <r_epik_Ionization_Penalty_Neutral>
0.011915

> <r_epik_State_Penalty>
0.00486223

> <r_epik_Charging_Adjusted_Penalty>
0.00486223

> <i_epik_Tot_Q>
0

> <i_epik_Tot_abs_Q>
0

> <r_epik_Metal_State_Penalty>
-0

> <b_epik_Metal_Only>
0

> <s_lp_Force_Field>
OPLS_2005

> <r_lp_Energy>
61.2514

> <b_lp_Chiralities_Consistent>
1

> <s_lp_Variant>
AV-unprocessed.smi:2829-5

> <Gold.Version>
5.8.1

> <Gold.Id.Protein>
6NUR|6NUR_protein|mol2

> <Gold.PLP.Fitness>
43.9376

> <Gold.PLP.PLP>
-42.4138

> <Gold.PLP.part.hbond>
-1.2589

> <Gold.PLP.part.metal>
0.0000

> <Gold.PLP.part.buried>
1.7712

> <Gold.PLP.part.nonpolar>
-42.2312

> <Gold.PLP.part.repulsive>
0.6108

> <Gold.PLP.ligand.clash>
0.0000

> <Gold.PLP.ligand.torsion>
0.3727

> <Gold.PLP.Chemscore.Hbond>
0.6825

> <Gold.PLP.Chemscore.CHOScore>
0.0000

> <Gold.PLP.Chemscore.Metal>
0.0000

> <Gold.Chemscore.Hbonds>
donor molecule, donor type, donor heavy atom, donor atom, acceptor molecule, acceptor atom, score
      P1  H  7954  7966       L1    11  0.75

> <Gold.PLP.Chemscore.Internal.Correction>
0.2216

> <Gold.Rescore>
     Score         DG    S(hbond)    S(metal)    S(lipo)     H(rot)  DE(clash)    DE(int)     intcor
     15.21     -19.05       0.91        0.00     115.41       1.16       2.08       1.76       ----

> <Gold.Chemscore.Fitness>
15.2083

> <Gold.Chemscore.DG>
-19.0461

> <Gold.Chemscore.ZeroCoef>
-5.4800

> <Gold.Chemscore.Hbond>
0.9093

> <Gold.Chemscore.Metal>
0.0000

> <Gold.Chemscore.Lipo>
115.4113

> <Gold.Chemscore.Internal_Hbond>
0.0000

> <Gold.Chemscore.DEClash>
2.0792

> <Gold.Chemscore.DEInternal>
1.7586

> <Gold.Chemscore.Rot>
1.1618

> <Gold.Chemscore.Internal.Correction>
   9.000000E+99

> <Gold.Chemscore.Hbonds>
donor molecule, donor type, donor heavy atom, donor atom, acceptor molecule, acceptor atom, score
      P1  H  7954  7966       L1    11  0.73

> <Gold.Chemscore.Hbond.Weighted>
-3.0371

> <Gold.Chemscore.Metal.Weighted>
-0.0000

> <Gold.Chemscore.Lipo.Weighted>
-13.5031

> <Gold.Chemscore.Internal_Hbond.Weighted>
0.0000

> <Gold.Chemscore.DEClash.Weighted>
2.0792

> <Gold.Chemscore.DEInternal.Weighted>
1.7586

> <Gold.Chemscore.Rot.Weighted>
2.9741

> <Gold.Chemscore.Internal.Correction.Weighted>
   9.000000E+99

> <Gold.Protein.RotatedTorsions>
[ 6907 6896 6895 6894 ] final  -48.80 input  -60.11 | X-H torsion
[ 7974 7965 7964 7962 ] final  -64.17 input  175.53 | X-H torsion
[ 8008 7997 7996 7995 ] final  129.10 input   59.86 | X-H torsion
[ 10167 10162 10161 10158 ] final  172.01 input  -65.29 | X-H torsion
[ 10718 10713 10712 10709 ] final  -20.31 input   66.30 | X-H torsion
[ 10763 10752 10751 10750 ] final  -46.89 input  -60.55 | X-H torsion
[ 11005 11000 10999 10996 ] final  -57.11 input  -57.11 | X-H torsion

> <Gold.Protein.ActiveResidues>
 VAL166  LYS551  ARG553  GLY616  TRP617  ASP618  TYR619  PRO620  LYS621  CYS622 
 ASP623  PHE694  ASN695  SER759  ASP760  ASP761  ALA762  ILE779  LEU786  VAL792 
 PHE793  MET794  SER795  GLU796  ALA797  LYS798  CYS799  TRP800  GLU811  SER814 

> <Gold.Protein.RotatedAtoms>
  150.8869  134.8268  159.7265 H   0  0  0  0  0  0  0  0  0  0  0  0  # atno 6907 bound_to 6896
  152.4813  134.4709  159.9645 H   0  0  0  0  0  0  0  0  0  0  0  0  # atno 6908 bound_to 6896
  151.4776  133.3515  159.2868 H   0  0  0  0  0  0  0  0  0  0  0  0  # atno 6909 bound_to 6896
  145.7701  140.8817  143.0385 H   0  0  0  0  0  0  0  0  0  0  0  0  # atno 7974 bound_to 7965
  156.2929  140.2628  156.2544 H   0  0  0  0  0  0  0  0  0  0  0  0  # atno 8008 bound_to 7997
  154.9851  140.0389  157.2313 H   0  0  0  0  0  0  0  0  0  0  0  0  # atno 8009 bound_to 7997
  154.7737  140.2782  155.6123 H   0  0  0  0  0  0  0  0  0  0  0  0  # atno 8010 bound_to 7997
  139.5063  144.3422  152.0007 H   0  0  0  0  0  0  0  0  0  0  0  0  # atno 10167 bound_to 10162
  156.5336  130.4661  149.6534 H   0  0  0  0  0  0  0  0  0  0  0  0  # atno 10718 bound_to 10713
  154.0524  135.6629  153.4802 H   0  0  0  0  0  0  0  0  0  0  0  0  # atno 10763 bound_to 10752
  153.0458  135.5115  154.7738 H   0  0  0  0  0  0  0  0  0  0  0  0  # atno 10764 bound_to 10752
  154.6749  135.3035  154.9659 H   0  0  0  0  0  0  0  0  0  0  0  0  # atno 10765 bound_to 10752
  141.1150  133.6610  156.4720 H   0  0  0  0  0  0  0  0  0  0  0  0  # atno 11005 bound_to 11000
  144.6814  139.9843  143.7484 LP  0  0  0  0  0  0  0  0  0  0  0  0  # atno 17320 bound_to 7965
  146.0179  139.3225  143.0831 LP  0  0  0  0  0  0  0  0  0  0  0  0  # atno 17321 bound_to 7965
  140.2860  144.3807  150.6104 LP  0  0  0  0  0  0  0  0  0  0  0  0  # atno 17342 bound_to 10162
  140.5983  143.2167  151.7122 LP  0  0  0  0  0  0  0  0  0  0  0  0  # atno 17343 bound_to 10162
  156.3037  130.7191  151.2068 LP  0  0  0  0  0  0  0  0  0  0  0  0  # atno 17370 bound_to 10713
  157.7417  131.0499  150.5074 LP  0  0  0  0  0  0  0  0  0  0  0  0  # atno 17371 bound_to 10713
  140.4670  134.6788  157.5112 LP  0  0  0  0  0  0  0  0  0  0  0  0  # atno 17394 bound_to 11000
  140.0067  134.6753  155.9444 LP  0  0  0  0  0  0  0  0  0  0  0  0  # atno 17395 bound_to 11000

$$$$
