AV-unprocessed.smi:798|AV-procd|sdf|3770|dock10
  -GOLD-   22720 1203D 1   1.00000     0.00000
 Structure written by MMmdl.
 34 36  0  0  0  0  0  0  0  0  1 V2000
  141.5728  136.4457  153.5742 O   0  0  0  0  0  0  0  0  0  0  0  0
  142.1515  137.4651  153.1977 C   0  0  0  0  0  0  0  0  0  0  0  0
  141.6226  138.7009  153.1822 N   0  0  0  0  0  0  0  0  0  0  0  0
  140.3375  139.1158  153.6203 C   0  0  0  0  0  0  0  0  0  0  0  0
  140.0715  140.3441  154.0916 N   0  0  0  0  0  0  0  0  0  0  0  0
  138.7355  140.4869  154.4441 N   0  0  0  0  0  0  0  0  0  0  0  0
  138.0479  139.3626  154.2247 C   0  0  0  0  0  0  0  0  0  0  0  0
  138.9645  138.0196  153.5641 S   0  0  0  0  0  0  0  0  0  0  0  0
  143.4156  137.4763  152.7508 N   0  0  0  0  0  0  0  0  0  0  0  0
  144.2838  136.3045  152.6251 C   0  0  1  0  0  0  0  0  0  0  0  0
  143.7659  135.3828  151.5002 C   0  0  2  0  0  0  0  0  0  0  0  0
  144.4370  134.0030  151.6278 C   0  0  0  0  0  0  0  0  0  0  0  0
  145.8820  134.2915  151.1782 C   0  0  0  0  0  0  0  0  0  0  0  0
  145.8473  135.7992  150.8576 C   0  0  1  0  0  0  0  0  0  0  0  0
  144.4530  135.9490  150.2631 C   0  0  0  0  0  0  0  0  0  0  0  0
  145.7479  136.6036  152.1775 C   0  0  1  0  0  0  0  0  0  0  0  0
  146.1238  138.0942  152.0159 C   0  0  0  0  0  0  0  0  0  0  0  0
  147.3536  138.2233  151.3345 O   0  0  0  0  0  0  0  0  0  0  0  0
  142.2156  139.4366  152.8277 H   0  0  0  0  0  0  0  0  0  0  0  0
  136.9929  139.3241  154.4522 H   0  0  0  0  0  0  0  0  0  0  0  0
  143.8091  138.3607  152.4642 H   0  0  0  0  0  0  0  0  0  0  0  0
  144.2791  135.7629  153.5731 H   0  0  0  0  0  0  0  0  0  0  0  0
  142.6783  135.3255  151.4383 H   0  0  0  0  0  0  0  0  0  0  0  0
  144.3862  133.6056  152.6421 H   0  0  0  0  0  0  0  0  0  0  0  0
  143.9667  133.2789  150.9613 H   0  0  0  0  0  0  0  0  0  0  0  0
  146.6161  134.0452  151.9464 H   0  0  0  0  0  0  0  0  0  0  0  0
  146.1264  133.7114  150.2874 H   0  0  0  0  0  0  0  0  0  0  0  0
  146.6594  136.1134  150.2013 H   0  0  0  0  0  0  0  0  0  0  0  0
  144.2972  135.3449  149.3674 H   0  0  0  0  0  0  0  0  0  0  0  0
  144.1787  136.9824  150.0460 H   0  0  0  0  0  0  0  0  0  0  0  0
  146.4321  136.1779  152.9138 H   0  0  0  0  0  0  0  0  0  0  0  0
  145.3554  138.6461  151.4743 H   0  0  0  0  0  0  0  0  0  0  0  0
  146.2399  138.5668  152.9913 H   0  0  0  0  0  0  0  0  0  0  0  0
  148.0381  137.8676  151.8806 H   0  0  0  0  0  0  0  0  0  0  0  0
  1  2  2  0  0  0  0
  2  3  1  0  0  0  0
  2  9  1  0  0  0  0
  3  4  1  0  0  0  0
  3 19  1  0  0  0  0
  4  8  1  0  0  0  0
  4  5  2  0  0  0  0
  5  6  1  0  0  0  0
  6  7  2  0  0  0  0
  7  8  1  0  0  0  0
  7 20  1  0  0  0  0
  9 10  1  0  0  0  0
  9 21  1  0  0  0  0
 10 16  1  0  0  0  0
 10 11  1  0  0  0  0
 10 22  1  0  0  0  0
 11 15  1  0  0  0  0
 11 12  1  0  0  0  0
 11 23  1  0  0  0  0
 12 13  1  0  0  0  0
 12 24  1  0  0  0  0
 12 25  1  0  0  0  0
 13 14  1  0  0  0  0
 13 26  1  0  0  0  0
 13 27  1  0  0  0  0
 14 15  1  0  0  0  0
 14 16  1  0  0  0  0
 14 28  1  0  0  0  0
 15 29  1  0  0  0  0
 15 30  1  0  0  0  0
 16 17  1  0  0  0  0
 16 31  1  0  0  0  0
 17 18  1  0  0  0  0
 17 32  1  0  0  0  0
 17 33  1  0  0  0  0
 18 34  1  0  0  0  0
M  END
> <s_m_source_file>
AV-unprocessed.smi

> <i_m_source_file_index>
798

> <i_lp_mmshare_version>
43012

> <i_f3d_flags>
0

> <s_epik_input>
W0NIMl0xW0NIMl1bQ0BASF0oW0NIMl0yKVtDQEBIXShbQ0gyXVtPSF0pW0NAQEhdKFtDQEhdMTIpW05IXUMoPU8pW05IXWMzbm5bY0hdczM=

> <s_epik_cmdline>
J2VwaWtfcHl0aG9uJywgJy1waCcsICc3LjAnLCAnLXRuJywgJzgnLCAnLW1hJywgJzIwMCcsICctbWV0YWxfYmluZGluZycsICctaW1hZScsICc8aW5maWxlLm1hZT4nLCAnLW9tYWUnLCAnPG91dGZpbGUubWFlPic=

> <r_lp_tautomer_probability>
1

> <r_epik_Ionization_Penalty>
0.000329046

> <r_epik_Ionization_Penalty_Charging>
0

> <r_epik_Ionization_Penalty_Neutral>
0.000329046

> <r_epik_State_Penalty>
-0

> <r_epik_Charging_Adjusted_Penalty>
0

> <i_epik_Tot_Q>
0

> <i_epik_Tot_abs_Q>
0

> <r_epik_Metal_State_Penalty>
0.173433

> <b_epik_Metal_Only>
0

> <s_lp_Force_Field>
OPLS_2005

> <r_lp_Energy>
49.2939

> <b_lp_Chiralities_Consistent>
1

> <s_lp_Variant>
AV-unprocessed.smi:798-2

> <Gold.Version>
5.8.1

> <Gold.Id.Protein>
6NUR|6NUR_protein|mol2

> <Gold.PLP.Fitness>
39.5933

> <Gold.PLP.PLP>
-29.9132

> <Gold.PLP.part.hbond>
-6.7709

> <Gold.PLP.part.metal>
0.0000

> <Gold.PLP.part.buried>
0.7534

> <Gold.PLP.part.nonpolar>
-25.1567

> <Gold.PLP.part.repulsive>
1.4638

> <Gold.PLP.ligand.clash>
0.0000

> <Gold.PLP.ligand.torsion>
0.2939

> <Gold.PLP.Chemscore.Hbond>
3.4184

> <Gold.PLP.Chemscore.CHOScore>
0.0000

> <Gold.PLP.Chemscore.Metal>
0.0000

> <Gold.Chemscore.Hbonds>
donor molecule, donor type, donor heavy atom, donor atom, acceptor molecule, acceptor atom, score
      L1  H     3    19       P1 10175  1.00
      L1  H     9    21       P1 10175  0.83
      L1  H    18    34       P1  7948  0.64
      P1  H  7954  7966       L1    18  0.65

> <Gold.PLP.Chemscore.Internal.Correction>
0.0128

> <Gold.Rescore>
     Score         DG    S(hbond)    S(metal)    S(lipo)     H(rot)  DE(clash)    DE(int)     intcor
     15.09     -17.41       2.79        0.00      64.72       1.94       1.85       0.48       ----

> <Gold.Chemscore.Fitness>
15.0855

> <Gold.Chemscore.DG>
-17.4104

> <Gold.Chemscore.ZeroCoef>
-5.4800

> <Gold.Chemscore.Hbond>
2.7949

> <Gold.Chemscore.Metal>
0.0000

> <Gold.Chemscore.Lipo>
64.7218

> <Gold.Chemscore.Internal_Hbond>
0.0000

> <Gold.Chemscore.DEClash>
1.8481

> <Gold.Chemscore.DEInternal>
0.4767

> <Gold.Chemscore.Rot>
1.9442

> <Gold.Chemscore.Internal.Correction>
   9.000000E+99

> <Gold.Chemscore.Hbonds>
donor molecule, donor type, donor heavy atom, donor atom, acceptor molecule, acceptor atom, score
      L1  H     3    19       P1 10175  0.85
      L1  H     9    21       P1 10175  0.78
      L1  H    18    34       P1  7948  0.64
      P1  H  7954  7966       L1    18  0.06

> <Gold.Chemscore.Hbond.Weighted>
-9.3350

> <Gold.Chemscore.Metal.Weighted>
-0.0000

> <Gold.Chemscore.Lipo.Weighted>
-7.5725

> <Gold.Chemscore.Internal_Hbond.Weighted>
0.0000

> <Gold.Chemscore.DEClash.Weighted>
1.8481

> <Gold.Chemscore.DEInternal.Weighted>
0.4767

> <Gold.Chemscore.Rot.Weighted>
4.9771

> <Gold.Chemscore.Internal.Correction.Weighted>
   9.000000E+99

> <Gold.Protein.RotatedTorsions>
[ 6907 6896 6895 6894 ] final  156.65 input  -60.11 | X-H torsion
[ 7974 7965 7964 7962 ] final  137.97 input  175.53 | X-H torsion
[ 8008 7997 7996 7995 ] final -161.98 input   59.86 | X-H torsion
[ 10167 10162 10161 10158 ] final  -97.95 input  -65.29 | X-H torsion
[ 10718 10713 10712 10709 ] final   63.27 input   66.30 | X-H torsion
[ 10763 10752 10751 10750 ] final  172.34 input  -60.55 | X-H torsion
[ 11005 11000 10999 10996 ] final   -0.33 input  -57.11 | X-H torsion

> <Gold.Protein.ActiveResidues>
 VAL166  LYS551  ARG553  GLY616  TRP617  ASP618  TYR619  PRO620  LYS621  CYS622 
 ASP623  PHE694  ASN695  SER759  ASP760  ASP761  ALA762  ILE779  LEU786  VAL792 
 PHE793  MET794  SER795  GLU796  ALA797  LYS798  CYS799  TRP800  GLU811  SER814 

> <Gold.Protein.RotatedAtoms>
  152.0266  133.3920  159.4279 H   0  0  0  0  0  0  0  0  0  0  0  0  # atno 6907 bound_to 6896
  150.6885  134.3567  159.4942 H   0  0  0  0  0  0  0  0  0  0  0  0  # atno 6908 bound_to 6896
  152.1348  134.9107  160.0607 H   0  0  0  0  0  0  0  0  0  0  0  0  # atno 6909 bound_to 6896
  144.9416  139.4924  143.5569 H   0  0  0  0  0  0  0  0  0  0  0  0  # atno 7974 bound_to 7965
  155.8001  140.0890  157.1962 H   0  0  0  0  0  0  0  0  0  0  0  0  # atno 8008 bound_to 7997
  154.3982  140.1474  156.3323 H   0  0  0  0  0  0  0  0  0  0  0  0  # atno 8009 bound_to 7997
  155.8471  140.3436  155.5672 H   0  0  0  0  0  0  0  0  0  0  0  0  # atno 8010 bound_to 7997
  140.2781  143.3300  152.0468 H   0  0  0  0  0  0  0  0  0  0  0  0  # atno 10167 bound_to 10162
  157.5959  130.9096  149.9694 H   0  0  0  0  0  0  0  0  0  0  0  0  # atno 10718 bound_to 10713
  154.4247  135.2758  155.1952 H   0  0  0  0  0  0  0  0  0  0  0  0  # atno 10763 bound_to 10752
  154.3883  135.6072  153.5832 H   0  0  0  0  0  0  0  0  0  0  0  0  # atno 10764 bound_to 10752
  152.9834  135.5897  154.4549 H   0  0  0  0  0  0  0  0  0  0  0  0  # atno 10765 bound_to 10752
  140.6350  133.9540  155.8295 H   0  0  0  0  0  0  0  0  0  0  0  0  # atno 11005 bound_to 11000
  146.3288  139.8440  142.8885 LP  0  0  0  0  0  0  0  0  0  0  0  0  # atno 17320 bound_to 7965
  145.2982  141.0186  143.3624 LP  0  0  0  0  0  0  0  0  0  0  0  0  # atno 17321 bound_to 7965
  139.4970  144.6611  151.6463 LP  0  0  0  0  0  0  0  0  0  0  0  0  # atno 17342 bound_to 10162
  140.5834  143.9905  150.6281 LP  0  0  0  0  0  0  0  0  0  0  0  0  # atno 17343 bound_to 10162
  156.1022  130.3655  150.0198 LP  0  0  0  0  0  0  0  0  0  0  0  0  # atno 17370 bound_to 10713
  156.8311  130.9392  151.3637 LP  0  0  0  0  0  0  0  0  0  0  0  0  # atno 17371 bound_to 10713
  141.0648  134.0293  157.3609 LP  0  0  0  0  0  0  0  0  0  0  0  0  # atno 17394 bound_to 11000
  139.9101  135.0188  156.7656 LP  0  0  0  0  0  0  0  0  0  0  0  0  # atno 17395 bound_to 11000

$$$$
