AV-unprocessed.smi:2741|AV-procd|sdf|10561|dock10
  -GOLD-   2272015 13D 1   1.00000     0.00000
 Structure written by MMmdl.
 39 40  0  0  0  0  0  0  0  0  1 V2000
  150.1811  136.8293  159.7207 O   0  0  0  0  0  0  0  0  0  0  0  0
  149.2459  137.1566  158.9886 C   0  0  0  0  0  0  0  0  0  0  0  0
  147.9034  136.4135  159.0391 C   0  0  0  0  0  0  0  0  0  0  0  0
  147.7182  135.6147  160.2624 N   0  0  0  0  0  0  0  0  0  0  0  0
  147.8587  134.2179  160.1428 C   0  0  0  0  0  0  0  0  0  0  0  0
  147.7084  133.3746  161.1823 C   0  0  0  0  0  0  0  0  0  0  0  0
  147.9145  131.8747  161.0379 C   0  0  0  0  0  0  0  0  0  0  0  0
  146.7799  131.2140  161.2691 F   0  0  0  0  0  0  0  0  0  0  0  0
  148.3142  131.5900  159.7993 F   0  0  0  0  0  0  0  0  0  0  0  0
  148.8405  131.4272  161.8869 F   0  0  0  0  0  0  0  0  0  0  0  0
  147.4229  133.9801  162.4681 C   0  0  0  0  0  0  0  0  0  0  0  0
  147.2857  135.3140  162.5999 C   0  0  0  0  0  0  0  0  0  0  0  0
  147.4250  136.2160  161.4543 C   0  0  0  0  0  0  0  0  0  0  0  0
  147.2905  137.4354  161.5597 O   0  0  0  0  0  0  0  0  0  0  0  0
  149.3140  138.1796  158.1237 N   0  0  0  0  0  0  0  0  0  0  0  0
  150.4732  139.0446  157.9314 C   0  0  0  0  0  0  0  0  0  0  0  0
  150.1865  140.1829  156.9326 C   0  0  1  0  0  0  0  0  0  0  0  0
  150.3530  139.7680  155.4666 C   0  0  0  0  0  0  0  0  0  0  0  0
  149.5218  140.7923  154.6983 C   0  0  0  0  0  0  0  0  0  0  0  0
  148.2862  140.9827  155.5802 C   0  0  2  0  0  0  0  0  0  0  0  0
  147.6907  142.2486  155.3878 O   0  0  0  0  0  0  0  0  0  0  0  0
  148.7669  140.7775  157.0262 C   0  0  0  0  0  0  0  0  0  0  0  0
  147.1050  137.1507  158.9426 H   0  0  0  0  0  0  0  0  0  0  0  0
  147.8106  135.7788  158.1559 H   0  0  0  0  0  0  0  0  0  0  0  0
  148.0924  133.8748  159.1455 H   0  0  0  0  0  0  0  0  0  0  0  0
  147.3116  133.3525  163.3400 H   0  0  0  0  0  0  0  0  0  0  0  0
  147.0690  135.7301  163.5730 H   0  0  0  0  0  0  0  0  0  0  0  0
  148.4989  138.3800  157.5624 H   0  0  0  0  0  0  0  0  0  0  0  0
  150.7968  139.4531  158.8902 H   0  0  0  0  0  0  0  0  0  0  0  0
  151.2953  138.4275  157.5673 H   0  0  0  0  0  0  0  0  0  0  0  0
  150.8937  140.9940  157.1159 H   0  0  0  0  0  0  0  0  0  0  0  0
  151.3968  139.7548  155.1513 H   0  0  0  0  0  0  0  0  0  0  0  0
  149.9429  138.7699  155.3056 H   0  0  0  0  0  0  0  0  0  0  0  0
  150.0816  141.7255  154.6167 H   0  0  0  0  0  0  0  0  0  0  0  0
  149.2715  140.4632  153.6894 H   0  0  0  0  0  0  0  0  0  0  0  0
  147.5532  140.2124  155.3361 H   0  0  0  0  0  0  0  0  0  0  0  0
  148.3415  142.9149  155.5482 H   0  0  0  0  0  0  0  0  0  0  0  0
  148.0820  140.1099  157.5509 H   0  0  0  0  0  0  0  0  0  0  0  0
  148.7928  141.7133  157.5865 H   0  0  0  0  0  0  0  0  0  0  0  0
  1  2  2  0  0  0  0
  2  3  1  0  0  0  0
  2 15  1  0  0  0  0
  3  4  1  0  0  0  0
  3 23  1  0  0  0  0
  3 24  1  0  0  0  0
  4 13  1  0  0  0  0
  4  5  1  0  0  0  0
  5  6  2  0  0  0  0
  5 25  1  0  0  0  0
  6  7  1  0  0  0  0
  6 11  1  0  0  0  0
  7  8  1  0  0  0  0
  7  9  1  0  0  0  0
  7 10  1  0  0  0  0
 11 12  2  0  0  0  0
 11 26  1  0  0  0  0
 12 13  1  0  0  0  0
 12 27  1  0  0  0  0
 13 14  2  0  0  0  0
 15 16  1  0  0  0  0
 15 28  1  0  0  0  0
 16 17  1  0  0  0  0
 16 29  1  0  0  0  0
 16 30  1  0  0  0  0
 17 22  1  0  0  0  0
 17 18  1  0  0  0  0
 17 31  1  0  0  0  0
 18 19  1  0  0  0  0
 18 32  1  0  0  0  0
 18 33  1  0  0  0  0
 19 20  1  0  0  0  0
 19 34  1  0  0  0  0
 19 35  1  0  0  0  0
 20 21  1  0  0  0  0
 20 22  1  0  0  0  0
 20 36  1  0  0  0  0
 21 37  1  0  0  0  0
 22 38  1  0  0  0  0
 22 39  1  0  0  0  0
M  END
> <s_m_source_file>
AV-unprocessed.smi

> <i_m_source_file_index>
2741

> <i_lp_mmshare_version>
43012

> <i_f3d_flags>
0

> <s_epik_input>
W09IXVtDQEBIXShbQ0gyXTEpW0NIMl1bQ0gyXVtDQEhdMVtDSDJdW05IXUMoPU8pW0NIMl1uMltjSF1jKEMoRikoRilGKVtjSF1bY0hdYzI9Tw==

> <s_epik_cmdline>
J2VwaWtfcHl0aG9uJywgJy1waCcsICc3LjAnLCAnLXRuJywgJzgnLCAnLW1hJywgJzIwMCcsICctbWV0YWxfYmluZGluZycsICctaW1hZScsICc8aW5maWxlLm1hZT4nLCAnLW9tYWUnLCAnPG91dGZpbGUubWFlPic=

> <r_lp_tautomer_probability>
1

> <r_epik_Ionization_Penalty>
1.17551e-06

> <r_epik_Ionization_Penalty_Charging>
1.78841e-08

> <r_epik_Ionization_Penalty_Neutral>
1.15762e-06

> <r_epik_State_Penalty>
-0

> <r_epik_Charging_Adjusted_Penalty>
1.78841e-08

> <i_epik_Tot_Q>
0

> <i_epik_Tot_abs_Q>
0

> <r_epik_Metal_State_Penalty>
-0

> <b_epik_Metal_Only>
0

> <s_lp_Force_Field>
OPLS_2005

> <r_lp_Energy>
34.082

> <b_lp_Chiralities_Consistent>
1

> <s_lp_Variant>
AV-unprocessed.smi:2741-4

> <Gold.Version>
5.8.1

> <Gold.Id.Protein>
6NUR|6NUR_protein|mol2

> <Gold.PLP.Fitness>
45.9483

> <Gold.PLP.PLP>
-38.9041

> <Gold.PLP.part.hbond>
-4.0923

> <Gold.PLP.part.metal>
0.0000

> <Gold.PLP.part.buried>
-4.1670

> <Gold.PLP.part.nonpolar>
-30.0638

> <Gold.PLP.part.repulsive>
0.1208

> <Gold.PLP.ligand.clash>
2.1871

> <Gold.PLP.ligand.torsion>
0.7809

> <Gold.PLP.Chemscore.Hbond>
3.5840

> <Gold.PLP.Chemscore.CHOScore>
0.0000

> <Gold.PLP.Chemscore.Metal>
0.0000

> <Gold.Chemscore.Hbonds>
donor molecule, donor type, donor heavy atom, donor atom, acceptor molecule, acceptor atom, score
      L1  H    21    37       P1  8028  1.00
      P1  H  6896  6909       L1     1  1.00
      P1  H  6931  6943       L1    14  0.77
      P1  H  6934  6947       L1    14  0.88

> <Gold.PLP.Chemscore.Internal.Correction>
0.0411

> <Gold.Rescore>
     Score         DG    S(hbond)    S(metal)    S(lipo)     H(rot)  DE(clash)    DE(int)     intcor
     18.07     -18.62       3.60        0.00      63.90       2.48       0.01       0.55       ----

> <Gold.Chemscore.Fitness>
18.0717

> <Gold.Chemscore.DG>
-18.6249

> <Gold.Chemscore.ZeroCoef>
-5.4800

> <Gold.Chemscore.Hbond>
3.5984

> <Gold.Chemscore.Metal>
0.0000

> <Gold.Chemscore.Lipo>
63.9042

> <Gold.Chemscore.Internal_Hbond>
0.0000

> <Gold.Chemscore.DEClash>
0.0073

> <Gold.Chemscore.DEInternal>
0.5459

> <Gold.Chemscore.Rot>
2.4807

> <Gold.Chemscore.Internal.Correction>
   9.000000E+99

> <Gold.Chemscore.Hbonds>
donor molecule, donor type, donor heavy atom, donor atom, acceptor molecule, acceptor atom, score
      L1  H    21    37       P1  8028  0.94
      P1  H  6896  6909       L1     1  0.97
      P1  H  6931  6943       L1    14  0.56
      P1  H  6934  6947       L1    14  0.86

> <Gold.Chemscore.Hbond.Weighted>
-12.0188

> <Gold.Chemscore.Metal.Weighted>
-0.0000

> <Gold.Chemscore.Lipo.Weighted>
-7.4768

> <Gold.Chemscore.Internal_Hbond.Weighted>
0.0000

> <Gold.Chemscore.DEClash.Weighted>
0.0073

> <Gold.Chemscore.DEInternal.Weighted>
0.5459

> <Gold.Chemscore.Rot.Weighted>
6.3507

> <Gold.Chemscore.Internal.Correction.Weighted>
   9.000000E+99

> <Gold.Protein.RotatedTorsions>
[ 6907 6896 6895 6894 ] final   87.35 input  -60.11 | X-H torsion
[ 7974 7965 7964 7962 ] final -159.34 input  175.53 | X-H torsion
[ 8008 7997 7996 7995 ] final -106.38 input   59.86 | X-H torsion
[ 10167 10162 10161 10158 ] final    2.74 input  -65.29 | X-H torsion
[ 10718 10713 10712 10709 ] final  -87.49 input   66.30 | X-H torsion
[ 10763 10752 10751 10750 ] final  -51.65 input  -60.55 | X-H torsion
[ 11005 11000 10999 10996 ] final  -52.19 input  -57.11 | X-H torsion

> <Gold.Protein.ActiveResidues>
 VAL166  LYS551  ARG553  GLY616  TRP617  ASP618  TYR619  PRO620  LYS621  CYS622 
 ASP623  PHE694  ASN695  SER759  ASP760  ASP761  ALA762  ILE779  LEU786  VAL792 
 PHE793  MET794  SER795  GLU796  ALA797  LYS798  CYS799  TRP800  GLU811  SER814 

> <Gold.Protein.RotatedAtoms>
  152.5409  134.2290  159.8817 H   0  0  0  0  0  0  0  0  0  0  0  0  # atno 6907 bound_to 6896
  151.2263  133.4468  159.2610 H   0  0  0  0  0  0  0  0  0  0  0  0  # atno 6908 bound_to 6896
  151.0758  134.9840  159.8387 H   0  0  0  0  0  0  0  0  0  0  0  0  # atno 6909 bound_to 6896
  144.7469  140.3698  143.6078 H   0  0  0  0  0  0  0  0  0  0  0  0  # atno 7974 bound_to 7965
  154.9137  140.0409  157.1960 H   0  0  0  0  0  0  0  0  0  0  0  0  # atno 8008 bound_to 7997
  154.8323  140.2901  155.5693 H   0  0  0  0  0  0  0  0  0  0  0  0  # atno 8009 bound_to 7997
  156.2987  140.2498  156.3250 H   0  0  0  0  0  0  0  0  0  0  0  0  # atno 8010 bound_to 7997
  140.6620  143.7279  150.7756 H   0  0  0  0  0  0  0  0  0  0  0  0  # atno 10167 bound_to 10162
  155.9985  130.4802  150.4875 H   0  0  0  0  0  0  0  0  0  0  0  0  # atno 10718 bound_to 10713
  154.1301  135.6521  153.4920 H   0  0  0  0  0  0  0  0  0  0  0  0  # atno 10763 bound_to 10752
  153.0198  135.5291  154.7010 H   0  0  0  0  0  0  0  0  0  0  0  0  # atno 10764 bound_to 10752
  154.6242  135.2968  155.0262 H   0  0  0  0  0  0  0  0  0  0  0  0  # atno 10765 bound_to 10752
  141.0911  133.6632  156.3987 H   0  0  0  0  0  0  0  0  0  0  0  0  # atno 11005 bound_to 11000
  145.7089  139.1680  143.2550 LP  0  0  0  0  0  0  0  0  0  0  0  0  # atno 17320 bound_to 7965
  146.1361  140.7121  142.9389 LP  0  0  0  0  0  0  0  0  0  0  0  0  # atno 17321 bound_to 7965
  140.0949  143.4842  152.2458 LP  0  0  0  0  0  0  0  0  0  0  0  0  # atno 17342 bound_to 10162
  139.5857  144.7530  151.3527 LP  0  0  0  0  0  0  0  0  0  0  0  0  # atno 17343 bound_to 10162
  157.2874  131.0619  151.2157 LP  0  0  0  0  0  0  0  0  0  0  0  0  # atno 17370 bound_to 10713
  157.3182  130.6923  149.6254 LP  0  0  0  0  0  0  0  0  0  0  0  0  # atno 17371 bound_to 10713
  140.5250  134.6268  157.5331 LP  0  0  0  0  0  0  0  0  0  0  0  0  # atno 17394 bound_to 11000
  139.9737  134.7250  155.9991 LP  0  0  0  0  0  0  0  0  0  0  0  0  # atno 17395 bound_to 11000

$$$$
