AV-unprocessed.smi:2034|AV-procd|sdf|8265|dock1
  -GOLD-   2272010533D 1   1.00000     0.00000
 Structure written by MMmdl.
 50 52  0  0  0  0  0  0  0  0  1 V2000
  153.2546  141.9503  161.0052 C   0  0  0  0  0  0  0  0  0  0  0  0
  152.2780  142.6174  160.0309 C   0  0  2  0  0  0  0  0  0  0  0  0
  151.9090  141.6880  158.8605 C   0  0  0  0  0  0  0  0  0  0  0  0
  151.0705  142.3988  157.9064 N   0  0  0  0  0  0  0  0  0  0  0  0
  150.5578  141.5781  156.8935 C   0  0  0  0  0  0  0  0  0  0  0  0
  151.4073  140.8820  156.0038 C   0  0  0  0  0  0  0  0  0  0  0  0
  150.8255  140.0723  155.0104 C   0  0  0  0  0  0  0  0  0  0  0  0
  149.4216  139.9727  154.9391 C   0  0  0  0  0  0  0  0  0  0  0  0
  148.8609  139.1638  153.9148 N   0  0  0  0  0  0  0  0  0  0  0  0
  147.6176  139.2033  153.4066 C   0  0  0  0  0  0  0  0  0  0  0  0
  146.7162  139.9509  153.7851 O   0  0  0  0  0  0  0  0  0  0  0  0
  147.4650  138.2938  152.4345 N   0  0  0  0  0  0  0  0  0  0  0  0
  146.2260  138.0444  151.7074 C   0  0  0  0  0  0  0  0  0  0  0  0
  145.6448  136.6620  152.0451 C   0  0  1  0  0  0  0  0  0  0  0  0
  144.1356  136.6709  152.2789 C   0  0  0  0  0  0  0  0  0  0  0  0
  143.7716  135.2383  151.9636 C   0  0  0  0  0  0  0  0  0  0  0  0
  144.6876  134.9393  150.7808 C   0  0  0  0  0  0  0  0  0  0  0  0
  145.8421  135.7557  150.9617 O   0  0  0  0  0  0  0  0  0  0  0  0
  148.6595  140.7200  155.8698 C   0  0  0  0  0  0  0  0  0  0  0  0
  149.2117  141.5004  156.8233 N   0  0  0  0  0  0  0  0  0  0  0  0
  151.6995  143.6147  157.4081 C   0  0  0  0  0  0  0  0  0  0  0  0
  152.1092  144.5323  158.5770 C   0  0  1  0  0  0  0  0  0  0  0  0
  150.9191  145.2483  159.2404 C   0  0  0  0  0  0  0  0  0  0  0  0
  152.8955  143.8012  159.5226 O   0  0  0  0  0  0  0  0  0  0  0  0
  152.8256  141.0437  161.4328 H   0  0  0  0  0  0  0  0  0  0  0  0
  153.5020  142.6207  161.8288 H   0  0  0  0  0  0  0  0  0  0  0  0
  154.1852  141.6777  160.5066 H   0  0  0  0  0  0  0  0  0  0  0  0
  151.3774  142.8832  160.5850 H   0  0  0  0  0  0  0  0  0  0  0  0
  152.8140  141.3356  158.3635 H   0  0  0  0  0  0  0  0  0  0  0  0
  151.3799  140.8088  159.2310 H   0  0  0  0  0  0  0  0  0  0  0  0
  152.4817  140.9637  156.0767 H   0  0  0  0  0  0  0  0  0  0  0  0
  151.4529  139.5318  154.3166 H   0  0  0  0  0  0  0  0  0  0  0  0
  149.4608  138.4323  153.5627 H   0  0  0  0  0  0  0  0  0  0  0  0
  148.2564  137.7150  152.1942 H   0  0  0  0  0  0  0  0  0  0  0  0
  145.4981  138.8262  151.9312 H   0  0  0  0  0  0  0  0  0  0  0  0
  146.4344  138.1130  150.6395 H   0  0  0  0  0  0  0  0  0  0  0  0
  146.1350  136.2448  152.9265 H   0  0  0  0  0  0  0  0  0  0  0  0
  143.8639  136.9693  153.2918 H   0  0  0  0  0  0  0  0  0  0  0  0
  143.6393  137.3440  151.5782 H   0  0  0  0  0  0  0  0  0  0  0  0
  144.0229  134.5937  152.8072 H   0  0  0  0  0  0  0  0  0  0  0  0
  142.7151  135.1029  151.7307 H   0  0  0  0  0  0  0  0  0  0  0  0
  144.9520  133.8836  150.7173 H   0  0  0  0  0  0  0  0  0  0  0  0
  144.2065  135.2251  149.8447 H   0  0  0  0  0  0  0  0  0  0  0  0
  147.5808  140.7237  155.8542 H   0  0  0  0  0  0  0  0  0  0  0  0
  152.5852  143.3498  156.8289 H   0  0  0  0  0  0  0  0  0  0  0  0
  151.0217  144.1383  156.7325 H   0  0  0  0  0  0  0  0  0  0  0  0
  152.7602  145.3095  158.1757 H   0  0  0  0  0  0  0  0  0  0  0  0
  150.4108  145.8947  158.5247 H   0  0  0  0  0  0  0  0  0  0  0  0
  151.2534  145.8726  160.0690 H   0  0  0  0  0  0  0  0  0  0  0  0
  150.1775  144.5487  159.6258 H   0  0  0  0  0  0  0  0  0  0  0  0
  1  2  1  0  0  0  0
  1 25  1  0  0  0  0
  1 26  1  0  0  0  0
  1 27  1  0  0  0  0
  2 24  1  0  0  0  0
  2  3  1  0  0  0  0
  2 28  1  0  0  0  0
  3  4  1  0  0  0  0
  3 29  1  0  0  0  0
  3 30  1  0  0  0  0
  4  5  1  0  0  0  0
  4 21  1  0  0  0  0
  5 20  1  0  0  0  0
  5  6  2  0  0  0  0
  6  7  1  0  0  0  0
  6 31  1  0  0  0  0
  7  8  2  0  0  0  0
  7 32  1  0  0  0  0
  8  9  1  0  0  0  0
  8 19  1  0  0  0  0
  9 10  1  0  0  0  0
  9 33  1  0  0  0  0
 10 11  2  0  0  0  0
 10 12  1  0  0  0  0
 12 13  1  0  0  0  0
 12 34  1  0  0  0  0
 13 14  1  0  0  0  0
 13 35  1  0  0  0  0
 13 36  1  0  0  0  0
 14 18  1  0  0  0  0
 14 15  1  0  0  0  0
 14 37  1  0  0  0  0
 15 16  1  0  0  0  0
 15 38  1  0  0  0  0
 15 39  1  0  0  0  0
 16 17  1  0  0  0  0
 16 40  1  0  0  0  0
 16 41  1  0  0  0  0
 17 18  1  0  0  0  0
 17 42  1  0  0  0  0
 17 43  1  0  0  0  0
 19 20  2  0  0  0  0
 19 44  1  0  0  0  0
 21 22  1  0  0  0  0
 21 45  1  0  0  0  0
 21 46  1  0  0  0  0
 22 23  1  0  0  0  0
 22 24  1  0  0  0  0
 22 47  1  0  0  0  0
 23 48  1  0  0  0  0
 23 49  1  0  0  0  0
 23 50  1  0  0  0  0
M  END
> <s_m_source_file>
AV-unprocessed.smi

> <i_m_source_file_index>
2034

> <i_lp_mmshare_version>
43012

> <i_f3d_flags>
0

> <s_epik_input>
W0NIM11bQ0BASF0xW0NIMl1OKFtDSDJdW0NASF0oTzEpW0NIM10pYzJbY0hdW2NIXWMoW2NIXW4yKVtOSF1DKD1PKVtOSF1bQ0gyXVtDQEBIXTNbQ0gyXVtDSDJdW0NIMl1PMw==

> <s_epik_cmdline>
J2VwaWtfcHl0aG9uJywgJy1waCcsICc3LjAnLCAnLXRuJywgJzgnLCAnLW1hJywgJzIwMCcsICctbWV0YWxfYmluZGluZycsICctaW1hZScsICc8aW5maWxlLm1hZT4nLCAnLW9tYWUnLCAnPG91dGZpbGUubWFlPic=

> <r_lp_tautomer_probability>
1

> <r_epik_Ionization_Penalty>
0.00268225

> <r_epik_Ionization_Penalty_Charging>
0

> <r_epik_Ionization_Penalty_Neutral>
0.00268225

> <r_epik_State_Penalty>
0.00184408

> <r_epik_Charging_Adjusted_Penalty>
0.00184408

> <i_epik_Tot_Q>
0

> <i_epik_Tot_abs_Q>
0

> <r_epik_Metal_State_Penalty>
-0

> <b_epik_Metal_Only>
0

> <s_lp_Force_Field>
OPLS_2005

> <r_lp_Energy>
37.53

> <b_lp_Chiralities_Consistent>
1

> <s_lp_Variant>
AV-unprocessed.smi:2034-3

> <Gold.Version>
5.8.1

> <Gold.Id.Protein>
6NUR|6NUR_protein|mol2

> <Gold.PLP.Fitness>
48.9530

> <Gold.PLP.PLP>
-47.5085

> <Gold.PLP.part.hbond>
-3.0000

> <Gold.PLP.part.metal>
0.0000

> <Gold.PLP.part.buried>
-2.1077

> <Gold.PLP.part.nonpolar>
-42.7745

> <Gold.PLP.part.repulsive>
0.7112

> <Gold.PLP.ligand.clash>
0.0000

> <Gold.PLP.ligand.torsion>
0.8436

> <Gold.PLP.Chemscore.Hbond>
1.0000

> <Gold.PLP.Chemscore.CHOScore>
0.0000

> <Gold.PLP.Chemscore.Metal>
0.0000

> <Gold.Chemscore.Hbonds>
donor molecule, donor type, donor heavy atom, donor atom, acceptor molecule, acceptor atom, score
      L1  H    12    34       P1  7948  1.00

> <Gold.PLP.Chemscore.Internal.Correction>
0.1316

> <Gold.Rescore>
     Score         DG    S(hbond)    S(metal)    S(lipo)     H(rot)  DE(clash)    DE(int)     intcor
     16.73     -18.71       0.98        0.00     115.16       1.37       0.02       1.97       ----

> <Gold.Chemscore.Fitness>
16.7261

> <Gold.Chemscore.DG>
-18.7141

> <Gold.Chemscore.ZeroCoef>
-5.4800

> <Gold.Chemscore.Hbond>
0.9755

> <Gold.Chemscore.Metal>
0.0000

> <Gold.Chemscore.Lipo>
115.1597

> <Gold.Chemscore.Internal_Hbond>
0.0000

> <Gold.Chemscore.DEClash>
0.0196

> <Gold.Chemscore.DEInternal>
1.9684

> <Gold.Chemscore.Rot>
1.3663

> <Gold.Chemscore.Internal.Correction>
   9.000000E+99

> <Gold.Chemscore.Hbonds>
donor molecule, donor type, donor heavy atom, donor atom, acceptor molecule, acceptor atom, score
      L1  H    12    34       P1  7948  0.97

> <Gold.Chemscore.Hbond.Weighted>
-3.2581

> <Gold.Chemscore.Metal.Weighted>
-0.0000

> <Gold.Chemscore.Lipo.Weighted>
-13.4737

> <Gold.Chemscore.Internal_Hbond.Weighted>
0.0000

> <Gold.Chemscore.DEClash.Weighted>
0.0196

> <Gold.Chemscore.DEInternal.Weighted>
1.9684

> <Gold.Chemscore.Rot.Weighted>
3.4977

> <Gold.Chemscore.Internal.Correction.Weighted>
   9.000000E+99

> <Gold.Protein.RotatedTorsions>
[ 6907 6896 6895 6894 ] final   55.56 input  -60.11 | X-H torsion
[ 7974 7965 7964 7962 ] final  106.03 input  175.53 | X-H torsion
[ 8008 7997 7996 7995 ] final   24.16 input   59.86 | X-H torsion
[ 10167 10162 10161 10158 ] final  -17.20 input  -65.29 | X-H torsion
[ 10718 10713 10712 10709 ] final   96.30 input   66.30 | X-H torsion
[ 10763 10752 10751 10750 ] final -122.55 input  -60.55 | X-H torsion
[ 11005 11000 10999 10996 ] final   42.77 input  -57.11 | X-H torsion

> <Gold.Protein.ActiveResidues>
 VAL166  LYS551  ARG553  GLY616  TRP617  ASP618  TYR619  PRO620  LYS621  CYS622 
 ASP623  PHE694  ASN695  SER759  ASP760  ASP761  ALA762  ILE779  LEU786  VAL792 
 PHE793  MET794  SER795  GLU796  ALA797  LYS798  CYS799  TRP800  GLU811  SER814 

> <Gold.Protein.RotatedAtoms>
  152.3550  134.6952  160.0224 H   0  0  0  0  0  0  0  0  0  0  0  0  # atno 6907 bound_to 6896
  151.7294  133.3312  159.3344 H   0  0  0  0  0  0  0  0  0  0  0  0  # atno 6908 bound_to 6896
  150.7566  134.6311  159.6231 H   0  0  0  0  0  0  0  0  0  0  0  0  # atno 6909 bound_to 6896
  145.3120  139.2537  143.3758 H   0  0  0  0  0  0  0  0  0  0  0  0  # atno 7974 bound_to 7965
  154.9921  140.3115  155.4902 H   0  0  0  0  0  0  0  0  0  0  0  0  # atno 8008 bound_to 7997
  156.2938  140.2247  156.4966 H   0  0  0  0  0  0  0  0  0  0  0  0  # atno 8009 bound_to 7997
  154.7694  140.0453  157.1027 H   0  0  0  0  0  0  0  0  0  0  0  0  # atno 8010 bound_to 7997
  140.7244  143.5039  150.9834 H   0  0  0  0  0  0  0  0  0  0  0  0  # atno 10167 bound_to 10162
  157.6928  131.0573  150.4470 H   0  0  0  0  0  0  0  0  0  0  0  0  # atno 10718 bound_to 10713
  154.8691  135.4129  154.2800 H   0  0  0  0  0  0  0  0  0  0  0  0  # atno 10763 bound_to 10752
  153.3695  135.7007  153.6654 H   0  0  0  0  0  0  0  0  0  0  0  0  # atno 10764 bound_to 10752
  153.5522  135.3626  155.2736 H   0  0  0  0  0  0  0  0  0  0  0  0  # atno 10765 bound_to 10752
  140.1708  134.4224  155.8258 H   0  0  0  0  0  0  0  0  0  0  0  0  # atno 11005 bound_to 11000
  146.3114  140.3658  142.8669 LP  0  0  0  0  0  0  0  0  0  0  0  0  # atno 17320 bound_to 7965
  144.9008  140.7640  143.5868 LP  0  0  0  0  0  0  0  0  0  0  0  0  # atno 17321 bound_to 7965
  139.8750  143.7144  152.3163 LP  0  0  0  0  0  0  0  0  0  0  0  0  # atno 17342 bound_to 10162
  139.7406  144.7560  151.0658 LP  0  0  0  0  0  0  0  0  0  0  0  0  # atno 17343 bound_to 10162
  156.4824  130.4077  149.6453 LP  0  0  0  0  0  0  0  0  0  0  0  0  # atno 17370 bound_to 10713
  156.3494  130.7424  151.2381 LP  0  0  0  0  0  0  0  0  0  0  0  0  # atno 17371 bound_to 10713
  141.2217  133.6955  156.7760 LP  0  0  0  0  0  0  0  0  0  0  0  0  # atno 17394 bound_to 11000
  140.2380  134.8635  157.3544 LP  0  0  0  0  0  0  0  0  0  0  0  0  # atno 17395 bound_to 11000

$$$$
