AV-unprocessed.smi:411|AV-procd|sdf|2508|dock1
  -GOLD-   2262022453D 1   1.00000     0.00000
 Structure written by MMmdl.
 35 36  0  0  0  0  0  0  0  0  1 V2000
  151.0205  140.7898  157.9711 O   0  0  0  0  0  0  0  0  0  0  0  0
  150.8534  141.9489  157.5935 C   0  0  0  0  0  0  0  0  0  0  0  0
  151.7003  143.0696  158.2220 C   0  0  0  0  0  0  0  0  0  0  0  0
  152.2875  142.7421  159.5350 N   0  0  0  0  0  0  0  0  0  0  0  0
  151.9199  143.5626  160.6162 C   0  0  0  0  0  0  0  0  0  0  0  0
  152.3844  143.3483  161.8544 C   0  0  0  0  0  0  0  0  0  0  0  0
  153.2862  142.2418  162.0627 C   0  0  0  0  0  0  0  0  0  0  0  0
  153.6541  141.4316  161.0432 C   0  0  0  0  0  0  0  0  0  0  0  0
  154.6074  140.2565  161.2457 C   0  0  0  0  0  0  0  0  0  0  0  0
  154.0107  139.1103  160.9167 F   0  0  0  0  0  0  0  0  0  0  0  0
  155.6933  140.3945  160.4840 F   0  0  0  0  0  0  0  0  0  0  0  0
  155.0096  140.1580  162.5137 F   0  0  0  0  0  0  0  0  0  0  0  0
  153.1330  141.6750  159.6825 C   0  0  0  0  0  0  0  0  0  0  0  0
  153.4278  140.9575  158.7253 O   0  0  0  0  0  0  0  0  0  0  0  0
  149.9587  142.2825  156.6478 N   0  0  0  0  0  0  0  0  0  0  0  0
  149.0723  141.3550  155.9555 C   0  0  2  0  0  0  0  0  0  0  0  0
  149.2855  141.3788  154.4280 C   0  0  0  0  0  0  0  0  0  0  0  0
  148.0883  140.6983  153.7539 C   0  0  0  0  0  0  0  0  0  0  0  0
  146.6456  141.0123  154.8399 S   0  0  0  0  0  0  0  0  0  0  0  0
  145.8110  142.0737  154.2567 O   0  0  0  0  0  0  0  0  0  0  0  0
  146.0613  139.7237  155.2414 O   0  0  0  0  0  0  0  0  0  0  0  0
  147.6051  141.7084  156.2365 C   0  0  0  0  0  0  0  0  0  0  0  0
  152.4829  143.3494  157.5146 H   0  0  0  0  0  0  0  0  0  0  0  0
  151.0718  143.9573  158.3049 H   0  0  0  0  0  0  0  0  0  0  0  0
  151.2363  144.3641  160.3760 H   0  0  0  0  0  0  0  0  0  0  0  0
  152.0890  143.9849  162.6756 H   0  0  0  0  0  0  0  0  0  0  0  0
  153.6648  142.0700  163.0594 H   0  0  0  0  0  0  0  0  0  0  0  0
  149.8856  143.2566  156.3925 H   0  0  0  0  0  0  0  0  0  0  0  0
  149.2496  140.3398  156.3158 H   0  0  0  0  0  0  0  0  0  0  0  0
  149.3337  142.4147  154.0889 H   0  0  0  0  0  0  0  0  0  0  0  0
  150.2252  140.9066  154.1397 H   0  0  0  0  0  0  0  0  0  0  0  0
  147.8947  141.0749  152.7494 H   0  0  0  0  0  0  0  0  0  0  0  0
  148.2382  139.6198  153.6990 H   0  0  0  0  0  0  0  0  0  0  0  0
  147.2423  141.3034  157.1815 H   0  0  0  0  0  0  0  0  0  0  0  0
  147.4493  142.7878  156.2378 H   0  0  0  0  0  0  0  0  0  0  0  0
  1  2  2  0  0  0  0
  2  3  1  0  0  0  0
  2 15  1  0  0  0  0
  3  4  1  0  0  0  0
  3 23  1  0  0  0  0
  3 24  1  0  0  0  0
  4 13  1  0  0  0  0
  4  5  1  0  0  0  0
  5  6  2  0  0  0  0
  5 25  1  0  0  0  0
  6  7  1  0  0  0  0
  6 26  1  0  0  0  0
  7  8  2  0  0  0  0
  7 27  1  0  0  0  0
  8  9  1  0  0  0  0
  8 13  1  0  0  0  0
  9 10  1  0  0  0  0
  9 11  1  0  0  0  0
  9 12  1  0  0  0  0
 13 14  2  0  0  0  0
 15 16  1  0  0  0  0
 15 28  1  0  0  0  0
 16 22  1  0  0  0  0
 16 17  1  0  0  0  0
 16 29  1  0  0  0  0
 17 18  1  0  0  0  0
 17 30  1  0  0  0  0
 17 31  1  0  0  0  0
 18 19  1  0  0  0  0
 18 32  1  0  0  0  0
 18 33  1  0  0  0  0
 19 20  2  0  0  0  0
 19 21  2  0  0  0  0
 19 22  1  0  0  0  0
 22 34  1  0  0  0  0
 22 35  1  0  0  0  0
M  END
> <s_m_source_file>
AV-unprocessed.smi

> <i_m_source_file_index>
411

> <i_lp_mmshare_version>
43012

> <i_f3d_flags>
0

> <s_epik_input>
Tz1TMSg9TylbQ0gyXVtDSDJdW0NASF0oW0NIMl0xKVtOSF1DKD1PKVtDSDJdbjJbY0hdW2NIXVtjSF1jKEMoRikoRilGKWMyPU8=

> <s_epik_cmdline>
J2VwaWtfcHl0aG9uJywgJy1waCcsICc3LjAnLCAnLXRuJywgJzgnLCAnLW1hJywgJzIwMCcsICctbWV0YWxfYmluZGluZycsICctaW1hZScsICc8aW5maWxlLm1hZT4nLCAnLW9tYWUnLCAnPG91dGZpbGUubWFlPic=

> <r_lp_tautomer_probability>
1

> <r_epik_Ionization_Penalty>
1.08759e-07

> <r_epik_Ionization_Penalty_Charging>
1.56656e-09

> <r_epik_Ionization_Penalty_Neutral>
1.07193e-07

> <r_epik_State_Penalty>
-0

> <r_epik_Charging_Adjusted_Penalty>
1.56656e-09

> <i_epik_Tot_Q>
0

> <i_epik_Tot_abs_Q>
0

> <r_epik_Metal_State_Penalty>
-0

> <b_epik_Metal_Only>
0

> <s_lp_Force_Field>
OPLS_2005

> <r_lp_Energy>
11.8943

> <b_lp_Chiralities_Consistent>
1

> <s_lp_Variant>
AV-unprocessed.smi:411-1

> <Gold.Version>
5.8.1

> <Gold.Id.Protein>
6NUR|6NUR_protein|mol2

> <Gold.PLP.Fitness>
48.6204

> <Gold.PLP.PLP>
-45.0117

> <Gold.PLP.part.hbond>
-2.0000

> <Gold.PLP.part.metal>
0.0000

> <Gold.PLP.part.buried>
-1.8842

> <Gold.PLP.part.nonpolar>
-40.8831

> <Gold.PLP.part.repulsive>
0.3081

> <Gold.PLP.ligand.clash>
0.3104

> <Gold.PLP.ligand.torsion>
0.2987

> <Gold.PLP.Chemscore.Hbond>
1.3960

> <Gold.PLP.Chemscore.CHOScore>
0.0000

> <Gold.PLP.Chemscore.Metal>
0.0000

> <Gold.Chemscore.Hbonds>
donor molecule, donor type, donor heavy atom, donor atom, acceptor molecule, acceptor atom, score
      L1  H    15    28       P1  8028  1.00
      P1  H  7997  8010       L1    14  0.29

> <Gold.PLP.Chemscore.Internal.Correction>
0.3284

> <Gold.Rescore>
     Score         DG    S(hbond)    S(metal)    S(lipo)     H(rot)  DE(clash)    DE(int)     intcor
     10.89     -16.14       1.61        0.00      82.96       1.73       0.38       4.86       ----

> <Gold.Chemscore.Fitness>
10.8923

> <Gold.Chemscore.DG>
-16.1364

> <Gold.Chemscore.ZeroCoef>
-5.4800

> <Gold.Chemscore.Hbond>
1.6116

> <Gold.Chemscore.Metal>
0.0000

> <Gold.Chemscore.Lipo>
82.9567

> <Gold.Chemscore.Internal_Hbond>
0.0000

> <Gold.Chemscore.DEClash>
0.3808

> <Gold.Chemscore.DEInternal>
4.8632

> <Gold.Chemscore.Rot>
1.7314

> <Gold.Chemscore.Internal.Correction>
   9.000000E+99

> <Gold.Chemscore.Hbonds>
donor molecule, donor type, donor heavy atom, donor atom, acceptor molecule, acceptor atom, score
      L1  H    15    28       P1  8028  0.95
      P1  H  7997  8010       L1    14  0.29

> <Gold.Chemscore.Hbond.Weighted>
-5.3828

> <Gold.Chemscore.Metal.Weighted>
-0.0000

> <Gold.Chemscore.Lipo.Weighted>
-9.7059

> <Gold.Chemscore.Internal_Hbond.Weighted>
0.0000

> <Gold.Chemscore.DEClash.Weighted>
0.3808

> <Gold.Chemscore.DEInternal.Weighted>
4.8632

> <Gold.Chemscore.Rot.Weighted>
4.4324

> <Gold.Chemscore.Internal.Correction.Weighted>
   9.000000E+99

> <Gold.Protein.RotatedTorsions>
[ 6907 6896 6895 6894 ] final  -50.98 input  -60.11 | X-H torsion
[ 7974 7965 7964 7962 ] final -104.67 input  175.53 | X-H torsion
[ 8008 7997 7996 7995 ] final   26.43 input   59.86 | X-H torsion
[ 10167 10162 10161 10158 ] final -109.90 input  -65.29 | X-H torsion
[ 10718 10713 10712 10709 ] final -129.78 input   66.30 | X-H torsion
[ 10763 10752 10751 10750 ] final  142.85 input  -60.55 | X-H torsion
[ 11005 11000 10999 10996 ] final   31.61 input  -57.11 | X-H torsion

> <Gold.Protein.ActiveResidues>
 VAL166  LYS551  ARG553  GLY616  TRP617  ASP618  TYR619  PRO620  LYS621  CYS622 
 ASP623  PHE694  ASN695  SER759  ASP760  ASP761  ALA762  ILE779  LEU786  VAL792 
 PHE793  MET794  SER795  GLU796  ALA797  LYS798  CYS799  TRP800  GLU811  SER814 

> <Gold.Protein.RotatedAtoms>
  150.8655  134.8017  159.7115 H   0  0  0  0  0  0  0  0  0  0  0  0  # atno 6907 bound_to 6896
  152.4678  134.5031  159.9740 H   0  0  0  0  0  0  0  0  0  0  0  0  # atno 6908 bound_to 6896
  151.5128  133.3443  159.2923 H   0  0  0  0  0  0  0  0  0  0  0  0  # atno 6909 bound_to 6896
  145.2402  140.9202  143.3154 H   0  0  0  0  0  0  0  0  0  0  0  0  # atno 7974 bound_to 7965
  155.0272  140.3154  155.4772 H   0  0  0  0  0  0  0  0  0  0  0  0  # atno 8008 bound_to 7997
  156.2881  140.2187  156.5334 H   0  0  0  0  0  0  0  0  0  0  0  0  # atno 8009 bound_to 7997
  154.7401  140.0474  157.0792 H   0  0  0  0  0  0  0  0  0  0  0  0  # atno 8010 bound_to 7997
  140.1503  143.4205  152.1500 H   0  0  0  0  0  0  0  0  0  0  0  0  # atno 10167 bound_to 10162
  156.2080  130.6900  151.0617 H   0  0  0  0  0  0  0  0  0  0  0  0  # atno 10718 bound_to 10713
  153.9626  135.2958  155.3432 H   0  0  0  0  0  0  0  0  0  0  0  0  # atno 10763 bound_to 10752
  154.7366  135.5044  153.9055 H   0  0  0  0  0  0  0  0  0  0  0  0  # atno 10764 bound_to 10752
  153.0939  135.6715  153.9911 H   0  0  0  0  0  0  0  0  0  0  0  0  # atno 10765 bound_to 10752
  140.2821  134.2961  155.7798 H   0  0  0  0  0  0  0  0  0  0  0  0  # atno 11005 bound_to 11000
  144.9596  139.3994  143.6362 LP  0  0  0  0  0  0  0  0  0  0  0  0  # atno 17320 bound_to 7965
  146.3330  139.8643  142.8851 LP  0  0  0  0  0  0  0  0  0  0  0  0  # atno 17321 bound_to 7965
  139.5429  144.7273  151.4675 LP  0  0  0  0  0  0  0  0  0  0  0  0  # atno 17342 bound_to 10162
  140.6707  143.8301  150.6995 LP  0  0  0  0  0  0  0  0  0  0  0  0  # atno 17343 bound_to 10162
  157.7023  131.0771  150.6780 LP  0  0  0  0  0  0  0  0  0  0  0  0  # atno 17370 bound_to 10713
  156.6839  130.4575  149.5619 LP  0  0  0  0  0  0  0  0  0  0  0  0  # atno 17371 bound_to 10713
  141.2161  133.7532  156.9496 LP  0  0  0  0  0  0  0  0  0  0  0  0  # atno 17394 bound_to 11000
  140.1274  134.9378  157.2289 LP  0  0  0  0  0  0  0  0  0  0  0  0  # atno 17395 bound_to 11000

$$$$
