AV-unprocessed.smi:2306|AV-procd|sdf|9248|dock10
  -GOLD-   2272012463D 1   1.00000     0.00000
 Structure written by MMmdl.
 41 42  0  0  0  0  0  0  0  0  1 V2000
  151.6584  144.2198  159.8883 C   0  0  0  0  0  0  0  0  0  0  0  0
  152.0476  142.7955  159.5345 C   0  0  0  0  0  0  0  0  0  0  0  0
  151.6807  142.3695  158.2544 N   0  0  0  0  0  0  0  0  0  0  0  0
  151.9597  141.1668  157.8704 C   0  0  0  0  0  0  0  0  0  0  0  0
  152.6286  140.2618  158.7098 N   0  0  0  0  0  0  0  0  0  0  0  0
  152.8846  138.9240  158.1534 C   0  0  0  0  0  0  0  0  0  0  0  0
  152.1062  137.8235  158.9113 C   0  0  2  0  0  0  0  0  0  0  0  0
  152.7511  136.5827  158.7058 O   0  0  0  0  0  0  0  0  0  0  0  0
  150.6630  137.6790  158.4057 C   0  0  0  0  0  0  0  0  0  0  0  0
  150.0670  136.5747  159.0650 O   0  0  0  0  0  0  0  0  0  0  0  0
  148.6841  136.7540  159.3206 C   0  0  0  0  0  0  0  0  0  0  0  0
  148.1444  135.7286  160.3012 C   0  0  0  0  0  0  0  0  0  0  0  0
  147.9449  134.3875  159.9059 C   0  0  0  0  0  0  0  0  0  0  0  0
  147.4293  133.4485  160.8205 C   0  0  0  0  0  0  0  0  0  0  0  0
  147.1045  133.8460  162.1317 C   0  0  0  0  0  0  0  0  0  0  0  0
  147.2929  135.1842  162.5275 C   0  0  0  0  0  0  0  0  0  0  0  0
  147.8090  136.1237  161.6135 C   0  0  0  0  0  0  0  0  0  0  0  0
  153.0407  140.6015  159.9657 C   0  0  0  0  0  0  0  0  0  0  0  0
  153.6513  139.8070  160.6838 O   0  0  0  0  0  0  0  0  0  0  0  0
  152.7085  141.9706  160.3921 C   0  0  0  0  0  0  0  0  0  0  0  0
  153.1293  142.3781  161.7986 C   0  0  0  0  0  0  0  0  0  0  0  0
  152.5455  144.8151  160.1060 H   0  0  0  0  0  0  0  0  0  0  0  0
  151.0064  144.2318  160.7620 H   0  0  0  0  0  0  0  0  0  0  0  0
  151.1258  144.7023  159.0677 H   0  0  0  0  0  0  0  0  0  0  0  0
  151.6988  140.7862  156.8814 H   0  0  0  0  0  0  0  0  0  0  0  0
  152.5853  138.9322  157.1036 H   0  0  0  0  0  0  0  0  0  0  0  0
  153.9507  138.6892  158.1141 H   0  0  0  0  0  0  0  0  0  0  0  0
  152.0805  138.0235  159.9835 H   0  0  0  0  0  0  0  0  0  0  0  0
  152.6873  136.0750  159.5003 H   0  0  0  0  0  0  0  0  0  0  0  0
  150.0947  138.5918  158.5919 H   0  0  0  0  0  0  0  0  0  0  0  0
  150.6574  137.5001  157.3290 H   0  0  0  0  0  0  0  0  0  0  0  0
  148.5139  137.7548  159.7211 H   0  0  0  0  0  0  0  0  0  0  0  0
  148.1194  136.6728  158.3907 H   0  0  0  0  0  0  0  0  0  0  0  0
  148.1854  134.0707  158.9014 H   0  0  0  0  0  0  0  0  0  0  0  0
  147.2814  132.4232  160.5146 H   0  0  0  0  0  0  0  0  0  0  0  0
  146.7083  133.1257  162.8322 H   0  0  0  0  0  0  0  0  0  0  0  0
  147.0404  135.4904  163.5319 H   0  0  0  0  0  0  0  0  0  0  0  0
  147.9475  137.1492  161.9234 H   0  0  0  0  0  0  0  0  0  0  0  0
  152.6295  141.7490  162.5357 H   0  0  0  0  0  0  0  0  0  0  0  0
  152.8915  143.4138  162.0353 H   0  0  0  0  0  0  0  0  0  0  0  0
  154.2057  142.2539  161.9215 H   0  0  0  0  0  0  0  0  0  0  0  0
  1  2  1  0  0  0  0
  1 22  1  0  0  0  0
  1 23  1  0  0  0  0
  1 24  1  0  0  0  0
  2 20  2  0  0  0  0
  2  3  1  0  0  0  0
  3  4  2  0  0  0  0
  4  5  1  0  0  0  0
  4 25  1  0  0  0  0
  5  6  1  0  0  0  0
  5 18  1  0  0  0  0
  6  7  1  0  0  0  0
  6 26  1  0  0  0  0
  6 27  1  0  0  0  0
  7  8  1  0  0  0  0
  7  9  1  0  0  0  0
  7 28  1  0  0  0  0
  8 29  1  0  0  0  0
  9 10  1  0  0  0  0
  9 30  1  0  0  0  0
  9 31  1  0  0  0  0
 10 11  1  0  0  0  0
 11 12  1  0  0  0  0
 11 32  1  0  0  0  0
 11 33  1  0  0  0  0
 12 17  1  0  0  0  0
 12 13  2  0  0  0  0
 13 14  1  0  0  0  0
 13 34  1  0  0  0  0
 14 15  2  0  0  0  0
 14 35  1  0  0  0  0
 15 16  1  0  0  0  0
 15 36  1  0  0  0  0
 16 17  2  0  0  0  0
 16 37  1  0  0  0  0
 17 38  1  0  0  0  0
 18 19  2  0  0  0  0
 18 20  1  0  0  0  0
 20 21  1  0  0  0  0
 21 39  1  0  0  0  0
 21 40  1  0  0  0  0
 21 41  1  0  0  0  0
M  END
> <s_m_source_file>
AV-unprocessed.smi

> <i_m_source_file_index>
2306

> <i_lp_mmshare_version>
43012

> <i_f3d_flags>
0

> <s_epik_input>
W0NIM11jMW5bY0hdbihjKD1PKWMxW0NIM10pW0NIMl1bQ0BIXShbT0hdKVtDSDJdT1tDSDJdYzJbY0hdW2NIXVtjSF1bY0hdW2NIXTI=

> <s_epik_cmdline>
J2VwaWtfcHl0aG9uJywgJy1waCcsICc3LjAnLCAnLXRuJywgJzgnLCAnLW1hJywgJzIwMCcsICctbWV0YWxfYmluZGluZycsICctaW1hZScsICc8aW5maWxlLm1hZT4nLCAnLW9tYWUnLCAnPG91dGZpbGUubWFlPic=

> <r_lp_tautomer_probability>
1

> <r_epik_Ionization_Penalty>
5.35985e-05

> <r_epik_Ionization_Penalty_Charging>
1.17753e-07

> <r_epik_Ionization_Penalty_Neutral>
5.34808e-05

> <r_epik_State_Penalty>
-0

> <r_epik_Charging_Adjusted_Penalty>
1.17753e-07

> <i_epik_Tot_Q>
0

> <i_epik_Tot_abs_Q>
0

> <r_epik_Metal_State_Penalty>
-0

> <b_epik_Metal_Only>
0

> <s_lp_Force_Field>
OPLS_2005

> <r_lp_Energy>
22.2439

> <b_lp_Chiralities_Consistent>
1

> <s_lp_Variant>
AV-unprocessed.smi:2306-1

> <Gold.Version>
5.8.1

> <Gold.Id.Protein>
6NUR|6NUR_protein|mol2

> <Gold.PLP.Fitness>
50.9368

> <Gold.PLP.PLP>
-49.2485

> <Gold.PLP.part.hbond>
-2.0000

> <Gold.PLP.part.metal>
0.0000

> <Gold.PLP.part.buried>
-5.9058

> <Gold.PLP.part.nonpolar>
-41.2623

> <Gold.PLP.part.repulsive>
0.0111

> <Gold.PLP.ligand.clash>
0.0000

> <Gold.PLP.ligand.torsion>
0.7103

> <Gold.PLP.Chemscore.Hbond>
1.0000

> <Gold.PLP.Chemscore.CHOScore>
0.0000

> <Gold.PLP.Chemscore.Metal>
0.0000

> <Gold.Chemscore.Hbonds>
donor molecule, donor type, donor heavy atom, donor atom, acceptor molecule, acceptor atom, score
      P1  H  6896  6908       L1    10  1.00

> <Gold.PLP.Chemscore.Internal.Correction>
0.1089

> <Gold.Rescore>
     Score         DG    S(hbond)    S(metal)    S(lipo)     H(rot)  DE(clash)    DE(int)     intcor
     14.85     -15.50       0.99        0.00     112.49       2.52       0.10       0.55       ----

> <Gold.Chemscore.Fitness>
14.8500

> <Gold.Chemscore.DG>
-15.4976

> <Gold.Chemscore.ZeroCoef>
-5.4800

> <Gold.Chemscore.Hbond>
0.9872

> <Gold.Chemscore.Metal>
0.0000

> <Gold.Chemscore.Lipo>
112.4930

> <Gold.Chemscore.Internal_Hbond>
0.0000

> <Gold.Chemscore.DEClash>
0.1013

> <Gold.Chemscore.DEInternal>
0.5463

> <Gold.Chemscore.Rot>
2.5162

> <Gold.Chemscore.Internal.Correction>
   9.000000E+99

> <Gold.Chemscore.Hbonds>
donor molecule, donor type, donor heavy atom, donor atom, acceptor molecule, acceptor atom, score
      P1  H  6896  6908       L1    10  0.88

> <Gold.Chemscore.Hbond.Weighted>
-3.2973

> <Gold.Chemscore.Metal.Weighted>
-0.0000

> <Gold.Chemscore.Lipo.Weighted>
-13.1617

> <Gold.Chemscore.Internal_Hbond.Weighted>
0.0000

> <Gold.Chemscore.DEClash.Weighted>
0.1013

> <Gold.Chemscore.DEInternal.Weighted>
0.5463

> <Gold.Chemscore.Rot.Weighted>
6.4414

> <Gold.Chemscore.Internal.Correction.Weighted>
   9.000000E+99

> <Gold.Protein.RotatedTorsions>
[ 6907 6896 6895 6894 ] final -172.55 input  -60.11 | X-H torsion
[ 7974 7965 7964 7962 ] final -158.27 input  175.53 | X-H torsion
[ 8008 7997 7996 7995 ] final -145.27 input   59.86 | X-H torsion
[ 10167 10162 10161 10158 ] final   27.74 input  -65.29 | X-H torsion
[ 10718 10713 10712 10709 ] final  -76.68 input   66.30 | X-H torsion
[ 10763 10752 10751 10750 ] final  100.73 input  -60.55 | X-H torsion
[ 11005 11000 10999 10996 ] final  -20.99 input  -57.11 | X-H torsion

> <Gold.Protein.ActiveResidues>
 VAL166  LYS551  ARG553  GLY616  TRP617  ASP618  TYR619  PRO620  LYS621  CYS622 
 ASP623  PHE694  ASN695  SER759  ASP760  ASP761  ALA762  ILE779  LEU786  VAL792 
 PHE793  MET794  SER795  GLU796  ALA797  LYS798  CYS799  TRP800  GLU811  SER814 

> <Gold.Protein.RotatedAtoms>
  151.5419  133.3431  159.2936 H   0  0  0  0  0  0  0  0  0  0  0  0  # atno 6907 bound_to 6896
  150.8531  134.7864  159.7035 H   0  0  0  0  0  0  0  0  0  0  0  0  # atno 6908 bound_to 6896
  152.4571  134.5274  159.9852 H   0  0  0  0  0  0  0  0  0  0  0  0  # atno 6909 bound_to 6896
  144.7512  140.3851  143.6046 H   0  0  0  0  0  0  0  0  0  0  0  0  # atno 7974 bound_to 7965
  155.5404  140.0607  157.2871 H   0  0  0  0  0  0  0  0  0  0  0  0  # atno 8008 bound_to 7997
  154.4454  140.1920  156.0629 H   0  0  0  0  0  0  0  0  0  0  0  0  # atno 8009 bound_to 7997
  156.0589  140.3275  155.7441 H   0  0  0  0  0  0  0  0  0  0  0  0  # atno 8010 bound_to 7997
  140.4913  144.0463  150.6298 H   0  0  0  0  0  0  0  0  0  0  0  0  # atno 10167 bound_to 10162
  156.0168  130.4471  150.3230 H   0  0  0  0  0  0  0  0  0  0  0  0  # atno 10718 bound_to 10713
  153.3176  135.4069  155.1389 H   0  0  0  0  0  0  0  0  0  0  0  0  # atno 10763 bound_to 10752
  154.8592  135.3579  154.5639 H   0  0  0  0  0  0  0  0  0  0  0  0  # atno 10764 bound_to 10752
  153.6071  135.7069  153.5420 H   0  0  0  0  0  0  0  0  0  0  0  0  # atno 10765 bound_to 10752
  140.8518  133.7851  155.9974 H   0  0  0  0  0  0  0  0  0  0  0  0  # atno 11005 bound_to 11000
  145.6936  139.1645  143.2632 LP  0  0  0  0  0  0  0  0  0  0  0  0  # atno 17320 bound_to 7965
  146.1465  140.6985  142.9342 LP  0  0  0  0  0  0  0  0  0  0  0  0  # atno 17321 bound_to 7965
  140.3732  143.2843  152.0254 LP  0  0  0  0  0  0  0  0  0  0  0  0  # atno 17342 bound_to 10162
  139.4852  144.6213  151.7249 LP  0  0  0  0  0  0  0  0  0  0  0  0  # atno 17343 bound_to 10162
  157.1329  131.0276  151.2961 LP  0  0  0  0  0  0  0  0  0  0  0  0  # atno 17370 bound_to 10713
  157.4535  130.7612  149.7172 LP  0  0  0  0  0  0  0  0  0  0  0  0  # atno 17371 bound_to 10713
  140.8782  134.2644  157.5157 LP  0  0  0  0  0  0  0  0  0  0  0  0  # atno 17394 bound_to 11000
  139.8704  134.9602  156.4355 LP  0  0  0  0  0  0  0  0  0  0  0  0  # atno 17395 bound_to 11000

$$$$
