AV-unprocessed.smi:15|AV-procd|sdf|80|dock8
  -GOLD-   2262015213D 1   1.00000     0.00000
 Structure written by MMmdl.
 53 56  0  0  0  0  0  0  0  0  1 V2000
  149.0142  130.7133  153.5379 C   0  0  0  0  0  0  0  0  0  0  0  0
  149.4590  132.1564  153.8084 C   0  0  0  0  0  0  0  0  0  0  0  0
  148.4043  133.1344  153.5410 N   0  0  0  0  0  0  0  0  0  0  0  0
  147.7930  133.2115  152.2126 C   0  0  0  0  0  0  0  0  0  0  0  0
  146.3104  132.7932  152.2029 C   0  0  1  0  0  0  0  0  0  0  0  0
  145.3948  133.8049  151.5177 C   0  0  0  0  0  0  0  0  0  0  0  0
  144.2078  132.9656  151.0692 C   0  0  0  0  0  0  0  0  0  0  0  0
  144.7140  131.5233  151.1634 C   0  0  0  0  0  0  0  0  0  0  0  0
  146.1085  131.6384  151.4024 O   0  0  0  0  0  0  0  0  0  0  0  0
  148.4845  134.3239  154.1858 C   0  0  0  0  0  0  0  0  0  0  0  0
  147.3885  135.1247  154.1591 N   0  0  0  0  0  0  0  0  0  0  0  0
  147.4136  136.3205  154.7543 C   0  0  0  0  0  0  0  0  0  0  0  0
  148.4168  136.9042  155.4119 N   0  0  0  0  0  0  0  0  0  0  0  0
  149.5248  136.1094  155.4314 C   0  0  0  0  0  0  0  0  0  0  0  0
  149.6452  134.8139  154.8531 C   0  0  0  0  0  0  0  0  0  0  0  0
  150.9293  134.3236  155.0650 N   0  0  0  0  0  0  0  0  0  0  0  0
  151.5281  135.2686  155.7362 C   0  0  0  0  0  0  0  0  0  0  0  0
  150.7612  136.3828  155.9893 N   0  0  0  0  0  0  0  0  0  0  0  0
  151.1726  137.5812  156.7029 C   0  0  0  0  0  0  0  0  0  0  0  0
  152.1689  138.4731  155.9128 C   0  0  1  0  0  0  0  0  0  0  0  0
  153.3863  138.5691  156.6284 O   0  0  0  0  0  0  0  0  0  0  0  0
  152.4639  137.9757  154.5026 C   0  0  0  0  0  0  0  0  0  0  0  0
  151.2855  138.5257  153.7049 C   0  0  0  0  0  0  0  0  0  0  0  0
  150.9084  139.7337  154.3598 O   0  0  0  0  0  0  0  0  0  0  0  0
  151.6274  139.8775  155.5826 C   0  0  1  0  0  0  0  0  0  0  0  0
  150.7529  140.5500  156.6512 C   0  0  0  0  0  0  0  0  0  0  0  0
  149.7994  130.0119  153.8205 H   0  0  0  0  0  0  0  0  0  0  0  0
  148.7962  130.5468  152.4834 H   0  0  0  0  0  0  0  0  0  0  0  0
  148.1227  130.4616  154.1130 H   0  0  0  0  0  0  0  0  0  0  0  0
  149.7627  132.2282  154.8537 H   0  0  0  0  0  0  0  0  0  0  0  0
  150.3399  132.3887  153.2103 H   0  0  0  0  0  0  0  0  0  0  0  0
  147.8773  134.2367  151.8539 H   0  0  0  0  0  0  0  0  0  0  0  0
  148.3552  132.6083  151.4986 H   0  0  0  0  0  0  0  0  0  0  0  0
  145.9471  132.6026  153.2140 H   0  0  0  0  0  0  0  0  0  0  0  0
  145.1102  134.6264  152.1756 H   0  0  0  0  0  0  0  0  0  0  0  0
  145.8910  134.2300  150.6441 H   0  0  0  0  0  0  0  0  0  0  0  0
  143.3463  133.1127  151.7215 H   0  0  0  0  0  0  0  0  0  0  0  0
  143.9087  133.2247  150.0530 H   0  0  0  0  0  0  0  0  0  0  0  0
  144.2487  131.0061  152.0038 H   0  0  0  0  0  0  0  0  0  0  0  0
  144.5181  130.9482  150.2581 H   0  0  0  0  0  0  0  0  0  0  0  0
  146.5000  136.8932  154.6908 H   0  0  0  0  0  0  0  0  0  0  0  0
  152.5549  135.1814  156.0605 H   0  0  0  0  0  0  0  0  0  0  0  0
  150.2764  138.1477  156.9581 H   0  0  0  0  0  0  0  0  0  0  0  0
  151.6122  137.2685  157.6508 H   0  0  0  0  0  0  0  0  0  0  0  0
  153.8223  137.7316  156.5893 H   0  0  0  0  0  0  0  0  0  0  0  0
  153.3828  138.4296  154.1272 H   0  0  0  0  0  0  0  0  0  0  0  0
  152.5792  136.8962  154.4107 H   0  0  0  0  0  0  0  0  0  0  0  0
  151.5390  138.7016  152.6594 H   0  0  0  0  0  0  0  0  0  0  0  0
  150.4435  137.8334  153.7361 H   0  0  0  0  0  0  0  0  0  0  0  0
  152.4700  140.5357  155.3612 H   0  0  0  0  0  0  0  0  0  0  0  0
  151.2872  140.6345  157.5975 H   0  0  0  0  0  0  0  0  0  0  0  0
  149.8324  139.9944  156.8297 H   0  0  0  0  0  0  0  0  0  0  0  0
  150.4701  141.5558  156.3399 H   0  0  0  0  0  0  0  0  0  0  0  0
  1  2  1  0  0  0  0
  1 27  1  0  0  0  0
  1 28  1  0  0  0  0
  1 29  1  0  0  0  0
  2  3  1  0  0  0  0
  2 30  1  0  0  0  0
  2 31  1  0  0  0  0
  3  4  1  0  0  0  0
  3 10  1  0  0  0  0
  4  5  1  0  0  0  0
  4 32  1  0  0  0  0
  4 33  1  0  0  0  0
  5  9  1  0  0  0  0
  5  6  1  0  0  0  0
  5 34  1  0  0  0  0
  6  7  1  0  0  0  0
  6 35  1  0  0  0  0
  6 36  1  0  0  0  0
  7  8  1  0  0  0  0
  7 37  1  0  0  0  0
  7 38  1  0  0  0  0
  8  9  1  0  0  0  0
  8 39  1  0  0  0  0
  8 40  1  0  0  0  0
 10 15  1  0  0  0  0
 10 11  2  0  0  0  0
 11 12  1  0  0  0  0
 12 13  2  0  0  0  0
 12 41  1  0  0  0  0
 13 14  1  0  0  0  0
 14 18  1  0  0  0  0
 14 15  2  0  0  0  0
 15 16  1  0  0  0  0
 16 17  2  0  0  0  0
 17 18  1  0  0  0  0
 17 42  1  0  0  0  0
 18 19  1  0  0  0  0
 19 20  1  0  0  0  0
 19 43  1  0  0  0  0
 19 44  1  0  0  0  0
 20 25  1  0  0  0  0
 20 21  1  0  0  0  0
 20 22  1  0  0  0  0
 21 45  1  0  0  0  0
 22 23  1  0  0  0  0
 22 46  1  0  0  0  0
 22 47  1  0  0  0  0
 23 24  1  0  0  0  0
 23 48  1  0  0  0  0
 23 49  1  0  0  0  0
 24 25  1  0  0  0  0
 25 26  1  0  0  0  0
 25 50  1  0  0  0  0
 26 51  1  0  0  0  0
 26 52  1  0  0  0  0
 26 53  1  0  0  0  0
M  END
> <s_m_source_file>
AV-unprocessed.smi

> <i_m_source_file_index>
15

> <i_lp_mmshare_version>
43012

> <i_f3d_flags>
0

> <s_epik_input>
TzFbQ0gyXVtDSDJdW0NIMl1bQ0BIXTFbQ0gyXU4oW0NIMl1bQ0gzXSljKG5bY0hdbjIpYyhjMjMpbltjSF1uM1tDSDJdW0NAQF00KFtPSF0pW0NIMl1bQ0gyXU9bQ0BIXTRbQ0gzXQ==

> <s_epik_cmdline>
J2VwaWtfcHl0aG9uJywgJy1waCcsICc3LjAnLCAnLXRuJywgJzgnLCAnLW1hJywgJzIwMCcsICctbWV0YWxfYmluZGluZycsICctaW1hZScsICc8aW5maWxlLm1hZT4nLCAnLW9tYWUnLCAnPG91dGZpbGUubWFlPic=

> <r_lp_tautomer_probability>
1

> <r_epik_Ionization_Penalty>
0.00360814

> <r_epik_Ionization_Penalty_Charging>
0

> <r_epik_Ionization_Penalty_Neutral>
0.00360814

> <r_epik_State_Penalty>
0.00237482

> <r_epik_Charging_Adjusted_Penalty>
0.00237482

> <i_epik_Tot_Q>
0

> <i_epik_Tot_abs_Q>
0

> <r_epik_Metal_State_Penalty>
-0

> <b_epik_Metal_Only>
0

> <s_lp_Force_Field>
OPLS_2005

> <r_lp_Energy>
45.9982

> <b_lp_Chiralities_Consistent>
1

> <s_lp_Variant>
AV-unprocessed.smi:15-2

> <Gold.Version>
5.8.1

> <Gold.Id.Protein>
6NUR|6NUR_protein|mol2

> <Gold.PLP.Fitness>
38.9106

> <Gold.PLP.PLP>
-37.4687

> <Gold.PLP.part.hbond>
-2.0000

> <Gold.PLP.part.metal>
0.0000

> <Gold.PLP.part.buried>
-3.8748

> <Gold.PLP.part.nonpolar>
-32.0505

> <Gold.PLP.part.repulsive>
0.8201

> <Gold.PLP.ligand.clash>
0.0000

> <Gold.PLP.ligand.torsion>
2.7337

> <Gold.PLP.Chemscore.Hbond>
2.0000

> <Gold.PLP.Chemscore.CHOScore>
0.0000

> <Gold.PLP.Chemscore.Metal>
0.0000

> <Gold.Chemscore.Hbonds>
donor molecule, donor type, donor heavy atom, donor atom, acceptor molecule, acceptor atom, score
      P1  H  7989  7998       L1    24  1.00
      P1  H  7997  8009       L1    21  0.94

> <Gold.PLP.Chemscore.Internal.Correction>
0.9092

> <Gold.Rescore>
     Score         DG    S(hbond)    S(metal)    S(lipo)     H(rot)  DE(clash)    DE(int)     intcor
      7.17     -12.40       0.97        0.00      84.81       2.44       1.19       4.04       ----

> <Gold.Chemscore.Fitness>
7.1725

> <Gold.Chemscore.DG>
-12.3971

> <Gold.Chemscore.ZeroCoef>
-5.4800

> <Gold.Chemscore.Hbond>
0.9725

> <Gold.Chemscore.Metal>
0.0000

> <Gold.Chemscore.Lipo>
84.8140

> <Gold.Chemscore.Internal_Hbond>
0.0000

> <Gold.Chemscore.DEClash>
1.1859

> <Gold.Chemscore.DEInternal>
4.0386

> <Gold.Chemscore.Rot>
2.4431

> <Gold.Chemscore.Internal.Correction>
   9.000000E+99

> <Gold.Chemscore.Hbonds>
donor molecule, donor type, donor heavy atom, donor atom, acceptor molecule, acceptor atom, score
      P1  H  7989  7998       L1    24  0.10
      P1  H  7997  8009       L1    21  0.87

> <Gold.Chemscore.Hbond.Weighted>
-3.2483

> <Gold.Chemscore.Metal.Weighted>
-0.0000

> <Gold.Chemscore.Lipo.Weighted>
-9.9232

> <Gold.Chemscore.Internal_Hbond.Weighted>
0.0000

> <Gold.Chemscore.DEClash.Weighted>
1.1859

> <Gold.Chemscore.DEInternal.Weighted>
4.0386

> <Gold.Chemscore.Rot.Weighted>
6.2544

> <Gold.Chemscore.Internal.Correction.Weighted>
   9.000000E+99

> <Gold.Protein.RotatedTorsions>
[ 6907 6896 6895 6894 ] final  -15.03 input  -60.11 | X-H torsion
[ 7974 7965 7964 7962 ] final  121.99 input  175.53 | X-H torsion
[ 8008 7997 7996 7995 ] final  176.82 input   59.86 | X-H torsion
[ 10167 10162 10161 10158 ] final  113.79 input  -65.29 | X-H torsion
[ 10718 10713 10712 10709 ] final  172.04 input   66.30 | X-H torsion
[ 10763 10752 10751 10750 ] final   14.30 input  -60.55 | X-H torsion
[ 11005 11000 10999 10996 ] final   79.83 input  -57.11 | X-H torsion

> <Gold.Protein.ActiveResidues>
 VAL166  LYS551  ARG553  GLY616  TRP617  ASP618  TYR619  PRO620  LYS621  CYS622 
 ASP623  PHE694  ASN695  SER759  ASP760  ASP761  ALA762  ILE779  LEU786  VAL792 
 PHE793  MET794  SER795  GLU796  ALA797  LYS798  CYS799  TRP800  GLU811  SER814 

> <Gold.Protein.RotatedAtoms>
  151.3302  135.0840  159.9335 H   0  0  0  0  0  0  0  0  0  0  0  0  # atno 6907 bound_to 6896
  152.5236  133.9550  159.7700 H   0  0  0  0  0  0  0  0  0  0  0  0  # atno 6908 bound_to 6896
  150.9888  133.6118  159.2741 H   0  0  0  0  0  0  0  0  0  0  0  0  # atno 6909 bound_to 6896
  145.1128  139.3441  143.4754 H   0  0  0  0  0  0  0  0  0  0  0  0  # atno 7974 bound_to 7965
  156.0724  140.1374  156.9813 H   0  0  0  0  0  0  0  0  0  0  0  0  # atno 8008 bound_to 7997
  154.4539  140.0969  156.6750 H   0  0  0  0  0  0  0  0  0  0  0  0  # atno 8009 bound_to 7997
  155.5207  140.3456  155.4408 H   0  0  0  0  0  0  0  0  0  0  0  0  # atno 8010 bound_to 7997
  139.6435  144.7125  151.2189 H   0  0  0  0  0  0  0  0  0  0  0  0  # atno 10167 bound_to 10162
  156.9848  131.0130  151.2872 H   0  0  0  0  0  0  0  0  0  0  0  0  # atno 10718 bound_to 10713
  153.1636  135.6800  153.8707 H   0  0  0  0  0  0  0  0  0  0  0  0  # atno 10763 bound_to 10752
  153.8095  135.3145  155.3400 H   0  0  0  0  0  0  0  0  0  0  0  0  # atno 10764 bound_to 10752
  154.7949  135.4812  154.0229 H   0  0  0  0  0  0  0  0  0  0  0  0  # atno 10765 bound_to 10752
  139.9157  134.7873  156.1829 H   0  0  0  0  0  0  0  0  0  0  0  0  # atno 11005 bound_to 11000
  146.3525  140.1053  142.8606 LP  0  0  0  0  0  0  0  0  0  0  0  0  # atno 17320 bound_to 7965
  145.0828  140.9232  143.4815 LP  0  0  0  0  0  0  0  0  0  0  0  0  # atno 17321 bound_to 7965
  140.7503  143.6271  150.8458 LP  0  0  0  0  0  0  0  0  0  0  0  0  # atno 17342 bound_to 10162
  139.9911  143.5846  152.2910 LP  0  0  0  0  0  0  0  0  0  0  0  0  # atno 17343 bound_to 10162
  157.5500  130.8176  149.8134 LP  0  0  0  0  0  0  0  0  0  0  0  0  # atno 17370 bound_to 10713
  156.0230  130.3789  150.1905 LP  0  0  0  0  0  0  0  0  0  0  0  0  # atno 17371 bound_to 10713
  141.0631  133.6832  156.1991 LP  0  0  0  0  0  0  0  0  0  0  0  0  # atno 17394 bound_to 11000
  140.6629  134.4949  157.5584 LP  0  0  0  0  0  0  0  0  0  0  0  0  # atno 17395 bound_to 11000

$$$$
