AV-unprocessed.smi:703|AV-procd|sdf|3429|dock2
  -GOLD-   22720 0413D 1   1.00000     0.00000
 Structure written by MMmdl.
 38 39  0  0  0  0  0  0  0  0  2 V2000
  145.1571  135.0424  152.0073 C   0  0  0  0  0  0  0  0  0  0  0  0
  145.7579  135.0170  153.4191 C   0  0  0  0  0  0  0  0  0  0  0  0
  147.2199  134.7779  153.4014 N   0  3  2  0  0  0  0  0  0  0  0  0
  147.6256  133.3692  153.2367 C   0  0  0  0  0  0  0  0  0  0  0  0
  149.1024  133.3383  153.6381 C   0  0  2  0  0  0  0  0  0  0  0  0
  149.5780  131.9670  154.1361 C   0  0  0  0  0  0  0  0  0  0  0  0
  149.2385  134.4640  154.6806 C   0  0  1  0  0  0  0  0  0  0  0  0
  150.3848  135.3207  154.3627 N   0  0  0  0  0  0  0  0  0  0  0  0
  150.7878  136.5884  155.4590 S   0  0  0  0  0  0  0  0  0  0  0  0
  149.5512  136.9728  156.1565 O   0  0  0  0  0  0  0  0  0  0  0  0
  151.9606  136.1498  156.2310 O   0  0  0  0  0  0  0  0  0  0  0  0
  151.2996  137.9518  154.3306 C   0  0  0  0  0  0  0  0  0  0  0  0
  150.3913  139.1324  154.5240 C   0  0  0  0  0  0  0  0  0  0  0  0
  148.9914  139.2194  154.2879 C   0  0  0  0  0  0  0  0  0  0  0  0
  148.6907  140.5074  154.6260 C   0  0  0  0  0  0  0  0  0  0  0  0
  149.8059  141.1643  155.0331 O   0  0  0  0  0  0  0  0  0  0  0  0
  150.8872  140.2785  154.9630 N   0  0  0  0  0  0  0  0  0  0  0  0
  147.9250  135.2596  154.6057 C   0  0  0  0  0  0  0  0  0  0  0  0
  144.0947  135.2837  152.0459 H   0  0  0  0  0  0  0  0  0  0  0  0
  145.2534  134.0766  151.5106 H   0  0  0  0  0  0  0  0  0  0  0  0
  145.6439  135.7928  151.3837 H   0  0  0  0  0  0  0  0  0  0  0  0
  145.5697  135.9802  153.8954 H   0  0  0  0  0  0  0  0  0  0  0  0
  145.2612  134.2623  154.0305 H   0  0  0  0  0  0  0  0  0  0  0  0
  147.0360  132.7402  153.9062 H   0  0  0  0  0  0  0  0  0  0  0  0
  147.4705  133.0165  152.2165 H   0  0  0  0  0  0  0  0  0  0  0  0
  149.6828  133.5992  152.7508 H   0  0  0  0  0  0  0  0  0  0  0  0
  149.0265  131.6510  155.0221 H   0  0  0  0  0  0  0  0  0  0  0  0
  150.6369  131.9942  154.3956 H   0  0  0  0  0  0  0  0  0  0  0  0
  149.4438  131.2039  153.3692 H   0  0  0  0  0  0  0  0  0  0  0  0
  149.3523  134.0563  155.6865 H   0  0  0  0  0  0  0  0  0  0  0  0
  150.3402  135.6644  153.4036 H   0  0  0  0  0  0  0  0  0  0  0  0
  152.3373  138.2067  154.5480 H   0  0  0  0  0  0  0  0  0  0  0  0
  151.2535  137.5886  153.3041 H   0  0  0  0  0  0  0  0  0  0  0  0
  148.3152  138.4572  153.9307 H   0  0  0  0  0  0  0  0  0  0  0  0
  147.7746  141.0794  154.6305 H   0  0  0  0  0  0  0  0  0  0  0  0
  148.0726  136.3401  154.5702 H   0  0  0  0  0  0  0  0  0  0  0  0
  147.3233  135.0413  155.4899 H   0  0  0  0  0  0  0  0  0  0  0  0
  147.6079  135.2871  152.6200 H   0  0  0  0  0  0  0  0  0  0  0  0
  1  2  1  0  0  0  0
  1 19  1  0  0  0  0
  1 20  1  0  0  0  0
  1 21  1  0  0  0  0
  2  3  1  0  0  0  0
  2 22  1  0  0  0  0
  2 23  1  0  0  0  0
  3 18  1  0  0  0  0
  3  4  1  0  0  0  0
  3 38  1  0  0  0  0
  4  5  1  0  0  0  0
  4 24  1  0  0  0  0
  4 25  1  0  0  0  0
  5  6  1  0  0  0  0
  5  7  1  0  0  0  0
  5 26  1  0  0  0  0
  6 27  1  0  0  0  0
  6 28  1  0  0  0  0
  6 29  1  0  0  0  0
  7  8  1  0  0  0  0
  7 18  1  0  0  0  0
  7 30  1  0  0  0  0
  8  9  1  0  0  0  0
  8 31  1  0  0  0  0
  9 10  2  0  0  0  0
  9 11  2  0  0  0  0
  9 12  1  0  0  0  0
 12 13  1  0  0  0  0
 12 32  1  0  0  0  0
 12 33  1  0  0  0  0
 13 17  2  0  0  0  0
 13 14  1  0  0  0  0
 14 15  2  0  0  0  0
 14 34  1  0  0  0  0
 15 16  1  0  0  0  0
 15 35  1  0  0  0  0
 16 17  1  0  0  0  0
 18 36  1  0  0  0  0
 18 37  1  0  0  0  0
M  CHG  1   3   1
M  END
> <s_m_source_file>
AV-unprocessed.smi

> <i_m_source_file_index>
703

> <i_lp_mmshare_version>
43012

> <i_f3d_flags>
0

> <s_epik_input>
W0NIM11bQ0gyXU4xW0NIMl1bQ0BASF0oW0NIM10pW0NASF0oW0NIMl0xKVtOSF1TKD1PKSg9TylbQ0gyXWMyW2NIXVtjSF1vbjI=

> <s_epik_cmdline>
J2VwaWtfcHl0aG9uJywgJy1waCcsICc3LjAnLCAnLXRuJywgJzgnLCAnLW1hJywgJzIwMCcsICctbWV0YWxfYmluZGluZycsICctaW1hZScsICc8aW5maWxlLm1hZT4nLCAnLW9tYWUnLCAnPG91dGZpbGUubWFlPic=

> <r_epik_Ionization_Penalty>
0.00324529

> <r_epik_Ionization_Penalty_Charging>
0.0019384

> <r_epik_Ionization_Penalty_Neutral>
0.00130689

> <r_epik_State_Penalty>
0.00218682

> <r_epik_Charging_Adjusted_Penalty>
0.00412522

> <i_epik_Tot_Q>
1

> <i_epik_Tot_abs_Q>
1

> <r_epik_Metal_State_Penalty>
0.310831

> <b_epik_Metal_Only>
0

> <s_lp_Force_Field>
OPLS_2005

> <r_lp_Energy>
19.0381

> <b_lp_Chiralities_Consistent>
1

> <s_lp_Variant>
AV-unprocessed.smi:703-4

> <Gold.Version>
5.8.1

> <Gold.Id.Protein>
6NUR|6NUR_protein|mol2

> <Gold.PLP.Fitness>
40.9500

> <Gold.PLP.PLP>
-30.2261

> <Gold.PLP.part.hbond>
-5.8520

> <Gold.PLP.part.metal>
0.0000

> <Gold.PLP.part.buried>
-1.8526

> <Gold.PLP.part.nonpolar>
-23.3417

> <Gold.PLP.part.repulsive>
0.2428

> <Gold.PLP.ligand.clash>
0.0000

> <Gold.PLP.ligand.torsion>
0.7364

> <Gold.PLP.Chemscore.Hbond>
4.0000

> <Gold.PLP.Chemscore.CHOScore>
0.0000

> <Gold.PLP.Chemscore.Metal>
0.0000

> <Gold.Chemscore.Hbonds>
donor molecule, donor type, donor heavy atom, donor atom, acceptor molecule, acceptor atom, score
      L1  H     3    38       P1  7948  2.00
      P1  H  7989  7998       L1    17  0.95
      P1  H 10752 10763       L1    11  1.00

> <Gold.PLP.Chemscore.Internal.Correction>
0.1967

> <Gold.Rescore>
     Score         DG    S(hbond)    S(metal)    S(lipo)     H(rot)  DE(clash)    DE(int)     intcor
     12.36     -15.52       2.42        0.00      59.11       1.94       0.01       3.14       ----

> <Gold.Chemscore.Fitness>
12.3644

> <Gold.Chemscore.DG>
-15.5226

> <Gold.Chemscore.ZeroCoef>
-5.4800

> <Gold.Chemscore.Hbond>
2.4231

> <Gold.Chemscore.Metal>
0.0000

> <Gold.Chemscore.Lipo>
59.1103

> <Gold.Chemscore.Internal_Hbond>
0.0000

> <Gold.Chemscore.DEClash>
0.0137

> <Gold.Chemscore.DEInternal>
3.1445

> <Gold.Chemscore.Rot>
1.9400

> <Gold.Chemscore.Internal.Correction>
   9.000000E+99

> <Gold.Chemscore.Hbonds>
donor molecule, donor type, donor heavy atom, donor atom, acceptor molecule, acceptor atom, score
      L1  H     3    38       P1  7948  0.95
      P1  H  7989  7998       L1    17  0.05
      P1  H 10752 10763       L1    11  0.25

> <Gold.Chemscore.Hbond.Weighted>
-8.0932

> <Gold.Chemscore.Metal.Weighted>
-0.0000

> <Gold.Chemscore.Lipo.Weighted>
-6.9159

> <Gold.Chemscore.Internal_Hbond.Weighted>
0.0000

> <Gold.Chemscore.DEClash.Weighted>
0.0137

> <Gold.Chemscore.DEInternal.Weighted>
3.1445

> <Gold.Chemscore.Rot.Weighted>
4.9665

> <Gold.Chemscore.Internal.Correction.Weighted>
   9.000000E+99

> <Gold.Protein.RotatedTorsions>
[ 6907 6896 6895 6894 ] final -144.73 input  -60.11 | X-H torsion
[ 7974 7965 7964 7962 ] final -139.20 input  175.53 | X-H torsion
[ 8008 7997 7996 7995 ] final  -29.30 input   59.86 | X-H torsion
[ 10167 10162 10161 10158 ] final -149.39 input  -65.29 | X-H torsion
[ 10718 10713 10712 10709 ] final -144.16 input   66.30 | X-H torsion
[ 10763 10752 10751 10750 ] final   75.50 input  -60.55 | X-H torsion
[ 11005 11000 10999 10996 ] final -169.42 input  -57.11 | X-H torsion

> <Gold.Protein.ActiveResidues>
 VAL166  LYS551  ARG553  GLY616  TRP617  ASP618  TYR619  PRO620  LYS621  CYS622 
 ASP623  PHE694  ASN695  SER759  ASP760  ASP761  ALA762  ILE779  LEU786  VAL792 
 PHE793  MET794  SER795  GLU796  ALA797  LYS798  CYS799  TRP800  GLU811  SER814 

> <Gold.Protein.RotatedAtoms>
  151.1180  133.5124  159.2602 H   0  0  0  0  0  0  0  0  0  0  0  0  # atno 6907 bound_to 6896
  151.1893  135.0395  159.8835 H   0  0  0  0  0  0  0  0  0  0  0  0  # atno 6908 bound_to 6896
  152.5454  134.1023  159.8376 H   0  0  0  0  0  0  0  0  0  0  0  0  # atno 6909 bound_to 6896
  144.8696  140.6346  143.5275 H   0  0  0  0  0  0  0  0  0  0  0  0  # atno 7974 bound_to 7965
  154.4295  140.1822  156.1226 H   0  0  0  0  0  0  0  0  0  0  0  0  # atno 8008 bound_to 7997
  156.0131  140.3348  155.6935 H   0  0  0  0  0  0  0  0  0  0  0  0  # atno 8009 bound_to 7997
  155.6083  140.0647  157.2704 H   0  0  0  0  0  0  0  0  0  0  0  0  # atno 8010 bound_to 7997
  139.7447  143.8609  152.2571 H   0  0  0  0  0  0  0  0  0  0  0  0  # atno 10167 bound_to 10162
  156.3667  130.7766  151.1942 H   0  0  0  0  0  0  0  0  0  0  0  0  # atno 10718 bound_to 10713
  153.0659  135.4986  154.8199 H   0  0  0  0  0  0  0  0  0  0  0  0  # atno 10763 bound_to 10752
  154.6953  135.2991  154.9423 H   0  0  0  0  0  0  0  0  0  0  0  0  # atno 10764 bound_to 10752
  154.0165  135.6747  153.4822 H   0  0  0  0  0  0  0  0  0  0  0  0  # atno 10765 bound_to 10752
  140.5309  134.5617  157.5074 H   0  0  0  0  0  0  0  0  0  0  0  0  # atno 11005 bound_to 11000
  145.4156  139.1572  143.4102 LP  0  0  0  0  0  0  0  0  0  0  0  0  # atno 17320 bound_to 7965
  146.2920  140.4263  142.8736 LP  0  0  0  0  0  0  0  0  0  0  0  0  # atno 17321 bound_to 7965
  139.8570  144.7136  150.9145 LP  0  0  0  0  0  0  0  0  0  0  0  0  # atno 17342 bound_to 10162
  140.7790  143.3850  151.1409 LP  0  0  0  0  0  0  0  0  0  0  0  0  # atno 17343 bound_to 10162
  157.7479  131.0384  150.4502 LP  0  0  0  0  0  0  0  0  0  0  0  0  # atno 17370 bound_to 10713
  156.4722  130.4055  149.6511 LP  0  0  0  0  0  0  0  0  0  0  0  0  # atno 17371 bound_to 10713
  139.9554  134.7543  156.0353 LP  0  0  0  0  0  0  0  0  0  0  0  0  # atno 17394 bound_to 11000
  141.1281  133.6593  156.3392 LP  0  0  0  0  0  0  0  0  0  0  0  0  # atno 17395 bound_to 11000

$$$$
