AV-unprocessed.smi:195|AV-procd|sdf|1527|dock7
  -GOLD-   2262019373D 1   1.00000     0.00000
 Structure written by MMmdl.
 45 48  0  0  0  0  0  0  0  0  1 V2000
  149.8333  135.9705  160.7049 N   0  0  0  0  0  0  0  0  0  0  0  0
  149.8347  135.7925  159.5617 C   0  0  0  0  0  0  0  0  0  0  0  0
  149.8360  135.5670  158.1075 C   0  0  0  0  0  0  0  0  0  0  0  0
  148.4313  135.4587  157.5072 C   0  0  0  0  0  0  0  0  0  0  0  0
  147.8238  134.3891  158.2008 O   0  0  0  0  0  0  0  0  0  0  0  0
  147.5967  136.7405  157.4311 C   0  0  0  0  0  0  0  0  0  0  0  0
  147.9368  136.8146  156.0127 N   0  0  0  0  0  0  0  0  0  0  0  0
  148.9577  137.7714  155.7153 C   0  0  0  0  0  0  0  0  0  0  0  0
  149.2933  138.0588  154.4282 N   0  0  0  0  0  0  0  0  0  0  0  0
  150.2392  138.9585  154.1427 C   0  0  0  0  0  0  0  0  0  0  0  0
  150.9672  139.6959  154.9813 N   0  0  0  0  0  0  0  0  0  0  0  0
  150.6300  139.4356  156.2752 C   0  0  0  0  0  0  0  0  0  0  0  0
  149.6494  138.5047  156.7223 C   0  0  0  0  0  0  0  0  0  0  0  0
  149.5821  138.5238  158.1108 N   0  0  0  0  0  0  0  0  0  0  0  0
  150.4727  139.4103  158.4636 C   0  0  0  0  0  0  0  0  0  0  0  0
  151.1475  140.0067  157.4234 N   0  0  0  0  0  0  0  0  0  0  0  0
  152.1795  141.0230  157.5217 C   0  0  0  0  0  0  0  0  0  0  0  0
  152.4927  141.3995  158.9827 C   0  0  1  0  0  0  0  0  0  0  0  0
  153.6852  140.7721  159.4144 O   0  0  0  0  0  0  0  0  0  0  0  0
  152.5735  142.9235  159.2016 C   0  0  1  0  0  0  0  0  0  0  0  0
  151.3458  143.7388  158.7870 C   0  0  0  0  0  0  0  0  0  0  0  0
  151.5210  144.9813  159.6310 C   0  0  0  0  0  0  0  0  0  0  0  0
  152.0650  144.4003  160.9340 C   0  0  0  0  0  0  0  0  0  0  0  0
  152.8267  143.2534  160.5652 O   0  0  0  0  0  0  0  0  0  0  0  0
  148.3016  135.3980  155.9817 C   0  0  0  0  0  0  0  0  0  0  0  0
  150.4023  136.3744  157.6419 H   0  0  0  0  0  0  0  0  0  0  0  0
  150.4055  134.6545  157.9323 H   0  0  0  0  0  0  0  0  0  0  0  0
  147.2944  134.7690  158.8853 H   0  0  0  0  0  0  0  0  0  0  0  0
  146.5293  136.5748  157.5836 H   0  0  0  0  0  0  0  0  0  0  0  0
  147.9738  137.5539  158.0522 H   0  0  0  0  0  0  0  0  0  0  0  0
  150.4387  139.1095  153.0920 H   0  0  0  0  0  0  0  0  0  0  0  0
  150.6595  139.6586  159.4983 H   0  0  0  0  0  0  0  0  0  0  0  0
  153.0752  140.6588  157.0172 H   0  0  0  0  0  0  0  0  0  0  0  0
  151.8452  141.9016  156.9688 H   0  0  0  0  0  0  0  0  0  0  0  0
  151.6938  141.0146  159.6176 H   0  0  0  0  0  0  0  0  0  0  0  0
  154.2005  140.5572  158.6520 H   0  0  0  0  0  0  0  0  0  0  0  0
  153.4282  143.3043  158.6401 H   0  0  0  0  0  0  0  0  0  0  0  0
  151.3161  143.9478  157.7174 H   0  0  0  0  0  0  0  0  0  0  0  0
  150.4168  143.2388  159.0626 H   0  0  0  0  0  0  0  0  0  0  0  0
  152.2599  145.6424  159.1761 H   0  0  0  0  0  0  0  0  0  0  0  0
  150.5965  145.5429  159.7671 H   0  0  0  0  0  0  0  0  0  0  0  0
  152.6679  145.1178  161.4904 H   0  0  0  0  0  0  0  0  0  0  0  0
  151.2450  144.0773  161.5764 H   0  0  0  0  0  0  0  0  0  0  0  0
  149.2159  135.1304  155.4527 H   0  0  0  0  0  0  0  0  0  0  0  0
  147.4645  134.7820  155.6504 H   0  0  0  0  0  0  0  0  0  0  0  0
  1  2  3  0  0  0  0
  2  3  1  0  0  0  0
  3  4  1  0  0  0  0
  3 26  1  0  0  0  0
  3 27  1  0  0  0  0
  4 25  1  0  0  0  0
  4  5  1  0  0  0  0
  4  6  1  0  0  0  0
  5 28  1  0  0  0  0
  6  7  1  0  0  0  0
  6 29  1  0  0  0  0
  6 30  1  0  0  0  0
  7  8  1  0  0  0  0
  7 25  1  0  0  0  0
  8 13  1  0  0  0  0
  8  9  2  0  0  0  0
  9 10  1  0  0  0  0
 10 11  2  0  0  0  0
 10 31  1  0  0  0  0
 11 12  1  0  0  0  0
 12 16  1  0  0  0  0
 12 13  2  0  0  0  0
 13 14  1  0  0  0  0
 14 15  2  0  0  0  0
 15 16  1  0  0  0  0
 15 32  1  0  0  0  0
 16 17  1  0  0  0  0
 17 18  1  0  0  0  0
 17 33  1  0  0  0  0
 17 34  1  0  0  0  0
 18 19  1  0  0  0  0
 18 20  1  0  0  0  0
 18 35  1  0  0  0  0
 19 36  1  0  0  0  0
 20 24  1  0  0  0  0
 20 21  1  0  0  0  0
 20 37  1  0  0  0  0
 21 22  1  0  0  0  0
 21 38  1  0  0  0  0
 21 39  1  0  0  0  0
 22 23  1  0  0  0  0
 22 40  1  0  0  0  0
 22 41  1  0  0  0  0
 23 24  1  0  0  0  0
 23 42  1  0  0  0  0
 23 43  1  0  0  0  0
 25 44  1  0  0  0  0
 25 45  1  0  0  0  0
M  END
> <s_m_source_file>
AV-unprocessed.smi

> <i_m_source_file_index>
195

> <i_lp_mmshare_version>
43012

> <i_f3d_flags>
0

> <s_epik_input>
TiNDW0NIMl1DMShbT0hdKVtDSDJdTihbQ0gyXTEpYyhuW2NIXW4yKWMoYzIzKW5bY0hdbjNbQ0gyXVtDQEhdKFtPSF0pW0NAQEhdNFtDSDJdW0NIMl1bQ0gyXU80

> <s_epik_cmdline>
J2VwaWtfcHl0aG9uJywgJy1waCcsICc3LjAnLCAnLXRuJywgJzgnLCAnLW1hJywgJzIwMCcsICctbWV0YWxfYmluZGluZycsICctaW1hZScsICc8aW5maWxlLm1hZT4nLCAnLW9tYWUnLCAnPG91dGZpbGUubWFlPic=

> <r_lp_tautomer_probability>
1

> <r_epik_Ionization_Penalty>
0.00307146

> <r_epik_Ionization_Penalty_Charging>
0

> <r_epik_Ionization_Penalty_Neutral>
0.00307146

> <r_epik_State_Penalty>
0.0020279

> <r_epik_Charging_Adjusted_Penalty>
0.0020279

> <i_epik_Tot_Q>
0

> <i_epik_Tot_abs_Q>
0

> <r_epik_Metal_State_Penalty>
-0

> <b_epik_Metal_Only>
0

> <s_lp_Force_Field>
OPLS_2005

> <r_lp_Energy>
44.2023

> <b_lp_Chiralities_Consistent>
1

> <s_lp_Variant>
AV-unprocessed.smi:195-4

> <Gold.Version>
5.8.1

> <Gold.Id.Protein>
6NUR|6NUR_protein|mol2

> <Gold.PLP.Fitness>
38.8198

> <Gold.PLP.PLP>
-32.3060

> <Gold.PLP.part.hbond>
-2.2365

> <Gold.PLP.part.metal>
0.0000

> <Gold.PLP.part.buried>
-6.8970

> <Gold.PLP.part.nonpolar>
-23.5530

> <Gold.PLP.part.repulsive>
0.2962

> <Gold.PLP.ligand.clash>
0.0000

> <Gold.PLP.ligand.torsion>
0.9928

> <Gold.PLP.Chemscore.Hbond>
1.7420

> <Gold.PLP.Chemscore.CHOScore>
0.9709

> <Gold.PLP.Chemscore.Metal>
0.0000

> <Gold.Chemscore.Hbonds>
donor molecule, donor type, donor heavy atom, donor atom, acceptor molecule, acceptor atom, score
      P1  H  7989  7998       L1    11  0.60
      L1  C    10    31       P1  7957  1.00

> <Gold.PLP.Chemscore.Internal.Correction>
0.3608

> <Gold.Rescore>
     Score         DG    S(hbond)    S(metal)    S(lipo)     H(rot)  DE(clash)    DE(int)     intcor
      5.49      -9.30       1.60        0.00      68.36       3.72       0.00       3.81       ----

> <Gold.Chemscore.Fitness>
5.4856

> <Gold.Chemscore.DG>
-9.2995

> <Gold.Chemscore.ZeroCoef>
-5.4800

> <Gold.Chemscore.Hbond>
1.6007

> <Gold.Chemscore.Metal>
0.0000

> <Gold.Chemscore.Lipo>
68.3644

> <Gold.Chemscore.Internal_Hbond>
0.0000

> <Gold.Chemscore.DEClash>
0.0023

> <Gold.Chemscore.DEInternal>
3.8115

> <Gold.Chemscore.Rot>
3.7210

> <Gold.Chemscore.Internal.Correction>
   9.000000E+99

> <Gold.Chemscore.Hbonds>
donor molecule, donor type, donor heavy atom, donor atom, acceptor molecule, acceptor atom, score
      P1  H  7989  7998       L1    11  0.04

> <Gold.Chemscore.Hbond.Weighted>
-5.3465

> <Gold.Chemscore.Metal.Weighted>
-0.0000

> <Gold.Chemscore.Lipo.Weighted>
-7.9986

> <Gold.Chemscore.Internal_Hbond.Weighted>
0.0000

> <Gold.Chemscore.DEClash.Weighted>
0.0023

> <Gold.Chemscore.DEInternal.Weighted>
3.8115

> <Gold.Chemscore.Rot.Weighted>
9.5256

> <Gold.Chemscore.Internal.Correction.Weighted>
   9.000000E+99

> <Gold.Protein.RotatedTorsions>
[ 6907 6896 6895 6894 ] final   22.46 input  -60.11 | X-H torsion
[ 7974 7965 7964 7962 ] final -172.91 input  175.53 | X-H torsion
[ 8008 7997 7996 7995 ] final   46.72 input   59.86 | X-H torsion
[ 10167 10162 10161 10158 ] final  -37.74 input  -65.29 | X-H torsion
[ 10718 10713 10712 10709 ] final    2.74 input   66.30 | X-H torsion
[ 10763 10752 10751 10750 ] final  135.01 input  -60.55 | X-H torsion
[ 11005 11000 10999 10996 ] final    9.50 input  -57.11 | X-H torsion

> <Gold.Protein.ActiveResidues>
 VAL166  LYS551  ARG553  GLY616  TRP617  ASP618  TYR619  PRO620  LYS621  CYS622 
 ASP623  PHE694  ASN695  SER759  ASP760  ASP761  ALA762  ILE779  LEU786  VAL792 
 PHE793  MET794  SER795  GLU796  ALA797  LYS798  CYS799  TRP800  GLU811  SER814 

> <Gold.Protein.RotatedAtoms>
  151.9275  135.0271  160.0526 H   0  0  0  0  0  0  0  0  0  0  0  0  # atno 6907 bound_to 6896
  152.2147  133.4933  159.5137 H   0  0  0  0  0  0  0  0  0  0  0  0  # atno 6908 bound_to 6896
  150.6984  134.1338  159.4122 H   0  0  0  0  0  0  0  0  0  0  0  0  # atno 6909 bound_to 6896
  144.7142  140.1701  143.6368 H   0  0  0  0  0  0  0  0  0  0  0  0  # atno 7974 bound_to 7965
  155.3571  140.3416  155.4240 H   0  0  0  0  0  0  0  0  0  0  0  0  # atno 8008 bound_to 7997
  156.1733  140.1639  156.8442 H   0  0  0  0  0  0  0  0  0  0  0  0  # atno 8009 bound_to 7997
  154.5256  140.0757  156.8234 H   0  0  0  0  0  0  0  0  0  0  0  0  # atno 8010 bound_to 7997
  140.7110  143.3322  151.2543 H   0  0  0  0  0  0  0  0  0  0  0  0  # atno 10167 bound_to 10162
  156.8675  130.5608  149.5659 H   0  0  0  0  0  0  0  0  0  0  0  0  # atno 10718 bound_to 10713
  153.8330  135.3101  155.3420 H   0  0  0  0  0  0  0  0  0  0  0  0  # atno 10763 bound_to 10752
  154.7965  135.4752  154.0177 H   0  0  0  0  0  0  0  0  0  0  0  0  # atno 10764 bound_to 10752
  153.1622  135.6863  153.8816 H   0  0  0  0  0  0  0  0  0  0  0  0  # atno 10765 bound_to 10752
  140.5250  134.0522  155.7856 H   0  0  0  0  0  0  0  0  0  0  0  0  # atno 11005 bound_to 11000
  145.8951  139.2398  143.1526 LP  0  0  0  0  0  0  0  0  0  0  0  0  # atno 17320 bound_to 7965
  145.9865  140.8638  143.0088 LP  0  0  0  0  0  0  0  0  0  0  0  0  # atno 17321 bound_to 7965
  139.6807  143.9859  152.2807 LP  0  0  0  0  0  0  0  0  0  0  0  0  # atno 17342 bound_to 10162
  139.9488  144.6634  150.8192 LP  0  0  0  0  0  0  0  0  0  0  0  0  # atno 17343 bound_to 10162
  156.0744  130.5769  150.9445 LP  0  0  0  0  0  0  0  0  0  0  0  0  # atno 17370 bound_to 10713
  157.6215  131.0929  150.8614 LP  0  0  0  0  0  0  0  0  0  0  0  0  # atno 17371 bound_to 10713
  141.1313  133.9297  157.2529 LP  0  0  0  0  0  0  0  0  0  0  0  0  # atno 17394 bound_to 11000
  139.9585  135.0160  156.9195 LP  0  0  0  0  0  0  0  0  0  0  0  0  # atno 17395 bound_to 11000

$$$$
