AV-unprocessed.smi:2134|AV-procd|sdf|8696|dock3
  -GOLD-   2272011453D 1   1.00000     0.00000
 Structure written by MMmdl.
 34 35  0  0  0  0  0  0  0  0  2 V2000
  145.7448  142.3346  157.7975 C   0  0  0  0  0  0  0  0  0  0  0  0
  146.1710  142.4611  156.4042 N   0  0  0  0  0  0  0  0  0  0  0  0
  147.4345  141.9623  156.1690 N   0  0  0  0  0  0  0  0  0  0  0  0
  147.8931  141.7617  154.9728 C   0  0  0  0  0  0  0  0  0  0  0  0
  149.2570  141.1814  154.7953 C   0  0  0  0  0  0  0  0  0  0  0  0
  149.5709  140.9130  153.6294 O   0  0  0  0  0  0  0  0  0  0  0  0
  150.0295  140.9861  155.9048 N   0  5  0  0  0  0  0  0  0  0  0  0
  150.0523  141.8496  157.0851 C   0  0  0  0  0  0  0  0  0  0  0  0
  151.5010  142.2980  157.3794 C   0  0  0  0  0  0  0  0  0  0  0  0
  151.6372  143.2876  158.5333 C   0  0  0  0  0  0  0  0  0  0  0  0
  152.2735  142.9200  159.7388 C   0  0  0  0  0  0  0  0  0  0  0  0
  152.3741  143.8704  160.7730 C   0  0  0  0  0  0  0  0  0  0  0  0
  151.8366  145.1549  160.5577 C   0  0  0  0  0  0  0  0  0  0  0  0
  151.2328  145.5240  159.4082 N   0  0  0  0  0  0  0  0  0  0  0  0
  151.1384  144.6057  158.4223 C   0  0  0  0  0  0  0  0  0  0  0  0
  147.0322  142.0717  153.7624 C   0  0  0  0  0  0  0  0  0  0  0  0
  145.9917  143.1695  154.0581 C   0  0  0  0  0  0  0  0  0  0  0  0
  145.3842  143.0334  155.4573 C   0  0  0  0  0  0  0  0  0  0  0  0
  144.2476  143.4572  155.6665 O   0  0  0  0  0  0  0  0  0  0  0  0
  144.7673  142.7730  158.0015 H   0  0  0  0  0  0  0  0  0  0  0  0
  146.4643  142.8229  158.4560 H   0  0  0  0  0  0  0  0  0  0  0  0
  145.6974  141.2816  158.0775 H   0  0  0  0  0  0  0  0  0  0  0  0
  149.4285  142.7361  156.9608 H   0  0  0  0  0  0  0  0  0  0  0  0
  149.6612  141.3306  157.9606 H   0  0  0  0  0  0  0  0  0  0  0  0
  152.1054  141.4196  157.6079 H   0  0  0  0  0  0  0  0  0  0  0  0
  151.9424  142.7367  156.4833 H   0  0  0  0  0  0  0  0  0  0  0  0
  152.6742  141.9256  159.8706 H   0  0  0  0  0  0  0  0  0  0  0  0
  152.8500  143.6201  161.7093 H   0  0  0  0  0  0  0  0  0  0  0  0
  151.8960  145.9076  161.3298 H   0  0  0  0  0  0  0  0  0  0  0  0
  150.6442  144.9313  157.5186 H   0  0  0  0  0  0  0  0  0  0  0  0
  147.6475  142.4034  152.9254 H   0  0  0  0  0  0  0  0  0  0  0  0
  146.5306  141.1604  153.4352 H   0  0  0  0  0  0  0  0  0  0  0  0
  146.4668  144.1495  154.0007 H   0  0  0  0  0  0  0  0  0  0  0  0
  145.2041  143.1572  153.3039 H   0  0  0  0  0  0  0  0  0  0  0  0
  1  2  1  0  0  0  0
  1 20  1  0  0  0  0
  1 21  1  0  0  0  0
  1 22  1  0  0  0  0
  2 18  1  0  0  0  0
  2  3  1  0  0  0  0
  3  4  2  0  0  0  0
  4  5  1  0  0  0  0
  4 16  1  0  0  0  0
  5  6  2  0  0  0  0
  5  7  1  0  0  0  0
  7  8  1  0  0  0  0
  8  9  1  0  0  0  0
  8 23  1  0  0  0  0
  8 24  1  0  0  0  0
  9 10  1  0  0  0  0
  9 25  1  0  0  0  0
  9 26  1  0  0  0  0
 10 15  1  0  0  0  0
 10 11  2  0  0  0  0
 11 12  1  0  0  0  0
 11 27  1  0  0  0  0
 12 13  2  0  0  0  0
 12 28  1  0  0  0  0
 13 14  1  0  0  0  0
 13 29  1  0  0  0  0
 14 15  2  0  0  0  0
 15 30  1  0  0  0  0
 16 17  1  0  0  0  0
 16 31  1  0  0  0  0
 16 32  1  0  0  0  0
 17 18  1  0  0  0  0
 17 33  1  0  0  0  0
 17 34  1  0  0  0  0
 18 19  2  0  0  0  0
M  CHG  1   7  -1
M  END
> <s_m_source_file>
AV-unprocessed.smi

> <i_m_source_file_index>
2134

> <i_lp_mmshare_version>
43012

> <i_f3d_flags>
0

> <s_epik_input>
Tz1DMVtDSDJdW0NIMl1DKD1OTjFbQ0gzXSlDKD1PKVtOSF1bQ0gyXVtDSDJdYzJbY0hdW2NIXVtjSF1uW2NIXTI=

> <s_epik_cmdline>
J2VwaWtfcHl0aG9uJywgJy1waCcsICc3LjAnLCAnLXRuJywgJzgnLCAnLW1hJywgJzIwMCcsICctbWV0YWxfYmluZGluZycsICctaW1hZScsICc8aW5maWxlLm1hZT4nLCAnLW9tYWUnLCAnPG91dGZpbGUubWFlPic=

> <r_epik_Ionization_Penalty>
5.39184

> <r_epik_Ionization_Penalty_Charging>
5.3715

> <r_epik_Ionization_Penalty_Neutral>
0.0203369

> <r_epik_State_Penalty>
5.3785

> <r_epik_Charging_Adjusted_Penalty>
10.75

> <i_epik_Tot_Q>
-1

> <i_epik_Tot_abs_Q>
1

> <r_epik_Metal_State_Penalty>
1.41656

> <b_epik_Metal_Only>
1

> <s_epik_Chemistry_Notes>
This compound has an imine and may undergo hydrolysis.

> <s_lp_Force_Field>
OPLS_2005

> <r_lp_Energy>
21.6515

> <b_lp_Chiralities_Consistent>
1

> <s_lp_Variant>
AV-unprocessed.smi:2134-3

> <Gold.Version>
5.8.1

> <Gold.Id.Protein>
6NUR|6NUR_protein|mol2

> <Gold.PLP.Fitness>
44.6904

> <Gold.PLP.PLP>
-38.2051

> <Gold.PLP.part.hbond>
-3.0000

> <Gold.PLP.part.metal>
0.0000

> <Gold.PLP.part.buried>
-7.2100

> <Gold.PLP.part.nonpolar>
-31.3431

> <Gold.PLP.part.repulsive>
4.0917

> <Gold.PLP.ligand.clash>
0.0000

> <Gold.PLP.ligand.torsion>
0.3398

> <Gold.PLP.Chemscore.Hbond>
1.3648

> <Gold.PLP.Chemscore.CHOScore>
1.0003

> <Gold.PLP.Chemscore.Metal>
0.0000

> <Gold.Chemscore.Hbonds>
donor molecule, donor type, donor heavy atom, donor atom, acceptor molecule, acceptor atom, score
      P1  H  7989  7998       L1     6  0.35
      P1  H  8011  8017       L1     6  1.00
      L1  C    15    30       P1  8028  1.00
      L1  C    15    30       P1  8029  0.01

> <Gold.PLP.Chemscore.Internal.Correction>
0.0698

> <Gold.Rescore>
     Score         DG    S(hbond)    S(metal)    S(lipo)     H(rot)  DE(clash)    DE(int)     intcor
     13.24     -16.62       1.14        0.00      93.85       1.42       1.63       1.75       ----

> <Gold.Chemscore.Fitness>
13.2424

> <Gold.Chemscore.DG>
-16.6239

> <Gold.Chemscore.ZeroCoef>
-5.4800

> <Gold.Chemscore.Hbond>
1.1355

> <Gold.Chemscore.Metal>
0.0000

> <Gold.Chemscore.Lipo>
93.8541

> <Gold.Chemscore.Internal_Hbond>
0.0000

> <Gold.Chemscore.DEClash>
1.6303

> <Gold.Chemscore.DEInternal>
1.7511

> <Gold.Chemscore.Rot>
1.4178

> <Gold.Chemscore.Internal.Correction>
   9.000000E+99

> <Gold.Chemscore.Hbonds>
donor molecule, donor type, donor heavy atom, donor atom, acceptor molecule, acceptor atom, score
      P1  H  7989  7998       L1     6  0.23
      P1  H  8011  8017       L1     6  0.90

> <Gold.Chemscore.Hbond.Weighted>
-3.7925

> <Gold.Chemscore.Metal.Weighted>
-0.0000

> <Gold.Chemscore.Lipo.Weighted>
-10.9809

> <Gold.Chemscore.Internal_Hbond.Weighted>
0.0000

> <Gold.Chemscore.DEClash.Weighted>
1.6303

> <Gold.Chemscore.DEInternal.Weighted>
1.7511

> <Gold.Chemscore.Rot.Weighted>
3.6295

> <Gold.Chemscore.Internal.Correction.Weighted>
   9.000000E+99

> <Gold.Protein.RotatedTorsions>
[ 6907 6896 6895 6894 ] final -132.19 input  -60.11 | X-H torsion
[ 7974 7965 7964 7962 ] final -131.47 input  175.53 | X-H torsion
[ 8008 7997 7996 7995 ] final  142.64 input   59.86 | X-H torsion
[ 10167 10162 10161 10158 ] final  166.25 input  -65.29 | X-H torsion
[ 10718 10713 10712 10709 ] final  -72.90 input   66.30 | X-H torsion
[ 10763 10752 10751 10750 ] final   28.81 input  -60.55 | X-H torsion
[ 11005 11000 10999 10996 ] final  -81.65 input  -57.11 | X-H torsion

> <Gold.Protein.ActiveResidues>
 VAL166  LYS551  ARG553  GLY616  TRP617  ASP618  TYR619  PRO620  LYS621  CYS622 
 ASP623  PHE694  ASN695  SER759  ASP760  ASP761  ALA762  ILE779  LEU786  VAL792 
 PHE793  MET794  SER795  GLU796  ALA797  LYS798  CYS799  TRP800  GLU811  SER814 

> <Gold.Protein.RotatedAtoms>
  150.9596  133.6460  159.2756 H   0  0  0  0  0  0  0  0  0  0  0  0  # atno 6907 bound_to 6896
  151.3787  135.0935  159.9499 H   0  0  0  0  0  0  0  0  0  0  0  0  # atno 6908 bound_to 6896
  152.5142  133.9135  159.7554 H   0  0  0  0  0  0  0  0  0  0  0  0  # atno 6909 bound_to 6896
  144.9377  140.7202  143.4866 H   0  0  0  0  0  0  0  0  0  0  0  0  # atno 7974 bound_to 7965
  156.2945  140.2283  156.4760 H   0  0  0  0  0  0  0  0  0  0  0  0  # atno 8008 bound_to 7997
  154.7894  140.0455  157.1210 H   0  0  0  0  0  0  0  0  0  0  0  0  # atno 8009 bound_to 7997
  154.9663  140.3061  155.5011 H   0  0  0  0  0  0  0  0  0  0  0  0  # atno 8010 bound_to 7997
  139.4921  144.4047  151.9369 H   0  0  0  0  0  0  0  0  0  0  0  0  # atno 10167 bound_to 10162
  156.0302  130.4382  150.2661 H   0  0  0  0  0  0  0  0  0  0  0  0  # atno 10718 bound_to 10713
  153.0468  135.6504  154.0795 H   0  0  0  0  0  0  0  0  0  0  0  0  # atno 10763 bound_to 10752
  154.0491  135.2897  155.3345 H   0  0  0  0  0  0  0  0  0  0  0  0  # atno 10764 bound_to 10752
  154.6731  135.5348  153.8230 H   0  0  0  0  0  0  0  0  0  0  0  0  # atno 10765 bound_to 10752
  141.1666  133.7206  156.8454 H   0  0  0  0  0  0  0  0  0  0  0  0  # atno 11005 bound_to 11000
  145.3041  139.1840  143.4674 LP  0  0  0  0  0  0  0  0  0  0  0  0  # atno 17320 bound_to 7965
  146.3273  140.3036  142.8622 LP  0  0  0  0  0  0  0  0  0  0  0  0  # atno 17321 bound_to 7965
  140.3487  144.3115  150.5953 LP  0  0  0  0  0  0  0  0  0  0  0  0  # atno 17342 bound_to 10162
  140.5504  143.2207  151.7937 LP  0  0  0  0  0  0  0  0  0  0  0  0  # atno 17343 bound_to 10162
  157.0764  131.0131  151.3172 LP  0  0  0  0  0  0  0  0  0  0  0  0  # atno 17370 bound_to 10713
  157.4961  130.7851  149.7556 LP  0  0  0  0  0  0  0  0  0  0  0  0  # atno 17371 bound_to 10713
  140.1953  134.8936  157.3108 LP  0  0  0  0  0  0  0  0  0  0  0  0  # atno 17394 bound_to 11000
  140.2245  134.3983  155.7550 LP  0  0  0  0  0  0  0  0  0  0  0  0  # atno 17395 bound_to 11000

$$$$
