AV-unprocessed.smi:2403|AV-procd|sdf|9510|dock9
  -GOLD-   2272013143D 1   1.00000     0.00000
 Structure written by MMmdl.
 48 50  0  0  0  0  0  0  0  0  2 V2000
  147.3161  133.7996  152.2772 C   0  0  0  0  0  0  0  0  0  0  0  0
  145.8879  134.2355  151.9984 C   0  0  0  0  0  0  0  0  0  0  0  0
  144.9185  133.2680  151.6520 C   0  0  0  0  0  0  0  0  0  0  0  0
  143.5953  133.6754  151.3935 C   0  0  0  0  0  0  0  0  0  0  0  0
  143.2687  134.9820  151.4740 N   0  3  0  0  0  0  0  0  0  0  0  0
  144.1598  135.9416  151.8019 C   0  0  0  0  0  0  0  0  0  0  0  0
  145.5051  135.5983  152.0879 C   0  0  0  0  0  0  0  0  0  0  0  0
  146.4898  136.5709  152.4195 N   0  0  0  0  0  0  0  0  0  0  0  0
  146.3228  137.7194  153.0968 C   0  0  0  0  0  0  0  0  0  0  0  0
  145.2526  138.1207  153.5532 O   0  0  0  0  0  0  0  0  0  0  0  0
  147.4907  138.3685  153.2493 N   0  0  0  0  0  0  0  0  0  0  0  0
  147.7342  139.6358  153.9640 C   0  0  0  0  0  0  0  0  0  0  0  0
  149.2456  139.9140  154.2093 C   0  0  0  0  0  0  0  0  0  0  0  0
  149.7625  140.9408  153.7667 O   0  0  0  0  0  0  0  0  0  0  0  0
  149.9542  139.0001  154.8928 N   0  0  0  0  0  0  0  0  0  0  0  0
  151.3681  139.1064  155.2169 C   0  0  0  0  0  0  0  0  0  0  0  0
  151.6879  140.2347  156.1748 C   0  0  0  0  0  0  0  0  0  0  0  0
  150.8985  140.4089  157.4508 C   0  0  0  0  0  0  0  0  0  0  0  0
  150.7528  141.4109  156.3304 C   0  0  0  0  0  0  0  0  0  0  0  0
  147.1513  140.7901  153.1135 C   0  0  0  0  0  0  0  0  0  0  0  0
  146.5786  141.8050  154.1005 C   0  0  0  0  0  0  0  0  0  0  0  0
  146.0073  140.9437  155.2186 C   0  0  0  0  0  0  0  0  0  0  0  0
  146.9096  139.7049  155.2884 C   0  0  0  0  0  0  0  0  0  0  0  0
  147.4223  132.7166  152.2086 H   0  0  0  0  0  0  0  0  0  0  0  0
  147.6188  134.1035  153.2798 H   0  0  0  0  0  0  0  0  0  0  0  0
  147.9992  134.2518  151.5577 H   0  0  0  0  0  0  0  0  0  0  0  0
  145.1827  132.2227  151.5825 H   0  0  0  0  0  0  0  0  0  0  0  0
  142.7958  133.0015  151.1216 H   0  0  0  0  0  0  0  0  0  0  0  0
  143.7616  136.9453  151.8094 H   0  0  0  0  0  0  0  0  0  0  0  0
  147.4411  136.3247  152.1875 H   0  0  0  0  0  0  0  0  0  0  0  0
  148.3079  137.9423  152.8373 H   0  0  0  0  0  0  0  0  0  0  0  0
  149.4710  138.1776  155.2224 H   0  0  0  0  0  0  0  0  0  0  0  0
  151.7115  138.1612  155.6403 H   0  0  0  0  0  0  0  0  0  0  0  0
  151.9357  139.2685  154.2993 H   0  0  0  0  0  0  0  0  0  0  0  0
  152.7514  140.4535  156.2513 H   0  0  0  0  0  0  0  0  0  0  0  0
  150.0650  139.7325  157.6297 H   0  0  0  0  0  0  0  0  0  0  0  0
  151.4427  140.7239  158.3390 H   0  0  0  0  0  0  0  0  0  0  0  0
  151.2011  142.3923  156.4704 H   0  0  0  0  0  0  0  0  0  0  0  0
  149.8231  141.3994  155.7648 H   0  0  0  0  0  0  0  0  0  0  0  0
  147.8820  141.2497  152.4457 H   0  0  0  0  0  0  0  0  0  0  0  0
  146.3402  140.4251  152.4808 H   0  0  0  0  0  0  0  0  0  0  0  0
  147.3767  142.4382  154.4898 H   0  0  0  0  0  0  0  0  0  0  0  0
  145.8293  142.4549  153.6477 H   0  0  0  0  0  0  0  0  0  0  0  0
  145.9560  141.4771  156.1683 H   0  0  0  0  0  0  0  0  0  0  0  0
  144.9928  140.6396  154.9575 H   0  0  0  0  0  0  0  0  0  0  0  0
  146.2872  138.8234  155.4461 H   0  0  0  0  0  0  0  0  0  0  0  0
  147.5542  139.7676  156.1664 H   0  0  0  0  0  0  0  0  0  0  0  0
  142.3069  135.2586  151.2750 H   0  0  0  0  0  0  0  0  0  0  0  0
  1  2  1  0  0  0  0
  1 24  1  0  0  0  0
  1 25  1  0  0  0  0
  1 26  1  0  0  0  0
  2  7  1  0  0  0  0
  2  3  2  0  0  0  0
  3  4  1  0  0  0  0
  3 27  1  0  0  0  0
  4  5  2  0  0  0  0
  4 28  1  0  0  0  0
  5  6  1  0  0  0  0
  5 48  1  0  0  0  0
  6  7  2  0  0  0  0
  6 29  1  0  0  0  0
  7  8  1  0  0  0  0
  8  9  1  0  0  0  0
  8 30  1  0  0  0  0
  9 10  2  0  0  0  0
  9 11  1  0  0  0  0
 11 12  1  0  0  0  0
 11 31  1  0  0  0  0
 12 23  1  0  0  0  0
 12 13  1  0  0  0  0
 12 20  1  0  0  0  0
 13 14  2  0  0  0  0
 13 15  1  0  0  0  0
 15 16  1  0  0  0  0
 15 32  1  0  0  0  0
 16 17  1  0  0  0  0
 16 33  1  0  0  0  0
 16 34  1  0  0  0  0
 17 19  1  0  0  0  0
 17 18  1  0  0  0  0
 17 35  1  0  0  0  0
 18 19  1  0  0  0  0
 18 36  1  0  0  0  0
 18 37  1  0  0  0  0
 19 38  1  0  0  0  0
 19 39  1  0  0  0  0
 20 21  1  0  0  0  0
 20 40  1  0  0  0  0
 20 41  1  0  0  0  0
 21 22  1  0  0  0  0
 21 42  1  0  0  0  0
 21 43  1  0  0  0  0
 22 23  1  0  0  0  0
 22 44  1  0  0  0  0
 22 45  1  0  0  0  0
 23 46  1  0  0  0  0
 23 47  1  0  0  0  0
M  CHG  1   5   1
M  END
> <s_m_source_file>
AV-unprocessed.smi

> <i_m_source_file_index>
2403

> <i_lp_mmshare_version>
43012

> <i_f3d_flags>
0

> <s_epik_input>
W0NIM11jMVtjSF1bY0hdbltjSF1jMVtOSF1DKD1PKVtOSF1DMihbQ0gyXVtDSDJdW0NIMl1bQ0gyXTIpQyg9TylbTkhdW0NIMl1bQ0hdM1tDSDJdW0NIMl0z

> <s_epik_cmdline>
J2VwaWtfcHl0aG9uJywgJy1waCcsICc3LjAnLCAnLXRuJywgJzgnLCAnLW1hJywgJzIwMCcsICctbWV0YWxfYmluZGluZycsICctaW1hZScsICc8aW5maWxlLm1hZT4nLCAnLW9tYWUnLCAnPG91dGZpbGUubWFlPic=

> <r_epik_Ionization_Penalty>
2.03963

> <r_epik_Ionization_Penalty_Charging>
2.03961

> <r_epik_Ionization_Penalty_Neutral>
1.99712e-05

> <r_epik_State_Penalty>
2.17125

> <r_epik_Charging_Adjusted_Penalty>
4.21085

> <i_epik_Tot_Q>
1

> <i_epik_Tot_abs_Q>
1

> <r_epik_Metal_State_Penalty>
2.19001

> <b_epik_Metal_Only>
0

> <s_lp_Force_Field>
OPLS_2005

> <r_lp_Energy>
38.2062

> <b_lp_Chiralities_Consistent>
1

> <s_lp_Variant>
AV-unprocessed.smi:2403-2

> <Gold.Version>
5.8.1

> <Gold.Id.Protein>
6NUR|6NUR_protein|mol2

> <Gold.PLP.Fitness>
42.2393

> <Gold.PLP.PLP>
-33.4993

> <Gold.PLP.part.hbond>
-4.8154

> <Gold.PLP.part.metal>
0.0000

> <Gold.PLP.part.buried>
-3.2531

> <Gold.PLP.part.nonpolar>
-29.4588

> <Gold.PLP.part.repulsive>
3.6794

> <Gold.PLP.ligand.clash>
0.0000

> <Gold.PLP.ligand.torsion>
0.8858

> <Gold.PLP.Chemscore.Hbond>
3.2888

> <Gold.PLP.Chemscore.CHOScore>
0.0000

> <Gold.PLP.Chemscore.Metal>
0.0000

> <Gold.Chemscore.Hbonds>
donor molecule, donor type, donor heavy atom, donor atom, acceptor molecule, acceptor atom, score
      L1  H     8    30       P1  7948  1.00
      L1  H    11    31       P1  7948  0.81
      P1  H  7989  7998       L1    14  0.40
      P1  H  8011  8017       L1    14  0.90

> <Gold.PLP.Chemscore.Internal.Correction>
0.6451

> <Gold.Rescore>
     Score         DG    S(hbond)    S(metal)    S(lipo)     H(rot)  DE(clash)    DE(int)     intcor
     15.65     -21.05       3.19        0.00      77.70       1.63       1.97       3.43       ----

> <Gold.Chemscore.Fitness>
15.6499

> <Gold.Chemscore.DG>
-21.0513

> <Gold.Chemscore.ZeroCoef>
-5.4800

> <Gold.Chemscore.Hbond>
3.1884

> <Gold.Chemscore.Metal>
0.0000

> <Gold.Chemscore.Lipo>
77.7045

> <Gold.Chemscore.Internal_Hbond>
0.0000

> <Gold.Chemscore.DEClash>
1.9700

> <Gold.Chemscore.DEInternal>
3.4315

> <Gold.Chemscore.Rot>
1.6286

> <Gold.Chemscore.Internal.Correction>
   9.000000E+99

> <Gold.Chemscore.Hbonds>
donor molecule, donor type, donor heavy atom, donor atom, acceptor molecule, acceptor atom, score
      L1  H     8    30       P1  7948  0.93
      L1  H    11    31       P1  7948  0.76
      P1  H  7989  7998       L1    14  0.38
      P1  H  8011  8017       L1    14  0.83

> <Gold.Chemscore.Hbond.Weighted>
-10.6491

> <Gold.Chemscore.Metal.Weighted>
-0.0000

> <Gold.Chemscore.Lipo.Weighted>
-9.0914

> <Gold.Chemscore.Internal_Hbond.Weighted>
0.0000

> <Gold.Chemscore.DEClash.Weighted>
1.9700

> <Gold.Chemscore.DEInternal.Weighted>
3.4315

> <Gold.Chemscore.Rot.Weighted>
4.1692

> <Gold.Chemscore.Internal.Correction.Weighted>
   9.000000E+99

> <Gold.Protein.RotatedTorsions>
[ 6907 6896 6895 6894 ] final   39.32 input  -60.11 | X-H torsion
[ 7974 7965 7964 7962 ] final   85.63 input  175.53 | X-H torsion
[ 8008 7997 7996 7995 ] final  114.82 input   59.86 | X-H torsion
[ 10167 10162 10161 10158 ] final  132.19 input  -65.29 | X-H torsion
[ 10718 10713 10712 10709 ] final -143.40 input   66.30 | X-H torsion
[ 10763 10752 10751 10750 ] final  -53.49 input  -60.55 | X-H torsion
[ 11005 11000 10999 10996 ] final  -96.31 input  -57.11 | X-H torsion

> <Gold.Protein.ActiveResidues>
 VAL166  LYS551  ARG553  GLY616  TRP617  ASP618  TYR619  PRO620  LYS621  CYS622 
 ASP623  PHE694  ASN695  SER759  ASP760  ASP761  ALA762  ILE779  LEU786  VAL792 
 PHE793  MET794  SER795  GLU796  ALA797  LYS798  CYS799  TRP800  GLU811  SER814 

> <Gold.Protein.RotatedAtoms>
  152.1680  134.8858  160.0536 H   0  0  0  0  0  0  0  0  0  0  0  0  # atno 6907 bound_to 6896
  151.9829  133.3759  159.4122 H   0  0  0  0  0  0  0  0  0  0  0  0  # atno 6908 bound_to 6896
  150.6897  134.3942  159.5134 H   0  0  0  0  0  0  0  0  0  0  0  0  # atno 6909 bound_to 6896
  145.5830  139.2327  143.2342 H   0  0  0  0  0  0  0  0  0  0  0  0  # atno 7974 bound_to 7965
  156.2344  140.2951  156.0274 H   0  0  0  0  0  0  0  0  0  0  0  0  # atno 8008 bound_to 7997
  155.2133  140.0413  157.2954 H   0  0  0  0  0  0  0  0  0  0  0  0  # atno 8009 bound_to 7997
  154.6053  140.2437  155.7746 H   0  0  0  0  0  0  0  0  0  0  0  0  # atno 8010 bound_to 7997
  139.5350  144.6673  151.4817 H   0  0  0  0  0  0  0  0  0  0  0  0  # atno 10167 bound_to 10162
  156.3575  130.7721  151.1883 H   0  0  0  0  0  0  0  0  0  0  0  0  # atno 10718 bound_to 10713
  154.1597  135.6477  153.4983 H   0  0  0  0  0  0  0  0  0  0  0  0  # atno 10763 bound_to 10752
  153.0114  135.5357  154.6724 H   0  0  0  0  0  0  0  0  0  0  0  0  # atno 10764 bound_to 10752
  154.6034  135.2946  155.0483 H   0  0  0  0  0  0  0  0  0  0  0  0  # atno 10765 bound_to 10752
  141.1415  133.8088  157.0554 H   0  0  0  0  0  0  0  0  0  0  0  0  # atno 11005 bound_to 11000
  146.1702  140.6657  142.9236 LP  0  0  0  0  0  0  0  0  0  0  0  0  # atno 17320 bound_to 7965
  144.7385  140.4877  143.6886 LP  0  0  0  0  0  0  0  0  0  0  0  0  # atno 17321 bound_to 7965
  140.6551  143.8615  150.6827 LP  0  0  0  0  0  0  0  0  0  0  0  0  # atno 17342 bound_to 10162
  140.1992  143.3973  152.1804 LP  0  0  0  0  0  0  0  0  0  0  0  0  # atno 17343 bound_to 10162
  157.7469  131.0409  150.4623 LP  0  0  0  0  0  0  0  0  0  0  0  0  # atno 17370 bound_to 10713
  156.4828  130.4077  149.6451 LP  0  0  0  0  0  0  0  0  0  0  0  0  # atno 17371 bound_to 10713
  140.0605  134.9757  157.1296 LP  0  0  0  0  0  0  0  0  0  0  0  0  # atno 17394 bound_to 11000
  140.3855  134.2241  155.7168 LP  0  0  0  0  0  0  0  0  0  0  0  0  # atno 17395 bound_to 11000

$$$$
