AV-unprocessed.smi:455|AV-procd|sdf|2614|dock6
  -GOLD-   2262023 13D 1   1.00000     0.00000
 Structure written by MMmdl.
 46 47  0  0  0  0  0  0  0  0  1 V2000
  147.0676  134.1132  156.3441 C   0  0  0  0  0  0  0  0  0  0  0  0
  148.0583  135.2962  156.2978 C   0  0  0  0  0  0  0  0  0  0  0  0
  147.3102  136.5264  155.7477 C   0  0  0  0  0  0  0  0  0  0  0  0
  148.5358  135.6175  157.7295 C   0  0  0  0  0  0  0  0  0  0  0  0
  149.2634  135.0093  155.3558 C   0  0  0  0  0  0  0  0  0  0  0  0
  150.3824  136.0620  155.3365 C   0  0  0  0  0  0  0  0  0  0  0  0
  151.2354  136.0828  156.2233 O   0  0  0  0  0  0  0  0  0  0  0  0
  150.3823  136.9110  154.2963 N   0  0  0  0  0  0  0  0  0  0  0  0
  151.3781  137.9483  154.0407 C   0  0  0  0  0  0  0  0  0  0  0  0
  151.6455  138.8576  155.2303 C   0  0  0  0  0  0  0  0  0  0  0  0
  150.9229  140.0571  155.3824 C   0  0  0  0  0  0  0  0  0  0  0  0
  151.1950  140.8869  156.4863 C   0  0  0  0  0  0  0  0  0  0  0  0
  152.1928  140.4997  157.4120 C   0  0  0  0  0  0  0  0  0  0  0  0
  152.4828  141.3174  158.5258 N   0  0  0  0  0  0  0  0  0  0  0  0
  152.6181  140.6226  159.8037 C   0  0  0  0  0  0  0  0  0  0  0  0
  153.2340  141.5569  160.8591 C   0  0  0  0  0  0  0  0  0  0  0  0
  152.4609  142.7482  160.9579 O   0  0  0  0  0  0  0  0  0  0  0  0
  152.4362  143.4665  159.7289 C   0  0  0  0  0  0  0  0  0  0  0  0
  151.7904  142.6001  158.6343 C   0  0  0  0  0  0  0  0  0  0  0  0
  152.8887  139.3454  157.2615 N   0  0  0  0  0  0  0  0  0  0  0  0
  152.6251  138.5547  156.1997 C   0  0  0  0  0  0  0  0  0  0  0  0
  146.1672  134.3750  156.9008 H   0  0  0  0  0  0  0  0  0  0  0  0
  147.4949  133.2377  156.8327 H   0  0  0  0  0  0  0  0  0  0  0  0
  146.7569  133.8159  155.3419 H   0  0  0  0  0  0  0  0  0  0  0  0
  146.9440  136.3493  154.7357 H   0  0  0  0  0  0  0  0  0  0  0  0
  147.9568  137.4039  155.7138 H   0  0  0  0  0  0  0  0  0  0  0  0
  146.4488  136.7810  156.3665 H   0  0  0  0  0  0  0  0  0  0  0  0
  147.7016  135.9111  158.3677 H   0  0  0  0  0  0  0  0  0  0  0  0
  149.2564  136.4358  157.7338 H   0  0  0  0  0  0  0  0  0  0  0  0
  149.0105  134.7578  158.2017 H   0  0  0  0  0  0  0  0  0  0  0  0
  149.7192  134.0567  155.6287 H   0  0  0  0  0  0  0  0  0  0  0  0
  148.8980  134.8736  154.3361 H   0  0  0  0  0  0  0  0  0  0  0  0
  149.6443  136.8167  153.6137 H   0  0  0  0  0  0  0  0  0  0  0  0
  152.3247  137.5162  153.7121 H   0  0  0  0  0  0  0  0  0  0  0  0
  151.0149  138.5489  153.2062 H   0  0  0  0  0  0  0  0  0  0  0  0
  150.1644  140.3395  154.6671 H   0  0  0  0  0  0  0  0  0  0  0  0
  150.6290  141.7972  156.6164 H   0  0  0  0  0  0  0  0  0  0  0  0
  151.6310  140.2923  160.1295 H   0  0  0  0  0  0  0  0  0  0  0  0
  153.2370  139.7307  159.7167 H   0  0  0  0  0  0  0  0  0  0  0  0
  153.2518  141.0638  161.8311 H   0  0  0  0  0  0  0  0  0  0  0  0
  154.2675  141.8005  160.6071 H   0  0  0  0  0  0  0  0  0  0  0  0
  151.8661  144.3853  159.8655 H   0  0  0  0  0  0  0  0  0  0  0  0
  153.4486  143.7591  159.4460 H   0  0  0  0  0  0  0  0  0  0  0  0
  151.8293  143.1318  157.6828 H   0  0  0  0  0  0  0  0  0  0  0  0
  150.7395  142.4249  158.8689 H   0  0  0  0  0  0  0  0  0  0  0  0
  153.2227  137.6594  156.1239 H   0  0  0  0  0  0  0  0  0  0  0  0
  1  2  1  0  0  0  0
  1 22  1  0  0  0  0
  1 23  1  0  0  0  0
  1 24  1  0  0  0  0
  2  3  1  0  0  0  0
  2  4  1  0  0  0  0
  2  5  1  0  0  0  0
  3 25  1  0  0  0  0
  3 26  1  0  0  0  0
  3 27  1  0  0  0  0
  4 28  1  0  0  0  0
  4 29  1  0  0  0  0
  4 30  1  0  0  0  0
  5  6  1  0  0  0  0
  5 31  1  0  0  0  0
  5 32  1  0  0  0  0
  6  7  2  0  0  0  0
  6  8  1  0  0  0  0
  8  9  1  0  0  0  0
  8 33  1  0  0  0  0
  9 10  1  0  0  0  0
  9 34  1  0  0  0  0
  9 35  1  0  0  0  0
 10 21  1  0  0  0  0
 10 11  2  0  0  0  0
 11 12  1  0  0  0  0
 11 36  1  0  0  0  0
 12 13  2  0  0  0  0
 12 37  1  0  0  0  0
 13 14  1  0  0  0  0
 13 20  1  0  0  0  0
 14 19  1  0  0  0  0
 14 15  1  0  0  0  0
 15 16  1  0  0  0  0
 15 38  1  0  0  0  0
 15 39  1  0  0  0  0
 16 17  1  0  0  0  0
 16 40  1  0  0  0  0
 16 41  1  0  0  0  0
 17 18  1  0  0  0  0
 18 19  1  0  0  0  0
 18 42  1  0  0  0  0
 18 43  1  0  0  0  0
 19 44  1  0  0  0  0
 19 45  1  0  0  0  0
 20 21  2  0  0  0  0
 21 46  1  0  0  0  0
M  END
> <s_m_source_file>
AV-unprocessed.smi

> <i_m_source_file_index>
455

> <i_lp_mmshare_version>
43012

> <i_f3d_flags>
0

> <s_epik_input>
W0NIM11DKFtDSDNdKShbQ0gzXSlbQ0gyXUMoPU8pW05IXVtDSDJdYzFbY0hdW2NIXWMobltjSF0xKU4yW0NIMl1bQ0gyXU9bQ0gyXVtDSDJdMg==

> <s_epik_cmdline>
J2VwaWtfcHl0aG9uJywgJy1waCcsICc3LjAnLCAnLXRuJywgJzgnLCAnLW1hJywgJzIwMCcsICctbWV0YWxfYmluZGluZycsICctaW1hZScsICc8aW5maWxlLm1hZT4nLCAnLW9tYWUnLCAnPG91dGZpbGUubWFlPic=

> <r_lp_tautomer_probability>
1

> <r_epik_Ionization_Penalty>
0.00557649

> <r_epik_Ionization_Penalty_Charging>
0

> <r_epik_Ionization_Penalty_Neutral>
0.00557649

> <r_epik_State_Penalty>
0.00408419

> <r_epik_Charging_Adjusted_Penalty>
0.00408419

> <i_epik_Tot_Q>
0

> <i_epik_Tot_abs_Q>
0

> <r_epik_Metal_State_Penalty>
-0

> <b_epik_Metal_Only>
0

> <s_lp_Force_Field>
OPLS_2005

> <r_lp_Energy>
18.1118

> <b_lp_Chiralities_Consistent>
1

> <s_lp_Variant>
AV-unprocessed.smi:455-1

> <Gold.Version>
5.8.1

> <Gold.Id.Protein>
6NUR|6NUR_protein|mol2

> <Gold.PLP.Fitness>
41.4345

> <Gold.PLP.PLP>
-33.9433

> <Gold.PLP.part.hbond>
-4.0000

> <Gold.PLP.part.metal>
0.0000

> <Gold.PLP.part.buried>
-2.7550

> <Gold.PLP.part.nonpolar>
-26.5951

> <Gold.PLP.part.repulsive>
0.1324

> <Gold.PLP.ligand.clash>
0.0000

> <Gold.PLP.ligand.torsion>
0.9278

> <Gold.PLP.Chemscore.Hbond>
3.0000

> <Gold.PLP.Chemscore.CHOScore>
0.0000

> <Gold.PLP.Chemscore.Metal>
0.0000

> <Gold.Chemscore.Hbonds>
donor molecule, donor type, donor heavy atom, donor atom, acceptor molecule, acceptor atom, score
      L1  H     8    33       P1  7948  1.00
      P1  H  7997  8009       L1    20  0.95
      P1  H 10752 10765       L1     7  0.21

> <Gold.PLP.Chemscore.Internal.Correction>
0.3468

> <Gold.Rescore>
     Score         DG    S(hbond)    S(metal)    S(lipo)     H(rot)  DE(clash)    DE(int)     intcor
     16.05     -19.01       2.20        0.00      88.23       1.62       0.03       2.93       ----

> <Gold.Chemscore.Fitness>
16.0546

> <Gold.Chemscore.DG>
-19.0123

> <Gold.Chemscore.ZeroCoef>
-5.4800

> <Gold.Chemscore.Hbond>
2.1998

> <Gold.Chemscore.Metal>
0.0000

> <Gold.Chemscore.Lipo>
88.2327

> <Gold.Chemscore.Internal_Hbond>
0.0000

> <Gold.Chemscore.DEClash>
0.0323

> <Gold.Chemscore.DEInternal>
2.9254

> <Gold.Chemscore.Rot>
1.6164

> <Gold.Chemscore.Internal.Correction>
   9.000000E+99

> <Gold.Chemscore.Hbonds>
donor molecule, donor type, donor heavy atom, donor atom, acceptor molecule, acceptor atom, score
      L1  H     8    33       P1  7948  0.66
      P1  H  7997  8009       L1    20  0.11
      P1  H 10752 10765       L1     7  0.10

> <Gold.Chemscore.Hbond.Weighted>
-7.3472

> <Gold.Chemscore.Metal.Weighted>
-0.0000

> <Gold.Chemscore.Lipo.Weighted>
-10.3232

> <Gold.Chemscore.Internal_Hbond.Weighted>
0.0000

> <Gold.Chemscore.DEClash.Weighted>
0.0323

> <Gold.Chemscore.DEInternal.Weighted>
2.9254

> <Gold.Chemscore.Rot.Weighted>
4.1381

> <Gold.Chemscore.Internal.Correction.Weighted>
   9.000000E+99

> <Gold.Protein.RotatedTorsions>
[ 6907 6896 6895 6894 ] final   -1.99 input  -60.11 | X-H torsion
[ 7974 7965 7964 7962 ] final  -56.47 input  175.53 | X-H torsion
[ 8008 7997 7996 7995 ] final  161.21 input   59.86 | X-H torsion
[ 10167 10162 10161 10158 ] final -113.90 input  -65.29 | X-H torsion
[ 10718 10713 10712 10709 ] final  -98.41 input   66.30 | X-H torsion
[ 10763 10752 10751 10750 ] final -143.86 input  -60.55 | X-H torsion
[ 11005 11000 10999 10996 ] final  -16.16 input  -57.11 | X-H torsion

> <Gold.Protein.ActiveResidues>
 VAL166  LYS551  ARG553  GLY616  TRP617  ASP618  TYR619  PRO620  LYS621  CYS622 
 ASP623  PHE694  ASN695  SER759  ASP760  ASP761  ALA762  ILE779  LEU786  VAL792 
 PHE793  MET794  SER795  GLU796  ALA797  LYS798  CYS799  TRP800  GLU811  SER814 

> <Gold.Protein.RotatedAtoms>
  151.5371  135.1068  159.9916 H   0  0  0  0  0  0  0  0  0  0  0  0  # atno 6907 bound_to 6896
  152.4552  133.7705  159.6806 H   0  0  0  0  0  0  0  0  0  0  0  0  # atno 6908 bound_to 6896
  150.8493  133.7746  159.3056 H   0  0  0  0  0  0  0  0  0  0  0  0  # atno 6909 bound_to 6896
  145.8623  140.8276  142.9930 H   0  0  0  0  0  0  0  0  0  0  0  0  # atno 7974 bound_to 7965
  156.2119  140.1783  156.7676 H   0  0  0  0  0  0  0  0  0  0  0  0  # atno 8008 bound_to 7997
  154.5734  140.0678  156.9028 H   0  0  0  0  0  0  0  0  0  0  0  0  # atno 8009 bound_to 7997
  155.2631  140.3337  155.4274 H   0  0  0  0  0  0  0  0  0  0  0  0  # atno 8010 bound_to 7997
  140.1069  143.4563  152.1777 H   0  0  0  0  0  0  0  0  0  0  0  0  # atno 10167 bound_to 10162
  156.0107  130.5237  150.6518 H   0  0  0  0  0  0  0  0  0  0  0  0  # atno 10718 bound_to 10713
  154.8452  135.3456  154.6255 H   0  0  0  0  0  0  0  0  0  0  0  0  # atno 10763 bound_to 10752
  153.6864  135.6977  153.5107 H   0  0  0  0  0  0  0  0  0  0  0  0  # atno 10764 bound_to 10752
  153.2629  135.4317  155.0867 H   0  0  0  0  0  0  0  0  0  0  0  0  # atno 10765 bound_to 10752
  140.8040  133.8192  155.9497 H   0  0  0  0  0  0  0  0  0  0  0  0  # atno 11005 bound_to 11000
  144.6726  140.1114  143.7455 LP  0  0  0  0  0  0  0  0  0  0  0  0  # atno 17320 bound_to 7965
  145.9233  139.2559  143.1368 LP  0  0  0  0  0  0  0  0  0  0  0  0  # atno 17321 bound_to 7965
  139.5641  144.7424  151.4073 LP  0  0  0  0  0  0  0  0  0  0  0  0  # atno 17342 bound_to 10162
  140.6947  143.7777  150.7309 LP  0  0  0  0  0  0  0  0  0  0  0  0  # atno 17343 bound_to 10162
  157.4278  131.0845  151.1068 LP  0  0  0  0  0  0  0  0  0  0  0  0  # atno 17370 bound_to 10713
  157.1650  130.6242  149.5622 LP  0  0  0  0  0  0  0  0  0  0  0  0  # atno 17371 bound_to 10713
  140.9266  134.2075  157.4892 LP  0  0  0  0  0  0  0  0  0  0  0  0  # atno 17394 bound_to 11000
  139.8719  134.9815  156.5119 LP  0  0  0  0  0  0  0  0  0  0  0  0  # atno 17395 bound_to 11000

$$$$
