AV-unprocessed.smi:1617|AV-procd|sdf|6485|dock9
  -GOLD-   22720 7143D 1   1.00000     0.00000
 Structure written by MMmdl.
 47 49  0  0  0  0  0  0  0  0  1 V2000
  146.3332  138.2353  154.9527 O   0  0  0  0  0  0  0  0  0  0  0  0
  147.1422  137.7804  154.1443 C   0  0  0  0  0  0  0  0  0  0  0  0
  148.4464  138.0986  154.0851 N   0  0  0  0  0  0  0  0  0  0  0  0
  149.1826  138.9741  154.9279 C   0  0  0  0  0  0  0  0  0  0  0  0
  150.5390  139.1997  154.6246 C   0  0  0  0  0  0  0  0  0  0  0  0
  151.2980  140.0493  155.4509 C   0  0  0  0  0  0  0  0  0  0  0  0
  150.6820  140.6508  156.5733 C   0  0  0  0  0  0  0  0  0  0  0  0
  151.4227  141.5087  157.4153 N   0  0  0  0  0  0  0  0  0  0  0  0
  151.0416  142.9184  157.3759 C   0  0  0  0  0  0  0  0  0  0  0  0
  152.1032  143.7801  158.0814 C   0  0  0  0  0  0  0  0  0  0  0  0
  152.3129  143.3005  159.4054 O   0  0  0  0  0  0  0  0  0  0  0  0
  152.7924  141.9599  159.4124 C   0  0  0  0  0  0  0  0  0  0  0  0
  151.7527  141.0346  158.7582 C   0  0  0  0  0  0  0  0  0  0  0  0
  149.3821  140.4156  156.8775 N   0  0  0  0  0  0  0  0  0  0  0  0
  148.6561  139.6031  156.0806 C   0  0  0  0  0  0  0  0  0  0  0  0
  146.8151  136.9014  153.1851 N   0  0  0  0  0  0  0  0  0  0  0  0
  145.4826  136.3302  152.9754 C   0  0  1  0  0  0  0  0  0  0  0  0
  145.5617  135.3996  151.7435 C   0  0  0  0  0  0  0  0  0  0  0  0
  144.2027  135.1496  151.0667 C   0  0  0  0  0  0  0  0  0  0  0  0
  143.1823  134.3848  151.9230 C   0  0  0  0  0  0  0  0  0  0  0  0
  142.7756  135.1244  153.2092 C   0  0  0  0  0  0  0  0  0  0  0  0
  143.7915  135.0179  154.2479 N   0  0  0  0  0  0  0  0  0  0  0  0
  145.0404  135.5063  154.2073 C   0  0  0  0  0  0  0  0  0  0  0  0
  145.8207  135.2947  155.1357 O   0  0  0  0  0  0  0  0  0  0  0  0
  148.9647  137.7035  153.3141 H   0  0  0  0  0  0  0  0  0  0  0  0
  150.9969  138.7292  153.7668 H   0  0  0  0  0  0  0  0  0  0  0  0
  152.3403  140.2159  155.2242 H   0  0  0  0  0  0  0  0  0  0  0  0
  150.9167  143.2758  156.3549 H   0  0  0  0  0  0  0  0  0  0  0  0
  150.0776  143.0350  157.8727 H   0  0  0  0  0  0  0  0  0  0  0  0
  153.0426  143.7702  157.5261 H   0  0  0  0  0  0  0  0  0  0  0  0
  151.7730  144.8178  158.1277 H   0  0  0  0  0  0  0  0  0  0  0  0
  153.7490  141.9013  158.8904 H   0  0  0  0  0  0  0  0  0  0  0  0
  152.9729  141.6520  160.4424 H   0  0  0  0  0  0  0  0  0  0  0  0
  150.8460  141.0044  159.3641 H   0  0  0  0  0  0  0  0  0  0  0  0
  152.1504  140.0199  158.7131 H   0  0  0  0  0  0  0  0  0  0  0  0
  147.6384  139.4494  156.4033 H   0  0  0  0  0  0  0  0  0  0  0  0
  147.5456  136.5816  152.5664 H   0  0  0  0  0  0  0  0  0  0  0  0
  144.7733  137.1392  152.7906 H   0  0  0  0  0  0  0  0  0  0  0  0
  146.2104  135.8563  150.9941 H   0  0  0  0  0  0  0  0  0  0  0  0
  146.0368  134.4507  151.9993 H   0  0  0  0  0  0  0  0  0  0  0  0
  143.7727  136.1025  150.7558 H   0  0  0  0  0  0  0  0  0  0  0  0
  144.3713  134.5880  150.1475 H   0  0  0  0  0  0  0  0  0  0  0  0
  142.2880  134.2248  151.3201 H   0  0  0  0  0  0  0  0  0  0  0  0
  143.5614  133.3905  152.1638 H   0  0  0  0  0  0  0  0  0  0  0  0
  142.5416  136.1707  153.0075 H   0  0  0  0  0  0  0  0  0  0  0  0
  141.8641  134.6774  153.6060 H   0  0  0  0  0  0  0  0  0  0  0  0
  143.5318  134.4951  155.0719 H   0  0  0  0  0  0  0  0  0  0  0  0
  1  2  2  0  0  0  0
  2  3  1  0  0  0  0
  2 16  1  0  0  0  0
  3  4  1  0  0  0  0
  3 25  1  0  0  0  0
  4 15  1  0  0  0  0
  4  5  2  0  0  0  0
  5  6  1  0  0  0  0
  5 26  1  0  0  0  0
  6  7  2  0  0  0  0
  6 27  1  0  0  0  0
  7  8  1  0  0  0  0
  7 14  1  0  0  0  0
  8 13  1  0  0  0  0
  8  9  1  0  0  0  0
  9 10  1  0  0  0  0
  9 28  1  0  0  0  0
  9 29  1  0  0  0  0
 10 11  1  0  0  0  0
 10 30  1  0  0  0  0
 10 31  1  0  0  0  0
 11 12  1  0  0  0  0
 12 13  1  0  0  0  0
 12 32  1  0  0  0  0
 12 33  1  0  0  0  0
 13 34  1  0  0  0  0
 13 35  1  0  0  0  0
 14 15  2  0  0  0  0
 15 36  1  0  0  0  0
 16 17  1  0  0  0  0
 16 37  1  0  0  0  0
 17 23  1  0  0  0  0
 17 18  1  0  0  0  0
 17 38  1  0  0  0  0
 18 19  1  0  0  0  0
 18 39  1  0  0  0  0
 18 40  1  0  0  0  0
 19 20  1  0  0  0  0
 19 41  1  0  0  0  0
 19 42  1  0  0  0  0
 20 21  1  0  0  0  0
 20 43  1  0  0  0  0
 20 44  1  0  0  0  0
 21 22  1  0  0  0  0
 21 45  1  0  0  0  0
 21 46  1  0  0  0  0
 22 23  1  0  0  0  0
 22 47  1  0  0  0  0
 23 24  2  0  0  0  0
M  END
> <s_m_source_file>
AV-unprocessed.smi

> <i_m_source_file_index>
1617

> <i_lp_mmshare_version>
43012

> <i_f3d_flags>
0

> <s_epik_input>
Tz1DMVtOSF1bQ0gyXVtDSDJdW0NIMl1bQ0gyXVtDQEhdMVtOSF1DKD1PKVtOSF1jMltjSF1bY0hdYyhuW2NIXTIpTjNbQ0gyXVtDSDJdT1tDSDJdW0NIMl0z

> <s_epik_cmdline>
J2VwaWtfcHl0aG9uJywgJy1waCcsICc3LjAnLCAnLXRuJywgJzgnLCAnLW1hJywgJzIwMCcsICctbWV0YWxfYmluZGluZycsICctaW1hZScsICc8aW5maWxlLm1hZT4nLCAnLW9tYWUnLCAnPG91dGZpbGUubWFlPic=

> <r_lp_tautomer_probability>
1

> <r_epik_Ionization_Penalty>
0.00171733

> <r_epik_Ionization_Penalty_Charging>
0

> <r_epik_Ionization_Penalty_Neutral>
0.00171733

> <r_epik_State_Penalty>
0.00113787

> <r_epik_Charging_Adjusted_Penalty>
0.00113787

> <i_epik_Tot_Q>
0

> <i_epik_Tot_abs_Q>
0

> <r_epik_Metal_State_Penalty>
-0

> <b_epik_Metal_Only>
0

> <s_lp_Force_Field>
OPLS_2005

> <r_lp_Energy>
26.8457

> <b_lp_Chiralities_Consistent>
1

> <s_lp_Variant>
AV-unprocessed.smi:1617-2

> <Gold.Version>
5.8.1

> <Gold.Id.Protein>
6NUR|6NUR_protein|mol2

> <Gold.PLP.Fitness>
39.6246

> <Gold.PLP.PLP>
-33.9273

> <Gold.PLP.part.hbond>
-2.0000

> <Gold.PLP.part.metal>
0.0000

> <Gold.PLP.part.buried>
-4.5946

> <Gold.PLP.part.nonpolar>
-28.1243

> <Gold.PLP.part.repulsive>
0.1464

> <Gold.PLP.ligand.clash>
0.0000

> <Gold.PLP.ligand.torsion>
0.1776

> <Gold.PLP.Chemscore.Hbond>
1.9040

> <Gold.PLP.Chemscore.CHOScore>
0.0000

> <Gold.PLP.Chemscore.Metal>
0.0000

> <Gold.Chemscore.Hbonds>
donor molecule, donor type, donor heavy atom, donor atom, acceptor molecule, acceptor atom, score
      L1  H     3    25       P1  7948  0.87
      L1  H    16    37       P1  7948  1.00

> <Gold.PLP.Chemscore.Internal.Correction>
0.3405

> <Gold.Rescore>
     Score         DG    S(hbond)    S(metal)    S(lipo)     H(rot)  DE(clash)    DE(int)     intcor
     18.36     -20.24       2.56        0.00      80.76       1.27       0.12       1.76       ----

> <Gold.Chemscore.Fitness>
18.3615

> <Gold.Chemscore.DG>
-20.2437

> <Gold.Chemscore.ZeroCoef>
-5.4800

> <Gold.Chemscore.Hbond>
2.5635

> <Gold.Chemscore.Metal>
0.0000

> <Gold.Chemscore.Lipo>
80.7569

> <Gold.Chemscore.Internal_Hbond>
0.0000

> <Gold.Chemscore.DEClash>
0.1220

> <Gold.Chemscore.DEInternal>
1.7602

> <Gold.Chemscore.Rot>
1.2684

> <Gold.Chemscore.Internal.Correction>
   9.000000E+99

> <Gold.Chemscore.Hbonds>
donor molecule, donor type, donor heavy atom, donor atom, acceptor molecule, acceptor atom, score
      L1  H     3    25       P1  7948  0.82
      L1  H    16    37       P1  7948  0.99

> <Gold.Chemscore.Hbond.Weighted>
-8.5622

> <Gold.Chemscore.Metal.Weighted>
-0.0000

> <Gold.Chemscore.Lipo.Weighted>
-9.4486

> <Gold.Chemscore.Internal_Hbond.Weighted>
0.0000

> <Gold.Chemscore.DEClash.Weighted>
0.1220

> <Gold.Chemscore.DEInternal.Weighted>
1.7602

> <Gold.Chemscore.Rot.Weighted>
3.2471

> <Gold.Chemscore.Internal.Correction.Weighted>
   9.000000E+99

> <Gold.Protein.RotatedTorsions>
[ 6907 6896 6895 6894 ] final  110.82 input  -60.11 | X-H torsion
[ 7974 7965 7964 7962 ] final  -30.90 input  175.53 | X-H torsion
[ 8008 7997 7996 7995 ] final -109.18 input   59.86 | X-H torsion
[ 10167 10162 10161 10158 ] final   63.81 input  -65.29 | X-H torsion
[ 10718 10713 10712 10709 ] final  -28.90 input   66.30 | X-H torsion
[ 10763 10752 10751 10750 ] final   36.26 input  -60.55 | X-H torsion
[ 11005 11000 10999 10996 ] final -166.02 input  -57.11 | X-H torsion

> <Gold.Protein.ActiveResidues>
 VAL166  LYS551  ARG553  GLY616  TRP617  ASP618  TYR619  PRO620  LYS621  CYS622 
 ASP623  PHE694  ASN695  SER759  ASP760  ASP761  ALA762  ILE779  LEU786  VAL792 
 PHE793  MET794  SER795  GLU796  ALA797  LYS798  CYS799  TRP800  GLU811  SER814 

> <Gold.Protein.RotatedAtoms>
  152.5001  133.8746  159.7315 H   0  0  0  0  0  0  0  0  0  0  0  0  # atno 6907 bound_to 6896
  150.9224  133.6855  159.2836 H   0  0  0  0  0  0  0  0  0  0  0  0  # atno 6908 bound_to 6896
  151.4228  135.1004  159.9671 H   0  0  0  0  0  0  0  0  0  0  0  0  # atno 6909 bound_to 6896
  146.1108  140.5599  142.8779 H   0  0  0  0  0  0  0  0  0  0  0  0  # atno 7974 bound_to 7965
  154.9554  140.0400  157.2164 H   0  0  0  0  0  0  0  0  0  0  0  0  # atno 8008 bound_to 7997
  154.7939  140.2840  155.5949 H   0  0  0  0  0  0  0  0  0  0  0  0  # atno 8009 bound_to 7997
  156.2953  140.2568  156.2792 H   0  0  0  0  0  0  0  0  0  0  0  0  # atno 8010 bound_to 7997
  140.1290  144.4660  150.6876 H   0  0  0  0  0  0  0  0  0  0  0  0  # atno 10167 bound_to 10162
  156.4193  130.4423  149.7195 H   0  0  0  0  0  0  0  0  0  0  0  0  # atno 10718 bound_to 10713
  153.0084  135.6310  154.1958 H   0  0  0  0  0  0  0  0  0  0  0  0  # atno 10763 bound_to 10752
  154.1701  135.2819  155.3085 H   0  0  0  0  0  0  0  0  0  0  0  0  # atno 10764 bound_to 10752
  154.5915  135.5616  153.7343 H   0  0  0  0  0  0  0  0  0  0  0  0  # atno 10765 bound_to 10752
  140.5692  134.5255  157.5158 H   0  0  0  0  0  0  0  0  0  0  0  0  # atno 11005 bound_to 11000
  144.7510  140.5190  143.6802 LP  0  0  0  0  0  0  0  0  0  0  0  0  # atno 17320 bound_to 7965
  145.5667  139.1481  143.3311 LP  0  0  0  0  0  0  0  0  0  0  0  0  # atno 17321 bound_to 7965
  140.6828  143.2335  151.5340 LP  0  0  0  0  0  0  0  0  0  0  0  0  # atno 17342 bound_to 10162
  139.5529  144.2349  152.1562 LP  0  0  0  0  0  0  0  0  0  0  0  0  # atno 17343 bound_to 10162
  156.4143  130.7737  151.2752 LP  0  0  0  0  0  0  0  0  0  0  0  0  # atno 17370 bound_to 10713
  157.7508  131.0202  150.3699 LP  0  0  0  0  0  0  0  0  0  0  0  0  # atno 17371 bound_to 10713
  139.9370  134.7857  156.0777 LP  0  0  0  0  0  0  0  0  0  0  0  0  # atno 17394 bound_to 11000
  141.1067  133.6657  156.2880 LP  0  0  0  0  0  0  0  0  0  0  0  0  # atno 17395 bound_to 11000

$$$$
