AV-unprocessed.smi:522|AV-procd|sdf|2801|dock5
  -GOLD-   2262023273D 1   1.00000     0.00000
 Structure written by MMmdl.
 41 42  0  0  0  0  0  0  0  0  1 V2000
  151.8994  145.8253  160.3713 C   0  0  0  0  0  0  0  0  0  0  0  0
  150.9918  144.8732  159.8449 O   0  0  0  0  0  0  0  0  0  0  0  0
  151.3617  144.4435  158.5444 C   0  0  0  0  0  0  0  0  0  0  0  0
  152.7097  143.7117  158.5913 C   0  0  0  0  0  0  0  0  0  0  0  0
  152.5448  142.2707  158.7142 N   0  0  0  0  0  0  0  0  0  0  0  0
  151.7135  141.4562  158.0177 C   0  0  0  0  0  0  0  0  0  0  0  0
  150.6353  142.0810  156.7635 S   0  0  0  0  0  0  0  0  0  0  0  0
  149.0455  141.4232  157.3556 C   0  0  0  0  0  0  0  0  0  0  0  0
  147.9173  141.7050  156.3607 C   0  0  0  0  0  0  0  0  0  0  0  0
  146.9778  142.4013  156.7472 O   0  0  0  0  0  0  0  0  0  0  0  0
  148.0346  141.1164  154.9979 C   0  0  0  0  0  0  0  0  0  0  0  0
  149.2765  140.5883  154.5287 C   0  0  0  0  0  0  0  0  0  0  0  0
  150.2856  140.1751  154.1392 N   0  0  0  0  0  0  0  0  0  0  0  0
  146.9785  141.0491  154.1436 C   0  0  0  0  0  0  0  0  0  0  0  0
  147.1039  140.4475  152.7520 C   0  0  0  0  0  0  0  0  0  0  0  0
  145.6952  141.4988  154.4078 N   0  0  0  0  0  0  0  0  0  0  0  0
  151.7791  140.1621  158.3365 N   0  0  0  0  0  0  0  0  0  0  0  0
  152.7228  140.1392  159.3436 C   0  0  0  0  0  0  0  0  0  0  0  0
  153.2295  139.0616  160.1045 C   0  0  0  0  0  0  0  0  0  0  0  0
  154.2060  139.2861  161.0969 C   0  0  0  0  0  0  0  0  0  0  0  0
  154.6899  140.5878  161.3408 C   0  0  0  0  0  0  0  0  0  0  0  0
  154.1987  141.6751  160.5928 C   0  0  0  0  0  0  0  0  0  0  0  0
  153.2230  141.4452  159.6044 C   0  0  0  0  0  0  0  0  0  0  0  0
  151.5728  146.1402  161.3609 H   0  0  0  0  0  0  0  0  0  0  0  0
  151.9518  146.7125  159.7393 H   0  0  0  0  0  0  0  0  0  0  0  0
  152.9006  145.4033  160.4678 H   0  0  0  0  0  0  0  0  0  0  0  0
  150.5973  143.7777  158.1412 H   0  0  0  0  0  0  0  0  0  0  0  0
  151.4300  145.3022  157.8744 H   0  0  0  0  0  0  0  0  0  0  0  0
  153.3004  143.9428  157.7053 H   0  0  0  0  0  0  0  0  0  0  0  0
  153.2923  144.0647  159.4427 H   0  0  0  0  0  0  0  0  0  0  0  0
  149.1399  140.3462  157.4950 H   0  0  0  0  0  0  0  0  0  0  0  0
  148.8030  141.8448  158.3310 H   0  0  0  0  0  0  0  0  0  0  0  0
  147.8423  140.9957  152.1659 H   0  0  0  0  0  0  0  0  0  0  0  0
  146.1595  140.4762  152.2062 H   0  0  0  0  0  0  0  0  0  0  0  0
  147.4201  139.4055  152.8143 H   0  0  0  0  0  0  0  0  0  0  0  0
  145.4472  141.9248  155.2894 H   0  0  0  0  0  0  0  0  0  0  0  0
  144.9511  141.4058  153.7297 H   0  0  0  0  0  0  0  0  0  0  0  0
  152.8658  138.0608  159.9248 H   0  0  0  0  0  0  0  0  0  0  0  0
  154.5858  138.4554  161.6735 H   0  0  0  0  0  0  0  0  0  0  0  0
  155.4380  140.7509  162.1028 H   0  0  0  0  0  0  0  0  0  0  0  0
  154.5664  142.6737  160.7772 H   0  0  0  0  0  0  0  0  0  0  0  0
  1  2  1  0  0  0  0
  1 24  1  0  0  0  0
  1 25  1  0  0  0  0
  1 26  1  0  0  0  0
  2  3  1  0  0  0  0
  3  4  1  0  0  0  0
  3 27  1  0  0  0  0
  3 28  1  0  0  0  0
  4  5  1  0  0  0  0
  4 29  1  0  0  0  0
  4 30  1  0  0  0  0
  5 23  1  0  0  0  0
  5  6  1  0  0  0  0
  6  7  1  0  0  0  0
  6 17  2  0  0  0  0
  7  8  1  0  0  0  0
  8  9  1  0  0  0  0
  8 31  1  0  0  0  0
  8 32  1  0  0  0  0
  9 10  2  0  0  0  0
  9 11  1  0  0  0  0
 11 12  1  0  0  0  0
 11 14  2  0  0  0  0
 12 13  3  0  0  0  0
 14 15  1  0  0  0  0
 14 16  1  0  0  0  0
 15 33  1  0  0  0  0
 15 34  1  0  0  0  0
 15 35  1  0  0  0  0
 16 36  1  0  0  0  0
 16 37  1  0  0  0  0
 17 18  1  0  0  0  0
 18 23  2  0  0  0  0
 18 19  1  0  0  0  0
 19 20  2  0  0  0  0
 19 38  1  0  0  0  0
 20 21  1  0  0  0  0
 20 39  1  0  0  0  0
 21 22  2  0  0  0  0
 21 40  1  0  0  0  0
 22 23  1  0  0  0  0
 22 41  1  0  0  0  0
M  END
> <s_m_source_file>
AV-unprocessed.smi

> <i_m_source_file_index>
522

> <i_lp_mmshare_version>
43012

> <i_f3d_flags>
0

> <s_epik_input>
W2NIXTFbY0hdW2NIXVtjSF1jKGMxMiluKFtDSDJdW0NIMl1PW0NIM10pYyhuMilTW0NIMl1DKD1PKS9DKEMjTik9QygvW0NIM10pW05IMl0=

> <s_epik_cmdline>
J2VwaWtfcHl0aG9uJywgJy1waCcsICc3LjAnLCAnLXRuJywgJzgnLCAnLW1hJywgJzIwMCcsICctbWV0YWxfYmluZGluZycsICctaW1hZScsICc8aW5maWxlLm1hZT4nLCAnLW9tYWUnLCAnPG91dGZpbGUubWFlPic=

> <r_lp_tautomer_probability>
0.5

> <r_epik_Ionization_Penalty>
0.0129021

> <r_epik_Ionization_Penalty_Charging>
0

> <r_epik_Ionization_Penalty_Neutral>
0.0129021

> <r_epik_State_Penalty>
0.42069

> <r_epik_Charging_Adjusted_Penalty>
0.42069

> <i_epik_Tot_Q>
0

> <i_epik_Tot_abs_Q>
0

> <r_epik_Metal_State_Penalty>
0.41068

> <b_epik_Metal_Only>
0

> <s_lp_Force_Field>
OPLS_2005

> <r_lp_Energy>
14.5632

> <b_lp_Chiralities_Consistent>
1

> <s_lp_Variant>
AV-unprocessed.smi:522-1

> <Gold.Version>
5.8.1

> <Gold.Id.Protein>
6NUR|6NUR_protein|mol2

> <Gold.PLP.Fitness>
50.3385

> <Gold.PLP.PLP>
-45.2890

> <Gold.PLP.part.hbond>
-2.0000

> <Gold.PLP.part.metal>
0.0000

> <Gold.PLP.part.buried>
-5.0071

> <Gold.PLP.part.nonpolar>
-39.8814

> <Gold.PLP.part.repulsive>
0.9236

> <Gold.PLP.ligand.clash>
0.0000

> <Gold.PLP.ligand.torsion>
0.5257

> <Gold.PLP.Chemscore.Hbond>
2.0000

> <Gold.PLP.Chemscore.CHOScore>
0.0000

> <Gold.PLP.Chemscore.Metal>
0.0000

> <Gold.Chemscore.Hbonds>
donor molecule, donor type, donor heavy atom, donor atom, acceptor molecule, acceptor atom, score
      L1  H    16    37       P1 10175  1.00
      P1  H  7989  7998       L1    13  1.00

> <Gold.PLP.Chemscore.Internal.Correction>
0.1008

> <Gold.Rescore>
     Score         DG    S(hbond)    S(metal)    S(lipo)     H(rot)  DE(clash)    DE(int)     intcor
     19.06     -19.62       1.93        0.00     116.81       2.33       0.14       0.41       ----

> <Gold.Chemscore.Fitness>
19.0648

> <Gold.Chemscore.DG>
-19.6167

> <Gold.Chemscore.ZeroCoef>
-5.4800

> <Gold.Chemscore.Hbond>
1.9251

> <Gold.Chemscore.Metal>
0.0000

> <Gold.Chemscore.Lipo>
116.8106

> <Gold.Chemscore.Internal_Hbond>
0.0000

> <Gold.Chemscore.DEClash>
0.1423

> <Gold.Chemscore.DEInternal>
0.4095

> <Gold.Chemscore.Rot>
2.3280

> <Gold.Chemscore.Internal.Correction>
   9.000000E+99

> <Gold.Chemscore.Hbonds>
donor molecule, donor type, donor heavy atom, donor atom, acceptor molecule, acceptor atom, score
      L1  H    16    37       P1 10175  0.25
      P1  H  7989  7998       L1    13  0.94

> <Gold.Chemscore.Hbond.Weighted>
-6.4297

> <Gold.Chemscore.Metal.Weighted>
-0.0000

> <Gold.Chemscore.Lipo.Weighted>
-13.6668

> <Gold.Chemscore.Internal_Hbond.Weighted>
0.0000

> <Gold.Chemscore.DEClash.Weighted>
0.1423

> <Gold.Chemscore.DEInternal.Weighted>
0.4095

> <Gold.Chemscore.Rot.Weighted>
5.9598

> <Gold.Chemscore.Internal.Correction.Weighted>
   9.000000E+99

> <Gold.Protein.RotatedTorsions>
[ 6907 6896 6895 6894 ] final -173.23 input  -60.11 | X-H torsion
[ 7974 7965 7964 7962 ] final  -36.77 input  175.53 | X-H torsion
[ 8008 7997 7996 7995 ] final  160.32 input   59.86 | X-H torsion
[ 10167 10162 10161 10158 ] final  -61.92 input  -65.29 | X-H torsion
[ 10718 10713 10712 10709 ] final -143.67 input   66.30 | X-H torsion
[ 10763 10752 10751 10750 ] final  -69.47 input  -60.55 | X-H torsion
[ 11005 11000 10999 10996 ] final -159.04 input  -57.11 | X-H torsion

> <Gold.Protein.ActiveResidues>
 VAL166  LYS551  ARG553  GLY616  TRP617  ASP618  TYR619  PRO620  LYS621  CYS622 
 ASP623  PHE694  ASN695  SER759  ASP760  ASP761  ALA762  ILE779  LEU786  VAL792 
 PHE793  MET794  SER795  GLU796  ALA797  LYS798  CYS799  TRP800  GLU811  SER814 

> <Gold.Protein.RotatedAtoms>
  151.5528  133.3415  159.2955 H   0  0  0  0  0  0  0  0  0  0  0  0  # atno 6907 bound_to 6896
  150.8469  134.7783  159.6988 H   0  0  0  0  0  0  0  0  0  0  0  0  # atno 6908 bound_to 6896
  152.4524  134.5372  159.9880 H   0  0  0  0  0  0  0  0  0  0  0  0  # atno 6909 bound_to 6896
  146.0633  140.6318  142.8987 H   0  0  0  0  0  0  0  0  0  0  0  0  # atno 7974 bound_to 7965
  156.2180  140.1807  156.7544 H   0  0  0  0  0  0  0  0  0  0  0  0  # atno 8008 bound_to 7997
  154.5821  140.0664  156.9148 H   0  0  0  0  0  0  0  0  0  0  0  0  # atno 8009 bound_to 7997
  155.2484  140.3327  155.4287 H   0  0  0  0  0  0  0  0  0  0  0  0  # atno 8010 bound_to 7997
  140.5974  143.2354  151.6005 H   0  0  0  0  0  0  0  0  0  0  0  0  # atno 10167 bound_to 10162
  156.3607  130.7737  151.1904 H   0  0  0  0  0  0  0  0  0  0  0  0  # atno 10718 bound_to 10713
  154.4039  135.6024  153.5913 H   0  0  0  0  0  0  0  0  0  0  0  0  # atno 10763 bound_to 10752
  152.9788  135.5913  154.4151 H   0  0  0  0  0  0  0  0  0  0  0  0  # atno 10764 bound_to 10752
  154.3954  135.2842  155.2108 H   0  0  0  0  0  0  0  0  0  0  0  0  # atno 10765 bound_to 10752
  140.6469  134.4491  157.5234 H   0  0  0  0  0  0  0  0  0  0  0  0  # atno 11005 bound_to 11000
  144.7187  140.4300  143.7024 LP  0  0  0  0  0  0  0  0  0  0  0  0  # atno 17320 bound_to 7965
  145.6522  139.1567  143.2855 LP  0  0  0  0  0  0  0  0  0  0  0  0  # atno 17321 bound_to 7965
  139.5267  144.3037  152.1052 LP  0  0  0  0  0  0  0  0  0  0  0  0  # atno 17342 bound_to 10162
  140.2211  144.4465  150.6341 LP  0  0  0  0  0  0  0  0  0  0  0  0  # atno 17343 bound_to 10162
  157.7473  131.0401  150.4580 LP  0  0  0  0  0  0  0  0  0  0  0  0  # atno 17370 bound_to 10713
  156.4791  130.4069  149.6472 LP  0  0  0  0  0  0  0  0  0  0  0  0  # atno 17371 bound_to 10713
  139.9060  134.8449  156.1707 LP  0  0  0  0  0  0  0  0  0  0  0  0  # atno 17394 bound_to 11000
  141.0565  133.6862  156.1871 LP  0  0  0  0  0  0  0  0  0  0  0  0  # atno 17395 bound_to 11000

$$$$
