AV-unprocessed.smi:2340|AV-procd|sdf|9344|dock4
  -GOLD-   2272012563D 1   1.00000     0.00000
 Structure written by MMmdl.
 40 41  0  0  0  0  0  0  0  0  1 V2000
  144.0473  132.0198  149.7791 C   0  0  0  0  0  0  0  0  0  0  0  0
  144.7878  132.8941  150.7415 C   0  0  0  0  0  0  0  0  0  0  0  0
  146.0895  132.7529  151.1523 C   0  0  0  0  0  0  0  0  0  0  0  0
  146.5482  133.9872  152.2923 S   0  0  0  0  0  0  0  0  0  0  0  0
  144.9295  134.6703  152.1591 C   0  0  0  0  0  0  0  0  0  0  0  0
  144.4691  135.8688  152.9341 C   0  0  2  0  0  0  0  0  0  0  0  0
  142.9418  135.8978  153.0890 C   0  0  0  0  0  0  0  0  0  0  0  0
  145.0252  137.1888  152.3661 C   0  0  0  0  0  0  0  0  0  0  0  0
  146.4279  137.3707  152.7209 N   0  0  0  0  0  0  0  0  0  0  0  0
  146.8817  138.2678  153.6038 C   0  0  0  0  0  0  0  0  0  0  0  0
  146.1601  139.0342  154.2421 O   0  0  0  0  0  0  0  0  0  0  0  0
  148.2167  138.2287  153.7042 N   0  0  0  0  0  0  0  0  0  0  0  0
  149.0176  139.0738  154.5836 C   0  0  2  0  0  0  0  0  0  0  0  0
  148.7351  140.5437  154.3513 C   0  0  0  0  0  0  0  0  0  0  0  0
  150.0130  141.1952  154.8670 C   0  0  0  0  0  0  0  0  0  0  0  0
  151.0579  140.2651  154.6031 O   0  0  0  0  0  0  0  0  0  0  0  0
  150.5157  138.9922  154.2599 C   0  0  1  0  0  0  0  0  0  0  0  0
  151.2652  137.8815  155.0060 C   0  0  0  0  0  0  0  0  0  0  0  0
  144.1414  133.9887  151.3224 N   0  0  0  0  0  0  0  0  0  0  0  0
  144.6528  131.1688  149.4662 H   0  0  0  0  0  0  0  0  0  0  0  0
  143.7662  132.5722  148.8823 H   0  0  0  0  0  0  0  0  0  0  0  0
  143.1342  131.6266  150.2265 H   0  0  0  0  0  0  0  0  0  0  0  0
  146.8037  131.9982  150.8575 H   0  0  0  0  0  0  0  0  0  0  0  0
  144.8777  135.7654  153.9409 H   0  0  0  0  0  0  0  0  0  0  0  0
  142.5792  134.9857  153.5641 H   0  0  0  0  0  0  0  0  0  0  0  0
  142.4447  135.9908  152.1230 H   0  0  0  0  0  0  0  0  0  0  0  0
  142.6269  136.7397  153.7060 H   0  0  0  0  0  0  0  0  0  0  0  0
  144.9237  137.1902  151.2792 H   0  0  0  0  0  0  0  0  0  0  0  0
  144.4488  138.0361  152.7399 H   0  0  0  0  0  0  0  0  0  0  0  0
  147.0987  136.7843  152.2456 H   0  0  0  0  0  0  0  0  0  0  0  0
  148.7172  137.5631  153.1339 H   0  0  0  0  0  0  0  0  0  0  0  0
  148.8387  138.8414  155.6356 H   0  0  0  0  0  0  0  0  0  0  0  0
  148.6213  140.7507  153.2857 H   0  0  0  0  0  0  0  0  0  0  0  0
  147.8404  140.8964  154.8651 H   0  0  0  0  0  0  0  0  0  0  0  0
  150.2087  142.1605  154.3995 H   0  0  0  0  0  0  0  0  0  0  0  0
  149.9508  141.3469  155.9452 H   0  0  0  0  0  0  0  0  0  0  0  0
  150.6545  138.8689  153.1844 H   0  0  0  0  0  0  0  0  0  0  0  0
  150.8814  136.8976  154.7363 H   0  0  0  0  0  0  0  0  0  0  0  0
  151.1671  137.9955  156.0858 H   0  0  0  0  0  0  0  0  0  0  0  0
  152.3276  137.8992  154.7634 H   0  0  0  0  0  0  0  0  0  0  0  0
  1  2  1  0  0  0  0
  1 20  1  0  0  0  0
  1 21  1  0  0  0  0
  1 22  1  0  0  0  0
  2 19  1  0  0  0  0
  2  3  2  0  0  0  0
  3  4  1  0  0  0  0
  3 23  1  0  0  0  0
  4  5  1  0  0  0  0
  5  6  1  0  0  0  0
  5 19  2  0  0  0  0
  6  7  1  0  0  0  0
  6  8  1  0  0  0  0
  6 24  1  0  0  0  0
  7 25  1  0  0  0  0
  7 26  1  0  0  0  0
  7 27  1  0  0  0  0
  8  9  1  0  0  0  0
  8 28  1  0  0  0  0
  8 29  1  0  0  0  0
  9 10  1  0  0  0  0
  9 30  1  0  0  0  0
 10 11  2  0  0  0  0
 10 12  1  0  0  0  0
 12 13  1  0  0  0  0
 12 31  1  0  0  0  0
 13 17  1  0  0  0  0
 13 14  1  0  0  0  0
 13 32  1  0  0  0  0
 14 15  1  0  0  0  0
 14 33  1  0  0  0  0
 14 34  1  0  0  0  0
 15 16  1  0  0  0  0
 15 35  1  0  0  0  0
 15 36  1  0  0  0  0
 16 17  1  0  0  0  0
 17 18  1  0  0  0  0
 17 37  1  0  0  0  0
 18 38  1  0  0  0  0
 18 39  1  0  0  0  0
 18 40  1  0  0  0  0
M  END
> <s_m_source_file>
AV-unprocessed.smi

> <i_m_source_file_index>
2340

> <i_lp_mmshare_version>
43012

> <i_f3d_flags>
0

> <s_epik_input>
W0NIM11jMVtjSF1zYyhuMSlbQ0BIXShbQ0gzXSlbQ0gyXVtOSF1DKD1PKVtOSF1bQ0BASF0yW0NIMl1bQ0gyXU9bQ0BIXTJbQ0gzXQ==

> <s_epik_cmdline>
J2VwaWtfcHl0aG9uJywgJy1waCcsICc3LjAnLCAnLXRuJywgJzgnLCAnLW1hJywgJzIwMCcsICctbWV0YWxfYmluZGluZycsICctaW1hZScsICc8aW5maWxlLm1hZT4nLCAnLW9tYWUnLCAnPG91dGZpbGUubWFlPic=

> <r_epik_Ionization_Penalty>
0.00156622

> <r_epik_Ionization_Penalty_Charging>
0

> <r_epik_Ionization_Penalty_Neutral>
0.00156622

> <r_epik_State_Penalty>
0.00101902

> <r_epik_Charging_Adjusted_Penalty>
0.00101902

> <i_epik_Tot_Q>
0

> <i_epik_Tot_abs_Q>
0

> <r_epik_Metal_State_Penalty>
-0

> <b_epik_Metal_Only>
0

> <s_lp_Force_Field>
OPLS_2005

> <r_lp_Energy>
4.8577

> <b_lp_Chiralities_Consistent>
1

> <s_lp_Variant>
AV-unprocessed.smi:2340-1

> <Gold.Version>
5.8.1

> <Gold.Id.Protein>
6NUR|6NUR_protein|mol2

> <Gold.PLP.Fitness>
42.6920

> <Gold.PLP.PLP>
-32.2474

> <Gold.PLP.part.hbond>
-3.0251

> <Gold.PLP.part.metal>
0.0000

> <Gold.PLP.part.buried>
-1.0747

> <Gold.PLP.part.nonpolar>
-27.9577

> <Gold.PLP.part.repulsive>
0.4459

> <Gold.PLP.ligand.clash>
0.0000

> <Gold.PLP.ligand.torsion>
0.8338

> <Gold.PLP.Chemscore.Hbond>
3.0000

> <Gold.PLP.Chemscore.CHOScore>
1.0000

> <Gold.PLP.Chemscore.Metal>
0.0000

> <Gold.Chemscore.Hbonds>
donor molecule, donor type, donor heavy atom, donor atom, acceptor molecule, acceptor atom, score
      L1  H     9    30       P1  7948  1.00
      L1  H    12    31       P1  7948  1.00
      P1  H  7989  7998       L1    16  0.63
      L1  C     3    23       P1 10747  1.00

> <Gold.PLP.Chemscore.Internal.Correction>
0.1121

> <Gold.Rescore>
     Score         DG    S(hbond)    S(metal)    S(lipo)     H(rot)  DE(clash)    DE(int)     intcor
     17.24     -18.84       2.39        0.00      79.37       1.53       0.07       1.53       ----

> <Gold.Chemscore.Fitness>
17.2357

> <Gold.Chemscore.DG>
-18.8390

> <Gold.Chemscore.ZeroCoef>
-5.4800

> <Gold.Chemscore.Hbond>
2.3939

> <Gold.Chemscore.Metal>
0.0000

> <Gold.Chemscore.Lipo>
79.3728

> <Gold.Chemscore.Internal_Hbond>
0.0000

> <Gold.Chemscore.DEClash>
0.0704

> <Gold.Chemscore.DEInternal>
1.5329

> <Gold.Chemscore.Rot>
1.5325

> <Gold.Chemscore.Internal.Correction>
   9.000000E+99

> <Gold.Chemscore.Hbonds>
donor molecule, donor type, donor heavy atom, donor atom, acceptor molecule, acceptor atom, score
      L1  H     9    30       P1  7948  0.95
      L1  H    12    31       P1  7948  0.99
      P1  H  7989  7998       L1    16  0.13

> <Gold.Chemscore.Hbond.Weighted>
-7.9957

> <Gold.Chemscore.Metal.Weighted>
-0.0000

> <Gold.Chemscore.Lipo.Weighted>
-9.2866

> <Gold.Chemscore.Internal_Hbond.Weighted>
0.0000

> <Gold.Chemscore.DEClash.Weighted>
0.0704

> <Gold.Chemscore.DEInternal.Weighted>
1.5329

> <Gold.Chemscore.Rot.Weighted>
3.9233

> <Gold.Chemscore.Internal.Correction.Weighted>
   9.000000E+99

> <Gold.Protein.RotatedTorsions>
[ 6907 6896 6895 6894 ] final  -96.83 input  -60.11 | X-H torsion
[ 7974 7965 7964 7962 ] final   11.78 input  175.53 | X-H torsion
[ 8008 7997 7996 7995 ] final  -56.11 input   59.86 | X-H torsion
[ 10167 10162 10161 10158 ] final  -29.12 input  -65.29 | X-H torsion
[ 10718 10713 10712 10709 ] final   85.37 input   66.30 | X-H torsion
[ 10763 10752 10751 10750 ] final -133.56 input  -60.55 | X-H torsion
[ 11005 11000 10999 10996 ] final  -53.30 input  -57.11 | X-H torsion

> <Gold.Protein.ActiveResidues>
 VAL166  LYS551  ARG553  GLY616  TRP617  ASP618  TYR619  PRO620  LYS621  CYS622 
 ASP623  PHE694  ASN695  SER759  ASP760  ASP761  ALA762  ILE779  LEU786  VAL792 
 PHE793  MET794  SER795  GLU796  ALA797  LYS798  CYS799  TRP800  GLU811  SER814 

> <Gold.Protein.RotatedAtoms>
  150.6999  134.1443  159.4116 H   0  0  0  0  0  0  0  0  0  0  0  0  # atno 6907 bound_to 6896
  151.9427  135.0204  160.0546 H   0  0  0  0  0  0  0  0  0  0  0  0  # atno 6908 bound_to 6896
  152.2080  133.4855  159.5131 H   0  0  0  0  0  0  0  0  0  0  0  0  # atno 6909 bound_to 6896
  146.2364  139.9435  142.8480 H   0  0  0  0  0  0  0  0  0  0  0  0  # atno 7974 bound_to 7965
  154.4218  140.1137  156.5585 H   0  0  0  0  0  0  0  0  0  0  0  0  # atno 8008 bound_to 7997
  155.6336  140.3496  155.4672 H   0  0  0  0  0  0  0  0  0  0  0  0  # atno 8009 bound_to 7997
  155.9928  140.1183  157.0612 H   0  0  0  0  0  0  0  0  0  0  0  0  # atno 8010 bound_to 7997
  140.7263  143.3954  151.1357 H   0  0  0  0  0  0  0  0  0  0  0  0  # atno 10167 bound_to 10162
  157.6913  131.0172  150.2812 H   0  0  0  0  0  0  0  0  0  0  0  0  # atno 10718 bound_to 10713
  154.8731  135.3762  154.4592 H   0  0  0  0  0  0  0  0  0  0  0  0  # atno 10763 bound_to 10752
  153.5262  135.7028  153.5711 H   0  0  0  0  0  0  0  0  0  0  0  0  # atno 10764 bound_to 10752
  153.3936  135.3966  155.1905 H   0  0  0  0  0  0  0  0  0  0  0  0  # atno 10765 bound_to 10752
  141.0969  133.6623  156.4152 H   0  0  0  0  0  0  0  0  0  0  0  0  # atno 11005 bound_to 11000
  145.1930  140.9820  143.4200 LP  0  0  0  0  0  0  0  0  0  0  0  0  # atno 17320 bound_to 7965
  144.9840  139.3754  143.6247 LP  0  0  0  0  0  0  0  0  0  0  0  0  # atno 17321 bound_to 7965
  139.7566  143.8699  152.3090 LP  0  0  0  0  0  0  0  0  0  0  0  0  # atno 17342 bound_to 10162
  139.8570  144.7136  150.9145 LP  0  0  0  0  0  0  0  0  0  0  0  0  # atno 17343 bound_to 10162
  156.3358  130.3807  149.7451 LP  0  0  0  0  0  0  0  0  0  0  0  0  # atno 17370 bound_to 10713
  156.4976  130.8114  151.3120 LP  0  0  0  0  0  0  0  0  0  0  0  0  # atno 17371 bound_to 10713
  140.5118  134.6388  157.5287 LP  0  0  0  0  0  0  0  0  0  0  0  0  # atno 17394 bound_to 11000
  139.9808  134.7140  155.9863 LP  0  0  0  0  0  0  0  0  0  0  0  0  # atno 17395 bound_to 11000

$$$$
