AV-unprocessed.smi:1673|AV-procd|sdf|6710|dock3
  -GOLD-   22720 7453D 1   1.00000     0.00000
 Structure written by MMmdl.
 39 40  0  0  0  0  0  0  0  0  1 V2000
  147.4036  141.2599  154.2182 C   0  0  0  0  0  0  0  0  0  0  0  0
  148.7320  140.5673  154.3461 C   0  0  0  0  0  0  0  0  0  0  0  0
  149.7660  141.2436  154.8251 N   0  0  0  0  0  0  0  0  0  0  0  0
  150.8398  140.3427  154.8968 O   0  0  0  0  0  0  0  0  0  0  0  0
  150.4244  139.1277  154.4528 C   0  0  0  0  0  0  0  0  0  0  0  0
  151.4244  138.0217  154.4675 C   0  0  0  0  0  0  0  0  0  0  0  0
  149.1193  139.2229  154.0698 C   0  0  0  0  0  0  0  0  0  0  0  0
  148.3432  138.1428  153.5807 N   0  0  0  0  0  0  0  0  0  0  0  0
  147.0323  137.9381  153.7783 C   0  0  0  0  0  0  0  0  0  0  0  0
  146.2825  138.7101  154.3751 O   0  0  0  0  0  0  0  0  0  0  0  0
  146.6327  136.7840  153.2257 N   0  0  0  0  0  0  0  0  0  0  0  0
  145.2736  136.2392  153.2530 C   0  0  1  0  0  0  0  0  0  0  0  0
  144.5074  136.6879  151.9922 C   0  0  0  0  0  0  0  0  0  0  0  0
  145.0379  136.0107  150.7165 C   0  0  0  0  0  0  0  0  0  0  0  0
  145.0303  134.4809  150.8543 C   0  0  0  0  0  0  0  0  0  0  0  0
  145.8102  134.0255  152.0982 C   0  0  0  0  0  0  0  0  0  0  0  0
  145.2728  134.6936  153.3807 C   0  0  1  0  0  0  0  0  0  0  0  0
  146.0089  134.1869  154.6332 C   0  0  0  0  0  0  0  0  0  0  0  0
  146.5784  140.5686  154.3893 H   0  0  0  0  0  0  0  0  0  0  0  0
  147.2817  141.6910  153.2247 H   0  0  0  0  0  0  0  0  0  0  0  0
  147.3036  142.0680  154.9431 H   0  0  0  0  0  0  0  0  0  0  0  0
  150.9600  137.0688  154.2134 H   0  0  0  0  0  0  0  0  0  0  0  0
  151.8778  137.9239  155.4539 H   0  0  0  0  0  0  0  0  0  0  0  0
  152.2192  138.2126  153.7466 H   0  0  0  0  0  0  0  0  0  0  0  0
  148.8170  137.5005  152.9626 H   0  0  0  0  0  0  0  0  0  0  0  0
  147.3277  136.2246  152.7535 H   0  0  0  0  0  0  0  0  0  0  0  0
  144.7420  136.6502  154.1132 H   0  0  0  0  0  0  0  0  0  0  0  0
  143.4511  136.4427  152.1106 H   0  0  0  0  0  0  0  0  0  0  0  0
  144.5551  137.7725  151.8874 H   0  0  0  0  0  0  0  0  0  0  0  0
  144.4323  136.3084  149.8602 H   0  0  0  0  0  0  0  0  0  0  0  0
  146.0518  136.3545  150.5086 H   0  0  0  0  0  0  0  0  0  0  0  0
  144.0012  134.1258  150.9195 H   0  0  0  0  0  0  0  0  0  0  0  0
  145.4573  134.0257  149.9603 H   0  0  0  0  0  0  0  0  0  0  0  0
  145.7451  132.9407  152.1886 H   0  0  0  0  0  0  0  0  0  0  0  0
  146.8682  134.2583  151.9717 H   0  0  0  0  0  0  0  0  0  0  0  0
  144.2316  134.3862  153.4896 H   0  0  0  0  0  0  0  0  0  0  0  0
  147.0797  134.3844  154.5813 H   0  0  0  0  0  0  0  0  0  0  0  0
  145.8803  133.1109  154.7525 H   0  0  0  0  0  0  0  0  0  0  0  0
  145.6246  134.6655  155.5343 H   0  0  0  0  0  0  0  0  0  0  0  0
  1  2  1  0  0  0  0
  1 19  1  0  0  0  0
  1 20  1  0  0  0  0
  1 21  1  0  0  0  0
  2  7  1  0  0  0  0
  2  3  2  0  0  0  0
  3  4  1  0  0  0  0
  4  5  1  0  0  0  0
  5  6  1  0  0  0  0
  5  7  2  0  0  0  0
  6 22  1  0  0  0  0
  6 23  1  0  0  0  0
  6 24  1  0  0  0  0
  7  8  1  0  0  0  0
  8  9  1  0  0  0  0
  8 25  1  0  0  0  0
  9 10  2  0  0  0  0
  9 11  1  0  0  0  0
 11 12  1  0  0  0  0
 11 26  1  0  0  0  0
 12 17  1  0  0  0  0
 12 13  1  0  0  0  0
 12 27  1  0  0  0  0
 13 14  1  0  0  0  0
 13 28  1  0  0  0  0
 13 29  1  0  0  0  0
 14 15  1  0  0  0  0
 14 30  1  0  0  0  0
 14 31  1  0  0  0  0
 15 16  1  0  0  0  0
 15 32  1  0  0  0  0
 15 33  1  0  0  0  0
 16 17  1  0  0  0  0
 16 34  1  0  0  0  0
 16 35  1  0  0  0  0
 17 18  1  0  0  0  0
 17 36  1  0  0  0  0
 18 37  1  0  0  0  0
 18 38  1  0  0  0  0
 18 39  1  0  0  0  0
M  END
> <s_m_source_file>
AV-unprocessed.smi

> <i_m_source_file_index>
1673

> <i_lp_mmshare_version>
43012

> <i_f3d_flags>
0

> <s_epik_input>
W0NIM11jMW5vYyhbQ0gzXSljMVtOSF1DKD1PKVtOSF1bQ0BASF0yW0NIMl1bQ0gyXVtDSDJdW0NIMl1bQ0BIXTJbQ0gzXQ==

> <s_epik_cmdline>
J2VwaWtfcHl0aG9uJywgJy1waCcsICc3LjAnLCAnLXRuJywgJzgnLCAnLW1hJywgJzIwMCcsICctbWV0YWxfYmluZGluZycsICctaW1hZScsICc8aW5maWxlLm1hZT4nLCAnLW9tYWUnLCAnPG91dGZpbGUubWFlPic=

> <r_lp_tautomer_probability>
1

> <r_epik_Ionization_Penalty>
4.01865e-05

> <r_epik_Ionization_Penalty_Charging>
0

> <r_epik_Ionization_Penalty_Neutral>
4.01865e-05

> <r_epik_State_Penalty>
-0

> <r_epik_Charging_Adjusted_Penalty>
0

> <i_epik_Tot_Q>
0

> <i_epik_Tot_abs_Q>
0

> <r_epik_Metal_State_Penalty>
-0

> <b_epik_Metal_Only>
0

> <s_lp_Force_Field>
OPLS_2005

> <r_lp_Energy>
11.4639

> <b_lp_Chiralities_Consistent>
1

> <s_lp_Variant>
AV-unprocessed.smi:1673-2

> <Gold.Version>
5.8.1

> <Gold.Id.Protein>
6NUR|6NUR_protein|mol2

> <Gold.PLP.Fitness>
35.7550

> <Gold.PLP.PLP>
-28.0518

> <Gold.PLP.part.hbond>
-3.9621

> <Gold.PLP.part.metal>
0.0000

> <Gold.PLP.part.buried>
-2.6405

> <Gold.PLP.part.nonpolar>
-22.0963

> <Gold.PLP.part.repulsive>
0.3425

> <Gold.PLP.ligand.clash>
0.0000

> <Gold.PLP.ligand.torsion>
0.5667

> <Gold.PLP.Chemscore.Hbond>
2.8640

> <Gold.PLP.Chemscore.CHOScore>
0.0000

> <Gold.PLP.Chemscore.Metal>
0.0000

> <Gold.Chemscore.Hbonds>
donor molecule, donor type, donor heavy atom, donor atom, acceptor molecule, acceptor atom, score
      L1  H     8    25       P1  7948  1.00
      L1  H    11    26       P1  7948  0.93
      P1  H  7989  7998       L1     4  0.76

> <Gold.PLP.Chemscore.Internal.Correction>
0.2447

> <Gold.Rescore>
     Score         DG    S(hbond)    S(metal)    S(lipo)     H(rot)  DE(clash)    DE(int)     intcor
     15.85     -16.73       1.88        0.00      64.38       1.00       0.13       0.75       ----

> <Gold.Chemscore.Fitness>
15.8468

> <Gold.Chemscore.DG>
-16.7306

> <Gold.Chemscore.ZeroCoef>
-5.4800

> <Gold.Chemscore.Hbond>
1.8798

> <Gold.Chemscore.Metal>
0.0000

> <Gold.Chemscore.Lipo>
64.3758

> <Gold.Chemscore.Internal_Hbond>
0.0000

> <Gold.Chemscore.DEClash>
0.1341

> <Gold.Chemscore.DEInternal>
0.7497

> <Gold.Chemscore.Rot>
1.0000

> <Gold.Chemscore.Internal.Correction>
   9.000000E+99

> <Gold.Chemscore.Hbonds>
donor molecule, donor type, donor heavy atom, donor atom, acceptor molecule, acceptor atom, score
      L1  H     8    25       P1  7948  0.99
      L1  H    11    26       P1  7948  0.90
      P1  H  7989  7998       L1     4  0.03

> <Gold.Chemscore.Hbond.Weighted>
-6.2786

> <Gold.Chemscore.Metal.Weighted>
-0.0000

> <Gold.Chemscore.Lipo.Weighted>
-7.5320

> <Gold.Chemscore.Internal_Hbond.Weighted>
0.0000

> <Gold.Chemscore.DEClash.Weighted>
0.1341

> <Gold.Chemscore.DEInternal.Weighted>
0.7497

> <Gold.Chemscore.Rot.Weighted>
2.5600

> <Gold.Chemscore.Internal.Correction.Weighted>
   9.000000E+99

> <Gold.Protein.RotatedTorsions>
[ 6907 6896 6895 6894 ] final  -33.08 input  -60.11 | X-H torsion
[ 7974 7965 7964 7962 ] final  -13.36 input  175.53 | X-H torsion
[ 8008 7997 7996 7995 ] final  164.83 input   59.86 | X-H torsion
[ 10167 10162 10161 10158 ] final -153.88 input  -65.29 | X-H torsion
[ 10718 10713 10712 10709 ] final -135.31 input   66.30 | X-H torsion
[ 10763 10752 10751 10750 ] final -145.01 input  -60.55 | X-H torsion
[ 11005 11000 10999 10996 ] final  -40.89 input  -57.11 | X-H torsion

> <Gold.Protein.ActiveResidues>
 VAL166  LYS551  ARG553  GLY616  TRP617  ASP618  TYR619  PRO620  LYS621  CYS622 
 ASP623  PHE694  ASN695  SER759  ASP760  ASP761  ALA762  ILE779  LEU786  VAL792 
 PHE793  MET794  SER795  GLU796  ALA797  LYS798  CYS799  TRP800  GLU811  SER814 

> <Gold.Protein.RotatedAtoms>
  151.0703  134.9794  159.8304 H   0  0  0  0  0  0  0  0  0  0  0  0  # atno 6907 bound_to 6896
  152.5407  134.2307  159.8834 H   0  0  0  0  0  0  0  0  0  0  0  0  # atno 6908 bound_to 6896
  151.2332  133.4396  159.2638 H   0  0  0  0  0  0  0  0  0  0  0  0  # atno 6909 bound_to 6896
  146.2117  140.3192  142.8389 H   0  0  0  0  0  0  0  0  0  0  0  0  # atno 7974 bound_to 7965
  156.1849  140.1686  156.8205 H   0  0  0  0  0  0  0  0  0  0  0  0  # atno 8008 bound_to 7997
  154.5402  140.0738  156.8529 H   0  0  0  0  0  0  0  0  0  0  0  0  # atno 8009 bound_to 7997
  155.3230  140.3374  155.4243 H   0  0  0  0  0  0  0  0  0  0  0  0  # atno 8010 bound_to 7997
  139.7060  143.9186  152.2448 H   0  0  0  0  0  0  0  0  0  0  0  0  # atno 10167 bound_to 10162
  156.2647  130.7231  151.1177 H   0  0  0  0  0  0  0  0  0  0  0  0  # atno 10718 bound_to 10713
  154.8403  135.3425  154.6437 H   0  0  0  0  0  0  0  0  0  0  0  0  # atno 10763 bound_to 10752
  153.7048  135.6967  153.5058 H   0  0  0  0  0  0  0  0  0  0  0  0  # atno 10764 bound_to 10752
  153.2496  135.4358  155.0737 H   0  0  0  0  0  0  0  0  0  0  0  0  # atno 10765 bound_to 10752
  141.0207  133.6864  156.2383 H   0  0  0  0  0  0  0  0  0  0  0  0  # atno 11005 bound_to 11000
  144.8932  140.7550  143.5913 LP  0  0  0  0  0  0  0  0  0  0  0  0  # atno 17320 bound_to 7965
  145.3115  139.1817  143.4636 LP  0  0  0  0  0  0  0  0  0  0  0  0  # atno 17321 bound_to 7965
  139.9042  144.6894  150.8632 LP  0  0  0  0  0  0  0  0  0  0  0  0  # atno 17342 bound_to 10162
  140.7721  143.3491  151.2050 LP  0  0  0  0  0  0  0  0  0  0  0  0  # atno 17343 bound_to 10162
  157.7263  131.0647  150.5915 LP  0  0  0  0  0  0  0  0  0  0  0  0  # atno 17370 bound_to 10713
  156.6005  130.4353  149.5899 LP  0  0  0  0  0  0  0  0  0  0  0  0  # atno 17371 bound_to 10713
  140.6578  134.5000  157.5581 LP  0  0  0  0  0  0  0  0  0  0  0  0  # atno 17394 bound_to 11000
  139.9144  134.8276  156.1415 LP  0  0  0  0  0  0  0  0  0  0  0  0  # atno 17395 bound_to 11000

$$$$
