AV-unprocessed.smi:86|AV-procd|sdf|812|dock6
  -GOLD-   2262017213D 1   1.00000     0.00000
 Structure written by MMmdl.
 51 55  0  0  0  0  0  0  0  0  1 V2000
  145.5302  133.4896  161.6153 O   0  0  0  0  0  0  0  0  0  0  0  0
  145.7091  134.5963  160.7551 C   0  0  0  0  0  0  0  0  0  0  0  0
  147.1921  134.9938  160.6532 C   0  0  0  0  0  0  0  0  0  0  0  0
  148.0283  133.8212  160.1019 C   0  0  0  0  0  0  0  0  0  0  0  0
  147.7685  133.5223  158.7015 N   0  0  0  0  0  0  0  0  0  0  0  0
  146.5404  133.4689  158.0832 C   0  0  0  0  0  0  0  0  0  0  0  0
  146.5705  133.1749  156.8125 N   0  0  0  0  0  0  0  0  0  0  0  0
  147.9231  133.0314  156.5222 C   0  0  0  0  0  0  0  0  0  0  0  0
  148.6661  132.7159  155.3462 C   0  0  0  0  0  0  0  0  0  0  0  0
  148.1087  132.4699  154.1331 N   0  0  0  0  0  0  0  0  0  0  0  0
  147.2775  131.2957  153.8750 C   0  0  0  0  0  0  0  0  0  0  0  0
  146.2861  131.7684  152.8099 C   0  0  2  0  0  0  0  0  0  0  0  0
  145.6780  130.7373  151.8520 C   0  0  0  0  0  0  0  0  0  0  0  0
  144.7806  131.4691  150.8298 C   0  0  0  0  0  0  0  0  0  0  0  0
  145.5249  132.6187  150.1062 C   0  0  1  0  0  0  0  0  0  0  0  0
  144.6181  133.3241  149.2853 O   0  0  0  0  0  0  0  0  0  0  0  0
  146.1991  133.6006  151.0917 C   0  0  0  0  0  0  0  0  0  0  0  0
  147.0984  132.8035  152.0439 C   0  0  1  0  0  0  0  0  0  0  0  0
  147.8070  133.5364  153.1803 C   0  0  0  0  0  0  0  0  0  0  0  0
  150.0180  132.6419  155.4658 N   0  0  0  0  0  0  0  0  0  0  0  0
  150.6094  132.8755  156.6405 C   0  0  0  0  0  0  0  0  0  0  0  0
  150.0473  133.1866  157.8088 N   0  0  0  0  0  0  0  0  0  0  0  0
  148.6894  133.2488  157.7038 C   0  0  0  0  0  0  0  0  0  0  0  0
  147.4359  136.3604  159.9965 C   0  0  0  0  0  0  0  0  0  0  0  0
  147.6429  137.0009  161.2729 O   0  0  0  0  0  0  0  0  0  0  0  0
  147.7599  135.7018  161.8914 C   0  0  0  0  0  0  0  0  0  0  0  0
  146.3151  133.3800  162.1301 H   0  0  0  0  0  0  0  0  0  0  0  0
  145.2856  134.3616  159.7786 H   0  0  0  0  0  0  0  0  0  0  0  0
  145.1165  135.4224  161.1495 H   0  0  0  0  0  0  0  0  0  0  0  0
  149.0933  134.0353  160.1991 H   0  0  0  0  0  0  0  0  0  0  0  0
  147.8611  132.9166  160.6877 H   0  0  0  0  0  0  0  0  0  0  0  0
  145.6131  133.6522  158.6055 H   0  0  0  0  0  0  0  0  0  0  0  0
  147.9061  130.4867  153.5017 H   0  0  0  0  0  0  0  0  0  0  0  0
  146.7535  130.9494  154.7664 H   0  0  0  0  0  0  0  0  0  0  0  0
  145.4703  132.2787  153.3265 H   0  0  0  0  0  0  0  0  0  0  0  0
  146.4682  130.1929  151.3333 H   0  0  0  0  0  0  0  0  0  0  0  0
  145.0963  130.0001  152.4061 H   0  0  0  0  0  0  0  0  0  0  0  0
  144.3965  130.7552  150.1005 H   0  0  0  0  0  0  0  0  0  0  0  0
  143.9103  131.8723  151.3504 H   0  0  0  0  0  0  0  0  0  0  0  0
  146.2900  132.1883  149.4585 H   0  0  0  0  0  0  0  0  0  0  0  0
  145.1100  133.7902  148.6269 H   0  0  0  0  0  0  0  0  0  0  0  0
  146.7865  134.3423  150.5493 H   0  0  0  0  0  0  0  0  0  0  0  0
  145.4445  134.1467  151.6603 H   0  0  0  0  0  0  0  0  0  0  0  0
  147.8600  132.2900  151.4529 H   0  0  0  0  0  0  0  0  0  0  0  0
  147.1486  134.2734  153.6425 H   0  0  0  0  0  0  0  0  0  0  0  0
  148.7112  134.0402  152.8369 H   0  0  0  0  0  0  0  0  0  0  0  0
  151.6868  132.8018  156.6445 H   0  0  0  0  0  0  0  0  0  0  0  0
  148.3333  136.4065  159.3780 H   0  0  0  0  0  0  0  0  0  0  0  0
  146.5731  136.7577  159.4605 H   0  0  0  0  0  0  0  0  0  0  0  0
  147.1414  135.6047  162.7847 H   0  0  0  0  0  0  0  0  0  0  0  0
  148.7992  135.4499  162.1092 H   0  0  0  0  0  0  0  0  0  0  0  0
  1  2  1  0  0  0  0
  1 27  1  0  0  0  0
  2  3  1  0  0  0  0
  2 28  1  0  0  0  0
  2 29  1  0  0  0  0
  3 26  1  0  0  0  0
  3  4  1  0  0  0  0
  3 24  1  0  0  0  0
  4  5  1  0  0  0  0
  4 30  1  0  0  0  0
  4 31  1  0  0  0  0
  5 23  1  0  0  0  0
  5  6  1  0  0  0  0
  6  7  2  0  0  0  0
  6 32  1  0  0  0  0
  7  8  1  0  0  0  0
  8 23  2  0  0  0  0
  8  9  1  0  0  0  0
  9 10  1  0  0  0  0
  9 20  2  0  0  0  0
 10 19  1  0  0  0  0
 10 11  1  0  0  0  0
 11 12  1  0  0  0  0
 11 33  1  0  0  0  0
 11 34  1  0  0  0  0
 12 18  1  0  0  0  0
 12 13  1  0  0  0  0
 12 35  1  0  0  0  0
 13 14  1  0  0  0  0
 13 36  1  0  0  0  0
 13 37  1  0  0  0  0
 14 15  1  0  0  0  0
 14 38  1  0  0  0  0
 14 39  1  0  0  0  0
 15 16  1  0  0  0  0
 15 17  1  0  0  0  0
 15 40  1  0  0  0  0
 16 41  1  0  0  0  0
 17 18  1  0  0  0  0
 17 42  1  0  0  0  0
 17 43  1  0  0  0  0
 18 19  1  0  0  0  0
 18 44  1  0  0  0  0
 19 45  1  0  0  0  0
 19 46  1  0  0  0  0
 20 21  1  0  0  0  0
 21 22  2  0  0  0  0
 21 47  1  0  0  0  0
 22 23  1  0  0  0  0
 24 25  1  0  0  0  0
 24 48  1  0  0  0  0
 24 49  1  0  0  0  0
 25 26  1  0  0  0  0
 26 50  1  0  0  0  0
 26 51  1  0  0  0  0
M  END
> <s_m_source_file>
AV-unprocessed.smi

> <i_m_source_file_index>
86

> <i_lp_mmshare_version>
43012

> <i_f3d_flags>
0

> <s_epik_input>
W0NIMl0xT1tDSDJdQzEoW0NIMl1bT0hdKVtDSDJdbihbY0hdbjIpYyhjMjMpbltjSF1uYzNOKFtDSDJdNClbQ0gyXVtDQEBIXShbQ0BIXTQ1KVtDSDJdW0NASF0oW09IXSlbQ0gyXVtDSDJdNQ==

> <s_epik_cmdline>
J2VwaWtfcHl0aG9uJywgJy1waCcsICc3LjAnLCAnLXRuJywgJzgnLCAnLW1hJywgJzIwMCcsICctbWV0YWxfYmluZGluZycsICctaW1hZScsICc8aW5maWxlLm1hZT4nLCAnLW9tYWUnLCAnPG91dGZpbGUubWFlPic=

> <r_lp_tautomer_probability>
1

> <r_epik_Ionization_Penalty>
0.00425795

> <r_epik_Ionization_Penalty_Charging>
0

> <r_epik_Ionization_Penalty_Neutral>
0.00425795

> <r_epik_State_Penalty>
0.00299946

> <r_epik_Charging_Adjusted_Penalty>
0.00299946

> <i_epik_Tot_Q>
0

> <i_epik_Tot_abs_Q>
0

> <r_epik_Metal_State_Penalty>
-0

> <b_epik_Metal_Only>
0

> <s_lp_Force_Field>
OPLS_2005

> <r_lp_Energy>
53.7305

> <b_lp_Chiralities_Consistent>
1

> <s_lp_Variant>
AV-unprocessed.smi:86-1

> <Gold.Version>
5.8.1

> <Gold.Id.Protein>
6NUR|6NUR_protein|mol2

> <Gold.PLP.Fitness>
43.7530

> <Gold.PLP.PLP>
-35.2064

> <Gold.PLP.part.hbond>
-4.0000

> <Gold.PLP.part.metal>
0.0000

> <Gold.PLP.part.buried>
-5.2246

> <Gold.PLP.part.nonpolar>
-26.4631

> <Gold.PLP.part.repulsive>
0.0197

> <Gold.PLP.ligand.clash>
0.0000

> <Gold.PLP.ligand.torsion>
1.8322

> <Gold.PLP.Chemscore.Hbond>
3.9040

> <Gold.PLP.Chemscore.CHOScore>
0.0000

> <Gold.PLP.Chemscore.Metal>
0.0000

> <Gold.Chemscore.Hbonds>
donor molecule, donor type, donor heavy atom, donor atom, acceptor molecule, acceptor atom, score
      L1  H    16    41       P1  7921  1.00
      P1  H  6896  6909       L1    22  1.00
      P1  H  6931  6943       L1    25  1.00
      P1  H  6934  6947       L1    25  0.74

> <Gold.PLP.Chemscore.Internal.Correction>
0.4990

> <Gold.Rescore>
     Score         DG    S(hbond)    S(metal)    S(lipo)     H(rot)  DE(clash)    DE(int)     intcor
     16.92     -18.78       3.16        0.00      83.93       2.76       0.00       1.85       ----

> <Gold.Chemscore.Fitness>
16.9240

> <Gold.Chemscore.DG>
-18.7784

> <Gold.Chemscore.ZeroCoef>
-5.4800

> <Gold.Chemscore.Hbond>
3.1594

> <Gold.Chemscore.Metal>
0.0000

> <Gold.Chemscore.Lipo>
83.9251

> <Gold.Chemscore.Internal_Hbond>
0.0000

> <Gold.Chemscore.DEClash>
0.0000

> <Gold.Chemscore.DEInternal>
1.8544

> <Gold.Chemscore.Rot>
2.7630

> <Gold.Chemscore.Internal.Correction>
   9.000000E+99

> <Gold.Chemscore.Hbonds>
donor molecule, donor type, donor heavy atom, donor atom, acceptor molecule, acceptor atom, score
      L1  H    16    41       P1  7921  0.91
      P1  H  6896  6909       L1    22  0.94
      P1  H  6931  6943       L1    25  0.77
      P1  H  6934  6947       L1    25  0.36

> <Gold.Chemscore.Hbond.Weighted>
-10.5525

> <Gold.Chemscore.Metal.Weighted>
-0.0000

> <Gold.Chemscore.Lipo.Weighted>
-9.8192

> <Gold.Chemscore.Internal_Hbond.Weighted>
0.0000

> <Gold.Chemscore.DEClash.Weighted>
0.0000

> <Gold.Chemscore.DEInternal.Weighted>
1.8544

> <Gold.Chemscore.Rot.Weighted>
7.0734

> <Gold.Chemscore.Internal.Correction.Weighted>
   9.000000E+99

> <Gold.Protein.RotatedTorsions>
[ 6907 6896 6895 6894 ] final  -25.06 input  -60.11 | X-H torsion
[ 7974 7965 7964 7962 ] final -154.03 input  175.53 | X-H torsion
[ 8008 7997 7996 7995 ] final  -41.11 input   59.86 | X-H torsion
[ 10167 10162 10161 10158 ] final   24.70 input  -65.29 | X-H torsion
[ 10718 10713 10712 10709 ] final -102.79 input   66.30 | X-H torsion
[ 10763 10752 10751 10750 ] final  -83.53 input  -60.55 | X-H torsion
[ 11005 11000 10999 10996 ] final  -85.99 input  -57.11 | X-H torsion

> <Gold.Protein.ActiveResidues>
 VAL166  LYS551  ARG553  GLY616  TRP617  ASP618  TYR619  PRO620  LYS621  CYS622 
 ASP623  PHE694  ASN695  SER759  ASP760  ASP761  ALA762  ILE779  LEU786  VAL792 
 PHE793  MET794  SER795  GLU796  ALA797  LYS798  CYS799  TRP800  GLU811  SER814 

> <Gold.Protein.RotatedAtoms>
  151.1806  135.0359  159.8790 H   0  0  0  0  0  0  0  0  0  0  0  0  # atno 6907 bound_to 6896
  152.5445  134.1067  159.8351 H   0  0  0  0  0  0  0  0  0  0  0  0  # atno 6908 bound_to 6896
  151.1184  133.5075  159.2635 H   0  0  0  0  0  0  0  0  0  0  0  0  # atno 6909 bound_to 6896
  144.7710  140.4444  143.5907 H   0  0  0  0  0  0  0  0  0  0  0  0  # atno 7974 bound_to 7965
  154.4006  140.1508  156.3137 H   0  0  0  0  0  0  0  0  0  0  0  0  # atno 8008 bound_to 7997
  155.8592  140.3454  155.5723 H   0  0  0  0  0  0  0  0  0  0  0  0  # atno 8009 bound_to 7997
  155.7899  140.0855  157.2005 H   0  0  0  0  0  0  0  0  0  0  0  0  # atno 8010 bound_to 7997
  140.5166  144.0071  150.6397 H   0  0  0  0  0  0  0  0  0  0  0  0  # atno 10167 bound_to 10162
  156.0241  130.5436  150.7159 H   0  0  0  0  0  0  0  0  0  0  0  0  # atno 10718 bound_to 10713
  154.5888  135.5553  153.7258 H   0  0  0  0  0  0  0  0  0  0  0  0  # atno 10763 bound_to 10752
  153.0109  135.6338  154.1878 H   0  0  0  0  0  0  0  0  0  0  0  0  # atno 10764 bound_to 10752
  154.1819  135.2886  155.3029 H   0  0  0  0  0  0  0  0  0  0  0  0  # atno 10765 bound_to 10752
  141.1635  133.7430  156.9096 H   0  0  0  0  0  0  0  0  0  0  0  0  # atno 11005 bound_to 11000
  145.6324  139.1538  143.2961 LP  0  0  0  0  0  0  0  0  0  0  0  0  # atno 17320 bound_to 7965
  146.1856  140.6427  142.9169 LP  0  0  0  0  0  0  0  0  0  0  0  0  # atno 17321 bound_to 7965
  140.3409  143.3020  152.0589 LP  0  0  0  0  0  0  0  0  0  0  0  0  # atno 17342 bound_to 10162
  139.4911  144.6443  151.6811 LP  0  0  0  0  0  0  0  0  0  0  0  0  # atno 17343 bound_to 10162
  157.4786  131.0900  151.0562 LP  0  0  0  0  0  0  0  0  0  0  0  0  # atno 17370 bound_to 10713
  157.1002  130.5978  149.5458 LP  0  0  0  0  0  0  0  0  0  0  0  0  # atno 17371 bound_to 10713
  140.1526  134.9220  157.2612 LP  0  0  0  0  0  0  0  0  0  0  0  0  # atno 17394 bound_to 11000
  140.2705  134.3466  155.7375 LP  0  0  0  0  0  0  0  0  0  0  0  0  # atno 17395 bound_to 11000

$$$$
