AV-unprocessed.smi:2489|AV-procd|sdf|9802|dock7
  -GOLD-   2272013433D 1   1.00000     0.00000
 Structure written by MMmdl.
 33 34  0  0  0  0  0  0  0  0  1 V2000
  151.5955  138.5766  154.7875 C   0  0  0  0  0  0  0  0  0  0  0  0
  150.6952  139.5747  154.3279 O   0  0  0  0  0  0  0  0  0  0  0  0
  150.1131  140.3886  155.2725 C   0  0  0  0  0  0  0  0  0  0  0  0
  148.6701  140.4687  155.4863 C   0  0  0  0  0  0  0  0  0  0  0  0
  148.2142  141.2944  156.4400 C   0  0  0  0  0  0  0  0  0  0  0  0
  149.0636  142.0664  157.2193 N   0  0  0  0  0  0  0  0  0  0  0  0
  150.4612  142.0418  157.0647 C   0  0  0  0  0  0  0  0  0  0  0  0
  151.3105  142.7413  157.7596 N   0  0  0  0  0  0  0  0  0  0  0  0
  150.9179  143.6127  158.7718 C   0  0  0  0  0  0  0  0  0  0  0  0
  149.7988  144.0713  159.0192 O   0  0  0  0  0  0  0  0  0  0  0  0
  152.0995  144.0181  159.6643 C   0  0  1  0  0  0  0  0  0  0  0  0
  151.6605  144.7727  160.9310 C   0  0  0  0  0  0  0  0  0  0  0  0
  152.4427  144.0913  162.0353 C   0  0  0  0  0  0  0  0  0  0  0  0
  152.5489  142.6642  161.5120 C   0  0  2  0  0  0  0  0  0  0  0  0
  153.6847  141.8484  162.1378 C   0  0  0  0  0  0  0  0  0  0  0  0
  152.7733  142.8434  160.1202 O   0  0  0  0  0  0  0  0  0  0  0  0
  150.9467  141.1414  156.0280 C   0  0  0  0  0  0  0  0  0  0  0  0
  151.9744  138.0154  153.9335 H   0  0  0  0  0  0  0  0  0  0  0  0
  151.1006  137.8670  155.4520 H   0  0  0  0  0  0  0  0  0  0  0  0
  152.4540  139.0151  155.2980 H   0  0  0  0  0  0  0  0  0  0  0  0
  147.9639  139.8922  154.9082 H   0  0  0  0  0  0  0  0  0  0  0  0
  147.1648  141.4158  156.6651 H   0  0  0  0  0  0  0  0  0  0  0  0
  152.8219  144.6101  159.0996 H   0  0  0  0  0  0  0  0  0  0  0  0
  151.8766  145.8397  160.8745 H   0  0  0  0  0  0  0  0  0  0  0  0
  150.5906  144.6618  161.1162 H   0  0  0  0  0  0  0  0  0  0  0  0
  153.4332  144.5405  162.1193 H   0  0  0  0  0  0  0  0  0  0  0  0
  151.9542  144.1549  163.0081 H   0  0  0  0  0  0  0  0  0  0  0  0
  151.5961  142.1498  161.6478 H   0  0  0  0  0  0  0  0  0  0  0  0
  153.5359  141.7280  163.2110 H   0  0  0  0  0  0  0  0  0  0  0  0
  154.6494  142.3330  161.9847 H   0  0  0  0  0  0  0  0  0  0  0  0
  153.7381  140.8537  161.6948 H   0  0  0  0  0  0  0  0  0  0  0  0
  152.0059  141.0492  155.8349 H   0  0  0  0  0  0  0  0  0  0  0  0
  148.6263  142.6570  157.9126 H   0  0  0  0  0  0  0  0  0  0  0  0
  1  2  1  0  0  0  0
  1 18  1  0  0  0  0
  1 19  1  0  0  0  0
  1 20  1  0  0  0  0
  2  3  1  0  0  0  0
  3 17  2  0  0  0  0
  3  4  1  0  0  0  0
  4  5  2  0  0  0  0
  4 21  1  0  0  0  0
  5  6  1  0  0  0  0
  5 22  1  0  0  0  0
  6  7  1  0  0  0  0
  6 33  1  0  0  0  0
  7  8  2  0  0  0  0
  7 17  1  0  0  0  0
  8  9  1  0  0  0  0
  9 10  2  0  0  0  0
  9 11  1  0  0  0  0
 11 16  1  0  0  0  0
 11 12  1  0  0  0  0
 11 23  1  0  0  0  0
 12 13  1  0  0  0  0
 12 24  1  0  0  0  0
 12 25  1  0  0  0  0
 13 14  1  0  0  0  0
 13 26  1  0  0  0  0
 13 27  1  0  0  0  0
 14 15  1  0  0  0  0
 14 16  1  0  0  0  0
 14 28  1  0  0  0  0
 15 29  1  0  0  0  0
 15 30  1  0  0  0  0
 15 31  1  0  0  0  0
 17 32  1  0  0  0  0
M  END
> <s_m_source_file>
AV-unprocessed.smi

> <i_m_source_file_index>
2489

> <i_lp_mmshare_version>
43012

> <i_f3d_flags>
0

> <s_epik_input>
W0NIM11PYzFbY0hdW2NIXW5jKFtjSF0xKVtOSF1DKD1PKVtDQEBIXTJbQ0gyXVtDSDJdW0NASF0oTzIpW0NIM10=

> <s_epik_cmdline>
J2VwaWtfcHl0aG9uJywgJy1waCcsICc3LjAnLCAnLXRuJywgJzgnLCAnLW1hJywgJzIwMCcsICctbWV0YWxfYmluZGluZycsICctaW1hZScsICc8aW5maWxlLm1hZT4nLCAnLW9tYWUnLCAnPG91dGZpbGUubWFlPic=

> <r_epik_Ionization_Penalty>
0.410206

> <r_epik_Ionization_Penalty_Charging>
0.410206

> <r_epik_Ionization_Penalty_Neutral>
6.57528e-13

> <r_epik_State_Penalty>
1.30987

> <r_epik_Charging_Adjusted_Penalty>
1.72007

> <i_epik_Tot_Q>
0

> <i_epik_Tot_abs_Q>
0

> <r_epik_Metal_State_Penalty>
1.32171

> <b_epik_Metal_Only>
0

> <s_lp_Force_Field>
OPLS_2005

> <r_lp_Energy>
36.1754

> <b_lp_Chiralities_Consistent>
1

> <s_lp_Variant>
AV-unprocessed.smi:2489-8

> <Gold.Version>
5.8.1

> <Gold.Id.Protein>
6NUR|6NUR_protein|mol2

> <Gold.PLP.Fitness>
38.8373

> <Gold.PLP.PLP>
-36.5521

> <Gold.PLP.part.hbond>
-2.0000

> <Gold.PLP.part.metal>
0.0000

> <Gold.PLP.part.buried>
-4.0811

> <Gold.PLP.part.nonpolar>
-30.3830

> <Gold.PLP.part.repulsive>
0.4473

> <Gold.PLP.ligand.clash>
0.0000

> <Gold.PLP.ligand.torsion>
0.2103

> <Gold.PLP.Chemscore.Hbond>
0.9000

> <Gold.PLP.Chemscore.CHOScore>
0.0000

> <Gold.PLP.Chemscore.Metal>
0.0000

> <Gold.Chemscore.Hbonds>
donor molecule, donor type, donor heavy atom, donor atom, acceptor molecule, acceptor atom, score
      P1  H  7989  7998       L1     2  0.85

> <Gold.PLP.Chemscore.Internal.Correction>
0.0059

> <Gold.Rescore>
     Score         DG    S(hbond)    S(metal)    S(lipo)     H(rot)  DE(clash)    DE(int)     intcor
     11.61     -13.71       0.23        0.00      90.54       1.23       0.57       1.53       ----

> <Gold.Chemscore.Fitness>
11.6121

> <Gold.Chemscore.DG>
-13.7143

> <Gold.Chemscore.ZeroCoef>
-5.4800

> <Gold.Chemscore.Hbond>
0.2336

> <Gold.Chemscore.Metal>
0.0000

> <Gold.Chemscore.Lipo>
90.5427

> <Gold.Chemscore.Internal_Hbond>
0.0000

> <Gold.Chemscore.DEClash>
0.5692

> <Gold.Chemscore.DEInternal>
1.5329

> <Gold.Chemscore.Rot>
1.2264

> <Gold.Chemscore.Internal.Correction>
   9.000000E+99

> <Gold.Chemscore.Hbonds>
donor molecule, donor type, donor heavy atom, donor atom, acceptor molecule, acceptor atom, score
      P1  H  7989  7998       L1     2  0.10

> <Gold.Chemscore.Hbond.Weighted>
-0.7803

> <Gold.Chemscore.Metal.Weighted>
-0.0000

> <Gold.Chemscore.Lipo.Weighted>
-10.5935

> <Gold.Chemscore.Internal_Hbond.Weighted>
0.0000

> <Gold.Chemscore.DEClash.Weighted>
0.5692

> <Gold.Chemscore.DEInternal.Weighted>
1.5329

> <Gold.Chemscore.Rot.Weighted>
3.1396

> <Gold.Chemscore.Internal.Correction.Weighted>
   9.000000E+99

> <Gold.Protein.RotatedTorsions>
[ 6907 6896 6895 6894 ] final   97.95 input  -60.11 | X-H torsion
[ 7974 7965 7964 7962 ] final -113.07 input  175.53 | X-H torsion
[ 8008 7997 7996 7995 ] final  -70.15 input   59.86 | X-H torsion
[ 10167 10162 10161 10158 ] final   42.30 input  -65.29 | X-H torsion
[ 10718 10713 10712 10709 ] final   12.17 input   66.30 | X-H torsion
[ 10763 10752 10751 10750 ] final -140.10 input  -60.55 | X-H torsion
[ 11005 11000 10999 10996 ] final -100.61 input  -57.11 | X-H torsion

> <Gold.Protein.ActiveResidues>
 VAL166  LYS551  ARG553  GLY616  TRP617  ASP618  TYR619  PRO620  LYS621  CYS622 
 ASP623  PHE694  ASN695  SER759  ASP760  ASP761  ALA762  ILE779  LEU786  VAL792 
 PHE793  MET794  SER795  GLU796  ALA797  LYS798  CYS799  TRP800  GLU811  SER814 

> <Gold.Protein.RotatedAtoms>
  152.5416  134.0655  159.8170 H   0  0  0  0  0  0  0  0  0  0  0  0  # atno 6907 bound_to 6896
  151.0777  133.5407  159.2630 H   0  0  0  0  0  0  0  0  0  0  0  0  # atno 6908 bound_to 6896
  151.2247  135.0540  159.9017 H   0  0  0  0  0  0  0  0  0  0  0  0  # atno 6909 bound_to 6896
  145.1365  140.8754  143.3727 H   0  0  0  0  0  0  0  0  0  0  0  0  # atno 7974 bound_to 7965
  154.4990  140.0840  156.7759 H   0  0  0  0  0  0  0  0  0  0  0  0  # atno 8008 bound_to 7997
  155.4047  140.3438  155.4241 H   0  0  0  0  0  0  0  0  0  0  0  0  # atno 8009 bound_to 7997
  156.1432  140.1536  156.8875 H   0  0  0  0  0  0  0  0  0  0  0  0  # atno 8010 bound_to 7997
  140.3558  144.2292  150.6142 H   0  0  0  0  0  0  0  0  0  0  0  0  # atno 10167 bound_to 10162
  157.0063  130.6099  149.5702 H   0  0  0  0  0  0  0  0  0  0  0  0  # atno 10718 bound_to 10713
  154.8589  135.3563  154.5653 H   0  0  0  0  0  0  0  0  0  0  0  0  # atno 10763 bound_to 10752
  153.6267  135.7004  153.5295 H   0  0  0  0  0  0  0  0  0  0  0  0  # atno 10764 bound_to 10752
  153.3083  135.4186  155.1273 H   0  0  0  0  0  0  0  0  0  0  0  0  # atno 10765 bound_to 10752
  141.1264  133.8412  157.1124 H   0  0  0  0  0  0  0  0  0  0  0  0  # atno 11005 bound_to 11000
  145.0579  139.3129  143.5895 LP  0  0  0  0  0  0  0  0  0  0  0  0  # atno 17320 bound_to 7965
  146.3509  140.0010  142.8676 LP  0  0  0  0  0  0  0  0  0  0  0  0  # atno 17321 bound_to 7965
  140.5175  143.2274  151.8440 LP  0  0  0  0  0  0  0  0  0  0  0  0  # atno 17342 bound_to 10162
  139.4820  144.4876  151.9226 LP  0  0  0  0  0  0  0  0  0  0  0  0  # atno 17343 bound_to 10162
  156.0152  130.5246  150.8114 LP  0  0  0  0  0  0  0  0  0  0  0  0  # atno 17370 bound_to 10713
  157.5353  131.0938  150.9900 LP  0  0  0  0  0  0  0  0  0  0  0  0  # atno 17371 bound_to 10713
  140.0267  134.9921  157.0699 LP  0  0  0  0  0  0  0  0  0  0  0  0  # atno 17394 bound_to 11000
  140.4352  134.1739  155.7170 LP  0  0  0  0  0  0  0  0  0  0  0  0  # atno 17395 bound_to 11000

$$$$
