AV-unprocessed.smi:2410|AV-procd|sdf|9529|dock8
  -GOLD-   2272013163D 1   1.00000     0.00000
 Structure written by MMmdl.
 47 49  0  0  0  0  0  0  0  0  2 V2000
  152.7134  143.1690  161.3527 C   0  0  0  0  0  0  0  0  0  0  0  0
  152.4029  142.4598  160.0456 C   0  0  0  0  0  0  0  0  0  0  0  0
  151.4420  143.0307  159.1801 C   0  0  0  0  0  0  0  0  0  0  0  0
  151.1805  142.3592  157.9916 C   0  0  0  0  0  0  0  0  0  0  0  0
  150.3040  142.6546  156.9447 N   0  3  0  0  0  0  0  0  0  0  0  0
  150.4004  141.6920  155.9855 C   0  0  0  0  0  0  0  0  0  0  0  0
  151.3249  140.7868  156.4061 N   0  0  0  0  0  0  0  0  0  0  0  0
  151.8146  139.5597  155.7657 C   0  0  0  0  0  0  0  0  0  0  0  0
  150.7234  138.8442  154.9460 C   0  0  1  0  0  0  0  0  0  0  0  0
  150.4398  139.6318  153.8059 O   0  0  0  0  0  0  0  0  0  0  0  0
  151.1754  137.4403  154.4889 C   0  0  0  0  0  0  0  0  0  0  0  0
  150.2727  136.3848  154.9766 N   0  0  0  0  0  0  0  0  0  0  0  0
  148.9161  136.5208  154.6410 C   0  0  0  0  0  0  0  0  0  0  0  0
  148.0343  135.6518  155.0135 N   0  0  0  0  0  0  0  0  0  0  0  0
  148.4234  134.5453  155.7742 C   0  0  0  0  0  0  0  0  0  0  0  0
  147.3092  133.5856  156.1526 C   0  0  0  0  0  0  0  0  0  0  0  0
  149.7208  134.3612  156.1421 C   0  0  0  0  0  0  0  0  0  0  0  0
  150.2023  133.1772  156.9712 C   0  0  0  0  0  0  0  0  0  0  0  0
  150.7350  135.3449  155.7300 C   0  0  0  0  0  0  0  0  0  0  0  0
  151.9246  135.2513  156.0413 O   0  0  0  0  0  0  0  0  0  0  0  0
  151.8379  141.1614  157.6519 C   0  0  0  0  0  0  0  0  0  0  0  0
  152.7858  140.5839  158.4929 C   0  0  0  0  0  0  0  0  0  0  0  0
  153.0649  141.2510  159.7069 C   0  0  0  0  0  0  0  0  0  0  0  0
  154.0951  140.6448  160.6445 C   0  0  0  0  0  0  0  0  0  0  0  0
  152.1439  144.0939  161.4505 H   0  0  0  0  0  0  0  0  0  0  0  0
  153.7720  143.4234  161.4094 H   0  0  0  0  0  0  0  0  0  0  0  0
  152.4632  142.5322  162.2016 H   0  0  0  0  0  0  0  0  0  0  0  0
  150.9332  143.9497  159.4318 H   0  0  0  0  0  0  0  0  0  0  0  0
  149.8428  141.6530  155.0609 H   0  0  0  0  0  0  0  0  0  0  0  0
  152.6616  139.8269  155.1322 H   0  0  0  0  0  0  0  0  0  0  0  0
  152.2064  138.9074  156.5473 H   0  0  0  0  0  0  0  0  0  0  0  0
  149.8168  138.7737  155.5477 H   0  0  0  0  0  0  0  0  0  0  0  0
  150.2088  139.0568  153.0923 H   0  0  0  0  0  0  0  0  0  0  0  0
  151.3073  137.4103  153.4051 H   0  0  0  0  0  0  0  0  0  0  0  0
  152.1726  137.2330  154.8815 H   0  0  0  0  0  0  0  0  0  0  0  0
  148.6632  137.4044  154.0525 H   0  0  0  0  0  0  0  0  0  0  0  0
  147.5018  132.5948  155.7404 H   0  0  0  0  0  0  0  0  0  0  0  0
  146.3455  133.9249  155.7705 H   0  0  0  0  0  0  0  0  0  0  0  0
  147.2271  133.5035  157.2368 H   0  0  0  0  0  0  0  0  0  0  0  0
  150.6621  133.5284  157.8958 H   0  0  0  0  0  0  0  0  0  0  0  0
  150.9488  132.6082  156.4160 H   0  0  0  0  0  0  0  0  0  0  0  0
  149.4028  132.4901  157.2436 H   0  0  0  0  0  0  0  0  0  0  0  0
  153.2885  139.6631  158.2343 H   0  0  0  0  0  0  0  0  0  0  0  0
  154.4812  139.7017  160.2561 H   0  0  0  0  0  0  0  0  0  0  0  0
  153.6562  140.4462  161.6224 H   0  0  0  0  0  0  0  0  0  0  0  0
  154.9386  141.3232  160.7735 H   0  0  0  0  0  0  0  0  0  0  0  0
  149.6842  143.4525  156.8870 H   0  0  0  0  0  0  0  0  0  0  0  0
  1  2  1  0  0  0  0
  1 25  1  0  0  0  0
  1 26  1  0  0  0  0
  1 27  1  0  0  0  0
  2 23  1  0  0  0  0
  2  3  2  0  0  0  0
  3  4  1  0  0  0  0
  3 28  1  0  0  0  0
  4 21  2  0  0  0  0
  4  5  1  0  0  0  0
  5  6  2  0  0  0  0
  5 47  1  0  0  0  0
  6  7  1  0  0  0  0
  6 29  1  0  0  0  0
  7  8  1  0  0  0  0
  7 21  1  0  0  0  0
  8  9  1  0  0  0  0
  8 30  1  0  0  0  0
  8 31  1  0  0  0  0
  9 10  1  0  0  0  0
  9 11  1  0  0  0  0
  9 32  1  0  0  0  0
 10 33  1  0  0  0  0
 11 12  1  0  0  0  0
 11 34  1  0  0  0  0
 11 35  1  0  0  0  0
 12 19  1  0  0  0  0
 12 13  1  0  0  0  0
 13 14  2  0  0  0  0
 13 36  1  0  0  0  0
 14 15  1  0  0  0  0
 15 16  1  0  0  0  0
 15 17  2  0  0  0  0
 16 37  1  0  0  0  0
 16 38  1  0  0  0  0
 16 39  1  0  0  0  0
 17 18  1  0  0  0  0
 17 19  1  0  0  0  0
 18 40  1  0  0  0  0
 18 41  1  0  0  0  0
 18 42  1  0  0  0  0
 19 20  2  0  0  0  0
 21 22  1  0  0  0  0
 22 23  2  0  0  0  0
 22 43  1  0  0  0  0
 23 24  1  0  0  0  0
 24 44  1  0  0  0  0
 24 45  1  0  0  0  0
 24 46  1  0  0  0  0
M  CHG  1   5   1
M  END
> <s_m_source_file>
AV-unprocessed.smi

> <i_m_source_file_index>
2410

> <i_lp_mmshare_version>
43012

> <i_f3d_flags>
0

> <s_epik_input>
W0NIM11jKFtjSF0xKWMoW0NIM10pW2NIXWMoYzEyKW4oW2NIXW4yKVtDSDJdW0NASF0oW09IXSlbQ0gyXW4zW2NIXW5jKFtDSDNdKWMoW0NIM10pYzM9Tw==

> <s_epik_cmdline>
J2VwaWtfcHl0aG9uJywgJy1waCcsICc3LjAnLCAnLXRuJywgJzgnLCAnLW1hJywgJzIwMCcsICctbWV0YWxfYmluZGluZycsICctaW1hZScsICc8aW5maWxlLm1hZT4nLCAnLW9tYWUnLCAnPG91dGZpbGUubWFlPic=

> <r_lp_tautomer_probability>
1

> <r_epik_Ionization_Penalty>
1.03571

> <r_epik_Ionization_Penalty_Charging>
1.03568

> <r_epik_Ionization_Penalty_Neutral>
3.18232e-05

> <r_epik_State_Penalty>
1.08724

> <r_epik_Charging_Adjusted_Penalty>
2.12292

> <i_epik_Tot_Q>
1

> <i_epik_Tot_abs_Q>
1

> <r_epik_Metal_State_Penalty>
1.18374

> <b_epik_Metal_Only>
0

> <s_lp_Force_Field>
OPLS_2005

> <r_lp_Energy>
24.5117

> <b_lp_Chiralities_Consistent>
1

> <s_lp_Variant>
AV-unprocessed.smi:2410-4

> <Gold.Version>
5.8.1

> <Gold.Id.Protein>
6NUR|6NUR_protein|mol2

> <Gold.PLP.Fitness>
51.9573

> <Gold.PLP.PLP>
-41.1029

> <Gold.PLP.part.hbond>
-4.0000

> <Gold.PLP.part.metal>
0.0000

> <Gold.PLP.part.buried>
-1.6554

> <Gold.PLP.part.nonpolar>
-35.6928

> <Gold.PLP.part.repulsive>
0.1319

> <Gold.PLP.ligand.clash>
0.0172

> <Gold.PLP.ligand.torsion>
1.1767

> <Gold.PLP.Chemscore.Hbond>
4.1348

> <Gold.PLP.Chemscore.CHOScore>
0.2696

> <Gold.PLP.Chemscore.Metal>
0.0000

> <Gold.Chemscore.Hbonds>
donor molecule, donor type, donor heavy atom, donor atom, acceptor molecule, acceptor atom, score
      L1  H     5    47       P1  8028  1.76
      L1  H    10    33       P1  7957  0.17
      P1  H  7989  7998       L1    10  1.00
      P1  H 10752 10764       L1    20  1.00
      L1  C    13    36       P1  7948  0.28

> <Gold.PLP.Chemscore.Internal.Correction>
0.0120

> <Gold.Rescore>
     Score         DG    S(hbond)    S(metal)    S(lipo)     H(rot)  DE(clash)    DE(int)     intcor
     18.58     -21.01       2.81        0.00     105.04       2.41       0.15       2.28       ----

> <Gold.Chemscore.Fitness>
18.5773

> <Gold.Chemscore.DG>
-21.0128

> <Gold.Chemscore.ZeroCoef>
-5.4800

> <Gold.Chemscore.Hbond>
2.8145

> <Gold.Chemscore.Metal>
0.0000

> <Gold.Chemscore.Lipo>
105.0403

> <Gold.Chemscore.Internal_Hbond>
0.0000

> <Gold.Chemscore.DEClash>
0.1543

> <Gold.Chemscore.DEInternal>
2.2811

> <Gold.Chemscore.Rot>
2.4052

> <Gold.Chemscore.Internal.Correction>
   9.000000E+99

> <Gold.Chemscore.Hbonds>
donor molecule, donor type, donor heavy atom, donor atom, acceptor molecule, acceptor atom, score
      L1  H     5    47       P1  8028  0.85
      L1  H    10    33       P1  7957  0.13
      P1  H  7989  7998       L1    10  0.79
      P1  H 10752 10764       L1    20  0.95

> <Gold.Chemscore.Hbond.Weighted>
-9.4003

> <Gold.Chemscore.Metal.Weighted>
-0.0000

> <Gold.Chemscore.Lipo.Weighted>
-12.2897

> <Gold.Chemscore.Internal_Hbond.Weighted>
0.0000

> <Gold.Chemscore.DEClash.Weighted>
0.1543

> <Gold.Chemscore.DEInternal.Weighted>
2.2811

> <Gold.Chemscore.Rot.Weighted>
6.1573

> <Gold.Chemscore.Internal.Correction.Weighted>
   9.000000E+99

> <Gold.Protein.RotatedTorsions>
[ 6907 6896 6895 6894 ] final -166.21 input  -60.11 | X-H torsion
[ 7974 7965 7964 7962 ] final  -39.37 input  175.53 | X-H torsion
[ 8008 7997 7996 7995 ] final  151.60 input   59.86 | X-H torsion
[ 10167 10162 10161 10158 ] final  123.92 input  -65.29 | X-H torsion
[ 10718 10713 10712 10709 ] final  -45.70 input   66.30 | X-H torsion
[ 10763 10752 10751 10750 ] final  -20.47 input  -60.55 | X-H torsion
[ 11005 11000 10999 10996 ] final -103.43 input  -57.11 | X-H torsion

> <Gold.Protein.ActiveResidues>
 VAL166  LYS551  ARG553  GLY616  TRP617  ASP618  TYR619  PRO620  LYS621  CYS622 
 ASP623  PHE694  ASN695  SER759  ASP760  ASP761  ALA762  ILE779  LEU786  VAL792 
 PHE793  MET794  SER795  GLU796  ALA797  LYS798  CYS799  TRP800  GLU811  SER814 

> <Gold.Protein.RotatedAtoms>
  151.4400  133.3646  159.2780 H   0  0  0  0  0  0  0  0  0  0  0  0  # atno 6907 bound_to 6896
  150.9164  134.8583  159.7470 H   0  0  0  0  0  0  0  0  0  0  0  0  # atno 6908 bound_to 6896
  152.4959  134.4334  159.9571 H   0  0  0  0  0  0  0  0  0  0  0  0  # atno 6909 bound_to 6896
  146.0402  140.6618  142.9091 H   0  0  0  0  0  0  0  0  0  0  0  0  # atno 7974 bound_to 7965
  156.2666  140.2043  156.6202 H   0  0  0  0  0  0  0  0  0  0  0  0  # atno 8008 bound_to 7997
  154.6763  140.0544  157.0243 H   0  0  0  0  0  0  0  0  0  0  0  0  # atno 8009 bound_to 7997
  155.1065  140.3211  155.4536 H   0  0  0  0  0  0  0  0  0  0  0  0  # atno 8010 bound_to 7997
  139.5771  144.6968  151.3625 H   0  0  0  0  0  0  0  0  0  0  0  0  # atno 10167 bound_to 10162
  156.2257  130.4169  149.8937 H   0  0  0  0  0  0  0  0  0  0  0  0  # atno 10718 bound_to 10713
  153.6210  135.6993  153.5311 H   0  0  0  0  0  0  0  0  0  0  0  0  # atno 10763 bound_to 10752
  153.2938  135.4149  155.1190 H   0  0  0  0  0  0  0  0  0  0  0  0  # atno 10764 bound_to 10752
  154.8543  135.3632  154.5750 H   0  0  0  0  0  0  0  0  0  0  0  0  # atno 10765 bound_to 10752
  141.1146  133.8640  157.1485 H   0  0  0  0  0  0  0  0  0  0  0  0  # atno 11005 bound_to 11000
  144.7071  140.3894  143.7110 LP  0  0  0  0  0  0  0  0  0  0  0  0  # atno 17320 bound_to 7965
  145.6897  139.1636  143.2654 LP  0  0  0  0  0  0  0  0  0  0  0  0  # atno 17321 bound_to 7965
  140.7053  143.7530  150.7471 LP  0  0  0  0  0  0  0  0  0  0  0  0  # atno 17342 bound_to 10162
  140.1053  143.4750  152.2402 LP  0  0  0  0  0  0  0  0  0  0  0  0  # atno 17343 bound_to 10162
  156.6568  130.8766  151.3541 LP  0  0  0  0  0  0  0  0  0  0  0  0  # atno 17370 bound_to 10713
  157.7109  130.9439  150.1087 LP  0  0  0  0  0  0  0  0  0  0  0  0  # atno 17371 bound_to 10713
  140.0060  135.0008  157.0293 LP  0  0  0  0  0  0  0  0  0  0  0  0  # atno 17394 bound_to 11000
  140.4682  134.1414  155.7199 LP  0  0  0  0  0  0  0  0  0  0  0  0  # atno 17395 bound_to 11000

$$$$
