AV-unprocessed.smi:2324|AV-procd|sdf|9294|dock1
  -GOLD-   2272012513D 1   1.00000     0.00000
 Structure written by MMmdl.
 37 39  0  0  0  0  0  0  0  0  1 V2000
  150.4531  135.0112  155.8969 O   0  0  0  0  0  0  0  0  0  0  0  0
  149.9688  135.3372  154.8144 C   0  0  0  0  0  0  0  0  0  0  0  0
  149.4082  134.4175  154.0003 N   0  0  0  0  0  0  0  0  0  0  0  0
  149.2414  133.0083  154.1372 C   0  0  0  0  0  0  0  0  0  0  0  0
  148.2935  132.4388  153.2601 C   0  0  0  0  0  0  0  0  0  0  0  0
  148.0647  131.0539  153.3281 C   0  0  0  0  0  0  0  0  0  0  0  0
  148.8040  130.3256  154.2753 C   0  0  0  0  0  0  0  0  0  0  0  0
  149.7024  130.9099  155.0967 N   0  0  0  0  0  0  0  0  0  0  0  0
  149.9136  132.2282  155.0252 N   0  0  0  0  0  0  0  0  0  0  0  0
  149.9618  136.6071  154.3762 N   0  0  0  0  0  0  0  0  0  0  0  0
  150.5097  137.7537  155.0935 C   0  0  1  0  0  0  0  0  0  0  0  0
  151.9614  137.9946  154.6596 C   0  0  0  0  0  0  0  0  0  0  0  0
  152.5196  139.2653  155.3181 C   0  0  0  0  0  0  0  0  0  0  0  0
  151.6961  140.3890  155.0127 O   0  0  0  0  0  0  0  0  0  0  0  0
  150.3324  140.2780  155.4249 C   0  0  2  0  0  0  0  0  0  0  0  0
  150.1873  140.3539  156.9390 C   0  0  0  0  0  0  0  0  0  0  0  0
  150.0528  141.6888  157.6334 C   0  0  0  0  0  0  0  0  0  0  0  0
  151.3161  140.8775  157.7954 C   0  0  0  0  0  0  0  0  0  0  0  0
  149.6833  139.0209  154.8133 C   0  0  0  0  0  0  0  0  0  0  0  0
  149.0406  134.7965  153.1397 H   0  0  0  0  0  0  0  0  0  0  0  0
  147.7514  133.0466  152.5502 H   0  0  0  0  0  0  0  0  0  0  0  0
  147.3500  130.5690  152.6797 H   0  0  0  0  0  0  0  0  0  0  0  0
  148.6733  129.2586  154.3777 H   0  0  0  0  0  0  0  0  0  0  0  0
  149.5423  136.7917  153.4756 H   0  0  0  0  0  0  0  0  0  0  0  0
  150.5004  137.5396  156.1636 H   0  0  0  0  0  0  0  0  0  0  0  0
  152.5824  137.1365  154.9194 H   0  0  0  0  0  0  0  0  0  0  0  0
  152.0131  138.1005  153.5750 H   0  0  0  0  0  0  0  0  0  0  0  0
  152.6103  139.1361  156.3967 H   0  0  0  0  0  0  0  0  0  0  0  0
  153.5248  139.4632  154.9462 H   0  0  0  0  0  0  0  0  0  0  0  0
  149.8210  141.1476  155.0104 H   0  0  0  0  0  0  0  0  0  0  0  0
  149.6029  139.5476  157.3762 H   0  0  0  0  0  0  0  0  0  0  0  0
  150.1067  142.5870  157.0215 H   0  0  0  0  0  0  0  0  0  0  0  0
  149.3765  141.7442  158.4838 H   0  0  0  0  0  0  0  0  0  0  0  0
  151.4841  140.3925  158.7548 H   0  0  0  0  0  0  0  0  0  0  0  0
  152.2111  141.2365  157.2913 H   0  0  0  0  0  0  0  0  0  0  0  0
  149.5999  139.1622  153.7347 H   0  0  0  0  0  0  0  0  0  0  0  0
  148.6646  138.9071  155.1858 H   0  0  0  0  0  0  0  0  0  0  0  0
  1  2  2  0  0  0  0
  2  3  1  0  0  0  0
  2 10  1  0  0  0  0
  3  4  1  0  0  0  0
  3 20  1  0  0  0  0
  4  9  1  0  0  0  0
  4  5  2  0  0  0  0
  5  6  1  0  0  0  0
  5 21  1  0  0  0  0
  6  7  2  0  0  0  0
  6 22  1  0  0  0  0
  7  8  1  0  0  0  0
  7 23  1  0  0  0  0
  8  9  2  0  0  0  0
 10 11  1  0  0  0  0
 10 24  1  0  0  0  0
 11 19  1  0  0  0  0
 11 12  1  0  0  0  0
 11 25  1  0  0  0  0
 12 13  1  0  0  0  0
 12 26  1  0  0  0  0
 12 27  1  0  0  0  0
 13 14  1  0  0  0  0
 13 28  1  0  0  0  0
 13 29  1  0  0  0  0
 14 15  1  0  0  0  0
 15 16  1  0  0  0  0
 15 19  1  0  0  0  0
 15 30  1  0  0  0  0
 16 18  1  0  0  0  0
 16 17  1  0  0  0  0
 16 31  1  0  0  0  0
 17 18  1  0  0  0  0
 17 32  1  0  0  0  0
 17 33  1  0  0  0  0
 18 34  1  0  0  0  0
 18 35  1  0  0  0  0
 19 36  1  0  0  0  0
 19 37  1  0  0  0  0
M  END
> <s_m_source_file>
AV-unprocessed.smi

> <i_m_source_file_index>
2324

> <i_lp_mmshare_version>
43012

> <i_f3d_flags>
0

> <s_epik_input>
bjFuW2NIXVtjSF1bY0hdYzFbTkhdQyg9TylbTkhdW0NAQEhdMltDSDJdW0NIMl1PW0NASF0oW0NIMl0yKVtDSF0zW0NIMl1bQ0gyXTM=

> <s_epik_cmdline>
J2VwaWtfcHl0aG9uJywgJy1waCcsICc3LjAnLCAnLXRuJywgJzgnLCAnLW1hJywgJzIwMCcsICctbWV0YWxfYmluZGluZycsICctaW1hZScsICc8aW5maWxlLm1hZT4nLCAnLW9tYWUnLCAnPG91dGZpbGUubWFlPic=

> <r_lp_tautomer_probability>
1

> <r_epik_Ionization_Penalty>
0.00521499

> <r_epik_Ionization_Penalty_Charging>
0

> <r_epik_Ionization_Penalty_Neutral>
0.00521499

> <r_epik_State_Penalty>
-0

> <r_epik_Charging_Adjusted_Penalty>
0

> <i_epik_Tot_Q>
0

> <i_epik_Tot_abs_Q>
0

> <r_epik_Metal_State_Penalty>
-0

> <b_epik_Metal_Only>
0

> <s_lp_Force_Field>
OPLS_2005

> <r_lp_Energy>
28.1305

> <b_lp_Chiralities_Consistent>
1

> <s_lp_Variant>
AV-unprocessed.smi:2324-4

> <Gold.Version>
5.8.1

> <Gold.Id.Protein>
6NUR|6NUR_protein|mol2

> <Gold.PLP.Fitness>
37.6185

> <Gold.PLP.PLP>
-30.9833

> <Gold.PLP.part.hbond>
-3.0320

> <Gold.PLP.part.metal>
0.0000

> <Gold.PLP.part.buried>
-3.0854

> <Gold.PLP.part.nonpolar>
-25.6861

> <Gold.PLP.part.repulsive>
0.1566

> <Gold.PLP.ligand.clash>
0.0000

> <Gold.PLP.ligand.torsion>
1.3771

> <Gold.PLP.Chemscore.Hbond>
2.7680

> <Gold.PLP.Chemscore.CHOScore>
0.0000

> <Gold.PLP.Chemscore.Metal>
0.0000

> <Gold.Chemscore.Hbonds>
donor molecule, donor type, donor heavy atom, donor atom, acceptor molecule, acceptor atom, score
      L1  H     3    20       P1  7948  0.69
      L1  H    10    24       P1  7948  1.00
      P1  H  7989  7998       L1    14  0.86

> <Gold.PLP.Chemscore.Internal.Correction>
1.0854

> <Gold.Rescore>
     Score         DG    S(hbond)    S(metal)    S(lipo)     H(rot)  DE(clash)    DE(int)     intcor
     14.13     -16.60       2.16        0.00      60.68       1.25       0.00       2.47       ----

> <Gold.Chemscore.Fitness>
14.1330

> <Gold.Chemscore.DG>
-16.6017

> <Gold.Chemscore.ZeroCoef>
-5.4800

> <Gold.Chemscore.Hbond>
2.1603

> <Gold.Chemscore.Metal>
0.0000

> <Gold.Chemscore.Lipo>
60.6841

> <Gold.Chemscore.Internal_Hbond>
0.0000

> <Gold.Chemscore.DEClash>
0.0004

> <Gold.Chemscore.DEInternal>
2.4683

> <Gold.Chemscore.Rot>
1.2476

> <Gold.Chemscore.Internal.Correction>
   9.000000E+99

> <Gold.Chemscore.Hbonds>
donor molecule, donor type, donor heavy atom, donor atom, acceptor molecule, acceptor atom, score
      L1  H     3    20       P1  7948  0.07
      L1  H    10    24       P1  7948  0.75
      P1  H  7989  7998       L1    14  0.43

> <Gold.Chemscore.Hbond.Weighted>
-7.2155

> <Gold.Chemscore.Metal.Weighted>
-0.0000

> <Gold.Chemscore.Lipo.Weighted>
-7.1000

> <Gold.Chemscore.Internal_Hbond.Weighted>
0.0000

> <Gold.Chemscore.DEClash.Weighted>
0.0004

> <Gold.Chemscore.DEInternal.Weighted>
2.4683

> <Gold.Chemscore.Rot.Weighted>
3.1938

> <Gold.Chemscore.Internal.Correction.Weighted>
   9.000000E+99

> <Gold.Protein.RotatedTorsions>
[ 6907 6896 6895 6894 ] final -138.63 input  -60.11 | X-H torsion
[ 7974 7965 7964 7962 ] final   38.56 input  175.53 | X-H torsion
[ 8008 7997 7996 7995 ] final  -14.39 input   59.86 | X-H torsion
[ 10167 10162 10161 10158 ] final  -83.62 input  -65.29 | X-H torsion
[ 10718 10713 10712 10709 ] final   11.20 input   66.30 | X-H torsion
[ 10763 10752 10751 10750 ] final  -10.68 input  -60.55 | X-H torsion
[ 11005 11000 10999 10996 ] final   42.75 input  -57.11 | X-H torsion

> <Gold.Protein.ActiveResidues>
 VAL166  LYS551  ARG553  GLY616  TRP617  ASP618  TYR619  PRO620  LYS621  CYS622 
 ASP623  PHE694  ASN695  SER759  ASP760  ASP761  ALA762  ILE779  LEU786  VAL792 
 PHE793  MET794  SER795  GLU796  ALA797  LYS798  CYS799  TRP800  GLU811  SER814 

> <Gold.Protein.RotatedAtoms>
  151.0374  133.5736  159.2654 H   0  0  0  0  0  0  0  0  0  0  0  0  # atno 6907 bound_to 6896
  151.2795  135.0708  159.9174 H   0  0  0  0  0  0  0  0  0  0  0  0  # atno 6908 bound_to 6896
  152.5357  134.0091  159.7984 H   0  0  0  0  0  0  0  0  0  0  0  0  # atno 6909 bound_to 6896
  146.1053  139.5758  142.9388 H   0  0  0  0  0  0  0  0  0  0  0  0  # atno 7974 bound_to 7965
  154.5214  140.2224  155.8969 H   0  0  0  0  0  0  0  0  0  0  0  0  # atno 8008 bound_to 7997
  156.1666  140.3131  155.8864 H   0  0  0  0  0  0  0  0  0  0  0  0  # atno 8009 bound_to 7997
  155.3644  140.0463  157.3037 H   0  0  0  0  0  0  0  0  0  0  0  0  # atno 8010 bound_to 7997
  140.4210  143.2585  151.8890 H   0  0  0  0  0  0  0  0  0  0  0  0  # atno 10167 bound_to 10162
  156.9921  130.6046  149.5687 H   0  0  0  0  0  0  0  0  0  0  0  0  # atno 10718 bound_to 10713
  153.4726  135.7017  153.5984 H   0  0  0  0  0  0  0  0  0  0  0  0  # atno 10763 bound_to 10752
  153.4231  135.3820  155.2124 H   0  0  0  0  0  0  0  0  0  0  0  0  # atno 10764 bound_to 10752
  154.8724  135.3932  154.4166 H   0  0  0  0  0  0  0  0  0  0  0  0  # atno 10765 bound_to 10752
  140.1710  134.4222  155.8257 H   0  0  0  0  0  0  0  0  0  0  0  0  # atno 11005 bound_to 11000
  145.5774  141.0387  143.2141 LP  0  0  0  0  0  0  0  0  0  0  0  0  # atno 17320 bound_to 7965
  144.7465  139.7305  143.7290 LP  0  0  0  0  0  0  0  0  0  0  0  0  # atno 17321 bound_to 7965
  139.4782  144.5437  151.8490 LP  0  0  0  0  0  0  0  0  0  0  0  0  # atno 17342 bound_to 10162
  140.4534  144.1824  150.5899 LP  0  0  0  0  0  0  0  0  0  0  0  0  # atno 17343 bound_to 10162
  156.0203  130.5298  150.8256 LP  0  0  0  0  0  0  0  0  0  0  0  0  # atno 17370 bound_to 10713
  157.5451  131.0942  150.9773 LP  0  0  0  0  0  0  0  0  0  0  0  0  # atno 17371 bound_to 10713
  141.2217  133.6956  156.7763 LP  0  0  0  0  0  0  0  0  0  0  0  0  # atno 17394 bound_to 11000
  140.2378  134.8637  157.3542 LP  0  0  0  0  0  0  0  0  0  0  0  0  # atno 17395 bound_to 11000

$$$$
