AV-unprocessed.smi:109|AV-procd|sdf|1049|dock3
  -GOLD-   2262018 93D 1   1.00000     0.00000
 Structure written by MMmdl.
 58 61  0  0  0  0  0  0  0  0  1 V2000
  152.3200  136.9592  159.0386 O   0  0  0  0  0  0  0  0  0  0  0  0
  151.5867  138.0143  158.4549 C   0  0  0  0  0  0  0  0  0  0  0  0
  152.3345  139.3435  158.6562 C   0  0  0  0  0  0  0  0  0  0  0  0
  151.5669  140.5759  158.1221 C   0  0  2  0  0  0  0  0  0  0  0  0
  151.5293  140.5173  156.6589 N   0  0  0  0  0  0  0  0  0  0  0  0
  150.3718  140.4499  155.9635 C   0  0  0  0  0  0  0  0  0  0  0  0
  150.3142  139.8871  154.7297 N   0  0  0  0  0  0  0  0  0  0  0  0
  149.1520  139.8321  154.0753 C   0  0  0  0  0  0  0  0  0  0  0  0
  147.9544  140.2691  154.4679 N   0  0  0  0  0  0  0  0  0  0  0  0
  147.9988  140.8419  155.7065 C   0  0  0  0  0  0  0  0  0  0  0  0
  149.1693  140.9703  156.5082 C   0  0  0  0  0  0  0  0  0  0  0  0
  148.8587  141.6072  157.7001 N   0  0  0  0  0  0  0  0  0  0  0  0
  147.5786  141.8407  157.6056 C   0  0  0  0  0  0  0  0  0  0  0  0
  146.9696  141.3977  156.4510 N   0  0  0  0  0  0  0  0  0  0  0  0
  145.5114  141.5577  156.1114 C   0  0  1  0  0  0  0  0  0  0  0  0
  144.9728  140.3013  155.8511 O   0  0  0  0  0  0  0  0  0  0  0  0
  144.3653  139.7812  157.0251 C   0  0  2  0  0  0  0  0  0  0  0  0
  143.2859  138.7573  156.6399 C   0  0  0  0  0  0  0  0  0  0  0  0
  142.3990  139.3146  155.6939 O   0  0  0  0  0  0  0  0  0  0  0  0
  143.7922  141.0317  157.7131 C   0  0  1  0  0  0  0  0  0  0  0  0
  143.8630  140.8878  159.1175 O   0  0  0  0  0  0  0  0  0  0  0  0
  144.6806  142.1879  157.2414 C   0  0  2  0  0  0  0  0  0  0  0  0
  143.8839  143.2490  156.7543 O   0  0  0  0  0  0  0  0  0  0  0  0
  152.1695  141.9381  158.5707 C   0  0  0  0  0  0  0  0  0  0  0  0
  152.2497  142.0930  160.1102 C   0  0  0  0  0  0  0  0  0  0  0  0
  152.8024  143.4630  160.5363 C   0  0  0  0  0  0  0  0  0  0  0  0
  151.9798  144.6101  159.9379 C   0  0  0  0  0  0  0  0  0  0  0  0
  151.9190  144.4896  158.4109 C   0  0  0  0  0  0  0  0  0  0  0  0
  151.3596  143.1235  157.9845 C   0  0  0  0  0  0  0  0  0  0  0  0
  145.5234  142.1574  155.2000 H   0  0  0  0  0  0  0  0  0  0  0  0
  145.1284  139.3133  157.6474 H   0  0  0  0  0  0  0  0  0  0  0  0
  142.7552  141.1895  157.4115 H   0  0  0  0  0  0  0  0  0  0  0  0
  145.3293  142.5861  158.0217 H   0  0  0  0  0  0  0  0  0  0  0  0
  152.9555  137.3281  159.6331 H   0  0  0  0  0  0  0  0  0  0  0  0
  151.4462  137.7944  157.3964 H   0  0  0  0  0  0  0  0  0  0  0  0
  150.5985  138.0565  158.9140 H   0  0  0  0  0  0  0  0  0  0  0  0
  152.5085  139.4480  159.7258 H   0  0  0  0  0  0  0  0  0  0  0  0
  153.3180  139.2900  158.1868 H   0  0  0  0  0  0  0  0  0  0  0  0
  150.5626  140.5311  158.5419 H   0  0  0  0  0  0  0  0  0  0  0  0
  152.4310  140.5243  156.2044 H   0  0  0  0  0  0  0  0  0  0  0  0
  149.1855  139.3700  153.0998 H   0  0  0  0  0  0  0  0  0  0  0  0
  147.0345  142.3444  158.3914 H   0  0  0  0  0  0  0  0  0  0  0  0
  143.7479  137.8847  156.1771 H   0  0  0  0  0  0  0  0  0  0  0  0
  142.7380  138.4078  157.5156 H   0  0  0  0  0  0  0  0  0  0  0  0
  142.8394  139.3594  154.8589 H   0  0  0  0  0  0  0  0  0  0  0  0
  143.9326  141.7494  159.5017 H   0  0  0  0  0  0  0  0  0  0  0  0
  143.1757  143.3959  157.3626 H   0  0  0  0  0  0  0  0  0  0  0  0
  153.1868  142.0015  158.1808 H   0  0  0  0  0  0  0  0  0  0  0  0
  151.2610  141.9467  160.5470 H   0  0  0  0  0  0  0  0  0  0  0  0
  152.8979  141.3328  160.5432 H   0  0  0  0  0  0  0  0  0  0  0  0
  152.8070  143.5388  161.6241 H   0  0  0  0  0  0  0  0  0  0  0  0
  153.8413  143.5530  160.2167 H   0  0  0  0  0  0  0  0  0  0  0  0
  150.9698  144.5921  160.3494 H   0  0  0  0  0  0  0  0  0  0  0  0
  152.4142  145.5694  160.2207 H   0  0  0  0  0  0  0  0  0  0  0  0
  151.3004  145.2882  158.0006 H   0  0  0  0  0  0  0  0  0  0  0  0
  152.9168  144.6240  157.9913 H   0  0  0  0  0  0  0  0  0  0  0  0
  151.3499  143.0840  156.8950 H   0  0  0  0  0  0  0  0  0  0  0  0
  150.3182  143.0458  158.3001 H   0  0  0  0  0  0  0  0  0  0  0  0
  1  2  1  0  0  0  0
  1 34  1  0  0  0  0
  2  3  1  0  0  0  0
  2 35  1  0  0  0  0
  2 36  1  0  0  0  0
  3  4  1  0  0  0  0
  3 37  1  0  0  0  0
  3 38  1  0  0  0  0
  4  5  1  0  0  0  0
  4 24  1  0  0  0  0
  4 39  1  0  0  0  0
  5  6  1  0  0  0  0
  5 40  1  0  0  0  0
  6 11  1  0  0  0  0
  6  7  2  0  0  0  0
  7  8  1  0  0  0  0
  8  9  2  0  0  0  0
  8 41  1  0  0  0  0
  9 10  1  0  0  0  0
 10 14  1  0  0  0  0
 10 11  2  0  0  0  0
 11 12  1  0  0  0  0
 12 13  2  0  0  0  0
 13 14  1  0  0  0  0
 13 42  1  0  0  0  0
 14 15  1  0  0  0  0
 15 30  1  0  0  0  0
 15 22  1  0  0  0  0
 15 16  1  0  0  0  0
 16 17  1  0  0  0  0
 17 31  1  0  0  0  0
 17 18  1  0  0  0  0
 17 20  1  0  0  0  0
 18 19  1  0  0  0  0
 18 43  1  0  0  0  0
 18 44  1  0  0  0  0
 19 45  1  0  0  0  0
 20 32  1  0  0  0  0
 20 21  1  0  0  0  0
 20 22  1  0  0  0  0
 21 46  1  0  0  0  0
 22 33  1  0  0  0  0
 22 23  1  0  0  0  0
 23 47  1  0  0  0  0
 24 29  1  0  0  0  0
 24 25  1  0  0  0  0
 24 48  1  0  0  0  0
 25 26  1  0  0  0  0
 25 49  1  0  0  0  0
 25 50  1  0  0  0  0
 26 27  1  0  0  0  0
 26 51  1  0  0  0  0
 26 52  1  0  0  0  0
 27 28  1  0  0  0  0
 27 53  1  0  0  0  0
 27 54  1  0  0  0  0
 28 29  1  0  0  0  0
 28 55  1  0  0  0  0
 28 56  1  0  0  0  0
 29 57  1  0  0  0  0
 29 58  1  0  0  0  0
M  END
> <s_m_source_file>
AV-unprocessed.smi

> <i_m_source_file_index>
109

> <i_lp_mmshare_version>
43012

> <i_f3d_flags>
0

> <s_epik_input>
W0NIMl0xW0NIMl1bQ0gyXVtDSDJdW0NIMl1bQ0hdMVtDQEhdKFtDSDJdW0NIMl1bT0hdKVtOSF1jKG5bY0hdbjIpYyhjMjMpbltjSF1uM1tDQEBIXTRPW0NASF0oW0NIMl1bT0hdKVtDQEBIXShbT0hdKVtDQEhdNFtPSF0=

> <s_epik_cmdline>
J2VwaWtfcHl0aG9uJywgJy1waCcsICc3LjAnLCAnLXRuJywgJzgnLCAnLW1hJywgJzIwMCcsICctbWV0YWxfYmluZGluZycsICctaW1hZScsICc8aW5maWxlLm1hZT4nLCAnLW9tYWUnLCAnPG91dGZpbGUubWFlPic=

> <r_lp_tautomer_probability>
1

> <r_epik_Ionization_Penalty>
0.000793976

> <r_epik_Ionization_Penalty_Charging>
0

> <r_epik_Ionization_Penalty_Neutral>
0.000793976

> <r_epik_State_Penalty>
-0

> <r_epik_Charging_Adjusted_Penalty>
0

> <i_epik_Tot_Q>
0

> <i_epik_Tot_abs_Q>
0

> <r_epik_Metal_State_Penalty>
-0

> <b_epik_Metal_Only>
0

> <s_epik_Chemistry_Notes>
This compound contains an acetal/aminal-like group ( X-CH(R)-Y where X, Y are N, S, or O) that may be acid/base labile, releasing an aldehyde.

> <s_lp_Force_Field>
OPLS_2005

> <r_lp_Energy>
48.8451

> <b_lp_Chiralities_Consistent>
1

> <s_lp_Variant>
AV-unprocessed.smi:109-19

> <Gold.Version>
5.8.1

> <Gold.Id.Protein>
6NUR|6NUR_protein|mol2

> <Gold.PLP.Fitness>
51.9716

> <Gold.PLP.PLP>
-40.2878

> <Gold.PLP.part.hbond>
-3.0000

> <Gold.PLP.part.metal>
0.0000

> <Gold.PLP.part.buried>
-4.6474

> <Gold.PLP.part.nonpolar>
-34.1853

> <Gold.PLP.part.repulsive>
0.5938

> <Gold.PLP.ligand.clash>
0.0000

> <Gold.PLP.ligand.torsion>
0.2602

> <Gold.PLP.Chemscore.Hbond>
3.0000

> <Gold.PLP.Chemscore.CHOScore>
0.9479

> <Gold.PLP.Chemscore.Metal>
0.0000

> <Gold.Chemscore.Hbonds>
donor molecule, donor type, donor heavy atom, donor atom, acceptor molecule, acceptor atom, score
      P1  H  6896  6908       L1     1  0.46
      P1  H  7989  7998       L1     7  0.94
      L1  C     8    41       P1  7957  1.00

> <Gold.PLP.Chemscore.Internal.Correction>
0.3605

> <Gold.Rescore>
     Score         DG    S(hbond)    S(metal)    S(lipo)     H(rot)  DE(clash)    DE(int)     intcor
      5.58      -8.76       1.96        0.00      91.56       5.47       0.26       2.93       ----

> <Gold.Chemscore.Fitness>
5.5756

> <Gold.Chemscore.DG>
-8.7601

> <Gold.Chemscore.ZeroCoef>
-5.4800

> <Gold.Chemscore.Hbond>
1.9643

> <Gold.Chemscore.Metal>
0.0000

> <Gold.Chemscore.Lipo>
91.5627

> <Gold.Chemscore.Internal_Hbond>
0.0000

> <Gold.Chemscore.DEClash>
0.2585

> <Gold.Chemscore.DEInternal>
2.9260

> <Gold.Chemscore.Rot>
5.4662

> <Gold.Chemscore.Internal.Correction>
   9.000000E+99

> <Gold.Chemscore.Hbonds>
donor molecule, donor type, donor heavy atom, donor atom, acceptor molecule, acceptor atom, score
      P1  H  6896  6908       L1     1  0.34
      P1  H  7989  7998       L1     7  0.35

> <Gold.Chemscore.Hbond.Weighted>
-6.5608

> <Gold.Chemscore.Metal.Weighted>
-0.0000

> <Gold.Chemscore.Lipo.Weighted>
-10.7128

> <Gold.Chemscore.Internal_Hbond.Weighted>
0.0000

> <Gold.Chemscore.DEClash.Weighted>
0.2585

> <Gold.Chemscore.DEInternal.Weighted>
2.9260

> <Gold.Chemscore.Rot.Weighted>
13.9935

> <Gold.Chemscore.Internal.Correction.Weighted>
   9.000000E+99

> <Gold.Protein.RotatedTorsions>
[ 6907 6896 6895 6894 ] final -130.48 input  -60.11 | X-H torsion
[ 7974 7965 7964 7962 ] final  -52.01 input  175.53 | X-H torsion
[ 8008 7997 7996 7995 ] final  -32.84 input   59.86 | X-H torsion
[ 10167 10162 10161 10158 ] final  170.32 input  -65.29 | X-H torsion
[ 10718 10713 10712 10709 ] final   48.22 input   66.30 | X-H torsion
[ 10763 10752 10751 10750 ] final -155.40 input  -60.55 | X-H torsion
[ 11005 11000 10999 10996 ] final   94.02 input  -57.11 | X-H torsion

> <Gold.Protein.ActiveResidues>
 VAL166  LYS551  ARG553  GLY616  TRP617  ASP618  TYR619  PRO620  LYS621  CYS622 
 ASP623  PHE694  ASN695  SER759  ASP760  ASP761  ALA762  ILE779  LEU786  VAL792 
 PHE793  MET794  SER795  GLU796  ALA797  LYS798  CYS799  TRP800  GLU811  SER814 

> <Gold.Protein.RotatedAtoms>
  150.9402  133.6665  159.2792 H   0  0  0  0  0  0  0  0  0  0  0  0  # atno 6907 bound_to 6896
  151.4057  135.0976  159.9579 H   0  0  0  0  0  0  0  0  0  0  0  0  # atno 6908 bound_to 6896
  152.5066  133.8886  159.7437 H   0  0  0  0  0  0  0  0  0  0  0  0  # atno 6909 bound_to 6896
  145.9127  140.7902  142.9687 H   0  0  0  0  0  0  0  0  0  0  0  0  # atno 7974 bound_to 7965
  154.4167  140.1727  156.1792 H   0  0  0  0  0  0  0  0  0  0  0  0  # atno 8008 bound_to 7997
  155.9696  140.3387  155.6540 H   0  0  0  0  0  0  0  0  0  0  0  0  # atno 8009 bound_to 7997
  155.6642  140.0704  157.2534 H   0  0  0  0  0  0  0  0  0  0  0  0  # atno 8010 bound_to 7997
  139.5015  144.3609  151.9826 H   0  0  0  0  0  0  0  0  0  0  0  0  # atno 10167 bound_to 10162
  157.4665  130.8228  149.7941 H   0  0  0  0  0  0  0  0  0  0  0  0  # atno 10718 bound_to 10713
  154.7790  135.3168  154.8031 H   0  0  0  0  0  0  0  0  0  0  0  0  # atno 10763 bound_to 10752
  153.8747  135.6841  153.4776 H   0  0  0  0  0  0  0  0  0  0  0  0  # atno 10764 bound_to 10752
  153.1421  135.4735  154.9448 H   0  0  0  0  0  0  0  0  0  0  0  0  # atno 10765 bound_to 10752
  139.8803  134.8822  156.3803 H   0  0  0  0  0  0  0  0  0  0  0  0  # atno 11005 bound_to 11000
  144.6745  140.1850  143.7402 LP  0  0  0  0  0  0  0  0  0  0  0  0  # atno 17320 bound_to 7965
  145.8651  139.2243  143.1693 LP  0  0  0  0  0  0  0  0  0  0  0  0  # atno 17321 bound_to 7965
  140.3045  144.3608  150.6051 LP  0  0  0  0  0  0  0  0  0  0  0  0  # atno 17342 bound_to 10162
  140.5847  143.2170  151.7364 LP  0  0  0  0  0  0  0  0  0  0  0  0  # atno 17343 bound_to 10162
  156.0053  130.3859  150.2455 LP  0  0  0  0  0  0  0  0  0  0  0  0  # atno 17370 bound_to 10713
  157.0636  131.0097  151.3214 LP  0  0  0  0  0  0  0  0  0  0  0  0  # atno 17371 bound_to 10713
  140.9403  133.7519  156.0138 LP  0  0  0  0  0  0  0  0  0  0  0  0  # atno 17394 bound_to 11000
  140.8227  134.3271  157.5376 LP  0  0  0  0  0  0  0  0  0  0  0  0  # atno 17395 bound_to 11000

$$$$
