AV-unprocessed.smi:2428|AV-procd|sdf|9581|dock4
  -GOLD-   2272013213D 1   1.00000     0.00000
 Structure written by MMmdl.
 30 31  0  0  0  0  0  0  0  0  1 V2000
  152.3263  144.6472  158.0325 F   0  0  0  0  0  0  0  0  0  0  0  0
  151.8368  144.1647  159.1739 C   0  0  0  0  0  0  0  0  0  0  0  0
  152.0008  145.0789  160.1305 F   0  0  0  0  0  0  0  0  0  0  0  0
  150.5308  143.9441  159.0225 F   0  0  0  0  0  0  0  0  0  0  0  0
  152.5464  142.8643  159.5146 C   0  0  0  0  0  0  0  0  0  0  0  0
  153.2027  142.7105  160.7531 C   0  0  0  0  0  0  0  0  0  0  0  0
  153.8459  141.4911  161.0402 C   0  0  0  0  0  0  0  0  0  0  0  0
  153.8117  140.4611  160.0776 C   0  0  0  0  0  0  0  0  0  0  0  0
  154.4524  139.2490  160.3677 N   0  0  0  0  0  0  0  0  0  0  0  0
  155.3581  139.1431  161.5023 C   0  0  0  0  0  0  0  0  0  0  0  0
  154.6709  138.4907  162.7084 C   0  0  1  0  0  0  0  0  0  0  0  0
  154.1966  137.0629  162.4457 C   0  0  0  0  0  0  0  0  0  0  0  0
  154.1755  136.4327  163.8301 C   0  0  0  0  0  0  0  0  0  0  0  0
  154.9984  137.3957  164.6911 C   0  0  0  0  0  0  0  0  0  0  0  0
  155.5905  138.3033  163.7722 O   0  0  0  0  0  0  0  0  0  0  0  0
  153.1784  140.6003  158.8887 N   0  0  0  0  0  0  0  0  0  0  0  0
  152.5633  141.7721  158.6199 C   0  0  0  0  0  0  0  0  0  0  0  0
  153.2132  143.5146  161.4741 H   0  0  0  0  0  0  0  0  0  0  0  0
  154.3554  141.3534  161.9830 H   0  0  0  0  0  0  0  0  0  0  0  0
  154.1422  138.4003  159.9170 H   0  0  0  0  0  0  0  0  0  0  0  0
  156.2171  138.5400  161.2054 H   0  0  0  0  0  0  0  0  0  0  0  0
  155.7333  140.1321  161.7693 H   0  0  0  0  0  0  0  0  0  0  0  0
  153.8331  139.0999  163.0541 H   0  0  0  0  0  0  0  0  0  0  0  0
  153.2276  137.0270  161.9470 H   0  0  0  0  0  0  0  0  0  0  0  0
  154.9173  136.5370  161.8178 H   0  0  0  0  0  0  0  0  0  0  0  0
  153.1588  136.3467  164.2155 H   0  0  0  0  0  0  0  0  0  0  0  0
  154.6131  135.4339  163.8100 H   0  0  0  0  0  0  0  0  0  0  0  0
  154.3509  137.9479  165.3737 H   0  0  0  0  0  0  0  0  0  0  0  0
  155.7585  136.8846  165.2821 H   0  0  0  0  0  0  0  0  0  0  0  0
  152.0704  141.8313  157.6610 H   0  0  0  0  0  0  0  0  0  0  0  0
  1  2  1  0  0  0  0
  2  3  1  0  0  0  0
  2  4  1  0  0  0  0
  2  5  1  0  0  0  0
  5 17  1  0  0  0  0
  5  6  2  0  0  0  0
  6  7  1  0  0  0  0
  6 18  1  0  0  0  0
  7  8  2  0  0  0  0
  7 19  1  0  0  0  0
  8  9  1  0  0  0  0
  8 16  1  0  0  0  0
  9 10  1  0  0  0  0
  9 20  1  0  0  0  0
 10 11  1  0  0  0  0
 10 21  1  0  0  0  0
 10 22  1  0  0  0  0
 11 15  1  0  0  0  0
 11 12  1  0  0  0  0
 11 23  1  0  0  0  0
 12 13  1  0  0  0  0
 12 24  1  0  0  0  0
 12 25  1  0  0  0  0
 13 14  1  0  0  0  0
 13 26  1  0  0  0  0
 13 27  1  0  0  0  0
 14 15  1  0  0  0  0
 14 28  1  0  0  0  0
 14 29  1  0  0  0  0
 16 17  2  0  0  0  0
 17 30  1  0  0  0  0
M  END
> <s_m_source_file>
AV-unprocessed.smi

> <i_m_source_file_index>
2428

> <i_lp_mmshare_version>
43012

> <i_f3d_flags>
0

> <s_epik_input>
RkMoRikoRiljMVtjSF1bY0hdYyhuW2NIXTEpW05IXVtDSDJdW0NAQEhdMltDSDJdW0NIMl1bQ0gyXU8y

> <s_epik_cmdline>
J2VwaWtfcHl0aG9uJywgJy1waCcsICc3LjAnLCAnLXRuJywgJzgnLCAnLW1hJywgJzIwMCcsICctbWV0YWxfYmluZGluZycsICctaW1hZScsICc8aW5maWxlLm1hZT4nLCAnLW9tYWUnLCAnPG91dGZpbGUubWFlPic=

> <r_lp_tautomer_probability>
1

> <r_epik_Ionization_Penalty>
0.000819842

> <r_epik_Ionization_Penalty_Charging>
0

> <r_epik_Ionization_Penalty_Neutral>
0.000819842

> <r_epik_State_Penalty>
0.000527207

> <r_epik_Charging_Adjusted_Penalty>
0.000527207

> <i_epik_Tot_Q>
0

> <i_epik_Tot_abs_Q>
0

> <r_epik_Metal_State_Penalty>
-0

> <b_epik_Metal_Only>
0

> <s_lp_Force_Field>
OPLS_2005

> <r_lp_Energy>
19.0115

> <b_lp_Chiralities_Consistent>
1

> <s_lp_Variant>
AV-unprocessed.smi:2428-2

> <Gold.Version>
5.8.1

> <Gold.Id.Protein>
6NUR|6NUR_protein|mol2

> <Gold.PLP.Fitness>
44.5549

> <Gold.PLP.PLP>
-45.2015

> <Gold.PLP.part.hbond>
-0.5826

> <Gold.PLP.part.metal>
0.0000

> <Gold.PLP.part.buried>
-4.6410

> <Gold.PLP.part.nonpolar>
-39.4377

> <Gold.PLP.part.repulsive>
0.0546

> <Gold.PLP.ligand.clash>
0.7997

> <Gold.PLP.ligand.torsion>
0.2124

> <Gold.PLP.Chemscore.Hbond>
0.1833

> <Gold.PLP.Chemscore.CHOScore>
0.0000

> <Gold.PLP.Chemscore.Metal>
0.0000

> <Gold.Chemscore.Hbonds>
donor molecule, donor type, donor heavy atom, donor atom, acceptor molecule, acceptor atom, score
      P1  H  7997  8009       L1    16  0.10

> <Gold.PLP.Chemscore.Internal.Correction>
0.0280

> <Gold.Rescore>
     Score         DG    S(hbond)    S(metal)    S(lipo)     H(rot)  DE(clash)    DE(int)     intcor
     13.56     -13.89       0.35        0.00      89.11       1.25       0.07       0.25       ----

> <Gold.Chemscore.Fitness>
13.5638

> <Gold.Chemscore.DG>
-13.8856

> <Gold.Chemscore.ZeroCoef>
-5.4800

> <Gold.Chemscore.Hbond>
0.3542

> <Gold.Chemscore.Metal>
0.0000

> <Gold.Chemscore.Lipo>
89.1128

> <Gold.Chemscore.Internal_Hbond>
0.0000

> <Gold.Chemscore.DEClash>
0.0723

> <Gold.Chemscore.DEInternal>
0.2495

> <Gold.Chemscore.Rot>
1.2514

> <Gold.Chemscore.Internal.Correction>
   9.000000E+99

> <Gold.Chemscore.Hbonds>
donor molecule, donor type, donor heavy atom, donor atom, acceptor molecule, acceptor atom, score
      P1  H  7997  8009       L1    16  0.06

> <Gold.Chemscore.Hbond.Weighted>
-1.1829

> <Gold.Chemscore.Metal.Weighted>
-0.0000

> <Gold.Chemscore.Lipo.Weighted>
-10.4262

> <Gold.Chemscore.Internal_Hbond.Weighted>
0.0000

> <Gold.Chemscore.DEClash.Weighted>
0.0723

> <Gold.Chemscore.DEInternal.Weighted>
0.2495

> <Gold.Chemscore.Rot.Weighted>
3.2036

> <Gold.Chemscore.Internal.Correction.Weighted>
   9.000000E+99

> <Gold.Protein.RotatedTorsions>
[ 6907 6896 6895 6894 ] final  -39.97 input  -60.11 | X-H torsion
[ 7974 7965 7964 7962 ] final  -53.98 input  175.53 | X-H torsion
[ 8008 7997 7996 7995 ] final  148.37 input   59.86 | X-H torsion
[ 10167 10162 10161 10158 ] final   84.92 input  -65.29 | X-H torsion
[ 10718 10713 10712 10709 ] final   70.14 input   66.30 | X-H torsion
[ 10763 10752 10751 10750 ] final   94.80 input  -60.55 | X-H torsion
[ 11005 11000 10999 10996 ] final  -21.25 input  -57.11 | X-H torsion

> <Gold.Protein.ActiveResidues>
 VAL166  LYS551  ARG553  GLY616  TRP617  ASP618  TYR619  PRO620  LYS621  CYS622 
 ASP623  PHE694  ASN695  SER759  ASP760  ASP761  ALA762  ILE779  LEU786  VAL792 
 PHE793  MET794  SER795  GLU796  ALA797  LYS798  CYS799  TRP800  GLU811  SER814 

> <Gold.Protein.RotatedAtoms>
  150.9840  134.9189  159.7860 H   0  0  0  0  0  0  0  0  0  0  0  0  # atno 6907 bound_to 6896
  152.5230  134.3372  159.9214 H   0  0  0  0  0  0  0  0  0  0  0  0  # atno 6908 bound_to 6896
  151.3379  133.3933  159.2703 H   0  0  0  0  0  0  0  0  0  0  0  0  # atno 6909 bound_to 6896
  145.8907  140.8072  142.9793 H   0  0  0  0  0  0  0  0  0  0  0  0  # atno 7974 bound_to 7965
  156.2793  140.2130  156.5687 H   0  0  0  0  0  0  0  0  0  0  0  0  # atno 8008 bound_to 7997
  154.7153  140.0508  157.0612 H   0  0  0  0  0  0  0  0  0  0  0  0  # atno 8009 bound_to 7997
  155.0550  140.3160  155.4682 H   0  0  0  0  0  0  0  0  0  0  0  0  # atno 8010 bound_to 7997
  139.9031  144.6317  150.8616 H   0  0  0  0  0  0  0  0  0  0  0  0  # atno 10167 bound_to 10162
  157.6384  130.9462  150.0610 H   0  0  0  0  0  0  0  0  0  0  0  0  # atno 10718 bound_to 10713
  153.2458  135.4276  155.0746 H   0  0  0  0  0  0  0  0  0  0  0  0  # atno 10763 bound_to 10752
  154.8361  135.3414  154.6583 H   0  0  0  0  0  0  0  0  0  0  0  0  # atno 10764 bound_to 10752
  153.7006  135.7028  153.5121 H   0  0  0  0  0  0  0  0  0  0  0  0  # atno 10765 bound_to 10752
  140.8543  133.7834  156.0001 H   0  0  0  0  0  0  0  0  0  0  0  0  # atno 11005 bound_to 11000
  144.6730  140.1525  143.7429 LP  0  0  0  0  0  0  0  0  0  0  0  0  # atno 17320 bound_to 7965
  145.8911  139.2376  143.1549 LP  0  0  0  0  0  0  0  0  0  0  0  0  # atno 17321 bound_to 7965
  140.7702  143.3422  151.2185 LP  0  0  0  0  0  0  0  0  0  0  0  0  # atno 17342 bound_to 10162
  139.7008  143.9536  152.2904 LP  0  0  0  0  0  0  0  0  0  0  0  0  # atno 17343 bound_to 10162
  156.1643  130.3644  149.9255 LP  0  0  0  0  0  0  0  0  0  0  0  0  # atno 17370 bound_to 10713
  156.7245  130.9020  151.3621 LP  0  0  0  0  0  0  0  0  0  0  0  0  # atno 17371 bound_to 10713
  140.8755  134.2674  157.5170 LP  0  0  0  0  0  0  0  0  0  0  0  0  # atno 17394 bound_to 11000
  139.8705  134.9589  156.4314 LP  0  0  0  0  0  0  0  0  0  0  0  0  # atno 17395 bound_to 11000

$$$$
