AV-unprocessed.smi:3303|AV-procd|sdf|12661|dock3
  -GOLD-   2272018593D 1   1.00000     0.00000
 Structure written by MMmdl.
 45 46  0  0  0  0  0  0  0  0  3 V2000
  144.8891  135.8805  152.2781 C   0  0  0  0  0  0  0  0  0  0  0  0
  145.4505  134.8660  151.2656 C   0  0  2  0  0  0  0  0  0  0  0  0
  144.3071  134.3063  150.3920 C   0  0  0  0  0  0  0  0  0  0  0  0
  144.8050  133.3180  149.4027 N   0  3  2  0  0  0  0  0  0  0  0  0
  143.7728  132.9195  148.4185 C   0  0  0  0  0  0  0  0  0  0  0  0
  145.5288  132.1740  150.0258 C   0  0  2  0  0  0  0  0  0  0  0  0
  144.6098  131.2039  150.7998 C   0  0  0  0  0  0  0  0  0  0  0  0
  146.6905  132.6974  150.8940 C   0  0  0  0  0  0  0  0  0  0  0  0
  146.2280  133.7201  151.9550 C   0  0  1  0  0  0  0  0  0  0  0  0
  147.3876  134.2569  152.7061 N   0  3  0  0  0  0  0  0  0  0  0  0
  148.4443  133.2734  153.0223 C   0  0  0  0  0  0  0  0  0  0  0  0
  149.2293  133.6927  154.2724 C   0  0  0  0  0  0  0  0  0  0  0  0
  150.0493  132.5499  154.8397 C   0  0  0  0  0  0  0  0  0  0  0  0
  149.8538  131.2272  154.3885 C   0  0  0  0  0  0  0  0  0  0  0  0
  150.6507  130.2061  154.9418 C   0  0  0  0  0  0  0  0  0  0  0  0
  151.6070  130.5459  155.9182 C   0  0  0  0  0  0  0  0  0  0  0  0
  151.7250  131.8972  156.2998 C   0  0  0  0  0  0  0  0  0  0  0  0
  150.9669  132.8842  155.7745 N   0  0  0  0  0  0  0  0  0  0  0  0
  144.2072  135.4030  152.9826 H   0  0  0  0  0  0  0  0  0  0  0  0
  144.3386  136.6744  151.7724 H   0  0  0  0  0  0  0  0  0  0  0  0
  145.6818  136.3582  152.8542 H   0  0  0  0  0  0  0  0  0  0  0  0
  146.1390  135.4000  150.6083 H   0  0  0  0  0  0  0  0  0  0  0  0
  143.5332  133.8544  151.0137 H   0  0  0  0  0  0  0  0  0  0  0  0
  143.8294  135.1284  149.8568 H   0  0  0  0  0  0  0  0  0  0  0  0
  142.9108  132.4604  148.9033 H   0  0  0  0  0  0  0  0  0  0  0  0
  144.1792  132.2132  147.6937 H   0  0  0  0  0  0  0  0  0  0  0  0
  143.4193  133.7912  147.8666 H   0  0  0  0  0  0  0  0  0  0  0  0
  145.9758  131.6024  149.2110 H   0  0  0  0  0  0  0  0  0  0  0  0
  145.1917  130.3945  151.2414 H   0  0  0  0  0  0  0  0  0  0  0  0
  143.8723  130.7378  150.1466 H   0  0  0  0  0  0  0  0  0  0  0  0
  144.0725  131.6937  151.6109 H   0  0  0  0  0  0  0  0  0  0  0  0
  147.1957  131.8534  151.3636 H   0  0  0  0  0  0  0  0  0  0  0  0
  147.4320  133.1660  150.2449 H   0  0  0  0  0  0  0  0  0  0  0  0
  145.5599  133.2313  152.6656 H   0  0  0  0  0  0  0  0  0  0  0  0
  147.7919  135.0244  152.1884 H   0  0  0  0  0  0  0  0  0  0  0  0
  147.9899  132.2950  153.1844 H   0  0  0  0  0  0  0  0  0  0  0  0
  149.1246  133.1776  152.1762 H   0  0  0  0  0  0  0  0  0  0  0  0
  149.8977  134.5224  154.0355 H   0  0  0  0  0  0  0  0  0  0  0  0
  148.5448  134.0591  155.0392 H   0  0  0  0  0  0  0  0  0  0  0  0
  149.1132  130.9963  153.6366 H   0  0  0  0  0  0  0  0  0  0  0  0
  150.5309  129.1813  154.6228 H   0  0  0  0  0  0  0  0  0  0  0  0
  152.2354  129.7892  156.3644 H   0  0  0  0  0  0  0  0  0  0  0  0
  152.4483  132.1935  157.0453 H   0  0  0  0  0  0  0  0  0  0  0  0
  147.0425  134.6133  153.5861 H   0  0  0  0  0  0  0  0  0  0  0  0
  145.5032  133.8089  148.8623 H   0  0  0  0  0  0  0  0  0  0  0  0
  1  2  1  0  0  0  0
  1 19  1  0  0  0  0
  1 20  1  0  0  0  0
  1 21  1  0  0  0  0
  2  9  1  0  0  0  0
  2  3  1  0  0  0  0
  2 22  1  0  0  0  0
  3  4  1  0  0  0  0
  3 23  1  0  0  0  0
  3 24  1  0  0  0  0
  4  5  1  0  0  0  0
  4  6  1  0  0  0  0
  4 45  1  0  0  0  0
  5 25  1  0  0  0  0
  5 26  1  0  0  0  0
  5 27  1  0  0  0  0
  6  7  1  0  0  0  0
  6  8  1  0  0  0  0
  6 28  1  0  0  0  0
  7 29  1  0  0  0  0
  7 30  1  0  0  0  0
  7 31  1  0  0  0  0
  8  9  1  0  0  0  0
  8 32  1  0  0  0  0
  8 33  1  0  0  0  0
  9 10  1  0  0  0  0
  9 34  1  0  0  0  0
 10 11  1  0  0  0  0
 10 35  1  0  0  0  0
 10 44  1  0  0  0  0
 11 12  1  0  0  0  0
 11 36  1  0  0  0  0
 11 37  1  0  0  0  0
 12 13  1  0  0  0  0
 12 38  1  0  0  0  0
 12 39  1  0  0  0  0
 13 18  1  0  0  0  0
 13 14  2  0  0  0  0
 14 15  1  0  0  0  0
 14 40  1  0  0  0  0
 15 16  2  0  0  0  0
 15 41  1  0  0  0  0
 16 17  1  0  0  0  0
 16 42  1  0  0  0  0
 17 18  2  0  0  0  0
 17 43  1  0  0  0  0
M  CHG  1   4   1
M  CHG  1  10   1
M  END
> <s_m_source_file>
AV-unprocessed.smi

> <i_m_source_file_index>
3303

> <i_lp_mmshare_version>
43012

> <i_f3d_flags>
0

> <s_epik_input>
W0NIM11bQ0BASF0xW0NIMl1OKFtDSDNdKVtDQEBIXShbQ0gzXSlbQ0gyXVtDQEhdMVtOSF1bQ0gyXVtDSDJdYzJbY0hdW2NIXVtjSF1bY0hdbjI=

> <s_epik_cmdline>
J2VwaWtfcHl0aG9uJywgJy1waCcsICc3LjAnLCAnLXRuJywgJzgnLCAnLW1hJywgJzIwMCcsICctbWV0YWxfYmluZGluZycsICctaW1hZScsICc8aW5maWxlLm1hZT4nLCAnLW9tYWUnLCAnPG91dGZpbGUubWFlPic=

> <r_epik_Ionization_Penalty>
0.0769462

> <r_epik_Ionization_Penalty_Charging>
0.0759813

> <r_epik_Ionization_Penalty_Neutral>
0.000964829

> <r_epik_State_Penalty>
0.0654373

> <r_epik_Charging_Adjusted_Penalty>
0.141419

> <i_epik_Tot_Q>
2

> <i_epik_Tot_abs_Q>
2

> <r_epik_Metal_State_Penalty>
0.0656439

> <b_epik_Metal_Only>
0

> <s_lp_Force_Field>
OPLS_2005

> <r_lp_Energy>
28.3665

> <b_lp_Chiralities_Consistent>
1

> <s_lp_Variant>
AV-unprocessed.smi:3303-5

> <Gold.Version>
5.8.1

> <Gold.Id.Protein>
6NUR|6NUR_protein|mol2

> <Gold.PLP.Fitness>
46.0591

> <Gold.PLP.PLP>
-38.1139

> <Gold.PLP.part.hbond>
-2.0000

> <Gold.PLP.part.metal>
0.0000

> <Gold.PLP.part.buried>
-1.4026

> <Gold.PLP.part.nonpolar>
-33.9609

> <Gold.PLP.part.repulsive>
0.1497

> <Gold.PLP.ligand.clash>
0.0000

> <Gold.PLP.ligand.torsion>
0.5334

> <Gold.PLP.Chemscore.Hbond>
3.0000

> <Gold.PLP.Chemscore.CHOScore>
0.0000

> <Gold.PLP.Chemscore.Metal>
0.0000

> <Gold.Chemscore.Hbonds>
donor molecule, donor type, donor heavy atom, donor atom, acceptor molecule, acceptor atom, score
      L1  H     4    45       P1  7921  1.00
      L1  H    10    35       P1  7948  2.00

> <Gold.PLP.Chemscore.Internal.Correction>
0.0119

> <Gold.Rescore>
     Score         DG    S(hbond)    S(metal)    S(lipo)     H(rot)  DE(clash)    DE(int)     intcor
     18.45     -19.52       1.82        0.00      98.01       1.37       0.49       0.59       ----

> <Gold.Chemscore.Fitness>
18.4478

> <Gold.Chemscore.DG>
-19.5232

> <Gold.Chemscore.ZeroCoef>
-5.4800

> <Gold.Chemscore.Hbond>
1.8249

> <Gold.Chemscore.Metal>
0.0000

> <Gold.Chemscore.Lipo>
98.0057

> <Gold.Chemscore.Internal_Hbond>
0.0000

> <Gold.Chemscore.DEClash>
0.4888

> <Gold.Chemscore.DEInternal>
0.5866

> <Gold.Chemscore.Rot>
1.3744

> <Gold.Chemscore.Internal.Correction>
   9.000000E+99

> <Gold.Chemscore.Hbonds>
donor molecule, donor type, donor heavy atom, donor atom, acceptor molecule, acceptor atom, score
      L1  H     4    45       P1  7921  0.55
      L1  H    10    35       P1  7948  0.87

> <Gold.Chemscore.Hbond.Weighted>
-6.0950

> <Gold.Chemscore.Metal.Weighted>
-0.0000

> <Gold.Chemscore.Lipo.Weighted>
-11.4667

> <Gold.Chemscore.Internal_Hbond.Weighted>
0.0000

> <Gold.Chemscore.DEClash.Weighted>
0.4888

> <Gold.Chemscore.DEInternal.Weighted>
0.5866

> <Gold.Chemscore.Rot.Weighted>
3.5185

> <Gold.Chemscore.Internal.Correction.Weighted>
   9.000000E+99

> <Gold.Protein.RotatedTorsions>
[ 6907 6896 6895 6894 ] final  142.95 input  -60.11 | X-H torsion
[ 7974 7965 7964 7962 ] final -176.27 input  175.53 | X-H torsion
[ 8008 7997 7996 7995 ] final   64.96 input   59.86 | X-H torsion
[ 10167 10162 10161 10158 ] final  -46.12 input  -65.29 | X-H torsion
[ 10718 10713 10712 10709 ] final  117.04 input   66.30 | X-H torsion
[ 10763 10752 10751 10750 ] final  -34.73 input  -60.55 | X-H torsion
[ 11005 11000 10999 10996 ] final   27.35 input  -57.11 | X-H torsion

> <Gold.Protein.ActiveResidues>
 VAL166  LYS551  ARG553  GLY616  TRP617  ASP618  TYR619  PRO620  LYS621  CYS622 
 ASP623  PHE694  ASN695  SER759  ASP760  ASP761  ALA762  ILE779  LEU786  VAL792 
 PHE793  MET794  SER795  GLU796  ALA797  LYS798  CYS799  TRP800  GLU811  SER814 

> <Gold.Protein.RotatedAtoms>
  152.2123  133.4920  159.5116 H   0  0  0  0  0  0  0  0  0  0  0  0  # atno 6907 bound_to 6896
  150.6993  134.1451  159.4128 H   0  0  0  0  0  0  0  0  0  0  0  0  # atno 6908 bound_to 6896
  151.9370  135.0230  160.0584 H   0  0  0  0  0  0  0  0  0  0  0  0  # atno 6909 bound_to 6896
  144.7127  140.1195  143.6406 H   0  0  0  0  0  0  0  0  0  0  0  0  # atno 7974 bound_to 7965
  155.6543  140.3497  155.4759 H   0  0  0  0  0  0  0  0  0  0  0  0  # atno 8008 bound_to 7997
  155.9822  140.1176  157.0739 H   0  0  0  0  0  0  0  0  0  0  0  0  # atno 8009 bound_to 7997
  154.4195  140.1136  156.5436 H   0  0  0  0  0  0  0  0  0  0  0  0  # atno 8010 bound_to 7997
  140.6830  143.2846  151.3737 H   0  0  0  0  0  0  0  0  0  0  0  0  # atno 10167 bound_to 10162
  157.6122  131.1032  150.7559 H   0  0  0  0  0  0  0  0  0  0  0  0  # atno 10718 bound_to 10713
  153.8516  135.6848  153.4792 H   0  0  0  0  0  0  0  0  0  0  0  0  # atno 10763 bound_to 10752
  153.1394  135.4664  154.9470 H   0  0  0  0  0  0  0  0  0  0  0  0  # atno 10764 bound_to 10752
  154.7800  135.3265  154.7959 H   0  0  0  0  0  0  0  0  0  0  0  0  # atno 10765 bound_to 10752
  140.3272  134.2478  155.7708 H   0  0  0  0  0  0  0  0  0  0  0  0  # atno 11005 bound_to 11000
  145.9383  139.2652  143.1284 LP  0  0  0  0  0  0  0  0  0  0  0  0  # atno 17320 bound_to 7965
  145.9450  140.8951  143.0288 LP  0  0  0  0  0  0  0  0  0  0  0  0  # atno 17321 bound_to 7965
  139.6167  144.0989  152.2352 LP  0  0  0  0  0  0  0  0  0  0  0  0  # atno 17342 bound_to 10162
  140.0420  144.6000  150.7403 LP  0  0  0  0  0  0  0  0  0  0  0  0  # atno 17343 bound_to 10162
  156.7934  130.4897  149.5381 LP  0  0  0  0  0  0  0  0  0  0  0  0  # atno 17370 bound_to 10713
  156.1229  130.6123  151.0220 LP  0  0  0  0  0  0  0  0  0  0  0  0  # atno 17371 bound_to 10713
  141.2072  133.7811  157.0131 LP  0  0  0  0  0  0  0  0  0  0  0  0  # atno 17394 bound_to 11000
  140.0891  134.9603  157.1748 LP  0  0  0  0  0  0  0  0  0  0  0  0  # atno 17395 bound_to 11000

$$$$
