AV-unprocessed.smi:1216|AV-procd|sdf|5101|dock4
  -GOLD-   22720 4153D 1   1.00000     0.00000
 Structure written by MMmdl.
 42 43  0  0  0  0  0  0  0  0  1 V2000
  152.6656  140.9281  159.6537 C   0  0  0  0  0  0  0  0  0  0  0  0
  153.5865  141.5592  160.7066 C   0  0  1  0  0  0  0  0  0  0  0  0
  152.9377  142.8050  161.3461 C   0  0  0  0  0  0  0  0  0  0  0  0
  152.7204  143.8775  160.3923 N   0  0  0  0  0  0  0  0  0  0  0  0
  152.1830  145.1322  160.6494 C   0  0  0  0  0  0  0  0  0  0  0  0
  152.1749  145.8090  159.4509 C   0  0  0  0  0  0  0  0  0  0  0  0
  152.6925  144.9931  158.4478 N   0  0  0  0  0  0  0  0  0  0  0  0
  152.9914  143.8655  159.0799 C   0  0  0  0  0  0  0  0  0  0  0  0
  153.9022  140.5566  161.7235 N   0  0  0  0  0  0  0  0  0  0  0  0
  154.2849  139.2921  161.4859 C   0  0  0  0  0  0  0  0  0  0  0  0
  154.4169  138.8270  160.3528 O   0  0  0  0  0  0  0  0  0  0  0  0
  154.5855  138.4415  162.7273 C   0  0  0  0  0  0  0  0  0  0  0  0
  153.6932  137.2807  162.8660 N   0  0  0  0  0  0  0  0  0  0  0  0
  152.8646  136.9428  161.6976 C   0  0  0  0  0  0  0  0  0  0  0  0
  153.2664  135.6184  161.0085 C   0  0  0  0  0  0  0  0  0  0  0  0
  153.8751  134.5347  161.9200 C   0  0  0  0  0  0  0  0  0  0  0  0
  153.0440  134.1945  163.1746 C   0  0  0  0  0  0  0  0  0  0  0  0
  152.6590  135.3802  164.0914 C   0  0  0  0  0  0  0  0  0  0  0  0
  153.6209  136.5780  164.0244 C   0  0  0  0  0  0  0  0  0  0  0  0
  154.2871  136.8578  165.0215 O   0  0  0  0  0  0  0  0  0  0  0  0
  152.4479  141.6328  158.8507 H   0  0  0  0  0  0  0  0  0  0  0  0
  151.7158  140.6170  160.0899 H   0  0  0  0  0  0  0  0  0  0  0  0
  153.1291  140.0502  159.2024 H   0  0  0  0  0  0  0  0  0  0  0  0
  154.4989  141.8646  160.1908 H   0  0  0  0  0  0  0  0  0  0  0  0
  151.9712  142.5440  161.7791 H   0  0  0  0  0  0  0  0  0  0  0  0
  153.5537  143.1816  162.1640 H   0  0  0  0  0  0  0  0  0  0  0  0
  151.8654  145.4329  161.6366 H   0  0  0  0  0  0  0  0  0  0  0  0
  151.8373  146.8118  159.2344 H   0  0  0  0  0  0  0  0  0  0  0  0
  153.4234  143.0122  158.5777 H   0  0  0  0  0  0  0  0  0  0  0  0
  153.8268  140.8503  162.6866 H   0  0  0  0  0  0  0  0  0  0  0  0
  155.6227  138.1085  162.6729 H   0  0  0  0  0  0  0  0  0  0  0  0
  154.5322  139.0710  163.6177 H   0  0  0  0  0  0  0  0  0  0  0  0
  151.8181  136.9003  162.0002 H   0  0  0  0  0  0  0  0  0  0  0  0
  152.8913  137.7488  160.9629 H   0  0  0  0  0  0  0  0  0  0  0  0
  152.3966  135.2142  160.4897 H   0  0  0  0  0  0  0  0  0  0  0  0
  153.9951  135.8416  160.2287 H   0  0  0  0  0  0  0  0  0  0  0  0
  154.0187  133.6251  161.3360 H   0  0  0  0  0  0  0  0  0  0  0  0
  154.8792  134.8373  162.2201 H   0  0  0  0  0  0  0  0  0  0  0  0
  152.1305  133.6853  162.8657 H   0  0  0  0  0  0  0  0  0  0  0  0
  153.6000  133.4637  163.7631 H   0  0  0  0  0  0  0  0  0  0  0  0
  151.6516  135.7236  163.8567 H   0  0  0  0  0  0  0  0  0  0  0  0
  152.5983  135.0286  165.1221 H   0  0  0  0  0  0  0  0  0  0  0  0
  1  2  1  0  0  0  0
  1 21  1  0  0  0  0
  1 22  1  0  0  0  0
  1 23  1  0  0  0  0
  2  3  1  0  0  0  0
  2  9  1  0  0  0  0
  2 24  1  0  0  0  0
  3  4  1  0  0  0  0
  3 25  1  0  0  0  0
  3 26  1  0  0  0  0
  4  8  1  0  0  0  0
  4  5  1  0  0  0  0
  5  6  2  0  0  0  0
  5 27  1  0  0  0  0
  6  7  1  0  0  0  0
  6 28  1  0  0  0  0
  7  8  2  0  0  0  0
  8 29  1  0  0  0  0
  9 10  1  0  0  0  0
  9 30  1  0  0  0  0
 10 11  2  0  0  0  0
 10 12  1  0  0  0  0
 12 13  1  0  0  0  0
 12 31  1  0  0  0  0
 12 32  1  0  0  0  0
 13 19  1  0  0  0  0
 13 14  1  0  0  0  0
 14 15  1  0  0  0  0
 14 33  1  0  0  0  0
 14 34  1  0  0  0  0
 15 16  1  0  0  0  0
 15 35  1  0  0  0  0
 15 36  1  0  0  0  0
 16 17  1  0  0  0  0
 16 37  1  0  0  0  0
 16 38  1  0  0  0  0
 17 18  1  0  0  0  0
 17 39  1  0  0  0  0
 17 40  1  0  0  0  0
 18 19  1  0  0  0  0
 18 41  1  0  0  0  0
 18 42  1  0  0  0  0
 19 20  2  0  0  0  0
M  END
> <s_m_source_file>
AV-unprocessed.smi

> <i_m_source_file_index>
1216

> <i_lp_mmshare_version>
43012

> <i_f3d_flags>
0

> <s_epik_input>
W2NIXTFuW2NIXVtjSF1uMVtDSDJdW0NAQEhdKFtDSDNdKVtOSF1DKD1PKVtDSDJdTjJbQ0gyXVtDSDJdW0NIMl1bQ0gyXVtDSDJdQzI9Tw==

> <s_epik_cmdline>
J2VwaWtfcHl0aG9uJywgJy1waCcsICc3LjAnLCAnLXRuJywgJzgnLCAnLW1hJywgJzIwMCcsICctbWV0YWxfYmluZGluZycsICctaW1hZScsICc8aW5maWxlLm1hZT4nLCAnLW9tYWUnLCAnPG91dGZpbGUubWFlPic=

> <r_lp_tautomer_probability>
1

> <r_epik_Ionization_Penalty>
0.623868

> <r_epik_Ionization_Penalty_Charging>
0.623868

> <r_epik_Ionization_Penalty_Neutral>
4.50838e-08

> <r_epik_State_Penalty>
0.640129

> <r_epik_Charging_Adjusted_Penalty>
1.264

> <i_epik_Tot_Q>
0

> <i_epik_Tot_abs_Q>
0

> <r_epik_Metal_State_Penalty>
0.307431

> <b_epik_Metal_Only>
0

> <s_lp_Force_Field>
OPLS_2005

> <r_lp_Energy>
20.3142

> <b_lp_Chiralities_Consistent>
1

> <s_lp_Variant>
AV-unprocessed.smi:1216-4

> <Gold.Version>
5.8.1

> <Gold.Id.Protein>
6NUR|6NUR_protein|mol2

> <Gold.PLP.Fitness>
46.9537

> <Gold.PLP.PLP>
-47.5441

> <Gold.PLP.part.hbond>
0.0000

> <Gold.PLP.part.metal>
0.0000

> <Gold.PLP.part.buried>
-5.1254

> <Gold.PLP.part.nonpolar>
-42.3836

> <Gold.PLP.part.repulsive>
0.1575

> <Gold.PLP.ligand.clash>
0.0000

> <Gold.PLP.ligand.torsion>
0.3014

> <Gold.PLP.Chemscore.Hbond>
0.0000

> <Gold.PLP.Chemscore.CHOScore>
0.0000

> <Gold.PLP.Chemscore.Metal>
0.0000

> <Gold.PLP.Chemscore.Internal.Correction>
0.0125

> <Gold.Rescore>
     Score         DG    S(hbond)    S(metal)    S(lipo)     H(rot)  DE(clash)    DE(int)     intcor
      7.30     -11.34       0.00        0.00      96.78       2.13       1.03       3.01       ----

> <Gold.Chemscore.Fitness>
7.2991

> <Gold.Chemscore.DG>
-11.3404

> <Gold.Chemscore.ZeroCoef>
-5.4800

> <Gold.Chemscore.Hbond>
0.0000

> <Gold.Chemscore.Metal>
0.0000

> <Gold.Chemscore.Lipo>
96.7763

> <Gold.Chemscore.Internal_Hbond>
0.0000

> <Gold.Chemscore.DEClash>
1.0308

> <Gold.Chemscore.DEInternal>
3.0104

> <Gold.Chemscore.Rot>
2.1338

> <Gold.Chemscore.Internal.Correction>
   9.000000E+99

> <Gold.Chemscore.Hbond.Weighted>
-0.0000

> <Gold.Chemscore.Metal.Weighted>
-0.0000

> <Gold.Chemscore.Lipo.Weighted>
-11.3228

> <Gold.Chemscore.Internal_Hbond.Weighted>
0.0000

> <Gold.Chemscore.DEClash.Weighted>
1.0308

> <Gold.Chemscore.DEInternal.Weighted>
3.0104

> <Gold.Chemscore.Rot.Weighted>
5.4625

> <Gold.Chemscore.Internal.Correction.Weighted>
   9.000000E+99

> <Gold.Protein.RotatedTorsions>
[ 6907 6896 6895 6894 ] final  -56.94 input  -60.11 | X-H torsion
[ 7974 7965 7964 7962 ] final  -52.34 input  175.53 | X-H torsion
[ 8008 7997 7996 7995 ] final   32.22 input   59.86 | X-H torsion
[ 10167 10162 10161 10158 ] final   12.21 input  -65.29 | X-H torsion
[ 10718 10713 10712 10709 ] final   26.29 input   66.30 | X-H torsion
[ 10763 10752 10751 10750 ] final  145.46 input  -60.55 | X-H torsion
[ 11005 11000 10999 10996 ] final   84.71 input  -57.11 | X-H torsion

> <Gold.Protein.ActiveResidues>
 VAL166  LYS551  ARG553  GLY616  TRP617  ASP618  TYR619  PRO620  LYS621  CYS622 
 ASP623  PHE694  ASN695  SER759  ASP760  ASP761  ALA762  ILE779  LEU786  VAL792 
 PHE793  MET794  SER795  GLU796  ALA797  LYS798  CYS799  TRP800  GLU811  SER814 

> <Gold.Protein.RotatedAtoms>
  150.8126  134.7290  159.6701 H   0  0  0  0  0  0  0  0  0  0  0  0  # atno 6907 bound_to 6896
  152.4246  134.5889  159.9978 H   0  0  0  0  0  0  0  0  0  0  0  0  # atno 6908 bound_to 6896
  151.6094  133.3311  159.3100 H   0  0  0  0  0  0  0  0  0  0  0  0  # atno 6909 bound_to 6896
  145.9091  140.7930  142.9704 H   0  0  0  0  0  0  0  0  0  0  0  0  # atno 7974 bound_to 7965
  155.1189  140.3246  155.4502 H   0  0  0  0  0  0  0  0  0  0  0  0  # atno 8008 bound_to 7997
  156.2668  140.2030  156.6260 H   0  0  0  0  0  0  0  0  0  0  0  0  # atno 8009 bound_to 7997
  154.6698  140.0538  157.0140 H   0  0  0  0  0  0  0  0  0  0  0  0  # atno 8010 bound_to 7997
  140.6082  143.8463  150.7037 H   0  0  0  0  0  0  0  0  0  0  0  0  # atno 10167 bound_to 10162
  157.2048  130.6906  149.6203 H   0  0  0  0  0  0  0  0  0  0  0  0  # atno 10718 bound_to 10713
  154.0058  135.2919  155.3398 H   0  0  0  0  0  0  0  0  0  0  0  0  # atno 10763 bound_to 10752
  154.7132  135.5140  153.8702 H   0  0  0  0  0  0  0  0  0  0  0  0  # atno 10764 bound_to 10752
  153.0745  135.6659  154.0295 H   0  0  0  0  0  0  0  0  0  0  0  0  # atno 10765 bound_to 10752
  139.8992  134.8236  156.2483 H   0  0  0  0  0  0  0  0  0  0  0  0  # atno 11005 bound_to 11000
  144.6742  140.1797  143.7407 LP  0  0  0  0  0  0  0  0  0  0  0  0  # atno 17320 bound_to 7965
  145.8694  139.2264  143.1670 LP  0  0  0  0  0  0  0  0  0  0  0  0  # atno 17321 bound_to 7965
  140.2025  143.3948  152.1780 LP  0  0  0  0  0  0  0  0  0  0  0  0  # atno 17342 bound_to 10162
  139.5341  144.7191  151.4954 LP  0  0  0  0  0  0  0  0  0  0  0  0  # atno 17343 bound_to 10162
  155.9696  130.4571  150.5948 LP  0  0  0  0  0  0  0  0  0  0  0  0  # atno 17370 bound_to 10713
  157.3731  131.0769  151.1540 LP  0  0  0  0  0  0  0  0  0  0  0  0  # atno 17371 bound_to 10713
  141.0240  133.7025  156.1317 LP  0  0  0  0  0  0  0  0  0  0  0  0  # atno 17394 bound_to 11000
  140.7192  134.4377  157.5576 LP  0  0  0  0  0  0  0  0  0  0  0  0  # atno 17395 bound_to 11000

$$$$
