AV-unprocessed.smi:757|AV-procd|sdf|3616|dock3
  -GOLD-   22720 1 13D 1   1.00000     0.00000
 Structure written by MMmdl.
 44 45  0  0  0  0  0  0  0  0  1 V2000
  152.3939  144.6164  158.4886 C   0  0  0  0  0  0  0  0  0  0  0  0
  151.7419  143.6343  158.1698 C   0  0  0  0  0  0  0  0  0  0  0  0
  150.9684  142.4448  157.7715 C   0  0  0  0  0  0  0  0  0  0  0  0
  151.7702  141.1259  157.8017 C   0  0  0  0  0  0  0  0  0  0  0  0
  151.1923  140.0702  156.9662 N   0  0  0  0  0  0  0  0  0  0  0  0
  151.4854  138.7710  157.5761 C   0  0  0  0  0  0  0  0  0  0  0  0
  150.8088  137.6377  156.7855 C   0  0  0  0  0  0  0  0  0  0  0  0
  151.2771  137.6326  155.3211 C   0  0  0  0  0  0  0  0  0  0  0  0
  150.5303  136.6542  154.5361 N   0  0  0  0  0  0  0  0  0  0  0  0
  150.4267  135.3491  154.8237 C   0  0  0  0  0  0  0  0  0  0  0  0
  150.9437  134.8287  155.8119 O   0  0  0  0  0  0  0  0  0  0  0  0
  149.6783  134.7102  153.9084 N   0  0  0  0  0  0  0  0  0  0  0  0
  149.3662  133.3261  153.8240 C   0  0  0  0  0  0  0  0  0  0  0  0
  150.0355  132.3095  154.5470 C   0  0  0  0  0  0  0  0  0  0  0  0
  149.6443  130.9702  154.3584 C   0  0  0  0  0  0  0  0  0  0  0  0
  148.6050  130.6843  153.4511 C   0  0  0  0  0  0  0  0  0  0  0  0
  148.2287  129.3690  153.2717 O   0  0  0  0  0  0  0  0  0  0  0  0
  147.2008  129.0825  152.3299 C   0  0  0  0  0  0  0  0  0  0  0  0
  147.9673  131.6515  152.7465 N   0  0  0  0  0  0  0  0  0  0  0  0
  148.3473  132.9331  152.9318 C   0  0  0  0  0  0  0  0  0  0  0  0
  151.0812  139.0353  154.7284 C   0  0  0  0  0  0  0  0  0  0  0  0
  151.7461  140.1079  155.6086 C   0  0  0  0  0  0  0  0  0  0  0  0
  152.9655  145.4741  158.7640 H   0  0  0  0  0  0  0  0  0  0  0  0
  150.0751  142.3951  158.3926 H   0  0  0  0  0  0  0  0  0  0  0  0
  150.6187  142.6259  156.7550 H   0  0  0  0  0  0  0  0  0  0  0  0
  152.8033  141.3075  157.5015 H   0  0  0  0  0  0  0  0  0  0  0  0
  151.8102  140.7817  158.8366 H   0  0  0  0  0  0  0  0  0  0  0  0
  152.5639  138.6107  157.6220 H   0  0  0  0  0  0  0  0  0  0  0  0
  151.1161  138.7554  158.6023 H   0  0  0  0  0  0  0  0  0  0  0  0
  151.0320  136.6795  157.2556 H   0  0  0  0  0  0  0  0  0  0  0  0
  149.7255  137.7606  156.8323 H   0  0  0  0  0  0  0  0  0  0  0  0
  152.3414  137.3909  155.2869 H   0  0  0  0  0  0  0  0  0  0  0  0
  150.0652  136.9977  153.7087 H   0  0  0  0  0  0  0  0  0  0  0  0
  149.2508  135.2918  153.2025 H   0  0  0  0  0  0  0  0  0  0  0  0
  150.8454  132.5235  155.2265 H   0  0  0  0  0  0  0  0  0  0  0  0
  150.1378  130.1750  154.8974 H   0  0  0  0  0  0  0  0  0  0  0  0
  147.0207  128.0079  152.3088 H   0  0  0  0  0  0  0  0  0  0  0  0
  147.4850  129.3898  151.3225 H   0  0  0  0  0  0  0  0  0  0  0  0
  146.2631  129.5694  152.6021 H   0  0  0  0  0  0  0  0  0  0  0  0
  147.8162  133.6704  152.3474 H   0  0  0  0  0  0  0  0  0  0  0  0
  151.4978  139.0762  153.7214 H   0  0  0  0  0  0  0  0  0  0  0  0
  150.0169  139.2569  154.6325 H   0  0  0  0  0  0  0  0  0  0  0  0
  151.5722  141.0817  155.1533 H   0  0  0  0  0  0  0  0  0  0  0  0
  152.8264  139.9577  155.6380 H   0  0  0  0  0  0  0  0  0  0  0  0
  1  2  3  0  0  0  0
  1 23  1  0  0  0  0
  2  3  1  0  0  0  0
  3  4  1  0  0  0  0
  3 24  1  0  0  0  0
  3 25  1  0  0  0  0
  4  5  1  0  0  0  0
  4 26  1  0  0  0  0
  4 27  1  0  0  0  0
  5 22  1  0  0  0  0
  5  6  1  0  0  0  0
  6  7  1  0  0  0  0
  6 28  1  0  0  0  0
  6 29  1  0  0  0  0
  7  8  1  0  0  0  0
  7 30  1  0  0  0  0
  7 31  1  0  0  0  0
  8  9  1  0  0  0  0
  8 21  1  0  0  0  0
  8 32  1  0  0  0  0
  9 10  1  0  0  0  0
  9 33  1  0  0  0  0
 10 11  2  0  0  0  0
 10 12  1  0  0  0  0
 12 13  1  0  0  0  0
 12 34  1  0  0  0  0
 13 20  1  0  0  0  0
 13 14  2  0  0  0  0
 14 15  1  0  0  0  0
 14 35  1  0  0  0  0
 15 16  2  0  0  0  0
 15 36  1  0  0  0  0
 16 17  1  0  0  0  0
 16 19  1  0  0  0  0
 17 18  1  0  0  0  0
 18 37  1  0  0  0  0
 18 38  1  0  0  0  0
 18 39  1  0  0  0  0
 19 20  2  0  0  0  0
 20 40  1  0  0  0  0
 21 22  1  0  0  0  0
 21 41  1  0  0  0  0
 21 42  1  0  0  0  0
 22 43  1  0  0  0  0
 22 44  1  0  0  0  0
M  END
> <s_m_source_file>
AV-unprocessed.smi

> <i_m_source_file_index>
757

> <i_lp_mmshare_version>
43012

> <i_f3d_flags>
0

> <s_epik_input>
W0NIXSNDW0NIMl1bQ0gyXU4xW0NIMl1bQ0gyXVtDSF0oW0NIMl1bQ0gyXTEpW05IXUMoPU8pW05IXWMyW2NIXVtjSF1jKE9bQ0gzXSluW2NIXTI=

> <s_epik_cmdline>
J2VwaWtfcHl0aG9uJywgJy1waCcsICc3LjAnLCAnLXRuJywgJzgnLCAnLW1hJywgJzIwMCcsICctbWV0YWxfYmluZGluZycsICctaW1hZScsICc8aW5maWxlLm1hZT4nLCAnLW9tYWUnLCAnPG91dGZpbGUubWFlPic=

> <r_lp_tautomer_probability>
1

> <r_epik_Ionization_Penalty>
1.61445

> <r_epik_Ionization_Penalty_Charging>
0

> <r_epik_Ionization_Penalty_Neutral>
1.61445

> <r_epik_State_Penalty>
1.71357

> <r_epik_Charging_Adjusted_Penalty>
1.71357

> <i_epik_Tot_Q>
0

> <i_epik_Tot_abs_Q>
0

> <r_epik_Metal_State_Penalty>
1.71356

> <b_epik_Metal_Only>
0

> <s_lp_Force_Field>
OPLS_2005

> <r_lp_Energy>
17.5598

> <b_lp_Chiralities_Consistent>
1

> <s_lp_Variant>
AV-unprocessed.smi:757-3

> <Gold.Version>
5.8.1

> <Gold.Id.Protein>
6NUR|6NUR_protein|mol2

> <Gold.PLP.Fitness>
44.7674

> <Gold.PLP.PLP>
-41.1048

> <Gold.PLP.part.hbond>
-2.5558

> <Gold.PLP.part.metal>
0.0000

> <Gold.PLP.part.buried>
-2.8290

> <Gold.PLP.part.nonpolar>
-36.4990

> <Gold.PLP.part.repulsive>
1.0872

> <Gold.PLP.ligand.clash>
0.0000

> <Gold.PLP.ligand.torsion>
0.5619

> <Gold.PLP.Chemscore.Hbond>
1.3921

> <Gold.PLP.Chemscore.CHOScore>
0.1934

> <Gold.PLP.Chemscore.Metal>
0.0000

> <Gold.Chemscore.Hbonds>
donor molecule, donor type, donor heavy atom, donor atom, acceptor molecule, acceptor atom, score
      L1  H     9    33       P1  7948  0.36
      L1  H    12    34       P1  7948  0.80
      P1  H 10752 10763       L1    11  0.06
      L1  C    20    40       P1  7948  0.22

> <Gold.PLP.Chemscore.Internal.Correction>
0.0299

> <Gold.Rescore>
     Score         DG    S(hbond)    S(metal)    S(lipo)     H(rot)  DE(clash)    DE(int)     intcor
     14.30     -17.39       1.39        0.00      95.95       1.55       0.03       3.06       ----

> <Gold.Chemscore.Fitness>
14.2996

> <Gold.Chemscore.DG>
-17.3921

> <Gold.Chemscore.ZeroCoef>
-5.4800

> <Gold.Chemscore.Hbond>
1.3947

> <Gold.Chemscore.Metal>
0.0000

> <Gold.Chemscore.Lipo>
95.9502

> <Gold.Chemscore.Internal_Hbond>
0.0000

> <Gold.Chemscore.DEClash>
0.0292

> <Gold.Chemscore.DEInternal>
3.0633

> <Gold.Chemscore.Rot>
1.5517

> <Gold.Chemscore.Internal.Correction>
   9.000000E+99

> <Gold.Chemscore.Hbonds>
donor molecule, donor type, donor heavy atom, donor atom, acceptor molecule, acceptor atom, score
      L1  H     9    33       P1  7948  0.11
      L1  H    12    34       P1  7948  0.12

> <Gold.Chemscore.Hbond.Weighted>
-4.6584

> <Gold.Chemscore.Metal.Weighted>
-0.0000

> <Gold.Chemscore.Lipo.Weighted>
-11.2262

> <Gold.Chemscore.Internal_Hbond.Weighted>
0.0000

> <Gold.Chemscore.DEClash.Weighted>
0.0292

> <Gold.Chemscore.DEInternal.Weighted>
3.0633

> <Gold.Chemscore.Rot.Weighted>
3.9725

> <Gold.Chemscore.Internal.Correction.Weighted>
   9.000000E+99

> <Gold.Protein.RotatedTorsions>
[ 6907 6896 6895 6894 ] final    7.01 input  -60.11 | X-H torsion
[ 7974 7965 7964 7962 ] final  160.08 input  175.53 | X-H torsion
[ 8008 7997 7996 7995 ] final  169.40 input   59.86 | X-H torsion
[ 10167 10162 10161 10158 ] final  -96.97 input  -65.29 | X-H torsion
[ 10718 10713 10712 10709 ] final -151.45 input   66.30 | X-H torsion
[ 10763 10752 10751 10750 ] final   81.58 input  -60.55 | X-H torsion
[ 11005 11000 10999 10996 ] final    5.36 input  -57.11 | X-H torsion

> <Gold.Protein.ActiveResidues>
 VAL166  LYS551  ARG553  GLY616  TRP617  ASP618  TYR619  PRO620  LYS621  CYS622 
 ASP623  PHE694  ASN695  SER759  ASP760  ASP761  ALA762  ILE779  LEU786  VAL792 
 PHE793  MET794  SER795  GLU796  ALA797  LYS798  CYS799  TRP800  GLU811  SER814 

> <Gold.Protein.RotatedAtoms>
  151.6830  135.0959  160.0219 H   0  0  0  0  0  0  0  0  0  0  0  0  # atno 6907 bound_to 6896
  152.3824  133.6560  159.6180 H   0  0  0  0  0  0  0  0  0  0  0  0  # atno 6908 bound_to 6896
  150.7758  133.9008  159.3382 H   0  0  0  0  0  0  0  0  0  0  0  0  # atno 6909 bound_to 6896
  144.7756  139.7707  143.6280 H   0  0  0  0  0  0  0  0  0  0  0  0  # atno 7974 bound_to 7965
  156.1460  140.1565  156.8845 H   0  0  0  0  0  0  0  0  0  0  0  0  # atno 8008 bound_to 7997
  154.5029  140.0820  156.7872 H   0  0  0  0  0  0  0  0  0  0  0  0  # atno 8009 bound_to 7997
  155.3987  140.3413  155.4258 H   0  0  0  0  0  0  0  0  0  0  0  0  # atno 8010 bound_to 7997
  140.2883  143.3237  152.0372 H   0  0  0  0  0  0  0  0  0  0  0  0  # atno 10167 bound_to 10162
  156.4594  130.8206  151.2437 H   0  0  0  0  0  0  0  0  0  0  0  0  # atno 10718 bound_to 10713
  153.1129  135.4760  154.9065 H   0  0  0  0  0  0  0  0  0  0  0  0  # atno 10763 bound_to 10752
  154.7499  135.3103  154.8580 H   0  0  0  0  0  0  0  0  0  0  0  0  # atno 10764 bound_to 10752
  153.9164  135.6859  153.4802 H   0  0  0  0  0  0  0  0  0  0  0  0  # atno 10765 bound_to 10752
  140.5716  134.0097  155.8011 H   0  0  0  0  0  0  0  0  0  0  0  0  # atno 11005 bound_to 11000
  146.1932  139.5184  142.9791 LP  0  0  0  0  0  0  0  0  0  0  0  0  # atno 17320 bound_to 7965
  145.6197  141.0325  143.1921 LP  0  0  0  0  0  0  0  0  0  0  0  0  # atno 17321 bound_to 7965
  139.4944  144.6543  151.6607 LP  0  0  0  0  0  0  0  0  0  0  0  0  # atno 17342 bound_to 10162
  140.5754  144.0038  150.6239 LP  0  0  0  0  0  0  0  0  0  0  0  0  # atno 17343 bound_to 10162
  157.7498  131.0112  150.3336 LP  0  0  0  0  0  0  0  0  0  0  0  0  # atno 17370 bound_to 10713
  156.3733  130.3867  149.7159 LP  0  0  0  0  0  0  0  0  0  0  0  0  # atno 17371 bound_to 10713
  141.1053  133.9704  157.3008 LP  0  0  0  0  0  0  0  0  0  0  0  0  # atno 17394 bound_to 11000
  139.9359  135.0196  156.8554 LP  0  0  0  0  0  0  0  0  0  0  0  0  # atno 17395 bound_to 11000

$$$$
