AV-unprocessed.smi:72|AV-procd|sdf|676|dock5
  -GOLD-   2262016583D 1   1.00000     0.00000
 Structure written by MMmdl.
 29 30  0  0  0  0  0  0  0  0  1 V2000
  152.4030  136.7840  159.8853 N   0  0  0  0  0  0  0  0  0  0  0  0
  152.0045  137.7202  159.1000 C   0  0  0  0  0  0  0  0  0  0  0  0
  150.9428  138.5993  159.3600 N   0  0  0  0  0  0  0  0  0  0  0  0
  150.6584  139.5109  158.4819 C   0  0  0  0  0  0  0  0  0  0  0  0
  151.4158  139.6639  157.2455 N   0  0  0  0  0  0  0  0  0  0  0  0
  151.0875  140.7203  156.2026 C   0  0  1  0  0  0  0  0  0  0  0  0
  150.5080  140.1195  155.0795 O   0  0  0  0  0  0  0  0  0  0  0  0
  149.0902  140.2459  155.1411 C   0  0  2  0  0  0  0  0  0  0  0  0
  148.4463  139.9953  153.7665 C   0  0  0  0  0  0  0  0  0  0  0  0
  148.9013  138.7668  153.2411 O   0  0  0  0  0  0  0  0  0  0  0  0
  148.9252  141.6587  155.7086 C   0  0  2  0  0  0  0  0  0  0  0  0
  149.0731  142.6253  154.6809 O   0  0  0  0  0  0  0  0  0  0  0  0
  150.0472  141.7260  156.7448 C   0  0  2  0  0  0  0  0  0  0  0  0
  150.5593  143.0361  156.9034 O   0  0  0  0  0  0  0  0  0  0  0  0
  152.4650  138.7571  156.9537 C   0  0  0  0  0  0  0  0  0  0  0  0
  153.1105  138.8105  155.9068 O   0  0  0  0  0  0  0  0  0  0  0  0
  152.7188  137.8278  157.9000 N   0  0  0  0  0  0  0  0  0  0  0  0
  152.0471  141.1620  155.9274 H   0  0  0  0  0  0  0  0  0  0  0  0
  148.6921  139.5393  155.8719 H   0  0  0  0  0  0  0  0  0  0  0  0
  147.9462  141.7991  156.1680 H   0  0  0  0  0  0  0  0  0  0  0  0
  149.6664  141.3722  157.7043 H   0  0  0  0  0  0  0  0  0  0  0  0
  153.1805  136.2856  159.4780 H   0  0  0  0  0  0  0  0  0  0  0  0
  149.8350  140.2108  158.6227 H   0  0  0  0  0  0  0  0  0  0  0  0
  147.3627  139.9273  153.8668 H   0  0  0  0  0  0  0  0  0  0  0  0
  148.6605  140.8060  153.0694 H   0  0  0  0  0  0  0  0  0  0  0  0
  149.3122  138.9331  152.4064 H   0  0  0  0  0  0  0  0  0  0  0  0
  148.7553  143.4537  155.0069 H   0  0  0  0  0  0  0  0  0  0  0  0
  149.9305  143.6466  156.5482 H   0  0  0  0  0  0  0  0  0  0  0  0
  153.4670  137.1741  157.7210 H   0  0  0  0  0  0  0  0  0  0  0  0
  1  2  2  0  0  0  0
  1 22  1  0  0  0  0
  2 17  1  0  0  0  0
  2  3  1  0  0  0  0
  3  4  2  0  0  0  0
  4  5  1  0  0  0  0
  4 23  1  0  0  0  0
  5  6  1  0  0  0  0
  5 15  1  0  0  0  0
  6 18  1  0  0  0  0
  6 13  1  0  0  0  0
  6  7  1  0  0  0  0
  7  8  1  0  0  0  0
  8 19  1  0  0  0  0
  8  9  1  0  0  0  0
  8 11  1  0  0  0  0
  9 10  1  0  0  0  0
  9 24  1  0  0  0  0
  9 25  1  0  0  0  0
 10 26  1  0  0  0  0
 11 20  1  0  0  0  0
 11 12  1  0  0  0  0
 11 13  1  0  0  0  0
 12 27  1  0  0  0  0
 13 21  1  0  0  0  0
 13 14  1  0  0  0  0
 14 28  1  0  0  0  0
 15 16  2  0  0  0  0
 15 17  1  0  0  0  0
 17 29  1  0  0  0  0
M  END
> <s_m_source_file>
AV-unprocessed.smi

> <i_m_source_file_index>
72

> <i_lp_mmshare_version>
43012

> <i_f3d_flags>
0

> <s_epik_input>
W05IMl1jMW5bY0hdbihjKD1PKW4xKVtDQEBIXTJPW0NASF0oW0NIMl1bT0hdKVtDQEBIXShbT0hdKVtDQEhdMltPSF0=

> <s_epik_cmdline>
J2VwaWtfcHl0aG9uJywgJy1waCcsICc3LjAnLCAnLXRuJywgJzgnLCAnLW1hJywgJzIwMCcsICctbWV0YWxfYmluZGluZycsICctaW1hZScsICc8aW5maWxlLm1hZT4nLCAnLW9tYWUnLCAnPG91dGZpbGUubWFlPic=

> <r_lp_tautomer_probability>
7.17554e-07

> <r_epik_Ionization_Penalty>
0.0066451

> <r_epik_Ionization_Penalty_Charging>
0.00663793

> <r_epik_Ionization_Penalty_Neutral>
7.17052e-06

> <r_epik_State_Penalty>
0.419231

> <r_epik_Charging_Adjusted_Penalty>
0.425868

> <i_epik_Tot_Q>
0

> <i_epik_Tot_abs_Q>
0

> <r_epik_Metal_State_Penalty>
1.44144

> <b_epik_Metal_Only>
0

> <s_epik_Chemistry_Notes>
This compound contains an acetal/aminal-like group ( X-CH(R)-Y where X, Y are N, S, or O) that may be acid/base labile, releasing an aldehyde.

> <s_lp_Force_Field>
OPLS_2005

> <r_lp_Energy>
42.8821

> <b_lp_Chiralities_Consistent>
1

> <s_lp_Variant>
AV-unprocessed.smi:72-14

> <Gold.Version>
5.8.1

> <Gold.Id.Protein>
6NUR|6NUR_protein|mol2

> <Gold.PLP.Fitness>
41.3625

> <Gold.PLP.PLP>
-23.9166

> <Gold.PLP.part.hbond>
-7.5408

> <Gold.PLP.part.metal>
0.0000

> <Gold.PLP.part.buried>
-2.2703

> <Gold.PLP.part.nonpolar>
-14.7418

> <Gold.PLP.part.repulsive>
0.1909

> <Gold.PLP.ligand.clash>
0.0000

> <Gold.PLP.ligand.torsion>
0.2400

> <Gold.PLP.Chemscore.Hbond>
5.9680

> <Gold.PLP.Chemscore.CHOScore>
0.0000

> <Gold.PLP.Chemscore.Metal>
0.0000

> <Gold.Chemscore.Hbonds>
donor molecule, donor type, donor heavy atom, donor atom, acceptor molecule, acceptor atom, score
      L1  H    10    26       P1  7957  0.98
      L1  H    12    27       P1  8028  0.70
      L1  H    14    28       P1  8028  1.00
      P1  H  7989  7998       L1     7  0.88
      P1  H  7997  8009       L1    16  0.90

> <Gold.PLP.Chemscore.Internal.Correction>
0.0219

> <Gold.Rescore>
     Score         DG    S(hbond)    S(metal)    S(lipo)     H(rot)  DE(clash)    DE(int)     intcor
     10.33     -11.55       4.14        0.00      22.38       4.06       0.75       0.47       ----

> <Gold.Chemscore.Fitness>
10.3282

> <Gold.Chemscore.DG>
-11.5464

> <Gold.Chemscore.ZeroCoef>
-5.4800

> <Gold.Chemscore.Hbond>
4.1442

> <Gold.Chemscore.Metal>
0.0000

> <Gold.Chemscore.Lipo>
22.3789

> <Gold.Chemscore.Internal_Hbond>
0.0000

> <Gold.Chemscore.DEClash>
0.7455

> <Gold.Chemscore.DEInternal>
0.4728

> <Gold.Chemscore.Rot>
4.0600

> <Gold.Chemscore.Internal.Correction>
   9.000000E+99

> <Gold.Chemscore.Hbonds>
donor molecule, donor type, donor heavy atom, donor atom, acceptor molecule, acceptor atom, score
      L1  H    10    26       P1  7957  0.85
      L1  H    12    27       P1  8028  0.68
      L1  H    14    28       P1  8028  1.00
      P1  H  7989  7998       L1     7  0.33
      P1  H  7997  8009       L1    16  0.72

> <Gold.Chemscore.Hbond.Weighted>
-13.8417

> <Gold.Chemscore.Metal.Weighted>
-0.0000

> <Gold.Chemscore.Lipo.Weighted>
-2.6183

> <Gold.Chemscore.Internal_Hbond.Weighted>
0.0000

> <Gold.Chemscore.DEClash.Weighted>
0.7455

> <Gold.Chemscore.DEInternal.Weighted>
0.4728

> <Gold.Chemscore.Rot.Weighted>
10.3936

> <Gold.Chemscore.Internal.Correction.Weighted>
   9.000000E+99

> <Gold.Protein.RotatedTorsions>
[ 6907 6896 6895 6894 ] final  141.29 input  -60.11 | X-H torsion
[ 7974 7965 7964 7962 ] final -163.64 input  175.53 | X-H torsion
[ 8008 7997 7996 7995 ] final -137.91 input   59.86 | X-H torsion
[ 10167 10162 10161 10158 ] final  -59.54 input  -65.29 | X-H torsion
[ 10718 10713 10712 10709 ] final   62.10 input   66.30 | X-H torsion
[ 10763 10752 10751 10750 ] final   99.30 input  -60.55 | X-H torsion
[ 11005 11000 10999 10996 ] final -149.48 input  -57.11 | X-H torsion

> <Gold.Protein.ActiveResidues>
 VAL166  LYS551  ARG553  GLY616  TRP617  ASP618  TYR619  PRO620  LYS621  CYS622 
 ASP623  PHE694  ASN695  SER759  ASP760  ASP761  ALA762  ILE779  LEU786  VAL792 
 PHE793  MET794  SER795  GLU796  ALA797  LYS798  CYS799  TRP800  GLU811  SER814 

> <Gold.Protein.RotatedAtoms>
  152.2327  133.5071  159.5224 H   0  0  0  0  0  0  0  0  0  0  0  0  # atno 6907 bound_to 6896
  150.7042  134.1194  159.4038 H   0  0  0  0  0  0  0  0  0  0  0  0  # atno 6908 bound_to 6896
  151.9116  135.0336  160.0565 H   0  0  0  0  0  0  0  0  0  0  0  0  # atno 6909 bound_to 6896
  144.7320  140.3077  143.6193 H   0  0  0  0  0  0  0  0  0  0  0  0  # atno 7974 bound_to 7965
  155.4195  140.0517  157.3026 H   0  0  0  0  0  0  0  0  0  0  0  0  # atno 8008 bound_to 7997
  154.4909  140.2119  155.9510 H   0  0  0  0  0  0  0  0  0  0  0  0  # atno 8009 bound_to 7997
  156.1340  140.3166  155.8398 H   0  0  0  0  0  0  0  0  0  0  0  0  # atno 8010 bound_to 7997
  140.6128  143.2392  151.5668 H   0  0  0  0  0  0  0  0  0  0  0  0  # atno 10167 bound_to 10162
  157.5876  130.9031  149.9544 H   0  0  0  0  0  0  0  0  0  0  0  0  # atno 10718 bound_to 10713
  153.2997  135.4118  155.1242 H   0  0  0  0  0  0  0  0  0  0  0  0  # atno 10763 bound_to 10752
  154.8545  135.3538  154.5868 H   0  0  0  0  0  0  0  0  0  0  0  0  # atno 10764 bound_to 10752
  153.6293  135.7061  153.5339 H   0  0  0  0  0  0  0  0  0  0  0  0  # atno 10765 bound_to 10752
  140.7503  134.3414  157.5127 H   0  0  0  0  0  0  0  0  0  0  0  0  # atno 11005 bound_to 11000
  145.7696  139.1853  143.2220 LP  0  0  0  0  0  0  0  0  0  0  0  0  # atno 17320 bound_to 7965
  146.0921  140.7643  142.9590 LP  0  0  0  0  0  0  0  0  0  0  0  0  # atno 17321 bound_to 7965
  139.5375  144.2741  152.1281 LP  0  0  0  0  0  0  0  0  0  0  0  0  # atno 17342 bound_to 10162
  140.1944  144.4720  150.6463 LP  0  0  0  0  0  0  0  0  0  0  0  0  # atno 17343 bound_to 10162
  156.0927  130.3662  150.0365 LP  0  0  0  0  0  0  0  0  0  0  0  0  # atno 17370 bound_to 10713
  156.8493  130.9453  151.3626 LP  0  0  0  0  0  0  0  0  0  0  0  0  # atno 17371 bound_to 10713
  139.8789  134.9137  156.3091 LP  0  0  0  0  0  0  0  0  0  0  0  0  # atno 17394 bound_to 11000
  140.9757  133.7299  156.0598 LP  0  0  0  0  0  0  0  0  0  0  0  0  # atno 17395 bound_to 11000

$$$$
