AV-unprocessed.smi:1410|AV-procd|sdf|5731|dock4
  -GOLD-   22720 5363D 1   1.00000     0.00000
 Structure written by MMmdl.
 40 41  0  0  0  0  0  0  0  0  2 V2000
  142.2552  141.0027  154.5304 N   0  0  0  0  0  0  0  0  0  0  0  0
  142.7051  141.9895  155.3090 C   0  0  0  0  0  0  0  0  0  0  0  0
  142.2211  142.2237  156.4150 O   0  0  0  0  0  0  0  0  0  0  0  0
  143.8773  142.8173  154.7713 C   0  0  0  0  0  0  0  0  0  0  0  0
  145.0883  142.0002  154.5014 N   0  3  2  0  0  0  0  0  0  0  0  0
  145.6431  141.3586  155.7229 C   0  0  0  0  0  0  0  0  0  0  0  0
  146.7973  140.4046  155.3700 C   0  0  0  0  0  0  0  0  0  0  0  0
  147.9137  141.1171  154.5798 C   0  0  2  0  0  0  0  0  0  0  0  0
  148.6651  142.0526  155.4171 N   0  0  0  0  0  0  0  0  0  0  0  0
  149.5675  141.7056  156.3472 C   0  0  0  0  0  0  0  0  0  0  0  0
  149.8531  140.5371  156.6062 O   0  0  0  0  0  0  0  0  0  0  0  0
  150.0847  142.7901  156.9511 N   0  0  0  0  0  0  0  0  0  0  0  0
  151.0512  142.8598  157.9923 C   0  0  0  0  0  0  0  0  0  0  0  0
  151.5376  141.6427  158.5130 C   0  0  0  0  0  0  0  0  0  0  0  0
  152.4871  141.6785  159.5538 C   0  0  0  0  0  0  0  0  0  0  0  0
  152.9561  142.8244  160.0903 N   0  0  0  0  0  0  0  0  0  0  0  0
  152.4809  143.9885  159.6002 C   0  0  0  0  0  0  0  0  0  0  0  0
  151.5310  144.0645  158.5616 C   0  0  0  0  0  0  0  0  0  0  0  0
  147.3073  141.8434  153.3662 C   0  0  0  0  0  0  0  0  0  0  0  0
  146.1308  142.7556  153.7611 C   0  0  0  0  0  0  0  0  0  0  0  0
  141.4861  140.4280  154.8453 H   0  0  0  0  0  0  0  0  0  0  0  0
  142.6825  140.8275  153.6321 H   0  0  0  0  0  0  0  0  0  0  0  0
  143.5321  143.2795  153.8454 H   0  0  0  0  0  0  0  0  0  0  0  0
  144.1199  143.6317  155.4563 H   0  0  0  0  0  0  0  0  0  0  0  0
  145.9868  142.1268  156.4172 H   0  0  0  0  0  0  0  0  0  0  0  0
  144.8645  140.7968  156.2394 H   0  0  0  0  0  0  0  0  0  0  0  0
  147.1955  139.9482  156.2769 H   0  0  0  0  0  0  0  0  0  0  0  0
  146.4051  139.5822  154.7701 H   0  0  0  0  0  0  0  0  0  0  0  0
  148.6143  140.3672  154.2076 H   0  0  0  0  0  0  0  0  0  0  0  0
  148.4958  143.0366  155.2675 H   0  0  0  0  0  0  0  0  0  0  0  0
  149.7009  143.6788  156.6655 H   0  0  0  0  0  0  0  0  0  0  0  0
  151.1962  140.6950  158.1228 H   0  0  0  0  0  0  0  0  0  0  0  0
  152.8790  140.7609  159.9667 H   0  0  0  0  0  0  0  0  0  0  0  0
  152.8652  144.8901  160.0537 H   0  0  0  0  0  0  0  0  0  0  0  0
  151.1897  145.0355  158.2388 H   0  0  0  0  0  0  0  0  0  0  0  0
  148.0737  142.4212  152.8480 H   0  0  0  0  0  0  0  0  0  0  0  0
  146.9530  141.1013  152.6490 H   0  0  0  0  0  0  0  0  0  0  0  0
  145.6992  143.1876  152.8573 H   0  0  0  0  0  0  0  0  0  0  0  0
  146.4817  143.5886  154.3724 H   0  0  0  0  0  0  0  0  0  0  0  0
  144.7893  141.2546  153.8885 H   0  0  0  0  0  0  0  0  0  0  0  0
  1  2  1  0  0  0  0
  1 21  1  0  0  0  0
  1 22  1  0  0  0  0
  2  3  2  0  0  0  0
  2  4  1  0  0  0  0
  4  5  1  0  0  0  0
  4 23  1  0  0  0  0
  4 24  1  0  0  0  0
  5 20  1  0  0  0  0
  5  6  1  0  0  0  0
  5 40  1  0  0  0  0
  6  7  1  0  0  0  0
  6 25  1  0  0  0  0
  6 26  1  0  0  0  0
  7  8  1  0  0  0  0
  7 27  1  0  0  0  0
  7 28  1  0  0  0  0
  8  9  1  0  0  0  0
  8 19  1  0  0  0  0
  8 29  1  0  0  0  0
  9 10  1  0  0  0  0
  9 30  1  0  0  0  0
 10 11  2  0  0  0  0
 10 12  1  0  0  0  0
 12 13  1  0  0  0  0
 12 31  1  0  0  0  0
 13 18  1  0  0  0  0
 13 14  2  0  0  0  0
 14 15  1  0  0  0  0
 14 32  1  0  0  0  0
 15 16  2  0  0  0  0
 15 33  1  0  0  0  0
 16 17  1  0  0  0  0
 17 18  2  0  0  0  0
 17 34  1  0  0  0  0
 18 35  1  0  0  0  0
 19 20  1  0  0  0  0
 19 36  1  0  0  0  0
 19 37  1  0  0  0  0
 20 38  1  0  0  0  0
 20 39  1  0  0  0  0
M  CHG  1   5   1
M  END
> <s_m_source_file>
AV-unprocessed.smi

> <i_m_source_file_index>
1410

> <i_lp_mmshare_version>
43012

> <i_f3d_flags>
0

> <s_epik_input>
W05IMl1DKD1PKVtDSDJdTjFbQ0gyXVtDSDJdW0NIXShbQ0gyXVtDSDJdMSlbTkhdQyg9TylbTkhdYzJbY0hdW2NIXW5bY0hdW2NIXTI=

> <s_epik_cmdline>
J2VwaWtfcHl0aG9uJywgJy1waCcsICc3LjAnLCAnLXRuJywgJzgnLCAnLW1hJywgJzIwMCcsICctbWV0YWxfYmluZGluZycsICctaW1hZScsICc8aW5maWxlLm1hZT4nLCAnLW9tYWUnLCAnPG91dGZpbGUubWFlPic=

> <r_epik_Ionization_Penalty>
0.938358

> <r_epik_Ionization_Penalty_Charging>
0.838844

> <r_epik_Ionization_Penalty_Neutral>
0.0995144

> <r_epik_State_Penalty>
0.957795

> <r_epik_Charging_Adjusted_Penalty>
1.79664

> <i_epik_Tot_Q>
1

> <i_epik_Tot_abs_Q>
1

> <r_epik_Metal_State_Penalty>
0.97276

> <b_epik_Metal_Only>
0

> <s_lp_Force_Field>
OPLS_2005

> <r_lp_Energy>
18.9404

> <b_lp_Chiralities_Consistent>
1

> <s_lp_Variant>
AV-unprocessed.smi:1410-3

> <Gold.Version>
5.8.1

> <Gold.Id.Protein>
6NUR|6NUR_protein|mol2

> <Gold.PLP.Fitness>
46.5277

> <Gold.PLP.PLP>
-32.2061

> <Gold.PLP.part.hbond>
-4.8156

> <Gold.PLP.part.metal>
0.0000

> <Gold.PLP.part.buried>
-4.6236

> <Gold.PLP.part.nonpolar>
-23.9422

> <Gold.PLP.part.repulsive>
0.2457

> <Gold.PLP.ligand.clash>
0.0000

> <Gold.PLP.ligand.torsion>
0.2284

> <Gold.PLP.Chemscore.Hbond>
4.9175

> <Gold.PLP.Chemscore.CHOScore>
0.0000

> <Gold.PLP.Chemscore.Metal>
0.0000

> <Gold.Chemscore.Hbonds>
donor molecule, donor type, donor heavy atom, donor atom, acceptor molecule, acceptor atom, score
      L1  H     1    22       P1 10175  0.79
      L1  H     5    40       P1 10175  2.00
      L1  H     9    30       P1  8028  1.00
      L1  H    12    31       P1  8028  1.00

> <Gold.PLP.Chemscore.Internal.Correction>
0.0260

> <Gold.Rescore>
     Score         DG    S(hbond)    S(metal)    S(lipo)     H(rot)  DE(clash)    DE(int)     intcor
     18.99     -21.90       3.56        0.00      81.85       1.96       1.37       1.55       ----

> <Gold.Chemscore.Fitness>
18.9893

> <Gold.Chemscore.DG>
-21.9029

> <Gold.Chemscore.ZeroCoef>
-5.4800

> <Gold.Chemscore.Hbond>
3.5554

> <Gold.Chemscore.Metal>
0.0000

> <Gold.Chemscore.Lipo>
81.8471

> <Gold.Chemscore.Internal_Hbond>
0.0000

> <Gold.Chemscore.DEClash>
1.3673

> <Gold.Chemscore.DEInternal>
1.5463

> <Gold.Chemscore.Rot>
1.9642

> <Gold.Chemscore.Internal.Correction>
   9.000000E+99

> <Gold.Chemscore.Hbonds>
donor molecule, donor type, donor heavy atom, donor atom, acceptor molecule, acceptor atom, score
      L1  H     1    22       P1 10175  0.15
      L1  H     5    40       P1 10175  0.48
      L1  H     9    30       P1  8028  0.94
      L1  H    12    31       P1  8028  0.98

> <Gold.Chemscore.Hbond.Weighted>
-11.8751

> <Gold.Chemscore.Metal.Weighted>
-0.0000

> <Gold.Chemscore.Lipo.Weighted>
-9.5761

> <Gold.Chemscore.Internal_Hbond.Weighted>
0.0000

> <Gold.Chemscore.DEClash.Weighted>
1.3673

> <Gold.Chemscore.DEInternal.Weighted>
1.5463

> <Gold.Chemscore.Rot.Weighted>
5.0283

> <Gold.Chemscore.Internal.Correction.Weighted>
   9.000000E+99

> <Gold.Protein.RotatedTorsions>
[ 6907 6896 6895 6894 ] final   66.44 input  -60.11 | X-H torsion
[ 7974 7965 7964 7962 ] final   90.09 input  175.53 | X-H torsion
[ 8008 7997 7996 7995 ] final -143.40 input   59.86 | X-H torsion
[ 10167 10162 10161 10158 ] final -136.35 input  -65.29 | X-H torsion
[ 10718 10713 10712 10709 ] final  -45.96 input   66.30 | X-H torsion
[ 10763 10752 10751 10750 ] final    1.52 input  -60.55 | X-H torsion
[ 11005 11000 10999 10996 ] final -120.80 input  -57.11 | X-H torsion

> <Gold.Protein.ActiveResidues>
 VAL166  LYS551  ARG553  GLY616  TRP617  ASP618  TYR619  PRO620  LYS621  CYS622 
 ASP623  PHE694  ASN695  SER759  ASP760  ASP761  ALA762  ILE779  LEU786  VAL792 
 PHE793  MET794  SER795  GLU796  ALA797  LYS798  CYS799  TRP800  GLU811  SER814 

> <Gold.Protein.RotatedAtoms>
  152.4481  134.5452  159.9850 H   0  0  0  0  0  0  0  0  0  0  0  0  # atno 6907 bound_to 6896
  151.5531  133.3408  159.2965 H   0  0  0  0  0  0  0  0  0  0  0  0  # atno 6908 bound_to 6896
  150.8402  134.7724  159.6990 H   0  0  0  0  0  0  0  0  0  0  0  0  # atno 6909 bound_to 6896
  145.5236  139.2280  143.2658 H   0  0  0  0  0  0  0  0  0  0  0  0  # atno 7974 bound_to 7965
  155.5099  140.0582  157.2925 H   0  0  0  0  0  0  0  0  0  0  0  0  # atno 8008 bound_to 7997
  154.4555  140.1971  156.0339 H   0  0  0  0  0  0  0  0  0  0  0  0  # atno 8009 bound_to 7997
  156.0791  140.3249  155.7675 H   0  0  0  0  0  0  0  0  0  0  0  0  # atno 8010 bound_to 7997
  139.8687  143.6985  152.2642 H   0  0  0  0  0  0  0  0  0  0  0  0  # atno 10167 bound_to 10162
  156.2231  130.4167  149.8968 H   0  0  0  0  0  0  0  0  0  0  0  0  # atno 10718 bound_to 10713
  153.3070  135.6960  153.7150 H   0  0  0  0  0  0  0  0  0  0  0  0  # atno 10763 bound_to 10752
  153.6043  135.3456  155.2957 H   0  0  0  0  0  0  0  0  0  0  0  0  # atno 10764 bound_to 10752
  154.8565  135.4348  154.2197 H   0  0  0  0  0  0  0  0  0  0  0  0  # atno 10765 bound_to 10752
  141.0117  134.0255  157.3404 H   0  0  0  0  0  0  0  0  0  0  0  0  # atno 11005 bound_to 11000
  146.2090  140.6050  142.9068 LP  0  0  0  0  0  0  0  0  0  0  0  0  # atno 17320 bound_to 7965
  144.7663  140.5537  143.6701 LP  0  0  0  0  0  0  0  0  0  0  0  0  # atno 17321 bound_to 7965
  139.7305  144.7583  151.0810 LP  0  0  0  0  0  0  0  0  0  0  0  0  # atno 17342 bound_to 10162
  140.7764  143.5095  150.9671 LP  0  0  0  0  0  0  0  0  0  0  0  0  # atno 17343 bound_to 10162
  156.6608  130.8781  151.3547 LP  0  0  0  0  0  0  0  0  0  0  0  0  # atno 17370 bound_to 10713
  157.7097  130.9426  150.1048 LP  0  0  0  0  0  0  0  0  0  0  0  0  # atno 17371 bound_to 10713
  139.9094  135.0187  156.7625 LP  0  0  0  0  0  0  0  0  0  0  0  0  # atno 17394 bound_to 11000
  140.6722  133.9549  155.7863 LP  0  0  0  0  0  0  0  0  0  0  0  0  # atno 17395 bound_to 11000

$$$$
