AV-unprocessed.smi:2064|AV-procd|sdf|8416|dock7
  -GOLD-   2272011103D 1   1.00000     0.00000
 Structure written by MMmdl.
 46 48  0  0  0  0  0  0  0  0  1 V2000
  148.1357  137.1072  160.5677 N   0  0  0  0  0  0  0  0  0  0  0  0
  148.7140  136.9680  159.5749 C   0  0  0  0  0  0  0  0  0  0  0  0
  149.4084  136.8183  158.3389 C   0  0  0  0  0  0  0  0  0  0  0  0
  149.8793  135.6227  157.9283 C   0  0  0  0  0  0  0  0  0  0  0  0
  150.5581  135.4615  156.7402 N   0  0  0  0  0  0  0  0  0  0  0  0
  150.9103  134.1583  156.2511 C   0  0  0  0  0  0  0  0  0  0  0  0
  150.2355  133.6371  155.0012 C   0  0  0  0  0  0  0  0  0  0  0  0
  149.9207  133.0125  156.3384 C   0  0  0  0  0  0  0  0  0  0  0  0
  150.7165  136.5540  155.8598 C   0  0  0  0  0  0  0  0  0  0  0  0
  151.2312  136.4093  154.7480 O   0  0  0  0  0  0  0  0  0  0  0  0
  150.2549  137.8223  156.2881 N   0  0  0  0  0  0  0  0  0  0  0  0
  150.4404  138.9822  155.3886 C   0  0  0  0  0  0  0  0  0  0  0  0
  151.4673  140.0026  155.9030 C   0  0  0  0  0  0  0  0  0  0  0  0
  152.5250  140.1990  155.3025 O   0  0  0  0  0  0  0  0  0  0  0  0
  151.1305  140.6489  157.0297 N   0  0  0  0  0  0  0  0  0  0  0  0
  151.9398  141.6596  157.7068 C   0  0  0  0  0  0  0  0  0  0  0  0
  152.3064  141.1539  159.1176 C   0  0  0  0  0  0  0  0  0  0  0  0
  153.1224  142.1361  159.9757 C   0  0  0  0  0  0  0  0  0  0  0  0
  152.2765  143.3005  160.5152 C   0  0  0  0  0  0  0  0  0  0  0  0
  152.1454  144.5116  159.5756 C   0  0  0  0  0  0  0  0  0  0  0  0
  152.0452  144.2055  158.0710 C   0  0  0  0  0  0  0  0  0  0  0  0
  151.1703  142.9973  157.6959 C   0  0  0  0  0  0  0  0  0  0  0  0
  149.5871  138.0179  157.5241 C   0  0  0  0  0  0  0  0  0  0  0  0
  149.1836  139.1330  157.8590 O   0  0  0  0  0  0  0  0  0  0  0  0
  149.7236  134.7568  158.5556 H   0  0  0  0  0  0  0  0  0  0  0  0
  151.9579  133.8872  156.3702 H   0  0  0  0  0  0  0  0  0  0  0  0
  149.4599  134.2481  154.5432 H   0  0  0  0  0  0  0  0  0  0  0  0
  150.8435  133.0603  154.3072 H   0  0  0  0  0  0  0  0  0  0  0  0
  150.3197  132.0199  156.5368 H   0  0  0  0  0  0  0  0  0  0  0  0
  148.9371  133.2114  156.7598 H   0  0  0  0  0  0  0  0  0  0  0  0
  150.7451  138.6627  154.3908 H   0  0  0  0  0  0  0  0  0  0  0  0
  149.4915  139.4952  155.2219 H   0  0  0  0  0  0  0  0  0  0  0  0
  150.2429  140.4227  157.4545 H   0  0  0  0  0  0  0  0  0  0  0  0
  152.8603  141.7985  157.1363 H   0  0  0  0  0  0  0  0  0  0  0  0
  151.4019  140.8661  159.6556 H   0  0  0  0  0  0  0  0  0  0  0  0
  152.8875  140.2364  159.0147 H   0  0  0  0  0  0  0  0  0  0  0  0
  153.5089  141.5807  160.8308 H   0  0  0  0  0  0  0  0  0  0  0  0
  153.9982  142.4993  159.4370 H   0  0  0  0  0  0  0  0  0  0  0  0
  151.2835  142.9345  160.7792 H   0  0  0  0  0  0  0  0  0  0  0  0
  152.7103  143.6501  161.4528 H   0  0  0  0  0  0  0  0  0  0  0  0
  151.2720  145.0878  159.8834 H   0  0  0  0  0  0  0  0  0  0  0  0
  152.9985  145.1737  159.7281 H   0  0  0  0  0  0  0  0  0  0  0  0
  151.6493  145.0940  157.5779 H   0  0  0  0  0  0  0  0  0  0  0  0
  153.0452  144.0731  157.6562 H   0  0  0  0  0  0  0  0  0  0  0  0
  150.8011  143.1666  156.6832 H   0  0  0  0  0  0  0  0  0  0  0  0
  150.2842  142.9477  158.3301 H   0  0  0  0  0  0  0  0  0  0  0  0
  1  2  3  0  0  0  0
  2  3  1  0  0  0  0
  3 23  1  0  0  0  0
  3  4  2  0  0  0  0
  4  5  1  0  0  0  0
  4 25  1  0  0  0  0
  5  6  1  0  0  0  0
  5  9  1  0  0  0  0
  6  8  1  0  0  0  0
  6  7  1  0  0  0  0
  6 26  1  0  0  0  0
  7  8  1  0  0  0  0
  7 27  1  0  0  0  0
  7 28  1  0  0  0  0
  8 29  1  0  0  0  0
  8 30  1  0  0  0  0
  9 10  2  0  0  0  0
  9 11  1  0  0  0  0
 11 12  1  0  0  0  0
 11 23  1  0  0  0  0
 12 13  1  0  0  0  0
 12 31  1  0  0  0  0
 12 32  1  0  0  0  0
 13 14  2  0  0  0  0
 13 15  1  0  0  0  0
 15 16  1  0  0  0  0
 15 33  1  0  0  0  0
 16 22  1  0  0  0  0
 16 17  1  0  0  0  0
 16 34  1  0  0  0  0
 17 18  1  0  0  0  0
 17 35  1  0  0  0  0
 17 36  1  0  0  0  0
 18 19  1  0  0  0  0
 18 37  1  0  0  0  0
 18 38  1  0  0  0  0
 19 20  1  0  0  0  0
 19 39  1  0  0  0  0
 19 40  1  0  0  0  0
 20 21  1  0  0  0  0
 20 41  1  0  0  0  0
 20 42  1  0  0  0  0
 21 22  1  0  0  0  0
 21 43  1  0  0  0  0
 21 44  1  0  0  0  0
 22 45  1  0  0  0  0
 22 46  1  0  0  0  0
 23 24  2  0  0  0  0
M  END
> <s_m_source_file>
AV-unprocessed.smi

> <i_m_source_file_index>
2064

> <i_lp_mmshare_version>
43012

> <i_f3d_flags>
0

> <s_epik_input>
TiNDYzFbY0hdbihbQ0hdMltDSDJdW0NIMl0yKWMoPU8pbihjMT1PKVtDSDJdQyg9TylbTkhdW0NIXTNbQ0gyXVtDSDJdW0NIMl1bQ0gyXVtDSDJdW0NIMl0z

> <s_epik_cmdline>
J2VwaWtfcHl0aG9uJywgJy1waCcsICc3LjAnLCAnLXRuJywgJzgnLCAnLW1hJywgJzIwMCcsICctbWV0YWxfYmluZGluZycsICctaW1hZScsICc8aW5maWxlLm1hZT4nLCAnLW9tYWUnLCAnPG91dGZpbGUubWFlPic=

> <r_lp_tautomer_probability>
1

> <r_epik_Ionization_Penalty>
2.03018e-08

> <r_epik_Ionization_Penalty_Charging>
8.701e-11

> <r_epik_Ionization_Penalty_Neutral>
2.02148e-08

> <r_epik_State_Penalty>
-0

> <r_epik_Charging_Adjusted_Penalty>
8.701e-11

> <i_epik_Tot_Q>
0

> <i_epik_Tot_abs_Q>
0

> <r_epik_Metal_State_Penalty>
-0

> <b_epik_Metal_Only>
0

> <s_lp_Force_Field>
OPLS_2005

> <r_lp_Energy>
40.6124

> <b_lp_Chiralities_Consistent>
1

> <s_lp_Variant>
AV-unprocessed.smi:2064-1

> <Gold.Version>
5.8.1

> <Gold.Id.Protein>
6NUR|6NUR_protein|mol2

> <Gold.PLP.Fitness>
53.1090

> <Gold.PLP.PLP>
-41.7507

> <Gold.PLP.part.hbond>
-5.0000

> <Gold.PLP.part.metal>
0.0000

> <Gold.PLP.part.buried>
-3.0671

> <Gold.PLP.part.nonpolar>
-33.7212

> <Gold.PLP.part.repulsive>
0.2561

> <Gold.PLP.ligand.clash>
0.0000

> <Gold.PLP.ligand.torsion>
0.3192

> <Gold.PLP.Chemscore.Hbond>
3.9250

> <Gold.PLP.Chemscore.CHOScore>
0.0000

> <Gold.PLP.Chemscore.Metal>
0.0000

> <Gold.Chemscore.Hbonds>
donor molecule, donor type, donor heavy atom, donor atom, acceptor molecule, acceptor atom, score
      P1  H  6931  6943       L1     1  0.82
      P1  H  6934  6947       L1     1  0.48
      P1  H  7989  7998       L1    14  0.38
      P1  H  7997  8010       L1    14  1.00
      P1  H 10752 10764       L1    10  1.00

> <Gold.PLP.Chemscore.Internal.Correction>
0.2217

> <Gold.Rescore>
     Score         DG    S(hbond)    S(metal)    S(lipo)     H(rot)  DE(clash)    DE(int)     intcor
     19.80     -23.24       3.07        0.00     101.57       1.70       1.22       2.22       ----

> <Gold.Chemscore.Fitness>
19.7971

> <Gold.Chemscore.DG>
-23.2409

> <Gold.Chemscore.ZeroCoef>
-5.4800

> <Gold.Chemscore.Hbond>
3.0655

> <Gold.Chemscore.Metal>
0.0000

> <Gold.Chemscore.Lipo>
101.5717

> <Gold.Chemscore.Internal_Hbond>
0.0000

> <Gold.Chemscore.DEClash>
1.2243

> <Gold.Chemscore.DEInternal>
2.2195

> <Gold.Chemscore.Rot>
1.7038

> <Gold.Chemscore.Internal.Correction>
   9.000000E+99

> <Gold.Chemscore.Hbonds>
donor molecule, donor type, donor heavy atom, donor atom, acceptor molecule, acceptor atom, score
      P1  H  6931  6943       L1     1  0.71
      P1  H  6934  6947       L1     1  0.45
      P1  H  7989  7998       L1    14  0.06
      P1  H  7997  8010       L1    14  0.96
      P1  H 10752 10764       L1    10  0.99

> <Gold.Chemscore.Hbond.Weighted>
-10.2387

> <Gold.Chemscore.Metal.Weighted>
-0.0000

> <Gold.Chemscore.Lipo.Weighted>
-11.8839

> <Gold.Chemscore.Internal_Hbond.Weighted>
0.0000

> <Gold.Chemscore.DEClash.Weighted>
1.2243

> <Gold.Chemscore.DEInternal.Weighted>
2.2195

> <Gold.Chemscore.Rot.Weighted>
4.3618

> <Gold.Chemscore.Internal.Correction.Weighted>
   9.000000E+99

> <Gold.Protein.RotatedTorsions>
[ 6907 6896 6895 6894 ] final   97.18 input  -60.11 | X-H torsion
[ 7974 7965 7964 7962 ] final   86.59 input  175.53 | X-H torsion
[ 8008 7997 7996 7995 ] final   93.10 input   59.86 | X-H torsion
[ 10167 10162 10161 10158 ] final -173.28 input  -65.29 | X-H torsion
[ 10718 10713 10712 10709 ] final  161.00 input   66.30 | X-H torsion
[ 10763 10752 10751 10750 ] final  -65.90 input  -60.55 | X-H torsion
[ 11005 11000 10999 10996 ] final  -41.36 input  -57.11 | X-H torsion

> <Gold.Protein.ActiveResidues>
 VAL166  LYS551  ARG553  GLY616  TRP617  ASP618  TYR619  PRO620  LYS621  CYS622 
 ASP623  PHE694  ASN695  SER759  ASP760  ASP761  ALA762  ILE779  LEU786  VAL792 
 PHE793  MET794  SER795  GLU796  ALA797  LYS798  CYS799  TRP800  GLU811  SER814 

> <Gold.Protein.RotatedAtoms>
  152.5426  134.0773  159.8219 H   0  0  0  0  0  0  0  0  0  0  0  0  # atno 6907 bound_to 6896
  151.0879  133.5331  159.2624 H   0  0  0  0  0  0  0  0  0  0  0  0  # atno 6908 bound_to 6896
  151.2133  135.0498  159.8974 H   0  0  0  0  0  0  0  0  0  0  0  0  # atno 6909 bound_to 6896
  145.5703  139.2313  143.2410 H   0  0  0  0  0  0  0  0  0  0  0  0  # atno 7974 bound_to 7965
  156.0429  140.3317  155.7264 H   0  0  0  0  0  0  0  0  0  0  0  0  # atno 8008 bound_to 7997
  155.5717  140.0628  157.2822 H   0  0  0  0  0  0  0  0  0  0  0  0  # atno 8009 bound_to 7997
  154.4401  140.1859  156.0874 H   0  0  0  0  0  0  0  0  0  0  0  0  # atno 8010 bound_to 7997
  139.5697  144.1671  152.1365 H   0  0  0  0  0  0  0  0  0  0  0  0  # atno 10167 bound_to 10162
  157.1426  131.0544  151.2319 H   0  0  0  0  0  0  0  0  0  0  0  0  # atno 10718 bound_to 10713
  154.3519  135.6134  153.5647 H   0  0  0  0  0  0  0  0  0  0  0  0  # atno 10763 bound_to 10752
  152.9798  135.5794  154.4733 H   0  0  0  0  0  0  0  0  0  0  0  0  # atno 10764 bound_to 10752
  154.4456  135.2851  155.1794 H   0  0  0  0  0  0  0  0  0  0  0  0  # atno 10765 bound_to 10752
  141.0240  133.6849  156.2447 H   0  0  0  0  0  0  0  0  0  0  0  0  # atno 11005 bound_to 11000
  146.1789  140.6529  142.9198 LP  0  0  0  0  0  0  0  0  0  0  0  0  # atno 17320 bound_to 7965
  144.7441  140.5021  143.6848 LP  0  0  0  0  0  0  0  0  0  0  0  0  # atno 17321 bound_to 7965
  140.1201  144.5380  150.6868 LP  0  0  0  0  0  0  0  0  0  0  0  0  # atno 17342 bound_to 10162
  140.6981  143.2417  151.4943 LP  0  0  0  0  0  0  0  0  0  0  0  0  # atno 17343 bound_to 10162
  157.4293  130.7481  149.6977 LP  0  0  0  0  0  0  0  0  0  0  0  0  # atno 17370 bound_to 10713
  155.9785  130.4050  150.3641 LP  0  0  0  0  0  0  0  0  0  0  0  0  # atno 17371 bound_to 10713
  140.6523  134.5054  157.5578 LP  0  0  0  0  0  0  0  0  0  0  0  0  # atno 17394 bound_to 11000
  139.9164  134.8237  156.1352 LP  0  0  0  0  0  0  0  0  0  0  0  0  # atno 17395 bound_to 11000

$$$$
