AV-unprocessed.smi:1561|AV-procd|sdf|6284|dock1
  -GOLD-   22720 6483D 1   1.00000     0.00000
 Structure written by MMmdl.
 33 34  0  0  0  0  0  0  0  0  1 V2000
  153.4186  141.9571  161.4702 C   0  0  0  0  0  0  0  0  0  0  0  0
  153.1070  142.2028  159.9796 C   0  0  1  0  0  0  0  0  0  0  0  0
  152.1870  141.1265  159.3827 C   0  0  0  0  0  0  0  0  0  0  0  0
  152.4386  139.9307  159.5353 O   0  0  0  0  0  0  0  0  0  0  0  0
  151.1188  141.5710  158.7011 N   0  0  0  0  0  0  0  0  0  0  0  0
  150.1078  140.7319  158.0657 C   0  0  0  0  0  0  0  0  0  0  0  0
  150.2665  140.6974  156.5341 C   0  0  2  0  0  0  0  0  0  0  0  0
  149.3202  139.7375  155.8426 C   0  0  0  0  0  0  0  0  0  0  0  0
  149.9817  139.5616  154.4782 C   0  0  0  0  0  0  0  0  0  0  0  0
  151.3784  139.7478  154.6916 O   0  0  0  0  0  0  0  0  0  0  0  0
  151.6140  140.1805  156.0276 C   0  0  0  0  0  0  0  0  0  0  0  0
  152.5524  143.5304  159.7396 N   0  0  0  0  0  0  0  0  0  0  0  0
  152.1940  144.4801  160.6751 C   0  0  0  0  0  0  0  0  0  0  0  0
  151.7628  145.5838  159.9969 C   0  0  0  0  0  0  0  0  0  0  0  0
  151.9080  145.2182  158.6301 C   0  0  0  0  0  0  0  0  0  0  0  0
  152.3876  143.9949  158.4788 N   0  0  0  0  0  0  0  0  0  0  0  0
  153.8825  140.9813  161.6183 H   0  0  0  0  0  0  0  0  0  0  0  0
  152.5222  141.9929  162.0907 H   0  0  0  0  0  0  0  0  0  0  0  0
  154.1121  142.7081  161.8497 H   0  0  0  0  0  0  0  0  0  0  0  0
  154.0570  142.1527  159.4447 H   0  0  0  0  0  0  0  0  0  0  0  0
  150.9918  142.5697  158.6244 H   0  0  0  0  0  0  0  0  0  0  0  0
  150.1245  139.7219  158.4791 H   0  0  0  0  0  0  0  0  0  0  0  0
  149.1317  141.1462  158.3190 H   0  0  0  0  0  0  0  0  0  0  0  0
  150.0998  141.6973  156.1291 H   0  0  0  0  0  0  0  0  0  0  0  0
  149.2954  138.7822  156.3695 H   0  0  0  0  0  0  0  0  0  0  0  0
  148.2993  140.1146  155.7732 H   0  0  0  0  0  0  0  0  0  0  0  0
  149.7725  138.5859  154.0393 H   0  0  0  0  0  0  0  0  0  0  0  0
  149.6332  140.3270  153.7838 H   0  0  0  0  0  0  0  0  0  0  0  0
  152.3973  140.9375  156.0674 H   0  0  0  0  0  0  0  0  0  0  0  0
  151.9428  139.3213  156.6142 H   0  0  0  0  0  0  0  0  0  0  0  0
  152.2748  144.2929  161.7358 H   0  0  0  0  0  0  0  0  0  0  0  0
  151.4039  146.5131  160.4133 H   0  0  0  0  0  0  0  0  0  0  0  0
  151.6849  145.8028  157.7497 H   0  0  0  0  0  0  0  0  0  0  0  0
  1  2  1  0  0  0  0
  1 17  1  0  0  0  0
  1 18  1  0  0  0  0
  1 19  1  0  0  0  0
  2  3  1  0  0  0  0
  2 12  1  0  0  0  0
  2 20  1  0  0  0  0
  3  4  2  0  0  0  0
  3  5  1  0  0  0  0
  5  6  1  0  0  0  0
  5 21  1  0  0  0  0
  6  7  1  0  0  0  0
  6 22  1  0  0  0  0
  6 23  1  0  0  0  0
  7 11  1  0  0  0  0
  7  8  1  0  0  0  0
  7 24  1  0  0  0  0
  8  9  1  0  0  0  0
  8 25  1  0  0  0  0
  8 26  1  0  0  0  0
  9 10  1  0  0  0  0
  9 27  1  0  0  0  0
  9 28  1  0  0  0  0
 10 11  1  0  0  0  0
 11 29  1  0  0  0  0
 11 30  1  0  0  0  0
 12 16  1  0  0  0  0
 12 13  1  0  0  0  0
 13 14  2  0  0  0  0
 13 31  1  0  0  0  0
 14 15  1  0  0  0  0
 14 32  1  0  0  0  0
 15 16  2  0  0  0  0
 15 33  1  0  0  0  0
M  END
> <s_m_source_file>
AV-unprocessed.smi

> <i_m_source_file_index>
1561

> <i_lp_mmshare_version>
43012

> <i_f3d_flags>
0

> <s_epik_input>
bjFbY0hdW2NIXVtjSF1uMVtDQEhdKFtDSDNdKUMoPU8pW05IXVtDSDJdW0NAQEhdMltDSDJdW0NIMl1PW0NIMl0y

> <s_epik_cmdline>
J2VwaWtfcHl0aG9uJywgJy1waCcsICc3LjAnLCAnLXRuJywgJzgnLCAnLW1hJywgJzIwMCcsICctbWV0YWxfYmluZGluZycsICctaW1hZScsICc8aW5maWxlLm1hZT4nLCAnLW9tYWUnLCAnPG91dGZpbGUubWFlPic=

> <r_lp_tautomer_probability>
1

> <r_epik_Ionization_Penalty>
3.82077e-05

> <r_epik_Ionization_Penalty_Charging>
0

> <r_epik_Ionization_Penalty_Neutral>
3.82077e-05

> <r_epik_State_Penalty>
-0

> <r_epik_Charging_Adjusted_Penalty>
0

> <i_epik_Tot_Q>
0

> <i_epik_Tot_abs_Q>
0

> <r_epik_Metal_State_Penalty>
-0

> <b_epik_Metal_Only>
0

> <s_lp_Force_Field>
OPLS_2005

> <r_lp_Energy>
22.8323

> <b_lp_Chiralities_Consistent>
1

> <s_lp_Variant>
AV-unprocessed.smi:1561-2

> <Gold.Version>
5.8.1

> <Gold.Id.Protein>
6NUR|6NUR_protein|mol2

> <Gold.PLP.Fitness>
41.1824

> <Gold.PLP.PLP>
-38.6096

> <Gold.PLP.part.hbond>
-1.0000

> <Gold.PLP.part.metal>
0.0000

> <Gold.PLP.part.buried>
-6.6921

> <Gold.PLP.part.nonpolar>
-31.1635

> <Gold.PLP.part.repulsive>
0.2334

> <Gold.PLP.ligand.clash>
0.0000

> <Gold.PLP.ligand.torsion>
0.2726

> <Gold.PLP.Chemscore.Hbond>
1.0000

> <Gold.PLP.Chemscore.CHOScore>
0.0000

> <Gold.PLP.Chemscore.Metal>
0.0000

> <Gold.Chemscore.Hbonds>
donor molecule, donor type, donor heavy atom, donor atom, acceptor molecule, acceptor atom, score
      P1  H  7989  7998       L1    10  0.90

> <Gold.PLP.Chemscore.Internal.Correction>
0.1180

> <Gold.Rescore>
     Score         DG    S(hbond)    S(metal)    S(lipo)     H(rot)  DE(clash)    DE(int)     intcor
     12.40     -14.06       0.81        0.00      85.53       1.61       0.03       1.63       ----

> <Gold.Chemscore.Fitness>
12.4012

> <Gold.Chemscore.DG>
-14.0614

> <Gold.Chemscore.ZeroCoef>
-5.4800

> <Gold.Chemscore.Hbond>
0.8068

> <Gold.Chemscore.Metal>
0.0000

> <Gold.Chemscore.Lipo>
85.5279

> <Gold.Chemscore.Internal_Hbond>
0.0000

> <Gold.Chemscore.DEClash>
0.0270

> <Gold.Chemscore.DEInternal>
1.6333

> <Gold.Chemscore.Rot>
1.6094

> <Gold.Chemscore.Internal.Correction>
   9.000000E+99

> <Gold.Chemscore.Hbonds>
donor molecule, donor type, donor heavy atom, donor atom, acceptor molecule, acceptor atom, score
      P1  H  7989  7998       L1    10  0.17

> <Gold.Chemscore.Hbond.Weighted>
-2.6947

> <Gold.Chemscore.Metal.Weighted>
-0.0000

> <Gold.Chemscore.Lipo.Weighted>
-10.0068

> <Gold.Chemscore.Internal_Hbond.Weighted>
0.0000

> <Gold.Chemscore.DEClash.Weighted>
0.0270

> <Gold.Chemscore.DEInternal.Weighted>
1.6333

> <Gold.Chemscore.Rot.Weighted>
4.1201

> <Gold.Chemscore.Internal.Correction.Weighted>
   9.000000E+99

> <Gold.Protein.RotatedTorsions>
[ 6907 6896 6895 6894 ] final   10.58 input  -60.11 | X-H torsion
[ 7974 7965 7964 7962 ] final   45.44 input  175.53 | X-H torsion
[ 8008 7997 7996 7995 ] final -154.36 input   59.86 | X-H torsion
[ 10167 10162 10161 10158 ] final -107.93 input  -65.29 | X-H torsion
[ 10718 10713 10712 10709 ] final  134.35 input   66.30 | X-H torsion
[ 10763 10752 10751 10750 ] final -110.35 input  -60.55 | X-H torsion
[ 11005 11000 10999 10996 ] final  124.15 input  -57.11 | X-H torsion

> <Gold.Protein.ActiveResidues>
 VAL166  LYS551  ARG553  GLY616  TRP617  ASP618  TYR619  PRO620  LYS621  CYS622 
 ASP623  PHE694  ASN695  SER759  ASP760  ASP761  ALA762  ILE779  LEU786  VAL792 
 PHE793  MET794  SER795  GLU796  ALA797  LYS798  CYS799  TRP800  GLU811  SER814 

> <Gold.Protein.RotatedAtoms>
  151.7406  135.0855  160.0314 H   0  0  0  0  0  0  0  0  0  0  0  0  # atno 6907 bound_to 6896
  152.3482  133.6143  159.5934 H   0  0  0  0  0  0  0  0  0  0  0  0  # atno 6908 bound_to 6896
  150.7522  133.9532  159.3534 H   0  0  0  0  0  0  0  0  0  0  0  0  # atno 6909 bound_to 6896
  146.0479  139.4964  142.9736 H   0  0  0  0  0  0  0  0  0  0  0  0  # atno 7974 bound_to 7965
  155.6851  140.0749  157.2470 H   0  0  0  0  0  0  0  0  0  0  0  0  # atno 8008 bound_to 7997
  154.4098  140.1675  156.2077 H   0  0  0  0  0  0  0  0  0  0  0  0  # atno 8009 bound_to 7997
  155.9501  140.3378  155.6403 H   0  0  0  0  0  0  0  0  0  0  0  0  # atno 8010 bound_to 7997
  140.1716  143.4038  152.1350 H   0  0  0  0  0  0  0  0  0  0  0  0  # atno 10167 bound_to 10162
  157.4682  131.1078  150.9836 H   0  0  0  0  0  0  0  0  0  0  0  0  # atno 10718 bound_to 10713
  154.8243  135.4567  154.0872 H   0  0  0  0  0  0  0  0  0  0  0  0  # atno 10763 bound_to 10752
  153.2199  135.6893  153.8018 H   0  0  0  0  0  0  0  0  0  0  0  0  # atno 10764 bound_to 10752
  153.7439  135.3308  155.3286 H   0  0  0  0  0  0  0  0  0  0  0  0  # atno 10765 bound_to 10752
  139.9345  134.9640  156.8366 H   0  0  0  0  0  0  0  0  0  0  0  0  # atno 11005 bound_to 11000
  145.6774  141.0200  143.1625 LP  0  0  0  0  0  0  0  0  0  0  0  0  # atno 17320 bound_to 7965
  144.7107  139.8381  143.7415 LP  0  0  0  0  0  0  0  0  0  0  0  0  # atno 17321 bound_to 7965
  139.5335  144.7185  151.4972 LP  0  0  0  0  0  0  0  0  0  0  0  0  # atno 17342 bound_to 10162
  140.6578  143.8562  150.6854 LP  0  0  0  0  0  0  0  0  0  0  0  0  # atno 17343 bound_to 10162
  157.0610  130.5825  149.5386 LP  0  0  0  0  0  0  0  0  0  0  0  0  # atno 17370 bound_to 10713
  156.0060  130.5147  150.7831 LP  0  0  0  0  0  0  0  0  0  0  0  0  # atno 17371 bound_to 10713
  140.6112  134.0080  155.7578 LP  0  0  0  0  0  0  0  0  0  0  0  0  # atno 17394 bound_to 11000
  141.0952  133.9855  157.3172 LP  0  0  0  0  0  0  0  0  0  0  0  0  # atno 17395 bound_to 11000

$$$$
