AV-unprocessed.smi:287|AV-procd|sdf|2183|dock5
  -GOLD-   2262021563D 1   1.00000     0.00000
 Structure written by MMmdl.
 55 58  0  0  0  0  0  0  0  0  1 V2000
  151.0214  142.2116  157.0667 C   0  0  0  0  0  0  0  0  0  0  0  0
  150.3885  141.1787  156.1987 C   0  0  0  0  0  0  0  0  0  0  0  0
  149.1423  141.0293  155.6643 C   0  0  0  0  0  0  0  0  0  0  0  0
  149.1404  139.8121  154.9191 C   0  0  0  0  0  0  0  0  0  0  0  0
  147.9633  139.2327  154.1459 C   0  0  1  0  0  0  0  0  0  0  0  0
  147.1574  140.3707  153.4988 C   0  0  0  0  0  0  0  0  0  0  0  0
  148.3684  138.4019  153.0749 O   0  0  0  0  0  0  0  0  0  0  0  0
  147.0406  138.3634  155.0311 C   0  0  0  0  0  0  0  0  0  0  0  0
  147.7607  137.3126  155.7391 N   0  0  0  0  0  0  0  0  0  0  0  0
  147.7781  136.0469  155.2725 C   0  0  0  0  0  0  0  0  0  0  0  0
  148.8611  135.3121  155.6216 N   0  0  0  0  0  0  0  0  0  0  0  0
  148.9752  134.0456  155.2121 C   0  0  0  0  0  0  0  0  0  0  0  0
  148.1353  133.3338  154.4588 N   0  0  0  0  0  0  0  0  0  0  0  0
  147.0426  134.0686  154.1014 C   0  0  0  0  0  0  0  0  0  0  0  0
  146.7853  135.4225  154.4601 C   0  0  0  0  0  0  0  0  0  0  0  0
  145.5754  135.8205  153.9002 N   0  0  0  0  0  0  0  0  0  0  0  0
  145.1528  134.7671  153.2553 C   0  0  0  0  0  0  0  0  0  0  0  0
  145.9798  133.6676  153.3226 N   0  0  0  0  0  0  0  0  0  0  0  0
  145.8062  132.3127  152.7083 C   0  0  1  0  0  0  0  0  0  0  0  0
  144.4932  132.2290  152.2388 O   0  0  0  0  0  0  0  0  0  0  0  0
  144.4667  131.9684  150.8354 C   0  0  1  0  0  0  0  0  0  0  0  0
  143.2410  132.6228  150.1737 C   0  0  0  0  0  0  0  0  0  0  0  0
  143.1643  132.2432  148.8163 O   0  0  0  0  0  0  0  0  0  0  0  0
  145.8327  132.4444  150.3212 C   0  0  1  0  0  0  0  0  0  0  0  0
  145.8204  133.8309  150.0245 O   0  0  0  0  0  0  0  0  0  0  0  0
  146.7365  132.1062  151.4983 C   0  0  1  0  0  0  0  0  0  0  0  0
  147.9409  132.8544  151.5081 O   0  0  0  0  0  0  0  0  0  0  0  0
  150.4180  139.3221  155.0467 C   0  0  0  0  0  0  0  0  0  0  0  0
  151.1238  138.1168  154.5191 C   0  0  0  0  0  0  0  0  0  0  0  0
  151.1784  140.1408  155.8261 O   0  0  0  0  0  0  0  0  0  0  0  0
  145.9828  131.6126  153.5255 H   0  0  0  0  0  0  0  0  0  0  0  0
  144.4265  130.8857  150.7020 H   0  0  0  0  0  0  0  0  0  0  0  0
  146.1323  131.9097  149.4192 H   0  0  0  0  0  0  0  0  0  0  0  0
  146.9841  131.0446  151.4624 H   0  0  0  0  0  0  0  0  0  0  0  0
  150.2756  142.9101  157.4469 H   0  0  0  0  0  0  0  0  0  0  0  0
  151.7655  142.7806  156.5095 H   0  0  0  0  0  0  0  0  0  0  0  0
  151.5169  141.7497  157.9209 H   0  0  0  0  0  0  0  0  0  0  0  0
  148.3178  141.7138  155.7990 H   0  0  0  0  0  0  0  0  0  0  0  0
  146.7651  141.0551  154.2520 H   0  0  0  0  0  0  0  0  0  0  0  0
  146.3083  139.9877  152.9313 H   0  0  0  0  0  0  0  0  0  0  0  0
  147.7754  140.9549  152.8156 H   0  0  0  0  0  0  0  0  0  0  0  0
  148.6003  138.9509  152.3416 H   0  0  0  0  0  0  0  0  0  0  0  0
  146.5806  139.0042  155.7847 H   0  0  0  0  0  0  0  0  0  0  0  0
  146.2292  137.9355  154.4409 H   0  0  0  0  0  0  0  0  0  0  0  0
  148.1548  137.5794  156.6301 H   0  0  0  0  0  0  0  0  0  0  0  0
  149.8679  133.5298  155.5337 H   0  0  0  0  0  0  0  0  0  0  0  0
  144.2211  134.7672  152.7087 H   0  0  0  0  0  0  0  0  0  0  0  0
  142.3192  132.3587  150.6927 H   0  0  0  0  0  0  0  0  0  0  0  0
  143.3323  133.7092  150.2030 H   0  0  0  0  0  0  0  0  0  0  0  0
  143.8936  132.6284  148.3553 H   0  0  0  0  0  0  0  0  0  0  0  0
  145.8331  133.9323  149.0846 H   0  0  0  0  0  0  0  0  0  0  0  0
  148.5949  132.3741  151.0229 H   0  0  0  0  0  0  0  0  0  0  0  0
  150.9691  138.0176  153.4447 H   0  0  0  0  0  0  0  0  0  0  0  0
  150.7540  137.2114  155.0004 H   0  0  0  0  0  0  0  0  0  0  0  0
  152.1975  138.1784  154.6976 H   0  0  0  0  0  0  0  0  0  0  0  0
  1  2  1  0  0  0  0
  1 35  1  0  0  0  0
  1 36  1  0  0  0  0
  1 37  1  0  0  0  0
  2 30  1  0  0  0  0
  2  3  2  0  0  0  0
  3  4  1  0  0  0  0
  3 38  1  0  0  0  0
  4  5  1  0  0  0  0
  4 28  2  0  0  0  0
  5  6  1  0  0  0  0
  5  7  1  0  0  0  0
  5  8  1  0  0  0  0
  6 39  1  0  0  0  0
  6 40  1  0  0  0  0
  6 41  1  0  0  0  0
  7 42  1  0  0  0  0
  8  9  1  0  0  0  0
  8 43  1  0  0  0  0
  8 44  1  0  0  0  0
  9 10  1  0  0  0  0
  9 45  1  0  0  0  0
 10 15  1  0  0  0  0
 10 11  2  0  0  0  0
 11 12  1  0  0  0  0
 12 13  2  0  0  0  0
 12 46  1  0  0  0  0
 13 14  1  0  0  0  0
 14 18  1  0  0  0  0
 14 15  2  0  0  0  0
 15 16  1  0  0  0  0
 16 17  2  0  0  0  0
 17 18  1  0  0  0  0
 17 47  1  0  0  0  0
 18 19  1  0  0  0  0
 19 31  1  0  0  0  0
 19 26  1  0  0  0  0
 19 20  1  0  0  0  0
 20 21  1  0  0  0  0
 21 32  1  0  0  0  0
 21 22  1  0  0  0  0
 21 24  1  0  0  0  0
 22 23  1  0  0  0  0
 22 48  1  0  0  0  0
 22 49  1  0  0  0  0
 23 50  1  0  0  0  0
 24 33  1  0  0  0  0
 24 25  1  0  0  0  0
 24 26  1  0  0  0  0
 25 51  1  0  0  0  0
 26 34  1  0  0  0  0
 26 27  1  0  0  0  0
 27 52  1  0  0  0  0
 28 29  1  0  0  0  0
 28 30  1  0  0  0  0
 29 53  1  0  0  0  0
 29 54  1  0  0  0  0
 29 55  1  0  0  0  0
M  END
> <s_m_source_file>
AV-unprocessed.smi

> <i_m_source_file_index>
287

> <i_lp_mmshare_version>
43012

> <i_f3d_flags>
0

> <s_epik_input>
W0NIM11jMVtjSF1jKGMobzEpW0NIM10pW0NAQF0oW0NIM10pKFtPSF0pW0NIMl1bTkhdYyhuW2NIXW4yKWMoYzIzKW5bY0hdbjNbQ0BASF00T1tDQEhdKFtDSDJdW09IXSlbQ0BASF0oW09IXSlbQ0BIXTRbT0hd

> <s_epik_cmdline>
J2VwaWtfcHl0aG9uJywgJy1waCcsICc3LjAnLCAnLXRuJywgJzgnLCAnLW1hJywgJzIwMCcsICctbWV0YWxfYmluZGluZycsICctaW1hZScsICc8aW5maWxlLm1hZT4nLCAnLW9tYWUnLCAnPG91dGZpbGUubWFlPic=

> <r_lp_tautomer_probability>
1

> <r_epik_Ionization_Penalty>
0.000992612

> <r_epik_Ionization_Penalty_Charging>
0

> <r_epik_Ionization_Penalty_Neutral>
0.000992612

> <r_epik_State_Penalty>
-0

> <r_epik_Charging_Adjusted_Penalty>
0

> <i_epik_Tot_Q>
0

> <i_epik_Tot_abs_Q>
0

> <r_epik_Metal_State_Penalty>
-0

> <b_epik_Metal_Only>
0

> <s_epik_Chemistry_Notes>
This compound contains an acetal/aminal-like group ( X-CH(R)-Y where X, Y are N, S, or O) that may be acid/base labile, releasing an aldehyde.

> <s_lp_Force_Field>
OPLS_2005

> <r_lp_Energy>
47.3874

> <b_lp_Chiralities_Consistent>
1

> <s_lp_Variant>
AV-unprocessed.smi:287-7

> <Gold.Version>
5.8.1

> <Gold.Id.Protein>
6NUR|6NUR_protein|mol2

> <Gold.PLP.Fitness>
48.8790

> <Gold.PLP.PLP>
-39.9680

> <Gold.PLP.part.hbond>
-7.2552

> <Gold.PLP.part.metal>
0.0000

> <Gold.PLP.part.buried>
0.7328

> <Gold.PLP.part.nonpolar>
-33.8561

> <Gold.PLP.part.repulsive>
0.4176

> <Gold.PLP.ligand.clash>
0.0000

> <Gold.PLP.ligand.torsion>
1.6984

> <Gold.PLP.Chemscore.Hbond>
3.8560

> <Gold.PLP.Chemscore.CHOScore>
0.0000

> <Gold.PLP.Chemscore.Metal>
0.0000

> <Gold.Chemscore.Hbonds>
donor molecule, donor type, donor heavy atom, donor atom, acceptor molecule, acceptor atom, score
      L1  H     7    42       P1  7957  1.00
      L1  H    25    51       P1  7921  1.00
      L1  H    27    52       P1 10747  0.93
      P1  H 10785 10796       L1    23  0.80

> <Gold.PLP.Chemscore.Internal.Correction>
0.7398

> <Gold.Rescore>
     Score         DG    S(hbond)    S(metal)    S(lipo)     H(rot)  DE(clash)    DE(int)     intcor
      7.36     -11.78       2.45        0.00      99.21       5.27       1.72       2.70       ----

> <Gold.Chemscore.Fitness>
7.3604

> <Gold.Chemscore.DG>
-11.7843

> <Gold.Chemscore.ZeroCoef>
-5.4800

> <Gold.Chemscore.Hbond>
2.4494

> <Gold.Chemscore.Metal>
0.0000

> <Gold.Chemscore.Lipo>
99.2077

> <Gold.Chemscore.Internal_Hbond>
0.0000

> <Gold.Chemscore.DEClash>
1.7242

> <Gold.Chemscore.DEInternal>
2.6997

> <Gold.Chemscore.Rot>
5.2672

> <Gold.Chemscore.Internal.Correction>
   9.000000E+99

> <Gold.Chemscore.Hbonds>
donor molecule, donor type, donor heavy atom, donor atom, acceptor molecule, acceptor atom, score
      L1  H     7    42       P1  7957  0.99
      L1  H    25    51       P1  7921  0.25
      L1  H    27    52       P1 10747  0.90
      P1  H 10785 10796       L1    23  0.41

> <Gold.Chemscore.Hbond.Weighted>
-8.1809

> <Gold.Chemscore.Metal.Weighted>
-0.0000

> <Gold.Chemscore.Lipo.Weighted>
-11.6073

> <Gold.Chemscore.Internal_Hbond.Weighted>
0.0000

> <Gold.Chemscore.DEClash.Weighted>
1.7242

> <Gold.Chemscore.DEInternal.Weighted>
2.6997

> <Gold.Chemscore.Rot.Weighted>
13.4839

> <Gold.Chemscore.Internal.Correction.Weighted>
   9.000000E+99

> <Gold.Protein.RotatedTorsions>
[ 6907 6896 6895 6894 ] final  132.52 input  -60.11 | X-H torsion
[ 7974 7965 7964 7962 ] final  154.49 input  175.53 | X-H torsion
[ 8008 7997 7996 7995 ] final -169.00 input   59.86 | X-H torsion
[ 10167 10162 10161 10158 ] final  -87.59 input  -65.29 | X-H torsion
[ 10718 10713 10712 10709 ] final  161.83 input   66.30 | X-H torsion
[ 10763 10752 10751 10750 ] final  -83.26 input  -60.55 | X-H torsion
[ 11005 11000 10999 10996 ] final   63.73 input  -57.11 | X-H torsion

> <Gold.Protein.ActiveResidues>
 VAL166  LYS551  ARG553  GLY616  TRP617  ASP618  TYR619  PRO620  LYS621  CYS622 
 ASP623  PHE694  ASN695  SER759  ASP760  ASP761  ALA762  ILE779  LEU786  VAL792 
 PHE793  MET794  SER795  GLU796  ALA797  LYS798  CYS799  TRP800  GLU811  SER814 

> <Gold.Protein.RotatedAtoms>
  152.3315  133.5964  159.5813 H   0  0  0  0  0  0  0  0  0  0  0  0  # atno 6907 bound_to 6896
  150.7426  133.9860  159.3600 H   0  0  0  0  0  0  0  0  0  0  0  0  # atno 6908 bound_to 6896
  151.7734  135.0781  160.0414 H   0  0  0  0  0  0  0  0  0  0  0  0  # atno 6909 bound_to 6896
  144.8085  139.6940  143.6151 H   0  0  0  0  0  0  0  0  0  0  0  0  # atno 7974 bound_to 7965
  155.8990  140.1038  157.1363 H   0  0  0  0  0  0  0  0  0  0  0  0  # atno 8008 bound_to 7997
  154.4024  140.1296  156.4476 H   0  0  0  0  0  0  0  0  0  0  0  0  # atno 8009 bound_to 7997
  155.7445  140.3466  155.5122 H   0  0  0  0  0  0  0  0  0  0  0  0  # atno 8010 bound_to 7997
  140.3829  143.2740  151.9361 H   0  0  0  0  0  0  0  0  0  0  0  0  # atno 10167 bound_to 10162
  157.1310  131.0516  151.2371 H   0  0  0  0  0  0  0  0  0  0  0  0  # atno 10718 bound_to 10713
  154.5856  135.5562  153.7228 H   0  0  0  0  0  0  0  0  0  0  0  0  # atno 10763 bound_to 10752
  153.0097  135.6331  154.1921 H   0  0  0  0  0  0  0  0  0  0  0  0  # atno 10764 bound_to 10752
  154.1861  135.2884  155.3016 H   0  0  0  0  0  0  0  0  0  0  0  0  # atno 10765 bound_to 10752
  140.0005  134.6449  155.9938 H   0  0  0  0  0  0  0  0  0  0  0  0  # atno 11005 bound_to 11000
  146.2381  139.5945  142.9510 LP  0  0  0  0  0  0  0  0  0  0  0  0  # atno 17320 bound_to 7965
  145.5379  141.0423  143.2347 LP  0  0  0  0  0  0  0  0  0  0  0  0  # atno 17321 bound_to 7965
  139.4794  144.5801  151.7947 LP  0  0  0  0  0  0  0  0  0  0  0  0  # atno 17342 bound_to 10162
  140.4918  144.1298  150.5952 LP  0  0  0  0  0  0  0  0  0  0  0  0  # atno 17343 bound_to 10162
  157.4393  130.7535  149.7055 LP  0  0  0  0  0  0  0  0  0  0  0  0  # atno 17370 bound_to 10713
  155.9808  130.4026  150.3508 LP  0  0  0  0  0  0  0  0  0  0  0  0  # atno 17371 bound_to 10713
  141.1638  133.6537  156.4409 LP  0  0  0  0  0  0  0  0  0  0  0  0  # atno 17394 bound_to 11000
  140.4737  134.6730  157.5140 LP  0  0  0  0  0  0  0  0  0  0  0  0  # atno 17395 bound_to 11000

$$$$
