AV-unprocessed.smi:1559|AV-procd|sdf|6274|dock6
  -GOLD-   22720 6463D 1   1.00000     0.00000
 Structure written by MMmdl.
 51 52  0  0  0  0  0  0  0  0  2 V2000
  147.2766  133.2841  152.9790 C   0  0  0  0  0  0  0  0  0  0  0  0
  146.7686  134.2045  151.9288 N   0  3  0  0  0  0  0  0  0  0  0  0
  146.5853  133.4779  150.6457 C   0  0  0  0  0  0  0  0  0  0  0  0
  145.6161  135.0862  152.3356 C   0  0  0  0  0  0  0  0  0  0  0  0
  145.3134  136.1598  151.2642 C   0  0  0  0  0  0  0  0  0  0  0  0
  144.3303  134.2452  152.5325 C   0  0  0  0  0  0  0  0  0  0  0  0
  145.9270  135.8097  153.6795 C   0  0  0  0  0  0  0  0  0  0  0  0
  147.2172  136.5006  153.6945 N   0  0  0  0  0  0  0  0  0  0  0  0
  147.6350  137.3513  154.6428 C   0  0  0  0  0  0  0  0  0  0  0  0
  146.9696  137.6388  155.6370 O   0  0  0  0  0  0  0  0  0  0  0  0
  148.8501  137.8451  154.3510 N   0  0  0  0  0  0  0  0  0  0  0  0
  149.6394  138.7503  155.1103 C   0  0  0  0  0  0  0  0  0  0  0  0
  150.9745  139.0983  154.7999 C   0  0  0  0  0  0  0  0  0  0  0  0
  151.6471  140.0226  155.6218 C   0  0  0  0  0  0  0  0  0  0  0  0
  150.9705  140.5874  156.7287 C   0  0  0  0  0  0  0  0  0  0  0  0
  151.6278  141.5146  157.5664 N   0  0  0  0  0  0  0  0  0  0  0  0
  151.9657  141.0928  158.9247 C   0  0  0  0  0  0  0  0  0  0  0  0
  152.9228  142.1040  159.5776 C   0  0  0  0  0  0  0  0  0  0  0  0
  152.3477  143.4055  159.5341 O   0  0  0  0  0  0  0  0  0  0  0  0
  152.1293  143.8423  158.1969 C   0  0  0  0  0  0  0  0  0  0  0  0
  151.1464  142.8919  157.4911 C   0  0  0  0  0  0  0  0  0  0  0  0
  149.6875  140.2576  157.0168 N   0  0  0  0  0  0  0  0  0  0  0  0
  149.0461  139.3722  156.2265 C   0  0  0  0  0  0  0  0  0  0  0  0
  146.5039  132.5939  153.3181 H   0  0  0  0  0  0  0  0  0  0  0  0
  147.6666  133.8229  153.8416 H   0  0  0  0  0  0  0  0  0  0  0  0
  148.1051  132.6877  152.5953 H   0  0  0  0  0  0  0  0  0  0  0  0
  145.8283  132.6980  150.7316 H   0  0  0  0  0  0  0  0  0  0  0  0
  147.5180  132.9959  150.3509 H   0  0  0  0  0  0  0  0  0  0  0  0
  146.3074  134.1401  149.8275 H   0  0  0  0  0  0  0  0  0  0  0  0
  144.4521  136.7639  151.5525 H   0  0  0  0  0  0  0  0  0  0  0  0
  145.0815  135.7190  150.2950 H   0  0  0  0  0  0  0  0  0  0  0  0
  146.1452  136.8500  151.1238 H   0  0  0  0  0  0  0  0  0  0  0  0
  143.5339  134.8385  152.9836 H   0  0  0  0  0  0  0  0  0  0  0  0
  144.5017  133.3856  153.1809 H   0  0  0  0  0  0  0  0  0  0  0  0
  143.9342  133.8716  151.5879 H   0  0  0  0  0  0  0  0  0  0  0  0
  145.1649  136.5593  153.8928 H   0  0  0  0  0  0  0  0  0  0  0  0
  145.8605  135.1096  154.5146 H   0  0  0  0  0  0  0  0  0  0  0  0
  147.8260  136.3417  152.9050 H   0  0  0  0  0  0  0  0  0  0  0  0
  149.2330  137.5883  153.4528 H   0  0  0  0  0  0  0  0  0  0  0  0
  151.4920  138.6862  153.9476 H   0  0  0  0  0  0  0  0  0  0  0  0
  152.6730  140.2763  155.4006 H   0  0  0  0  0  0  0  0  0  0  0  0
  151.0520  141.0096  159.5145 H   0  0  0  0  0  0  0  0  0  0  0  0
  152.4359  140.1086  158.9097 H   0  0  0  0  0  0  0  0  0  0  0  0
  153.1057  141.8304  160.6167 H   0  0  0  0  0  0  0  0  0  0  0  0
  153.8907  142.1050  159.0737 H   0  0  0  0  0  0  0  0  0  0  0  0
  151.7239  144.8539  158.2166 H   0  0  0  0  0  0  0  0  0  0  0  0
  153.0775  143.8902  157.6589 H   0  0  0  0  0  0  0  0  0  0  0  0
  151.0151  143.2197  156.4611 H   0  0  0  0  0  0  0  0  0  0  0  0
  150.1673  142.9477  157.9684 H   0  0  0  0  0  0  0  0  0  0  0  0
  148.0250  139.1495  156.5003 H   0  0  0  0  0  0  0  0  0  0  0  0
  147.5306  134.8458  151.7605 H   0  0  0  0  0  0  0  0  0  0  0  0
  1  2  1  0  0  0  0
  1 24  1  0  0  0  0
  1 25  1  0  0  0  0
  1 26  1  0  0  0  0
  2  3  1  0  0  0  0
  2  4  1  0  0  0  0
  2 51  1  0  0  0  0
  3 27  1  0  0  0  0
  3 28  1  0  0  0  0
  3 29  1  0  0  0  0
  4  5  1  0  0  0  0
  4  6  1  0  0  0  0
  4  7  1  0  0  0  0
  5 30  1  0  0  0  0
  5 31  1  0  0  0  0
  5 32  1  0  0  0  0
  6 33  1  0  0  0  0
  6 34  1  0  0  0  0
  6 35  1  0  0  0  0
  7  8  1  0  0  0  0
  7 36  1  0  0  0  0
  7 37  1  0  0  0  0
  8  9  1  0  0  0  0
  8 38  1  0  0  0  0
  9 10  2  0  0  0  0
  9 11  1  0  0  0  0
 11 12  1  0  0  0  0
 11 39  1  0  0  0  0
 12 23  1  0  0  0  0
 12 13  2  0  0  0  0
 13 14  1  0  0  0  0
 13 40  1  0  0  0  0
 14 15  2  0  0  0  0
 14 41  1  0  0  0  0
 15 16  1  0  0  0  0
 15 22  1  0  0  0  0
 16 21  1  0  0  0  0
 16 17  1  0  0  0  0
 17 18  1  0  0  0  0
 17 42  1  0  0  0  0
 17 43  1  0  0  0  0
 18 19  1  0  0  0  0
 18 44  1  0  0  0  0
 18 45  1  0  0  0  0
 19 20  1  0  0  0  0
 20 21  1  0  0  0  0
 20 46  1  0  0  0  0
 20 47  1  0  0  0  0
 21 48  1  0  0  0  0
 21 49  1  0  0  0  0
 22 23  2  0  0  0  0
 23 50  1  0  0  0  0
M  CHG  1   2   1
M  END
> <s_m_source_file>
AV-unprocessed.smi

> <i_m_source_file_index>
1559

> <i_lp_mmshare_version>
43012

> <i_f3d_flags>
0

> <s_epik_input>
W0NIM11OKFtDSDNdKUMoW0NIM10pKFtDSDNdKVtDSDJdW05IXUMoPU8pW05IXWMxW2NIXVtjSF1jKG5bY0hdMSlOMltDSDJdW0NIMl1PW0NIMl1bQ0gyXTI=

> <s_epik_cmdline>
J2VwaWtfcHl0aG9uJywgJy1waCcsICc3LjAnLCAnLXRuJywgJzgnLCAnLW1hJywgJzIwMCcsICctbWV0YWxfYmluZGluZycsICctaW1hZScsICc8aW5maWxlLm1hZT4nLCAnLW9tYWUnLCAnPG91dGZpbGUubWFlPic=

> <r_lp_tautomer_probability>
1

> <r_epik_Ionization_Penalty>
0.00606683

> <r_epik_Ionization_Penalty_Charging>
0.00433655

> <r_epik_Ionization_Penalty_Neutral>
0.00173028

> <r_epik_State_Penalty>
-0

> <r_epik_Charging_Adjusted_Penalty>
0.00433655

> <i_epik_Tot_Q>
1

> <i_epik_Tot_abs_Q>
1

> <r_epik_Metal_State_Penalty>
-0

> <b_epik_Metal_Only>
0

> <s_lp_Force_Field>
OPLS_2005

> <r_lp_Energy>
39.7319

> <b_lp_Chiralities_Consistent>
1

> <s_lp_Variant>
AV-unprocessed.smi:1559-1

> <Gold.Version>
5.8.1

> <Gold.Id.Protein>
6NUR|6NUR_protein|mol2

> <Gold.PLP.Fitness>
48.0987

> <Gold.PLP.PLP>
-36.9322

> <Gold.PLP.part.hbond>
-2.9941

> <Gold.PLP.part.metal>
0.0000

> <Gold.PLP.part.buried>
-5.0405

> <Gold.PLP.part.nonpolar>
-30.2033

> <Gold.PLP.part.repulsive>
0.0884

> <Gold.PLP.ligand.clash>
0.0000

> <Gold.PLP.ligand.torsion>
0.3754

> <Gold.PLP.Chemscore.Hbond>
3.8151

> <Gold.PLP.Chemscore.CHOScore>
0.0000

> <Gold.PLP.Chemscore.Metal>
0.0000

> <Gold.Chemscore.Hbonds>
donor molecule, donor type, donor heavy atom, donor atom, acceptor molecule, acceptor atom, score
      L1  H     2    51       P1  7948  2.00
      L1  H     8    38       P1  7948  1.00
      L1  H    11    39       P1  7948  0.74

> <Gold.PLP.Chemscore.Internal.Correction>
0.4720

> <Gold.Rescore>
     Score         DG    S(hbond)    S(metal)    S(lipo)     H(rot)  DE(clash)    DE(int)     intcor
     18.29     -20.26       2.55        0.00      89.52       1.64       0.09       1.88       ----

> <Gold.Chemscore.Fitness>
18.2912

> <Gold.Chemscore.DG>
-20.2581

> <Gold.Chemscore.ZeroCoef>
-5.4800

> <Gold.Chemscore.Hbond>
2.5468

> <Gold.Chemscore.Metal>
0.0000

> <Gold.Chemscore.Lipo>
89.5203

> <Gold.Chemscore.Internal_Hbond>
0.0000

> <Gold.Chemscore.DEClash>
0.0862

> <Gold.Chemscore.DEInternal>
1.8807

> <Gold.Chemscore.Rot>
1.6414

> <Gold.Chemscore.Internal.Correction>
   9.000000E+99

> <Gold.Chemscore.Hbonds>
donor molecule, donor type, donor heavy atom, donor atom, acceptor molecule, acceptor atom, score
      L1  H     2    51       P1  7948  0.65
      L1  H     8    38       P1  7948  0.94
      L1  H    11    39       P1  7948  0.71

> <Gold.Chemscore.Hbond.Weighted>
-8.5063

> <Gold.Chemscore.Metal.Weighted>
-0.0000

> <Gold.Chemscore.Lipo.Weighted>
-10.4739

> <Gold.Chemscore.Internal_Hbond.Weighted>
0.0000

> <Gold.Chemscore.DEClash.Weighted>
0.0862

> <Gold.Chemscore.DEInternal.Weighted>
1.8807

> <Gold.Chemscore.Rot.Weighted>
4.2021

> <Gold.Chemscore.Internal.Correction.Weighted>
   9.000000E+99

> <Gold.Protein.RotatedTorsions>
[ 6907 6896 6895 6894 ] final -112.68 input  -60.11 | X-H torsion
[ 7974 7965 7964 7962 ] final   34.69 input  175.53 | X-H torsion
[ 8008 7997 7996 7995 ] final  139.43 input   59.86 | X-H torsion
[ 10167 10162 10161 10158 ] final   40.35 input  -65.29 | X-H torsion
[ 10718 10713 10712 10709 ] final  140.56 input   66.30 | X-H torsion
[ 10763 10752 10751 10750 ] final -119.63 input  -60.55 | X-H torsion
[ 11005 11000 10999 10996 ] final   35.27 input  -57.11 | X-H torsion

> <Gold.Protein.ActiveResidues>
 VAL166  LYS551  ARG553  GLY616  TRP617  ASP618  TYR619  PRO620  LYS621  CYS622 
 ASP623  PHE694  ASN695  SER759  ASP760  ASP761  ALA762  ILE779  LEU786  VAL792 
 PHE793  MET794  SER795  GLU796  ALA797  LYS798  CYS799  TRP800  GLU811  SER814 

> <Gold.Protein.RotatedAtoms>
  150.7775  133.9054  159.3353 H   0  0  0  0  0  0  0  0  0  0  0  0  # atno 6907 bound_to 6896
  151.6925  135.0942  160.0246 H   0  0  0  0  0  0  0  0  0  0  0  0  # atno 6908 bound_to 6896
  152.3816  133.6516  159.6201 H   0  0  0  0  0  0  0  0  0  0  0  0  # atno 6909 bound_to 6896
  146.1335  139.6237  142.9211 H   0  0  0  0  0  0  0  0  0  0  0  0  # atno 7974 bound_to 7965
  156.2990  140.2368  156.4235 H   0  0  0  0  0  0  0  0  0  0  0  0  # atno 8008 bound_to 7997
  154.8334  140.0432  157.1512 H   0  0  0  0  0  0  0  0  0  0  0  0  # atno 8009 bound_to 7997
  154.9183  140.3000  155.5233 H   0  0  0  0  0  0  0  0  0  0  0  0  # atno 8010 bound_to 7997
  140.3750  144.2055  150.6132 H   0  0  0  0  0  0  0  0  0  0  0  0  # atno 10167 bound_to 10162
  157.4019  131.1018  151.0543 H   0  0  0  0  0  0  0  0  0  0  0  0  # atno 10718 bound_to 10713
  154.8622  135.4231  154.2330 H   0  0  0  0  0  0  0  0  0  0  0  0  # atno 10763 bound_to 10752
  153.3311  135.6988  153.6953 H   0  0  0  0  0  0  0  0  0  0  0  0  # atno 10764 bound_to 10752
  153.5969  135.3544  155.2904 H   0  0  0  0  0  0  0  0  0  0  0  0  # atno 10765 bound_to 10752
  140.2444  134.3377  155.7913 H   0  0  0  0  0  0  0  0  0  0  0  0  # atno 11005 bound_to 11000
  145.5208  141.0432  143.2436 LP  0  0  0  0  0  0  0  0  0  0  0  0  # atno 17320 bound_to 7965
  144.7715  139.6724  143.7192 LP  0  0  0  0  0  0  0  0  0  0  0  0  # atno 17321 bound_to 7965
  140.4995  143.2322  151.8699 LP  0  0  0  0  0  0  0  0  0  0  0  0  # atno 17342 bound_to 10162
  139.4800  144.5075  151.8977 LP  0  0  0  0  0  0  0  0  0  0  0  0  # atno 17343 bound_to 10162
  157.1539  130.6196  149.5590 LP  0  0  0  0  0  0  0  0  0  0  0  0  # atno 17370 bound_to 10713
  155.9825  130.4840  150.6887 LP  0  0  0  0  0  0  0  0  0  0  0  0  # atno 17371 bound_to 10713
  141.2207  133.7317  156.8936 LP  0  0  0  0  0  0  0  0  0  0  0  0  # atno 17394 bound_to 11000
  140.1621  134.9158  157.2728 LP  0  0  0  0  0  0  0  0  0  0  0  0  # atno 17395 bound_to 11000

$$$$
