AV-unprocessed.smi:1709|AV-procd|sdf|6895|dock10
  -GOLD-   22720 8103D 1   1.00000     0.00000
 Structure written by MMmdl.
 43 45  0  0  0  0  0  0  0  0  2 V2000
  149.2946  138.8295  154.0440 C   0  0  0  0  0  0  0  0  0  0  0  0
  150.5889  138.4676  154.7548 C   0  0  0  0  0  0  0  0  0  0  0  0
  151.4055  139.5002  155.2632 C   0  0  0  0  0  0  0  0  0  0  0  0
  152.6032  139.1682  155.9182 C   0  0  0  0  0  0  0  0  0  0  0  0
  152.9366  137.8089  156.0360 C   0  0  0  0  0  0  0  0  0  0  0  0
  152.1624  136.8159  155.5524 N   0  0  0  0  0  0  0  0  0  0  0  0
  150.9976  137.1167  154.9214 C   0  0  0  0  0  0  0  0  0  0  0  0
  150.1255  136.1287  154.3675 N   0  0  0  0  0  0  0  0  0  0  0  0
  149.7391  134.9182  154.8233 C   0  0  0  0  0  0  0  0  0  0  0  0
  150.1478  134.4835  155.8985 O   0  0  0  0  0  0  0  0  0  0  0  0
  148.8925  134.2317  154.0382 N   0  0  0  0  0  0  0  0  0  0  0  0
  148.3180  132.9221  154.3368 C   0  0  2  0  0  0  0  0  0  0  0  0
  149.3379  131.7768  154.1845 C   0  0  0  0  0  0  0  0  0  0  0  0
  148.5667  130.6579  153.4772 C   0  0  0  0  0  0  0  0  0  0  0  0
  147.6280  131.3941  152.6229 N   0  3  1  0  0  0  0  0  0  0  0  0
  146.5381  130.6455  151.9649 C   0  0  0  0  0  0  0  0  0  0  0  0
  145.8101  131.5970  150.9912 C   0  0  0  0  0  0  0  0  0  0  0  0
  145.3601  132.9055  151.6793 C   0  0  0  0  0  0  0  0  0  0  0  0
  146.5164  133.5720  152.4553 C   0  0  0  0  0  0  0  0  0  0  0  0
  147.1394  132.5383  153.4113 C   0  0  2  0  0  0  0  0  0  0  0  0
  149.1274  139.9070  154.0470 H   0  0  0  0  0  0  0  0  0  0  0  0
  148.4428  138.3582  154.5352 H   0  0  0  0  0  0  0  0  0  0  0  0
  149.3241  138.4974  153.0059 H   0  0  0  0  0  0  0  0  0  0  0  0
  151.1201  140.5363  155.1536 H   0  0  0  0  0  0  0  0  0  0  0  0
  153.2492  139.9355  156.3187 H   0  0  0  0  0  0  0  0  0  0  0  0
  153.8484  137.5090  156.5306 H   0  0  0  0  0  0  0  0  0  0  0  0
  149.7765  136.3564  153.4477 H   0  0  0  0  0  0  0  0  0  0  0  0
  148.6110  134.6666  153.1704 H   0  0  0  0  0  0  0  0  0  0  0  0
  147.9601  132.9175  155.3683 H   0  0  0  0  0  0  0  0  0  0  0  0
  150.1702  132.0922  153.5530 H   0  0  0  0  0  0  0  0  0  0  0  0
  149.7544  131.4550  155.1395 H   0  0  0  0  0  0  0  0  0  0  0  0
  149.2152  129.9992  152.8986 H   0  0  0  0  0  0  0  0  0  0  0  0
  148.0139  130.0552  154.1996 H   0  0  0  0  0  0  0  0  0  0  0  0
  146.9506  129.7948  151.4216 H   0  0  0  0  0  0  0  0  0  0  0  0
  145.8486  130.2502  152.7124 H   0  0  0  0  0  0  0  0  0  0  0  0
  146.4800  131.8431  150.1662 H   0  0  0  0  0  0  0  0  0  0  0  0
  144.9509  131.0933  150.5473 H   0  0  0  0  0  0  0  0  0  0  0  0
  144.9575  133.5980  150.9396 H   0  0  0  0  0  0  0  0  0  0  0  0
  144.5444  132.6854  152.3689 H   0  0  0  0  0  0  0  0  0  0  0  0
  147.2668  133.9473  151.7581 H   0  0  0  0  0  0  0  0  0  0  0  0
  146.1399  134.4309  153.0111 H   0  0  0  0  0  0  0  0  0  0  0  0
  146.3464  132.1693  154.0656 H   0  0  0  0  0  0  0  0  0  0  0  0
  148.1917  131.7878  151.8832 H   0  0  0  0  0  0  0  0  0  0  0  0
  1  2  1  0  0  0  0
  1 21  1  0  0  0  0
  1 22  1  0  0  0  0
  1 23  1  0  0  0  0
  2  7  1  0  0  0  0
  2  3  2  0  0  0  0
  3  4  1  0  0  0  0
  3 24  1  0  0  0  0
  4  5  2  0  0  0  0
  4 25  1  0  0  0  0
  5  6  1  0  0  0  0
  5 26  1  0  0  0  0
  6  7  2  0  0  0  0
  7  8  1  0  0  0  0
  8  9  1  0  0  0  0
  8 27  1  0  0  0  0
  9 10  2  0  0  0  0
  9 11  1  0  0  0  0
 11 12  1  0  0  0  0
 11 28  1  0  0  0  0
 12 20  1  0  0  0  0
 12 13  1  0  0  0  0
 12 29  1  0  0  0  0
 13 14  1  0  0  0  0
 13 30  1  0  0  0  0
 13 31  1  0  0  0  0
 14 15  1  0  0  0  0
 14 32  1  0  0  0  0
 14 33  1  0  0  0  0
 15 20  1  0  0  0  0
 15 16  1  0  0  0  0
 15 43  1  0  0  0  0
 16 17  1  0  0  0  0
 16 34  1  0  0  0  0
 16 35  1  0  0  0  0
 17 18  1  0  0  0  0
 17 36  1  0  0  0  0
 17 37  1  0  0  0  0
 18 19  1  0  0  0  0
 18 38  1  0  0  0  0
 18 39  1  0  0  0  0
 19 20  1  0  0  0  0
 19 40  1  0  0  0  0
 19 41  1  0  0  0  0
 20 42  1  0  0  0  0
M  CHG  1  15   1
M  END
> <s_m_source_file>
AV-unprocessed.smi

> <i_m_source_file_index>
1709

> <i_lp_mmshare_version>
43012

> <i_f3d_flags>
0

> <s_epik_input>
W0NIM11jMVtjSF1bY0hdW2NIXW5jMVtOSF1DKD1PKVtOSF1bQ0BIXShbQ0gyXVtDSDJdMilbQ0BASF0oTjIzKVtDSDJdW0NIMl1bQ0gyXVtDSDJdMw==

> <s_epik_cmdline>
J2VwaWtfcHl0aG9uJywgJy1waCcsICc3LjAnLCAnLXRuJywgJzgnLCAnLW1hJywgJzIwMCcsICctbWV0YWxfYmluZGluZycsICctaW1hZScsICc8aW5maWxlLm1hZT4nLCAnLW9tYWUnLCAnPG91dGZpbGUubWFlPic=

> <r_epik_Ionization_Penalty>
0.00101524

> <r_epik_Ionization_Penalty_Charging>
0.000974069

> <r_epik_Ionization_Penalty_Neutral>
4.11757e-05

> <r_epik_State_Penalty>
0.000633842

> <r_epik_Charging_Adjusted_Penalty>
0.00160791

> <i_epik_Tot_Q>
1

> <i_epik_Tot_abs_Q>
1

> <r_epik_Metal_State_Penalty>
-0

> <b_epik_Metal_Only>
0

> <s_lp_Force_Field>
OPLS_2005

> <r_lp_Energy>
46.0593

> <b_lp_Chiralities_Consistent>
1

> <s_lp_Variant>
AV-unprocessed.smi:1709-5

> <Gold.Version>
5.8.1

> <Gold.Id.Protein>
6NUR|6NUR_protein|mol2

> <Gold.PLP.Fitness>
42.9775

> <Gold.PLP.PLP>
-33.5415

> <Gold.PLP.part.hbond>
-4.7245

> <Gold.PLP.part.metal>
0.0000

> <Gold.PLP.part.buried>
0.4229

> <Gold.PLP.part.nonpolar>
-29.3834

> <Gold.PLP.part.repulsive>
0.1269

> <Gold.PLP.ligand.clash>
0.0000

> <Gold.PLP.ligand.torsion>
0.4710

> <Gold.PLP.Chemscore.Hbond>
3.4591

> <Gold.PLP.Chemscore.CHOScore>
0.0000

> <Gold.PLP.Chemscore.Metal>
0.0000

> <Gold.Chemscore.Hbonds>
donor molecule, donor type, donor heavy atom, donor atom, acceptor molecule, acceptor atom, score
      L1  H     8    27       P1  7948  0.95
      L1  H    11    28       P1  7948  0.91
      L1  H    15    43       P1 10747  0.58
      P1  H 10752 10763       L1     6  0.98

> <Gold.PLP.Chemscore.Internal.Correction>
0.0006

> <Gold.Rescore>
     Score         DG    S(hbond)    S(metal)    S(lipo)     H(rot)  DE(clash)    DE(int)     intcor
     16.99     -18.41       1.99        0.00      75.43       1.00       0.04       1.37       ----

> <Gold.Chemscore.Fitness>
16.9932

> <Gold.Chemscore.DG>
-18.4072

> <Gold.Chemscore.ZeroCoef>
-5.4800

> <Gold.Chemscore.Hbond>
1.9946

> <Gold.Chemscore.Metal>
0.0000

> <Gold.Chemscore.Lipo>
75.4278

> <Gold.Chemscore.Internal_Hbond>
0.0000

> <Gold.Chemscore.DEClash>
0.0423

> <Gold.Chemscore.DEInternal>
1.3717

> <Gold.Chemscore.Rot>
1.0000

> <Gold.Chemscore.Internal.Correction>
   9.000000E+99

> <Gold.Chemscore.Hbonds>
donor molecule, donor type, donor heavy atom, donor atom, acceptor molecule, acceptor atom, score
      L1  H     8    27       P1  7948  0.22
      L1  H    11    28       P1  7948  0.29
      L1  H    15    43       P1 10747  0.55
      P1  H 10752 10763       L1     6  0.74

> <Gold.Chemscore.Hbond.Weighted>
-6.6621

> <Gold.Chemscore.Metal.Weighted>
-0.0000

> <Gold.Chemscore.Lipo.Weighted>
-8.8251

> <Gold.Chemscore.Internal_Hbond.Weighted>
0.0000

> <Gold.Chemscore.DEClash.Weighted>
0.0423

> <Gold.Chemscore.DEInternal.Weighted>
1.3717

> <Gold.Chemscore.Rot.Weighted>
2.5600

> <Gold.Chemscore.Internal.Correction.Weighted>
   9.000000E+99

> <Gold.Protein.RotatedTorsions>
[ 6907 6896 6895 6894 ] final   88.37 input  -60.11 | X-H torsion
[ 7974 7965 7964 7962 ] final   45.05 input  175.53 | X-H torsion
[ 8008 7997 7996 7995 ] final  140.17 input   59.86 | X-H torsion
[ 10167 10162 10161 10158 ] final  175.32 input  -65.29 | X-H torsion
[ 10718 10713 10712 10709 ] final -174.15 input   66.30 | X-H torsion
[ 10763 10752 10751 10750 ] final   79.72 input  -60.55 | X-H torsion
[ 11005 11000 10999 10996 ] final  -51.67 input  -57.11 | X-H torsion

> <Gold.Protein.ActiveResidues>
 VAL166  LYS551  ARG553  GLY616  TRP617  ASP618  TYR619  PRO620  LYS621  CYS622 
 ASP623  PHE694  ASN695  SER759  ASP760  ASP761  ALA762  ILE779  LEU786  VAL792 
 PHE793  MET794  SER795  GLU796  ALA797  LYS798  CYS799  TRP800  GLU811  SER814 

> <Gold.Protein.RotatedAtoms>
  152.5424  134.2133  159.8758 H   0  0  0  0  0  0  0  0  0  0  0  0  # atno 6907 bound_to 6896
  151.2114  133.4547  159.2606 H   0  0  0  0  0  0  0  0  0  0  0  0  # atno 6908 bound_to 6896
  151.0893  134.9919  159.8450 H   0  0  0  0  0  0  0  0  0  0  0  0  # atno 6909 bound_to 6896
  146.0515  139.5007  142.9715 H   0  0  0  0  0  0  0  0  0  0  0  0  # atno 7974 bound_to 7965
  156.2982  140.2348  156.4358 H   0  0  0  0  0  0  0  0  0  0  0  0  # atno 8008 bound_to 7997
  154.8230  140.0437  157.1444 H   0  0  0  0  0  0  0  0  0  0  0  0  # atno 8009 bound_to 7997
  154.9293  140.3014  155.5179 H   0  0  0  0  0  0  0  0  0  0  0  0  # atno 8010 bound_to 7997
  139.5173  144.3044  152.0349 H   0  0  0  0  0  0  0  0  0  0  0  0  # atno 10167 bound_to 10162
  156.7809  130.9483  151.3120 H   0  0  0  0  0  0  0  0  0  0  0  0  # atno 10718 bound_to 10713
  153.0975  135.4829  154.8806 H   0  0  0  0  0  0  0  0  0  0  0  0  # atno 10763 bound_to 10752
  154.7342  135.3067  154.8843 H   0  0  0  0  0  0  0  0  0  0  0  0  # atno 10764 bound_to 10752
  153.9470  135.6827  153.4797 H   0  0  0  0  0  0  0  0  0  0  0  0  # atno 10765 bound_to 10752
  141.0884  133.6638  156.3912 H   0  0  0  0  0  0  0  0  0  0  0  0  # atno 11005 bound_to 11000
  145.6716  141.0215  143.1654 LP  0  0  0  0  0  0  0  0  0  0  0  0  # atno 17320 bound_to 7965
  144.7125  139.8318  143.7410 LP  0  0  0  0  0  0  0  0  0  0  0  0  # atno 17321 bound_to 7965
  140.2491  144.4188  150.6229 LP  0  0  0  0  0  0  0  0  0  0  0  0  # atno 17342 bound_to 10162
  140.6237  143.2179  151.6640 LP  0  0  0  0  0  0  0  0  0  0  0  0  # atno 17343 bound_to 10162
  157.6647  130.8997  149.9905 LP  0  0  0  0  0  0  0  0  0  0  0  0  # atno 17370 bound_to 10713
  156.1219  130.3645  149.9874 LP  0  0  0  0  0  0  0  0  0  0  0  0  # atno 17371 bound_to 10713
  140.5310  134.6212  157.5350 LP  0  0  0  0  0  0  0  0  0  0  0  0  # atno 17394 bound_to 11000
  139.9705  134.7300  156.0051 LP  0  0  0  0  0  0  0  0  0  0  0  0  # atno 17395 bound_to 11000

$$$$
