AV-unprocessed.smi:3019|AV-procd|sdf|11487|dock4
  -GOLD-   2272016423D 1   1.00000     0.00000
 Structure written by MMmdl.
 31 32  0  0  0  0  0  0  0  0  2 V2000
  154.4641  140.4345  160.6298 C   0  0  0  0  0  0  0  0  0  0  0  0
  153.6031  141.6141  160.1545 C   0  0  0  0  0  0  0  0  0  0  0  0
  152.7473  142.2212  161.2762 C   0  0  0  0  0  0  0  0  0  0  0  0
  152.7743  141.2497  158.9610 C   0  0  0  0  0  0  0  0  0  0  0  0
  152.9339  140.0818  158.3395 N   0  0  0  0  0  0  0  0  0  0  0  0
  152.0179  140.1595  157.3516 N   0  0  0  0  0  0  0  0  0  0  0  0
  151.3778  141.3281  157.4325 C   0  0  0  0  0  0  0  0  0  0  0  0
  150.3054  141.7210  156.4661 C   0  0  2  0  0  0  0  0  0  0  0  0
  148.9223  141.8347  157.1358 C   0  0  0  0  0  0  0  0  0  0  0  0
  147.8913  142.1214  156.1193 N   0  3  0  0  0  0  0  0  0  0  0  0
  147.9093  141.1206  155.0339 C   0  0  0  0  0  0  0  0  0  0  0  0
  149.3213  141.0183  154.4305 C   0  0  0  0  0  0  0  0  0  0  0  0
  150.2618  140.7162  155.4558 O   0  0  0  0  0  0  0  0  0  0  0  0
  151.8163  142.0762  158.4400 N   0  0  0  0  0  0  0  0  0  0  0  0
  151.8718  139.4214  156.6779 H   0  0  0  0  0  0  0  0  0  0  0  0
  155.1104  140.0726  159.8293 H   0  0  0  0  0  0  0  0  0  0  0  0
  153.8457  139.6001  160.9623 H   0  0  0  0  0  0  0  0  0  0  0  0
  155.1033  140.7267  161.4632 H   0  0  0  0  0  0  0  0  0  0  0  0
  154.2979  142.3951  159.8410 H   0  0  0  0  0  0  0  0  0  0  0  0
  152.2057  143.1002  160.9253 H   0  0  0  0  0  0  0  0  0  0  0  0
  153.3668  142.5301  162.1183 H   0  0  0  0  0  0  0  0  0  0  0  0
  152.0146  141.5048  161.6487 H   0  0  0  0  0  0  0  0  0  0  0  0
  150.5810  142.6751  156.0121 H   0  0  0  0  0  0  0  0  0  0  0  0
  148.6668  140.9050  157.6466 H   0  0  0  0  0  0  0  0  0  0  0  0
  148.9204  142.6256  157.8864 H   0  0  0  0  0  0  0  0  0  0  0  0
  146.9802  142.1268  156.5561 H   0  0  0  0  0  0  0  0  0  0  0  0
  147.5992  140.1537  155.4326 H   0  0  0  0  0  0  0  0  0  0  0  0
  147.1841  141.4010  154.2697 H   0  0  0  0  0  0  0  0  0  0  0  0
  149.3530  140.2299  153.6781 H   0  0  0  0  0  0  0  0  0  0  0  0
  149.5997  141.9473  153.9302 H   0  0  0  0  0  0  0  0  0  0  0  0
  148.0715  143.0326  155.7225 H   0  0  0  0  0  0  0  0  0  0  0  0
  1  2  1  0  0  0  0
  1 16  1  0  0  0  0
  1 17  1  0  0  0  0
  1 18  1  0  0  0  0
  2  3  1  0  0  0  0
  2  4  1  0  0  0  0
  2 19  1  0  0  0  0
  3 20  1  0  0  0  0
  3 21  1  0  0  0  0
  3 22  1  0  0  0  0
  4 14  1  0  0  0  0
  4  5  2  0  0  0  0
  5  6  1  0  0  0  0
  6 15  1  0  0  0  0
  6  7  1  0  0  0  0
  7  8  1  0  0  0  0
  7 14  2  0  0  0  0
  8 13  1  0  0  0  0
  8  9  1  0  0  0  0
  8 23  1  0  0  0  0
  9 10  1  0  0  0  0
  9 24  1  0  0  0  0
  9 25  1  0  0  0  0
 10 11  1  0  0  0  0
 10 26  1  0  0  0  0
 10 31  1  0  0  0  0
 11 12  1  0  0  0  0
 11 27  1  0  0  0  0
 11 28  1  0  0  0  0
 12 13  1  0  0  0  0
 12 29  1  0  0  0  0
 12 30  1  0  0  0  0
M  CHG  1  10   1
M  END
> <s_m_source_file>
AV-unprocessed.smi

> <i_m_source_file_index>
3019

> <i_lp_mmshare_version>
43012

> <i_f3d_flags>
0

> <s_epik_input>
W0NIM11bQ0hdKFtDSDNdKWMxbltuSF1jKG4xKVtDQEBIXTJbQ0gyXVtOSF1bQ0gyXVtDSDJdTzI=

> <s_epik_cmdline>
J2VwaWtfcHl0aG9uJywgJy1waCcsICc3LjAnLCAnLXRuJywgJzgnLCAnLW1hJywgJzIwMCcsICctbWV0YWxfYmluZGluZycsICctaW1hZScsICc8aW5maWxlLm1hZT4nLCAnLW9tYWUnLCAnPG91dGZpbGUubWFlPic=

> <r_epik_Ionization_Penalty>
0.162344

> <r_epik_Ionization_Penalty_Charging>
0.125708

> <r_epik_Ionization_Penalty_Neutral>
0.0366363

> <r_epik_State_Penalty>
1.18286

> <r_epik_Charging_Adjusted_Penalty>
1.30856

> <i_epik_Tot_Q>
1

> <i_epik_Tot_abs_Q>
1

> <r_epik_Metal_State_Penalty>
1.49333

> <b_epik_Metal_Only>
0

> <s_lp_Force_Field>
OPLS_2005

> <r_lp_Energy>
8.53585

> <b_lp_Chiralities_Consistent>
1

> <s_lp_Variant>
AV-unprocessed.smi:3019-3

> <Gold.Version>
5.8.1

> <Gold.Id.Protein>
6NUR|6NUR_protein|mol2

> <Gold.PLP.Fitness>
33.7000

> <Gold.PLP.PLP>
-25.4147

> <Gold.PLP.part.hbond>
-2.3739

> <Gold.PLP.part.metal>
0.0000

> <Gold.PLP.part.buried>
-2.7091

> <Gold.PLP.part.nonpolar>
-20.4883

> <Gold.PLP.part.repulsive>
0.2113

> <Gold.PLP.ligand.clash>
0.0000

> <Gold.PLP.ligand.torsion>
0.3271

> <Gold.PLP.Chemscore.Hbond>
2.9600

> <Gold.PLP.Chemscore.CHOScore>
0.0000

> <Gold.PLP.Chemscore.Metal>
0.0000

> <Gold.Chemscore.Hbonds>
donor molecule, donor type, donor heavy atom, donor atom, acceptor molecule, acceptor atom, score
      L1  H    10    31       P1  8028  2.00
      P1  H  7997  8009       L1     5  0.67

> <Gold.PLP.Chemscore.Internal.Correction>
0.0595

> <Gold.Rescore>
     Score         DG    S(hbond)    S(metal)    S(lipo)     H(rot)  DE(clash)    DE(int)     intcor
     12.21     -12.73       1.20        0.00      55.63       1.28       0.05       0.47       ----

> <Gold.Chemscore.Fitness>
12.2052

> <Gold.Chemscore.DG>
-12.7297

> <Gold.Chemscore.ZeroCoef>
-5.4800

> <Gold.Chemscore.Hbond>
1.2025

> <Gold.Chemscore.Metal>
0.0000

> <Gold.Chemscore.Lipo>
55.6300

> <Gold.Chemscore.Internal_Hbond>
0.0000

> <Gold.Chemscore.DEClash>
0.0511

> <Gold.Chemscore.DEInternal>
0.4734

> <Gold.Chemscore.Rot>
1.2795

> <Gold.Chemscore.Internal.Correction>
   9.000000E+99

> <Gold.Chemscore.Hbonds>
donor molecule, donor type, donor heavy atom, donor atom, acceptor molecule, acceptor atom, score
      L1  H    10    31       P1  8028  0.77
      P1  H  7997  8009       L1     5  0.10

> <Gold.Chemscore.Hbond.Weighted>
-4.0164

> <Gold.Chemscore.Metal.Weighted>
-0.0000

> <Gold.Chemscore.Lipo.Weighted>
-6.5087

> <Gold.Chemscore.Internal_Hbond.Weighted>
0.0000

> <Gold.Chemscore.DEClash.Weighted>
0.0511

> <Gold.Chemscore.DEInternal.Weighted>
0.4734

> <Gold.Chemscore.Rot.Weighted>
3.2754

> <Gold.Chemscore.Internal.Correction.Weighted>
   9.000000E+99

> <Gold.Protein.RotatedTorsions>
[ 6907 6896 6895 6894 ] final  170.61 input  -60.11 | X-H torsion
[ 7974 7965 7964 7962 ] final   75.65 input  175.53 | X-H torsion
[ 8008 7997 7996 7995 ] final  147.19 input   59.86 | X-H torsion
[ 10167 10162 10161 10158 ] final  -33.12 input  -65.29 | X-H torsion
[ 10718 10713 10712 10709 ] final  165.11 input   66.30 | X-H torsion
[ 10763 10752 10751 10750 ] final  157.00 input  -60.55 | X-H torsion
[ 11005 11000 10999 10996 ] final  129.14 input  -57.11 | X-H torsion

> <Gold.Protein.ActiveResidues>
 VAL166  LYS551  ARG553  GLY616  TRP617  ASP618  TYR619  PRO620  LYS621  CYS622 
 ASP623  PHE694  ASN695  SER759  ASP760  ASP761  ALA762  ILE779  LEU786  VAL792 
 PHE793  MET794  SER795  GLU796  ALA797  LYS798  CYS799  TRP800  GLU811  SER814 

> <Gold.Protein.RotatedAtoms>
  151.8133  133.3384  159.3561 H   0  0  0  0  0  0  0  0  0  0  0  0  # atno 6907 bound_to 6896
  150.7319  134.5643  159.5867 H   0  0  0  0  0  0  0  0  0  0  0  0  # atno 6908 bound_to 6896
  152.3059  134.7557  160.0398 H   0  0  0  0  0  0  0  0  0  0  0  0  # atno 6909 bound_to 6896
  145.7128  139.2621  143.1640 H   0  0  0  0  0  0  0  0  0  0  0  0  # atno 7974 bound_to 7965
  156.2832  140.2162  156.5498 H   0  0  0  0  0  0  0  0  0  0  0  0  # atno 8008 bound_to 7997
  154.7300  140.0496  157.0740 H   0  0  0  0  0  0  0  0  0  0  0  0  # atno 8009 bound_to 7997
  155.0366  140.3141  155.4742 H   0  0  0  0  0  0  0  0  0  0  0  0  # atno 8010 bound_to 7997
  140.7210  143.3644  151.1900 H   0  0  0  0  0  0  0  0  0  0  0  0  # atno 10167 bound_to 10162
  157.0848  131.0402  151.2561 H   0  0  0  0  0  0  0  0  0  0  0  0  # atno 10718 bound_to 10713
  154.1933  135.2794  155.3015 H   0  0  0  0  0  0  0  0  0  0  0  0  # atno 10763 bound_to 10752
  154.5912  135.5559  153.7283 H   0  0  0  0  0  0  0  0  0  0  0  0  # atno 10764 bound_to 10752
  153.0107  135.6368  154.2071 H   0  0  0  0  0  0  0  0  0  0  0  0  # atno 10765 bound_to 10752
  139.9599  134.9605  156.9104 H   0  0  0  0  0  0  0  0  0  0  0  0  # atno 11005 bound_to 11000
  146.0696  140.7883  142.9694 LP  0  0  0  0  0  0  0  0  0  0  0  0  # atno 17320 bound_to 7965
  144.6937  140.3322  143.7214 LP  0  0  0  0  0  0  0  0  0  0  0  0  # atno 17321 bound_to 7965
  139.7202  143.9235  152.2982 LP  0  0  0  0  0  0  0  0  0  0  0  0  # atno 17342 bound_to 10162
  139.8989  144.6923  150.8687 LP  0  0  0  0  0  0  0  0  0  0  0  0  # atno 17343 bound_to 10162
  157.4770  130.7742  149.7378 LP  0  0  0  0  0  0  0  0  0  0  0  0  # atno 17370 bound_to 10713
  155.9914  130.3938  150.2987 LP  0  0  0  0  0  0  0  0  0  0  0  0  # atno 17371 bound_to 10713
  140.5524  134.0614  155.7373 LP  0  0  0  0  0  0  0  0  0  0  0  0  # atno 17394 bound_to 11000
  141.1275  133.9358  157.2605 LP  0  0  0  0  0  0  0  0  0  0  0  0  # atno 17395 bound_to 11000

$$$$
