AV-unprocessed.smi:280|AV-procd|sdf|2097|dock8
  -GOLD-   2262021383D 1   1.00000     0.00000
 Structure written by MMmdl.
 59 62  0  0  0  0  0  0  0  0  2 V2000
  146.5772  138.9035  151.5367 C   0  0  0  0  0  0  0  0  0  0  0  0
  146.9310  138.7291  153.0276 C   0  0  2  0  0  0  0  0  0  0  0  0
  148.3179  139.3762  153.2691 C   0  0  0  0  0  0  0  0  0  0  0  0
  148.8286  139.1361  154.6157 N   0  0  0  0  0  0  0  0  0  0  0  0
  148.5019  139.9974  155.6163 C   0  0  0  0  0  0  0  0  0  0  0  0
  147.2075  140.1106  156.0174 N   0  0  0  0  0  0  0  0  0  0  0  0
  146.8751  140.9412  157.0096 C   0  0  0  0  0  0  0  0  0  0  0  0
  147.6656  141.7401  157.7273 N   0  0  0  0  0  0  0  0  0  0  0  0
  148.9653  141.6403  157.3269 C   0  0  0  0  0  0  0  0  0  0  0  0
  149.4637  140.8079  156.2845 C   0  0  0  0  0  0  0  0  0  0  0  0
  150.8331  140.9984  156.1448 N   0  0  0  0  0  0  0  0  0  0  0  0
  151.1285  141.8809  157.0591 C   0  0  0  0  0  0  0  0  0  0  0  0
  150.0701  142.3060  157.8307 N   0  0  0  0  0  0  0  0  0  0  0  0
  150.1120  143.2758  158.9170 C   0  0  0  0  0  0  0  0  0  0  0  0
  151.5353  143.6866  159.3678 C   0  0  0  0  0  0  0  0  0  0  0  0
  152.2841  142.4163  159.7935 C   0  0  0  0  0  0  0  0  0  0  0  0
  153.6688  142.6602  159.9353 O   0  0  0  0  0  0  0  0  0  0  0  0
  152.3131  144.6649  158.4701 C   0  0  0  0  0  0  0  0  0  0  0  0
  151.9818  145.7858  159.3167 O   0  0  0  0  0  0  0  0  0  0  0  0
  151.6187  144.8585  160.3610 C   0  0  0  0  0  0  0  0  0  0  0  0
  148.8722  137.7240  154.9693 C   0  0  0  0  0  0  0  0  0  0  0  0
  147.4761  137.1030  154.8298 C   0  0  0  0  0  0  0  0  0  0  0  0
  146.9139  137.2959  153.4638 N   0  3  1  0  0  0  0  0  0  0  0  0
  145.5901  136.6203  153.3286 C   0  0  0  0  0  0  0  0  0  0  0  0
  145.5870  135.5075  152.2519 C   0  0  0  0  0  0  0  0  0  0  0  0
  144.3630  134.5952  152.4408 C   0  0  0  0  0  0  0  0  0  0  0  0
  145.6156  136.0618  150.8160 C   0  0  0  0  0  0  0  0  0  0  0  0
  146.7279  134.6920  152.4305 O   0  0  0  0  0  0  0  0  0  0  0  0
  146.6514  139.9517  151.2455 H   0  0  0  0  0  0  0  0  0  0  0  0
  145.5631  138.5896  151.2959 H   0  0  0  0  0  0  0  0  0  0  0  0
  147.2609  138.3419  150.8994 H   0  0  0  0  0  0  0  0  0  0  0  0
  146.1874  139.2611  153.6225 H   0  0  0  0  0  0  0  0  0  0  0  0
  149.0413  138.9557  152.5692 H   0  0  0  0  0  0  0  0  0  0  0  0
  148.2887  140.4457  153.0558 H   0  0  0  0  0  0  0  0  0  0  0  0
  145.8264  140.9679  157.2664 H   0  0  0  0  0  0  0  0  0  0  0  0
  152.1359  142.2459  157.1961 H   0  0  0  0  0  0  0  0  0  0  0  0
  149.5514  144.1546  158.5954 H   0  0  0  0  0  0  0  0  0  0  0  0
  149.5479  142.8559  159.7504 H   0  0  0  0  0  0  0  0  0  0  0  0
  151.9117  142.0449  160.7489 H   0  0  0  0  0  0  0  0  0  0  0  0
  152.1395  141.6129  159.0705 H   0  0  0  0  0  0  0  0  0  0  0  0
  153.8040  143.5926  160.0099 H   0  0  0  0  0  0  0  0  0  0  0  0
  153.3890  144.4826  158.4493 H   0  0  0  0  0  0  0  0  0  0  0  0
  151.9259  144.7657  157.4578 H   0  0  0  0  0  0  0  0  0  0  0  0
  150.6795  145.1118  160.8502 H   0  0  0  0  0  0  0  0  0  0  0  0
  152.4151  144.7578  161.1002 H   0  0  0  0  0  0  0  0  0  0  0  0
  149.5732  137.2193  154.3033 H   0  0  0  0  0  0  0  0  0  0  0  0
  149.2445  137.5656  155.9804 H   0  0  0  0  0  0  0  0  0  0  0  0
  147.5323  136.0400  155.0636 H   0  0  0  0  0  0  0  0  0  0  0  0
  146.8047  137.5513  155.5642 H   0  0  0  0  0  0  0  0  0  0  0  0
  145.2852  136.2013  154.2894 H   0  0  0  0  0  0  0  0  0  0  0  0
  144.8059  137.3389  153.0968 H   0  0  0  0  0  0  0  0  0  0  0  0
  143.4340  135.1511  152.3095 H   0  0  0  0  0  0  0  0  0  0  0  0
  144.3434  134.1530  153.4378 H   0  0  0  0  0  0  0  0  0  0  0  0
  144.3589  133.7773  151.7194 H   0  0  0  0  0  0  0  0  0  0  0  0
  144.7522  136.6987  150.6218 H   0  0  0  0  0  0  0  0  0  0  0  0
  145.5977  135.2561  150.0809 H   0  0  0  0  0  0  0  0  0  0  0  0
  146.5132  136.6510  150.6259 H   0  0  0  0  0  0  0  0  0  0  0  0
  147.4978  135.2005  152.2239 H   0  0  0  0  0  0  0  0  0  0  0  0
  147.5390  136.8126  152.8349 H   0  0  0  0  0  0  0  0  0  0  0  0
  1  2  1  0  0  0  0
  1 29  1  0  0  0  0
  1 30  1  0  0  0  0
  1 31  1  0  0  0  0
  2 23  1  0  0  0  0
  2  3  1  0  0  0  0
  2 32  1  0  0  0  0
  3  4  1  0  0  0  0
  3 33  1  0  0  0  0
  3 34  1  0  0  0  0
  4  5  1  0  0  0  0
  4 21  1  0  0  0  0
  5 10  1  0  0  0  0
  5  6  2  0  0  0  0
  6  7  1  0  0  0  0
  7  8  2  0  0  0  0
  7 35  1  0  0  0  0
  8  9  1  0  0  0  0
  9 13  1  0  0  0  0
  9 10  2  0  0  0  0
 10 11  1  0  0  0  0
 11 12  2  0  0  0  0
 12 13  1  0  0  0  0
 12 36  1  0  0  0  0
 13 14  1  0  0  0  0
 14 15  1  0  0  0  0
 14 37  1  0  0  0  0
 14 38  1  0  0  0  0
 15 20  1  0  0  0  0
 15 16  1  0  0  0  0
 15 18  1  0  0  0  0
 16 17  1  0  0  0  0
 16 39  1  0  0  0  0
 16 40  1  0  0  0  0
 17 41  1  0  0  0  0
 18 19  1  0  0  0  0
 18 42  1  0  0  0  0
 18 43  1  0  0  0  0
 19 20  1  0  0  0  0
 20 44  1  0  0  0  0
 20 45  1  0  0  0  0
 21 22  1  0  0  0  0
 21 46  1  0  0  0  0
 21 47  1  0  0  0  0
 22 23  1  0  0  0  0
 22 48  1  0  0  0  0
 22 49  1  0  0  0  0
 23 24  1  0  0  0  0
 23 59  1  0  0  0  0
 24 25  1  0  0  0  0
 24 50  1  0  0  0  0
 24 51  1  0  0  0  0
 25 26  1  0  0  0  0
 25 27  1  0  0  0  0
 25 28  1  0  0  0  0
 26 52  1  0  0  0  0
 26 53  1  0  0  0  0
 26 54  1  0  0  0  0
 27 55  1  0  0  0  0
 27 56  1  0  0  0  0
 27 57  1  0  0  0  0
 28 58  1  0  0  0  0
M  CHG  1  23   1
M  END
> <s_m_source_file>
AV-unprocessed.smi

> <i_m_source_file_index>
280

> <i_lp_mmshare_version>
43012

> <i_f3d_flags>
0

> <s_epik_input>
W0NIM11DKFtDSDNdKShbT0hdKVtDSDJdTjFbQ0gyXVtDSDJdTihbQ0gyXVtDQEhdMVtDSDNdKWMobltjSF1uMiljKGMyMyluW2NIXW4zW0NIMl1DNChbQ0gyXVtPSF0pW0NIMl1PW0NIMl00

> <s_epik_cmdline>
J2VwaWtfcHl0aG9uJywgJy1waCcsICc3LjAnLCAnLXRuJywgJzgnLCAnLW1hJywgJzIwMCcsICctbWV0YWxfYmluZGluZycsICctaW1hZScsICc8aW5maWxlLm1hZT4nLCAnLW9tYWUnLCAnPG91dGZpbGUubWFlPic=

> <r_lp_tautomer_probability>
1

> <r_epik_Ionization_Penalty>
0.00179402

> <r_epik_Ionization_Penalty_Charging>
0.00173996

> <r_epik_Ionization_Penalty_Neutral>
5.40607e-05

> <r_epik_State_Penalty>
-0

> <r_epik_Charging_Adjusted_Penalty>
0.00173996

> <i_epik_Tot_Q>
1

> <i_epik_Tot_abs_Q>
1

> <r_epik_Metal_State_Penalty>
-0

> <b_epik_Metal_Only>
0

> <s_lp_Force_Field>
OPLS_2005

> <r_lp_Energy>
49.5757

> <b_lp_Chiralities_Consistent>
1

> <s_lp_Variant>
AV-unprocessed.smi:280-1

> <Gold.Version>
5.8.1

> <Gold.Id.Protein>
6NUR|6NUR_protein|mol2

> <Gold.PLP.Fitness>
49.6492

> <Gold.PLP.PLP>
-42.4231

> <Gold.PLP.part.hbond>
-3.0000

> <Gold.PLP.part.metal>
0.0000

> <Gold.PLP.part.buried>
-3.0469

> <Gold.PLP.part.nonpolar>
-38.2779

> <Gold.PLP.part.repulsive>
0.4089

> <Gold.PLP.ligand.clash>
0.0000

> <Gold.PLP.ligand.torsion>
1.4994

> <Gold.PLP.Chemscore.Hbond>
3.0000

> <Gold.PLP.Chemscore.CHOScore>
0.0000

> <Gold.PLP.Chemscore.Metal>
0.0000

> <Gold.Chemscore.Hbonds>
donor molecule, donor type, donor heavy atom, donor atom, acceptor molecule, acceptor atom, score
      L1  H    23    59       P1  7948  2.00
      L1  H    28    58       P1  7948  1.00

> <Gold.PLP.Chemscore.Internal.Correction>
1.2248

> <Gold.Rescore>
     Score         DG    S(hbond)    S(metal)    S(lipo)     H(rot)  DE(clash)    DE(int)     intcor
     12.66     -15.80       1.98        0.00     110.97       3.63       1.87       1.27       ----

> <Gold.Chemscore.Fitness>
12.6590

> <Gold.Chemscore.DG>
-15.7957

> <Gold.Chemscore.ZeroCoef>
-5.4800

> <Gold.Chemscore.Hbond>
1.9806

> <Gold.Chemscore.Metal>
0.0000

> <Gold.Chemscore.Lipo>
110.9655

> <Gold.Chemscore.Internal_Hbond>
0.0000

> <Gold.Chemscore.DEClash>
1.8675

> <Gold.Chemscore.DEInternal>
1.2692

> <Gold.Chemscore.Rot>
3.6260

> <Gold.Chemscore.Internal.Correction>
   9.000000E+99

> <Gold.Chemscore.Hbonds>
donor molecule, donor type, donor heavy atom, donor atom, acceptor molecule, acceptor atom, score
      L1  H    23    59       P1  7948  1.00
      L1  H    28    58       P1  7948  0.99

> <Gold.Chemscore.Hbond.Weighted>
-6.6152

> <Gold.Chemscore.Metal.Weighted>
-0.0000

> <Gold.Chemscore.Lipo.Weighted>
-12.9830

> <Gold.Chemscore.Internal_Hbond.Weighted>
0.0000

> <Gold.Chemscore.DEClash.Weighted>
1.8675

> <Gold.Chemscore.DEInternal.Weighted>
1.2692

> <Gold.Chemscore.Rot.Weighted>
9.2825

> <Gold.Chemscore.Internal.Correction.Weighted>
   9.000000E+99

> <Gold.Protein.RotatedTorsions>
[ 6907 6896 6895 6894 ] final  -52.86 input  -60.11 | X-H torsion
[ 7974 7965 7964 7962 ] final  -23.72 input  175.53 | X-H torsion
[ 8008 7997 7996 7995 ] final   30.70 input   59.86 | X-H torsion
[ 10167 10162 10161 10158 ] final -127.67 input  -65.29 | X-H torsion
[ 10718 10713 10712 10709 ] final   33.73 input   66.30 | X-H torsion
[ 10763 10752 10751 10750 ] final  142.92 input  -60.55 | X-H torsion
[ 11005 11000 10999 10996 ] final  143.44 input  -57.11 | X-H torsion

> <Gold.Protein.ActiveResidues>
 VAL166  LYS551  ARG553  GLY616  TRP617  ASP618  TYR619  PRO620  LYS621  CYS622 
 ASP623  PHE694  ASN695  SER759  ASP760  ASP761  ALA762  ILE779  LEU786  VAL792 
 PHE793  MET794  SER795  GLU796  ALA797  LYS798  CYS799  TRP800  GLU811  SER814 

> <Gold.Protein.RotatedAtoms>
  150.8479  134.7795  159.6985 H   0  0  0  0  0  0  0  0  0  0  0  0  # atno 6907 bound_to 6896
  152.4551  134.5305  159.9819 H   0  0  0  0  0  0  0  0  0  0  0  0  # atno 6908 bound_to 6896
  151.5431  133.3391  159.2975 H   0  0  0  0  0  0  0  0  0  0  0  0  # atno 6909 bound_to 6896
  146.1598  140.4655  142.8576 H   0  0  0  0  0  0  0  0  0  0  0  0  # atno 7974 bound_to 7965
  155.0946  140.3223  155.4564 H   0  0  0  0  0  0  0  0  0  0  0  0  # atno 8008 bound_to 7997
  156.2733  140.2072  156.6019 H   0  0  0  0  0  0  0  0  0  0  0  0  # atno 8009 bound_to 7997
  154.6876  140.0519  157.0318 H   0  0  0  0  0  0  0  0  0  0  0  0  # atno 8010 bound_to 7997
  139.9584  143.5978  152.2453 H   0  0  0  0  0  0  0  0  0  0  0  0  # atno 10167 bound_to 10162
  157.3015  130.7353  149.6669 H   0  0  0  0  0  0  0  0  0  0  0  0  # atno 10718 bound_to 10713
  153.9638  135.2957  155.3432 H   0  0  0  0  0  0  0  0  0  0  0  0  # atno 10763 bound_to 10752
  154.7360  135.5046  153.9046 H   0  0  0  0  0  0  0  0  0  0  0  0  # atno 10764 bound_to 10752
  153.0934  135.6714  153.9921 H   0  0  0  0  0  0  0  0  0  0  0  0  # atno 10765 bound_to 10752
  140.0554  134.9233  157.1091 H   0  0  0  0  0  0  0  0  0  0  0  0  # atno 11005 bound_to 11000
  144.8012  140.6217  143.6477 LP  0  0  0  0  0  0  0  0  0  0  0  0  # atno 17320 bound_to 7965
  145.4616  139.1512  143.3863 LP  0  0  0  0  0  0  0  0  0  0  0  0  # atno 17321 bound_to 7965
  139.6573  144.7662  151.2030 LP  0  0  0  0  0  0  0  0  0  0  0  0  # atno 17342 bound_to 10162
  140.7561  143.6065  150.8648 LP  0  0  0  0  0  0  0  0  0  0  0  0  # atno 17343 bound_to 10162
  155.9672  130.4278  150.4762 LP  0  0  0  0  0  0  0  0  0  0  0  0  # atno 17370 bound_to 10713
  157.2744  131.0594  151.2239 LP  0  0  0  0  0  0  0  0  0  0  0  0  # atno 17371 bound_to 10713
  140.3852  134.2244  155.7169 LP  0  0  0  0  0  0  0  0  0  0  0  0  # atno 17394 bound_to 11000
  141.1949  133.8116  157.0735 LP  0  0  0  0  0  0  0  0  0  0  0  0  # atno 17395 bound_to 11000

$$$$
