AV-unprocessed.smi:3314|AV-procd|sdf|12740|dock9
  -GOLD-   2272019 83D 1   1.00000     0.00000
 Structure written by MMmdl.
 38 39  0  0  0  0  0  0  0  0  2 V2000
  153.0399  143.2194  162.4324 C   0  0  0  0  0  0  0  0  0  0  0  0
  153.1626  142.2070  161.3120 C   0  0  0  0  0  0  0  0  0  0  0  0
  154.1596  141.1521  161.3803 C   0  0  0  0  0  0  0  0  0  0  0  0
  154.2517  140.2634  160.3764 C   0  0  0  0  0  0  0  0  0  0  0  0
  155.2533  139.1281  160.3471 C   0  0  0  0  0  0  0  0  0  0  0  0
  153.4065  140.3398  159.2766 N   0  0  0  0  0  0  0  0  0  0  0  0
  152.4181  141.3298  159.1352 C   0  0  0  0  0  0  0  0  0  0  0  0
  151.6037  141.4458  158.1267 N   0  0  0  0  0  0  0  0  0  0  0  0
  151.6163  140.5683  157.0457 C   0  0  0  0  0  0  0  0  0  0  0  0
  152.5522  139.9103  156.5823 O   0  0  0  0  0  0  0  0  0  0  0  0
  150.2384  140.4594  156.3817 C   0  0  1  0  0  0  0  0  0  0  0  0
  149.2340  141.4387  157.0260 C   0  0  0  0  0  0  0  0  0  0  0  0
  147.9372  141.3945  156.3120 N   0  3  1  0  0  0  0  0  0  0  0  0
  146.9236  142.2866  156.9142 C   0  0  0  0  0  0  0  0  0  0  0  0
  148.1226  141.6350  154.8630 C   0  0  0  0  0  0  0  0  0  0  0  0
  149.1514  140.6484  154.2876 C   0  0  0  0  0  0  0  0  0  0  0  0
  150.3771  140.7729  154.9979 O   0  0  0  0  0  0  0  0  0  0  0  0
  152.3430  142.2777  160.2367 C   0  0  0  0  0  0  0  0  0  0  0  0
  153.7702  143.0282  163.2193 H   0  0  0  0  0  0  0  0  0  0  0  0
  152.0441  143.1768  162.8746 H   0  0  0  0  0  0  0  0  0  0  0  0
  153.2057  144.2277  162.0521 H   0  0  0  0  0  0  0  0  0  0  0  0
  154.8213  141.0834  162.2315 H   0  0  0  0  0  0  0  0  0  0  0  0
  155.8707  139.1229  161.2460 H   0  0  0  0  0  0  0  0  0  0  0  0
  155.9113  139.2252  159.4831 H   0  0  0  0  0  0  0  0  0  0  0  0
  154.7390  138.1689  160.2822 H   0  0  0  0  0  0  0  0  0  0  0  0
  149.8724  139.4342  156.4741 H   0  0  0  0  0  0  0  0  0  0  0  0
  149.0774  141.1793  158.0744 H   0  0  0  0  0  0  0  0  0  0  0  0
  149.6253  142.4579  157.0031 H   0  0  0  0  0  0  0  0  0  0  0  0
  147.2342  143.3305  156.8538 H   0  0  0  0  0  0  0  0  0  0  0  0
  146.7674  142.0362  157.9640 H   0  0  0  0  0  0  0  0  0  0  0  0
  145.9668  142.1838  156.4011 H   0  0  0  0  0  0  0  0  0  0  0  0
  147.1696  141.5224  154.3449 H   0  0  0  0  0  0  0  0  0  0  0  0
  148.4582  142.6605  154.7003 H   0  0  0  0  0  0  0  0  0  0  0  0
  148.7849  139.6223  154.3457 H   0  0  0  0  0  0  0  0  0  0  0  0
  149.3302  140.8635  153.2339 H   0  0  0  0  0  0  0  0  0  0  0  0
  151.6143  143.0758  160.2212 H   0  0  0  0  0  0  0  0  0  0  0  0
  153.5389  139.6334  158.5669 H   0  0  0  0  0  0  0  0  0  0  0  0
  147.5867  140.4519  156.4066 H   0  0  0  0  0  0  0  0  0  0  0  0
  1  2  1  0  0  0  0
  1 19  1  0  0  0  0
  1 20  1  0  0  0  0
  1 21  1  0  0  0  0
  2 18  2  0  0  0  0
  2  3  1  0  0  0  0
  3  4  2  0  0  0  0
  3 22  1  0  0  0  0
  4  5  1  0  0  0  0
  4  6  1  0  0  0  0
  5 23  1  0  0  0  0
  5 24  1  0  0  0  0
  5 25  1  0  0  0  0
  6  7  1  0  0  0  0
  6 37  1  0  0  0  0
  7  8  2  0  0  0  0
  7 18  1  0  0  0  0
  8  9  1  0  0  0  0
  9 10  2  0  0  0  0
  9 11  1  0  0  0  0
 11 17  1  0  0  0  0
 11 12  1  0  0  0  0
 11 26  1  0  0  0  0
 12 13  1  0  0  0  0
 12 27  1  0  0  0  0
 12 28  1  0  0  0  0
 13 14  1  0  0  0  0
 13 15  1  0  0  0  0
 13 38  1  0  0  0  0
 14 29  1  0  0  0  0
 14 30  1  0  0  0  0
 14 31  1  0  0  0  0
 15 16  1  0  0  0  0
 15 32  1  0  0  0  0
 15 33  1  0  0  0  0
 16 17  1  0  0  0  0
 16 34  1  0  0  0  0
 16 35  1  0  0  0  0
 18 36  1  0  0  0  0
M  CHG  1  13   1
M  END
> <s_m_source_file>
AV-unprocessed.smi

> <i_m_source_file_index>
3314

> <i_lp_mmshare_version>
43012

> <i_f3d_flags>
0

> <s_epik_input>
W0NIM11jMVtjSF1jKFtDSDNdKW5jKFtjSF0xKVtOSF1DKD1PKVtDQEBIXTJbQ0gyXU4oW0NIM10pW0NIMl1bQ0gyXU8y

> <s_epik_cmdline>
J2VwaWtfcHl0aG9uJywgJy1waCcsICc3LjAnLCAnLXRuJywgJzgnLCAnLW1hJywgJzIwMCcsICctbWV0YWxfYmluZGluZycsICctaW1hZScsICc8aW5maWxlLm1hZT4nLCAnLW9tYWUnLCAnPG91dGZpbGUubWFlPic=

> <r_epik_Ionization_Penalty>
0.519783

> <r_epik_Ionization_Penalty_Charging>
0.519783

> <r_epik_Ionization_Penalty_Neutral>
1.74183e-13

> <r_epik_State_Penalty>
2.39351

> <r_epik_Charging_Adjusted_Penalty>
2.91329

> <i_epik_Tot_Q>
1

> <i_epik_Tot_abs_Q>
1

> <r_epik_Metal_State_Penalty>
2.41924

> <b_epik_Metal_Only>
0

> <s_lp_Force_Field>
OPLS_2005

> <r_lp_Energy>
34.3137

> <b_lp_Chiralities_Consistent>
1

> <s_lp_Variant>
AV-unprocessed.smi:3314-10

> <Gold.Version>
5.8.1

> <Gold.Id.Protein>
6NUR|6NUR_protein|mol2

> <Gold.PLP.Fitness>
39.1894

> <Gold.PLP.PLP>
-34.0590

> <Gold.PLP.part.hbond>
-2.0000

> <Gold.PLP.part.metal>
0.0000

> <Gold.PLP.part.buried>
-3.5547

> <Gold.PLP.part.nonpolar>
-27.8956

> <Gold.PLP.part.repulsive>
0.1813

> <Gold.PLP.ligand.clash>
0.0000

> <Gold.PLP.ligand.torsion>
0.2068

> <Gold.PLP.Chemscore.Hbond>
1.8480

> <Gold.PLP.Chemscore.CHOScore>
0.0000

> <Gold.PLP.Chemscore.Metal>
0.0000

> <Gold.Chemscore.Hbonds>
donor molecule, donor type, donor heavy atom, donor atom, acceptor molecule, acceptor atom, score
      P1  H  7989  7998       L1    17  0.85
      P1  H  7997  8008       L1    10  1.00

> <Gold.PLP.Chemscore.Internal.Correction>
0.0002

> <Gold.Rescore>
     Score         DG    S(hbond)    S(metal)    S(lipo)     H(rot)  DE(clash)    DE(int)     intcor
     16.57     -18.55       1.79        0.00      82.55       1.00       0.32       1.66       ----

> <Gold.Chemscore.Fitness>
16.5681

> <Gold.Chemscore.DG>
-18.5550

> <Gold.Chemscore.ZeroCoef>
-5.4800

> <Gold.Chemscore.Hbond>
1.7895

> <Gold.Chemscore.Metal>
0.0000

> <Gold.Chemscore.Lipo>
82.5475

> <Gold.Chemscore.Internal_Hbond>
0.0000

> <Gold.Chemscore.DEClash>
0.3232

> <Gold.Chemscore.DEInternal>
1.6636

> <Gold.Chemscore.Rot>
1.0000

> <Gold.Chemscore.Internal.Correction>
   9.000000E+99

> <Gold.Chemscore.Hbonds>
donor molecule, donor type, donor heavy atom, donor atom, acceptor molecule, acceptor atom, score
      P1  H  7989  7998       L1    17  0.21
      P1  H  7997  8008       L1    10  1.00

> <Gold.Chemscore.Hbond.Weighted>
-5.9769

> <Gold.Chemscore.Metal.Weighted>
-0.0000

> <Gold.Chemscore.Lipo.Weighted>
-9.6581

> <Gold.Chemscore.Internal_Hbond.Weighted>
0.0000

> <Gold.Chemscore.DEClash.Weighted>
0.3232

> <Gold.Chemscore.DEInternal.Weighted>
1.6636

> <Gold.Chemscore.Rot.Weighted>
2.5600

> <Gold.Chemscore.Internal.Correction.Weighted>
   9.000000E+99

> <Gold.Protein.RotatedTorsions>
[ 6907 6896 6895 6894 ] final  124.93 input  -60.11 | X-H torsion
[ 7974 7965 7964 7962 ] final  134.26 input  175.53 | X-H torsion
[ 8008 7997 7996 7995 ] final  -49.17 input   59.86 | X-H torsion
[ 10167 10162 10161 10158 ] final   42.51 input  -65.29 | X-H torsion
[ 10718 10713 10712 10709 ] final  -31.00 input   66.30 | X-H torsion
[ 10763 10752 10751 10750 ] final  161.28 input  -60.55 | X-H torsion
[ 11005 11000 10999 10996 ] final  -99.22 input  -57.11 | X-H torsion

> <Gold.Protein.ActiveResidues>
 VAL166  LYS551  ARG553  GLY616  TRP617  ASP618  TYR619  PRO620  LYS621  CYS622 
 ASP623  PHE694  ASN695  SER759  ASP760  ASP761  ALA762  ILE779  LEU786  VAL792 
 PHE793  MET794  SER795  GLU796  ALA797  LYS798  CYS799  TRP800  GLU811  SER814 

> <Gold.Protein.RotatedAtoms>
  152.4036  133.6854  159.6336 H   0  0  0  0  0  0  0  0  0  0  0  0  # atno 6907 bound_to 6896
  150.7923  133.8749  159.3278 H   0  0  0  0  0  0  0  0  0  0  0  0  # atno 6908 bound_to 6896
  151.6509  135.1003  160.0212 H   0  0  0  0  0  0  0  0  0  0  0  0  # atno 6909 bound_to 6896
  144.9782  139.4532  143.5399 H   0  0  0  0  0  0  0  0  0  0  0  0  # atno 7974 bound_to 7965
  154.4040  140.1303  156.4458 H   0  0  0  0  0  0  0  0  0  0  0  0  # atno 8008 bound_to 7997
  155.7414  140.3490  155.5086 H   0  0  0  0  0  0  0  0  0  0  0  0  # atno 8009 bound_to 7997
  155.9035  140.1023  157.1322 H   0  0  0  0  0  0  0  0  0  0  0  0  # atno 8010 bound_to 7997
  140.3536  144.2318  150.6143 H   0  0  0  0  0  0  0  0  0  0  0  0  # atno 10167 bound_to 10162
  156.3928  130.4376  149.7382 H   0  0  0  0  0  0  0  0  0  0  0  0  # atno 10718 bound_to 10713
  154.2605  135.2768  155.2780 H   0  0  0  0  0  0  0  0  0  0  0  0  # atno 10763 bound_to 10752
  154.5388  135.5708  153.6824 H   0  0  0  0  0  0  0  0  0  0  0  0  # atno 10764 bound_to 10752
  152.9963  135.6246  154.2756 H   0  0  0  0  0  0  0  0  0  0  0  0  # atno 10765 bound_to 10752
  141.1317  133.8304  157.0942 H   0  0  0  0  0  0  0  0  0  0  0  0  # atno 11005 bound_to 11000
  146.3401  139.9038  142.8790 LP  0  0  0  0  0  0  0  0  0  0  0  0  # atno 17320 bound_to 7965
  145.2459  141.0026  143.3909 LP  0  0  0  0  0  0  0  0  0  0  0  0  # atno 17321 bound_to 7965
  140.5195  143.2269  151.8411 LP  0  0  0  0  0  0  0  0  0  0  0  0  # atno 17342 bound_to 10162
  139.4823  144.4854  151.9253 LP  0  0  0  0  0  0  0  0  0  0  0  0  # atno 17343 bound_to 10162
  156.4429  130.7869  151.2891 LP  0  0  0  0  0  0  0  0  0  0  0  0  # atno 17370 bound_to 10713
  157.7500  131.0119  150.3365 LP  0  0  0  0  0  0  0  0  0  0  0  0  # atno 17371 bound_to 10713
  140.0373  134.9872  157.0895 LP  0  0  0  0  0  0  0  0  0  0  0  0  # atno 17394 bound_to 11000
  140.4190  134.1900  155.7164 LP  0  0  0  0  0  0  0  0  0  0  0  0  # atno 17395 bound_to 11000

$$$$
