AV-unprocessed.smi:3243|AV-procd|sdf|12395|dock10
  -GOLD-   2272018263D 1   1.00000     0.00000
 Structure written by MMmdl.
 37 38  0  0  0  0  0  0  0  0  1 V2000
  150.2111  144.3208  159.2748 C   0  0  0  0  0  0  0  0  0  0  0  0
  151.7148  144.6121  159.3830 C   0  0  0  0  0  0  0  0  0  0  0  0
  152.3989  144.6813  158.0102 C   0  0  0  0  0  0  0  0  0  0  0  0
  152.4023  143.6510  160.3029 C   0  0  0  0  0  0  0  0  0  0  0  0
  153.1716  142.6465  159.8736 N   0  0  0  0  0  0  0  0  0  0  0  0
  153.7092  141.8900  160.9198 C   0  0  0  0  0  0  0  0  0  0  0  0
  154.6019  140.7245  160.6190 C   0  0  0  0  0  0  0  0  0  0  0  0
  153.8094  139.4884  160.1617 C   0  0  0  0  0  0  0  0  0  0  0  0
  154.4099  138.2530  160.6515 N   0  0  0  0  0  0  0  0  0  0  0  0
  153.9189  137.0214  160.4469 C   0  0  0  0  0  0  0  0  0  0  0  0
  152.8798  136.8131  159.8191 O   0  0  0  0  0  0  0  0  0  0  0  0
  154.7525  135.9341  161.0505 C   0  0  1  0  0  0  0  0  0  0  0  0
  156.0497  136.3219  161.7335 C   0  0  0  0  0  0  0  0  0  0  0  0
  154.8872  135.8329  162.5640 C   0  0  1  0  0  0  0  0  0  0  0  0
  154.1896  136.7578  163.5463 C   0  0  0  0  0  0  0  0  0  0  0  0
  153.3341  142.3393  162.1611 C   0  0  0  0  0  0  0  0  0  0  0  0
  152.2913  143.7307  162.0601 S   0  0  0  0  0  0  0  0  0  0  0  0
  149.7350  144.3515  160.2553 H   0  0  0  0  0  0  0  0  0  0  0  0
  150.0258  143.3360  158.8448 H   0  0  0  0  0  0  0  0  0  0  0  0
  149.7132  145.0571  158.6434 H   0  0  0  0  0  0  0  0  0  0  0  0
  151.8103  145.6030  159.8300 H   0  0  0  0  0  0  0  0  0  0  0  0
  153.4499  144.9543  158.1095 H   0  0  0  0  0  0  0  0  0  0  0  0
  151.9239  145.4271  157.3726 H   0  0  0  0  0  0  0  0  0  0  0  0
  152.3506  143.7234  157.4914 H   0  0  0  0  0  0  0  0  0  0  0  0
  155.3232  141.0038  159.8498 H   0  0  0  0  0  0  0  0  0  0  0  0
  155.1911  140.4726  161.5016 H   0  0  0  0  0  0  0  0  0  0  0  0
  152.7886  139.5394  160.5418 H   0  0  0  0  0  0  0  0  0  0  0  0
  153.7340  139.4633  159.0732 H   0  0  0  0  0  0  0  0  0  0  0  0
  155.2665  138.3402  161.1791 H   0  0  0  0  0  0  0  0  0  0  0  0
  154.7421  134.9837  160.5187 H   0  0  0  0  0  0  0  0  0  0  0  0
  156.8967  135.6520  161.6003 H   0  0  0  0  0  0  0  0  0  0  0  0
  156.3100  137.3769  161.8003 H   0  0  0  0  0  0  0  0  0  0  0  0
  154.9507  134.8114  162.9339 H   0  0  0  0  0  0  0  0  0  0  0  0
  154.3250  137.8051  163.2786 H   0  0  0  0  0  0  0  0  0  0  0  0
  154.5999  136.6126  164.5455 H   0  0  0  0  0  0  0  0  0  0  0  0
  153.1226  136.5373  163.5758 H   0  0  0  0  0  0  0  0  0  0  0  0
  153.6090  141.9384  163.1255 H   0  0  0  0  0  0  0  0  0  0  0  0
  1  2  1  0  0  0  0
  1 18  1  0  0  0  0
  1 19  1  0  0  0  0
  1 20  1  0  0  0  0
  2  3  1  0  0  0  0
  2  4  1  0  0  0  0
  2 21  1  0  0  0  0
  3 22  1  0  0  0  0
  3 23  1  0  0  0  0
  3 24  1  0  0  0  0
  4 17  1  0  0  0  0
  4  5  2  0  0  0  0
  5  6  1  0  0  0  0
  6  7  1  0  0  0  0
  6 16  2  0  0  0  0
  7  8  1  0  0  0  0
  7 25  1  0  0  0  0
  7 26  1  0  0  0  0
  8  9  1  0  0  0  0
  8 27  1  0  0  0  0
  8 28  1  0  0  0  0
  9 10  1  0  0  0  0
  9 29  1  0  0  0  0
 10 11  2  0  0  0  0
 10 12  1  0  0  0  0
 12 14  1  0  0  0  0
 12 13  1  0  0  0  0
 12 30  1  0  0  0  0
 13 14  1  0  0  0  0
 13 31  1  0  0  0  0
 13 32  1  0  0  0  0
 14 15  1  0  0  0  0
 14 33  1  0  0  0  0
 15 34  1  0  0  0  0
 15 35  1  0  0  0  0
 15 36  1  0  0  0  0
 16 17  1  0  0  0  0
 16 37  1  0  0  0  0
M  END
> <s_m_source_file>
AV-unprocessed.smi

> <i_m_source_file_index>
3243

> <i_lp_mmshare_version>
43012

> <i_f3d_flags>
0

> <s_epik_input>
W0NIM11bQ0hdKFtDSDNdKWMxbmMoW2NIXXMxKVtDSDJdW0NIMl1bTkhdQyg9TylbQ0BASF0yW0NIMl1bQ0BIXTJbQ0gzXQ==

> <s_epik_cmdline>
J2VwaWtfcHl0aG9uJywgJy1waCcsICc3LjAnLCAnLXRuJywgJzgnLCAnLW1hJywgJzIwMCcsICctbWV0YWxfYmluZGluZycsICctaW1hZScsICc8aW5maWxlLm1hZT4nLCAnLW9tYWUnLCAnPG91dGZpbGUubWFlPic=

> <r_epik_Ionization_Penalty>
0.00084212

> <r_epik_Ionization_Penalty_Charging>
0

> <r_epik_Ionization_Penalty_Neutral>
0.00084212

> <r_epik_State_Penalty>
0.000542609

> <r_epik_Charging_Adjusted_Penalty>
0.000542609

> <i_epik_Tot_Q>
0

> <i_epik_Tot_abs_Q>
0

> <r_epik_Metal_State_Penalty>
-0

> <b_epik_Metal_Only>
0

> <s_lp_Force_Field>
OPLS_2005

> <r_lp_Energy>
-2.57645

> <b_lp_Chiralities_Consistent>
1

> <s_lp_Variant>
AV-unprocessed.smi:3243-2

> <Gold.Version>
5.8.1

> <Gold.Id.Protein>
6NUR|6NUR_protein|mol2

> <Gold.PLP.Fitness>
46.0300

> <Gold.PLP.PLP>
-44.9638

> <Gold.PLP.part.hbond>
-1.0000

> <Gold.PLP.part.metal>
0.0000

> <Gold.PLP.part.buried>
-4.9734

> <Gold.PLP.part.nonpolar>
-38.9183

> <Gold.PLP.part.repulsive>
0.0000

> <Gold.PLP.ligand.clash>
0.0000

> <Gold.PLP.ligand.torsion>
1.0463

> <Gold.PLP.Chemscore.Hbond>
1.0000

> <Gold.PLP.Chemscore.CHOScore>
0.0000

> <Gold.PLP.Chemscore.Metal>
0.0000

> <Gold.Chemscore.Hbonds>
donor molecule, donor type, donor heavy atom, donor atom, acceptor molecule, acceptor atom, score
      P1  H  6896  6909       L1    11  0.99

> <Gold.PLP.Chemscore.Internal.Correction>
0.1589

> <Gold.Rescore>
     Score         DG    S(hbond)    S(metal)    S(lipo)     H(rot)  DE(clash)    DE(int)     intcor
     18.91     -20.12       0.99        0.00     129.46       1.49       0.02       1.19       ----

> <Gold.Chemscore.Fitness>
18.9082

> <Gold.Chemscore.DG>
-20.1215

> <Gold.Chemscore.ZeroCoef>
-5.4800

> <Gold.Chemscore.Hbond>
0.9885

> <Gold.Chemscore.Metal>
0.0000

> <Gold.Chemscore.Lipo>
129.4582

> <Gold.Chemscore.Internal_Hbond>
0.0000

> <Gold.Chemscore.DEClash>
0.0237

> <Gold.Chemscore.DEInternal>
1.1896

> <Gold.Chemscore.Rot>
1.4870

> <Gold.Chemscore.Internal.Correction>
   9.000000E+99

> <Gold.Chemscore.Hbonds>
donor molecule, donor type, donor heavy atom, donor atom, acceptor molecule, acceptor atom, score
      P1  H  6896  6909       L1    11  0.88

> <Gold.Chemscore.Hbond.Weighted>
-3.3016

> <Gold.Chemscore.Metal.Weighted>
-0.0000

> <Gold.Chemscore.Lipo.Weighted>
-15.1466

> <Gold.Chemscore.Internal_Hbond.Weighted>
0.0000

> <Gold.Chemscore.DEClash.Weighted>
0.0237

> <Gold.Chemscore.DEInternal.Weighted>
1.1896

> <Gold.Chemscore.Rot.Weighted>
3.8067

> <Gold.Chemscore.Internal.Correction.Weighted>
   9.000000E+99

> <Gold.Protein.RotatedTorsions>
[ 6907 6896 6895 6894 ] final  126.74 input  -60.11 | X-H torsion
[ 7974 7965 7964 7962 ] final -114.69 input  175.53 | X-H torsion
[ 8008 7997 7996 7995 ] final -137.75 input   59.86 | X-H torsion
[ 10167 10162 10161 10158 ] final -159.36 input  -65.29 | X-H torsion
[ 10718 10713 10712 10709 ] final -125.32 input   66.30 | X-H torsion
[ 10763 10752 10751 10750 ] final -124.41 input  -60.55 | X-H torsion
[ 11005 11000 10999 10996 ] final  -49.30 input  -57.11 | X-H torsion

> <Gold.Protein.ActiveResidues>
 VAL166  LYS551  ARG553  GLY616  TRP617  ASP618  TYR619  PRO620  LYS621  CYS622 
 ASP623  PHE694  ASN695  SER759  ASP760  ASP761  ALA762  ILE779  LEU786  VAL792 
 PHE793  MET794  SER795  GLU796  ALA797  LYS798  CYS799  TRP800  GLU811  SER814 

> <Gold.Protein.RotatedAtoms>
  152.3876  133.6633  159.6211 H   0  0  0  0  0  0  0  0  0  0  0  0  # atno 6907 bound_to 6896
  150.7791  133.9009  159.3349 H   0  0  0  0  0  0  0  0  0  0  0  0  # atno 6908 bound_to 6896
  151.6802  135.0964  160.0266 H   0  0  0  0  0  0  0  0  0  0  0  0  # atno 6909 bound_to 6896
  145.1172  140.8647  143.3835 H   0  0  0  0  0  0  0  0  0  0  0  0  # atno 7974 bound_to 7965
  155.4169  140.0516  157.3028 H   0  0  0  0  0  0  0  0  0  0  0  0  # atno 8008 bound_to 7997
  154.4920  140.2124  155.9487 H   0  0  0  0  0  0  0  0  0  0  0  0  # atno 8009 bound_to 7997
  156.1355  140.3164  155.8419 H   0  0  0  0  0  0  0  0  0  0  0  0  # atno 8010 bound_to 7997
  139.6621  143.9894  152.2232 H   0  0  0  0  0  0  0  0  0  0  0  0  # atno 10167 bound_to 10162
  156.1665  130.6638  151.0121 H   0  0  0  0  0  0  0  0  0  0  0  0  # atno 10718 bound_to 10713
  154.8723  135.4064  154.3101 H   0  0  0  0  0  0  0  0  0  0  0  0  # atno 10763 bound_to 10752
  153.3946  135.7016  153.6475 H   0  0  0  0  0  0  0  0  0  0  0  0  # atno 10764 bound_to 10752
  153.5243  135.3680  155.2617 H   0  0  0  0  0  0  0  0  0  0  0  0  # atno 10765 bound_to 10752
  141.0751  133.6668  156.3565 H   0  0  0  0  0  0  0  0  0  0  0  0  # atno 11005 bound_to 11000
  145.0780  139.2981  143.5798 LP  0  0  0  0  0  0  0  0  0  0  0  0  # atno 17320 bound_to 7965
  146.3523  140.0277  142.8653 LP  0  0  0  0  0  0  0  0  0  0  0  0  # atno 17321 bound_to 7965
  139.9635  144.6541  150.8056 LP  0  0  0  0  0  0  0  0  0  0  0  0  # atno 17342 bound_to 10162
  140.7584  143.3107  151.2852 LP  0  0  0  0  0  0  0  0  0  0  0  0  # atno 17343 bound_to 10162
  157.6771  131.0847  150.7466 LP  0  0  0  0  0  0  0  0  0  0  0  0  # atno 17370 bound_to 10713
  156.7526  130.4773  149.5453 LP  0  0  0  0  0  0  0  0  0  0  0  0  # atno 17371 bound_to 10713
  140.5591  134.5952  157.5429 LP  0  0  0  0  0  0  0  0  0  0  0  0  # atno 17394 bound_to 11000
  139.9563  134.7529  156.0334 LP  0  0  0  0  0  0  0  0  0  0  0  0  # atno 17395 bound_to 11000

$$$$
