AV-unprocessed.smi:2262|AV-procd|sdf|9139|dock5
  -GOLD-   2272012343D 1   1.00000     0.00000
 Structure written by MMmdl.
 43 44  0  0  0  0  0  0  0  0  2 V2000
  144.8677  133.4400  150.5845 C   0  0  0  0  0  0  0  0  0  0  0  0
  144.6695  134.4551  151.6414 N   0  3  2  0  0  0  0  0  0  0  0  0
  145.0379  135.8201  151.1905 C   0  0  0  0  0  0  0  0  0  0  0  0
  144.6939  136.8703  152.2627 C   0  0  0  0  0  0  0  0  0  0  0  0
  145.3364  136.5434  153.6228 C   0  0  2  0  0  0  0  0  0  0  0  0
  146.7792  136.7835  153.5827 N   0  0  0  0  0  0  0  0  0  0  0  0
  147.4318  137.6849  154.3320 C   0  0  0  0  0  0  0  0  0  0  0  0
  146.8766  138.3934  155.1723 O   0  0  0  0  0  0  0  0  0  0  0  0
  148.7456  137.7027  154.0443 N   0  0  0  0  0  0  0  0  0  0  0  0
  149.7517  138.5361  154.6030 C   0  0  0  0  0  0  0  0  0  0  0  0
  151.0786  138.0937  154.4065 C   0  0  0  0  0  0  0  0  0  0  0  0
  152.1443  138.8548  154.9235 C   0  0  0  0  0  0  0  0  0  0  0  0
  151.8563  140.0400  155.6233 C   0  0  0  0  0  0  0  0  0  0  0  0
  150.5093  140.4191  155.7763 C   0  0  0  0  0  0  0  0  0  0  0  0
  150.2215  141.5836  156.4577 O   0  0  0  0  0  0  0  0  0  0  0  0
  151.2493  142.5611  156.5960 C   0  0  0  0  0  0  0  0  0  0  0  0
  151.0666  143.2850  157.9336 C   0  0  0  0  0  0  0  0  0  0  0  0
  151.4045  142.4865  158.9456 F   0  0  0  0  0  0  0  0  0  0  0  0
  151.8256  144.3797  157.9686 F   0  0  0  0  0  0  0  0  0  0  0  0
  149.4868  139.6815  155.2779 N   0  0  0  0  0  0  0  0  0  0  0  0
  145.0036  135.0924  154.0267 C   0  0  0  0  0  0  0  0  0  0  0  0
  145.3438  134.0885  152.9112 C   0  0  0  0  0  0  0  0  0  0  0  0
  145.9213  133.3549  150.3150 H   0  0  0  0  0  0  0  0  0  0  0  0
  144.3048  133.7026  149.6882 H   0  0  0  0  0  0  0  0  0  0  0  0
  144.5196  132.4623  150.9196 H   0  0  0  0  0  0  0  0  0  0  0  0
  146.1026  135.8528  150.9545 H   0  0  0  0  0  0  0  0  0  0  0  0
  144.5033  136.0561  150.2696 H   0  0  0  0  0  0  0  0  0  0  0  0
  144.9974  137.8632  151.9281 H   0  0  0  0  0  0  0  0  0  0  0  0
  143.6106  136.9112  152.3828 H   0  0  0  0  0  0  0  0  0  0  0  0
  144.9075  137.2195  154.3650 H   0  0  0  0  0  0  0  0  0  0  0  0
  147.3142  136.2454  152.9168 H   0  0  0  0  0  0  0  0  0  0  0  0
  149.0620  137.0562  153.3372 H   0  0  0  0  0  0  0  0  0  0  0  0
  151.2834  137.1813  153.8653 H   0  0  0  0  0  0  0  0  0  0  0  0
  153.1663  138.5346  154.7842 H   0  0  0  0  0  0  0  0  0  0  0  0
  152.6510  140.6470  156.0313 H   0  0  0  0  0  0  0  0  0  0  0  0
  152.2373  142.0992  156.5529 H   0  0  0  0  0  0  0  0  0  0  0  0
  151.1805  143.2842  155.7814 H   0  0  0  0  0  0  0  0  0  0  0  0
  150.0340  143.6008  158.0832 H   0  0  0  0  0  0  0  0  0  0  0  0
  145.5210  134.8190  154.9470 H   0  0  0  0  0  0  0  0  0  0  0  0
  143.9384  135.0227  154.2515 H   0  0  0  0  0  0  0  0  0  0  0  0
  145.0288  133.0897  153.2160 H   0  0  0  0  0  0  0  0  0  0  0  0
  146.4230  134.0455  152.7556 H   0  0  0  0  0  0  0  0  0  0  0  0
  143.6786  134.4738  151.8372 H   0  0  0  0  0  0  0  0  0  0  0  0
  1  2  1  0  0  0  0
  1 23  1  0  0  0  0
  1 24  1  0  0  0  0
  1 25  1  0  0  0  0
  2 22  1  0  0  0  0
  2  3  1  0  0  0  0
  2 43  1  0  0  0  0
  3  4  1  0  0  0  0
  3 26  1  0  0  0  0
  3 27  1  0  0  0  0
  4  5  1  0  0  0  0
  4 28  1  0  0  0  0
  4 29  1  0  0  0  0
  5  6  1  0  0  0  0
  5 21  1  0  0  0  0
  5 30  1  0  0  0  0
  6  7  1  0  0  0  0
  6 31  1  0  0  0  0
  7  8  2  0  0  0  0
  7  9  1  0  0  0  0
  9 10  1  0  0  0  0
  9 32  1  0  0  0  0
 10 20  1  0  0  0  0
 10 11  2  0  0  0  0
 11 12  1  0  0  0  0
 11 33  1  0  0  0  0
 12 13  2  0  0  0  0
 12 34  1  0  0  0  0
 13 14  1  0  0  0  0
 13 35  1  0  0  0  0
 14 15  1  0  0  0  0
 14 20  2  0  0  0  0
 15 16  1  0  0  0  0
 16 17  1  0  0  0  0
 16 36  1  0  0  0  0
 16 37  1  0  0  0  0
 17 18  1  0  0  0  0
 17 19  1  0  0  0  0
 17 38  1  0  0  0  0
 21 22  1  0  0  0  0
 21 39  1  0  0  0  0
 21 40  1  0  0  0  0
 22 41  1  0  0  0  0
 22 42  1  0  0  0  0
M  CHG  1   2   1
M  END
> <s_m_source_file>
AV-unprocessed.smi

> <i_m_source_file_index>
2262

> <i_lp_mmshare_version>
43012

> <i_f3d_flags>
0

> <s_epik_input>
W0NIM11OMVtDSDJdW0NIMl1bQ0hdKFtDSDJdW0NIMl0xKVtOSF1DKD1PKVtOSF1jMltjSF1bY0hdW2NIXWMobjIpT1tDSDJdW0NIXShGKUY=

> <s_epik_cmdline>
J2VwaWtfcHl0aG9uJywgJy1waCcsICc3LjAnLCAnLXRuJywgJzgnLCAnLW1hJywgJzIwMCcsICctbWV0YWxfYmluZGluZycsICctaW1hZScsICc8aW5maWxlLm1hZT4nLCAnLW9tYWUnLCAnPG91dGZpbGUubWFlPic=

> <r_lp_tautomer_probability>
1

> <r_epik_Ionization_Penalty>
0.00369782

> <r_epik_Ionization_Penalty_Charging>
0.00366825

> <r_epik_Ionization_Penalty_Neutral>
2.95729e-05

> <r_epik_State_Penalty>
0.00261101

> <r_epik_Charging_Adjusted_Penalty>
0.00627926

> <i_epik_Tot_Q>
1

> <i_epik_Tot_abs_Q>
1

> <r_epik_Metal_State_Penalty>
-0

> <b_epik_Metal_Only>
0

> <s_lp_Force_Field>
OPLS_2005

> <r_lp_Energy>
16.3431

> <b_lp_Chiralities_Consistent>
1

> <s_lp_Variant>
AV-unprocessed.smi:2262-2

> <Gold.Version>
5.8.1

> <Gold.Id.Protein>
6NUR|6NUR_protein|mol2

> <Gold.PLP.Fitness>
40.3709

> <Gold.PLP.PLP>
-36.0089

> <Gold.PLP.part.hbond>
-2.0000

> <Gold.PLP.part.metal>
0.0000

> <Gold.PLP.part.buried>
-5.1777

> <Gold.PLP.part.nonpolar>
-29.5510

> <Gold.PLP.part.repulsive>
0.1548

> <Gold.PLP.ligand.clash>
0.0000

> <Gold.PLP.ligand.torsion>
0.6469

> <Gold.PLP.Chemscore.Hbond>
1.8800

> <Gold.PLP.Chemscore.CHOScore>
0.0000

> <Gold.PLP.Chemscore.Metal>
0.0000

> <Gold.Chemscore.Hbonds>
donor molecule, donor type, donor heavy atom, donor atom, acceptor molecule, acceptor atom, score
      L1  H     6    31       P1  7948  0.88
      L1  H     9    32       P1  7948  1.00

> <Gold.PLP.Chemscore.Internal.Correction>
0.0158

> <Gold.Rescore>
     Score         DG    S(hbond)    S(metal)    S(lipo)     H(rot)  DE(clash)    DE(int)     intcor
     13.50     -15.47       1.88        0.00      67.61       1.64       0.10       1.88       ----

> <Gold.Chemscore.Fitness>
13.4973

> <Gold.Chemscore.DG>
-15.4728

> <Gold.Chemscore.ZeroCoef>
-5.4800

> <Gold.Chemscore.Hbond>
1.8829

> <Gold.Chemscore.Metal>
0.0000

> <Gold.Chemscore.Lipo>
67.6141

> <Gold.Chemscore.Internal_Hbond>
0.0000

> <Gold.Chemscore.DEClash>
0.0970

> <Gold.Chemscore.DEInternal>
1.8786

> <Gold.Chemscore.Rot>
1.6434

> <Gold.Chemscore.Internal.Correction>
   9.000000E+99

> <Gold.Chemscore.Hbonds>
donor molecule, donor type, donor heavy atom, donor atom, acceptor molecule, acceptor atom, score
      L1  H     6    31       P1  7948  0.86
      L1  H     9    32       P1  7948  0.98

> <Gold.Chemscore.Hbond.Weighted>
-6.2890

> <Gold.Chemscore.Metal.Weighted>
-0.0000

> <Gold.Chemscore.Lipo.Weighted>
-7.9109

> <Gold.Chemscore.Internal_Hbond.Weighted>
0.0000

> <Gold.Chemscore.DEClash.Weighted>
0.0970

> <Gold.Chemscore.DEInternal.Weighted>
1.8786

> <Gold.Chemscore.Rot.Weighted>
4.2070

> <Gold.Chemscore.Internal.Correction.Weighted>
   9.000000E+99

> <Gold.Protein.RotatedTorsions>
[ 6907 6896 6895 6894 ] final   64.16 input  -60.11 | X-H torsion
[ 7974 7965 7964 7962 ] final  105.46 input  175.53 | X-H torsion
[ 8008 7997 7996 7995 ] final  139.43 input   59.86 | X-H torsion
[ 10167 10162 10161 10158 ] final   60.45 input  -65.29 | X-H torsion
[ 10718 10713 10712 10709 ] final  -87.56 input   66.30 | X-H torsion
[ 10763 10752 10751 10750 ] final -137.19 input  -60.55 | X-H torsion
[ 11005 11000 10999 10996 ] final -166.15 input  -57.11 | X-H torsion

> <Gold.Protein.ActiveResidues>
 VAL166  LYS551  ARG553  GLY616  TRP617  ASP618  TYR619  PRO620  LYS621  CYS622 
 ASP623  PHE694  ASN695  SER759  ASP760  ASP761  ALA762  ILE779  LEU786  VAL792 
 PHE793  MET794  SER795  GLU796  ALA797  LYS798  CYS799  TRP800  GLU811  SER814 

> <Gold.Protein.RotatedAtoms>
  152.4310  134.5778  159.9939 H   0  0  0  0  0  0  0  0  0  0  0  0  # atno 6907 bound_to 6896
  151.5901  133.3362  159.3034 H   0  0  0  0  0  0  0  0  0  0  0  0  # atno 6908 bound_to 6896
  150.8203  134.7442  159.6831 H   0  0  0  0  0  0  0  0  0  0  0  0  # atno 6909 bound_to 6896
  145.3194  139.2517  143.3720 H   0  0  0  0  0  0  0  0  0  0  0  0  # atno 7974 bound_to 7965
  156.2989  140.2368  156.4236 H   0  0  0  0  0  0  0  0  0  0  0  0  # atno 8008 bound_to 7997
  154.8333  140.0432  157.1512 H   0  0  0  0  0  0  0  0  0  0  0  0  # atno 8009 bound_to 7997
  154.9183  140.3000  155.5233 H   0  0  0  0  0  0  0  0  0  0  0  0  # atno 8010 bound_to 7997
  140.1654  144.4329  150.6688 H   0  0  0  0  0  0  0  0  0  0  0  0  # atno 10167 bound_to 10162
  155.9985  130.4804  150.4886 H   0  0  0  0  0  0  0  0  0  0  0  0  # atno 10718 bound_to 10713
  154.8667  135.3649  154.5184 H   0  0  0  0  0  0  0  0  0  0  0  0  # atno 10763 bound_to 10752
  153.5815  135.7018  153.5466 H   0  0  0  0  0  0  0  0  0  0  0  0  # atno 10764 bound_to 10752
  153.3453  135.4087  155.1566 H   0  0  0  0  0  0  0  0  0  0  0  0  # atno 10765 bound_to 10752
  140.5677  134.5269  157.5156 H   0  0  0  0  0  0  0  0  0  0  0  0  # atno 11005 bound_to 11000
  146.3088  140.3748  142.8678 LP  0  0  0  0  0  0  0  0  0  0  0  0  # atno 17320 bound_to 7965
  144.8952  140.7573  143.5902 LP  0  0  0  0  0  0  0  0  0  0  0  0  # atno 17321 bound_to 7965
  140.6616  143.2254  151.5842 LP  0  0  0  0  0  0  0  0  0  0  0  0  # atno 17342 bound_to 10162
  139.5362  144.2775  152.1255 LP  0  0  0  0  0  0  0  0  0  0  0  0  # atno 17343 bound_to 10162
  157.2883  131.0621  151.2151 LP  0  0  0  0  0  0  0  0  0  0  0  0  # atno 17370 bound_to 10713
  157.3172  130.6919  149.6249 LP  0  0  0  0  0  0  0  0  0  0  0  0  # atno 17371 bound_to 10713
  139.9377  134.7845  156.0760 LP  0  0  0  0  0  0  0  0  0  0  0  0  # atno 17394 bound_to 11000
  141.1076  133.6654  156.2900 LP  0  0  0  0  0  0  0  0  0  0  0  0  # atno 17395 bound_to 11000

$$$$
