AV-unprocessed.smi:1570|AV-procd|sdf|6314|dock7
  -GOLD-   22720 6513D 1   1.00000     0.00000
 Structure written by MMmdl.
 51 53  0  0  0  0  0  0  0  0  1 V2000
  155.6019  140.4830  159.8897 C   0  0  0  0  0  0  0  0  0  0  0  0
  154.2859  140.7144  160.6427 C   0  0  0  0  0  0  0  0  0  0  0  0
  153.1814  140.9527  159.7169 N   0  0  0  0  0  0  0  0  0  0  0  0
  152.6305  140.0521  158.8693 C   0  0  0  0  0  0  0  0  0  0  0  0
  152.9684  138.8749  158.7443 O   0  0  0  0  0  0  0  0  0  0  0  0
  151.6510  140.6746  158.1721 N   0  0  0  0  0  0  0  0  0  0  0  0
  150.8008  140.0763  157.1441 C   0  0  0  0  0  0  0  0  0  0  0  0
  151.6036  139.7058  155.8812 C   0  0  2  0  0  0  0  0  0  0  0  0
  152.1675  140.8910  155.3561 O   0  0  0  0  0  0  0  0  0  0  0  0
  150.6890  139.1142  154.7893 C   0  0  0  0  0  0  0  0  0  0  0  0
  149.2960  139.5645  154.8205 N   0  0  0  0  0  0  0  0  0  0  0  0
  148.5332  138.9647  153.7331 C   0  0  0  0  0  0  0  0  0  0  0  0
  147.0521  139.3812  153.7682 C   0  0  2  0  0  0  0  0  0  0  0  0
  146.2675  138.8196  152.5778 C   0  0  0  0  0  0  0  0  0  0  0  0
  146.9601  140.8039  153.7276 O   0  0  0  0  0  0  0  0  0  0  0  0
  147.7024  141.4913  154.7362 C   0  0  1  0  0  0  0  0  0  0  0  0
  147.0271  141.3843  156.1141 C   0  0  0  0  0  0  0  0  0  0  0  0
  149.1703  141.0190  154.7385 C   0  0  0  0  0  0  0  0  0  0  0  0
  151.5869  142.0177  158.5705 C   0  0  0  0  0  0  0  0  0  0  0  0
  150.7652  143.0737  158.1389 C   0  0  0  0  0  0  0  0  0  0  0  0
  150.9612  144.3358  158.7467 C   0  0  0  0  0  0  0  0  0  0  0  0
  151.9509  144.5149  159.7477 C   0  0  0  0  0  0  0  0  0  0  0  0
  152.7665  143.4358  160.1616 C   0  0  0  0  0  0  0  0  0  0  0  0
  152.5498  142.1923  159.5426 C   0  0  0  0  0  0  0  0  0  0  0  0
  156.4216  140.3077  160.5867 H   0  0  0  0  0  0  0  0  0  0  0  0
  155.8642  141.3470  159.2786 H   0  0  0  0  0  0  0  0  0  0  0  0
  155.5331  139.6155  159.2329 H   0  0  0  0  0  0  0  0  0  0  0  0
  154.0628  139.8516  161.2719 H   0  0  0  0  0  0  0  0  0  0  0  0
  154.3862  141.5633  161.3193 H   0  0  0  0  0  0  0  0  0  0  0  0
  150.3570  139.1753  157.5709 H   0  0  0  0  0  0  0  0  0  0  0  0
  149.9596  140.7269  156.9020 H   0  0  0  0  0  0  0  0  0  0  0  0
  152.3974  139.0071  156.1422 H   0  0  0  0  0  0  0  0  0  0  0  0
  151.8397  141.6219  155.8581 H   0  0  0  0  0  0  0  0  0  0  0  0
  151.1097  139.3393  153.8080 H   0  0  0  0  0  0  0  0  0  0  0  0
  150.7194  138.0271  154.8785 H   0  0  0  0  0  0  0  0  0  0  0  0
  148.9704  139.2495  152.7747 H   0  0  0  0  0  0  0  0  0  0  0  0
  148.5987  137.8776  153.7941 H   0  0  0  0  0  0  0  0  0  0  0  0
  146.5923  139.0138  154.6860 H   0  0  0  0  0  0  0  0  0  0  0  0
  146.3009  137.7301  152.5644 H   0  0  0  0  0  0  0  0  0  0  0  0
  146.6749  139.1791  151.6326 H   0  0  0  0  0  0  0  0  0  0  0  0
  145.2203  139.1193  152.6248 H   0  0  0  0  0  0  0  0  0  0  0  0
  147.6913  142.5455  154.4582 H   0  0  0  0  0  0  0  0  0  0  0  0
  147.5423  142.0053  156.8470 H   0  0  0  0  0  0  0  0  0  0  0  0
  147.0302  140.3631  156.4944 H   0  0  0  0  0  0  0  0  0  0  0  0
  145.9912  141.7206  156.0662 H   0  0  0  0  0  0  0  0  0  0  0  0
  149.6892  141.5002  155.5661 H   0  0  0  0  0  0  0  0  0  0  0  0
  149.6541  141.3721  153.8264 H   0  0  0  0  0  0  0  0  0  0  0  0
  150.0174  142.9340  157.3726 H   0  0  0  0  0  0  0  0  0  0  0  0
  150.3510  145.1738  158.4431 H   0  0  0  0  0  0  0  0  0  0  0  0
  152.0848  145.4877  160.1974 H   0  0  0  0  0  0  0  0  0  0  0  0
  153.5245  143.5674  160.9194 H   0  0  0  0  0  0  0  0  0  0  0  0
  1  2  1  0  0  0  0
  1 25  1  0  0  0  0
  1 26  1  0  0  0  0
  1 27  1  0  0  0  0
  2  3  1  0  0  0  0
  2 28  1  0  0  0  0
  2 29  1  0  0  0  0
  3 24  1  0  0  0  0
  3  4  1  0  0  0  0
  4  5  2  0  0  0  0
  4  6  1  0  0  0  0
  6  7  1  0  0  0  0
  6 19  1  0  0  0  0
  7  8  1  0  0  0  0
  7 30  1  0  0  0  0
  7 31  1  0  0  0  0
  8  9  1  0  0  0  0
  8 10  1  0  0  0  0
  8 32  1  0  0  0  0
  9 33  1  0  0  0  0
 10 11  1  0  0  0  0
 10 34  1  0  0  0  0
 10 35  1  0  0  0  0
 11 18  1  0  0  0  0
 11 12  1  0  0  0  0
 12 13  1  0  0  0  0
 12 36  1  0  0  0  0
 12 37  1  0  0  0  0
 13 14  1  0  0  0  0
 13 15  1  0  0  0  0
 13 38  1  0  0  0  0
 14 39  1  0  0  0  0
 14 40  1  0  0  0  0
 14 41  1  0  0  0  0
 15 16  1  0  0  0  0
 16 17  1  0  0  0  0
 16 18  1  0  0  0  0
 16 42  1  0  0  0  0
 17 43  1  0  0  0  0
 17 44  1  0  0  0  0
 17 45  1  0  0  0  0
 18 46  1  0  0  0  0
 18 47  1  0  0  0  0
 19 24  2  0  0  0  0
 19 20  1  0  0  0  0
 20 21  2  0  0  0  0
 20 48  1  0  0  0  0
 21 22  1  0  0  0  0
 21 49  1  0  0  0  0
 22 23  2  0  0  0  0
 22 50  1  0  0  0  0
 23 24  1  0  0  0  0
 23 51  1  0  0  0  0
M  END
> <s_m_source_file>
AV-unprocessed.smi

> <i_m_source_file_index>
1570

> <i_lp_mmshare_version>
43012

> <i_f3d_flags>
0

> <s_epik_input>
W2NIXTFbY0hdW2NIXVtjSF1jKGMxMiluKFtDSDJdW0NIM10pYyg9TyluMltDSDJdW0NASF0oW09IXSlbQ0gyXU4zW0NIMl1bQ0BASF0oW0NIM10pT1tDQEBIXShbQ0gzXSlbQ0gyXTM=

> <s_epik_cmdline>
J2VwaWtfcHl0aG9uJywgJy1waCcsICc3LjAnLCAnLXRuJywgJzgnLCAnLW1hJywgJzIwMCcsICctbWV0YWxfYmluZGluZycsICctaW1hZScsICc8aW5maWxlLm1hZT4nLCAnLW9tYWUnLCAnPG91dGZpbGUubWFlPic=

> <r_epik_Ionization_Penalty>
0.214359

> <r_epik_Ionization_Penalty_Charging>
2.30976e-09

> <r_epik_Ionization_Penalty_Neutral>
0.214359

> <r_epik_State_Penalty>
0.204533

> <r_epik_Charging_Adjusted_Penalty>
0.204533

> <i_epik_Tot_Q>
0

> <i_epik_Tot_abs_Q>
0

> <r_epik_Metal_State_Penalty>
0.204533

> <b_epik_Metal_Only>
0

> <s_lp_Force_Field>
OPLS_2005

> <r_lp_Energy>
63.7902

> <b_lp_Chiralities_Consistent>
1

> <s_lp_Variant>
AV-unprocessed.smi:1570-3

> <Gold.Version>
5.8.1

> <Gold.Id.Protein>
6NUR|6NUR_protein|mol2

> <Gold.PLP.Fitness>
53.0287

> <Gold.PLP.PLP>
-50.7183

> <Gold.PLP.part.hbond>
-2.0000

> <Gold.PLP.part.metal>
0.0000

> <Gold.PLP.part.buried>
-0.7178

> <Gold.PLP.part.nonpolar>
-48.7374

> <Gold.PLP.part.repulsive>
0.9297

> <Gold.PLP.ligand.clash>
0.0000

> <Gold.PLP.ligand.torsion>
0.5546

> <Gold.PLP.Chemscore.Hbond>
1.1073

> <Gold.PLP.Chemscore.CHOScore>
0.0000

> <Gold.PLP.Chemscore.Metal>
0.0000

> <Gold.Chemscore.Hbonds>
donor molecule, donor type, donor heavy atom, donor atom, acceptor molecule, acceptor atom, score
      P1  H  7989  7998       L1     9  0.42
      P1  H  7997  8009       L1     9  0.02

> <Gold.PLP.Chemscore.Internal.Correction>
0.0979

> <Gold.Rescore>
     Score         DG    S(hbond)    S(metal)    S(lipo)     H(rot)  DE(clash)    DE(int)     intcor
     16.14     -17.89       0.63        0.00     133.07       2.06       1.03       0.73       ----

> <Gold.Chemscore.Fitness>
16.1389

> <Gold.Chemscore.DG>
-17.8948

> <Gold.Chemscore.ZeroCoef>
-5.4800

> <Gold.Chemscore.Hbond>
0.6323

> <Gold.Chemscore.Metal>
0.0000

> <Gold.Chemscore.Lipo>
133.0744

> <Gold.Chemscore.Internal_Hbond>
0.0000

> <Gold.Chemscore.DEClash>
1.0286

> <Gold.Chemscore.DEInternal>
0.7272

> <Gold.Chemscore.Rot>
2.0574

> <Gold.Chemscore.Internal.Correction>
   9.000000E+99

> <Gold.Chemscore.Hbonds>
donor molecule, donor type, donor heavy atom, donor atom, acceptor molecule, acceptor atom, score
      P1  H  7989  7998       L1     9  0.19

> <Gold.Chemscore.Hbond.Weighted>
-2.1119

> <Gold.Chemscore.Metal.Weighted>
-0.0000

> <Gold.Chemscore.Lipo.Weighted>
-15.5697

> <Gold.Chemscore.Internal_Hbond.Weighted>
0.0000

> <Gold.Chemscore.DEClash.Weighted>
1.0286

> <Gold.Chemscore.DEInternal.Weighted>
0.7272

> <Gold.Chemscore.Rot.Weighted>
5.2669

> <Gold.Chemscore.Internal.Correction.Weighted>
   9.000000E+99

> <Gold.Protein.RotatedTorsions>
[ 6907 6896 6895 6894 ] final   79.70 input  -60.11 | X-H torsion
[ 7974 7965 7964 7962 ] final  -58.07 input  175.53 | X-H torsion
[ 8008 7997 7996 7995 ] final -146.72 input   59.86 | X-H torsion
[ 10167 10162 10161 10158 ] final -148.19 input  -65.29 | X-H torsion
[ 10718 10713 10712 10709 ] final -134.95 input   66.30 | X-H torsion
[ 10763 10752 10751 10750 ] final   69.08 input  -60.55 | X-H torsion
[ 11005 11000 10999 10996 ] final  -62.77 input  -57.11 | X-H torsion

> <Gold.Protein.ActiveResidues>
 VAL166  LYS551  ARG553  GLY616  TRP617  ASP618  TYR619  PRO620  LYS621  CYS622 
 ASP623  PHE694  ASN695  SER759  ASP760  ASP761  ALA762  ILE779  LEU786  VAL792 
 PHE793  MET794  SER795  GLU796  ALA797  LYS798  CYS799  TRP800  GLU811  SER814 

> <Gold.Protein.RotatedAtoms>
  152.5208  134.3470  159.9237 H   0  0  0  0  0  0  0  0  0  0  0  0  # atno 6907 bound_to 6896
  151.3421  133.3952  159.2680 H   0  0  0  0  0  0  0  0  0  0  0  0  # atno 6908 bound_to 6896
  150.9795  134.9171  159.7894 H   0  0  0  0  0  0  0  0  0  0  0  0  # atno 6909 bound_to 6896
  145.8437  140.8400  143.0021 H   0  0  0  0  0  0  0  0  0  0  0  0  # atno 7974 bound_to 7965
  155.5640  140.0628  157.2822 H   0  0  0  0  0  0  0  0  0  0  0  0  # atno 8008 bound_to 7997
  154.4381  140.1880  156.0857 H   0  0  0  0  0  0  0  0  0  0  0  0  # atno 8009 bound_to 7997
  156.0426  140.3294  155.7264 H   0  0  0  0  0  0  0  0  0  0  0  0  # atno 8010 bound_to 7997
  139.7554  143.8456  152.2596 H   0  0  0  0  0  0  0  0  0  0  0  0  # atno 10167 bound_to 10162
  156.2609  130.7209  151.1143 H   0  0  0  0  0  0  0  0  0  0  0  0  # atno 10718 bound_to 10713
  153.0268  135.5224  154.7233 H   0  0  0  0  0  0  0  0  0  0  0  0  # atno 10763 bound_to 10752
  154.6282  135.2897  155.0249 H   0  0  0  0  0  0  0  0  0  0  0  0  # atno 10764 bound_to 10752
  154.1211  135.6607  153.4955 H   0  0  0  0  0  0  0  0  0  0  0  0  # atno 10765 bound_to 10752
  141.1371  133.6644  156.5578 H   0  0  0  0  0  0  0  0  0  0  0  0  # atno 11005 bound_to 11000
  144.6732  140.0850  143.7467 LP  0  0  0  0  0  0  0  0  0  0  0  0  # atno 17320 bound_to 7965
  145.9436  139.2686  143.1254 LP  0  0  0  0  0  0  0  0  0  0  0  0  # atno 17321 bound_to 7965
  139.8447  144.7193  150.9288 LP  0  0  0  0  0  0  0  0  0  0  0  0  # atno 17342 bound_to 10162
  140.7802  143.3952  151.1242 LP  0  0  0  0  0  0  0  0  0  0  0  0  # atno 17343 bound_to 10162
  157.7250  131.0656  150.5971 LP  0  0  0  0  0  0  0  0  0  0  0  0  # atno 17370 bound_to 10713
  156.6059  130.4367  149.5878 LP  0  0  0  0  0  0  0  0  0  0  0  0  # atno 17371 bound_to 10713
  140.4012  134.7354  157.4781 LP  0  0  0  0  0  0  0  0  0  0  0  0  # atno 17394 bound_to 11000
  140.0494  134.6152  155.8880 LP  0  0  0  0  0  0  0  0  0  0  0  0  # atno 17395 bound_to 11000

$$$$
