AV-unprocessed.smi:1623|AV-procd|sdf|6501|dock2
  -GOLD-   22720 7163D 1   1.00000     0.00000
 Structure written by MMmdl.
 42 43  0  0  0  0  0  0  0  0  1 V2000
  147.0777  136.9270  162.9744 C   0  0  0  0  0  0  0  0  0  0  0  0
  147.6824  136.1613  161.8288 C   0  0  0  0  0  0  0  0  0  0  0  0
  148.4559  136.8239  161.0330 N   0  0  0  0  0  0  0  0  0  0  0  0
  149.0591  136.2193  159.9472 N   0  0  0  0  0  0  0  0  0  0  0  0
  149.9004  137.1214  159.1526 C   0  0  0  0  0  0  0  0  0  0  0  0
  149.3311  137.3478  157.7346 C   0  0  2  0  0  0  0  0  0  0  0  0
  149.6101  136.2460  156.8951 O   0  0  0  0  0  0  0  0  0  0  0  0
  149.9065  138.6032  157.0596 C   0  0  0  0  0  0  0  0  0  0  0  0
  149.7873  139.7147  157.9376 O   0  0  0  0  0  0  0  0  0  0  0  0
  150.1645  140.9564  157.3611 C   0  0  0  0  0  0  0  0  0  0  0  0
  151.1054  141.7650  158.2429 C   0  0  0  0  0  0  0  0  0  0  0  0
  150.8250  143.1270  158.4862 C   0  0  0  0  0  0  0  0  0  0  0  0
  151.6777  143.8961  159.3007 C   0  0  0  0  0  0  0  0  0  0  0  0
  152.8199  143.3084  159.8753 C   0  0  0  0  0  0  0  0  0  0  0  0
  153.1094  141.9524  159.6326 C   0  0  0  0  0  0  0  0  0  0  0  0
  152.2592  141.1784  158.8174 C   0  0  0  0  0  0  0  0  0  0  0  0
  152.6553  139.5184  158.5404 Cl  0  0  0  0  0  0  0  0  0  0  0  0
  148.9021  134.9103  159.6005 C   0  0  0  0  0  0  0  0  0  0  0  0
  149.4493  134.4137  158.6148 O   0  0  0  0  0  0  0  0  0  0  0  0
  148.0285  134.1641  160.5090 C   0  0  0  0  0  0  0  0  0  0  0  0
  147.8379  132.7873  160.1849 C   0  0  0  0  0  0  0  0  0  0  0  0
  147.7050  131.6665  159.9270 N   0  0  0  0  0  0  0  0  0  0  0  0
  147.4397  134.7428  161.5853 C   0  0  0  0  0  0  0  0  0  0  0  0
  146.5243  134.0096  162.5563 C   0  0  0  0  0  0  0  0  0  0  0  0
  145.9972  136.7877  163.0084 H   0  0  0  0  0  0  0  0  0  0  0  0
  147.2659  137.9987  162.8913 H   0  0  0  0  0  0  0  0  0  0  0  0
  147.4931  136.5906  163.9245 H   0  0  0  0  0  0  0  0  0  0  0  0
  149.9420  138.0798  159.6742 H   0  0  0  0  0  0  0  0  0  0  0  0
  150.9380  136.7848  159.1111 H   0  0  0  0  0  0  0  0  0  0  0  0
  148.2468  137.4583  157.7801 H   0  0  0  0  0  0  0  0  0  0  0  0
  150.1111  135.6144  157.3886 H   0  0  0  0  0  0  0  0  0  0  0  0
  150.9462  138.4532  156.7640 H   0  0  0  0  0  0  0  0  0  0  0  0
  149.3403  138.7922  156.1468 H   0  0  0  0  0  0  0  0  0  0  0  0
  150.6757  140.7507  156.4203 H   0  0  0  0  0  0  0  0  0  0  0  0
  149.2752  141.5346  157.1049 H   0  0  0  0  0  0  0  0  0  0  0  0
  149.9501  143.5875  158.0514 H   0  0  0  0  0  0  0  0  0  0  0  0
  151.4553  144.9370  159.4843 H   0  0  0  0  0  0  0  0  0  0  0  0
  153.4749  143.8974  160.5003 H   0  0  0  0  0  0  0  0  0  0  0  0
  153.9883  141.5052  160.0734 H   0  0  0  0  0  0  0  0  0  0  0  0
  146.5391  132.9314  162.3998 H   0  0  0  0  0  0  0  0  0  0  0  0
  145.4953  134.3492  162.4356 H   0  0  0  0  0  0  0  0  0  0  0  0
  146.8275  134.1881  163.5884 H   0  0  0  0  0  0  0  0  0  0  0  0
  1  2  1  0  0  0  0
  1 25  1  0  0  0  0
  1 26  1  0  0  0  0
  1 27  1  0  0  0  0
  2 23  1  0  0  0  0
  2  3  2  0  0  0  0
  3  4  1  0  0  0  0
  4  5  1  0  0  0  0
  4 18  1  0  0  0  0
  5  6  1  0  0  0  0
  5 28  1  0  0  0  0
  5 29  1  0  0  0  0
  6  7  1  0  0  0  0
  6  8  1  0  0  0  0
  6 30  1  0  0  0  0
  7 31  1  0  0  0  0
  8  9  1  0  0  0  0
  8 32  1  0  0  0  0
  8 33  1  0  0  0  0
  9 10  1  0  0  0  0
 10 11  1  0  0  0  0
 10 34  1  0  0  0  0
 10 35  1  0  0  0  0
 11 16  1  0  0  0  0
 11 12  2  0  0  0  0
 12 13  1  0  0  0  0
 12 36  1  0  0  0  0
 13 14  2  0  0  0  0
 13 37  1  0  0  0  0
 14 15  1  0  0  0  0
 14 38  1  0  0  0  0
 15 16  2  0  0  0  0
 15 39  1  0  0  0  0
 16 17  1  0  0  0  0
 18 19  2  0  0  0  0
 18 20  1  0  0  0  0
 20 21  1  0  0  0  0
 20 23  2  0  0  0  0
 21 22  3  0  0  0  0
 23 24  1  0  0  0  0
 24 40  1  0  0  0  0
 24 41  1  0  0  0  0
 24 42  1  0  0  0  0
M  END
> <s_m_source_file>
AV-unprocessed.smi

> <i_m_source_file_index>
1623

> <i_lp_mmshare_version>
43012

> <i_f3d_flags>
0

> <s_epik_input>
TiNDYyhjMVtDSDNdKWMoPU8pbihuYzFbQ0gzXSlbQ0gyXVtDQEhdKFtPSF0pW0NIMl1PW0NIMl1jMltjSF1bY0hdW2NIXVtjSF1jMkNs

> <s_epik_cmdline>
J2VwaWtfcHl0aG9uJywgJy1waCcsICc3LjAnLCAnLXRuJywgJzgnLCAnLW1hJywgJzIwMCcsICctbWV0YWxfYmluZGluZycsICctaW1hZScsICc8aW5maWxlLm1hZT4nLCAnLW9tYWUnLCAnPG91dGZpbGUubWFlPic=

> <r_lp_tautomer_probability>
1

> <r_epik_Ionization_Penalty>
6.50533e-08

> <r_epik_Ionization_Penalty_Charging>
2.19172e-10

> <r_epik_Ionization_Penalty_Neutral>
6.48342e-08

> <r_epik_State_Penalty>
-0

> <r_epik_Charging_Adjusted_Penalty>
2.19172e-10

> <i_epik_Tot_Q>
0

> <i_epik_Tot_abs_Q>
0

> <r_epik_Metal_State_Penalty>
-0

> <b_epik_Metal_Only>
0

> <s_lp_Force_Field>
OPLS_2005

> <r_lp_Energy>
31.4415

> <b_lp_Chiralities_Consistent>
1

> <s_lp_Variant>
AV-unprocessed.smi:1623-1

> <Gold.Version>
5.8.1

> <Gold.Id.Protein>
6NUR|6NUR_protein|mol2

> <Gold.PLP.Fitness>
49.3490

> <Gold.PLP.PLP>
-42.3544

> <Gold.PLP.part.hbond>
-3.0000

> <Gold.PLP.part.metal>
0.0000

> <Gold.PLP.part.buried>
-4.3590

> <Gold.PLP.part.nonpolar>
-35.7076

> <Gold.PLP.part.repulsive>
0.0000

> <Gold.PLP.ligand.clash>
0.0000

> <Gold.PLP.ligand.torsion>
0.6881

> <Gold.PLP.Chemscore.Hbond>
2.7280

> <Gold.PLP.Chemscore.CHOScore>
0.0000

> <Gold.PLP.Chemscore.Metal>
0.0000

> <Gold.Chemscore.Hbonds>
donor molecule, donor type, donor heavy atom, donor atom, acceptor molecule, acceptor atom, score
      P1  H  6896  6908       L1    19  0.17
      P1  H  6931  6943       L1     3  1.00

> <Gold.PLP.Chemscore.Internal.Correction>
0.1867

> <Gold.Rescore>
     Score         DG    S(hbond)    S(metal)    S(lipo)     H(rot)  DE(clash)    DE(int)     intcor
     15.58     -18.11       1.76        0.00     111.99       2.48       0.21       2.33       ----

> <Gold.Chemscore.Fitness>
15.5793

> <Gold.Chemscore.DG>
-18.1123

> <Gold.Chemscore.ZeroCoef>
-5.4800

> <Gold.Chemscore.Hbond>
1.7582

> <Gold.Chemscore.Metal>
0.0000

> <Gold.Chemscore.Lipo>
111.9888

> <Gold.Chemscore.Internal_Hbond>
0.0000

> <Gold.Chemscore.DEClash>
0.2078

> <Gold.Chemscore.DEInternal>
2.3252

> <Gold.Chemscore.Rot>
2.4777

> <Gold.Chemscore.Internal.Correction>
   9.000000E+99

> <Gold.Chemscore.Hbonds>
donor molecule, donor type, donor heavy atom, donor atom, acceptor molecule, acceptor atom, score
      P1  H  6931  6943       L1     3  0.64

> <Gold.Chemscore.Hbond.Weighted>
-5.8724

> <Gold.Chemscore.Metal.Weighted>
-0.0000

> <Gold.Chemscore.Lipo.Weighted>
-13.1027

> <Gold.Chemscore.Internal_Hbond.Weighted>
0.0000

> <Gold.Chemscore.DEClash.Weighted>
0.2078

> <Gold.Chemscore.DEInternal.Weighted>
2.3252

> <Gold.Chemscore.Rot.Weighted>
6.3428

> <Gold.Chemscore.Internal.Correction.Weighted>
   9.000000E+99

> <Gold.Protein.RotatedTorsions>
[ 6907 6896 6895 6894 ] final  158.72 input  -60.11 | X-H torsion
[ 7974 7965 7964 7962 ] final    4.02 input  175.53 | X-H torsion
[ 8008 7997 7996 7995 ] final    0.31 input   59.86 | X-H torsion
[ 10167 10162 10161 10158 ] final -142.54 input  -65.29 | X-H torsion
[ 10718 10713 10712 10709 ] final   96.21 input   66.30 | X-H torsion
[ 10763 10752 10751 10750 ] final  -58.32 input  -60.55 | X-H torsion
[ 11005 11000 10999 10996 ] final  -61.18 input  -57.11 | X-H torsion

> <Gold.Protein.ActiveResidues>
 VAL166  LYS551  ARG553  GLY616  TRP617  ASP618  TYR619  PRO620  LYS621  CYS622 
 ASP623  PHE694  ASN695  SER759  ASP760  ASP761  ALA762  ILE779  LEU786  VAL792 
 PHE793  MET794  SER795  GLU796  ALA797  LYS798  CYS799  TRP800  GLU811  SER814 

> <Gold.Protein.RotatedAtoms>
  151.9962  133.3809  159.4163 H   0  0  0  0  0  0  0  0  0  0  0  0  # atno 6907 bound_to 6896
  150.6915  134.3883  159.5074 H   0  0  0  0  0  0  0  0  0  0  0  0  # atno 6908 bound_to 6896
  152.1624  134.8901  160.0591 H   0  0  0  0  0  0  0  0  0  0  0  0  # atno 6909 bound_to 6896
  146.2444  140.0598  142.8369 H   0  0  0  0  0  0  0  0  0  0  0  0  # atno 7974 bound_to 7965
  154.6666  140.2602  155.7051 H   0  0  0  0  0  0  0  0  0  0  0  0  # atno 8008 bound_to 7997
  156.2641  140.2838  156.1081 H   0  0  0  0  0  0  0  0  0  0  0  0  # atno 8009 bound_to 7997
  155.1229  140.0377  157.2745 H   0  0  0  0  0  0  0  0  0  0  0  0  # atno 8010 bound_to 7997
  139.8079  143.7743  152.2662 H   0  0  0  0  0  0  0  0  0  0  0  0  # atno 10167 bound_to 10162
  157.6929  131.0571  150.4457 H   0  0  0  0  0  0  0  0  0  0  0  0  # atno 10718 bound_to 10713
  154.2363  135.6351  153.5192 H   0  0  0  0  0  0  0  0  0  0  0  0  # atno 10763 bound_to 10752
  152.9939  135.5531  154.5959 H   0  0  0  0  0  0  0  0  0  0  0  0  # atno 10764 bound_to 10752
  154.5454  135.2897  155.1032 H   0  0  0  0  0  0  0  0  0  0  0  0  # atno 10765 bound_to 10752
  141.1315  133.6628  156.5335 H   0  0  0  0  0  0  0  0  0  0  0  0  # atno 11005 bound_to 11000
  145.0910  140.9284  143.4769 LP  0  0  0  0  0  0  0  0  0  0  0  0  # atno 17320 bound_to 7965
  145.0771  139.2988  143.5802 LP  0  0  0  0  0  0  0  0  0  0  0  0  # atno 17321 bound_to 7965
  139.7883  144.7419  150.9990 LP  0  0  0  0  0  0  0  0  0  0  0  0  # atno 17342 bound_to 10162
  140.7819  143.4469  151.0470 LP  0  0  0  0  0  0  0  0  0  0  0  0  # atno 17343 bound_to 10162
  156.4812  130.4074  149.6460 LP  0  0  0  0  0  0  0  0  0  0  0  0  # atno 17370 bound_to 10713
  156.3505  130.7429  151.2388 LP  0  0  0  0  0  0  0  0  0  0  0  0  # atno 17371 bound_to 10713
  140.4196  134.7199  157.4882 LP  0  0  0  0  0  0  0  0  0  0  0  0  # atno 17394 bound_to 11000
  140.0369  134.6324  155.9032 LP  0  0  0  0  0  0  0  0  0  0  0  0  # atno 17395 bound_to 11000

$$$$
