AV-unprocessed.smi:2385|AV-procd|sdf|9465|dock9
  -GOLD-   2272013 93D 1   1.00000     0.00000
 Structure written by MMmdl.
 50 52  0  0  0  0  0  0  0  0  2 V2000
  154.0192  141.7153  160.7350 C   0  0  0  0  0  0  0  0  0  0  0  0
  152.9775  141.9052  159.6525 C   0  0  0  0  0  0  0  0  0  0  0  0
  152.4547  143.1798  159.3639 C   0  0  0  0  0  0  0  0  0  0  0  0
  151.4892  143.3026  158.3463 C   0  0  0  0  0  0  0  0  0  0  0  0
  151.0707  142.1517  157.6417 C   0  0  0  0  0  0  0  0  0  0  0  0
  150.0925  142.3844  156.6385 N   0  0  0  0  0  0  0  0  0  0  0  0
  149.5139  141.4903  155.8178 C   0  0  0  0  0  0  0  0  0  0  0  0
  149.7517  140.2827  155.7947 O   0  0  0  0  0  0  0  0  0  0  0  0
  148.6285  142.0832  155.0035 N   0  0  0  0  0  0  0  0  0  0  0  0
  147.8163  141.4029  153.9949 C   0  0  2  0  0  0  0  0  0  0  0  0
  146.8348  142.3647  153.2991 C   0  0  0  0  0  0  0  0  0  0  0  0
  145.7163  142.8310  154.2475 C   0  0  0  0  0  0  0  0  0  0  0  0
  144.9811  141.6798  154.8364 N   0  3  2  0  0  0  0  0  0  0  0  0
  143.8275  142.1272  155.6624 C   0  0  0  0  0  0  0  0  0  0  0  0
  143.1918  143.4482  155.1760 C   0  0  2  0  0  0  0  0  0  0  0  0
  143.7994  144.6707  155.8424 C   0  0  0  0  0  0  0  0  0  0  0  0
  142.7124  145.7161  155.6447 C   0  0  0  0  0  0  0  0  0  0  0  0
  141.5131  144.9942  155.8729 O   0  0  0  0  0  0  0  0  0  0  0  0
  141.6989  143.6325  155.4967 C   0  0  0  0  0  0  0  0  0  0  0  0
  145.9020  140.7572  155.5535 C   0  0  0  0  0  0  0  0  0  0  0  0
  147.0270  140.2488  154.6328 C   0  0  0  0  0  0  0  0  0  0  0  0
  151.5824  140.9280  157.9248 N   0  0  0  0  0  0  0  0  0  0  0  0
  152.5074  140.8108  158.9010 C   0  0  0  0  0  0  0  0  0  0  0  0
  153.9694  142.5194  161.4699 H   0  0  0  0  0  0  0  0  0  0  0  0
  155.0179  141.7103  160.2983 H   0  0  0  0  0  0  0  0  0  0  0  0
  153.8663  140.7699  161.2561 H   0  0  0  0  0  0  0  0  0  0  0  0
  152.7851  144.0507  159.9109 H   0  0  0  0  0  0  0  0  0  0  0  0
  151.0772  144.2738  158.1133 H   0  0  0  0  0  0  0  0  0  0  0  0
  149.7972  143.3440  156.5381 H   0  0  0  0  0  0  0  0  0  0  0  0
  148.4942  143.0790  155.1000 H   0  0  0  0  0  0  0  0  0  0  0  0
  148.4905  140.9823  153.2466 H   0  0  0  0  0  0  0  0  0  0  0  0
  147.3638  143.2273  152.8921 H   0  0  0  0  0  0  0  0  0  0  0  0
  146.3862  141.8585  152.4433 H   0  0  0  0  0  0  0  0  0  0  0  0
  146.1297  143.4483  155.0466 H   0  0  0  0  0  0  0  0  0  0  0  0
  145.0251  143.4626  153.6877 H   0  0  0  0  0  0  0  0  0  0  0  0
  143.0847  141.3330  155.7505 H   0  0  0  0  0  0  0  0  0  0  0  0
  144.1896  142.3061  156.6761 H   0  0  0  0  0  0  0  0  0  0  0  0
  143.3402  143.5532  154.0999 H   0  0  0  0  0  0  0  0  0  0  0  0
  143.9517  144.4926  156.9081 H   0  0  0  0  0  0  0  0  0  0  0  0
  144.7538  144.9657  155.4057 H   0  0  0  0  0  0  0  0  0  0  0  0
  142.8079  146.5626  156.3251 H   0  0  0  0  0  0  0  0  0  0  0  0
  142.7186  146.0931  154.6210 H   0  0  0  0  0  0  0  0  0  0  0  0
  141.0747  143.3966  154.6345 H   0  0  0  0  0  0  0  0  0  0  0  0
  141.3809  143.0018  156.3273 H   0  0  0  0  0  0  0  0  0  0  0  0
  146.3236  141.2641  156.4230 H   0  0  0  0  0  0  0  0  0  0  0  0
  145.3587  139.8936  155.9282 H   0  0  0  0  0  0  0  0  0  0  0  0
  146.5907  139.6345  153.8440 H   0  0  0  0  0  0  0  0  0  0  0  0
  147.6989  139.5934  155.1883 H   0  0  0  0  0  0  0  0  0  0  0  0
  152.8819  139.8146  159.0852 H   0  0  0  0  0  0  0  0  0  0  0  0
  144.5949  141.1673  154.0562 H   0  0  0  0  0  0  0  0  0  0  0  0
  1  2  1  0  0  0  0
  1 24  1  0  0  0  0
  1 25  1  0  0  0  0
  1 26  1  0  0  0  0
  2 23  1  0  0  0  0
  2  3  2  0  0  0  0
  3  4  1  0  0  0  0
  3 27  1  0  0  0  0
  4  5  2  0  0  0  0
  4 28  1  0  0  0  0
  5  6  1  0  0  0  0
  5 22  1  0  0  0  0
  6  7  1  0  0  0  0
  6 29  1  0  0  0  0
  7  8  2  0  0  0  0
  7  9  1  0  0  0  0
  9 10  1  0  0  0  0
  9 30  1  0  0  0  0
 10 21  1  0  0  0  0
 10 11  1  0  0  0  0
 10 31  1  0  0  0  0
 11 12  1  0  0  0  0
 11 32  1  0  0  0  0
 11 33  1  0  0  0  0
 12 13  1  0  0  0  0
 12 34  1  0  0  0  0
 12 35  1  0  0  0  0
 13 14  1  0  0  0  0
 13 20  1  0  0  0  0
 13 50  1  0  0  0  0
 14 15  1  0  0  0  0
 14 36  1  0  0  0  0
 14 37  1  0  0  0  0
 15 19  1  0  0  0  0
 15 16  1  0  0  0  0
 15 38  1  0  0  0  0
 16 17  1  0  0  0  0
 16 39  1  0  0  0  0
 16 40  1  0  0  0  0
 17 18  1  0  0  0  0
 17 41  1  0  0  0  0
 17 42  1  0  0  0  0
 18 19  1  0  0  0  0
 19 43  1  0  0  0  0
 19 44  1  0  0  0  0
 20 21  1  0  0  0  0
 20 45  1  0  0  0  0
 20 46  1  0  0  0  0
 21 47  1  0  0  0  0
 21 48  1  0  0  0  0
 22 23  2  0  0  0  0
 23 49  1  0  0  0  0
M  CHG  1  13   1
M  END
> <s_m_source_file>
AV-unprocessed.smi

> <i_m_source_file_index>
2385

> <i_lp_mmshare_version>
43012

> <i_f3d_flags>
0

> <s_epik_input>
W0NIM11jMVtjSF1bY0hdYyhuW2NIXTEpW05IXUMoPU8pW05IXVtDSF0yW0NIMl1bQ0gyXU4oW0NIMl1bQ0gyXTIpW0NIMl1bQ0BASF0zW0NIMl1bQ0gyXU9bQ0gyXTM=

> <s_epik_cmdline>
J2VwaWtfcHl0aG9uJywgJy1waCcsICc3LjAnLCAnLXRuJywgJzgnLCAnLW1hJywgJzIwMCcsICctbWV0YWxfYmluZGluZycsICctaW1hZScsICc8aW5maWxlLm1hZT4nLCAnLW9tYWUnLCAnPG91dGZpbGUubWFlPic=

> <r_epik_Ionization_Penalty>
0.00752367

> <r_epik_Ionization_Penalty_Charging>
0.00747775

> <r_epik_Ionization_Penalty_Neutral>
4.59207e-05

> <r_epik_State_Penalty>
0.00558817

> <r_epik_Charging_Adjusted_Penalty>
0.0130659

> <i_epik_Tot_Q>
1

> <i_epik_Tot_abs_Q>
1

> <r_epik_Metal_State_Penalty>
-0

> <b_epik_Metal_Only>
0

> <s_lp_Force_Field>
OPLS_2005

> <r_lp_Energy>
35.6171

> <b_lp_Chiralities_Consistent>
1

> <s_lp_Variant>
AV-unprocessed.smi:2385-3

> <Gold.Version>
5.8.1

> <Gold.Id.Protein>
6NUR|6NUR_protein|mol2

> <Gold.PLP.Fitness>
49.8611

> <Gold.PLP.PLP>
-39.2084

> <Gold.PLP.part.hbond>
-2.9741

> <Gold.PLP.part.metal>
0.0000

> <Gold.PLP.part.buried>
-7.9473

> <Gold.PLP.part.nonpolar>
-29.6935

> <Gold.PLP.part.repulsive>
0.2977

> <Gold.PLP.ligand.clash>
0.0000

> <Gold.PLP.ligand.torsion>
0.6877

> <Gold.PLP.Chemscore.Hbond>
4.0000

> <Gold.PLP.Chemscore.CHOScore>
0.0000

> <Gold.PLP.Chemscore.Metal>
0.0000

> <Gold.Chemscore.Hbonds>
donor molecule, donor type, donor heavy atom, donor atom, acceptor molecule, acceptor atom, score
      L1  H     6    29       P1  8028  1.00
      L1  H     9    30       P1  8028  1.00
      L1  H    13    50       P1 10175  2.00

> <Gold.PLP.Chemscore.Internal.Correction>
0.0281

> <Gold.Rescore>
     Score         DG    S(hbond)    S(metal)    S(lipo)     H(rot)  DE(clash)    DE(int)     intcor
     17.91     -22.94       2.66        0.00     104.15       1.41       1.86       3.17       ----

> <Gold.Chemscore.Fitness>
17.9118

> <Gold.Chemscore.DG>
-22.9419

> <Gold.Chemscore.ZeroCoef>
-5.4800

> <Gold.Chemscore.Hbond>
2.6572

> <Gold.Chemscore.Metal>
0.0000

> <Gold.Chemscore.Lipo>
104.1453

> <Gold.Chemscore.Internal_Hbond>
0.0000

> <Gold.Chemscore.DEClash>
1.8560

> <Gold.Chemscore.DEInternal>
3.1740

> <Gold.Chemscore.Rot>
1.4056

> <Gold.Chemscore.Internal.Correction>
   9.000000E+99

> <Gold.Chemscore.Hbonds>
donor molecule, donor type, donor heavy atom, donor atom, acceptor molecule, acceptor atom, score
      L1  H     6    29       P1  8028  0.97
      L1  H     9    30       P1  8028  0.99
      L1  H    13    50       P1 10175  0.70

> <Gold.Chemscore.Hbond.Weighted>
-8.8752

> <Gold.Chemscore.Metal.Weighted>
-0.0000

> <Gold.Chemscore.Lipo.Weighted>
-12.1850

> <Gold.Chemscore.Internal_Hbond.Weighted>
0.0000

> <Gold.Chemscore.DEClash.Weighted>
1.8560

> <Gold.Chemscore.DEInternal.Weighted>
3.1740

> <Gold.Chemscore.Rot.Weighted>
3.5982

> <Gold.Chemscore.Internal.Correction.Weighted>
   9.000000E+99

> <Gold.Protein.RotatedTorsions>
[ 6907 6896 6895 6894 ] final    0.50 input  -60.11 | X-H torsion
[ 7974 7965 7964 7962 ] final    2.74 input  175.53 | X-H torsion
[ 8008 7997 7996 7995 ] final   17.47 input   59.86 | X-H torsion
[ 10167 10162 10161 10158 ] final   85.49 input  -65.29 | X-H torsion
[ 10718 10713 10712 10709 ] final  101.55 input   66.30 | X-H torsion
[ 10763 10752 10751 10750 ] final  168.55 input  -60.55 | X-H torsion
[ 11005 11000 10999 10996 ] final -154.44 input  -57.11 | X-H torsion

> <Gold.Protein.ActiveResidues>
 VAL166  LYS551  ARG553  GLY616  TRP617  ASP618  TYR619  PRO620  LYS621  CYS622 
 ASP623  PHE694  ASN695  SER759  ASP760  ASP761  ALA762  ILE779  LEU786  VAL792 
 PHE793  MET794  SER795  GLU796  ALA797  LYS798  CYS799  TRP800  GLU811  SER814 

> <Gold.Protein.RotatedAtoms>
  151.5774  135.1060  160.0009 H   0  0  0  0  0  0  0  0  0  0  0  0  # atno 6907 bound_to 6896
  152.4371  133.7376  159.6633 H   0  0  0  0  0  0  0  0  0  0  0  0  # atno 6908 bound_to 6896
  150.8270  133.8085  159.3137 H   0  0  0  0  0  0  0  0  0  0  0  0  # atno 6909 bound_to 6896
  146.2444  140.0790  142.8358 H   0  0  0  0  0  0  0  0  0  0  0  0  # atno 7974 bound_to 7965
  154.8919  140.2988  155.5366 H   0  0  0  0  0  0  0  0  0  0  0  0  # atno 8008 bound_to 7997
  156.3021  140.2423  156.3870 H   0  0  0  0  0  0  0  0  0  0  0  0  # atno 8009 bound_to 7997
  154.8610  140.0405  157.1654 H   0  0  0  0  0  0  0  0  0  0  0  0  # atno 8010 bound_to 7997
  139.8972  144.6351  150.8675 H   0  0  0  0  0  0  0  0  0  0  0  0  # atno 10167 bound_to 10162
  157.6826  131.0729  150.5269 H   0  0  0  0  0  0  0  0  0  0  0  0  # atno 10718 bound_to 10713
  154.3702  135.2753  155.2270 H   0  0  0  0  0  0  0  0  0  0  0  0  # atno 10763 bound_to 10752
  154.4421  135.5952  153.6139 H   0  0  0  0  0  0  0  0  0  0  0  0  # atno 10764 bound_to 10752
  152.9839  135.6021  154.3933 H   0  0  0  0  0  0  0  0  0  0  0  0  # atno 10765 bound_to 10752
  140.6973  134.3976  157.5213 H   0  0  0  0  0  0  0  0  0  0  0  0  # atno 11005 bound_to 11000
  145.0749  140.9181  143.4860 LP  0  0  0  0  0  0  0  0  0  0  0  0  # atno 17320 bound_to 7965
  145.0931  139.2875  143.5724 LP  0  0  0  0  0  0  0  0  0  0  0  0  # atno 17321 bound_to 7965
  140.7714  143.3464  151.2102 LP  0  0  0  0  0  0  0  0  0  0  0  0  # atno 17342 bound_to 10162
  139.7057  143.9459  152.2925 LP  0  0  0  0  0  0  0  0  0  0  0  0  # atno 17343 bound_to 10162
  156.5580  130.4248  149.6076 LP  0  0  0  0  0  0  0  0  0  0  0  0  # atno 17370 bound_to 10713
  156.2845  130.7090  151.1923 LP  0  0  0  0  0  0  0  0  0  0  0  0  # atno 17371 bound_to 10713
  139.8906  134.8799  156.2359 LP  0  0  0  0  0  0  0  0  0  0  0  0  # atno 17394 bound_to 11000
  141.0193  133.7051  156.1241 LP  0  0  0  0  0  0  0  0  0  0  0  0  # atno 17395 bound_to 11000

$$$$
