AV-unprocessed.smi:946|AV-procd|sdf|4234|dock2
  -GOLD-   22720 2143D 1   1.00000     0.00000
 Structure written by MMmdl.
 42 43  0  0  0  0  0  0  0  0  1 V2000
  149.0031  138.1952  156.7655 C   0  0  0  0  0  0  0  0  0  0  0  0
  149.4726  138.1076  158.2254 C   0  0  2  0  0  0  0  0  0  0  0  0
  150.8868  138.2805  158.2321 O   0  0  0  0  0  0  0  0  0  0  0  0
  151.3415  139.6046  157.9780 C   0  0  0  0  0  0  0  0  0  0  0  0
  152.3393  139.9999  159.0740 C   0  0  2  0  0  0  0  0  0  0  0  0
  152.3459  141.5206  159.3265 C   0  0  0  0  0  0  0  0  0  0  0  0
  153.4165  141.8910  160.3596 C   0  0  0  0  0  0  0  0  0  0  0  0
  154.7715  141.3203  159.9279 C   0  0  0  0  0  0  0  0  0  0  0  0
  154.6475  139.8171  159.6344 C   0  0  0  0  0  0  0  0  0  0  0  0
  153.6410  139.5992  158.6506 O   0  0  0  0  0  0  0  0  0  0  0  0
  149.0970  136.7574  158.8573 C   0  0  0  0  0  0  0  0  0  0  0  0
  149.5058  135.7119  158.3508 O   0  0  0  0  0  0  0  0  0  0  0  0
  148.3368  136.8228  159.9667 N   0  0  0  0  0  0  0  0  0  0  0  0
  147.8305  135.7519  160.7494 C   0  0  0  0  0  0  0  0  0  0  0  0
  147.2144  136.1335  161.9615 C   0  0  0  0  0  0  0  0  0  0  0  0
  146.6787  135.1433  162.8064 C   0  0  0  0  0  0  0  0  0  0  0  0
  146.7699  133.7952  162.4174 C   0  0  0  0  0  0  0  0  0  0  0  0
  147.3980  133.4943  161.1901 C   0  0  0  0  0  0  0  0  0  0  0  0
  147.5351  132.0624  160.6925 C   0  0  0  0  0  0  0  0  0  0  0  0
  148.1214  132.0093  159.4958 F   0  0  0  0  0  0  0  0  0  0  0  0
  148.2691  131.3564  161.5529 F   0  0  0  0  0  0  0  0  0  0  0  0
  146.3290  131.5025  160.5960 F   0  0  0  0  0  0  0  0  0  0  0  0
  147.9120  134.4494  160.3826 N   0  0  0  0  0  0  0  0  0  0  0  0
  147.9257  138.0457  156.6854 H   0  0  0  0  0  0  0  0  0  0  0  0
  149.4935  137.4482  156.1401 H   0  0  0  0  0  0  0  0  0  0  0  0
  149.2314  139.1751  156.3458 H   0  0  0  0  0  0  0  0  0  0  0  0
  149.0030  138.9215  158.7817 H   0  0  0  0  0  0  0  0  0  0  0  0
  151.8111  139.6715  156.9952 H   0  0  0  0  0  0  0  0  0  0  0  0
  150.4991  140.2970  157.9869 H   0  0  0  0  0  0  0  0  0  0  0  0
  152.0757  139.4808  159.9972 H   0  0  0  0  0  0  0  0  0  0  0  0
  152.5426  142.0486  158.3925 H   0  0  0  0  0  0  0  0  0  0  0  0
  151.3662  141.8519  159.6724 H   0  0  0  0  0  0  0  0  0  0  0  0
  153.4778  142.9735  160.4759 H   0  0  0  0  0  0  0  0  0  0  0  0
  153.1409  141.4851  161.3337 H   0  0  0  0  0  0  0  0  0  0  0  0
  155.1201  141.8380  159.0334 H   0  0  0  0  0  0  0  0  0  0  0  0
  155.5188  141.4945  160.7023 H   0  0  0  0  0  0  0  0  0  0  0  0
  155.5951  139.4288  159.2611 H   0  0  0  0  0  0  0  0  0  0  0  0
  154.4110  139.2601  160.5422 H   0  0  0  0  0  0  0  0  0  0  0  0
  148.0956  137.7489  160.2876 H   0  0  0  0  0  0  0  0  0  0  0  0
  147.1518  137.1738  162.2462 H   0  0  0  0  0  0  0  0  0  0  0  0
  146.2052  135.4146  163.7383 H   0  0  0  0  0  0  0  0  0  0  0  0
  146.3653  133.0185  163.0496 H   0  0  0  0  0  0  0  0  0  0  0  0
  1  2  1  0  0  0  0
  1 24  1  0  0  0  0
  1 25  1  0  0  0  0
  1 26  1  0  0  0  0
  2  3  1  0  0  0  0
  2 11  1  0  0  0  0
  2 27  1  0  0  0  0
  3  4  1  0  0  0  0
  4  5  1  0  0  0  0
  4 28  1  0  0  0  0
  4 29  1  0  0  0  0
  5 10  1  0  0  0  0
  5  6  1  0  0  0  0
  5 30  1  0  0  0  0
  6  7  1  0  0  0  0
  6 31  1  0  0  0  0
  6 32  1  0  0  0  0
  7  8  1  0  0  0  0
  7 33  1  0  0  0  0
  7 34  1  0  0  0  0
  8  9  1  0  0  0  0
  8 35  1  0  0  0  0
  8 36  1  0  0  0  0
  9 10  1  0  0  0  0
  9 37  1  0  0  0  0
  9 38  1  0  0  0  0
 11 12  2  0  0  0  0
 11 13  1  0  0  0  0
 13 14  1  0  0  0  0
 13 39  1  0  0  0  0
 14 23  1  0  0  0  0
 14 15  2  0  0  0  0
 15 16  1  0  0  0  0
 15 40  1  0  0  0  0
 16 17  2  0  0  0  0
 16 41  1  0  0  0  0
 17 18  1  0  0  0  0
 17 42  1  0  0  0  0
 18 19  1  0  0  0  0
 18 23  2  0  0  0  0
 19 20  1  0  0  0  0
 19 21  1  0  0  0  0
 19 22  1  0  0  0  0
M  END
> <s_m_source_file>
AV-unprocessed.smi

> <i_m_source_file_index>
946

> <i_lp_mmshare_version>
43012

> <i_f3d_flags>
0

> <s_epik_input>
TzFbQ0gyXVtDSDJdW0NIMl1bQ0gyXVtDQEhdMVtDSDJdT1tDQEBIXShbQ0gzXSlDKD1PKVtOSF1jMltjSF1bY0hdW2NIXWMobjIpQyhGKShGKUY=

> <s_epik_cmdline>
J2VwaWtfcHl0aG9uJywgJy1waCcsICc3LjAnLCAnLXRuJywgJzgnLCAnLW1hJywgJzIwMCcsICctbWV0YWxfYmluZGluZycsICctaW1hZScsICc8aW5maWxlLm1hZT4nLCAnLW9tYWUnLCAnPG91dGZpbGUubWFlPic=

> <r_lp_tautomer_probability>
1

> <r_epik_Ionization_Penalty>
1.32683e-06

> <r_epik_Ionization_Penalty_Charging>
0

> <r_epik_Ionization_Penalty_Neutral>
1.32683e-06

> <r_epik_State_Penalty>
-0

> <r_epik_Charging_Adjusted_Penalty>
0

> <i_epik_Tot_Q>
0

> <i_epik_Tot_abs_Q>
0

> <r_epik_Metal_State_Penalty>
-0

> <b_epik_Metal_Only>
0

> <s_lp_Force_Field>
OPLS_2005

> <r_lp_Energy>
15.1486

> <b_lp_Chiralities_Consistent>
1

> <s_lp_Variant>
AV-unprocessed.smi:946-1

> <Gold.Version>
5.8.1

> <Gold.Id.Protein>
6NUR|6NUR_protein|mol2

> <Gold.PLP.Fitness>
44.7244

> <Gold.PLP.PLP>
-40.8924

> <Gold.PLP.part.hbond>
-2.0000

> <Gold.PLP.part.metal>
0.0000

> <Gold.PLP.part.buried>
-5.3175

> <Gold.PLP.part.nonpolar>
-34.3904

> <Gold.PLP.part.repulsive>
0.2244

> <Gold.PLP.ligand.clash>
0.0000

> <Gold.PLP.ligand.torsion>
0.8312

> <Gold.PLP.Chemscore.Hbond>
1.7613

> <Gold.PLP.Chemscore.CHOScore>
0.0000

> <Gold.PLP.Chemscore.Metal>
0.0000

> <Gold.Chemscore.Hbonds>
donor molecule, donor type, donor heavy atom, donor atom, acceptor molecule, acceptor atom, score
      P1  H  6896  6909       L1    12  0.61
      P1  H  7997  8009       L1    10  0.70

> <Gold.PLP.Chemscore.Internal.Correction>
0.2106

> <Gold.Rescore>
     Score         DG    S(hbond)    S(metal)    S(lipo)     H(rot)  DE(clash)    DE(int)     intcor
     15.30     -17.93       1.86        0.00      91.68       1.76       0.18       2.44       ----

> <Gold.Chemscore.Fitness>
15.3047

> <Gold.Chemscore.DG>
-17.9267

> <Gold.Chemscore.ZeroCoef>
-5.4800

> <Gold.Chemscore.Hbond>
1.8608

> <Gold.Chemscore.Metal>
0.0000

> <Gold.Chemscore.Lipo>
91.6772

> <Gold.Chemscore.Internal_Hbond>
0.0000

> <Gold.Chemscore.DEClash>
0.1783

> <Gold.Chemscore.DEInternal>
2.4437

> <Gold.Chemscore.Rot>
1.7557

> <Gold.Chemscore.Internal.Correction>
   9.000000E+99

> <Gold.Chemscore.Hbonds>
donor molecule, donor type, donor heavy atom, donor atom, acceptor molecule, acceptor atom, score
      P1  H  6896  6909       L1    12  0.59
      P1  H  7997  8009       L1    10  0.07

> <Gold.Chemscore.Hbond.Weighted>
-6.2151

> <Gold.Chemscore.Metal.Weighted>
-0.0000

> <Gold.Chemscore.Lipo.Weighted>
-10.7262

> <Gold.Chemscore.Internal_Hbond.Weighted>
0.0000

> <Gold.Chemscore.DEClash.Weighted>
0.1783

> <Gold.Chemscore.DEInternal.Weighted>
2.4437

> <Gold.Chemscore.Rot.Weighted>
4.4946

> <Gold.Chemscore.Internal.Correction.Weighted>
   9.000000E+99

> <Gold.Protein.RotatedTorsions>
[ 6907 6896 6895 6894 ] final   26.65 input  -60.11 | X-H torsion
[ 7974 7965 7964 7962 ] final  -96.01 input  175.53 | X-H torsion
[ 8008 7997 7996 7995 ] final  141.19 input   59.86 | X-H torsion
[ 10167 10162 10161 10158 ] final  120.55 input  -65.29 | X-H torsion
[ 10718 10713 10712 10709 ] final -144.83 input   66.30 | X-H torsion
[ 10763 10752 10751 10750 ] final   47.37 input  -60.55 | X-H torsion
[ 11005 11000 10999 10996 ] final -120.76 input  -57.11 | X-H torsion

> <Gold.Protein.ActiveResidues>
 VAL166  LYS551  ARG553  GLY616  TRP617  ASP618  TYR619  PRO620  LYS621  CYS622 
 ASP623  PHE694  ASN695  SER759  ASP760  ASP761  ALA762  ILE779  LEU786  VAL792 
 PHE793  MET794  SER795  GLU796  ALA797  LYS798  CYS799  TRP800  GLU811  SER814 

> <Gold.Protein.RotatedAtoms>
  151.9906  134.9981  160.0561 H   0  0  0  0  0  0  0  0  0  0  0  0  # atno 6907 bound_to 6896
  152.1612  133.4578  159.4870 H   0  0  0  0  0  0  0  0  0  0  0  0  # atno 6908 bound_to 6896
  150.6888  134.1987  159.4356 H   0  0  0  0  0  0  0  0  0  0  0  0  # atno 6909 bound_to 6896
  145.3525  140.9479  143.2546 H   0  0  0  0  0  0  0  0  0  0  0  0  # atno 7974 bound_to 7965
  156.2969  140.2322  156.4523 H   0  0  0  0  0  0  0  0  0  0  0  0  # atno 8008 bound_to 7997
  154.8090  140.0444  157.1350 H   0  0  0  0  0  0  0  0  0  0  0  0  # atno 8009 bound_to 7997
  154.9445  140.3034  155.5108 H   0  0  0  0  0  0  0  0  0  0  0  0  # atno 8010 bound_to 7997
  139.5975  144.7046  151.3142 H   0  0  0  0  0  0  0  0  0  0  0  0  # atno 10167 bound_to 10162
  156.3749  130.7807  151.1992 H   0  0  0  0  0  0  0  0  0  0  0  0  # atno 10718 bound_to 10713
  152.9800  135.5978  154.3752 H   0  0  0  0  0  0  0  0  0  0  0  0  # atno 10763 bound_to 10752
  154.3422  135.2767  155.2418 H   0  0  0  0  0  0  0  0  0  0  0  0  # atno 10764 bound_to 10752
  154.4495  135.5993  153.6237 H   0  0  0  0  0  0  0  0  0  0  0  0  # atno 10765 bound_to 10752
  141.0120  134.0251  157.3401 H   0  0  0  0  0  0  0  0  0  0  0  0  # atno 11005 bound_to 11000
  144.8707  139.5042  143.6769 LP  0  0  0  0  0  0  0  0  0  0  0  0  # atno 17320 bound_to 7965
  146.2962  139.7285  142.9125 LP  0  0  0  0  0  0  0  0  0  0  0  0  # atno 17321 bound_to 7965
  140.7223  143.7100  150.7777 LP  0  0  0  0  0  0  0  0  0  0  0  0  # atno 17342 bound_to 10162
  140.0670  143.5099  152.2599 LP  0  0  0  0  0  0  0  0  0  0  0  0  # atno 17343 bound_to 10162
  157.7487  131.0361  150.4395 LP  0  0  0  0  0  0  0  0  0  0  0  0  # atno 17370 bound_to 10713
  156.4628  130.4035  149.6565 LP  0  0  0  0  0  0  0  0  0  0  0  0  # atno 17371 bound_to 10713
  139.9095  135.0187  156.7631 LP  0  0  0  0  0  0  0  0  0  0  0  0  # atno 17394 bound_to 11000
  140.6718  133.9553  155.7861 LP  0  0  0  0  0  0  0  0  0  0  0  0  # atno 17395 bound_to 11000

$$$$
