AV-unprocessed.smi:1311|AV-procd|sdf|5446|dock2
  -GOLD-   22720 5 13D 1   1.00000     0.00000
 Structure written by MMmdl.
 46 47  0  0  0  0  0  0  0  0  2 V2000
  142.1553  136.8978  153.5558 C   0  0  0  0  0  0  0  0  0  0  0  0
  142.4572  135.4289  153.2170 C   0  0  0  0  0  0  0  0  0  0  0  0
  143.9296  134.9951  153.4556 C   0  0  2  0  0  0  0  0  0  0  0  0
  144.9532  136.0216  152.9003 C   0  0  0  0  0  0  0  0  0  0  0  0
  145.5840  136.8082  153.9574 N   0  0  0  0  0  0  0  0  0  0  0  0
  146.3810  137.8731  153.7767 C   0  0  0  0  0  0  0  0  0  0  0  0
  146.6737  138.3256  152.6705 O   0  0  0  0  0  0  0  0  0  0  0  0
  146.9377  138.5287  155.0402 C   0  0  0  0  0  0  0  0  0  0  0  0
  148.0372  139.4889  154.6692 C   0  0  0  0  0  0  0  0  0  0  0  0
  149.4443  139.2836  154.7533 C   0  0  0  0  0  0  0  0  0  0  0  0
  150.1817  138.0647  155.2290 C   0  0  0  0  0  0  0  0  0  0  0  0
  150.1234  140.3417  154.3427 N   0  0  0  0  0  0  0  0  0  0  0  0
  149.1661  141.2903  153.9704 O   0  0  0  0  0  0  0  0  0  0  0  0
  147.9336  140.7594  154.1733 C   0  0  0  0  0  0  0  0  0  0  0  0
  146.7661  141.6230  153.8341 C   0  0  0  0  0  0  0  0  0  0  0  0
  144.1755  133.6197  152.9277 N   0  3  0  0  0  0  0  0  0  0  0  0
  143.7853  133.3858  151.5199 C   0  0  0  0  0  0  0  0  0  0  0  0
  144.5585  132.1426  151.0961 C   0  0  0  0  0  0  0  0  0  0  0  0
  145.8957  132.3130  151.8069 C   0  0  0  0  0  0  0  0  0  0  0  0
  145.5695  133.1252  153.0678 C   0  0  0  0  0  0  0  0  0  0  0  0
  141.1048  137.1240  153.3728 H   0  0  0  0  0  0  0  0  0  0  0  0
  142.7470  137.5802  152.9458 H   0  0  0  0  0  0  0  0  0  0  0  0
  142.3581  137.1237  154.6017 H   0  0  0  0  0  0  0  0  0  0  0  0
  141.7863  134.7916  153.7929 H   0  0  0  0  0  0  0  0  0  0  0  0
  142.1769  135.2491  152.1795 H   0  0  0  0  0  0  0  0  0  0  0  0
  144.0817  134.9492  154.5353 H   0  0  0  0  0  0  0  0  0  0  0  0
  145.7683  135.5108  152.3887 H   0  0  0  0  0  0  0  0  0  0  0  0
  144.4859  136.6618  152.1507 H   0  0  0  0  0  0  0  0  0  0  0  0
  145.4095  136.5127  154.9073 H   0  0  0  0  0  0  0  0  0  0  0  0
  146.1238  139.0379  155.5574 H   0  0  0  0  0  0  0  0  0  0  0  0
  147.2953  137.7599  155.7267 H   0  0  0  0  0  0  0  0  0  0  0  0
  150.0206  137.2251  154.5528 H   0  0  0  0  0  0  0  0  0  0  0  0
  149.8386  137.7633  156.2187 H   0  0  0  0  0  0  0  0  0  0  0  0
  151.2565  138.2392  155.2914 H   0  0  0  0  0  0  0  0  0  0  0  0
  146.1044  141.7324  154.6931 H   0  0  0  0  0  0  0  0  0  0  0  0
  146.1909  141.1883  153.0169 H   0  0  0  0  0  0  0  0  0  0  0  0
  147.0881  142.6187  153.5282 H   0  0  0  0  0  0  0  0  0  0  0  0
  142.7089  133.2511  151.4106 H   0  0  0  0  0  0  0  0  0  0  0  0
  144.0902  134.2350  150.9058 H   0  0  0  0  0  0  0  0  0  0  0  0
  144.0541  131.2478  151.4631 H   0  0  0  0  0  0  0  0  0  0  0  0
  144.6603  132.0534  150.0142 H   0  0  0  0  0  0  0  0  0  0  0  0
  146.3716  131.3585  152.0334 H   0  0  0  0  0  0  0  0  0  0  0  0
  146.5777  132.8802  151.1723 H   0  0  0  0  0  0  0  0  0  0  0  0
  146.2826  133.9447  153.1667 H   0  0  0  0  0  0  0  0  0  0  0  0
  145.6428  132.5106  153.9656 H   0  0  0  0  0  0  0  0  0  0  0  0
  143.6040  132.9915  153.4746 H   0  0  0  0  0  0  0  0  0  0  0  0
  1  2  1  0  0  0  0
  1 21  1  0  0  0  0
  1 22  1  0  0  0  0
  1 23  1  0  0  0  0
  2  3  1  0  0  0  0
  2 24  1  0  0  0  0
  2 25  1  0  0  0  0
  3  4  1  0  0  0  0
  3 16  1  0  0  0  0
  3 26  1  0  0  0  0
  4  5  1  0  0  0  0
  4 27  1  0  0  0  0
  4 28  1  0  0  0  0
  5  6  1  0  0  0  0
  5 29  1  0  0  0  0
  6  7  2  0  0  0  0
  6  8  1  0  0  0  0
  8  9  1  0  0  0  0
  8 30  1  0  0  0  0
  8 31  1  0  0  0  0
  9 14  2  0  0  0  0
  9 10  1  0  0  0  0
 10 11  1  0  0  0  0
 10 12  2  0  0  0  0
 11 32  1  0  0  0  0
 11 33  1  0  0  0  0
 11 34  1  0  0  0  0
 12 13  1  0  0  0  0
 13 14  1  0  0  0  0
 14 15  1  0  0  0  0
 15 35  1  0  0  0  0
 15 36  1  0  0  0  0
 15 37  1  0  0  0  0
 16 20  1  0  0  0  0
 16 17  1  0  0  0  0
 16 46  1  0  0  0  0
 17 18  1  0  0  0  0
 17 38  1  0  0  0  0
 17 39  1  0  0  0  0
 18 19  1  0  0  0  0
 18 40  1  0  0  0  0
 18 41  1  0  0  0  0
 19 20  1  0  0  0  0
 19 42  1  0  0  0  0
 19 43  1  0  0  0  0
 20 44  1  0  0  0  0
 20 45  1  0  0  0  0
M  CHG  1  16   1
M  END
> <s_m_source_file>
AV-unprocessed.smi

> <i_m_source_file_index>
1311

> <i_lp_mmshare_version>
43012

> <i_f3d_flags>
0

> <s_epik_input>
W0NIMl0xW0NIMl1bQ0gyXVtDSDJdTjFbQ0BIXShbQ0gyXVtDSDNdKVtDSDJdW05IXUMoPU8pW0NIMl1jMmMoW0NIM10pbm9jMltDSDNd

> <s_epik_cmdline>
J2VwaWtfcHl0aG9uJywgJy1waCcsICc3LjAnLCAnLXRuJywgJzgnLCAnLW1hJywgJzIwMCcsICctbWV0YWxfYmluZGluZycsICctaW1hZScsICc8aW5maWxlLm1hZT4nLCAnLW9tYWUnLCAnPG91dGZpbGUubWFlPic=

> <r_epik_Ionization_Penalty>
0.00366311

> <r_epik_Ionization_Penalty_Charging>
0.00366302

> <r_epik_Ionization_Penalty_Neutral>
9.25085e-08

> <r_epik_State_Penalty>
0.00260703

> <r_epik_Charging_Adjusted_Penalty>
0.00627005

> <i_epik_Tot_Q>
1

> <i_epik_Tot_abs_Q>
1

> <r_epik_Metal_State_Penalty>
-0

> <b_epik_Metal_Only>
0

> <s_lp_Force_Field>
OPLS_2005

> <r_lp_Energy>
28.3188

> <b_lp_Chiralities_Consistent>
1

> <s_lp_Variant>
AV-unprocessed.smi:1311-1

> <Gold.Version>
5.8.1

> <Gold.Id.Protein>
6NUR|6NUR_protein|mol2

> <Gold.PLP.Fitness>
38.4583

> <Gold.PLP.PLP>
-29.3799

> <Gold.PLP.part.hbond>
-3.9817

> <Gold.PLP.part.metal>
0.0000

> <Gold.PLP.part.buried>
-9.0762

> <Gold.PLP.part.nonpolar>
-20.2642

> <Gold.PLP.part.repulsive>
2.6352

> <Gold.PLP.ligand.clash>
0.0000

> <Gold.PLP.ligand.torsion>
1.2670

> <Gold.PLP.Chemscore.Hbond>
3.7760

> <Gold.PLP.Chemscore.CHOScore>
0.0000

> <Gold.PLP.Chemscore.Metal>
0.0000

> <Gold.Chemscore.Hbonds>
donor molecule, donor type, donor heavy atom, donor atom, acceptor molecule, acceptor atom, score
      L1  H    16    46       P1 10957  2.00
      P1  H  7989  7998       L1    12  0.94
      P1  H  8011  8017       L1    13  0.69

> <Gold.PLP.Chemscore.Internal.Correction>
0.2845

> <Gold.Rescore>
     Score         DG    S(hbond)    S(metal)    S(lipo)     H(rot)  DE(clash)    DE(int)     intcor
     13.96     -15.23       1.93        0.00      67.53       1.80       0.14       1.13       ----

> <Gold.Chemscore.Fitness>
13.9554

> <Gold.Chemscore.DG>
-15.2298

> <Gold.Chemscore.ZeroCoef>
-5.4800

> <Gold.Chemscore.Hbond>
1.9335

> <Gold.Chemscore.Metal>
0.0000

> <Gold.Chemscore.Lipo>
67.5294

> <Gold.Chemscore.Internal_Hbond>
0.0000

> <Gold.Chemscore.DEClash>
0.1449

> <Gold.Chemscore.DEInternal>
1.1295

> <Gold.Chemscore.Rot>
1.8004

> <Gold.Chemscore.Internal.Correction>
   9.000000E+99

> <Gold.Chemscore.Hbonds>
donor molecule, donor type, donor heavy atom, donor atom, acceptor molecule, acceptor atom, score
      L1  H    16    46       P1 10957  0.81
      P1  H  7989  7998       L1    12  0.36
      P1  H  8011  8017       L1    13  0.55

> <Gold.Chemscore.Hbond.Weighted>
-6.4579

> <Gold.Chemscore.Metal.Weighted>
-0.0000

> <Gold.Chemscore.Lipo.Weighted>
-7.9009

> <Gold.Chemscore.Internal_Hbond.Weighted>
0.0000

> <Gold.Chemscore.DEClash.Weighted>
0.1449

> <Gold.Chemscore.DEInternal.Weighted>
1.1295

> <Gold.Chemscore.Rot.Weighted>
4.6090

> <Gold.Chemscore.Internal.Correction.Weighted>
   9.000000E+99

> <Gold.Protein.RotatedTorsions>
[ 6907 6896 6895 6894 ] final   91.87 input  -60.11 | X-H torsion
[ 7974 7965 7964 7962 ] final   93.66 input  175.53 | X-H torsion
[ 8008 7997 7996 7995 ] final   77.00 input   59.86 | X-H torsion
[ 10167 10162 10161 10158 ] final   61.05 input  -65.29 | X-H torsion
[ 10718 10713 10712 10709 ] final  -42.40 input   66.30 | X-H torsion
[ 10763 10752 10751 10750 ] final -148.89 input  -60.55 | X-H torsion
[ 11005 11000 10999 10996 ] final  114.80 input  -57.11 | X-H torsion

> <Gold.Protein.ActiveResidues>
 VAL166  LYS551  ARG553  GLY616  TRP617  ASP618  TYR619  PRO620  LYS621  CYS622 
 ASP623  PHE694  ASN695  SER759  ASP760  ASP761  ALA762  ILE779  LEU786  VAL792 
 PHE793  MET794  SER795  GLU796  ALA797  LYS798  CYS799  TRP800  GLU811  SER814 

> <Gold.Protein.RotatedAtoms>
  152.5451  134.1590  159.8549 H   0  0  0  0  0  0  0  0  0  0  0  0  # atno 6907 bound_to 6896
  151.1609  133.4838  159.2602 H   0  0  0  0  0  0  0  0  0  0  0  0  # atno 6908 bound_to 6896
  151.1373  135.0172  159.8665 H   0  0  0  0  0  0  0  0  0  0  0  0  # atno 6909 bound_to 6896
  145.4760  139.2280  143.2909 H   0  0  0  0  0  0  0  0  0  0  0  0  # atno 7974 bound_to 7965
  155.8353  140.3464  155.5598 H   0  0  0  0  0  0  0  0  0  0  0  0  # atno 8008 bound_to 7997
  155.8198  140.0911  157.1875 H   0  0  0  0  0  0  0  0  0  0  0  0  # atno 8009 bound_to 7997
  154.4004  140.1432  156.3474 H   0  0  0  0  0  0  0  0  0  0  0  0  # atno 8010 bound_to 7997
  140.1589  144.4389  150.6719 H   0  0  0  0  0  0  0  0  0  0  0  0  # atno 10167 bound_to 10162
  156.2600  130.4196  149.8553 H   0  0  0  0  0  0  0  0  0  0  0  0  # atno 10718 bound_to 10713
  154.8208  135.3323  154.7044 H   0  0  0  0  0  0  0  0  0  0  0  0  # atno 10763 bound_to 10752
  153.7677  135.6928  153.4917 H   0  0  0  0  0  0  0  0  0  0  0  0  # atno 10764 bound_to 10752
  153.2066  135.4497  155.0279 H   0  0  0  0  0  0  0  0  0  0  0  0  # atno 10765 bound_to 10752
  139.8991  134.9574  156.6947 H   0  0  0  0  0  0  0  0  0  0  0  0  # atno 11005 bound_to 11000
  146.2369  140.5542  142.8951 LP  0  0  0  0  0  0  0  0  0  0  0  0  # atno 17320 bound_to 7965
  144.7917  140.6044  143.6537 LP  0  0  0  0  0  0  0  0  0  0  0  0  # atno 17321 bound_to 7965
  140.6655  143.2266  151.5752 LP  0  0  0  0  0  0  0  0  0  0  0  0  # atno 17342 bound_to 10162
  139.5390  144.2700  152.1312 LP  0  0  0  0  0  0  0  0  0  0  0  0  # atno 17343 bound_to 10162
  156.6072  130.8571  151.3446 LP  0  0  0  0  0  0  0  0  0  0  0  0  # atno 17370 bound_to 10713
  157.7247  130.9606  150.1583 LP  0  0  0  0  0  0  0  0  0  0  0  0  # atno 17371 bound_to 10713
  140.7197  133.9151  155.8139 LP  0  0  0  0  0  0  0  0  0  0  0  0  # atno 17394 bound_to 11000
  141.0236  134.0854  157.4093 LP  0  0  0  0  0  0  0  0  0  0  0  0  # atno 17395 bound_to 11000

$$$$
