AV-unprocessed.smi:792|AV-procd|sdf|3751|dock1
  -GOLD-   22720 1183D 1   1.00000     0.00000
 Structure written by MMmdl.
 47 48  0  0  0  0  0  0  0  0  2 V2000
  151.6283  144.0194  158.0088 C   0  0  0  0  0  0  0  0  0  0  0  0
  151.2555  142.7132  157.3400 C   0  0  0  0  0  0  0  0  0  0  0  0
  151.7606  141.4696  157.7772 C   0  0  0  0  0  0  0  0  0  0  0  0
  151.3694  140.2928  157.1051 C   0  0  0  0  0  0  0  0  0  0  0  0
  150.4806  140.3825  156.0114 C   0  0  0  0  0  0  0  0  0  0  0  0
  150.0429  139.1362  155.2669 C   0  0  0  0  0  0  0  0  0  0  0  0
  149.0796  139.4587  154.1172 C   0  0  0  0  0  0  0  0  0  0  0  0
  148.4104  138.2512  153.6544 N   0  0  0  0  0  0  0  0  0  0  0  0
  147.2649  137.7834  154.1666 C   0  0  0  0  0  0  0  0  0  0  0  0
  146.6415  138.3353  155.0737 O   0  0  0  0  0  0  0  0  0  0  0  0
  146.8824  136.6426  153.5749 N   0  0  0  0  0  0  0  0  0  0  0  0
  145.6682  135.8948  153.8978 C   0  0  0  0  0  0  0  0  0  0  0  0
  144.7715  135.6232  152.6746 C   0  0  0  0  0  0  0  0  0  0  0  0
  143.6743  136.1808  152.6025 O   0  0  0  0  0  0  0  0  0  0  0  0
  145.2179  134.7831  151.7088 N   0  0  0  0  0  0  0  0  0  0  0  0
  144.4059  134.4129  150.5415 C   0  0  0  0  0  0  0  0  0  0  0  0
  144.0148  132.9281  150.6566 C   0  0  0  0  0  0  0  0  0  0  0  0
  145.2633  132.0382  150.8035 C   0  0  0  0  0  0  0  0  0  0  0  0
  146.1985  132.5503  151.9152 C   0  0  0  0  0  0  0  0  0  0  0  0
  146.4922  134.0506  151.7350 C   0  0  0  0  0  0  0  0  0  0  0  0
  150.0095  141.6535  155.6181 C   0  0  0  0  0  0  0  0  0  0  0  0
  150.4082  142.7572  156.2875 N   0  3  0  0  0  0  0  0  0  0  0  0
  152.3138  143.8537  158.8406 H   0  0  0  0  0  0  0  0  0  0  0  0
  150.7380  144.5160  158.3955 H   0  0  0  0  0  0  0  0  0  0  0  0
  152.1133  144.6868  157.2959 H   0  0  0  0  0  0  0  0  0  0  0  0
  152.4393  141.4147  158.6158 H   0  0  0  0  0  0  0  0  0  0  0  0
  151.7491  139.3337  157.4263 H   0  0  0  0  0  0  0  0  0  0  0  0
  150.9255  138.6219  154.8834 H   0  0  0  0  0  0  0  0  0  0  0  0
  149.5691  138.4510  155.9713 H   0  0  0  0  0  0  0  0  0  0  0  0
  148.3310  140.1811  154.4472 H   0  0  0  0  0  0  0  0  0  0  0  0
  149.6222  139.9122  153.2864 H   0  0  0  0  0  0  0  0  0  0  0  0
  148.8488  137.7368  152.9043 H   0  0  0  0  0  0  0  0  0  0  0  0
  147.4604  136.2710  152.8353 H   0  0  0  0  0  0  0  0  0  0  0  0
  145.9715  134.9415  154.3315 H   0  0  0  0  0  0  0  0  0  0  0  0
  145.1025  136.4309  154.6620 H   0  0  0  0  0  0  0  0  0  0  0  0
  143.5076  135.0228  150.4369 H   0  0  0  0  0  0  0  0  0  0  0  0
  144.9840  134.5794  149.6313 H   0  0  0  0  0  0  0  0  0  0  0  0
  143.3632  132.7903  151.5206 H   0  0  0  0  0  0  0  0  0  0  0  0
  143.4397  132.6222  149.7822 H   0  0  0  0  0  0  0  0  0  0  0  0
  144.9714  131.0064  151.0003 H   0  0  0  0  0  0  0  0  0  0  0  0
  145.8069  132.0299  149.8580 H   0  0  0  0  0  0  0  0  0  0  0  0
  145.7377  132.3832  152.8898 H   0  0  0  0  0  0  0  0  0  0  0  0
  147.1286  131.9815  151.9104 H   0  0  0  0  0  0  0  0  0  0  0  0
  147.0169  134.2146  150.7927 H   0  0  0  0  0  0  0  0  0  0  0  0
  147.1802  134.3897  152.5075 H   0  0  0  0  0  0  0  0  0  0  0  0
  149.3314  141.8207  154.7937 H   0  0  0  0  0  0  0  0  0  0  0  0
  150.0536  143.6649  155.9849 H   0  0  0  0  0  0  0  0  0  0  0  0
  1  2  1  0  0  0  0
  1 23  1  0  0  0  0
  1 24  1  0  0  0  0
  1 25  1  0  0  0  0
  2 22  1  0  0  0  0
  2  3  2  0  0  0  0
  3  4  1  0  0  0  0
  3 26  1  0  0  0  0
  4  5  2  0  0  0  0
  4 27  1  0  0  0  0
  5  6  1  0  0  0  0
  5 21  1  0  0  0  0
  6  7  1  0  0  0  0
  6 28  1  0  0  0  0
  6 29  1  0  0  0  0
  7  8  1  0  0  0  0
  7 30  1  0  0  0  0
  7 31  1  0  0  0  0
  8  9  1  0  0  0  0
  8 32  1  0  0  0  0
  9 10  2  0  0  0  0
  9 11  1  0  0  0  0
 11 12  1  0  0  0  0
 11 33  1  0  0  0  0
 12 13  1  0  0  0  0
 12 34  1  0  0  0  0
 12 35  1  0  0  0  0
 13 14  2  0  0  0  0
 13 15  1  0  0  0  0
 15 20  1  0  0  0  0
 15 16  1  0  0  0  0
 16 17  1  0  0  0  0
 16 36  1  0  0  0  0
 16 37  1  0  0  0  0
 17 18  1  0  0  0  0
 17 38  1  0  0  0  0
 17 39  1  0  0  0  0
 18 19  1  0  0  0  0
 18 40  1  0  0  0  0
 18 41  1  0  0  0  0
 19 20  1  0  0  0  0
 19 42  1  0  0  0  0
 19 43  1  0  0  0  0
 20 44  1  0  0  0  0
 20 45  1  0  0  0  0
 21 22  2  0  0  0  0
 21 46  1  0  0  0  0
 22 47  1  0  0  0  0
M  CHG  1  22   1
M  END
> <s_m_source_file>
AV-unprocessed.smi

> <i_m_source_file_index>
792

> <i_lp_mmshare_version>
43012

> <i_f3d_flags>
0

> <s_epik_input>
W0NIM11jMVtjSF1bY0hdYyhbY0hdbjEpW0NIMl1bQ0gyXVtOSF1DKD1PKVtOSF1bQ0gyXUMoPU8pTjJbQ0gyXVtDSDJdW0NIMl1bQ0gyXVtDSDJdMg==

> <s_epik_cmdline>
J2VwaWtfcHl0aG9uJywgJy1waCcsICc3LjAnLCAnLXRuJywgJzgnLCAnLW1hJywgJzIwMCcsICctbWV0YWxfYmluZGluZycsICctaW1hZScsICc8aW5maWxlLm1hZT4nLCAnLW9tYWUnLCAnPG91dGZpbGUubWFlPic=

> <r_epik_Ionization_Penalty>
1.3596

> <r_epik_Ionization_Penalty_Charging>
1.35956

> <r_epik_Ionization_Penalty_Neutral>
4.39183e-05

> <r_epik_State_Penalty>
1.43833

> <r_epik_Charging_Adjusted_Penalty>
2.79788

> <i_epik_Tot_Q>
1

> <i_epik_Tot_abs_Q>
1

> <r_epik_Metal_State_Penalty>
1.49594

> <b_epik_Metal_Only>
0

> <s_lp_Force_Field>
OPLS_2005

> <r_lp_Energy>
23.5444

> <b_lp_Chiralities_Consistent>
1

> <s_lp_Variant>
AV-unprocessed.smi:792-2

> <Gold.Version>
5.8.1

> <Gold.Id.Protein>
6NUR|6NUR_protein|mol2

> <Gold.PLP.Fitness>
49.3473

> <Gold.PLP.PLP>
-37.9977

> <Gold.PLP.part.hbond>
-3.5988

> <Gold.PLP.part.metal>
0.0000

> <Gold.PLP.part.buried>
-3.1057

> <Gold.PLP.part.nonpolar>
-31.4322

> <Gold.PLP.part.repulsive>
0.3645

> <Gold.PLP.ligand.clash>
0.0000

> <Gold.PLP.ligand.torsion>
0.3175

> <Gold.PLP.Chemscore.Hbond>
3.9600

> <Gold.PLP.Chemscore.CHOScore>
0.0000

> <Gold.PLP.Chemscore.Metal>
0.0000

> <Gold.Chemscore.Hbonds>
donor molecule, donor type, donor heavy atom, donor atom, acceptor molecule, acceptor atom, score
      L1  H     8    32       P1  7948  1.00
      L1  H    11    33       P1  7948  1.00
      L1  H    22    47       P1  8028  2.00

> <Gold.PLP.Chemscore.Internal.Correction>
0.1046

> <Gold.Rescore>
     Score         DG    S(hbond)    S(metal)    S(lipo)     H(rot)  DE(clash)    DE(int)     intcor
     21.22     -21.74       2.93        0.00      96.19       1.86       0.10       0.42       ----

> <Gold.Chemscore.Fitness>
21.2164

> <Gold.Chemscore.DG>
-21.7422

> <Gold.Chemscore.ZeroCoef>
-5.4800

> <Gold.Chemscore.Hbond>
2.9278

> <Gold.Chemscore.Metal>
0.0000

> <Gold.Chemscore.Lipo>
96.1943

> <Gold.Chemscore.Internal_Hbond>
0.0000

> <Gold.Chemscore.DEClash>
0.1050

> <Gold.Chemscore.DEInternal>
0.4209

> <Gold.Chemscore.Rot>
1.8639

> <Gold.Chemscore.Internal.Correction>
   9.000000E+99

> <Gold.Chemscore.Hbonds>
donor molecule, donor type, donor heavy atom, donor atom, acceptor molecule, acceptor atom, score
      L1  H     8    32       P1  7948  0.96
      L1  H    11    33       P1  7948  0.97
      L1  H    22    47       P1  8028  0.97

> <Gold.Chemscore.Hbond.Weighted>
-9.7790

> <Gold.Chemscore.Metal.Weighted>
-0.0000

> <Gold.Chemscore.Lipo.Weighted>
-11.2547

> <Gold.Chemscore.Internal_Hbond.Weighted>
0.0000

> <Gold.Chemscore.DEClash.Weighted>
0.1050

> <Gold.Chemscore.DEInternal.Weighted>
0.4209

> <Gold.Chemscore.Rot.Weighted>
4.7715

> <Gold.Chemscore.Internal.Correction.Weighted>
   9.000000E+99

> <Gold.Protein.RotatedTorsions>
[ 6907 6896 6895 6894 ] final  -50.56 input  -60.11 | X-H torsion
[ 7974 7965 7964 7962 ] final  142.78 input  175.53 | X-H torsion
[ 8008 7997 7996 7995 ] final   19.95 input   59.86 | X-H torsion
[ 10167 10162 10161 10158 ] final   44.14 input  -65.29 | X-H torsion
[ 10718 10713 10712 10709 ] final -152.37 input   66.30 | X-H torsion
[ 10763 10752 10751 10750 ] final  166.21 input  -60.55 | X-H torsion
[ 11005 11000 10999 10996 ] final  170.72 input  -57.11 | X-H torsion

> <Gold.Protein.ActiveResidues>
 VAL166  LYS551  ARG553  GLY616  TRP617  ASP618  TYR619  PRO620  LYS621  CYS622 
 ASP623  PHE694  ASN695  SER759  ASP760  ASP761  ALA762  ILE779  LEU786  VAL792 
 PHE793  MET794  SER795  GLU796  ALA797  LYS798  CYS799  TRP800  GLU811  SER814 

> <Gold.Protein.RotatedAtoms>
  150.8696  134.8066  159.7144 H   0  0  0  0  0  0  0  0  0  0  0  0  # atno 6907 bound_to 6896
  152.4705  134.4969  159.9722 H   0  0  0  0  0  0  0  0  0  0  0  0  # atno 6908 bound_to 6896
  151.5059  133.3456  159.2912 H   0  0  0  0  0  0  0  0  0  0  0  0  # atno 6909 bound_to 6896
  144.8978  139.5466  143.5768 H   0  0  0  0  0  0  0  0  0  0  0  0  # atno 7974 bound_to 7965
  154.9284  140.3037  155.5180 H   0  0  0  0  0  0  0  0  0  0  0  0  # atno 8008 bound_to 7997
  156.3005  140.2358  156.4278 H   0  0  0  0  0  0  0  0  0  0  0  0  # atno 8009 bound_to 7997
  154.8261  140.0421  157.1433 H   0  0  0  0  0  0  0  0  0  0  0  0  # atno 8010 bound_to 7997
  140.3373  144.2514  150.6160 H   0  0  0  0  0  0  0  0  0  0  0  0  # atno 10167 bound_to 10162
  156.4716  130.8261  151.2490 H   0  0  0  0  0  0  0  0  0  0  0  0  # atno 10718 bound_to 10713
  154.3356  135.2754  155.2449 H   0  0  0  0  0  0  0  0  0  0  0  0  # atno 10763 bound_to 10752
  154.4742  135.5875  153.6346 H   0  0  0  0  0  0  0  0  0  0  0  0  # atno 10764 bound_to 10752
  152.9862  135.6095  154.3552 H   0  0  0  0  0  0  0  0  0  0  0  0  # atno 10765 bound_to 10752
  140.3114  134.7513  157.3994 H   0  0  0  0  0  0  0  0  0  0  0  0  # atno 11005 bound_to 11000
  146.3091  139.7682  142.9033 LP  0  0  0  0  0  0  0  0  0  0  0  0  # atno 17320 bound_to 7965
  145.3670  141.0336  143.3252 LP  0  0  0  0  0  0  0  0  0  0  0  0  # atno 17321 bound_to 7965
  140.5342  143.2237  151.8190 LP  0  0  0  0  0  0  0  0  0  0  0  0  # atno 17342 bound_to 10162
  139.4846  144.4683  151.9457 LP  0  0  0  0  0  0  0  0  0  0  0  0  # atno 17343 bound_to 10162
  157.7491  131.0074  150.3189 LP  0  0  0  0  0  0  0  0  0  0  0  0  # atno 17370 bound_to 10713
  156.3612  130.3847  149.7250 LP  0  0  0  0  0  0  0  0  0  0  0  0  # atno 17371 bound_to 10713
  140.1021  134.5458  155.8343 LP  0  0  0  0  0  0  0  0  0  0  0  0  # atno 17394 bound_to 11000
  141.2107  133.6698  156.6530 LP  0  0  0  0  0  0  0  0  0  0  0  0  # atno 17395 bound_to 11000

$$$$
