AV-unprocessed.smi:160|AV-procd|sdf|1350|dock9
  -GOLD-   2262019 53D 1   1.00000     0.00000
 Structure written by MMmdl.
 29 30  0  0  0  0  0  0  0  0  1 V2000
  151.8248  137.9645  154.3311 N   0  0  0  0  0  0  0  0  0  0  0  0
  152.3264  138.7094  155.3218 C   0  0  0  0  0  0  0  0  0  0  0  0
  153.3919  138.4396  155.8739 O   0  0  0  0  0  0  0  0  0  0  0  0
  151.5116  139.9046  155.7324 C   0  0  0  0  0  0  0  0  0  0  0  0
  150.6535  140.5092  154.8586 N   0  0  0  0  0  0  0  0  0  0  0  0
  150.1877  141.4650  155.6524 C   0  0  0  0  0  0  0  0  0  0  0  0
  150.7091  141.4589  156.8837 N   0  0  0  0  0  0  0  0  0  0  0  0
  150.4183  142.3575  158.0507 C   0  0  1  0  0  0  0  0  0  0  0  0
  150.9139  141.7307  159.1927 O   0  0  0  0  0  0  0  0  0  0  0  0
  152.0904  142.3811  159.6765 C   0  0  1  0  0  0  0  0  0  0  0  0
  153.2030  141.3466  159.9122 C   0  0  0  0  0  0  0  0  0  0  0  0
  153.3454  140.5194  158.7771 O   0  0  0  0  0  0  0  0  0  0  0  0
  152.4545  143.4409  158.6238 C   0  0  2  0  0  0  0  0  0  0  0  0
  152.9510  144.6077  159.2492 O   0  0  0  0  0  0  0  0  0  0  0  0
  151.1228  143.7201  157.9431 C   0  0  1  0  0  0  0  0  0  0  0  0
  151.2988  144.1740  156.6131 O   0  0  0  0  0  0  0  0  0  0  0  0
  151.5811  140.4220  156.9597 N   0  0  0  0  0  0  0  0  0  0  0  0
  149.3301  142.4279  158.0724 H   0  0  0  0  0  0  0  0  0  0  0  0
  151.8244  142.8783  160.6114 H   0  0  0  0  0  0  0  0  0  0  0  0
  153.1862  143.0529  157.9137 H   0  0  0  0  0  0  0  0  0  0  0  0
  150.5389  144.4423  158.5157 H   0  0  0  0  0  0  0  0  0  0  0  0
  152.3250  137.1477  154.0122 H   0  0  0  0  0  0  0  0  0  0  0  0
  150.9450  138.2247  153.9092 H   0  0  0  0  0  0  0  0  0  0  0  0
  149.4508  142.1855  155.3289 H   0  0  0  0  0  0  0  0  0  0  0  0
  154.1515  141.8269  160.1531 H   0  0  0  0  0  0  0  0  0  0  0  0
  152.9440  140.7022  160.7529 H   0  0  0  0  0  0  0  0  0  0  0  0
  154.2651  140.4442  158.5731 H   0  0  0  0  0  0  0  0  0  0  0  0
  152.8704  145.3301  158.6456 H   0  0  0  0  0  0  0  0  0  0  0  0
  150.4558  144.1931  156.1868 H   0  0  0  0  0  0  0  0  0  0  0  0
  1  2  1  0  0  0  0
  1 22  1  0  0  0  0
  1 23  1  0  0  0  0
  2  3  2  0  0  0  0
  2  4  1  0  0  0  0
  4 17  2  0  0  0  0
  4  5  1  0  0  0  0
  5  6  2  0  0  0  0
  6  7  1  0  0  0  0
  6 24  1  0  0  0  0
  7  8  1  0  0  0  0
  7 17  1  0  0  0  0
  8 18  1  0  0  0  0
  8 15  1  0  0  0  0
  8  9  1  0  0  0  0
  9 10  1  0  0  0  0
 10 19  1  0  0  0  0
 10 11  1  0  0  0  0
 10 13  1  0  0  0  0
 11 12  1  0  0  0  0
 11 25  1  0  0  0  0
 11 26  1  0  0  0  0
 12 27  1  0  0  0  0
 13 20  1  0  0  0  0
 13 14  1  0  0  0  0
 13 15  1  0  0  0  0
 14 28  1  0  0  0  0
 15 21  1  0  0  0  0
 15 16  1  0  0  0  0
 16 29  1  0  0  0  0
M  END
> <s_m_source_file>
AV-unprocessed.smi

> <i_m_source_file_index>
160

> <i_lp_mmshare_version>
43012

> <i_f3d_flags>
0

> <s_epik_input>
W05IMl1DKD1PKWMxbltjSF1uKG4xKVtDQEBIXTJPW0NASF0oW0NIMl1bT0hdKVtDQEBIXShbT0hdKVtDQEhdMltPSF0=

> <s_epik_cmdline>
J2VwaWtfcHl0aG9uJywgJy1waCcsICc3LjAnLCAnLXRuJywgJzgnLCAnLW1hJywgJzIwMCcsICctbWV0YWxfYmluZGluZycsICctaW1hZScsICc8aW5maWxlLm1hZT4nLCAnLW9tYWUnLCAnPG91dGZpbGUubWFlPic=

> <r_lp_tautomer_probability>
1

> <r_epik_Ionization_Penalty>
1.06932e-05

> <r_epik_Ionization_Penalty_Charging>
0

> <r_epik_Ionization_Penalty_Neutral>
1.06932e-05

> <r_epik_State_Penalty>
-0

> <r_epik_Charging_Adjusted_Penalty>
0

> <i_epik_Tot_Q>
0

> <i_epik_Tot_abs_Q>
0

> <r_epik_Metal_State_Penalty>
0.0142097

> <b_epik_Metal_Only>
0

> <s_epik_Chemistry_Notes>
This compound contains an acetal/aminal-like group ( X-CH(R)-Y where X, Y are N, S, or O) that may be acid/base labile, releasing an aldehyde.

> <s_lp_Force_Field>
OPLS_2005

> <r_lp_Energy>
40.695

> <b_lp_Chiralities_Consistent>
1

> <s_lp_Variant>
AV-unprocessed.smi:160-8

> <Gold.Version>
5.8.1

> <Gold.Id.Protein>
6NUR|6NUR_protein|mol2

> <Gold.PLP.Fitness>
39.4344

> <Gold.PLP.PLP>
-29.8968

> <Gold.PLP.part.hbond>
-4.7515

> <Gold.PLP.part.metal>
0.0000

> <Gold.PLP.part.buried>
-0.6002

> <Gold.PLP.part.nonpolar>
-24.3859

> <Gold.PLP.part.repulsive>
0.2391

> <Gold.PLP.ligand.clash>
0.0000

> <Gold.PLP.ligand.torsion>
0.7677

> <Gold.PLP.Chemscore.Hbond>
2.8480

> <Gold.PLP.Chemscore.CHOScore>
0.8393

> <Gold.PLP.Chemscore.Metal>
0.0000

> <Gold.Chemscore.Hbonds>
donor molecule, donor type, donor heavy atom, donor atom, acceptor molecule, acceptor atom, score
      L1  H    16    29       P1  8028  1.00
      P1  H  7989  7998       L1     5  1.00
      P1  H  7997  8010       L1     3  0.85
      L1  C     6    24       P1  8028  0.79

> <Gold.PLP.Chemscore.Internal.Correction>
0.0110

> <Gold.Rescore>
     Score         DG    S(hbond)    S(metal)    S(lipo)     H(rot)  DE(clash)    DE(int)     intcor
      4.91      -7.98       2.35        0.00      43.14       4.06       0.48       2.58       ----

> <Gold.Chemscore.Fitness>
4.9090

> <Gold.Chemscore.DG>
-7.9781

> <Gold.Chemscore.ZeroCoef>
-5.4800

> <Gold.Chemscore.Hbond>
2.3484

> <Gold.Chemscore.Metal>
0.0000

> <Gold.Chemscore.Lipo>
43.1449

> <Gold.Chemscore.Internal_Hbond>
0.0000

> <Gold.Chemscore.DEClash>
0.4847

> <Gold.Chemscore.DEInternal>
2.5843

> <Gold.Chemscore.Rot>
4.0600

> <Gold.Chemscore.Internal.Correction>
   9.000000E+99

> <Gold.Chemscore.Hbonds>
donor molecule, donor type, donor heavy atom, donor atom, acceptor molecule, acceptor atom, score
      L1  H    16    29       P1  8028  1.00
      P1  H  7989  7998       L1     5  0.42
      P1  H  7997  8010       L1     3  0.64

> <Gold.Chemscore.Hbond.Weighted>
-7.8437

> <Gold.Chemscore.Metal.Weighted>
-0.0000

> <Gold.Chemscore.Lipo.Weighted>
-5.0480

> <Gold.Chemscore.Internal_Hbond.Weighted>
0.0000

> <Gold.Chemscore.DEClash.Weighted>
0.4847

> <Gold.Chemscore.DEInternal.Weighted>
2.5843

> <Gold.Chemscore.Rot.Weighted>
10.3936

> <Gold.Chemscore.Internal.Correction.Weighted>
   9.000000E+99

> <Gold.Protein.RotatedTorsions>
[ 6907 6896 6895 6894 ] final -102.86 input  -60.11 | X-H torsion
[ 7974 7965 7964 7962 ] final -121.40 input  175.53 | X-H torsion
[ 8008 7997 7996 7995 ] final   76.26 input   59.86 | X-H torsion
[ 10167 10162 10161 10158 ] final  -35.29 input  -65.29 | X-H torsion
[ 10718 10713 10712 10709 ] final   72.79 input   66.30 | X-H torsion
[ 10763 10752 10751 10750 ] final  -50.09 input  -60.55 | X-H torsion
[ 11005 11000 10999 10996 ] final -129.11 input  -57.11 | X-H torsion

> <Gold.Protein.ActiveResidues>
 VAL166  LYS551  ARG553  GLY616  TRP617  ASP618  TYR619  PRO620  LYS621  CYS622 
 ASP623  PHE694  ASN695  SER759  ASP760  ASP761  ALA762  ILE779  LEU786  VAL792 
 PHE793  MET794  SER795  GLU796  ALA797  LYS798  CYS799  TRP800  GLU811  SER814 

> <Gold.Protein.RotatedAtoms>
  150.7214  134.0518  159.3800 H   0  0  0  0  0  0  0  0  0  0  0  0  # atno 6907 bound_to 6896
  151.8495  135.0560  160.0466 H   0  0  0  0  0  0  0  0  0  0  0  0  # atno 6908 bound_to 6896
  152.2801  133.5427  159.5529 H   0  0  0  0  0  0  0  0  0  0  0  0  # atno 6909 bound_to 6896
  145.0408  140.8143  143.4267 H   0  0  0  0  0  0  0  0  0  0  0  0  # atno 7974 bound_to 7965
  155.8247  140.3468  155.5535 H   0  0  0  0  0  0  0  0  0  0  0  0  # atno 8008 bound_to 7997
  155.8305  140.0926  157.1815 H   0  0  0  0  0  0  0  0  0  0  0  0  # atno 8009 bound_to 7997
  154.4004  140.1413  156.3595 H   0  0  0  0  0  0  0  0  0  0  0  0  # atno 8010 bound_to 7997
  140.7168  143.3487  151.2201 H   0  0  0  0  0  0  0  0  0  0  0  0  # atno 10167 bound_to 10162
  157.6518  130.9596  150.0979 H   0  0  0  0  0  0  0  0  0  0  0  0  # atno 10718 bound_to 10713
  154.1046  135.6558  153.4874 H   0  0  0  0  0  0  0  0  0  0  0  0  # atno 10763 bound_to 10752
  153.0277  135.5233  154.7252 H   0  0  0  0  0  0  0  0  0  0  0  0  # atno 10764 bound_to 10752
  154.6414  135.2989  155.0068 H   0  0  0  0  0  0  0  0  0  0  0  0  # atno 10765 bound_to 10752
  140.9459  134.1130  157.4107 H   0  0  0  0  0  0  0  0  0  0  0  0  # atno 11005 bound_to 11000
  145.1650  139.2436  143.5371 LP  0  0  0  0  0  0  0  0  0  0  0  0  # atno 17320 bound_to 7965
  146.3509  140.1387  142.8595 LP  0  0  0  0  0  0  0  0  0  0  0  0  # atno 17321 bound_to 7965
  139.7013  143.9528  152.2906 LP  0  0  0  0  0  0  0  0  0  0  0  0  # atno 17342 bound_to 10162
  139.9222  144.6792  150.8449 LP  0  0  0  0  0  0  0  0  0  0  0  0  # atno 17343 bound_to 10162
  156.1909  130.3654  149.8911 LP  0  0  0  0  0  0  0  0  0  0  0  0  # atno 17370 bound_to 10713
  156.6839  130.8869  151.3579 LP  0  0  0  0  0  0  0  0  0  0  0  0  # atno 17371 bound_to 10713
  139.8833  135.0051  156.6293 LP  0  0  0  0  0  0  0  0  0  0  0  0  # atno 17394 bound_to 11000
  140.7669  133.8770  155.8462 LP  0  0  0  0  0  0  0  0  0  0  0  0  # atno 17395 bound_to 11000

$$$$
