AV-unprocessed.smi:861|AV-procd|sdf|3967|dock2
  -GOLD-   22720 1443D 1   1.00000     0.00000
 Structure written by MMmdl.
 44 45  0  0  0  0  0  0  0  0  2 V2000
  145.9000  132.2881  149.8041 C   0  0  0  0  0  0  0  0  0  0  0  0
  145.6562  133.0416  151.1203 C   0  0  0  0  0  0  0  0  0  0  0  0
  144.9024  134.3553  150.8525 C   0  0  0  0  0  0  0  0  0  0  0  0
  146.9833  133.2680  151.8736 C   0  0  0  0  0  0  0  0  0  0  0  0
  146.8028  133.8289  153.2974 C   0  0  0  0  0  0  0  0  0  0  0  0
  148.0573  134.4170  153.8387 N   0  3  2  0  0  0  0  0  0  0  0  0
  149.1377  133.4212  154.0417 C   0  0  0  0  0  0  0  0  0  0  0  0
  148.9028  132.6014  155.3229 C   0  0  0  0  0  0  0  0  0  0  0  0
  148.7954  133.4826  156.4337 O   0  0  0  0  0  0  0  0  0  0  0  0
  147.6898  134.3740  156.3214 C   0  0  1  0  0  0  0  0  0  0  0  0
  147.6369  135.2306  157.5938 C   0  0  0  0  0  0  0  0  0  0  0  0
  147.5832  134.4088  158.7950 N   0  0  0  0  0  0  0  0  0  0  0  0
  147.5922  135.0004  160.0651 C   0  0  0  0  0  0  0  0  0  0  0  0
  147.4007  134.1862  161.1991 C   0  0  0  0  0  0  0  0  0  0  0  0
  147.4134  134.8094  162.4591 C   0  0  0  0  0  0  0  0  0  0  0  0
  147.6170  136.2011  162.4888 C   0  0  0  0  0  0  0  0  0  0  0  0
  147.7953  136.9347  161.3671 N   0  0  0  0  0  0  0  0  0  0  0  0
  147.7821  136.3400  160.1688 N   0  0  0  0  0  0  0  0  0  0  0  0
  147.8836  135.2452  155.0603 C   0  0  0  0  0  0  0  0  0  0  0  0
  146.5361  132.8623  149.1299 H   0  0  0  0  0  0  0  0  0  0  0  0
  144.9617  132.0878  149.2856 H   0  0  0  0  0  0  0  0  0  0  0  0
  146.3848  131.3280  149.9827 H   0  0  0  0  0  0  0  0  0  0  0  0
  145.0175  132.4094  151.7385 H   0  0  0  0  0  0  0  0  0  0  0  0
  145.5081  135.0477  150.2670 H   0  0  0  0  0  0  0  0  0  0  0  0
  144.6214  134.8570  151.7780 H   0  0  0  0  0  0  0  0  0  0  0  0
  143.9820  134.1716  150.2974 H   0  0  0  0  0  0  0  0  0  0  0  0
  147.5128  132.3170  151.9462 H   0  0  0  0  0  0  0  0  0  0  0  0
  147.6200  133.9232  151.2794 H   0  0  0  0  0  0  0  0  0  0  0  0
  145.9959  134.5594  153.3318 H   0  0  0  0  0  0  0  0  0  0  0  0
  146.4953  133.0056  153.9434 H   0  0  0  0  0  0  0  0  0  0  0  0
  149.2322  132.7682  153.1735 H   0  0  0  0  0  0  0  0  0  0  0  0
  150.0851  133.9553  154.1259 H   0  0  0  0  0  0  0  0  0  0  0  0
  148.0078  131.9827  155.2416 H   0  0  0  0  0  0  0  0  0  0  0  0
  149.7406  131.9250  155.4921 H   0  0  0  0  0  0  0  0  0  0  0  0
  146.7623  133.8047  156.2436 H   0  0  0  0  0  0  0  0  0  0  0  0
  148.5015  135.8944  157.6376 H   0  0  0  0  0  0  0  0  0  0  0  0
  146.7472  135.8615  157.5702 H   0  0  0  0  0  0  0  0  0  0  0  0
  147.6389  133.4043  158.7073 H   0  0  0  0  0  0  0  0  0  0  0  0
  147.2489  133.1204  161.1099 H   0  0  0  0  0  0  0  0  0  0  0  0
  147.2725  134.2436  163.3679 H   0  0  0  0  0  0  0  0  0  0  0  0
  147.6373  136.7360  163.4266 H   0  0  0  0  0  0  0  0  0  0  0  0
  148.7793  135.8565  155.1800 H   0  0  0  0  0  0  0  0  0  0  0  0
  147.0571  135.9451  154.9452 H   0  0  0  0  0  0  0  0  0  0  0  0
  148.3890  135.0382  153.1143 H   0  0  0  0  0  0  0  0  0  0  0  0
  1  2  1  0  0  0  0
  1 20  1  0  0  0  0
  1 21  1  0  0  0  0
  1 22  1  0  0  0  0
  2  3  1  0  0  0  0
  2  4  1  0  0  0  0
  2 23  1  0  0  0  0
  3 24  1  0  0  0  0
  3 25  1  0  0  0  0
  3 26  1  0  0  0  0
  4  5  1  0  0  0  0
  4 27  1  0  0  0  0
  4 28  1  0  0  0  0
  5  6  1  0  0  0  0
  5 29  1  0  0  0  0
  5 30  1  0  0  0  0
  6 19  1  0  0  0  0
  6  7  1  0  0  0  0
  6 44  1  0  0  0  0
  7  8  1  0  0  0  0
  7 31  1  0  0  0  0
  7 32  1  0  0  0  0
  8  9  1  0  0  0  0
  8 33  1  0  0  0  0
  8 34  1  0  0  0  0
  9 10  1  0  0  0  0
 10 11  1  0  0  0  0
 10 19  1  0  0  0  0
 10 35  1  0  0  0  0
 11 12  1  0  0  0  0
 11 36  1  0  0  0  0
 11 37  1  0  0  0  0
 12 13  1  0  0  0  0
 12 38  1  0  0  0  0
 13 18  1  0  0  0  0
 13 14  2  0  0  0  0
 14 15  1  0  0  0  0
 14 39  1  0  0  0  0
 15 16  2  0  0  0  0
 15 40  1  0  0  0  0
 16 17  1  0  0  0  0
 16 41  1  0  0  0  0
 17 18  2  0  0  0  0
 19 42  1  0  0  0  0
 19 43  1  0  0  0  0
M  CHG  1   6   1
M  END
> <s_m_source_file>
AV-unprocessed.smi

> <i_m_source_file_index>
861

> <i_lp_mmshare_version>
43012

> <i_f3d_flags>
0

> <s_epik_input>
W0NIM11bQ0hdKFtDSDNdKVtDSDJdW0NIMl1OMVtDSDJdW0NIMl1PW0NASF0oW0NIMl0xKVtDSDJdW05IXWMyW2NIXVtjSF1bY0hdbm4y

> <s_epik_cmdline>
J2VwaWtfcHl0aG9uJywgJy1waCcsICc3LjAnLCAnLXRuJywgJzgnLCAnLW1hJywgJzIwMCcsICctbWV0YWxfYmluZGluZycsICctaW1hZScsICc8aW5maWxlLm1hZT4nLCAnLW9tYWUnLCAnPG91dGZpbGUubWFlPic=

> <r_lp_tautomer_probability>
0.999978

> <r_epik_Ionization_Penalty>
0.114704

> <r_epik_Ionization_Penalty_Charging>
0.0953451

> <r_epik_Ionization_Penalty_Neutral>
0.0193593

> <r_epik_State_Penalty>
0.104983

> <r_epik_Charging_Adjusted_Penalty>
0.200328

> <i_epik_Tot_Q>
1

> <i_epik_Tot_abs_Q>
1

> <r_epik_Metal_State_Penalty>
0.100113

> <b_epik_Metal_Only>
0

> <s_lp_Force_Field>
OPLS_2005

> <r_lp_Energy>
26.6721

> <b_lp_Chiralities_Consistent>
1

> <s_lp_Variant>
AV-unprocessed.smi:861-2

> <Gold.Version>
5.8.1

> <Gold.Id.Protein>
6NUR|6NUR_protein|mol2

> <Gold.PLP.Fitness>
43.6812

> <Gold.PLP.PLP>
-32.3937

> <Gold.PLP.part.hbond>
-3.0000

> <Gold.PLP.part.metal>
0.0000

> <Gold.PLP.part.buried>
-5.1119

> <Gold.PLP.part.nonpolar>
-25.0066

> <Gold.PLP.part.repulsive>
0.0470

> <Gold.PLP.ligand.clash>
0.0000

> <Gold.PLP.ligand.torsion>
0.1751

> <Gold.PLP.Chemscore.Hbond>
3.8406

> <Gold.PLP.Chemscore.CHOScore>
0.0000

> <Gold.PLP.Chemscore.Metal>
0.0000

> <Gold.Chemscore.Hbonds>
donor molecule, donor type, donor heavy atom, donor atom, acceptor molecule, acceptor atom, score
      L1  H     6    44       P1  7948  2.00
      P1  H  6931  6943       L1    17  1.00
      P1  H  6934  6947       L1    17  0.44

> <Gold.PLP.Chemscore.Internal.Correction>
0.1160

> <Gold.Rescore>
     Score         DG    S(hbond)    S(metal)    S(lipo)     H(rot)  DE(clash)    DE(int)     intcor
     15.71     -16.13       1.83        0.00      76.31       1.71       0.30       0.12       ----

> <Gold.Chemscore.Fitness>
15.7095

> <Gold.Chemscore.DG>
-16.1280

> <Gold.Chemscore.ZeroCoef>
-5.4800

> <Gold.Chemscore.Hbond>
1.8276

> <Gold.Chemscore.Metal>
0.0000

> <Gold.Chemscore.Lipo>
76.3092

> <Gold.Chemscore.Internal_Hbond>
0.0000

> <Gold.Chemscore.DEClash>
0.3006

> <Gold.Chemscore.DEInternal>
0.1179

> <Gold.Chemscore.Rot>
1.7127

> <Gold.Chemscore.Internal.Correction>
   9.000000E+99

> <Gold.Chemscore.Hbonds>
donor molecule, donor type, donor heavy atom, donor atom, acceptor molecule, acceptor atom, score
      L1  H     6    44       P1  7948  0.85
      P1  H  6931  6943       L1    17  0.39
      P1  H  6934  6947       L1    17  0.20

> <Gold.Chemscore.Hbond.Weighted>
-6.1043

> <Gold.Chemscore.Metal.Weighted>
-0.0000

> <Gold.Chemscore.Lipo.Weighted>
-8.9282

> <Gold.Chemscore.Internal_Hbond.Weighted>
0.0000

> <Gold.Chemscore.DEClash.Weighted>
0.3006

> <Gold.Chemscore.DEInternal.Weighted>
0.1179

> <Gold.Chemscore.Rot.Weighted>
4.3844

> <Gold.Chemscore.Internal.Correction.Weighted>
   9.000000E+99

> <Gold.Protein.RotatedTorsions>
[ 6907 6896 6895 6894 ] final -105.13 input  -60.11 | X-H torsion
[ 7974 7965 7964 7962 ] final -100.43 input  175.53 | X-H torsion
[ 8008 7997 7996 7995 ] final   72.55 input   59.86 | X-H torsion
[ 10167 10162 10161 10158 ] final  -45.82 input  -65.29 | X-H torsion
[ 10718 10713 10712 10709 ] final -140.37 input   66.30 | X-H torsion
[ 10763 10752 10751 10750 ] final  105.52 input  -60.55 | X-H torsion
[ 11005 11000 10999 10996 ] final  -51.47 input  -57.11 | X-H torsion

> <Gold.Protein.ActiveResidues>
 VAL166  LYS551  ARG553  GLY616  TRP617  ASP618  TYR619  PRO620  LYS621  CYS622 
 ASP623  PHE694  ASN695  SER759  ASP760  ASP761  ALA762  ILE779  LEU786  VAL792 
 PHE793  MET794  SER795  GLU796  ALA797  LYS798  CYS799  TRP800  GLU811  SER814 

> <Gold.Protein.RotatedAtoms>
  150.7321  134.0173  159.3689 H   0  0  0  0  0  0  0  0  0  0  0  0  # atno 6907 bound_to 6896
  151.8136  135.0671  160.0425 H   0  0  0  0  0  0  0  0  0  0  0  0  # atno 6908 bound_to 6896
  152.3055  133.5662  159.5682 H   0  0  0  0  0  0  0  0  0  0  0  0  # atno 6909 bound_to 6896
  145.2947  140.9362  143.2858 H   0  0  0  0  0  0  0  0  0  0  0  0  # atno 7974 bound_to 7965
  155.7706  140.3484  155.5245 H   0  0  0  0  0  0  0  0  0  0  0  0  # atno 8008 bound_to 7997
  155.8826  140.1004  157.1496 H   0  0  0  0  0  0  0  0  0  0  0  0  # atno 8009 bound_to 7997
  154.4026  140.1319  156.4202 H   0  0  0  0  0  0  0  0  0  0  0  0  # atno 8010 bound_to 7997
  140.6843  143.2861  151.3693 H   0  0  0  0  0  0  0  0  0  0  0  0  # atno 10167 bound_to 10162
  156.3215  130.7536  151.1635 H   0  0  0  0  0  0  0  0  0  0  0  0  # atno 10718 bound_to 10713
  153.3804  135.3907  155.1853 H   0  0  0  0  0  0  0  0  0  0  0  0  # atno 10763 bound_to 10752
  154.8707  135.3724  154.4864 H   0  0  0  0  0  0  0  0  0  0  0  0  # atno 10764 bound_to 10752
  153.5340  135.7085  153.5730 H   0  0  0  0  0  0  0  0  0  0  0  0  # atno 10765 bound_to 10752
  141.0873  133.6640  156.3882 H   0  0  0  0  0  0  0  0  0  0  0  0  # atno 11005 bound_to 11000
  144.9143  139.4489  143.6571 LP  0  0  0  0  0  0  0  0  0  0  0  0  # atno 17320 bound_to 7965
  146.3173  139.7969  142.8973 LP  0  0  0  0  0  0  0  0  0  0  0  0  # atno 17321 bound_to 7965
  139.6188  144.0948  152.2372 LP  0  0  0  0  0  0  0  0  0  0  0  0  # atno 17342 bound_to 10162
  140.0386  144.6025  150.7430 LP  0  0  0  0  0  0  0  0  0  0  0  0  # atno 17343 bound_to 10162
  157.7412  131.0506  150.5109 LP  0  0  0  0  0  0  0  0  0  0  0  0  # atno 17370 bound_to 10713
  156.5262  130.4174  149.6225 LP  0  0  0  0  0  0  0  0  0  0  0  0  # atno 17371 bound_to 10713
  140.5334  134.6190  157.5357 LP  0  0  0  0  0  0  0  0  0  0  0  0  # atno 17394 bound_to 11000
  139.9693  134.7320  156.0074 LP  0  0  0  0  0  0  0  0  0  0  0  0  # atno 17395 bound_to 11000

$$$$
