AV-unprocessed.smi:191|AV-procd|sdf|1493|dock10
  -GOLD-   2262019313D 1   1.00000     0.00000
 Structure written by MMmdl.
 46 48  0  0  0  0  0  0  0  0  1 V2000
  141.4148  134.2377  153.2324 C   0  0  0  0  0  0  0  0  0  0  0  0
  142.5574  135.0570  153.8466 C   0  0  0  0  0  0  0  0  0  0  0  0
  143.8351  134.8198  153.1794 N   0  0  0  0  0  0  0  0  0  0  0  0
  143.7840  134.3750  151.7862 C   0  0  0  0  0  0  0  0  0  0  0  0
  144.2371  132.9152  151.5847 C   0  0  2  0  0  0  0  0  0  0  0  0
  145.7595  132.7869  151.7101 C   0  0  0  0  0  0  0  0  0  0  0  0
  143.7750  132.3774  150.2941 C   0  0  0  0  0  0  0  0  0  0  0  0
  143.4117  131.9547  149.2804 N   0  0  0  0  0  0  0  0  0  0  0  0
  144.7160  135.8197  153.3995 C   0  0  0  0  0  0  0  0  0  0  0  0
  144.7353  136.8398  152.5075 N   0  0  0  0  0  0  0  0  0  0  0  0
  145.5856  137.8567  152.6769 C   0  0  0  0  0  0  0  0  0  0  0  0
  146.4818  138.0428  153.6489 N   0  0  0  0  0  0  0  0  0  0  0  0
  146.4628  137.0172  154.5479 C   0  0  0  0  0  0  0  0  0  0  0  0
  145.6188  135.8724  154.4980 C   0  0  0  0  0  0  0  0  0  0  0  0
  145.8845  135.0373  155.5759 N   0  0  0  0  0  0  0  0  0  0  0  0
  146.8363  135.6512  156.2240 C   0  0  0  0  0  0  0  0  0  0  0  0
  147.2374  136.8528  155.6832 N   0  0  0  0  0  0  0  0  0  0  0  0
  148.2724  137.7340  156.2028 C   0  0  0  0  0  0  0  0  0  0  0  0
  149.5524  137.7862  155.3422 C   0  0  0  0  0  0  0  0  0  0  0  0
  150.1093  136.3724  155.0991 C   0  0  0  0  0  0  0  0  0  0  0  0
  151.2898  136.4083  154.3225 O   0  0  0  0  0  0  0  0  0  0  0  0
  149.4774  138.6721  154.0907 C   0  0  0  0  0  0  0  0  0  0  0  0
  150.6983  139.3602  154.4363 O   0  0  0  0  0  0  0  0  0  0  0  0
  150.6095  138.8149  155.7696 C   0  0  0  0  0  0  0  0  0  0  0  0
  140.4891  134.3982  153.7850 H   0  0  0  0  0  0  0  0  0  0  0  0
  141.6374  133.1706  153.2627 H   0  0  0  0  0  0  0  0  0  0  0  0
  141.2272  134.5136  152.1950 H   0  0  0  0  0  0  0  0  0  0  0  0
  142.3159  136.1195  153.7962 H   0  0  0  0  0  0  0  0  0  0  0  0
  142.6373  134.8058  154.9059 H   0  0  0  0  0  0  0  0  0  0  0  0
  142.7646  134.4794  151.4160 H   0  0  0  0  0  0  0  0  0  0  0  0
  144.3965  135.0398  151.1762 H   0  0  0  0  0  0  0  0  0  0  0  0
  143.7906  132.2853  152.3543 H   0  0  0  0  0  0  0  0  0  0  0  0
  146.0744  131.7496  151.5929 H   0  0  0  0  0  0  0  0  0  0  0  0
  146.1035  133.1292  152.6865 H   0  0  0  0  0  0  0  0  0  0  0  0
  146.2697  133.3779  150.9490 H   0  0  0  0  0  0  0  0  0  0  0  0
  145.5418  138.6321  151.9262 H   0  0  0  0  0  0  0  0  0  0  0  0
  147.2710  135.2447  157.1258 H   0  0  0  0  0  0  0  0  0  0  0  0
  147.8458  138.7321  156.3103 H   0  0  0  0  0  0  0  0  0  0  0  0
  148.5064  137.4094  157.2174 H   0  0  0  0  0  0  0  0  0  0  0  0
  150.3497  135.8886  156.0466 H   0  0  0  0  0  0  0  0  0  0  0  0
  149.3774  135.7284  154.6116 H   0  0  0  0  0  0  0  0  0  0  0  0
  151.0481  136.4312  153.4088 H   0  0  0  0  0  0  0  0  0  0  0  0
  149.5544  138.1254  153.1502 H   0  0  0  0  0  0  0  0  0  0  0  0
  148.6215  139.3493  154.0779 H   0  0  0  0  0  0  0  0  0  0  0  0
  150.2493  139.5600  156.4803 H   0  0  0  0  0  0  0  0  0  0  0  0
  151.5479  138.3748  156.1094 H   0  0  0  0  0  0  0  0  0  0  0  0
  1  2  1  0  0  0  0
  1 25  1  0  0  0  0
  1 26  1  0  0  0  0
  1 27  1  0  0  0  0
  2  3  1  0  0  0  0
  2 28  1  0  0  0  0
  2 29  1  0  0  0  0
  3  4  1  0  0  0  0
  3  9  1  0  0  0  0
  4  5  1  0  0  0  0
  4 30  1  0  0  0  0
  4 31  1  0  0  0  0
  5  6  1  0  0  0  0
  5  7  1  0  0  0  0
  5 32  1  0  0  0  0
  6 33  1  0  0  0  0
  6 34  1  0  0  0  0
  6 35  1  0  0  0  0
  7  8  3  0  0  0  0
  9 14  1  0  0  0  0
  9 10  2  0  0  0  0
 10 11  1  0  0  0  0
 11 12  2  0  0  0  0
 11 36  1  0  0  0  0
 12 13  1  0  0  0  0
 13 17  1  0  0  0  0
 13 14  2  0  0  0  0
 14 15  1  0  0  0  0
 15 16  2  0  0  0  0
 16 17  1  0  0  0  0
 16 37  1  0  0  0  0
 17 18  1  0  0  0  0
 18 19  1  0  0  0  0
 18 38  1  0  0  0  0
 18 39  1  0  0  0  0
 19 24  1  0  0  0  0
 19 20  1  0  0  0  0
 19 22  1  0  0  0  0
 20 21  1  0  0  0  0
 20 40  1  0  0  0  0
 20 41  1  0  0  0  0
 21 42  1  0  0  0  0
 22 23  1  0  0  0  0
 22 43  1  0  0  0  0
 22 44  1  0  0  0  0
 23 24  1  0  0  0  0
 24 45  1  0  0  0  0
 24 46  1  0  0  0  0
M  END
> <s_m_source_file>
AV-unprocessed.smi

> <i_m_source_file_index>
191

> <i_lp_mmshare_version>
43012

> <i_f3d_flags>
0

> <s_epik_input>
TiNDW0NAQEhdKFtDSDNdKVtDSDJdTihbQ0gyXVtDSDNdKWMobltjSF1uMSljKGMxMiluW2NIXW4yW0NIMl1DMyhbQ0gyXVtPSF0pW0NIMl1PW0NIMl0z

> <s_epik_cmdline>
J2VwaWtfcHl0aG9uJywgJy1waCcsICc3LjAnLCAnLXRuJywgJzgnLCAnLW1hJywgJzIwMCcsICctbWV0YWxfYmluZGluZycsICctaW1hZScsICc8aW5maWxlLm1hZT4nLCAnLW9tYWUnLCAnPG91dGZpbGUubWFlPic=

> <r_lp_tautomer_probability>
1

> <r_epik_Ionization_Penalty>
0.000569684

> <r_epik_Ionization_Penalty_Charging>
0

> <r_epik_Ionization_Penalty_Neutral>
0.000569684

> <r_epik_State_Penalty>
0.000286009

> <r_epik_Charging_Adjusted_Penalty>
0.000286009

> <i_epik_Tot_Q>
0

> <i_epik_Tot_abs_Q>
0

> <r_epik_Metal_State_Penalty>
-0

> <b_epik_Metal_Only>
0

> <s_lp_Force_Field>
OPLS_2005

> <r_lp_Energy>
28.3961

> <b_lp_Chiralities_Consistent>
1

> <s_lp_Variant>
AV-unprocessed.smi:191-1

> <Gold.Version>
5.8.1

> <Gold.Id.Protein>
6NUR|6NUR_protein|mol2

> <Gold.PLP.Fitness>
40.3244

> <Gold.PLP.PLP>
-27.9478

> <Gold.PLP.part.hbond>
-4.1677

> <Gold.PLP.part.metal>
0.0000

> <Gold.PLP.part.buried>
-5.3356

> <Gold.PLP.part.nonpolar>
-20.7565

> <Gold.PLP.part.repulsive>
0.9078

> <Gold.PLP.ligand.clash>
0.0000

> <Gold.PLP.ligand.torsion>
2.0441

> <Gold.PLP.Chemscore.Hbond>
3.9280

> <Gold.PLP.Chemscore.CHOScore>
1.2930

> <Gold.PLP.Chemscore.Metal>
0.0000

> <Gold.Chemscore.Hbonds>
donor molecule, donor type, donor heavy atom, donor atom, acceptor molecule, acceptor atom, score
      L1  H    21    42       P1  7949  1.00
      P1  H  7989  7998       L1    23  1.00
      P1  H 10752 10765       L1    21  1.00
      P1  H 10785 10796       L1     8  1.00
      L1  C    11    36       P1 10171  0.55
      L1  C    11    36       P1 10175  0.45

> <Gold.PLP.Chemscore.Internal.Correction>
0.8018

> <Gold.Rescore>
     Score         DG    S(hbond)    S(metal)    S(lipo)     H(rot)  DE(clash)    DE(int)     intcor
     11.04     -14.46       3.49        0.00      52.33       3.43       0.46       2.96       ----

> <Gold.Chemscore.Fitness>
11.0431

> <Gold.Chemscore.DG>
-14.4642

> <Gold.Chemscore.ZeroCoef>
-5.4800

> <Gold.Chemscore.Hbond>
3.4859

> <Gold.Chemscore.Metal>
0.0000

> <Gold.Chemscore.Lipo>
52.3325

> <Gold.Chemscore.Internal_Hbond>
0.0000

> <Gold.Chemscore.DEClash>
0.4607

> <Gold.Chemscore.DEInternal>
2.9603

> <Gold.Chemscore.Rot>
3.4303

> <Gold.Chemscore.Internal.Correction>
   9.000000E+99

> <Gold.Chemscore.Hbonds>
donor molecule, donor type, donor heavy atom, donor atom, acceptor molecule, acceptor atom, score
      L1  H    21    42       P1  7949  0.29
      P1  H  7989  7998       L1    23  0.96
      P1  H 10752 10765       L1    21  0.82
      P1  H 10785 10796       L1     8  0.95

> <Gold.Chemscore.Hbond.Weighted>
-11.6429

> <Gold.Chemscore.Metal.Weighted>
-0.0000

> <Gold.Chemscore.Lipo.Weighted>
-6.1229

> <Gold.Chemscore.Internal_Hbond.Weighted>
0.0000

> <Gold.Chemscore.DEClash.Weighted>
0.4607

> <Gold.Chemscore.DEInternal.Weighted>
2.9603

> <Gold.Chemscore.Rot.Weighted>
8.7817

> <Gold.Chemscore.Internal.Correction.Weighted>
   9.000000E+99

> <Gold.Protein.RotatedTorsions>
[ 6907 6896 6895 6894 ] final   -6.32 input  -60.11 | X-H torsion
[ 7974 7965 7964 7962 ] final  -64.29 input  175.53 | X-H torsion
[ 8008 7997 7996 7995 ] final  101.99 input   59.86 | X-H torsion
[ 10167 10162 10161 10158 ] final -173.49 input  -65.29 | X-H torsion
[ 10718 10713 10712 10709 ] final -154.45 input   66.30 | X-H torsion
[ 10763 10752 10751 10750 ] final -179.94 input  -60.55 | X-H torsion
[ 11005 11000 10999 10996 ] final   24.53 input  -57.11 | X-H torsion

> <Gold.Protein.ActiveResidues>
 VAL166  LYS551  ARG553  GLY616  TRP617  ASP618  TYR619  PRO620  LYS621  CYS622 
 ASP623  PHE694  ASN695  SER759  ASP760  ASP761  ALA762  ILE779  LEU786  VAL792 
 PHE793  MET794  SER795  GLU796  ALA797  LYS798  CYS799  TRP800  GLU811  SER814 

> <Gold.Protein.RotatedAtoms>
  151.4675  135.1043  159.9741 H   0  0  0  0  0  0  0  0  0  0  0  0  # atno 6907 bound_to 6896
  152.4829  133.8296  159.7107 H   0  0  0  0  0  0  0  0  0  0  0  0  # atno 6908 bound_to 6896
  150.8915  133.7176  159.2930 H   0  0  0  0  0  0  0  0  0  0  0  0  # atno 6909 bound_to 6896
  145.7685  140.8825  143.0392 H   0  0  0  0  0  0  0  0  0  0  0  0  # atno 7974 bound_to 7965
  156.1351  140.3188  155.8408 H   0  0  0  0  0  0  0  0  0  0  0  0  # atno 8008 bound_to 7997
  155.4259  140.0515  157.3039 H   0  0  0  0  0  0  0  0  0  0  0  0  # atno 8009 bound_to 7997
  154.4930  140.2100  155.9519 H   0  0  0  0  0  0  0  0  0  0  0  0  # atno 8010 bound_to 7997
  139.5685  144.1697  152.1349 H   0  0  0  0  0  0  0  0  0  0  0  0  # atno 10167 bound_to 10162
  156.4995  130.8384  151.2603 H   0  0  0  0  0  0  0  0  0  0  0  0  # atno 10718 bound_to 10713
  154.5286  135.2798  155.1200 H   0  0  0  0  0  0  0  0  0  0  0  0  # atno 10763 bound_to 10752
  154.2729  135.6300  153.5321 H   0  0  0  0  0  0  0  0  0  0  0  0  # atno 10764 bound_to 10752
  152.9952  135.5632  154.5794 H   0  0  0  0  0  0  0  0  0  0  0  0  # atno 10765 bound_to 10752
  140.3576  134.2160  155.7674 H   0  0  0  0  0  0  0  0  0  0  0  0  # atno 11005 bound_to 11000
  144.6817  139.9822  143.7483 LP  0  0  0  0  0  0  0  0  0  0  0  0  # atno 17320 bound_to 7965
  146.0193  139.3237  143.0822 LP  0  0  0  0  0  0  0  0  0  0  0  0  # atno 17321 bound_to 7965
  140.1225  144.5361  150.6854 LP  0  0  0  0  0  0  0  0  0  0  0  0  # atno 17342 bound_to 10162
  140.6970  143.2410  151.4973 LP  0  0  0  0  0  0  0  0  0  0  0  0  # atno 17343 bound_to 10162
  157.7464  130.9986  150.2860 LP  0  0  0  0  0  0  0  0  0  0  0  0  # atno 17370 bound_to 10713
  156.3347  130.3806  149.7460 LP  0  0  0  0  0  0  0  0  0  0  0  0  # atno 17371 bound_to 10713
  141.1993  133.8013  157.0540 LP  0  0  0  0  0  0  0  0  0  0  0  0  # atno 17394 bound_to 11000
  140.0652  134.9733  157.1374 LP  0  0  0  0  0  0  0  0  0  0  0  0  # atno 17395 bound_to 11000

$$$$
