AV-unprocessed.smi:308|AV-procd|sdf|2289|dock3
  -GOLD-   2262022193D 1   1.00000     0.00000
 Structure written by MMmdl.
 50 51  0  0  0  0  0  0  0  0  4 V2000
  145.4527  131.8022  150.2001 C   0  0  0  0  0  0  0  0  0  0  0  0
  145.1853  133.0076  151.1126 C   0  0  2  0  0  0  0  0  0  0  0  0
  145.1322  134.3227  150.3163 C   0  0  0  0  0  0  0  0  0  0  0  0
  144.8966  135.5267  151.2429 C   0  0  0  0  0  0  0  0  0  0  0  0
  145.9435  135.6004  152.2978 N   0  3  1  0  0  0  0  0  0  0  0  0
  145.8746  136.8346  153.1259 C   0  0  0  0  0  0  0  0  0  0  0  0
  145.8415  138.1113  152.2588 C   0  0  0  0  0  0  0  0  0  0  0  0
  147.0854  138.8712  152.4141 N   0  5  0  0  0  0  0  0  0  0  0  0
  147.3577  139.7194  153.4422 C   0  0  0  0  0  0  0  0  0  0  0  0
  146.5526  140.3950  154.0923 O   0  0  0  0  0  0  0  0  0  0  0  0
  148.6742  139.7782  153.7112 N   0  0  0  0  0  0  0  0  0  0  0  0
  149.3624  140.5411  154.6934 C   0  0  0  0  0  0  0  0  0  0  0  0
  150.4728  139.9446  155.3246 C   0  0  0  0  0  0  0  0  0  0  0  0
  151.1795  140.6518  156.3182 C   0  0  0  0  0  0  0  0  0  0  0  0
  150.7644  141.9555  156.6850 C   0  0  0  0  0  0  0  0  0  0  0  0
  151.4197  142.7266  157.6694 N   0  0  0  0  0  0  0  0  0  0  0  0
  151.9159  142.0824  158.8802 C   0  0  0  0  0  0  0  0  0  0  0  0
  151.4806  144.1757  157.5311 C   0  0  0  0  0  0  0  0  0  0  0  0
  149.6814  142.4808  156.0612 N   0  3  0  0  0  0  0  0  0  0  0  0
  148.9769  141.8390  155.1043 C   0  0  0  0  0  0  0  0  0  0  0  0
  145.9909  134.3580  153.1103 C   0  0  0  0  0  0  0  0  0  0  0  0
  146.2435  133.1273  152.2230 C   0  0  0  0  0  0  0  0  0  0  0  0
  146.4184  131.8879  149.7007 H   0  0  0  0  0  0  0  0  0  0  0  0
  144.6861  131.7157  149.4292 H   0  0  0  0  0  0  0  0  0  0  0  0
  145.4536  130.8720  150.7689 H   0  0  0  0  0  0  0  0  0  0  0  0
  144.2129  132.8572  151.5841 H   0  0  0  0  0  0  0  0  0  0  0  0
  146.0653  134.4637  149.7687 H   0  0  0  0  0  0  0  0  0  0  0  0
  144.3396  134.2754  149.5687 H   0  0  0  0  0  0  0  0  0  0  0  0
  144.8992  136.4413  150.6492 H   0  0  0  0  0  0  0  0  0  0  0  0
  143.9126  135.4555  151.7089 H   0  0  0  0  0  0  0  0  0  0  0  0
  145.0032  136.7991  153.7812 H   0  0  0  0  0  0  0  0  0  0  0  0
  146.7372  136.8929  153.7916 H   0  0  0  0  0  0  0  0  0  0  0  0
  145.6911  137.8222  151.2186 H   0  0  0  0  0  0  0  0  0  0  0  0
  144.9631  138.7004  152.5238 H   0  0  0  0  0  0  0  0  0  0  0  0
  149.2627  139.2564  153.0782 H   0  0  0  0  0  0  0  0  0  0  0  0
  150.7887  138.9496  155.0465 H   0  0  0  0  0  0  0  0  0  0  0  0
  152.0309  140.1785  156.7834 H   0  0  0  0  0  0  0  0  0  0  0  0
  152.6454  141.3105  158.6333 H   0  0  0  0  0  0  0  0  0  0  0  0
  151.0959  141.6221  159.4319 H   0  0  0  0  0  0  0  0  0  0  0  0
  152.4026  142.8003  159.5405 H   0  0  0  0  0  0  0  0  0  0  0  0
  150.4766  144.6007  157.5049 H   0  0  0  0  0  0  0  0  0  0  0  0
  152.0011  144.4517  156.6136 H   0  0  0  0  0  0  0  0  0  0  0  0
  152.0154  144.6317  158.3643 H   0  0  0  0  0  0  0  0  0  0  0  0
  148.1300  142.3877  154.7203 H   0  0  0  0  0  0  0  0  0  0  0  0
  146.7908  134.4337  153.8484 H   0  0  0  0  0  0  0  0  0  0  0  0
  145.0561  134.2451  153.6616 H   0  0  0  0  0  0  0  0  0  0  0  0
  146.2445  132.2268  152.8380 H   0  0  0  0  0  0  0  0  0  0  0  0
  147.2381  133.1996  151.7802 H   0  0  0  0  0  0  0  0  0  0  0  0
  146.8357  135.6558  151.8256 H   0  0  0  0  0  0  0  0  0  0  0  0
  149.3770  143.4160  156.3313 H   0  0  0  0  0  0  0  0  0  0  0  0
  1  2  1  0  0  0  0
  1 23  1  0  0  0  0
  1 24  1  0  0  0  0
  1 25  1  0  0  0  0
  2 22  1  0  0  0  0
  2  3  1  0  0  0  0
  2 26  1  0  0  0  0
  3  4  1  0  0  0  0
  3 27  1  0  0  0  0
  3 28  1  0  0  0  0
  4  5  1  0  0  0  0
  4 29  1  0  0  0  0
  4 30  1  0  0  0  0
  5  6  1  0  0  0  0
  5 21  1  0  0  0  0
  5 49  1  0  0  0  0
  6  7  1  0  0  0  0
  6 31  1  0  0  0  0
  6 32  1  0  0  0  0
  7  8  1  0  0  0  0
  7 33  1  0  0  0  0
  7 34  1  0  0  0  0
  8  9  1  0  0  0  0
  9 10  2  0  0  0  0
  9 11  1  0  0  0  0
 11 12  1  0  0  0  0
 11 35  1  0  0  0  0
 12 20  1  0  0  0  0
 12 13  2  0  0  0  0
 13 14  1  0  0  0  0
 13 36  1  0  0  0  0
 14 15  2  0  0  0  0
 14 37  1  0  0  0  0
 15 16  1  0  0  0  0
 15 19  1  0  0  0  0
 16 17  1  0  0  0  0
 16 18  1  0  0  0  0
 17 38  1  0  0  0  0
 17 39  1  0  0  0  0
 17 40  1  0  0  0  0
 18 41  1  0  0  0  0
 18 42  1  0  0  0  0
 18 43  1  0  0  0  0
 19 20  2  0  0  0  0
 19 50  1  0  0  0  0
 20 44  1  0  0  0  0
 21 22  1  0  0  0  0
 21 45  1  0  0  0  0
 21 46  1  0  0  0  0
 22 47  1  0  0  0  0
 22 48  1  0  0  0  0
M  CHG  1   5   1
M  CHG  1   8  -1
M  CHG  1  19   1
M  END
> <s_m_source_file>
AV-unprocessed.smi

> <i_m_source_file_index>
308

> <i_lp_mmshare_version>
43012

> <i_f3d_flags>
0

> <s_epik_input>
W0NIM11bQ0hdMVtDSDJdW0NIMl1OKFtDSDJdW0NIMl0xKVtDSDJdW0NIMl1bTkhdQyg9TylbTkhdYzJbY0hdW2NIXWMoTihbQ0gzXSlbQ0gzXSluW2NIXTI=

> <s_epik_cmdline>
J2VwaWtfcHl0aG9uJywgJy1waCcsICc3LjAnLCAnLXRuJywgJzgnLCAnLW1hJywgJzIwMCcsICctbWV0YWxfYmluZGluZycsICctaW1hZScsICc8aW5maWxlLm1hZT4nLCAnLW9tYWUnLCAnPG91dGZpbGUubWFlPic=

> <r_lp_tautomer_probability>
0.999994

> <r_epik_Ionization_Penalty>
7.42107

> <r_epik_Ionization_Penalty_Charging>
7.42107

> <r_epik_Ionization_Penalty_Neutral>
3.68925e-06

> <r_epik_State_Penalty>
7.0982

> <r_epik_Charging_Adjusted_Penalty>
14.5193

> <i_epik_Tot_Q>
1

> <i_epik_Tot_abs_Q>
3

> <r_epik_Metal_State_Penalty>
3.28646

> <b_epik_Metal_Only>
1

> <s_lp_Force_Field>
OPLS_2005

> <r_lp_Energy>
19.707

> <b_lp_Chiralities_Consistent>
1

> <s_lp_Variant>
AV-unprocessed.smi:308-5

> <Gold.Version>
5.8.1

> <Gold.Id.Protein>
6NUR|6NUR_protein|mol2

> <Gold.PLP.Fitness>
49.1446

> <Gold.PLP.PLP>
-40.2496

> <Gold.PLP.part.hbond>
-2.6779

> <Gold.PLP.part.metal>
0.0000

> <Gold.PLP.part.buried>
-1.4327

> <Gold.PLP.part.nonpolar>
-37.8576

> <Gold.PLP.part.repulsive>
1.7368

> <Gold.PLP.ligand.clash>
0.0000

> <Gold.PLP.ligand.torsion>
1.5013

> <Gold.PLP.Chemscore.Hbond>
3.8917

> <Gold.PLP.Chemscore.CHOScore>
0.0000

> <Gold.PLP.Chemscore.Metal>
0.0000

> <Gold.Chemscore.Hbonds>
donor molecule, donor type, donor heavy atom, donor atom, acceptor molecule, acceptor atom, score
      L1  H     5    49       P1  7948  1.33
      L1  H    11    35       P1  7957  0.32
      L1  H    19    50       P1  8028  1.57

> <Gold.PLP.Chemscore.Internal.Correction>
0.2226

> <Gold.Rescore>
     Score         DG    S(hbond)    S(metal)    S(lipo)     H(rot)  DE(clash)    DE(int)     intcor
     15.14     -19.51       1.89        0.00      97.02       1.42       1.63       2.73       ----

> <Gold.Chemscore.Fitness>
15.1450

> <Gold.Chemscore.DG>
-19.5094

> <Gold.Chemscore.ZeroCoef>
-5.4800

> <Gold.Chemscore.Hbond>
1.8934

> <Gold.Chemscore.Metal>
0.0000

> <Gold.Chemscore.Lipo>
97.0184

> <Gold.Chemscore.Internal_Hbond>
0.0000

> <Gold.Chemscore.DEClash>
1.6329

> <Gold.Chemscore.DEInternal>
2.7315

> <Gold.Chemscore.Rot>
1.4241

> <Gold.Chemscore.Internal.Correction>
   9.000000E+99

> <Gold.Chemscore.Hbonds>
donor molecule, donor type, donor heavy atom, donor atom, acceptor molecule, acceptor atom, score
      L1  H     5    49       P1  7948  0.64
      L1  H    11    35       P1  7957  0.31
      L1  H    19    50       P1  8028  0.73

> <Gold.Chemscore.Hbond.Weighted>
-6.3238

> <Gold.Chemscore.Metal.Weighted>
-0.0000

> <Gold.Chemscore.Lipo.Weighted>
-11.3512

> <Gold.Chemscore.Internal_Hbond.Weighted>
0.0000

> <Gold.Chemscore.DEClash.Weighted>
1.6329

> <Gold.Chemscore.DEInternal.Weighted>
2.7315

> <Gold.Chemscore.Rot.Weighted>
3.6456

> <Gold.Chemscore.Internal.Correction.Weighted>
   9.000000E+99

> <Gold.Protein.RotatedTorsions>
[ 6907 6896 6895 6894 ] final  115.53 input  -60.11 | X-H torsion
[ 7974 7965 7964 7962 ] final    2.18 input  175.53 | X-H torsion
[ 8008 7997 7996 7995 ] final  -18.17 input   59.86 | X-H torsion
[ 10167 10162 10161 10158 ] final  149.88 input  -65.29 | X-H torsion
[ 10718 10713 10712 10709 ] final  127.75 input   66.30 | X-H torsion
[ 10763 10752 10751 10750 ] final   99.31 input  -60.55 | X-H torsion
[ 11005 11000 10999 10996 ] final  102.59 input  -57.11 | X-H torsion

> <Gold.Protein.ActiveResidues>
 VAL166  LYS551  ARG553  GLY616  TRP617  ASP618  TYR619  PRO620  LYS621  CYS622 
 ASP623  PHE694  ASN695  SER759  ASP760  ASP761  ALA762  ILE779  LEU786  VAL792 
 PHE793  MET794  SER795  GLU796  ALA797  LYS798  CYS799  TRP800  GLU811  SER814 

> <Gold.Protein.RotatedAtoms>
  152.4736  133.8086  159.6990 H   0  0  0  0  0  0  0  0  0  0  0  0  # atno 6907 bound_to 6896
  150.8739  133.7457  159.2959 H   0  0  0  0  0  0  0  0  0  0  0  0  # atno 6908 bound_to 6896
  151.4983  135.1064  159.9874 H   0  0  0  0  0  0  0  0  0  0  0  0  # atno 6909 bound_to 6896
  146.2443  140.0875  142.8354 H   0  0  0  0  0  0  0  0  0  0  0  0  # atno 7974 bound_to 7965
  154.4925  140.2123  155.9517 H   0  0  0  0  0  0  0  0  0  0  0  0  # atno 8008 bound_to 7997
  156.1325  140.3194  155.8339 H   0  0  0  0  0  0  0  0  0  0  0  0  # atno 8009 bound_to 7997
  155.4270  140.0501  157.3012 H   0  0  0  0  0  0  0  0  0  0  0  0  # atno 8010 bound_to 7997
  139.4856  144.5566  151.7306 H   0  0  0  0  0  0  0  0  0  0  0  0  # atno 10167 bound_to 10162
  157.5305  131.1098  150.9016 H   0  0  0  0  0  0  0  0  0  0  0  0  # atno 10718 bound_to 10713
  153.2998  135.4118  155.1242 H   0  0  0  0  0  0  0  0  0  0  0  0  # atno 10763 bound_to 10752
  154.8546  135.3538  154.5867 H   0  0  0  0  0  0  0  0  0  0  0  0  # atno 10764 bound_to 10752
  153.6292  135.7061  153.5340 H   0  0  0  0  0  0  0  0  0  0  0  0  # atno 10765 bound_to 10752
  139.8778  134.9230  156.5081 H   0  0  0  0  0  0  0  0  0  0  0  0  # atno 11005 bound_to 11000
  145.0679  140.9135  143.4899 LP  0  0  0  0  0  0  0  0  0  0  0  0  # atno 17320 bound_to 7965
  145.1003  139.2827  143.5689 LP  0  0  0  0  0  0  0  0  0  0  0  0  # atno 17321 bound_to 7965
  140.5129  144.0997  150.6000 LP  0  0  0  0  0  0  0  0  0  0  0  0  # atno 17342 bound_to 10162
  140.3929  143.2743  152.0039 LP  0  0  0  0  0  0  0  0  0  0  0  0  # atno 17343 bound_to 10162
  156.9598  130.5451  149.5285 LP  0  0  0  0  0  0  0  0  0  0  0  0  # atno 17370 bound_to 10713
  156.0419  130.5500  150.8791 LP  0  0  0  0  0  0  0  0  0  0  0  0  # atno 17371 bound_to 10713
  140.8540  133.8110  155.9198 LP  0  0  0  0  0  0  0  0  0  0  0  0  # atno 17394 bound_to 11000
  140.9115  134.2254  157.4982 LP  0  0  0  0  0  0  0  0  0  0  0  0  # atno 17395 bound_to 11000

$$$$
