AV-unprocessed.smi:1579|AV-procd|sdf|6355|dock1
  -GOLD-   22720 6573D 1   1.00000     0.00000
 Structure written by MMmdl.
 47 48  0  0  0  0  0  0  0  0  2 V2000
  148.0036  132.1997  158.4400 C   0  0  0  0  0  0  0  0  0  0  0  0
  148.3172  133.6581  158.6382 C   0  0  0  0  0  0  0  0  0  0  0  0
  148.9945  134.2391  157.7028 N   0  0  0  0  0  0  0  0  0  0  0  0
  149.3329  135.5750  157.7842 N   0  0  0  0  0  0  0  0  0  0  0  0
  150.1015  136.0674  156.6345 C   0  0  0  0  0  0  0  0  0  0  0  0
  149.3118  135.9450  155.3127 C   0  0  1  0  0  0  0  0  0  0  0  0
  150.0081  136.6651  154.3141 O   0  0  0  0  0  0  0  0  0  0  0  0
  149.2152  134.4791  154.8429 C   0  0  0  0  0  0  0  0  0  0  0  0
  148.3291  134.3180  153.6614 N   0  3  2  0  0  0  0  0  0  0  0  0
  146.9463  134.8155  153.8894 C   0  0  0  0  0  0  0  0  0  0  0  0
  146.1175  134.7569  152.5954 C   0  0  0  0  0  0  0  0  0  0  0  0
  146.0852  133.3327  152.0157 C   0  0  1  0  0  0  0  0  0  0  0  0
  145.2895  133.2714  150.7044 C   0  0  0  0  0  0  0  0  0  0  0  0
  147.5262  132.8280  151.8307 C   0  0  0  0  0  0  0  0  0  0  0  0
  148.3264  132.9272  153.1404 C   0  0  0  0  0  0  0  0  0  0  0  0
  149.0068  136.3976  158.8222 C   0  0  0  0  0  0  0  0  0  0  0  0
  149.3420  137.5828  158.8567 O   0  0  0  0  0  0  0  0  0  0  0  0
  148.2391  135.7339  159.8780 C   0  0  0  0  0  0  0  0  0  0  0  0
  147.8722  136.5605  160.9825 C   0  0  0  0  0  0  0  0  0  0  0  0
  147.5798  137.2464  161.8679 N   0  0  0  0  0  0  0  0  0  0  0  0
  147.9014  134.4218  159.8105 C   0  0  0  0  0  0  0  0  0  0  0  0
  147.1067  133.6864  160.8809 C   0  0  0  0  0  0  0  0  0  0  0  0
  146.9332  132.0161  158.5335 H   0  0  0  0  0  0  0  0  0  0  0  0
  148.5179  131.5903  159.1835 H   0  0  0  0  0  0  0  0  0  0  0  0
  148.3113  131.8475  157.4542 H   0  0  0  0  0  0  0  0  0  0  0  0
  150.4306  137.0968  156.7920 H   0  0  0  0  0  0  0  0  0  0  0  0
  151.0253  135.4895  156.5691 H   0  0  0  0  0  0  0  0  0  0  0  0
  148.3158  136.3704  155.4289 H   0  0  0  0  0  0  0  0  0  0  0  0
  149.7119  136.3671  153.4669 H   0  0  0  0  0  0  0  0  0  0  0  0
  150.2203  134.1251  154.6068 H   0  0  0  0  0  0  0  0  0  0  0  0
  148.8516  133.8395  155.6487 H   0  0  0  0  0  0  0  0  0  0  0  0
  146.4672  134.2196  154.6678 H   0  0  0  0  0  0  0  0  0  0  0  0
  146.9642  135.8437  154.2488 H   0  0  0  0  0  0  0  0  0  0  0  0
  145.1023  135.1021  152.7952 H   0  0  0  0  0  0  0  0  0  0  0  0
  146.5396  135.4464  151.8626 H   0  0  0  0  0  0  0  0  0  0  0  0
  145.5872  132.6829  152.7370 H   0  0  0  0  0  0  0  0  0  0  0  0
  145.7360  133.9065  149.9385 H   0  0  0  0  0  0  0  0  0  0  0  0
  144.2614  133.6023  150.8532 H   0  0  0  0  0  0  0  0  0  0  0  0
  145.2545  132.2539  150.3139 H   0  0  0  0  0  0  0  0  0  0  0  0
  147.5187  131.7942  151.4832 H   0  0  0  0  0  0  0  0  0  0  0  0
  148.0260  133.4100  151.0549 H   0  0  0  0  0  0  0  0  0  0  0  0
  149.3506  132.6004  152.9561 H   0  0  0  0  0  0  0  0  0  0  0  0
  147.9085  132.2550  153.8915 H   0  0  0  0  0  0  0  0  0  0  0  0
  146.9474  134.2979  161.7687 H   0  0  0  0  0  0  0  0  0  0  0  0
  147.6288  132.7837  161.2001 H   0  0  0  0  0  0  0  0  0  0  0  0
  146.1273  133.4000  160.4963 H   0  0  0  0  0  0  0  0  0  0  0  0
  148.7332  134.8880  152.9317 H   0  0  0  0  0  0  0  0  0  0  0  0
  1  2  1  0  0  0  0
  1 23  1  0  0  0  0
  1 24  1  0  0  0  0
  1 25  1  0  0  0  0
  2 21  1  0  0  0  0
  2  3  2  0  0  0  0
  3  4  1  0  0  0  0
  4  5  1  0  0  0  0
  4 16  1  0  0  0  0
  5  6  1  0  0  0  0
  5 26  1  0  0  0  0
  5 27  1  0  0  0  0
  6  7  1  0  0  0  0
  6  8  1  0  0  0  0
  6 28  1  0  0  0  0
  7 29  1  0  0  0  0
  8  9  1  0  0  0  0
  8 30  1  0  0  0  0
  8 31  1  0  0  0  0
  9 15  1  0  0  0  0
  9 10  1  0  0  0  0
  9 47  1  0  0  0  0
 10 11  1  0  0  0  0
 10 32  1  0  0  0  0
 10 33  1  0  0  0  0
 11 12  1  0  0  0  0
 11 34  1  0  0  0  0
 11 35  1  0  0  0  0
 12 13  1  0  0  0  0
 12 14  1  0  0  0  0
 12 36  1  0  0  0  0
 13 37  1  0  0  0  0
 13 38  1  0  0  0  0
 13 39  1  0  0  0  0
 14 15  1  0  0  0  0
 14 40  1  0  0  0  0
 14 41  1  0  0  0  0
 15 42  1  0  0  0  0
 15 43  1  0  0  0  0
 16 17  2  0  0  0  0
 16 18  1  0  0  0  0
 18 19  1  0  0  0  0
 18 21  2  0  0  0  0
 19 20  3  0  0  0  0
 21 22  1  0  0  0  0
 22 44  1  0  0  0  0
 22 45  1  0  0  0  0
 22 46  1  0  0  0  0
M  CHG  1   9   1
M  END
> <s_m_source_file>
AV-unprocessed.smi

> <i_m_source_file_index>
1579

> <i_lp_mmshare_version>
43012

> <i_f3d_flags>
0

> <s_epik_input>
TiNDYyhjMVtDSDNdKWMoPU8pbihuYzFbQ0gzXSlbQ0gyXVtDQEhdKFtPSF0pW0NIMl1OMltDSDJdW0NIMl1bQ0hdKFtDSDNdKVtDSDJdW0NIMl0y

> <s_epik_cmdline>
J2VwaWtfcHl0aG9uJywgJy1waCcsICc3LjAnLCAnLXRuJywgJzgnLCAnLW1hJywgJzIwMCcsICctbWV0YWxfYmluZGluZycsICctaW1hZScsICc8aW5maWxlLm1hZT4nLCAnLW9tYWUnLCAnPG91dGZpbGUubWFlPic=

> <r_epik_Ionization_Penalty>
0.00136816

> <r_epik_Ionization_Penalty_Charging>
0.00136813

> <r_epik_Ionization_Penalty_Neutral>
3.19884e-08

> <r_epik_State_Penalty>
0.000910892

> <r_epik_Charging_Adjusted_Penalty>
0.00227902

> <i_epik_Tot_Q>
1

> <i_epik_Tot_abs_Q>
1

> <r_epik_Metal_State_Penalty>
-0

> <b_epik_Metal_Only>
0

> <s_lp_Force_Field>
OPLS_2005

> <r_lp_Energy>
37.5904

> <b_lp_Chiralities_Consistent>
1

> <s_lp_Variant>
AV-unprocessed.smi:1579-2

> <Gold.Version>
5.8.1

> <Gold.Id.Protein>
6NUR|6NUR_protein|mol2

> <Gold.PLP.Fitness>
42.5891

> <Gold.PLP.PLP>
-29.1274

> <Gold.PLP.part.hbond>
-4.6177

> <Gold.PLP.part.metal>
0.0000

> <Gold.PLP.part.buried>
-0.3233

> <Gold.PLP.part.nonpolar>
-23.3196

> <Gold.PLP.part.repulsive>
0.0000

> <Gold.PLP.ligand.clash>
0.0000

> <Gold.PLP.ligand.torsion>
0.1098

> <Gold.PLP.Chemscore.Hbond>
4.5380

> <Gold.PLP.Chemscore.CHOScore>
0.0000

> <Gold.PLP.Chemscore.Metal>
0.0000

> <Gold.Chemscore.Hbonds>
donor molecule, donor type, donor heavy atom, donor atom, acceptor molecule, acceptor atom, score
      L1  H     7    29       P1  7948  1.00
      L1  H     9    47       P1  7948  2.00
      P1  H  6931  6943       L1    20  0.90
      P1  H  6934  6947       L1    20  0.68

> <Gold.PLP.Chemscore.Internal.Correction>
0.0674

> <Gold.Rescore>
     Score         DG    S(hbond)    S(metal)    S(lipo)     H(rot)  DE(clash)    DE(int)     intcor
     14.19     -15.73       2.83        0.00      54.24       2.17       0.20       1.33       ----

> <Gold.Chemscore.Fitness>
14.1942

> <Gold.Chemscore.DG>
-15.7306

> <Gold.Chemscore.ZeroCoef>
-5.4800

> <Gold.Chemscore.Hbond>
2.8334

> <Gold.Chemscore.Metal>
0.0000

> <Gold.Chemscore.Lipo>
54.2408

> <Gold.Chemscore.Internal_Hbond>
0.0000

> <Gold.Chemscore.DEClash>
0.2049

> <Gold.Chemscore.DEInternal>
1.3314

> <Gold.Chemscore.Rot>
2.1715

> <Gold.Chemscore.Internal.Correction>
   9.000000E+99

> <Gold.Chemscore.Hbonds>
donor molecule, donor type, donor heavy atom, donor atom, acceptor molecule, acceptor atom, score
      L1  H     7    29       P1  7948  0.30
      L1  H     9    47       P1  7948  0.25
      P1  H  6931  6943       L1    20  0.20
      P1  H  6934  6947       L1    20  0.25

> <Gold.Chemscore.Hbond.Weighted>
-9.4635

> <Gold.Chemscore.Metal.Weighted>
-0.0000

> <Gold.Chemscore.Lipo.Weighted>
-6.3462

> <Gold.Chemscore.Internal_Hbond.Weighted>
0.0000

> <Gold.Chemscore.DEClash.Weighted>
0.2049

> <Gold.Chemscore.DEInternal.Weighted>
1.3314

> <Gold.Chemscore.Rot.Weighted>
5.5591

> <Gold.Chemscore.Internal.Correction.Weighted>
   9.000000E+99

> <Gold.Protein.RotatedTorsions>
[ 6907 6896 6895 6894 ] final  114.49 input  -60.11 | X-H torsion
[ 7974 7965 7964 7962 ] final -107.29 input  175.53 | X-H torsion
[ 8008 7997 7996 7995 ] final  106.14 input   59.86 | X-H torsion
[ 10167 10162 10161 10158 ] final  125.73 input  -65.29 | X-H torsion
[ 10718 10713 10712 10709 ] final -132.84 input   66.30 | X-H torsion
[ 10763 10752 10751 10750 ] final  153.04 input  -60.55 | X-H torsion
[ 11005 11000 10999 10996 ] final -103.16 input  -57.11 | X-H torsion

> <Gold.Protein.ActiveResidues>
 VAL166  LYS551  ARG553  GLY616  TRP617  ASP618  TYR619  PRO620  LYS621  CYS622 
 ASP623  PHE694  ASN695  SER759  ASP760  ASP761  ALA762  ILE779  LEU786  VAL792 
 PHE793  MET794  SER795  GLU796  ALA797  LYS798  CYS799  TRP800  GLU811  SER814 

> <Gold.Protein.RotatedAtoms>
  152.4799  133.8229  159.7062 H   0  0  0  0  0  0  0  0  0  0  0  0  # atno 6907 bound_to 6896
  150.8841  133.7322  159.2930 H   0  0  0  0  0  0  0  0  0  0  0  0  # atno 6908 bound_to 6896
  151.4816  135.1056  159.9831 H   0  0  0  0  0  0  0  0  0  0  0  0  # atno 6909 bound_to 6896
  145.2072  140.9081  143.3335 H   0  0  0  0  0  0  0  0  0  0  0  0  # atno 7974 bound_to 7965
  156.1718  140.3118  155.8987 H   0  0  0  0  0  0  0  0  0  0  0  0  # atno 8008 bound_to 7997
  155.3571  140.0474  157.3063 H   0  0  0  0  0  0  0  0  0  0  0  0  # atno 8009 bound_to 7997
  154.5249  140.2211  155.8919 H   0  0  0  0  0  0  0  0  0  0  0  0  # atno 8010 bound_to 7997
  139.5670  144.6917  151.3884 H   0  0  0  0  0  0  0  0  0  0  0  0  # atno 10167 bound_to 10162
  156.2387  130.7083  151.0935 H   0  0  0  0  0  0  0  0  0  0  0  0  # atno 10718 bound_to 10713
  154.1298  135.2827  155.3188 H   0  0  0  0  0  0  0  0  0  0  0  0  # atno 10763 bound_to 10752
  154.6364  135.5417  153.7742 H   0  0  0  0  0  0  0  0  0  0  0  0  # atno 10764 bound_to 10752
  153.0285  135.6475  154.1449 H   0  0  0  0  0  0  0  0  0  0  0  0  # atno 10765 bound_to 10752
  141.1158  133.8617  157.1451 H   0  0  0  0  0  0  0  0  0  0  0  0  # atno 11005 bound_to 11000
  144.9890  139.3708  143.6224 LP  0  0  0  0  0  0  0  0  0  0  0  0  # atno 17320 bound_to 7965
  146.3405  139.9065  142.8786 LP  0  0  0  0  0  0  0  0  0  0  0  0  # atno 17321 bound_to 7965
  140.6953  143.7763  150.7318 LP  0  0  0  0  0  0  0  0  0  0  0  0  # atno 17342 bound_to 10162
  140.1258  143.4571  152.2285 LP  0  0  0  0  0  0  0  0  0  0  0  0  # atno 17343 bound_to 10162
  157.7166  131.0706  150.6303 LP  0  0  0  0  0  0  0  0  0  0  0  0  # atno 17370 bound_to 10713
  156.6375  130.4449  149.5764 LP  0  0  0  0  0  0  0  0  0  0  0  0  # atno 17371 bound_to 10713
  140.0079  135.0000  157.0333 LP  0  0  0  0  0  0  0  0  0  0  0  0  # atno 17394 bound_to 11000
  140.4650  134.1445  155.7196 LP  0  0  0  0  0  0  0  0  0  0  0  0  # atno 17395 bound_to 11000

$$$$
