AV-unprocessed.smi:1115|AV-procd|sdf|4803|dock5
  -GOLD-   22720 3353D 1   1.00000     0.00000
 Structure written by MMmdl.
 50 51  0  0  0  0  0  0  0  0  1 V2000
  151.6477  143.8773  157.3858 C   0  0  0  0  0  0  0  0  0  0  0  0
  151.1996  143.8237  158.7736 N   0  0  0  0  0  0  0  0  0  0  0  0
  149.8291  144.1924  159.1064 C   0  0  0  0  0  0  0  0  0  0  0  0
  152.0504  143.2858  159.7666 C   0  0  0  0  0  0  0  0  0  0  0  0
  153.0957  142.3871  159.4375 C   0  0  0  0  0  0  0  0  0  0  0  0
  153.9175  141.8781  160.4612 C   0  0  0  0  0  0  0  0  0  0  0  0
  153.6733  142.2719  161.7969 C   0  0  0  0  0  0  0  0  0  0  0  0
  154.4443  141.8473  162.9124 N   0  0  0  0  0  0  0  0  0  0  0  0
  154.5389  142.4117  164.1283 C   0  0  0  0  0  0  0  0  0  0  0  0
  153.9785  143.4510  164.4761 O   0  0  0  0  0  0  0  0  0  0  0  0
  155.3563  141.7069  164.9230 N   0  0  0  0  0  0  0  0  0  0  0  0
  155.7286  142.0543  166.2945 C   0  0  0  0  0  0  0  0  0  0  0  0
  156.5974  140.9580  166.9796 C   0  0  0  0  0  0  0  0  0  0  0  0
  155.8903  139.6043  166.7150 C   0  0  0  0  0  0  0  0  0  0  0  0
  157.9522  140.9156  166.2320 C   0  0  0  0  0  0  0  0  0  0  0  0
  156.7457  141.2086  168.4413 N   0  0  0  0  0  0  0  0  0  0  0  0
  157.5976  140.2454  169.1491 C   0  0  0  0  0  0  0  0  0  0  0  0
  157.8090  140.6328  170.6224 C   0  0  0  0  0  0  0  0  0  0  0  0
  156.5493  140.7546  171.2711 O   0  0  0  0  0  0  0  0  0  0  0  0
  155.7117  141.7227  170.6515 C   0  0  0  0  0  0  0  0  0  0  0  0
  155.4837  141.3460  169.1774 C   0  0  0  0  0  0  0  0  0  0  0  0
  152.6201  143.1781  162.0263 C   0  0  0  0  0  0  0  0  0  0  0  0
  151.8295  143.6671  161.0487 N   0  0  0  0  0  0  0  0  0  0  0  0
  151.8217  142.8716  157.0021 H   0  0  0  0  0  0  0  0  0  0  0  0
  152.5741  144.4464  157.3018 H   0  0  0  0  0  0  0  0  0  0  0  0
  150.9063  144.3564  156.7464 H   0  0  0  0  0  0  0  0  0  0  0  0
  149.2918  143.3382  159.5197 H   0  0  0  0  0  0  0  0  0  0  0  0
  149.2844  144.5320  158.2254 H   0  0  0  0  0  0  0  0  0  0  0  0
  149.8163  145.0014  159.8375 H   0  0  0  0  0  0  0  0  0  0  0  0
  153.2869  142.0795  158.4206 H   0  0  0  0  0  0  0  0  0  0  0  0
  154.7234  141.2109  160.1982 H   0  0  0  0  0  0  0  0  0  0  0  0
  155.0361  141.0459  162.7484 H   0  0  0  0  0  0  0  0  0  0  0  0
  155.7809  140.8740  164.5421 H   0  0  0  0  0  0  0  0  0  0  0  0
  156.2445  143.0160  166.3194 H   0  0  0  0  0  0  0  0  0  0  0  0
  154.8092  142.2292  166.8526 H   0  0  0  0  0  0  0  0  0  0  0  0
  155.6111  139.4971  165.6661 H   0  0  0  0  0  0  0  0  0  0  0  0
  154.9792  139.5025  167.3055 H   0  0  0  0  0  0  0  0  0  0  0  0
  156.5292  138.7522  166.9473 H   0  0  0  0  0  0  0  0  0  0  0  0
  157.8059  140.7157  165.1698 H   0  0  0  0  0  0  0  0  0  0  0  0
  158.6077  140.1316  166.6104 H   0  0  0  0  0  0  0  0  0  0  0  0
  158.4910  141.8602  166.3013 H   0  0  0  0  0  0  0  0  0  0  0  0
  157.1545  139.2502  169.1093 H   0  0  0  0  0  0  0  0  0  0  0  0
  158.5781  140.1743  168.6820 H   0  0  0  0  0  0  0  0  0  0  0  0
  158.3999  139.8722  171.1328 H   0  0  0  0  0  0  0  0  0  0  0  0
  158.3594  141.5717  170.6998 H   0  0  0  0  0  0  0  0  0  0  0  0
  154.7610  141.7632  171.1834 H   0  0  0  0  0  0  0  0  0  0  0  0
  156.1656  142.7118  170.7311 H   0  0  0  0  0  0  0  0  0  0  0  0
  154.8567  142.1171  168.7335 H   0  0  0  0  0  0  0  0  0  0  0  0
  154.9189  140.4146  169.1359 H   0  0  0  0  0  0  0  0  0  0  0  0
  152.3994  143.5211  163.0269 H   0  0  0  0  0  0  0  0  0  0  0  0
  1  2  1  0  0  0  0
  1 24  1  0  0  0  0
  1 25  1  0  0  0  0
  1 26  1  0  0  0  0
  2  3  1  0  0  0  0
  2  4  1  0  0  0  0
  3 27  1  0  0  0  0
  3 28  1  0  0  0  0
  3 29  1  0  0  0  0
  4 23  1  0  0  0  0
  4  5  2  0  0  0  0
  5  6  1  0  0  0  0
  5 30  1  0  0  0  0
  6  7  2  0  0  0  0
  6 31  1  0  0  0  0
  7  8  1  0  0  0  0
  7 22  1  0  0  0  0
  8  9  1  0  0  0  0
  8 32  1  0  0  0  0
  9 10  2  0  0  0  0
  9 11  1  0  0  0  0
 11 12  1  0  0  0  0
 11 33  1  0  0  0  0
 12 13  1  0  0  0  0
 12 34  1  0  0  0  0
 12 35  1  0  0  0  0
 13 14  1  0  0  0  0
 13 15  1  0  0  0  0
 13 16  1  0  0  0  0
 14 36  1  0  0  0  0
 14 37  1  0  0  0  0
 14 38  1  0  0  0  0
 15 39  1  0  0  0  0
 15 40  1  0  0  0  0
 15 41  1  0  0  0  0
 16 21  1  0  0  0  0
 16 17  1  0  0  0  0
 17 18  1  0  0  0  0
 17 42  1  0  0  0  0
 17 43  1  0  0  0  0
 18 19  1  0  0  0  0
 18 44  1  0  0  0  0
 18 45  1  0  0  0  0
 19 20  1  0  0  0  0
 20 21  1  0  0  0  0
 20 46  1  0  0  0  0
 20 47  1  0  0  0  0
 21 48  1  0  0  0  0
 21 49  1  0  0  0  0
 22 23  2  0  0  0  0
 22 50  1  0  0  0  0
M  END
> <s_m_source_file>
AV-unprocessed.smi

> <i_m_source_file_index>
1115

> <i_lp_mmshare_version>
43012

> <i_f3d_flags>
0

> <s_epik_input>
W0NIM11OKFtDSDNdKWMxW2NIXVtjSF1jKFtjSF1uMSlbTkhdQyg9TylbTkhdW0NIMl1DKFtDSDNdKShbQ0gzXSlOMltDSDJdW0NIMl1PW0NIMl1bQ0gyXTI=

> <s_epik_cmdline>
J2VwaWtfcHl0aG9uJywgJy1waCcsICc3LjAnLCAnLXRuJywgJzgnLCAnLW1hJywgJzIwMCcsICctbWV0YWxfYmluZGluZycsICctaW1hZScsICc8aW5maWxlLm1hZT4nLCAnLW9tYWUnLCAnPG91dGZpbGUubWFlPic=

> <r_lp_tautomer_probability>
1

> <r_epik_Ionization_Penalty>
0.880664

> <r_epik_Ionization_Penalty_Charging>
0

> <r_epik_Ionization_Penalty_Neutral>
0.880664

> <r_epik_State_Penalty>
0.865003

> <r_epik_Charging_Adjusted_Penalty>
0.865003

> <i_epik_Tot_Q>
0

> <i_epik_Tot_abs_Q>
0

> <r_epik_Metal_State_Penalty>
0.539426

> <b_epik_Metal_Only>
0

> <s_lp_Force_Field>
OPLS_2005

> <r_lp_Energy>
45.7519

> <b_lp_Chiralities_Consistent>
1

> <s_lp_Variant>
AV-unprocessed.smi:1115-2

> <Gold.Version>
5.8.1

> <Gold.Id.Protein>
6NUR|6NUR_protein|mol2

> <Gold.PLP.Fitness>
41.7931

> <Gold.PLP.PLP>
-42.6730

> <Gold.PLP.part.hbond>
-1.7144

> <Gold.PLP.part.metal>
0.0000

> <Gold.PLP.part.buried>
-5.6450

> <Gold.PLP.part.nonpolar>
-34.3699

> <Gold.PLP.part.repulsive>
0.3601

> <Gold.PLP.ligand.clash>
0.0000

> <Gold.PLP.ligand.torsion>
0.4737

> <Gold.PLP.Chemscore.Hbond>
0.0000

> <Gold.PLP.Chemscore.CHOScore>
0.0000

> <Gold.PLP.Chemscore.Metal>
0.0000

> <Gold.PLP.Chemscore.Internal.Correction>
0.0675

> <Gold.Rescore>
     Score         DG    S(hbond)    S(metal)    S(lipo)     H(rot)  DE(clash)    DE(int)     intcor
      9.86     -13.23       0.00        0.00      97.32       1.42       1.47       1.89       ----

> <Gold.Chemscore.Fitness>
9.8594

> <Gold.Chemscore.DG>
-13.2267

> <Gold.Chemscore.ZeroCoef>
-5.4800

> <Gold.Chemscore.Hbond>
0.0000

> <Gold.Chemscore.Metal>
0.0000

> <Gold.Chemscore.Lipo>
97.3181

> <Gold.Chemscore.Internal_Hbond>
0.0000

> <Gold.Chemscore.DEClash>
1.4729

> <Gold.Chemscore.DEInternal>
1.8944

> <Gold.Chemscore.Rot>
1.4217

> <Gold.Chemscore.Internal.Correction>
   9.000000E+99

> <Gold.Chemscore.Hbond.Weighted>
-0.0000

> <Gold.Chemscore.Metal.Weighted>
-0.0000

> <Gold.Chemscore.Lipo.Weighted>
-11.3862

> <Gold.Chemscore.Internal_Hbond.Weighted>
0.0000

> <Gold.Chemscore.DEClash.Weighted>
1.4729

> <Gold.Chemscore.DEInternal.Weighted>
1.8944

> <Gold.Chemscore.Rot.Weighted>
3.6395

> <Gold.Chemscore.Internal.Correction.Weighted>
   9.000000E+99

> <Gold.Protein.RotatedTorsions>
[ 6907 6896 6895 6894 ] final  -14.76 input  -60.11 | X-H torsion
[ 7974 7965 7964 7962 ] final -164.62 input  175.53 | X-H torsion
[ 8008 7997 7996 7995 ] final -154.19 input   59.86 | X-H torsion
[ 10167 10162 10161 10158 ] final   63.37 input  -65.29 | X-H torsion
[ 10718 10713 10712 10709 ] final  152.80 input   66.30 | X-H torsion
[ 10763 10752 10751 10750 ] final  127.92 input  -60.55 | X-H torsion
[ 11005 11000 10999 10996 ] final  140.35 input  -57.11 | X-H torsion

> <Gold.Protein.ActiveResidues>
 VAL166  LYS551  ARG553  GLY616  TRP617  ASP618  TYR619  PRO620  LYS621  CYS622 
 ASP623  PHE694  ASN695  SER759  ASP760  ASP761  ALA762  ILE779  LEU786  VAL792 
 PHE793  MET794  SER795  GLU796  ALA797  LYS798  CYS799  TRP800  GLU811  SER814 

> <Gold.Protein.RotatedAtoms>
  151.3344  135.0849  159.9349 H   0  0  0  0  0  0  0  0  0  0  0  0  # atno 6907 bound_to 6896
  152.5227  133.9510  159.7682 H   0  0  0  0  0  0  0  0  0  0  0  0  # atno 6908 bound_to 6896
  150.9855  133.6149  159.2746 H   0  0  0  0  0  0  0  0  0  0  0  0  # atno 6909 bound_to 6896
  144.7292  140.2934  143.6216 H   0  0  0  0  0  0  0  0  0  0  0  0  # atno 7974 bound_to 7965
  155.6825  140.0746  157.2479 H   0  0  0  0  0  0  0  0  0  0  0  0  # atno 8008 bound_to 7997
  154.4103  140.1679  156.2050 H   0  0  0  0  0  0  0  0  0  0  0  0  # atno 8009 bound_to 7997
  155.9522  140.3376  155.6421 H   0  0  0  0  0  0  0  0  0  0  0  0  # atno 8010 bound_to 7997
  140.1338  144.4618  150.6849 H   0  0  0  0  0  0  0  0  0  0  0  0  # atno 10167 bound_to 10162
  157.2531  131.0783  151.1717 H   0  0  0  0  0  0  0  0  0  0  0  0  # atno 10718 bound_to 10713
  153.7172  135.3259  155.3259 H   0  0  0  0  0  0  0  0  0  0  0  0  # atno 10763 bound_to 10752
  154.8367  135.4491  154.1254 H   0  0  0  0  0  0  0  0  0  0  0  0  # atno 10764 bound_to 10752
  153.2364  135.6966  153.7912 H   0  0  0  0  0  0  0  0  0  0  0  0  # atno 10765 bound_to 10752
  140.0321  134.9347  157.0682 H   0  0  0  0  0  0  0  0  0  0  0  0  # atno 11005 bound_to 11000
  145.7832  139.1899  143.2145 LP  0  0  0  0  0  0  0  0  0  0  0  0  # atno 17320 bound_to 7965
  146.0816  140.7757  142.9638 LP  0  0  0  0  0  0  0  0  0  0  0  0  # atno 17321 bound_to 7965
  140.6801  143.2323  151.5406 LP  0  0  0  0  0  0  0  0  0  0  0  0  # atno 17342 bound_to 10162
  139.5506  144.2406  152.1523 LP  0  0  0  0  0  0  0  0  0  0  0  0  # atno 17343 bound_to 10162
  157.3257  130.6959  149.6295 LP  0  0  0  0  0  0  0  0  0  0  0  0  # atno 17370 bound_to 10713
  155.9665  130.4322  150.4954 LP  0  0  0  0  0  0  0  0  0  0  0  0  # atno 17371 bound_to 10713
  140.4209  134.1882  155.7164 LP  0  0  0  0  0  0  0  0  0  0  0  0  # atno 17394 bound_to 11000
  141.1837  133.8360  157.1167 LP  0  0  0  0  0  0  0  0  0  0  0  0  # atno 17395 bound_to 11000

$$$$
