AV-unprocessed.smi:2813|AV-procd|sdf|10837|dock8
  -GOLD-   2272015273D 1   1.00000     0.00000
 Structure written by MMmdl.
 41 42  0  0  0  0  0  0  0  0  1 V2000
  149.0720  139.4092  153.9683 C   0  0  0  0  0  0  0  0  0  0  0  0
  150.2338  138.8844  154.7929 C   0  0  0  0  0  0  0  0  0  0  0  0
  151.1984  139.8317  155.1489 N   0  0  0  0  0  0  0  0  0  0  0  0
  152.2282  139.4737  155.8438 C   0  0  0  0  0  0  0  0  0  0  0  0
  152.4138  138.1442  156.2557 N   0  0  0  0  0  0  0  0  0  0  0  0
  153.6311  137.8667  157.0350 C   0  0  0  0  0  0  0  0  0  0  0  0
  153.5152  138.3741  158.4906 C   0  0  2  0  0  0  0  0  0  0  0  0
  152.1490  138.5726  158.7946 O   0  0  0  0  0  0  0  0  0  0  0  0
  154.2287  139.7188  158.6988 C   0  0  0  0  0  0  0  0  0  0  0  0
  154.0996  140.0931  160.0642 O   0  0  0  0  0  0  0  0  0  0  0  0
  153.4701  141.2819  160.3621 C   0  0  0  0  0  0  0  0  0  0  0  0
  153.4281  141.6580  161.7195 C   0  0  0  0  0  0  0  0  0  0  0  0
  152.8077  142.8577  162.1143 C   0  0  0  0  0  0  0  0  0  0  0  0
  152.2178  143.6963  161.1507 C   0  0  0  0  0  0  0  0  0  0  0  0
  152.2447  143.3357  159.7862 C   0  0  0  0  0  0  0  0  0  0  0  0
  151.6155  144.2259  158.7248 C   0  0  0  0  0  0  0  0  0  0  0  0
  150.7274  143.5256  158.0193 F   0  0  0  0  0  0  0  0  0  0  0  0
  150.9924  145.2765  159.2599 F   0  0  0  0  0  0  0  0  0  0  0  0
  152.5643  144.6691  157.9006 F   0  0  0  0  0  0  0  0  0  0  0  0
  152.8722  142.1323  159.3982 C   0  0  0  0  0  0  0  0  0  0  0  0
  151.5113  137.1613  155.9699 C   0  0  0  0  0  0  0  0  0  0  0  0
  151.6713  136.0030  156.3602 O   0  0  0  0  0  0  0  0  0  0  0  0
  150.3483  137.5820  155.1716 C   0  0  0  0  0  0  0  0  0  0  0  0
  149.3287  136.5074  154.8151 C   0  0  0  0  0  0  0  0  0  0  0  0
  149.0383  138.9121  152.9986 H   0  0  0  0  0  0  0  0  0  0  0  0
  149.1622  140.4818  153.7908 H   0  0  0  0  0  0  0  0  0  0  0  0
  148.1272  139.2346  154.4836 H   0  0  0  0  0  0  0  0  0  0  0  0
  153.0062  140.1743  156.1523 H   0  0  0  0  0  0  0  0  0  0  0  0
  153.7947  136.7873  157.0337 H   0  0  0  0  0  0  0  0  0  0  0  0
  154.5279  138.2655  156.5561 H   0  0  0  0  0  0  0  0  0  0  0  0
  153.9239  137.6484  159.1952 H   0  0  0  0  0  0  0  0  0  0  0  0
  151.9286  138.0466  159.5481 H   0  0  0  0  0  0  0  0  0  0  0  0
  155.2799  139.6356  158.4164 H   0  0  0  0  0  0  0  0  0  0  0  0
  153.7669  140.4825  158.0704 H   0  0  0  0  0  0  0  0  0  0  0  0
  153.8790  141.0205  162.4659 H   0  0  0  0  0  0  0  0  0  0  0  0
  152.7849  143.1352  163.1579 H   0  0  0  0  0  0  0  0  0  0  0  0
  151.7477  144.6148  161.4694 H   0  0  0  0  0  0  0  0  0  0  0  0
  152.8811  141.8819  158.3484 H   0  0  0  0  0  0  0  0  0  0  0  0
  148.8891  136.0909  155.7220 H   0  0  0  0  0  0  0  0  0  0  0  0
  149.8122  135.6961  154.2697 H   0  0  0  0  0  0  0  0  0  0  0  0
  148.5138  136.8769  154.1946 H   0  0  0  0  0  0  0  0  0  0  0  0
  1  2  1  0  0  0  0
  1 25  1  0  0  0  0
  1 26  1  0  0  0  0
  1 27  1  0  0  0  0
  2 23  2  0  0  0  0
  2  3  1  0  0  0  0
  3  4  2  0  0  0  0
  4  5  1  0  0  0  0
  4 28  1  0  0  0  0
  5  6  1  0  0  0  0
  5 21  1  0  0  0  0
  6  7  1  0  0  0  0
  6 29  1  0  0  0  0
  6 30  1  0  0  0  0
  7  8  1  0  0  0  0
  7  9  1  0  0  0  0
  7 31  1  0  0  0  0
  8 32  1  0  0  0  0
  9 10  1  0  0  0  0
  9 33  1  0  0  0  0
  9 34  1  0  0  0  0
 10 11  1  0  0  0  0
 11 20  1  0  0  0  0
 11 12  2  0  0  0  0
 12 13  1  0  0  0  0
 12 35  1  0  0  0  0
 13 14  2  0  0  0  0
 13 36  1  0  0  0  0
 14 15  1  0  0  0  0
 14 37  1  0  0  0  0
 15 16  1  0  0  0  0
 15 20  2  0  0  0  0
 16 17  1  0  0  0  0
 16 18  1  0  0  0  0
 16 19  1  0  0  0  0
 20 38  1  0  0  0  0
 21 22  2  0  0  0  0
 21 23  1  0  0  0  0
 23 24  1  0  0  0  0
 24 39  1  0  0  0  0
 24 40  1  0  0  0  0
 24 41  1  0  0  0  0
M  END
> <s_m_source_file>
AV-unprocessed.smi

> <i_m_source_file_index>
2813

> <i_lp_mmshare_version>
43012

> <i_f3d_flags>
0

> <s_epik_input>
W0NIM11jMW5bY0hdbihjKD1PKWMxW0NIM10pW0NIMl1bQ0BIXShbT0hdKVtDSDJdT2MyW2NIXVtjSF1bY0hdYyhDKEYpKEYpRilbY0hdMg==

> <s_epik_cmdline>
J2VwaWtfcHl0aG9uJywgJy1waCcsICc3LjAnLCAnLXRuJywgJzgnLCAnLW1hJywgJzIwMCcsICctbWV0YWxfYmluZGluZycsICctaW1hZScsICc8aW5maWxlLm1hZT4nLCAnLW9tYWUnLCAnPG91dGZpbGUubWFlPic=

> <r_lp_tautomer_probability>
1

> <r_epik_Ionization_Penalty>
3.72236e-05

> <r_epik_Ionization_Penalty_Charging>
8.38864e-08

> <r_epik_Ionization_Penalty_Neutral>
3.71397e-05

> <r_epik_State_Penalty>
-0

> <r_epik_Charging_Adjusted_Penalty>
8.38864e-08

> <i_epik_Tot_Q>
0

> <i_epik_Tot_abs_Q>
0

> <r_epik_Metal_State_Penalty>
-0

> <b_epik_Metal_Only>
0

> <s_lp_Force_Field>
OPLS_2005

> <r_lp_Energy>
22.8491

> <b_lp_Chiralities_Consistent>
1

> <s_lp_Variant>
AV-unprocessed.smi:2813-1

> <Gold.Version>
5.8.1

> <Gold.Id.Protein>
6NUR|6NUR_protein|mol2

> <Gold.PLP.Fitness>
53.0419

> <Gold.PLP.PLP>
-49.3113

> <Gold.PLP.part.hbond>
-1.9523

> <Gold.PLP.part.metal>
0.0000

> <Gold.PLP.part.buried>
1.6874

> <Gold.PLP.part.nonpolar>
-47.5075

> <Gold.PLP.part.repulsive>
0.0332

> <Gold.PLP.ligand.clash>
0.0000

> <Gold.PLP.ligand.torsion>
1.2185

> <Gold.PLP.Chemscore.Hbond>
1.9913

> <Gold.PLP.Chemscore.CHOScore>
0.0000

> <Gold.PLP.Chemscore.Metal>
0.0000

> <Gold.Chemscore.Hbonds>
donor molecule, donor type, donor heavy atom, donor atom, acceptor molecule, acceptor atom, score
      P1  H  7989  7998       L1     3  1.00
      P1  H 10752 10764       L1    22  0.78

> <Gold.PLP.Chemscore.Internal.Correction>
0.1940

> <Gold.Rescore>
     Score         DG    S(hbond)    S(metal)    S(lipo)     H(rot)  DE(clash)    DE(int)     intcor
     11.23     -14.30       0.68        0.00     115.67       2.73       1.73       1.34       ----

> <Gold.Chemscore.Fitness>
11.2265

> <Gold.Chemscore.DG>
-14.2970

> <Gold.Chemscore.ZeroCoef>
-5.4800

> <Gold.Chemscore.Hbond>
0.6805

> <Gold.Chemscore.Metal>
0.0000

> <Gold.Chemscore.Lipo>
115.6661

> <Gold.Chemscore.Internal_Hbond>
0.0000

> <Gold.Chemscore.DEClash>
1.7328

> <Gold.Chemscore.DEInternal>
1.3377

> <Gold.Chemscore.Rot>
2.7300

> <Gold.Chemscore.Internal.Correction>
   9.000000E+99

> <Gold.Chemscore.Hbonds>
donor molecule, donor type, donor heavy atom, donor atom, acceptor molecule, acceptor atom, score
      P1  H  7989  7998       L1     3  0.51
      P1  H 10752 10764       L1    22  0.11

> <Gold.Chemscore.Hbond.Weighted>
-2.2728

> <Gold.Chemscore.Metal.Weighted>
-0.0000

> <Gold.Chemscore.Lipo.Weighted>
-13.5329

> <Gold.Chemscore.Internal_Hbond.Weighted>
0.0000

> <Gold.Chemscore.DEClash.Weighted>
1.7328

> <Gold.Chemscore.DEInternal.Weighted>
1.3377

> <Gold.Chemscore.Rot.Weighted>
6.9888

> <Gold.Chemscore.Internal.Correction.Weighted>
   9.000000E+99

> <Gold.Protein.RotatedTorsions>
[ 6907 6896 6895 6894 ] final  161.40 input  -60.11 | X-H torsion
[ 7974 7965 7964 7962 ] final -105.17 input  175.53 | X-H torsion
[ 8008 7997 7996 7995 ] final   93.94 input   59.86 | X-H torsion
[ 10167 10162 10161 10158 ] final   67.78 input  -65.29 | X-H torsion
[ 10718 10713 10712 10709 ] final  -26.97 input   66.30 | X-H torsion
[ 10763 10752 10751 10750 ] final  -36.27 input  -60.55 | X-H torsion
[ 11005 11000 10999 10996 ] final  -51.49 input  -57.11 | X-H torsion

> <Gold.Protein.ActiveResidues>
 VAL166  LYS551  ARG553  GLY616  TRP617  ASP618  TYR619  PRO620  LYS621  CYS622 
 ASP623  PHE694  ASN695  SER759  ASP760  ASP761  ALA762  ILE779  LEU786  VAL792 
 PHE793  MET794  SER795  GLU796  ALA797  LYS798  CYS799  TRP800  GLU811  SER814 

> <Gold.Protein.RotatedAtoms>
  151.9562  133.3681  159.4017 H   0  0  0  0  0  0  0  0  0  0  0  0  # atno 6907 bound_to 6896
  150.6972  134.4288  159.5248 H   0  0  0  0  0  0  0  0  0  0  0  0  # atno 6908 bound_to 6896
  152.1970  134.8622  160.0562 H   0  0  0  0  0  0  0  0  0  0  0  0  # atno 6909 bound_to 6896
  145.2339  140.9181  143.3189 H   0  0  0  0  0  0  0  0  0  0  0  0  # atno 7974 bound_to 7965
  156.0524  140.3306  155.7366 H   0  0  0  0  0  0  0  0  0  0  0  0  # atno 8008 bound_to 7997
  155.5581  140.0616  157.2852 H   0  0  0  0  0  0  0  0  0  0  0  0  # atno 8009 bound_to 7997
  154.4442  140.1882  156.0742 H   0  0  0  0  0  0  0  0  0  0  0  0  # atno 8010 bound_to 7997
  140.0858  144.5031  150.7131 H   0  0  0  0  0  0  0  0  0  0  0  0  # atno 10167 bound_to 10162
  156.4442  130.4470  149.7032 H   0  0  0  0  0  0  0  0  0  0  0  0  # atno 10718 bound_to 10713
  153.8770  135.6825  153.4770 H   0  0  0  0  0  0  0  0  0  0  0  0  # atno 10763 bound_to 10752
  153.1255  135.4721  154.9263 H   0  0  0  0  0  0  0  0  0  0  0  0  # atno 10764 bound_to 10752
  154.7687  135.3232  154.8185 H   0  0  0  0  0  0  0  0  0  0  0  0  # atno 10765 bound_to 10752
  141.0874  133.6639  156.3885 H   0  0  0  0  0  0  0  0  0  0  0  0  # atno 11005 bound_to 11000
  144.9651  139.3939  143.6337 LP  0  0  0  0  0  0  0  0  0  0  0  0  # atno 17320 bound_to 7965
  146.3346  139.8722  142.8838 LP  0  0  0  0  0  0  0  0  0  0  0  0  # atno 17321 bound_to 7965
  140.7054  143.2464  151.4741 LP  0  0  0  0  0  0  0  0  0  0  0  0  # atno 17342 bound_to 10162
  139.5753  144.1833  152.1894 LP  0  0  0  0  0  0  0  0  0  0  0  0  # atno 17343 bound_to 10162
  156.3885  130.7615  151.2614 LP  0  0  0  0  0  0  0  0  0  0  0  0  # atno 17370 bound_to 10713
  157.7505  131.0275  150.4007 LP  0  0  0  0  0  0  0  0  0  0  0  0  # atno 17371 bound_to 10713
  140.5332  134.6192  157.5356 LP  0  0  0  0  0  0  0  0  0  0  0  0  # atno 17394 bound_to 11000
  139.9694  134.7318  156.0072 LP  0  0  0  0  0  0  0  0  0  0  0  0  # atno 17395 bound_to 11000

$$$$
