AV-unprocessed.smi:197|AV-procd|sdf|1548|dock2
  -GOLD-   2262019413D 1   1.00000     0.00000
 Structure written by MMmdl.
 54 57  0  0  0  0  0  0  0  0  1 V2000
  152.2226  138.4607  155.5449 C   0  0  0  0  0  0  0  0  0  0  0  0
  151.1277  138.2290  154.6723 O   0  0  0  0  0  0  0  0  0  0  0  0
  150.1687  137.3038  155.1687 C   0  0  0  0  0  0  0  0  0  0  0  0
  148.7928  137.9559  155.4045 C   0  0  0  0  0  0  0  0  0  0  0  0
  148.5065  139.1885  154.5060 C   0  0  2  0  0  0  0  0  0  0  0  0
  149.3842  140.3958  154.9133 C   0  0  0  0  0  0  0  0  0  0  0  0
  149.0878  141.5272  154.1025 O   0  0  0  0  0  0  0  0  0  0  0  0
  147.7370  141.9447  154.2471 C   0  0  0  0  0  0  0  0  0  0  0  0
  146.8142  140.8083  153.7879 C   0  0  0  0  0  0  0  0  0  0  0  0
  147.0947  139.5932  154.5437 N   0  0  0  0  0  0  0  0  0  0  0  0
  146.1785  138.6381  154.2658 C   0  0  0  0  0  0  0  0  0  0  0  0
  145.2705  138.3594  155.2330 N   0  0  0  0  0  0  0  0  0  0  0  0
  144.3462  137.4161  155.0295 C   0  0  0  0  0  0  0  0  0  0  0  0
  144.1563  136.6513  153.9522 N   0  0  0  0  0  0  0  0  0  0  0  0
  145.0583  136.9413  152.9709 C   0  0  0  0  0  0  0  0  0  0  0  0
  146.0955  137.9134  153.0421 C   0  0  0  0  0  0  0  0  0  0  0  0
  146.8139  137.9261  151.8526 N   0  0  0  0  0  0  0  0  0  0  0  0
  146.2438  137.0045  151.1261 C   0  0  0  0  0  0  0  0  0  0  0  0
  145.1729  136.3705  151.7149 N   0  0  0  0  0  0  0  0  0  0  0  0
  144.3621  135.3099  151.1350 C   0  0  0  0  0  0  0  0  0  0  0  0
  144.6119  133.9024  151.7419 C   0  0  1  0  0  0  0  0  0  0  0  0
  144.1613  133.9045  153.0856 O   0  0  0  0  0  0  0  0  0  0  0  0
  143.9061  132.7734  150.9958 C   0  0  0  0  0  0  0  0  0  0  0  0
  144.9215  132.4056  149.9269 C   0  0  0  0  0  0  0  0  0  0  0  0
  146.1527  132.4618  150.6276 O   0  0  0  0  0  0  0  0  0  0  0  0
  146.1053  133.4977  151.6087 C   0  0  2  0  0  0  0  0  0  0  0  0
  146.7746  132.9503  152.8808 C   0  0  0  0  0  0  0  0  0  0  0  0
  152.8816  139.2096  155.1061 H   0  0  0  0  0  0  0  0  0  0  0  0
  152.8136  137.5599  155.7082 H   0  0  0  0  0  0  0  0  0  0  0  0
  151.8844  138.8379  156.5108 H   0  0  0  0  0  0  0  0  0  0  0  0
  150.0766  136.4554  154.4890 H   0  0  0  0  0  0  0  0  0  0  0  0
  150.5500  136.8920  156.1023 H   0  0  0  0  0  0  0  0  0  0  0  0
  148.0329  137.1888  155.2642 H   0  0  0  0  0  0  0  0  0  0  0  0
  148.7119  138.2487  156.4518 H   0  0  0  0  0  0  0  0  0  0  0  0
  148.7555  138.9354  153.4756 H   0  0  0  0  0  0  0  0  0  0  0  0
  149.2414  140.6469  155.9657 H   0  0  0  0  0  0  0  0  0  0  0  0
  150.4413  140.1676  154.7822 H   0  0  0  0  0  0  0  0  0  0  0  0
  147.5332  142.2205  155.2831 H   0  0  0  0  0  0  0  0  0  0  0  0
  147.5718  142.8343  153.6394 H   0  0  0  0  0  0  0  0  0  0  0  0
  145.7725  141.1031  153.9230 H   0  0  0  0  0  0  0  0  0  0  0  0
  146.9608  140.6198  152.7233 H   0  0  0  0  0  0  0  0  0  0  0  0
  143.6605  137.2497  155.8472 H   0  0  0  0  0  0  0  0  0  0  0  0
  146.5868  136.7650  150.1300 H   0  0  0  0  0  0  0  0  0  0  0  0
  143.3144  135.5908  151.2487 H   0  0  0  0  0  0  0  0  0  0  0  0
  144.5504  135.2899  150.0604 H   0  0  0  0  0  0  0  0  0  0  0  0
  143.8013  133.0531  153.2820 H   0  0  0  0  0  0  0  0  0  0  0  0
  143.7641  131.9130  151.6521 H   0  0  0  0  0  0  0  0  0  0  0  0
  142.9304  133.0337  150.5889 H   0  0  0  0  0  0  0  0  0  0  0  0
  144.7479  131.4171  149.5013 H   0  0  0  0  0  0  0  0  0  0  0  0
  144.9229  133.1356  149.1163 H   0  0  0  0  0  0  0  0  0  0  0  0
  146.6938  134.3395  151.2408 H   0  0  0  0  0  0  0  0  0  0  0  0
  146.8012  133.7022  153.6700 H   0  0  0  0  0  0  0  0  0  0  0  0
  147.8036  132.6528  152.6781 H   0  0  0  0  0  0  0  0  0  0  0  0
  146.2474  132.0754  153.2625 H   0  0  0  0  0  0  0  0  0  0  0  0
  1  2  1  0  0  0  0
  1 28  1  0  0  0  0
  1 29  1  0  0  0  0
  1 30  1  0  0  0  0
  2  3  1  0  0  0  0
  3  4  1  0  0  0  0
  3 31  1  0  0  0  0
  3 32  1  0  0  0  0
  4  5  1  0  0  0  0
  4 33  1  0  0  0  0
  4 34  1  0  0  0  0
  5 10  1  0  0  0  0
  5  6  1  0  0  0  0
  5 35  1  0  0  0  0
  6  7  1  0  0  0  0
  6 36  1  0  0  0  0
  6 37  1  0  0  0  0
  7  8  1  0  0  0  0
  8  9  1  0  0  0  0
  8 38  1  0  0  0  0
  8 39  1  0  0  0  0
  9 10  1  0  0  0  0
  9 40  1  0  0  0  0
  9 41  1  0  0  0  0
 10 11  1  0  0  0  0
 11 16  1  0  0  0  0
 11 12  2  0  0  0  0
 12 13  1  0  0  0  0
 13 14  2  0  0  0  0
 13 42  1  0  0  0  0
 14 15  1  0  0  0  0
 15 19  1  0  0  0  0
 15 16  2  0  0  0  0
 16 17  1  0  0  0  0
 17 18  2  0  0  0  0
 18 19  1  0  0  0  0
 18 43  1  0  0  0  0
 19 20  1  0  0  0  0
 20 21  1  0  0  0  0
 20 44  1  0  0  0  0
 20 45  1  0  0  0  0
 21 26  1  0  0  0  0
 21 22  1  0  0  0  0
 21 23  1  0  0  0  0
 22 46  1  0  0  0  0
 23 24  1  0  0  0  0
 23 47  1  0  0  0  0
 23 48  1  0  0  0  0
 24 25  1  0  0  0  0
 24 49  1  0  0  0  0
 24 50  1  0  0  0  0
 25 26  1  0  0  0  0
 26 27  1  0  0  0  0
 26 51  1  0  0  0  0
 27 52  1  0  0  0  0
 27 53  1  0  0  0  0
 27 54  1  0  0  0  0
M  END
> <s_m_source_file>
AV-unprocessed.smi

> <i_m_source_file_index>
197

> <i_lp_mmshare_version>
43012

> <i_f3d_flags>
0

> <s_epik_input>
W0NIM11PW0NIMl1bQ0gyXVtDQEBIXTFbQ0gyXU9bQ0gyXVtDSDJdTjFjKG5bY0hdbjIpYyhjMjMpbltjSF1uM1tDSDJdW0NAQF00KFtPSF0pW0NIMl1bQ0gyXU9bQ0BIXTRbQ0gzXQ==

> <s_epik_cmdline>
J2VwaWtfcHl0aG9uJywgJy1waCcsICc3LjAnLCAnLXRuJywgJzgnLCAnLW1hJywgJzIwMCcsICctbWV0YWxfYmluZGluZycsICctaW1hZScsICc8aW5maWxlLm1hZT4nLCAnLW9tYWUnLCAnPG91dGZpbGUubWFlPic=

> <r_lp_tautomer_probability>
1

> <r_epik_Ionization_Penalty>
0.000106218

> <r_epik_Ionization_Penalty_Charging>
0

> <r_epik_Ionization_Penalty_Neutral>
0.000106218

> <r_epik_State_Penalty>
-0

> <r_epik_Charging_Adjusted_Penalty>
0

> <i_epik_Tot_Q>
0

> <i_epik_Tot_abs_Q>
0

> <r_epik_Metal_State_Penalty>
-0

> <b_epik_Metal_Only>
0

> <s_lp_Force_Field>
OPLS_2005

> <r_lp_Energy>
44.1389

> <b_lp_Chiralities_Consistent>
1

> <s_lp_Variant>
AV-unprocessed.smi:197-5

> <Gold.Version>
5.8.1

> <Gold.Id.Protein>
6NUR|6NUR_protein|mol2

> <Gold.PLP.Fitness>
41.4219

> <Gold.PLP.PLP>
-37.8466

> <Gold.PLP.part.hbond>
-2.8902

> <Gold.PLP.part.metal>
0.0000

> <Gold.PLP.part.buried>
-4.8981

> <Gold.PLP.part.nonpolar>
-33.3573

> <Gold.PLP.part.repulsive>
2.6293

> <Gold.PLP.ligand.clash>
0.0000

> <Gold.PLP.ligand.torsion>
0.9604

> <Gold.PLP.Chemscore.Hbond>
1.7113

> <Gold.PLP.Chemscore.CHOScore>
0.0037

> <Gold.PLP.Chemscore.Metal>
0.0000

> <Gold.Chemscore.Hbonds>
donor molecule, donor type, donor heavy atom, donor atom, acceptor molecule, acceptor atom, score
      L1  H    22    46       P1 10957  0.37
      P1  H  8011  8017       L1     7  0.53

> <Gold.PLP.Chemscore.Internal.Correction>
0.3514

> <Gold.Rescore>
     Score         DG    S(hbond)    S(metal)    S(lipo)     H(rot)  DE(clash)    DE(int)     intcor
      9.11     -12.81       1.58        0.00      79.54       2.84       1.26       2.44       ----

> <Gold.Chemscore.Fitness>
9.1102

> <Gold.Chemscore.DG>
-12.8088

> <Gold.Chemscore.ZeroCoef>
-5.4800

> <Gold.Chemscore.Hbond>
1.5815

> <Gold.Chemscore.Metal>
0.0000

> <Gold.Chemscore.Lipo>
79.5399

> <Gold.Chemscore.Internal_Hbond>
0.0000

> <Gold.Chemscore.DEClash>
1.2570

> <Gold.Chemscore.DEInternal>
2.4416

> <Gold.Chemscore.Rot>
2.8358

> <Gold.Chemscore.Internal.Correction>
   9.000000E+99

> <Gold.Chemscore.Hbonds>
donor molecule, donor type, donor heavy atom, donor atom, acceptor molecule, acceptor atom, score
      L1  H    22    46       P1 10957  0.27
      P1  H  8011  8017       L1     7  0.28

> <Gold.Chemscore.Hbond.Weighted>
-5.2822

> <Gold.Chemscore.Metal.Weighted>
-0.0000

> <Gold.Chemscore.Lipo.Weighted>
-9.3062

> <Gold.Chemscore.Internal_Hbond.Weighted>
0.0000

> <Gold.Chemscore.DEClash.Weighted>
1.2570

> <Gold.Chemscore.DEInternal.Weighted>
2.4416

> <Gold.Chemscore.Rot.Weighted>
7.2596

> <Gold.Chemscore.Internal.Correction.Weighted>
   9.000000E+99

> <Gold.Protein.RotatedTorsions>
[ 6907 6896 6895 6894 ] final -112.99 input  -60.11 | X-H torsion
[ 7974 7965 7964 7962 ] final -121.77 input  175.53 | X-H torsion
[ 8008 7997 7996 7995 ] final  -63.39 input   59.86 | X-H torsion
[ 10167 10162 10161 10158 ] final  127.28 input  -65.29 | X-H torsion
[ 10718 10713 10712 10709 ] final   48.88 input   66.30 | X-H torsion
[ 10763 10752 10751 10750 ] final  142.18 input  -60.55 | X-H torsion
[ 11005 11000 10999 10996 ] final   36.08 input  -57.11 | X-H torsion

> <Gold.Protein.ActiveResidues>
 VAL166  LYS551  ARG553  GLY616  TRP617  ASP618  TYR619  PRO620  LYS621  CYS622 
 ASP623  PHE694  ASN695  SER759  ASP760  ASP761  ALA762  ILE779  LEU786  VAL792 
 PHE793  MET794  SER795  GLU796  ALA797  LYS798  CYS799  TRP800  GLU811  SER814 

> <Gold.Protein.RotatedAtoms>
  150.7797  133.9009  159.3340 H   0  0  0  0  0  0  0  0  0  0  0  0  # atno 6907 bound_to 6896
  151.6875  135.0950  160.0237 H   0  0  0  0  0  0  0  0  0  0  0  0  # atno 6908 bound_to 6896
  152.3845  133.6553  159.6223 H   0  0  0  0  0  0  0  0  0  0  0  0  # atno 6909 bound_to 6896
  145.0368  140.8112  143.4290 H   0  0  0  0  0  0  0  0  0  0  0  0  # atno 7974 bound_to 7965
  154.4551  140.0976  156.6735 H   0  0  0  0  0  0  0  0  0  0  0  0  # atno 8008 bound_to 7997
  155.5162  140.3477  155.4379 H   0  0  0  0  0  0  0  0  0  0  0  0  # atno 8009 bound_to 7997
  156.0762  140.1361  156.9758 H   0  0  0  0  0  0  0  0  0  0  0  0  # atno 8010 bound_to 7997
  139.5587  144.6866  151.4107 H   0  0  0  0  0  0  0  0  0  0  0  0  # atno 10167 bound_to 10162
  157.4731  130.8268  149.8010 H   0  0  0  0  0  0  0  0  0  0  0  0  # atno 10718 bound_to 10713
  153.9516  135.2969  155.3438 H   0  0  0  0  0  0  0  0  0  0  0  0  # atno 10763 bound_to 10752
  154.7423  135.5019  153.9147 H   0  0  0  0  0  0  0  0  0  0  0  0  # atno 10764 bound_to 10752
  153.0991  135.6729  153.9815 H   0  0  0  0  0  0  0  0  0  0  0  0  # atno 10765 bound_to 10752
  140.2362  134.3469  155.7944 H   0  0  0  0  0  0  0  0  0  0  0  0  # atno 11005 bound_to 11000
  145.1700  139.2410  143.5347 LP  0  0  0  0  0  0  0  0  0  0  0  0  # atno 17320 bound_to 7965
  146.3505  140.1448  142.8593 LP  0  0  0  0  0  0  0  0  0  0  0  0  # atno 17321 bound_to 7965
  140.6863  143.7965  150.7191 LP  0  0  0  0  0  0  0  0  0  0  0  0  # atno 17342 bound_to 10162
  140.1434  143.4421  152.2179 LP  0  0  0  0  0  0  0  0  0  0  0  0  # atno 17343 bound_to 10162
  156.0083  130.3845  150.2352 LP  0  0  0  0  0  0  0  0  0  0  0  0  # atno 17370 bound_to 10713
  157.0535  131.0069  151.3246 LP  0  0  0  0  0  0  0  0  0  0  0  0  # atno 17371 bound_to 10713
  141.2214  133.7273  156.8811 LP  0  0  0  0  0  0  0  0  0  0  0  0  # atno 17394 bound_to 11000
  140.1700  134.9106  157.2821 LP  0  0  0  0  0  0  0  0  0  0  0  0  # atno 17395 bound_to 11000

$$$$
