AV-unprocessed.smi:1381|AV-procd|sdf|5603|dock5
  -GOLD-   22720 5213D 1   1.00000     0.00000
 Structure written by MMmdl.
 42 43  0  0  0  0  0  0  0  0  1 V2000
  144.5288  132.3912  149.4890 C   0  0  0  0  0  0  0  0  0  0  0  0
  145.4192  132.6597  150.6535 C   0  0  0  0  0  0  0  0  0  0  0  0
  146.3409  133.6344  150.9147 C   0  0  0  0  0  0  0  0  0  0  0  0
  146.8197  133.2843  152.2052 C   0  0  0  0  0  0  0  0  0  0  0  0
  147.8138  134.0643  152.8487 N   0  0  0  0  0  0  0  0  0  0  0  0
  148.3666  133.8535  154.0554 C   0  0  0  0  0  0  0  0  0  0  0  0
  148.0909  132.9200  154.8094 O   0  0  0  0  0  0  0  0  0  0  0  0
  149.2707  134.7992  154.3481 N   0  0  0  0  0  0  0  0  0  0  0  0
  150.0466  134.8685  155.5824 C   0  0  0  0  0  0  0  0  0  0  0  0
  149.7682  136.1584  156.3806 C   0  0  0  0  0  0  0  0  0  0  0  0
  150.6235  137.2949  156.0418 N   0  0  0  0  0  0  0  0  0  0  0  0
  149.9852  138.5540  156.4039 C   0  0  0  0  0  0  0  0  0  0  0  0
  150.8853  139.7644  156.0977 C   0  0  2  0  0  0  0  0  0  0  0  0
  150.1875  141.0938  156.4034 C   0  0  0  0  0  0  0  0  0  0  0  0
  151.2350  139.7542  154.7149 O   0  0  0  0  0  0  0  0  0  0  0  0
  151.8406  138.5469  154.2495 C   0  0  1  0  0  0  0  0  0  0  0  0
  153.2984  138.4209  154.7237 C   0  0  0  0  0  0  0  0  0  0  0  0
  150.9702  137.3298  154.6228 C   0  0  0  0  0  0  0  0  0  0  0  0
  146.2407  132.1961  152.6893 N   0  0  0  0  0  0  0  0  0  0  0  0
  145.3401  131.7902  151.6973 O   0  0  0  0  0  0  0  0  0  0  0  0
  144.7510  133.0687  148.6644 H   0  0  0  0  0  0  0  0  0  0  0  0
  143.4825  132.5247  149.7639 H   0  0  0  0  0  0  0  0  0  0  0  0
  144.6577  131.3697  149.1309 H   0  0  0  0  0  0  0  0  0  0  0  0
  146.6254  134.4619  150.2821 H   0  0  0  0  0  0  0  0  0  0  0  0
  148.1393  134.8694  152.3348 H   0  0  0  0  0  0  0  0  0  0  0  0
  149.4341  135.5286  153.6698 H   0  0  0  0  0  0  0  0  0  0  0  0
  149.7976  134.0012  156.1962 H   0  0  0  0  0  0  0  0  0  0  0  0
  151.1081  134.7760  155.3506 H   0  0  0  0  0  0  0  0  0  0  0  0
  148.7159  136.4394  156.3142 H   0  0  0  0  0  0  0  0  0  0  0  0
  149.9350  135.9160  157.4312 H   0  0  0  0  0  0  0  0  0  0  0  0
  149.0404  138.6562  155.8674 H   0  0  0  0  0  0  0  0  0  0  0  0
  149.7404  138.5505  157.4667 H   0  0  0  0  0  0  0  0  0  0  0  0
  151.7918  139.7067  156.7011 H   0  0  0  0  0  0  0  0  0  0  0  0
  149.9113  141.1585  157.4563 H   0  0  0  0  0  0  0  0  0  0  0  0
  149.2799  141.2091  155.8105 H   0  0  0  0  0  0  0  0  0  0  0  0
  150.8414  141.9368  156.1794 H   0  0  0  0  0  0  0  0  0  0  0  0
  151.8663  138.6178  153.1619 H   0  0  0  0  0  0  0  0  0  0  0  0
  153.7830  137.5601  154.2626 H   0  0  0  0  0  0  0  0  0  0  0  0
  153.3694  138.2935  155.8037 H   0  0  0  0  0  0  0  0  0  0  0  0
  153.8724  139.3071  154.4531 H   0  0  0  0  0  0  0  0  0  0  0  0
  151.4964  136.4193  154.3374 H   0  0  0  0  0  0  0  0  0  0  0  0
  150.0553  137.3557  154.0287 H   0  0  0  0  0  0  0  0  0  0  0  0
  1  2  1  0  0  0  0
  1 21  1  0  0  0  0
  1 22  1  0  0  0  0
  1 23  1  0  0  0  0
  2 20  1  0  0  0  0
  2  3  2  0  0  0  0
  3  4  1  0  0  0  0
  3 24  1  0  0  0  0
  4  5  1  0  0  0  0
  4 19  2  0  0  0  0
  5  6  1  0  0  0  0
  5 25  1  0  0  0  0
  6  7  2  0  0  0  0
  6  8  1  0  0  0  0
  8  9  1  0  0  0  0
  8 26  1  0  0  0  0
  9 10  1  0  0  0  0
  9 27  1  0  0  0  0
  9 28  1  0  0  0  0
 10 11  1  0  0  0  0
 10 29  1  0  0  0  0
 10 30  1  0  0  0  0
 11 18  1  0  0  0  0
 11 12  1  0  0  0  0
 12 13  1  0  0  0  0
 12 31  1  0  0  0  0
 12 32  1  0  0  0  0
 13 14  1  0  0  0  0
 13 15  1  0  0  0  0
 13 33  1  0  0  0  0
 14 34  1  0  0  0  0
 14 35  1  0  0  0  0
 14 36  1  0  0  0  0
 15 16  1  0  0  0  0
 16 17  1  0  0  0  0
 16 18  1  0  0  0  0
 16 37  1  0  0  0  0
 17 38  1  0  0  0  0
 17 39  1  0  0  0  0
 17 40  1  0  0  0  0
 18 41  1  0  0  0  0
 18 42  1  0  0  0  0
 19 20  1  0  0  0  0
M  END
> <s_m_source_file>
AV-unprocessed.smi

> <i_m_source_file_index>
1381

> <i_lp_mmshare_version>
43012

> <i_f3d_flags>
0

> <s_epik_input>
W0NIM11jMVtjSF1jKG5vMSlbTkhdQyg9TylbTkhdW0NIMl1bQ0gyXU4yW0NIMl1bQ0BASF0oW0NIM10pT1tDQEBIXShbQ0gzXSlbQ0gyXTI=

> <s_epik_cmdline>
J2VwaWtfcHl0aG9uJywgJy1waCcsICc3LjAnLCAnLXRuJywgJzgnLCAnLW1hJywgJzIwMCcsICctbWV0YWxfYmluZGluZycsICctaW1hZScsICc8aW5maWxlLm1hZT4nLCAnLW9tYWUnLCAnPG91dGZpbGUubWFlPic=

> <r_epik_Ionization_Penalty>
0.214073

> <r_epik_Ionization_Penalty_Charging>
0

> <r_epik_Ionization_Penalty_Neutral>
0.214073

> <r_epik_State_Penalty>
0.204211

> <r_epik_Charging_Adjusted_Penalty>
0.204211

> <i_epik_Tot_Q>
0

> <i_epik_Tot_abs_Q>
0

> <r_epik_Metal_State_Penalty>
0.217067

> <b_epik_Metal_Only>
0

> <s_lp_Force_Field>
OPLS_2005

> <r_lp_Energy>
25.417

> <b_lp_Chiralities_Consistent>
1

> <s_lp_Variant>
AV-unprocessed.smi:1381-2

> <Gold.Version>
5.8.1

> <Gold.Id.Protein>
6NUR|6NUR_protein|mol2

> <Gold.PLP.Fitness>
38.7801

> <Gold.PLP.PLP>
-30.8267

> <Gold.PLP.part.hbond>
-3.0000

> <Gold.PLP.part.metal>
0.0000

> <Gold.PLP.part.buried>
-5.8387

> <Gold.PLP.part.nonpolar>
-23.0685

> <Gold.PLP.part.repulsive>
0.4119

> <Gold.PLP.ligand.clash>
0.0000

> <Gold.PLP.ligand.torsion>
0.4437

> <Gold.PLP.Chemscore.Hbond>
2.9440

> <Gold.PLP.Chemscore.CHOScore>
0.0000

> <Gold.PLP.Chemscore.Metal>
0.0000

> <Gold.Chemscore.Hbonds>
donor molecule, donor type, donor heavy atom, donor atom, acceptor molecule, acceptor atom, score
      L1  H     5    25       P1  7948  1.00
      L1  H     8    26       P1  7948  0.91
      P1  H  7989  7998       L1    15  1.00

> <Gold.PLP.Chemscore.Internal.Correction>
0.0087

> <Gold.Rescore>
     Score         DG    S(hbond)    S(metal)    S(lipo)     H(rot)  DE(clash)    DE(int)     intcor
     17.00     -19.01       2.71        0.00      72.52       1.57       0.11       1.90       ----

> <Gold.Chemscore.Fitness>
17.0020

> <Gold.Chemscore.DG>
-19.0123

> <Gold.Chemscore.ZeroCoef>
-5.4800

> <Gold.Chemscore.Hbond>
2.7143

> <Gold.Chemscore.Metal>
0.0000

> <Gold.Chemscore.Lipo>
72.5205

> <Gold.Chemscore.Internal_Hbond>
0.0000

> <Gold.Chemscore.DEClash>
0.1103

> <Gold.Chemscore.DEInternal>
1.9001

> <Gold.Chemscore.Rot>
1.5697

> <Gold.Chemscore.Internal.Correction>
   9.000000E+99

> <Gold.Chemscore.Hbonds>
donor molecule, donor type, donor heavy atom, donor atom, acceptor molecule, acceptor atom, score
      L1  H     5    25       P1  7948  0.49
      L1  H     8    26       P1  7948  0.26
      P1  H  7989  7998       L1    15  0.35

> <Gold.Chemscore.Hbond.Weighted>
-9.0659

> <Gold.Chemscore.Metal.Weighted>
-0.0000

> <Gold.Chemscore.Lipo.Weighted>
-8.4849

> <Gold.Chemscore.Internal_Hbond.Weighted>
0.0000

> <Gold.Chemscore.DEClash.Weighted>
0.1103

> <Gold.Chemscore.DEInternal.Weighted>
1.9001

> <Gold.Chemscore.Rot.Weighted>
4.0185

> <Gold.Chemscore.Internal.Correction.Weighted>
   9.000000E+99

> <Gold.Protein.RotatedTorsions>
[ 6907 6896 6895 6894 ] final -158.78 input  -60.11 | X-H torsion
[ 7974 7965 7964 7962 ] final   72.48 input  175.53 | X-H torsion
[ 8008 7997 7996 7995 ] final   87.05 input   59.86 | X-H torsion
[ 10167 10162 10161 10158 ] final -168.04 input  -65.29 | X-H torsion
[ 10718 10713 10712 10709 ] final  -74.99 input   66.30 | X-H torsion
[ 10763 10752 10751 10750 ] final  163.48 input  -60.55 | X-H torsion
[ 11005 11000 10999 10996 ] final   80.41 input  -57.11 | X-H torsion

> <Gold.Protein.ActiveResidues>
 VAL166  LYS551  ARG553  GLY616  TRP617  ASP618  TYR619  PRO620  LYS621  CYS622 
 ASP623  PHE694  ASN695  SER759  ASP760  ASP761  ALA762  ILE779  LEU786  VAL792 
 PHE793  MET794  SER795  GLU796  ALA797  LYS798  CYS799  TRP800  GLU811  SER814 

> <Gold.Protein.RotatedAtoms>
  151.3234  133.4030  159.2656 H   0  0  0  0  0  0  0  0  0  0  0  0  # atno 6907 bound_to 6896
  151.0015  134.9326  159.7967 H   0  0  0  0  0  0  0  0  0  0  0  0  # atno 6908 bound_to 6896
  152.5276  134.3199  159.9197 H   0  0  0  0  0  0  0  0  0  0  0  0  # atno 6909 bound_to 6896
  145.7528  139.2767  143.1421 H   0  0  0  0  0  0  0  0  0  0  0  0  # atno 7974 bound_to 7965
  155.9705  140.3386  155.6571 H   0  0  0  0  0  0  0  0  0  0  0  0  # atno 8008 bound_to 7997
  155.6680  140.0723  157.2548 H   0  0  0  0  0  0  0  0  0  0  0  0  # atno 8009 bound_to 7997
  154.4165  140.1696  156.1836 H   0  0  0  0  0  0  0  0  0  0  0  0  # atno 8010 bound_to 7997
  139.6011  144.1010  152.1743 H   0  0  0  0  0  0  0  0  0  0  0  0  # atno 10167 bound_to 10162
  156.0223  130.4430  150.2975 H   0  0  0  0  0  0  0  0  0  0  0  0  # atno 10718 bound_to 10713
  154.2944  135.2760  155.2640 H   0  0  0  0  0  0  0  0  0  0  0  0  # atno 10763 bound_to 10752
  154.5104  135.5784  153.6604 H   0  0  0  0  0  0  0  0  0  0  0  0  # atno 10764 bound_to 10752
  152.9909  135.6180  154.3111 H   0  0  0  0  0  0  0  0  0  0  0  0  # atno 10765 bound_to 10752
  139.9135  134.7918  156.1906 H   0  0  0  0  0  0  0  0  0  0  0  0  # atno 11005 bound_to 11000
  146.0340  140.8230  142.9862 LP  0  0  0  0  0  0  0  0  0  0  0  0  # atno 17320 bound_to 7965
  144.6846  140.2811  143.7292 LP  0  0  0  0  0  0  0  0  0  0  0  0  # atno 17321 bound_to 7965
  140.0606  144.5859  150.7266 LP  0  0  0  0  0  0  0  0  0  0  0  0  # atno 17342 bound_to 10162
  140.7250  143.2627  151.4152 LP  0  0  0  0  0  0  0  0  0  0  0  0  # atno 17343 bound_to 10162
  157.1078  131.0213  151.3060 LP  0  0  0  0  0  0  0  0  0  0  0  0  # atno 17370 bound_to 10713
  157.4729  130.7719  149.7340 LP  0  0  0  0  0  0  0  0  0  0  0  0  # atno 17371 bound_to 10713
  141.0586  133.6853  156.1908 LP  0  0  0  0  0  0  0  0  0  0  0  0  # atno 17394 bound_to 11000
  140.6697  134.4880  157.5587 LP  0  0  0  0  0  0  0  0  0  0  0  0  # atno 17395 bound_to 11000

$$$$
