AV-unprocessed.smi:2801|AV-procd|sdf|10798|dock7
  -GOLD-   2272015233D 1   1.00000     0.00000
 Structure written by MMmdl.
 32 32  0  0  0  0  0  0  0  0  3 V2000
  153.7892  141.5697  160.7847 C   0  0  0  0  0  0  0  0  0  0  0  0
  152.9376  142.6523  160.1184 C   0  0  0  0  0  0  0  0  0  0  0  0
  152.2935  142.0864  158.9834 O   0  0  0  0  0  0  0  0  0  0  0  0
  151.2181  142.8520  158.4445 C   0  0  1  0  0  0  0  0  0  0  0  0
  151.8211  144.0743  157.7268 C   0  0  0  0  0  0  0  0  0  0  0  0
  152.2205  145.1949  158.6950 C   0  0  0  0  0  0  0  0  0  0  0  0
  150.3912  141.9909  157.4756 C   0  0  0  0  0  0  0  0  0  0  0  0
  149.1623  142.0547  157.5042 O   0  0  0  0  0  0  0  0  0  0  0  0
  151.1029  141.2311  156.6231 N   0  0  0  0  0  0  0  0  0  0  0  0
  150.6551  140.3364  155.6100 C   0  0  0  0  0  0  0  0  0  0  0  0
  149.3603  140.3860  155.0320 C   0  0  0  0  0  0  0  0  0  0  0  0
  149.0044  139.4446  154.0455 C   0  0  0  0  0  0  0  0  0  0  0  0
  149.8887  138.4994  153.6639 N   0  3  0  0  0  0  0  0  0  0  0  0
  151.1260  138.4032  154.1927 C   0  0  0  0  0  0  0  0  0  0  0  0
  151.5425  139.3164  155.1824 C   0  0  0  0  0  0  0  0  0  0  0  0
  152.7988  139.1981  155.7083 O   0  5  0  0  0  0  0  0  0  0  0  0
  154.3033  141.9628  161.6618 H   0  0  0  0  0  0  0  0  0  0  0  0
  154.5440  141.1874  160.0971 H   0  0  0  0  0  0  0  0  0  0  0  0
  153.1721  140.7303  161.1062 H   0  0  0  0  0  0  0  0  0  0  0  0
  152.2106  143.0360  160.8349 H   0  0  0  0  0  0  0  0  0  0  0  0
  153.5720  143.4857  159.8128 H   0  0  0  0  0  0  0  0  0  0  0  0
  150.5785  143.2063  159.2559 H   0  0  0  0  0  0  0  0  0  0  0  0
  152.6939  143.7737  157.1454 H   0  0  0  0  0  0  0  0  0  0  0  0
  151.1001  144.4744  157.0124 H   0  0  0  0  0  0  0  0  0  0  0  0
  152.6282  146.0484  158.1534 H   0  0  0  0  0  0  0  0  0  0  0  0
  152.9795  144.8563  159.4006 H   0  0  0  0  0  0  0  0  0  0  0  0
  151.3614  145.5444  159.2682 H   0  0  0  0  0  0  0  0  0  0  0  0
  152.1059  141.3453  156.6657 H   0  0  0  0  0  0  0  0  0  0  0  0
  148.6259  141.1167  155.3308 H   0  0  0  0  0  0  0  0  0  0  0  0
  148.0412  139.4162  153.5579 H   0  0  0  0  0  0  0  0  0  0  0  0
  151.7421  137.6014  153.8122 H   0  0  0  0  0  0  0  0  0  0  0  0
  149.6097  137.8267  152.9500 H   0  0  0  0  0  0  0  0  0  0  0  0
  1  2  1  0  0  0  0
  1 17  1  0  0  0  0
  1 18  1  0  0  0  0
  1 19  1  0  0  0  0
  2  3  1  0  0  0  0
  2 20  1  0  0  0  0
  2 21  1  0  0  0  0
  3  4  1  0  0  0  0
  4  5  1  0  0  0  0
  4  7  1  0  0  0  0
  4 22  1  0  0  0  0
  5  6  1  0  0  0  0
  5 23  1  0  0  0  0
  5 24  1  0  0  0  0
  6 25  1  0  0  0  0
  6 26  1  0  0  0  0
  6 27  1  0  0  0  0
  7  8  2  0  0  0  0
  7  9  1  0  0  0  0
  9 28  1  0  0  0  0
  9 10  1  0  0  0  0
 10 11  2  0  0  0  0
 10 15  1  0  0  0  0
 11 12  1  0  0  0  0
 11 29  1  0  0  0  0
 12 13  2  0  0  0  0
 12 30  1  0  0  0  0
 13 14  1  0  0  0  0
 13 32  1  0  0  0  0
 14 15  2  0  0  0  0
 14 31  1  0  0  0  0
 15 16  1  0  0  0  0
M  CHG  1  13   1
M  CHG  1  16  -1
M  END
> <s_m_source_file>
AV-unprocessed.smi

> <i_m_source_file_index>
2801

> <i_lp_mmshare_version>
43012

> <i_f3d_flags>
0

> <s_epik_input>
W0NIM11bQ0gyXU9bQ0BIXShbQ0gyXVtDSDNdKUMoPU8pW05IXWMxW2NIXVtjSF1uW2NIXWMxW09IXQ==

> <s_epik_cmdline>
J2VwaWtfcHl0aG9uJywgJy1waCcsICc3LjAnLCAnLXRuJywgJzgnLCAnLW1hJywgJzIwMCcsICctbWV0YWxfYmluZGluZycsICctaW1hZScsICc8aW5maWxlLm1hZT4nLCAnLW9tYWUnLCAnPG91dGZpbGUubWFlPic=

> <r_lp_tautomer_probability>
0.56342

> <r_epik_Ionization_Penalty>
0.0170685

> <r_epik_Ionization_Penalty_Charging>
0.0170685

> <r_epik_Ionization_Penalty_Neutral>
1.5328e-09

> <r_epik_State_Penalty>
0.331557

> <r_epik_Charging_Adjusted_Penalty>
0.348625

> <i_epik_Tot_Q>
0

> <i_epik_Tot_abs_Q>
2

> <r_epik_Metal_State_Penalty>
0.590147

> <b_epik_Metal_Only>
0

> <s_lp_Force_Field>
OPLS_2005

> <r_lp_Energy>
9.87866

> <b_lp_Chiralities_Consistent>
1

> <s_lp_Variant>
AV-unprocessed.smi:2801-2

> <Gold.Version>
5.8.1

> <Gold.Id.Protein>
6NUR|6NUR_protein|mol2

> <Gold.PLP.Fitness>
48.1987

> <Gold.PLP.PLP>
-37.8631

> <Gold.PLP.part.hbond>
-3.0000

> <Gold.PLP.part.metal>
0.0000

> <Gold.PLP.part.buried>
-4.2342

> <Gold.PLP.part.nonpolar>
-30.7927

> <Gold.PLP.part.repulsive>
0.3130

> <Gold.PLP.ligand.clash>
0.0000

> <Gold.PLP.ligand.torsion>
0.8627

> <Gold.PLP.Chemscore.Hbond>
4.0000

> <Gold.PLP.Chemscore.CHOScore>
0.0000

> <Gold.PLP.Chemscore.Metal>
0.0000

> <Gold.Chemscore.Hbonds>
donor molecule, donor type, donor heavy atom, donor atom, acceptor molecule, acceptor atom, score
      L1  H    13    32       P1  7948  2.00
      P1  H  7997  8008       L1    16  2.00

> <Gold.PLP.Chemscore.Internal.Correction>
0.0610

> <Gold.Rescore>
     Score         DG    S(hbond)    S(metal)    S(lipo)     H(rot)  DE(clash)    DE(int)     intcor
     16.65     -18.75       1.93        0.00      93.28       1.59       0.02       2.08       ----

> <Gold.Chemscore.Fitness>
16.6507

> <Gold.Chemscore.DG>
-18.7515

> <Gold.Chemscore.ZeroCoef>
-5.4800

> <Gold.Chemscore.Hbond>
1.9270

> <Gold.Chemscore.Metal>
0.0000

> <Gold.Chemscore.Lipo>
93.2845

> <Gold.Chemscore.Internal_Hbond>
0.0000

> <Gold.Chemscore.DEClash>
0.0178

> <Gold.Chemscore.DEInternal>
2.0830

> <Gold.Chemscore.Rot>
1.5933

> <Gold.Chemscore.Internal.Correction>
   9.000000E+99

> <Gold.Chemscore.Hbonds>
donor molecule, donor type, donor heavy atom, donor atom, acceptor molecule, acceptor atom, score
      L1  H    13    32       P1  7948  0.71
      P1  H  7997  8008       L1    16  1.00

> <Gold.Chemscore.Hbond.Weighted>
-6.4361

> <Gold.Chemscore.Metal.Weighted>
-0.0000

> <Gold.Chemscore.Lipo.Weighted>
-10.9143

> <Gold.Chemscore.Internal_Hbond.Weighted>
0.0000

> <Gold.Chemscore.DEClash.Weighted>
0.0178

> <Gold.Chemscore.DEInternal.Weighted>
2.0830

> <Gold.Chemscore.Rot.Weighted>
4.0789

> <Gold.Chemscore.Internal.Correction.Weighted>
   9.000000E+99

> <Gold.Protein.RotatedTorsions>
[ 6907 6896 6895 6894 ] final  -54.82 input  -60.11 | X-H torsion
[ 7974 7965 7964 7962 ] final  -71.87 input  175.53 | X-H torsion
[ 8008 7997 7996 7995 ] final  -35.97 input   59.86 | X-H torsion
[ 10167 10162 10161 10158 ] final   -0.66 input  -65.29 | X-H torsion
[ 10718 10713 10712 10709 ] final    0.85 input   66.30 | X-H torsion
[ 10763 10752 10751 10750 ] final  -83.46 input  -60.55 | X-H torsion
[ 11005 11000 10999 10996 ] final   72.26 input  -57.11 | X-H torsion

> <Gold.Protein.ActiveResidues>
 VAL166  LYS551  ARG553  GLY616  TRP617  ASP618  TYR619  PRO620  LYS621  CYS622 
 ASP623  PHE694  ASN695  SER759  ASP760  ASP761  ALA762  ILE779  LEU786  VAL792 
 PHE793  MET794  SER795  GLU796  ALA797  LYS798  CYS799  TRP800  GLU811  SER814 

> <Gold.Protein.RotatedAtoms>
  150.8304  134.7555  159.6848 H   0  0  0  0  0  0  0  0  0  0  0  0  # atno 6907 bound_to 6896
  152.4409  134.5588  159.9898 H   0  0  0  0  0  0  0  0  0  0  0  0  # atno 6908 bound_to 6896
  151.5751  133.3347  159.3033 H   0  0  0  0  0  0  0  0  0  0  0  0  # atno 6909 bound_to 6896
  145.6725  140.9216  143.0875 H   0  0  0  0  0  0  0  0  0  0  0  0  # atno 7974 bound_to 7965
  154.4083  140.1643  156.2297 H   0  0  0  0  0  0  0  0  0  0  0  0  # atno 8008 bound_to 7997
  155.9293  140.3416  155.6213 H   0  0  0  0  0  0  0  0  0  0  0  0  # atno 8009 bound_to 7997
  155.7126  140.0758  157.2355 H   0  0  0  0  0  0  0  0  0  0  0  0  # atno 8010 bound_to 7997
  140.6777  143.6867  150.8060 H   0  0  0  0  0  0  0  0  0  0  0  0  # atno 10167 bound_to 10162
  156.8395  130.5516  149.5679 H   0  0  0  0  0  0  0  0  0  0  0  0  # atno 10718 bound_to 10713
  154.5880  135.5555  153.7250 H   0  0  0  0  0  0  0  0  0  0  0  0  # atno 10763 bound_to 10752
  153.0106  135.6336  154.1890 H   0  0  0  0  0  0  0  0  0  0  0  0  # atno 10764 bound_to 10752
  154.1830  135.2886  155.3026 H   0  0  0  0  0  0  0  0  0  0  0  0  # atno 10765 bound_to 10752
  139.9500  134.7244  156.0886 H   0  0  0  0  0  0  0  0  0  0  0  0  # atno 11005 bound_to 11000
  144.7052  139.8590  143.7432 LP  0  0  0  0  0  0  0  0  0  0  0  0  # atno 17320 bound_to 7965
  146.1034  139.4031  143.0333 LP  0  0  0  0  0  0  0  0  0  0  0  0  # atno 17321 bound_to 7965
  140.0563  143.5199  152.2649 LP  0  0  0  0  0  0  0  0  0  0  0  0  # atno 17342 bound_to 10162
  139.6079  144.7601  151.3018 LP  0  0  0  0  0  0  0  0  0  0  0  0  # atno 17343 bound_to 10162
  156.0888  130.5879  150.9696 LP  0  0  0  0  0  0  0  0  0  0  0  0  # atno 17370 bound_to 10713
  157.6363  131.0915  150.8342 LP  0  0  0  0  0  0  0  0  0  0  0  0  # atno 17371 bound_to 10713
  141.1160  133.6627  156.3095 LP  0  0  0  0  0  0  0  0  0  0  0  0  # atno 17394 bound_to 11000
  140.5742  134.5810  157.5465 LP  0  0  0  0  0  0  0  0  0  0  0  0  # atno 17395 bound_to 11000

$$$$
