AV-unprocessed.smi:3309|AV-procd|sdf|12716|dock9
  -GOLD-   2272019 53D 1   1.00000     0.00000
 Structure written by MMmdl.
 41 42  0  0  0  0  0  0  0  0  2 V2000
  148.0457  140.6311  150.1849 O   0  0  0  0  0  0  0  0  0  0  0  0
  146.9241  140.3921  150.6326 C   0  0  0  0  0  0  0  0  0  0  0  0
  146.2065  139.0847  150.2822 C   0  0  0  0  0  0  0  0  0  0  0  0
  145.8117  138.2611  151.5205 C   0  0  0  0  0  0  0  0  0  0  0  0
  144.8624  137.1893  151.1622 N   0  3  0  0  0  0  0  0  0  0  0  0
  145.1855  135.8780  151.7569 C   0  0  0  0  0  0  0  0  0  0  0  0
  144.1397  134.8232  151.3666 C   0  0  0  0  0  0  0  0  0  0  0  0
  144.6433  133.4743  151.5393 N   0  0  0  0  0  0  0  0  0  0  0  0
  144.1927  132.4914  152.3954 C   0  0  0  0  0  0  0  0  0  0  0  0
  144.9738  131.3894  152.1948 C   0  0  0  0  0  0  0  0  0  0  0  0
  145.8838  131.7994  151.1806 C   0  0  0  0  0  0  0  0  0  0  0  0
  145.6822  133.0476  150.7894 N   0  0  0  0  0  0  0  0  0  0  0  0
  146.2565  141.2367  151.4334 N   0  0  0  0  0  0  0  0  0  0  0  0
  146.7504  142.5354  151.8852 C   0  0  0  0  0  0  0  0  0  0  0  0
  146.7253  142.6256  153.4234 C   0  0  0  0  0  0  0  0  0  0  0  0
  146.0564  143.9595  153.7600 C   0  0  0  0  0  0  0  0  0  0  0  0
  145.1035  144.2085  152.5954 C   0  0  0  0  0  0  0  0  0  0  0  0
  145.8618  143.6875  151.3743 C   0  0  0  0  0  0  0  0  0  0  0  0
  145.3142  139.3161  149.6980 H   0  0  0  0  0  0  0  0  0  0  0  0
  146.8616  138.4978  149.6372 H   0  0  0  0  0  0  0  0  0  0  0  0
  146.6957  137.8098  151.9741 H   0  0  0  0  0  0  0  0  0  0  0  0
  145.3551  138.9067  152.2726 H   0  0  0  0  0  0  0  0  0  0  0  0
  143.9387  137.4615  151.4668 H   0  0  0  0  0  0  0  0  0  0  0  0
  146.1757  135.5684  151.4194 H   0  0  0  0  0  0  0  0  0  0  0  0
  145.2300  135.9766  152.8424 H   0  0  0  0  0  0  0  0  0  0  0  0
  143.2394  134.9381  151.9716 H   0  0  0  0  0  0  0  0  0  0  0  0
  143.8403  134.9484  150.3248 H   0  0  0  0  0  0  0  0  0  0  0  0
  143.3639  132.6544  153.0686 H   0  0  0  0  0  0  0  0  0  0  0  0
  144.9047  130.4346  152.6950 H   0  0  0  0  0  0  0  0  0  0  0  0
  146.6784  131.2310  150.7200 H   0  0  0  0  0  0  0  0  0  0  0  0
  145.3379  140.9654  151.7529 H   0  0  0  0  0  0  0  0  0  0  0  0
  147.7728  142.6816  151.5315 H   0  0  0  0  0  0  0  0  0  0  0  0
  146.1302  141.8153  153.8478 H   0  0  0  0  0  0  0  0  0  0  0  0
  147.7233  142.5508  153.8565 H   0  0  0  0  0  0  0  0  0  0  0  0
  145.5469  143.9425  154.7238 H   0  0  0  0  0  0  0  0  0  0  0  0
  146.8078  144.7498  153.7942 H   0  0  0  0  0  0  0  0  0  0  0  0
  144.1904  143.6288  152.7370 H   0  0  0  0  0  0  0  0  0  0  0  0
  144.8217  145.2575  152.4986 H   0  0  0  0  0  0  0  0  0  0  0  0
  146.4979  144.4822  150.9821 H   0  0  0  0  0  0  0  0  0  0  0  0
  145.1858  143.3946  150.5697 H   0  0  0  0  0  0  0  0  0  0  0  0
  144.8564  137.0911  150.1569 H   0  0  0  0  0  0  0  0  0  0  0  0
  1  2  2  0  0  0  0
  2  3  1  0  0  0  0
  2 13  1  0  0  0  0
  3  4  1  0  0  0  0
  3 19  1  0  0  0  0
  3 20  1  0  0  0  0
  4  5  1  0  0  0  0
  4 21  1  0  0  0  0
  4 22  1  0  0  0  0
  5  6  1  0  0  0  0
  5 23  1  0  0  0  0
  5 41  1  0  0  0  0
  6  7  1  0  0  0  0
  6 24  1  0  0  0  0
  6 25  1  0  0  0  0
  7  8  1  0  0  0  0
  7 26  1  0  0  0  0
  7 27  1  0  0  0  0
  8 12  1  0  0  0  0
  8  9  1  0  0  0  0
  9 10  2  0  0  0  0
  9 28  1  0  0  0  0
 10 11  1  0  0  0  0
 10 29  1  0  0  0  0
 11 12  2  0  0  0  0
 11 30  1  0  0  0  0
 13 14  1  0  0  0  0
 13 31  1  0  0  0  0
 14 18  1  0  0  0  0
 14 15  1  0  0  0  0
 14 32  1  0  0  0  0
 15 16  1  0  0  0  0
 15 33  1  0  0  0  0
 15 34  1  0  0  0  0
 16 17  1  0  0  0  0
 16 35  1  0  0  0  0
 16 36  1  0  0  0  0
 17 18  1  0  0  0  0
 17 37  1  0  0  0  0
 17 38  1  0  0  0  0
 18 39  1  0  0  0  0
 18 40  1  0  0  0  0
M  CHG  1   5   1
M  END
> <s_m_source_file>
AV-unprocessed.smi

> <i_m_source_file_index>
3309

> <i_lp_mmshare_version>
43012

> <i_f3d_flags>
0

> <s_epik_input>
W0NIMl0xW0NIMl1bQ0gyXVtDSDJdW0NIXTFbTkhdQyg9TylbQ0gyXVtDSDJdW05IXVtDSDJdW0NIMl1uMltjSF1bY0hdW2NIXW4y

> <s_epik_cmdline>
J2VwaWtfcHl0aG9uJywgJy1waCcsICc3LjAnLCAnLXRuJywgJzgnLCAnLW1hJywgJzIwMCcsICctbWV0YWxfYmluZGluZycsICctaW1hZScsICc8aW5maWxlLm1hZT4nLCAnLW9tYWUnLCAnPG91dGZpbGUubWFlPic=

> <r_lp_tautomer_probability>
1

> <r_epik_Ionization_Penalty>
0.00584123

> <r_epik_Ionization_Penalty_Charging>
0.00583842

> <r_epik_Ionization_Penalty_Neutral>
2.81118e-06

> <r_epik_State_Penalty>
-0

> <r_epik_Charging_Adjusted_Penalty>
0.00583842

> <i_epik_Tot_Q>
1

> <i_epik_Tot_abs_Q>
1

> <r_epik_Metal_State_Penalty>
-0

> <b_epik_Metal_Only>
0

> <s_lp_Force_Field>
OPLS_2005

> <r_lp_Energy>
18.8454

> <b_lp_Chiralities_Consistent>
1

> <s_lp_Variant>
AV-unprocessed.smi:3309-1

> <Gold.Version>
5.8.1

> <Gold.Id.Protein>
6NUR|6NUR_protein|mol2

> <Gold.PLP.Fitness>
48.1065

> <Gold.PLP.PLP>
-37.0331

> <Gold.PLP.part.hbond>
-2.0000

> <Gold.PLP.part.metal>
0.0000

> <Gold.PLP.part.buried>
-3.4765

> <Gold.PLP.part.nonpolar>
-32.5019

> <Gold.PLP.part.repulsive>
0.9376

> <Gold.PLP.ligand.clash>
0.0000

> <Gold.PLP.ligand.torsion>
0.4967

> <Gold.PLP.Chemscore.Hbond>
1.9920

> <Gold.PLP.Chemscore.CHOScore>
2.0000

> <Gold.PLP.Chemscore.Metal>
0.0000

> <Gold.Chemscore.Hbonds>
donor molecule, donor type, donor heavy atom, donor atom, acceptor molecule, acceptor atom, score
      L1  C     9    28       P1 10957  0.95
      L1  C    11    30       P1 10747  1.00

> <Gold.PLP.Chemscore.Internal.Correction>
0.0907

> <Gold.Rescore>
     Score         DG    S(hbond)    S(metal)    S(lipo)     H(rot)  DE(clash)    DE(int)     intcor
     13.67     -14.56       1.85        0.00      74.46       2.27       0.31       0.58       ----

> <Gold.Chemscore.Fitness>
13.6685

> <Gold.Chemscore.DG>
-14.5578

> <Gold.Chemscore.ZeroCoef>
-5.4800

> <Gold.Chemscore.Hbond>
1.8464

> <Gold.Chemscore.Metal>
0.0000

> <Gold.Chemscore.Lipo>
74.4568

> <Gold.Chemscore.Internal_Hbond>
0.0000

> <Gold.Chemscore.DEClash>
0.3127

> <Gold.Chemscore.DEInternal>
0.5765

> <Gold.Chemscore.Rot>
2.2658

> <Gold.Chemscore.Internal.Correction>
   9.000000E+99

> <Gold.Chemscore.Hbonds>
donor molecule, donor type, donor heavy atom, donor atom, acceptor molecule, acceptor atom, score
      L1  H     5    41       P1 10171  0.04

> <Gold.Chemscore.Hbond.Weighted>
-6.1668

> <Gold.Chemscore.Metal.Weighted>
-0.0000

> <Gold.Chemscore.Lipo.Weighted>
-8.7114

> <Gold.Chemscore.Internal_Hbond.Weighted>
0.0000

> <Gold.Chemscore.DEClash.Weighted>
0.3127

> <Gold.Chemscore.DEInternal.Weighted>
0.5765

> <Gold.Chemscore.Rot.Weighted>
5.8005

> <Gold.Chemscore.Internal.Correction.Weighted>
   9.000000E+99

> <Gold.Protein.RotatedTorsions>
[ 6907 6896 6895 6894 ] final  -56.64 input  -60.11 | X-H torsion
[ 7974 7965 7964 7962 ] final   25.21 input  175.53 | X-H torsion
[ 8008 7997 7996 7995 ] final  -69.64 input   59.86 | X-H torsion
[ 10167 10162 10161 10158 ] final  -19.30 input  -65.29 | X-H torsion
[ 10718 10713 10712 10709 ] final  139.43 input   66.30 | X-H torsion
[ 10763 10752 10751 10750 ] final   28.72 input  -60.55 | X-H torsion
[ 11005 11000 10999 10996 ] final -126.87 input  -57.11 | X-H torsion

> <Gold.Protein.ActiveResidues>
 VAL166  LYS551  ARG553  GLY616  TRP617  ASP618  TYR619  PRO620  LYS621  CYS622 
 ASP623  PHE694  ASN695  SER759  ASP760  ASP761  ALA762  ILE779  LEU786  VAL792 
 PHE793  MET794  SER795  GLU796  ALA797  LYS798  CYS799  TRP800  GLU811  SER814 

> <Gold.Protein.RotatedAtoms>
  150.8151  134.7328  159.6722 H   0  0  0  0  0  0  0  0  0  0  0  0  # atno 6907 bound_to 6896
  152.4270  134.5847  159.9967 H   0  0  0  0  0  0  0  0  0  0  0  0  # atno 6908 bound_to 6896
  151.6046  133.3316  159.3090 H   0  0  0  0  0  0  0  0  0  0  0  0  # atno 6909 bound_to 6896
  146.1900  139.7497  142.8839 H   0  0  0  0  0  0  0  0  0  0  0  0  # atno 7974 bound_to 7965
  154.4954  140.0849  156.7684 H   0  0  0  0  0  0  0  0  0  0  0  0  # atno 8008 bound_to 7997
  155.4130  140.3442  155.4247 H   0  0  0  0  0  0  0  0  0  0  0  0  # atno 8009 bound_to 7997
  156.1386  140.1522  156.8944 H   0  0  0  0  0  0  0  0  0  0  0  0  # atno 8010 bound_to 7997
  140.7267  143.4832  151.0089 H   0  0  0  0  0  0  0  0  0  0  0  0  # atno 10167 bound_to 10162
  157.4144  131.1031  151.0420 H   0  0  0  0  0  0  0  0  0  0  0  0  # atno 10718 bound_to 10713
  153.0474  135.6506  154.0782 H   0  0  0  0  0  0  0  0  0  0  0  0  # atno 10763 bound_to 10752
  154.0477  135.2898  155.3347 H   0  0  0  0  0  0  0  0  0  0  0  0  # atno 10764 bound_to 10752
  154.6740  135.5345  153.8242 H   0  0  0  0  0  0  0  0  0  0  0  0  # atno 10765 bound_to 10752
  140.9646  134.0889  157.3933 H   0  0  0  0  0  0  0  0  0  0  0  0  # atno 11005 bound_to 11000
  145.3823  141.0360  143.3170 LP  0  0  0  0  0  0  0  0  0  0  0  0  # atno 17320 bound_to 7965
  144.8468  139.5384  143.6875 LP  0  0  0  0  0  0  0  0  0  0  0  0  # atno 17321 bound_to 7965
  139.8532  143.7411  152.3177 LP  0  0  0  0  0  0  0  0  0  0  0  0  # atno 17342 bound_to 10162
  139.7600  144.7509  151.0378 LP  0  0  0  0  0  0  0  0  0  0  0  0  # atno 17343 bound_to 10162
  157.1372  130.6127  149.5545 LP  0  0  0  0  0  0  0  0  0  0  0  0  # atno 17370 bound_to 10713
  155.9861  130.4893  150.7061 LP  0  0  0  0  0  0  0  0  0  0  0  0  # atno 17371 bound_to 10713
  139.8890  135.0102  156.6653 LP  0  0  0  0  0  0  0  0  0  0  0  0  # atno 17394 bound_to 11000
  140.7418  133.8971  155.8283 LP  0  0  0  0  0  0  0  0  0  0  0  0  # atno 17395 bound_to 11000

$$$$
