AV-unprocessed.smi:2396|AV-procd|sdf|9492|dock5
  -GOLD-   2272013123D 1   1.00000     0.00000
 Structure written by MMmdl.
 32 32  0  0  0  0  0  0  0  0  1 V2000
  150.4851  140.6963  154.8714 C   0  0  0  0  0  0  0  0  0  0  0  0
  150.6125  139.3060  154.2347 C   0  0  0  0  0  0  0  0  0  0  0  0
  150.3479  138.2471  155.2015 N   0  0  0  0  0  0  0  0  0  0  0  0
  151.0844  137.1350  155.3477 C   0  0  0  0  0  0  0  0  0  0  0  0
  152.0787  136.8905  154.6628 O   0  0  0  0  0  0  0  0  0  0  0  0
  150.6194  136.1536  156.4294 C   0  0  0  0  0  0  0  0  0  0  0  0
  150.2450  134.8639  155.8737 N   0  0  0  0  0  0  0  0  0  0  0  0
  149.3792  134.5944  154.8387 C   0  0  0  0  0  0  0  0  0  0  0  0
  149.3325  133.2383  154.6755 C   0  0  0  0  0  0  0  0  0  0  0  0
  148.5007  132.4783  153.6729 C   0  0  0  0  0  0  0  0  0  0  0  0
  147.6020  133.4070  152.8422 C   0  0  0  0  0  0  0  0  0  0  0  0
  147.1386  132.7513  151.6807 O   0  0  0  0  0  0  0  0  0  0  0  0
  150.2334  132.7470  155.6749 C   0  0  0  0  0  0  0  0  0  0  0  0
  150.6162  131.3286  156.0291 C   0  0  0  0  0  0  0  0  0  0  0  0
  150.1484  131.0336  157.2418 F   0  0  0  0  0  0  0  0  0  0  0  0
  150.1294  130.4451  155.1604 F   0  0  0  0  0  0  0  0  0  0  0  0
  151.9443  131.2101  156.0419 F   0  0  0  0  0  0  0  0  0  0  0  0
  150.7685  133.7324  156.3850 N   0  0  0  0  0  0  0  0  0  0  0  0
  150.6556  141.4778  154.1307 H   0  0  0  0  0  0  0  0  0  0  0  0
  151.2127  140.8359  155.6717 H   0  0  0  0  0  0  0  0  0  0  0  0
  149.4903  140.8478  155.2913 H   0  0  0  0  0  0  0  0  0  0  0  0
  149.8955  139.2087  153.4191 H   0  0  0  0  0  0  0  0  0  0  0  0
  151.6025  139.1788  153.7941 H   0  0  0  0  0  0  0  0  0  0  0  0
  149.5451  138.3678  155.8020 H   0  0  0  0  0  0  0  0  0  0  0  0
  151.4114  135.9935  157.1624 H   0  0  0  0  0  0  0  0  0  0  0  0
  149.7690  136.5815  156.9622 H   0  0  0  0  0  0  0  0  0  0  0  0
  148.8633  135.3839  154.3121 H   0  0  0  0  0  0  0  0  0  0  0  0
  149.1580  131.9448  152.9856 H   0  0  0  0  0  0  0  0  0  0  0  0
  147.9021  131.6990  154.1438 H   0  0  0  0  0  0  0  0  0  0  0  0
  146.7563  133.7647  153.4305 H   0  0  0  0  0  0  0  0  0  0  0  0
  148.1679  134.2840  152.5270 H   0  0  0  0  0  0  0  0  0  0  0  0
  147.5401  131.8969  151.6368 H   0  0  0  0  0  0  0  0  0  0  0  0
  1  2  1  0  0  0  0
  1 19  1  0  0  0  0
  1 20  1  0  0  0  0
  1 21  1  0  0  0  0
  2  3  1  0  0  0  0
  2 22  1  0  0  0  0
  2 23  1  0  0  0  0
  3  4  1  0  0  0  0
  3 24  1  0  0  0  0
  4  5  2  0  0  0  0
  4  6  1  0  0  0  0
  6  7  1  0  0  0  0
  6 25  1  0  0  0  0
  6 26  1  0  0  0  0
  7 18  1  0  0  0  0
  7  8  1  0  0  0  0
  8  9  2  0  0  0  0
  8 27  1  0  0  0  0
  9 10  1  0  0  0  0
  9 13  1  0  0  0  0
 10 11  1  0  0  0  0
 10 28  1  0  0  0  0
 10 29  1  0  0  0  0
 11 12  1  0  0  0  0
 11 30  1  0  0  0  0
 11 31  1  0  0  0  0
 12 32  1  0  0  0  0
 13 14  1  0  0  0  0
 13 18  2  0  0  0  0
 14 15  1  0  0  0  0
 14 16  1  0  0  0  0
 14 17  1  0  0  0  0
M  END
> <s_m_source_file>
AV-unprocessed.smi

> <i_m_source_file_index>
2396

> <i_lp_mmshare_version>
43012

> <i_f3d_flags>
0

> <s_epik_input>
W0NIM11bQ0gyXVtOSF1DKD1PKVtDSDJdbjFbY0hdYyhjKG4xKUMoRikoRilGKVtDSDJdW0NIMl1bT0hd

> <s_epik_cmdline>
J2VwaWtfcHl0aG9uJywgJy1waCcsICc3LjAnLCAnLXRuJywgJzgnLCAnLW1hJywgJzIwMCcsICctbWV0YWxfYmluZGluZycsICctaW1hZScsICc8aW5maWxlLm1hZT4nLCAnLW9tYWUnLCAnPG91dGZpbGUubWFlPic=

> <r_lp_tautomer_probability>
1

> <r_epik_Ionization_Penalty>
2.37964e-07

> <r_epik_Ionization_Penalty_Charging>
0

> <r_epik_Ionization_Penalty_Neutral>
2.37964e-07

> <r_epik_State_Penalty>
-0

> <r_epik_Charging_Adjusted_Penalty>
0

> <i_epik_Tot_Q>
0

> <i_epik_Tot_abs_Q>
0

> <r_epik_Metal_State_Penalty>
-0

> <b_epik_Metal_Only>
0

> <s_lp_Force_Field>
OPLS_2005

> <r_lp_Energy>
5.98536

> <b_lp_Chiralities_Consistent>
1

> <s_lp_Variant>
AV-unprocessed.smi:2396-1

> <Gold.Version>
5.8.1

> <Gold.Id.Protein>
6NUR|6NUR_protein|mol2

> <Gold.PLP.Fitness>
40.5027

> <Gold.PLP.PLP>
-32.2663

> <Gold.PLP.part.hbond>
-2.0000

> <Gold.PLP.part.metal>
0.0000

> <Gold.PLP.part.buried>
-2.4978

> <Gold.PLP.part.nonpolar>
-26.6633

> <Gold.PLP.part.repulsive>
0.1550

> <Gold.PLP.ligand.clash>
0.0059

> <Gold.PLP.ligand.torsion>
0.4038

> <Gold.PLP.Chemscore.Hbond>
2.0000

> <Gold.PLP.Chemscore.CHOScore>
1.0000

> <Gold.PLP.Chemscore.Metal>
0.0000

> <Gold.Chemscore.Hbonds>
donor molecule, donor type, donor heavy atom, donor atom, acceptor molecule, acceptor atom, score
      L1  H    12    32       P1 10747  0.35
      P1  H 10752 10764       L1     5  0.99
      L1  C     8    27       P1  7948  0.90

> <Gold.PLP.Chemscore.Internal.Correction>
0.0498

> <Gold.Rescore>
     Score         DG    S(hbond)    S(metal)    S(lipo)     H(rot)  DE(clash)    DE(int)     intcor
      9.65     -11.04       1.97        0.00      54.02       2.86       0.07       1.32       ----

> <Gold.Chemscore.Fitness>
9.6521

> <Gold.Chemscore.DG>
-11.0426

> <Gold.Chemscore.ZeroCoef>
-5.4800

> <Gold.Chemscore.Hbond>
1.9672

> <Gold.Chemscore.Metal>
0.0000

> <Gold.Chemscore.Lipo>
54.0176

> <Gold.Chemscore.Internal_Hbond>
0.0000

> <Gold.Chemscore.DEClash>
0.0706

> <Gold.Chemscore.DEInternal>
1.3200

> <Gold.Chemscore.Rot>
2.8625

> <Gold.Chemscore.Internal.Correction>
   9.000000E+99

> <Gold.Chemscore.Hbonds>
donor molecule, donor type, donor heavy atom, donor atom, acceptor molecule, acceptor atom, score
      L1  H    12    32       P1 10747  0.34
      P1  H 10752 10764       L1     5  0.87

> <Gold.Chemscore.Hbond.Weighted>
-6.5705

> <Gold.Chemscore.Metal.Weighted>
-0.0000

> <Gold.Chemscore.Lipo.Weighted>
-6.3201

> <Gold.Chemscore.Internal_Hbond.Weighted>
0.0000

> <Gold.Chemscore.DEClash.Weighted>
0.0706

> <Gold.Chemscore.DEInternal.Weighted>
1.3200

> <Gold.Chemscore.Rot.Weighted>
7.3279

> <Gold.Chemscore.Internal.Correction.Weighted>
   9.000000E+99

> <Gold.Protein.RotatedTorsions>
[ 6907 6896 6895 6894 ] final -153.68 input  -60.11 | X-H torsion
[ 7974 7965 7964 7962 ] final   28.59 input  175.53 | X-H torsion
[ 8008 7997 7996 7995 ] final  138.20 input   59.86 | X-H torsion
[ 10167 10162 10161 10158 ] final   87.71 input  -65.29 | X-H torsion
[ 10718 10713 10712 10709 ] final  117.28 input   66.30 | X-H torsion
[ 10763 10752 10751 10750 ] final  -71.56 input  -60.55 | X-H torsion
[ 11005 11000 10999 10996 ] final -161.65 input  -57.11 | X-H torsion

> <Gold.Protein.ActiveResidues>
 VAL166  LYS551  ARG553  GLY616  TRP617  ASP618  TYR619  PRO620  LYS621  CYS622 
 ASP623  PHE694  ASN695  SER759  ASP760  ASP761  ALA762  ILE779  LEU786  VAL792 
 PHE793  MET794  SER795  GLU796  ALA797  LYS798  CYS799  TRP800  GLU811  SER814 

> <Gold.Protein.RotatedAtoms>
  151.2461  133.4374  159.2609 H   0  0  0  0  0  0  0  0  0  0  0  0  # atno 6907 bound_to 6896
  151.0660  134.9768  159.8295 H   0  0  0  0  0  0  0  0  0  0  0  0  # atno 6908 bound_to 6896
  152.5405  134.2409  159.8914 H   0  0  0  0  0  0  0  0  0  0  0  0  # atno 6909 bound_to 6896
  146.1720  139.7035  142.8961 H   0  0  0  0  0  0  0  0  0  0  0  0  # atno 7974 bound_to 7965
  156.2998  140.2400  156.4034 H   0  0  0  0  0  0  0  0  0  0  0  0  # atno 8008 bound_to 7997
  154.8506  140.0424  157.1622 H   0  0  0  0  0  0  0  0  0  0  0  0  # atno 8009 bound_to 7997
  154.9002  140.2976  155.5325 H   0  0  0  0  0  0  0  0  0  0  0  0  # atno 8010 bound_to 7997
  139.8746  144.6474  150.8910 H   0  0  0  0  0  0  0  0  0  0  0  0  # atno 10167 bound_to 10162
  157.6106  131.1035  150.7592 H   0  0  0  0  0  0  0  0  0  0  0  0  # atno 10718 bound_to 10713
  154.4334  135.5958  153.6083 H   0  0  0  0  0  0  0  0  0  0  0  0  # atno 10763 bound_to 10752
  152.9800  135.5980  154.3811 H   0  0  0  0  0  0  0  0  0  0  0  0  # atno 10764 bound_to 10752
  154.3652  135.2841  155.2276 H   0  0  0  0  0  0  0  0  0  0  0  0  # atno 10765 bound_to 10752
  140.6180  134.4780  157.5221 H   0  0  0  0  0  0  0  0  0  0  0  0  # atno 11005 bound_to 11000
  145.4315  141.0415  143.2908 LP  0  0  0  0  0  0  0  0  0  0  0  0  # atno 17320 bound_to 7965
  144.8177  139.5847  143.7001 LP  0  0  0  0  0  0  0  0  0  0  0  0  # atno 17321 bound_to 7965
  140.7755  143.3635  151.1783 LP  0  0  0  0  0  0  0  0  0  0  0  0  # atno 17342 bound_to 10162
  139.7252  143.9160  152.3000 LP  0  0  0  0  0  0  0  0  0  0  0  0  # atno 17343 bound_to 10162
  156.7971  130.4909  149.5375 LP  0  0  0  0  0  0  0  0  0  0  0  0  # atno 17370 bound_to 10713
  156.1208  130.6108  151.0191 LP  0  0  0  0  0  0  0  0  0  0  0  0  # atno 17371 bound_to 10713
  139.9165  134.8236  156.1350 LP  0  0  0  0  0  0  0  0  0  0  0  0  # atno 17394 bound_to 11000
  141.0762  133.6774  156.2242 LP  0  0  0  0  0  0  0  0  0  0  0  0  # atno 17395 bound_to 11000

$$$$
