AV-unprocessed.smi:1443|AV-procd|sdf|5877|dock2
  -GOLD-   22720 5553D 1   1.00000     0.00000
 Structure written by MMmdl.
 27 28  0  0  0  0  0  0  0  0  1 V2000
  153.6466  138.7548  159.2517 C   0  0  0  0  0  0  0  0  0  0  0  0
  154.1777  137.6846  157.8864 S   0  0  0  0  0  0  0  0  0  0  0  0
  152.9515  137.8576  156.6304 C   0  0  0  0  0  0  0  0  0  0  0  0
  152.7198  139.0526  156.0574 N   0  0  0  0  0  0  0  0  0  0  0  0
  151.4927  138.8699  154.9084 S   0  0  0  0  0  0  0  0  0  0  0  0
  151.3631  137.1741  155.2716 C   0  0  0  0  0  0  0  0  0  0  0  0
  150.4315  136.3182  154.6147 N   0  0  0  0  0  0  0  0  0  0  0  0
  149.8514  135.1650  155.0123 C   0  0  0  0  0  0  0  0  0  0  0  0
  150.0966  134.6792  156.1153 O   0  0  0  0  0  0  0  0  0  0  0  0
  149.0042  134.5995  154.1380 N   0  0  0  0  0  0  0  0  0  0  0  0
  148.2775  133.3892  154.3340 C   0  0  2  0  0  0  0  0  0  0  0  0
  149.0936  132.1354  154.5605 C   0  0  0  0  0  0  0  0  0  0  0  0
  148.3689  132.3281  153.2557 C   0  0  1  0  0  0  0  0  0  0  0  0
  147.1784  131.4577  152.9168 C   0  0  0  0  0  0  0  0  0  0  0  0
  152.2229  136.8046  156.2208 N   0  0  0  0  0  0  0  0  0  0  0  0
  154.3669  138.7074  160.0683 H   0  0  0  0  0  0  0  0  0  0  0  0
  152.6742  138.4375  159.6291 H   0  0  0  0  0  0  0  0  0  0  0  0
  153.5695  139.7899  158.9183 H   0  0  0  0  0  0  0  0  0  0  0  0
  150.1521  136.6321  153.6967 H   0  0  0  0  0  0  0  0  0  0  0  0
  148.8644  135.0718  153.2561 H   0  0  0  0  0  0  0  0  0  0  0  0
  147.3365  133.4516  154.8792 H   0  0  0  0  0  0  0  0  0  0  0  0
  150.1787  132.2230  154.5466 H   0  0  0  0  0  0  0  0  0  0  0  0
  148.6971  131.4012  155.2592 H   0  0  0  0  0  0  0  0  0  0  0  0
  148.9927  132.5670  152.3960 H   0  0  0  0  0  0  0  0  0  0  0  0
  146.5877  131.2435  153.8081 H   0  0  0  0  0  0  0  0  0  0  0  0
  147.5150  130.5144  152.4868 H   0  0  0  0  0  0  0  0  0  0  0  0
  146.5412  131.9634  152.1911 H   0  0  0  0  0  0  0  0  0  0  0  0
  1  2  1  0  0  0  0
  1 16  1  0  0  0  0
  1 17  1  0  0  0  0
  1 18  1  0  0  0  0
  2  3  1  0  0  0  0
  3 15  1  0  0  0  0
  3  4  2  0  0  0  0
  4  5  1  0  0  0  0
  5  6  1  0  0  0  0
  6  7  1  0  0  0  0
  6 15  2  0  0  0  0
  7  8  1  0  0  0  0
  7 19  1  0  0  0  0
  8  9  2  0  0  0  0
  8 10  1  0  0  0  0
 10 11  1  0  0  0  0
 10 20  1  0  0  0  0
 11 13  1  0  0  0  0
 11 12  1  0  0  0  0
 11 21  1  0  0  0  0
 12 13  1  0  0  0  0
 12 22  1  0  0  0  0
 12 23  1  0  0  0  0
 13 14  1  0  0  0  0
 13 24  1  0  0  0  0
 14 25  1  0  0  0  0
 14 26  1  0  0  0  0
 14 27  1  0  0  0  0
M  END
> <s_m_source_file>
AV-unprocessed.smi

> <i_m_source_file_index>
1443

> <i_lp_mmshare_version>
43012

> <i_f3d_flags>
0

> <s_epik_input>
W0NIM11TYzFuc2MobjEpW05IXUMoPU8pW05IXVtDQEBIXTJbQ0gyXVtDQEhdMltDSDNd

> <s_epik_cmdline>
J2VwaWtfcHl0aG9uJywgJy1waCcsICc3LjAnLCAnLXRuJywgJzgnLCAnLW1hJywgJzIwMCcsICctbWV0YWxfYmluZGluZycsICctaW1hZScsICc8aW5maWxlLm1hZT4nLCAnLW9tYWUnLCAnPG91dGZpbGUubWFlPic=

> <r_lp_tautomer_probability>
1

> <r_epik_Ionization_Penalty>
2.74658e-05

> <r_epik_Ionization_Penalty_Charging>
0

> <r_epik_Ionization_Penalty_Neutral>
2.74658e-05

> <r_epik_State_Penalty>
-0

> <r_epik_Charging_Adjusted_Penalty>
0

> <i_epik_Tot_Q>
0

> <i_epik_Tot_abs_Q>
0

> <r_epik_Metal_State_Penalty>
-0

> <b_epik_Metal_Only>
0

> <s_lp_Force_Field>
OPLS_2005

> <r_lp_Energy>
20.7527

> <b_lp_Chiralities_Consistent>
1

> <s_lp_Variant>
AV-unprocessed.smi:1443-1

> <Gold.Version>
5.8.1

> <Gold.Id.Protein>
6NUR|6NUR_protein|mol2

> <Gold.PLP.Fitness>
33.7522

> <Gold.PLP.PLP>
-22.6650

> <Gold.PLP.part.hbond>
-4.6879

> <Gold.PLP.part.metal>
0.0000

> <Gold.PLP.part.buried>
-2.2436

> <Gold.PLP.part.nonpolar>
-16.7244

> <Gold.PLP.part.repulsive>
0.1077

> <Gold.PLP.ligand.clash>
0.0000

> <Gold.PLP.ligand.torsion>
0.1784

> <Gold.PLP.Chemscore.Hbond>
3.8024

> <Gold.PLP.Chemscore.CHOScore>
0.0000

> <Gold.PLP.Chemscore.Metal>
0.0000

> <Gold.Chemscore.Hbonds>
donor molecule, donor type, donor heavy atom, donor atom, acceptor molecule, acceptor atom, score
      L1  H     7    19       P1  7948  0.47
      L1  H    10    20       P1  7948  1.00
      P1  H  7997  8008       L1     4  1.00
      P1  H 10752 10763       L1    15  0.80

> <Gold.PLP.Chemscore.Internal.Correction>
0.0368

> <Gold.Rescore>
     Score         DG    S(hbond)    S(metal)    S(lipo)     H(rot)  DE(clash)    DE(int)     intcor
     13.02     -14.27       2.37        0.00      35.24       1.27       0.00       1.25       ----

> <Gold.Chemscore.Fitness>
13.0184

> <Gold.Chemscore.DG>
-14.2672

> <Gold.Chemscore.ZeroCoef>
-5.4800

> <Gold.Chemscore.Hbond>
2.3697

> <Gold.Chemscore.Metal>
0.0000

> <Gold.Chemscore.Lipo>
35.2423

> <Gold.Chemscore.Internal_Hbond>
0.0000

> <Gold.Chemscore.DEClash>
0.0000

> <Gold.Chemscore.DEInternal>
1.2488

> <Gold.Chemscore.Rot>
1.2699

> <Gold.Chemscore.Internal.Correction>
   9.000000E+99

> <Gold.Chemscore.Hbonds>
donor molecule, donor type, donor heavy atom, donor atom, acceptor molecule, acceptor atom, score
      L1  H     7    19       P1  7948  0.07
      L1  H    10    20       P1  7948  0.45
      P1  H  7997  8008       L1     4  0.64
      P1  H 10752 10763       L1    15  0.10

> <Gold.Chemscore.Hbond.Weighted>
-7.9147

> <Gold.Chemscore.Metal.Weighted>
-0.0000

> <Gold.Chemscore.Lipo.Weighted>
-4.1234

> <Gold.Chemscore.Internal_Hbond.Weighted>
0.0000

> <Gold.Chemscore.DEClash.Weighted>
0.0000

> <Gold.Chemscore.DEInternal.Weighted>
1.2488

> <Gold.Chemscore.Rot.Weighted>
3.2509

> <Gold.Chemscore.Internal.Correction.Weighted>
   9.000000E+99

> <Gold.Protein.RotatedTorsions>
[ 6907 6896 6895 6894 ] final   72.84 input  -60.11 | X-H torsion
[ 7974 7965 7964 7962 ] final -153.38 input  175.53 | X-H torsion
[ 8008 7997 7996 7995 ] final  -33.97 input   59.86 | X-H torsion
[ 10167 10162 10161 10158 ] final   47.89 input  -65.29 | X-H torsion
[ 10718 10713 10712 10709 ] final  -79.20 input   66.30 | X-H torsion
[ 10763 10752 10751 10750 ] final   95.22 input  -60.55 | X-H torsion
[ 11005 11000 10999 10996 ] final -117.73 input  -57.11 | X-H torsion

> <Gold.Protein.ActiveResidues>
 VAL166  LYS551  ARG553  GLY616  TRP617  ASP618  TYR619  PRO620  LYS621  CYS622 
 ASP623  PHE694  ASN695  SER759  ASP760  ASP761  ALA762  ILE779  LEU786  VAL792 
 PHE793  MET794  SER795  GLU796  ALA797  LYS798  CYS799  TRP800  GLU811  SER814 

> <Gold.Protein.RotatedAtoms>
  152.4890  134.4511  159.9574 H   0  0  0  0  0  0  0  0  0  0  0  0  # atno 6907 bound_to 6896
  151.4502  133.3613  159.2802 H   0  0  0  0  0  0  0  0  0  0  0  0  # atno 6908 bound_to 6896
  150.9027  134.8464  159.7431 H   0  0  0  0  0  0  0  0  0  0  0  0  # atno 6909 bound_to 6896
  144.7744  140.4534  143.5884 H   0  0  0  0  0  0  0  0  0  0  0  0  # atno 7974 bound_to 7965
  154.4134  140.1696  156.1973 H   0  0  0  0  0  0  0  0  0  0  0  0  # atno 8008 bound_to 7997
  155.9553  140.3398  155.6420 H   0  0  0  0  0  0  0  0  0  0  0  0  # atno 8009 bound_to 7997
  155.6818  140.0723  157.2472 H   0  0  0  0  0  0  0  0  0  0  0  0  # atno 8010 bound_to 7997
  140.2989  144.2957  150.6223 H   0  0  0  0  0  0  0  0  0  0  0  0  # atno 10167 bound_to 10162
  156.0098  130.4539  150.3612 H   0  0  0  0  0  0  0  0  0  0  0  0  # atno 10718 bound_to 10713
  153.2506  135.4262  155.0794 H   0  0  0  0  0  0  0  0  0  0  0  0  # atno 10763 bound_to 10752
  154.8380  135.3425  154.6518 H   0  0  0  0  0  0  0  0  0  0  0  0  # atno 10764 bound_to 10752
  153.6939  135.7032  153.5139 H   0  0  0  0  0  0  0  0  0  0  0  0  # atno 10765 bound_to 10752
  141.0334  133.9946  157.3108 H   0  0  0  0  0  0  0  0  0  0  0  0  # atno 11005 bound_to 11000
  145.6229  139.1526  143.3012 LP  0  0  0  0  0  0  0  0  0  0  0  0  # atno 17320 bound_to 7965
  146.1913  140.6338  142.9144 LP  0  0  0  0  0  0  0  0  0  0  0  0  # atno 17321 bound_to 7965
  140.5668  143.2185  151.7670 LP  0  0  0  0  0  0  0  0  0  0  0  0  # atno 17342 bound_to 10162
  139.4919  144.4273  151.9912 LP  0  0  0  0  0  0  0  0  0  0  0  0  # atno 17343 bound_to 10162
  157.1701  131.0366  151.2799 LP  0  0  0  0  0  0  0  0  0  0  0  0  # atno 17370 bound_to 10713
  157.4236  130.7451  149.6933 LP  0  0  0  0  0  0  0  0  0  0  0  0  # atno 17371 bound_to 10713
  139.9224  135.0201  156.8112 LP  0  0  0  0  0  0  0  0  0  0  0  0  # atno 17394 bound_to 11000
  140.6365  133.9857  155.7687 LP  0  0  0  0  0  0  0  0  0  0  0  0  # atno 17395 bound_to 11000

$$$$
