AV-unprocessed.smi:2252|AV-procd|sdf|9109|dock6
  -GOLD-   2272012313D 1   1.00000     0.00000
 Structure written by MMmdl.
 45 47  0  0  0  0  0  0  0  0  4 V2000
  152.5380  141.1974  159.9423 C   0  0  0  0  0  0  0  0  0  0  0  0
  152.3040  142.3903  159.1246 N   0  0  0  0  0  0  0  0  0  0  0  0
  152.9590  143.5904  159.2315 C   0  0  0  0  0  0  0  0  0  0  0  0
  152.4219  144.4182  158.2810 C   0  0  0  0  0  0  0  0  0  0  0  0
  151.4623  143.6902  157.6325 N   0  3  0  0  0  0  0  0  0  0  0  0
  151.3890  142.4520  158.1397 C   0  0  0  0  0  0  0  0  0  0  0  0
  150.4506  141.3739  157.6736 C   0  0  0  0  0  0  0  0  0  0  0  0
  150.2554  141.3272  156.1459 C   0  0  0  0  0  0  0  0  0  0  0  0
  149.3134  140.2657  155.8077 N   0  5  0  0  0  0  0  0  0  0  0  0
  149.5988  139.2364  154.9641 C   0  0  0  0  0  0  0  0  0  0  0  0
  150.4641  139.1359  154.0873 O   0  0  0  0  0  0  0  0  0  0  0  0
  148.6488  138.0452  155.1905 C   0  0  2  0  0  0  0  0  0  0  0  0
  149.4795  136.8214  155.6351 C   0  0  0  0  0  0  0  0  0  0  0  0
  150.8175  136.9866  156.3225 C   0  0  0  0  0  0  0  0  0  0  0  0
  150.7587  136.4531  154.9143 C   0  0  0  0  0  0  0  0  0  0  0  0
  147.8527  137.7505  153.9672 N   0  3  0  0  0  0  0  0  0  0  0  0
  146.6748  136.8755  154.1719 C   0  0  0  0  0  0  0  0  0  0  0  0
  145.6421  137.2552  153.0999 C   0  0  0  0  0  0  0  0  0  0  0  0
  146.2845  138.3867  152.2982 C   0  0  0  0  0  0  0  0  0  0  0  0
  147.3600  138.9336  153.2301 C   0  0  0  0  0  0  0  0  0  0  0  0
  153.3395  141.3940  160.6549 H   0  0  0  0  0  0  0  0  0  0  0  0
  152.8261  140.3662  159.2981 H   0  0  0  0  0  0  0  0  0  0  0  0
  151.6266  140.9466  160.4857 H   0  0  0  0  0  0  0  0  0  0  0  0
  153.7394  143.7627  159.9585 H   0  0  0  0  0  0  0  0  0  0  0  0
  152.6442  145.4436  158.0239 H   0  0  0  0  0  0  0  0  0  0  0  0
  150.8327  140.4237  158.0474 H   0  0  0  0  0  0  0  0  0  0  0  0
  149.4987  141.5523  158.1761 H   0  0  0  0  0  0  0  0  0  0  0  0
  149.8969  142.2980  155.8028 H   0  0  0  0  0  0  0  0  0  0  0  0
  151.2304  141.1876  155.6768 H   0  0  0  0  0  0  0  0  0  0  0  0
  147.9378  138.2805  155.9867 H   0  0  0  0  0  0  0  0  0  0  0  0
  148.8746  135.9764  155.9597 H   0  0  0  0  0  0  0  0  0  0  0  0
  151.2014  137.9956  156.4571 H   0  0  0  0  0  0  0  0  0  0  0  0
  151.0633  136.2847  157.1167 H   0  0  0  0  0  0  0  0  0  0  0  0
  150.9633  135.3947  154.7667 H   0  0  0  0  0  0  0  0  0  0  0  0
  151.0977  137.1096  154.1152 H   0  0  0  0  0  0  0  0  0  0  0  0
  146.9647  135.8263  154.1070 H   0  0  0  0  0  0  0  0  0  0  0  0
  146.2435  137.0426  155.1601 H   0  0  0  0  0  0  0  0  0  0  0  0
  145.3852  136.4095  152.4611 H   0  0  0  0  0  0  0  0  0  0  0  0
  144.7225  137.6003  153.5740 H   0  0  0  0  0  0  0  0  0  0  0  0
  146.7514  137.9810  151.3997 H   0  0  0  0  0  0  0  0  0  0  0  0
  145.5675  139.1476  151.9880 H   0  0  0  0  0  0  0  0  0  0  0  0
  146.9195  139.6460  153.9299 H   0  0  0  0  0  0  0  0  0  0  0  0
  148.1549  139.4415  152.6831 H   0  0  0  0  0  0  0  0  0  0  0  0
  148.4652  137.2605  153.3312 H   0  0  0  0  0  0  0  0  0  0  0  0
  150.8895  144.0324  156.8711 H   0  0  0  0  0  0  0  0  0  0  0  0
  1  2  1  0  0  0  0
  1 21  1  0  0  0  0
  1 22  1  0  0  0  0
  1 23  1  0  0  0  0
  2  6  1  0  0  0  0
  2  3  1  0  0  0  0
  3  4  2  0  0  0  0
  3 24  1  0  0  0  0
  4  5  1  0  0  0  0
  4 25  1  0  0  0  0
  5  6  2  0  0  0  0
  5 45  1  0  0  0  0
  6  7  1  0  0  0  0
  7  8  1  0  0  0  0
  7 26  1  0  0  0  0
  7 27  1  0  0  0  0
  8  9  1  0  0  0  0
  8 28  1  0  0  0  0
  8 29  1  0  0  0  0
  9 10  1  0  0  0  0
 10 11  2  0  0  0  0
 10 12  1  0  0  0  0
 12 13  1  0  0  0  0
 12 16  1  0  0  0  0
 12 30  1  0  0  0  0
 13 15  1  0  0  0  0
 13 14  1  0  0  0  0
 13 31  1  0  0  0  0
 14 15  1  0  0  0  0
 14 32  1  0  0  0  0
 14 33  1  0  0  0  0
 15 34  1  0  0  0  0
 15 35  1  0  0  0  0
 16 20  1  0  0  0  0
 16 17  1  0  0  0  0
 16 44  1  0  0  0  0
 17 18  1  0  0  0  0
 17 36  1  0  0  0  0
 17 37  1  0  0  0  0
 18 19  1  0  0  0  0
 18 38  1  0  0  0  0
 18 39  1  0  0  0  0
 19 20  1  0  0  0  0
 19 40  1  0  0  0  0
 19 41  1  0  0  0  0
 20 42  1  0  0  0  0
 20 43  1  0  0  0  0
M  CHG  1   5   1
M  CHG  1   9  -1
M  CHG  1  16   1
M  END
> <s_m_source_file>
AV-unprocessed.smi

> <i_m_source_file_index>
2252

> <i_lp_mmshare_version>
43012

> <i_f3d_flags>
0

> <s_epik_input>
W0NIM11uMVtjSF1bY0hdbmMxW0NIMl1bQ0gyXVtOSF1DKD1PKVtDQEhdKFtDSF0yW0NIMl1bQ0gyXTIpTjNbQ0gyXVtDSDJdW0NIMl1bQ0gyXTM=

> <s_epik_cmdline>
J2VwaWtfcHl0aG9uJywgJy1waCcsICc3LjAnLCAnLXRuJywgJzgnLCAnLW1hJywgJzIwMCcsICctbWV0YWxfYmluZGluZycsICctaW1hZScsICc8aW5maWxlLm1hZT4nLCAnLW9tYWUnLCAnPG91dGZpbGUubWFlPic=

> <r_lp_tautomer_probability>
1

> <r_epik_Ionization_Penalty>
5.88052

> <r_epik_Ionization_Penalty_Charging>
5.85424

> <r_epik_Ionization_Penalty_Neutral>
0.026272

> <r_epik_State_Penalty>
5.94961

> <r_epik_Charging_Adjusted_Penalty>
11.8039

> <i_epik_Tot_Q>
1

> <i_epik_Tot_abs_Q>
3

> <r_epik_Metal_State_Penalty>
2.20001

> <b_epik_Metal_Only>
1

> <s_lp_Force_Field>
OPLS_2005

> <r_lp_Energy>
29.4432

> <b_lp_Chiralities_Consistent>
1

> <s_lp_Variant>
AV-unprocessed.smi:2252-7

> <Gold.Version>
5.8.1

> <Gold.Id.Protein>
6NUR|6NUR_protein|mol2

> <Gold.PLP.Fitness>
49.3898

> <Gold.PLP.PLP>
-35.5593

> <Gold.PLP.part.hbond>
-3.0000

> <Gold.PLP.part.metal>
0.0000

> <Gold.PLP.part.buried>
-3.4070

> <Gold.PLP.part.nonpolar>
-31.0541

> <Gold.PLP.part.repulsive>
1.4361

> <Gold.PLP.ligand.clash>
0.0000

> <Gold.PLP.ligand.torsion>
1.2288

> <Gold.PLP.Chemscore.Hbond>
5.0000

> <Gold.PLP.Chemscore.CHOScore>
0.0000

> <Gold.PLP.Chemscore.Metal>
0.0000

> <Gold.Chemscore.Hbonds>
donor molecule, donor type, donor heavy atom, donor atom, acceptor molecule, acceptor atom, score
      L1  H     5    45       P1  8028  0.06
      L1  H    16    44       P1  7948  2.00
      P1  H  7989  7998       L1    11  0.67

> <Gold.PLP.Chemscore.Internal.Correction>
1.2881

> <Gold.Rescore>
     Score         DG    S(hbond)    S(metal)    S(lipo)     H(rot)  DE(clash)    DE(int)     intcor
     15.80     -19.76       2.85        0.00      83.99       1.98       1.50       2.45       ----

> <Gold.Chemscore.Fitness>
15.8045

> <Gold.Chemscore.DG>
-19.7570

> <Gold.Chemscore.ZeroCoef>
-5.4800

> <Gold.Chemscore.Hbond>
2.8506

> <Gold.Chemscore.Metal>
0.0000

> <Gold.Chemscore.Lipo>
83.9910

> <Gold.Chemscore.Internal_Hbond>
0.0000

> <Gold.Chemscore.DEClash>
1.5026

> <Gold.Chemscore.DEInternal>
2.4499

> <Gold.Chemscore.Rot>
1.9809

> <Gold.Chemscore.Internal.Correction>
   9.000000E+99

> <Gold.Chemscore.Hbonds>
donor molecule, donor type, donor heavy atom, donor atom, acceptor molecule, acceptor atom, score
      L1  H     5    45       P1  8028  0.09
      L1  H    16    44       P1  7948  0.99
      P1  H  7989  7998       L1    11  0.65

> <Gold.Chemscore.Hbond.Weighted>
-9.5211

> <Gold.Chemscore.Metal.Weighted>
-0.0000

> <Gold.Chemscore.Lipo.Weighted>
-9.8269

> <Gold.Chemscore.Internal_Hbond.Weighted>
0.0000

> <Gold.Chemscore.DEClash.Weighted>
1.5026

> <Gold.Chemscore.DEInternal.Weighted>
2.4499

> <Gold.Chemscore.Rot.Weighted>
5.0711

> <Gold.Chemscore.Internal.Correction.Weighted>
   9.000000E+99

> <Gold.Protein.RotatedTorsions>
[ 6907 6896 6895 6894 ] final  143.96 input  -60.11 | X-H torsion
[ 7974 7965 7964 7962 ] final  162.37 input  175.53 | X-H torsion
[ 8008 7997 7996 7995 ] final  129.66 input   59.86 | X-H torsion
[ 10167 10162 10161 10158 ] final   79.98 input  -65.29 | X-H torsion
[ 10718 10713 10712 10709 ] final   26.60 input   66.30 | X-H torsion
[ 10763 10752 10751 10750 ] final   70.27 input  -60.55 | X-H torsion
[ 11005 11000 10999 10996 ] final  -58.97 input  -57.11 | X-H torsion

> <Gold.Protein.ActiveResidues>
 VAL166  LYS551  ARG553  GLY616  TRP617  ASP618  TYR619  PRO620  LYS621  CYS622 
 ASP623  PHE694  ASN695  SER759  ASP760  ASP761  ALA762  ILE779  LEU786  VAL792 
 PHE793  MET794  SER795  GLU796  ALA797  LYS798  CYS799  TRP800  GLU811  SER814 

> <Gold.Protein.RotatedAtoms>
  152.1997  133.4832  159.5051 H   0  0  0  0  0  0  0  0  0  0  0  0  # atno 6907 bound_to 6896
  150.6967  134.1607  159.4184 H   0  0  0  0  0  0  0  0  0  0  0  0  # atno 6908 bound_to 6896
  151.9524  135.0162  160.0593 H   0  0  0  0  0  0  0  0  0  0  0  0  # atno 6909 bound_to 6896
  144.7640  139.8030  143.6322 H   0  0  0  0  0  0  0  0  0  0  0  0  # atno 7974 bound_to 7965
  156.2940  140.2615  156.2635 H   0  0  0  0  0  0  0  0  0  0  0  0  # atno 8008 bound_to 7997
  154.9765  140.0390  157.2276 H   0  0  0  0  0  0  0  0  0  0  0  0  # atno 8009 bound_to 7997
  154.7811  140.2795  155.6068 H   0  0  0  0  0  0  0  0  0  0  0  0  # atno 8010 bound_to 7997
  139.9546  144.6002  150.8128 H   0  0  0  0  0  0  0  0  0  0  0  0  # atno 10167 bound_to 10162
  157.2090  130.6925  149.6220 H   0  0  0  0  0  0  0  0  0  0  0  0  # atno 10718 bound_to 10713
  153.0332  135.5180  154.7416 H   0  0  0  0  0  0  0  0  0  0  0  0  # atno 10763 bound_to 10752
  154.6414  135.2913  155.0101 H   0  0  0  0  0  0  0  0  0  0  0  0  # atno 10764 bound_to 10752
  154.1018  135.6635  153.4922 H   0  0  0  0  0  0  0  0  0  0  0  0  # atno 10765 bound_to 10752
  141.1229  133.6614  156.5001 H   0  0  0  0  0  0  0  0  0  0  0  0  # atno 11005 bound_to 11000
  146.1730  139.4888  142.9915 LP  0  0  0  0  0  0  0  0  0  0  0  0  # atno 17320 bound_to 7965
  145.6529  141.0259  143.1750 LP  0  0  0  0  0  0  0  0  0  0  0  0  # atno 17321 bound_to 7965
  140.7572  143.3082  151.2910 LP  0  0  0  0  0  0  0  0  0  0  0  0  # atno 17342 bound_to 10162
  139.6601  144.0204  152.2687 LP  0  0  0  0  0  0  0  0  0  0  0  0  # atno 17343 bound_to 10162
  155.9692  130.4557  150.5899 LP  0  0  0  0  0  0  0  0  0  0  0  0  # atno 17370 bound_to 10713
  157.3692  131.0762  151.1572 LP  0  0  0  0  0  0  0  0  0  0  0  0  # atno 17371 bound_to 10713
  140.4453  134.6978  157.5012 LP  0  0  0  0  0  0  0  0  0  0  0  0  # atno 17394 bound_to 11000
  140.0202  134.6559  155.9251 LP  0  0  0  0  0  0  0  0  0  0  0  0  # atno 17395 bound_to 11000

$$$$
