AV-unprocessed.smi:843|AV-procd|sdf|3922|dock2
  -GOLD-   22720 1383D 1   1.00000     0.00000
 Structure written by MMmdl.
 46 47  0  0  0  0  0  0  0  0  2 V2000
  144.8547  137.5020  152.8117 C   0  0  0  0  0  0  0  0  0  0  0  0
  145.3352  138.0783  154.1519 C   0  0  0  0  0  0  0  0  0  0  0  0
  145.8289  139.4739  154.0333 N   0  3  2  0  0  0  0  0  0  0  0  0
  146.8657  139.6099  152.9772 C   0  0  0  0  0  0  0  0  0  0  0  0
  147.2854  141.0793  152.7834 C   0  0  0  0  0  0  0  0  0  0  0  0
  147.7684  141.7270  154.0946 C   0  0  2  0  0  0  0  0  0  0  0  0
  149.1737  141.2281  154.5079 C   0  0  0  0  0  0  0  0  0  0  0  0
  149.6578  141.8747  155.7246 N   0  0  0  0  0  0  0  0  0  0  0  0
  150.6467  141.4196  156.5078 C   0  0  0  0  0  0  0  0  0  0  0  0
  151.2753  140.3880  156.2735 O   0  0  0  0  0  0  0  0  0  0  0  0
  150.8469  142.2357  157.5567 N   0  0  0  0  0  0  0  0  0  0  0  0
  151.7621  142.1029  158.6388 C   0  0  0  0  0  0  0  0  0  0  0  0
  152.4887  140.9206  158.9240 C   0  0  0  0  0  0  0  0  0  0  0  0
  153.3542  140.9006  160.0330 C   0  0  0  0  0  0  0  0  0  0  0  0
  153.4588  142.0592  160.8232 C   0  0  0  0  0  0  0  0  0  0  0  0
  152.7649  143.1881  160.5726 N   0  0  0  0  0  0  0  0  0  0  0  0
  151.9294  143.2100  159.5040 C   0  0  0  0  0  0  0  0  0  0  0  0
  151.2130  144.3655  159.2553 O   0  0  0  0  0  0  0  0  0  0  0  0
  151.3796  145.4715  160.1359 C   0  0  0  0  0  0  0  0  0  0  0  0
  146.6770  141.5279  155.1666 C   0  0  0  0  0  0  0  0  0  0  0  0
  146.2851  140.0487  155.3264 C   0  0  0  0  0  0  0  0  0  0  0  0
  144.6075  136.4454  152.9173 H   0  0  0  0  0  0  0  0  0  0  0  0
  145.6272  137.5843  152.0466 H   0  0  0  0  0  0  0  0  0  0  0  0
  143.9601  138.0044  152.4452 H   0  0  0  0  0  0  0  0  0  0  0  0
  144.5436  138.0231  154.9006 H   0  0  0  0  0  0  0  0  0  0  0  0
  146.1461  137.4439  154.5122 H   0  0  0  0  0  0  0  0  0  0  0  0
  147.7294  138.9938  153.2306 H   0  0  0  0  0  0  0  0  0  0  0  0
  146.4768  139.2268  152.0331 H   0  0  0  0  0  0  0  0  0  0  0  0
  148.0598  141.1492  152.0187 H   0  0  0  0  0  0  0  0  0  0  0  0
  146.4334  141.6422  152.3997 H   0  0  0  0  0  0  0  0  0  0  0  0
  147.8586  142.7993  153.9139 H   0  0  0  0  0  0  0  0  0  0  0  0
  149.1936  140.1428  154.6129 H   0  0  0  0  0  0  0  0  0  0  0  0
  149.8868  141.4605  153.7164 H   0  0  0  0  0  0  0  0  0  0  0  0
  149.2017  142.7349  155.9922 H   0  0  0  0  0  0  0  0  0  0  0  0
  150.2958  143.0817  157.5688 H   0  0  0  0  0  0  0  0  0  0  0  0
  152.3944  140.0259  158.3297 H   0  0  0  0  0  0  0  0  0  0  0  0
  153.9215  140.0139  160.2748 H   0  0  0  0  0  0  0  0  0  0  0  0
  154.1122  142.0785  161.6828 H   0  0  0  0  0  0  0  0  0  0  0  0
  150.7403  146.2918  159.8099 H   0  0  0  0  0  0  0  0  0  0  0  0
  152.4090  145.8329  160.1324 H   0  0  0  0  0  0  0  0  0  0  0  0
  151.0926  145.2158  161.1570 H   0  0  0  0  0  0  0  0  0  0  0  0
  146.9876  141.9413  156.1255 H   0  0  0  0  0  0  0  0  0  0  0  0
  145.7906  142.0953  154.8796 H   0  0  0  0  0  0  0  0  0  0  0  0
  145.4929  139.9809  156.0707 H   0  0  0  0  0  0  0  0  0  0  0  0
  147.1244  139.4682  155.7108 H   0  0  0  0  0  0  0  0  0  0  0  0
  145.0429  140.0296  153.7275 H   0  0  0  0  0  0  0  0  0  0  0  0
  1  2  1  0  0  0  0
  1 22  1  0  0  0  0
  1 23  1  0  0  0  0
  1 24  1  0  0  0  0
  2  3  1  0  0  0  0
  2 25  1  0  0  0  0
  2 26  1  0  0  0  0
  3 21  1  0  0  0  0
  3  4  1  0  0  0  0
  3 46  1  0  0  0  0
  4  5  1  0  0  0  0
  4 27  1  0  0  0  0
  4 28  1  0  0  0  0
  5  6  1  0  0  0  0
  5 29  1  0  0  0  0
  5 30  1  0  0  0  0
  6  7  1  0  0  0  0
  6 20  1  0  0  0  0
  6 31  1  0  0  0  0
  7  8  1  0  0  0  0
  7 32  1  0  0  0  0
  7 33  1  0  0  0  0
  8  9  1  0  0  0  0
  8 34  1  0  0  0  0
  9 10  2  0  0  0  0
  9 11  1  0  0  0  0
 11 12  1  0  0  0  0
 11 35  1  0  0  0  0
 12 17  1  0  0  0  0
 12 13  2  0  0  0  0
 13 14  1  0  0  0  0
 13 36  1  0  0  0  0
 14 15  2  0  0  0  0
 14 37  1  0  0  0  0
 15 16  1  0  0  0  0
 15 38  1  0  0  0  0
 16 17  2  0  0  0  0
 17 18  1  0  0  0  0
 18 19  1  0  0  0  0
 19 39  1  0  0  0  0
 19 40  1  0  0  0  0
 19 41  1  0  0  0  0
 20 21  1  0  0  0  0
 20 42  1  0  0  0  0
 20 43  1  0  0  0  0
 21 44  1  0  0  0  0
 21 45  1  0  0  0  0
M  CHG  1   3   1
M  END
> <s_m_source_file>
AV-unprocessed.smi

> <i_m_source_file_index>
843

> <i_lp_mmshare_version>
43012

> <i_f3d_flags>
0

> <s_epik_input>
W0NIM11bQ0gyXU4xW0NIMl1bQ0gyXVtDSF0oW0NIMl1bQ0gyXTEpW0NIMl1bTkhdQyg9TylbTkhdYzJbY0hdW2NIXVtjSF1uYzJPW0NIM10=

> <s_epik_cmdline>
J2VwaWtfcHl0aG9uJywgJy1waCcsICc3LjAnLCAnLXRuJywgJzgnLCAnLW1hJywgJzIwMCcsICctbWV0YWxfYmluZGluZycsICctaW1hZScsICc8aW5maWxlLm1hZT4nLCAnLW9tYWUnLCAnPG91dGZpbGUubWFlPic=

> <r_lp_tautomer_probability>
1

> <r_epik_Ionization_Penalty>
0.00115026

> <r_epik_Ionization_Penalty_Charging>
0.00106265

> <r_epik_Ionization_Penalty_Neutral>
8.76119e-05

> <r_epik_State_Penalty>
0.000695551

> <r_epik_Charging_Adjusted_Penalty>
0.0017582

> <i_epik_Tot_Q>
1

> <i_epik_Tot_abs_Q>
1

> <r_epik_Metal_State_Penalty>
-0

> <b_epik_Metal_Only>
0

> <s_lp_Force_Field>
OPLS_2005

> <r_lp_Energy>
22.0854

> <b_lp_Chiralities_Consistent>
1

> <s_lp_Variant>
AV-unprocessed.smi:843-2

> <Gold.Version>
5.8.1

> <Gold.Id.Protein>
6NUR|6NUR_protein|mol2

> <Gold.PLP.Fitness>
47.7540

> <Gold.PLP.PLP>
-39.0313

> <Gold.PLP.part.hbond>
-2.0000

> <Gold.PLP.part.metal>
0.0000

> <Gold.PLP.part.buried>
-5.5530

> <Gold.PLP.part.nonpolar>
-31.8139

> <Gold.PLP.part.repulsive>
0.2662

> <Gold.PLP.ligand.clash>
0.0000

> <Gold.PLP.ligand.torsion>
0.1693

> <Gold.PLP.Chemscore.Hbond>
3.0000

> <Gold.PLP.Chemscore.CHOScore>
0.0000

> <Gold.PLP.Chemscore.Metal>
0.0000

> <Gold.Chemscore.Hbonds>
donor molecule, donor type, donor heavy atom, donor atom, acceptor molecule, acceptor atom, score
      L1  H     3    46       P1 10175  2.00
      L1  H     8    34       P1  8028  0.97

> <Gold.PLP.Chemscore.Internal.Correction>
0.0613

> <Gold.Rescore>
     Score         DG    S(hbond)    S(metal)    S(lipo)     H(rot)  DE(clash)    DE(int)     intcor
     15.91     -17.48       1.79        0.00      87.51       1.65       0.14       1.43       ----

> <Gold.Chemscore.Fitness>
15.9083

> <Gold.Chemscore.DG>
-17.4787

> <Gold.Chemscore.ZeroCoef>
-5.4800

> <Gold.Chemscore.Hbond>
1.7911

> <Gold.Chemscore.Metal>
0.0000

> <Gold.Chemscore.Lipo>
87.5065

> <Gold.Chemscore.Internal_Hbond>
0.0000

> <Gold.Chemscore.DEClash>
0.1414

> <Gold.Chemscore.DEInternal>
1.4290

> <Gold.Chemscore.Rot>
1.6492

> <Gold.Chemscore.Internal.Correction>
   9.000000E+99

> <Gold.Chemscore.Hbonds>
donor molecule, donor type, donor heavy atom, donor atom, acceptor molecule, acceptor atom, score
      L1  H     3    46       P1 10175  0.97
      L1  H     8    34       P1  8028  0.86

> <Gold.Chemscore.Hbond.Weighted>
-5.9823

> <Gold.Chemscore.Metal.Weighted>
-0.0000

> <Gold.Chemscore.Lipo.Weighted>
-10.2383

> <Gold.Chemscore.Internal_Hbond.Weighted>
0.0000

> <Gold.Chemscore.DEClash.Weighted>
0.1414

> <Gold.Chemscore.DEInternal.Weighted>
1.4290

> <Gold.Chemscore.Rot.Weighted>
4.2219

> <Gold.Chemscore.Internal.Correction.Weighted>
   9.000000E+99

> <Gold.Protein.RotatedTorsions>
[ 6907 6896 6895 6894 ] final -113.54 input  -60.11 | X-H torsion
[ 7974 7965 7964 7962 ] final  -73.19 input  175.53 | X-H torsion
[ 8008 7997 7996 7995 ] final  161.64 input   59.86 | X-H torsion
[ 10167 10162 10161 10158 ] final   -8.11 input  -65.29 | X-H torsion
[ 10718 10713 10712 10709 ] final   30.40 input   66.30 | X-H torsion
[ 10763 10752 10751 10750 ] final -147.43 input  -60.55 | X-H torsion
[ 11005 11000 10999 10996 ] final -108.85 input  -57.11 | X-H torsion

> <Gold.Protein.ActiveResidues>
 VAL166  LYS551  ARG553  GLY616  TRP617  ASP618  TYR619  PRO620  LYS621  CYS622 
 ASP623  PHE694  ASN695  SER759  ASP760  ASP761  ALA762  ILE779  LEU786  VAL792 
 PHE793  MET794  SER795  GLU796  ALA797  LYS798  CYS799  TRP800  GLU811  SER814 

> <Gold.Protein.RotatedAtoms>
  150.7837  133.8930  159.3318 H   0  0  0  0  0  0  0  0  0  0  0  0  # atno 6907 bound_to 6896
  151.6786  135.0963  160.0221 H   0  0  0  0  0  0  0  0  0  0  0  0  # atno 6908 bound_to 6896
  152.3895  133.6620  159.6261 H   0  0  0  0  0  0  0  0  0  0  0  0  # atno 6909 bound_to 6896
  145.6554  140.9269  143.0962 H   0  0  0  0  0  0  0  0  0  0  0  0  # atno 7974 bound_to 7965
  156.2089  140.1772  156.7739 H   0  0  0  0  0  0  0  0  0  0  0  0  # atno 8008 bound_to 7997
  154.5694  140.0685  156.8971 H   0  0  0  0  0  0  0  0  0  0  0  0  # atno 8009 bound_to 7997
  155.2701  140.3342  155.4268 H   0  0  0  0  0  0  0  0  0  0  0  0  # atno 8010 bound_to 7997
  140.7049  143.6005  150.8802 H   0  0  0  0  0  0  0  0  0  0  0  0  # atno 10167 bound_to 10162
  157.2591  130.7152  149.6444 H   0  0  0  0  0  0  0  0  0  0  0  0  # atno 10718 bound_to 10713
  154.8286  135.3360  154.6817 H   0  0  0  0  0  0  0  0  0  0  0  0  # atno 10763 bound_to 10752
  153.7440  135.6944  153.4965 H   0  0  0  0  0  0  0  0  0  0  0  0  # atno 10764 bound_to 10752
  153.2223  135.4444  155.0454 H   0  0  0  0  0  0  0  0  0  0  0  0  # atno 10765 bound_to 10752
  141.0879  133.9106  157.2143 H   0  0  0  0  0  0  0  0  0  0  0  0  # atno 11005 bound_to 11000
  144.7107  139.8380  143.7415 LP  0  0  0  0  0  0  0  0  0  0  0  0  # atno 17320 bound_to 7965
  146.1169  139.4181  143.0253 LP  0  0  0  0  0  0  0  0  0  0  0  0  # atno 17321 bound_to 7965
  139.9730  143.6036  152.2967 LP  0  0  0  0  0  0  0  0  0  0  0  0  # atno 17342 bound_to 10162
  139.6629  144.7662  151.1928 LP  0  0  0  0  0  0  0  0  0  0  0  0  # atno 17343 bound_to 10162
  155.9664  130.4403  150.5294 LP  0  0  0  0  0  0  0  0  0  0  0  0  # atno 17370 bound_to 10713
  157.3195  131.0679  151.1942 LP  0  0  0  0  0  0  0  0  0  0  0  0  # atno 17371 bound_to 10713
  139.9700  135.0131  156.9488 LP  0  0  0  0  0  0  0  0  0  0  0  0  # atno 17394 bound_to 11000
  140.5320  134.0804  155.7318 LP  0  0  0  0  0  0  0  0  0  0  0  0  # atno 17395 bound_to 11000

$$$$
