AV-unprocessed.smi:77|AV-procd|sdf|774|dock10
  -GOLD-   2262017123D 1   1.00000     0.00000
 Structure written by MMmdl.
 57 61  0  0  0  0  0  0  0  0  1 V2000
  149.8563  132.0790  159.1407 O   0  0  0  0  0  0  0  0  0  0  0  0
  148.9201  132.2586  159.9213 C   0  0  0  0  0  0  0  0  0  0  0  0
  147.8484  133.3206  159.6414 C   0  0  0  0  0  0  0  0  0  0  0  0
  148.0299  134.5477  160.4278 N   0  0  0  0  0  0  0  0  0  0  0  0
  147.8530  135.7372  159.7849 C   0  0  0  0  0  0  0  0  0  0  0  0
  146.5889  136.2004  159.5855 N   0  0  0  0  0  0  0  0  0  0  0  0
  146.3763  137.3584  158.9556 C   0  0  0  0  0  0  0  0  0  0  0  0
  147.2704  138.2042  158.4441 N   0  0  0  0  0  0  0  0  0  0  0  0
  148.5422  137.7539  158.6363 C   0  0  0  0  0  0  0  0  0  0  0  0
  148.9211  136.5478  159.2948 C   0  0  0  0  0  0  0  0  0  0  0  0
  150.3080  136.4470  159.3142 N   0  0  0  0  0  0  0  0  0  0  0  0
  150.7222  137.5200  158.6998 C   0  0  0  0  0  0  0  0  0  0  0  0
  149.7268  138.3480  158.2344 N   0  0  0  0  0  0  0  0  0  0  0  0
  149.9092  139.6019  157.5229 C   0  0  0  0  0  0  0  0  0  0  0  0
  151.3716  139.9136  157.0955 C   0  0  1  0  0  0  0  0  0  0  0  0
  151.5235  139.6403  155.5791 C   0  0  0  0  0  0  0  0  0  0  0  0
  152.8815  139.6361  155.1893 O   0  0  0  0  0  0  0  0  0  0  0  0
  151.8353  141.3583  157.4525 C   0  0  1  0  0  0  0  0  0  0  0  0
  150.8964  142.4869  157.0490 C   0  0  0  0  0  0  0  0  0  0  0  0
  151.3432  143.6421  157.9371 C   0  0  0  0  0  0  0  0  0  0  0  0
  151.8454  143.0470  159.1252 O   0  0  0  0  0  0  0  0  0  0  0  0
  151.9318  141.6371  158.9592 C   0  0  0  0  0  0  0  0  0  0  0  0
  147.6950  134.4753  161.8498 C   0  0  0  0  0  0  0  0  0  0  0  0
  146.2935  134.0797  162.2598 C   0  0  0  0  0  0  0  0  0  0  0  0
  146.7579  135.5052  162.4383 C   0  0  0  0  0  0  0  0  0  0  0  0
  148.7577  131.5543  161.0503 N   0  0  0  0  0  0  0  0  0  0  0  0
  149.6195  130.5138  161.5100 C   0  0  0  0  0  0  0  0  0  0  0  0
  149.1601  129.6967  162.6982 C   0  0  0  0  0  0  0  0  0  0  0  0
  150.2766  130.6904  162.8617 C   0  0  0  0  0  0  0  0  0  0  0  0
  147.8235  133.5327  158.5714 H   0  0  0  0  0  0  0  0  0  0  0  0
  146.8739  132.8896  159.8765 H   0  0  0  0  0  0  0  0  0  0  0  0
  145.3419  137.6472  158.8440 H   0  0  0  0  0  0  0  0  0  0  0  0
  151.7722  137.7293  158.5566 H   0  0  0  0  0  0  0  0  0  0  0  0
  149.2571  139.5590  156.6503 H   0  0  0  0  0  0  0  0  0  0  0  0
  149.5282  140.4124  158.1451 H   0  0  0  0  0  0  0  0  0  0  0  0
  152.0393  139.2207  157.6083 H   0  0  0  0  0  0  0  0  0  0  0  0
  151.0669  138.6876  155.3084 H   0  0  0  0  0  0  0  0  0  0  0  0
  151.0358  140.4088  154.9815 H   0  0  0  0  0  0  0  0  0  0  0  0
  152.9382  139.3323  154.2962 H   0  0  0  0  0  0  0  0  0  0  0  0
  152.8130  141.5443  157.0050 H   0  0  0  0  0  0  0  0  0  0  0  0
  150.9619  142.7582  155.9970 H   0  0  0  0  0  0  0  0  0  0  0  0
  149.8619  142.2220  157.2721 H   0  0  0  0  0  0  0  0  0  0  0  0
  152.1512  144.1986  157.4612 H   0  0  0  0  0  0  0  0  0  0  0  0
  150.5322  144.3386  158.1512 H   0  0  0  0  0  0  0  0  0  0  0  0
  151.0940  141.1815  159.4892 H   0  0  0  0  0  0  0  0  0  0  0  0
  152.8551  141.2588  159.3986 H   0  0  0  0  0  0  0  0  0  0  0  0
  148.4968  134.1370  162.5041 H   0  0  0  0  0  0  0  0  0  0  0  0
  145.5692  133.8841  161.4715 H   0  0  0  0  0  0  0  0  0  0  0  0
  146.1880  133.4672  163.1526 H   0  0  0  0  0  0  0  0  0  0  0  0
  146.9586  135.8446  163.4524 H   0  0  0  0  0  0  0  0  0  0  0  0
  146.3308  136.2531  161.7738 H   0  0  0  0  0  0  0  0  0  0  0  0
  147.9586  131.7696  161.6287 H   0  0  0  0  0  0  0  0  0  0  0  0
  150.2019  129.9787  160.7610 H   0  0  0  0  0  0  0  0  0  0  0  0
  148.1992  129.9436  163.1460 H   0  0  0  0  0  0  0  0  0  0  0  0
  149.4222  128.6407  162.7129 H   0  0  0  0  0  0  0  0  0  0  0  0
  151.2843  130.2985  162.9837 H   0  0  0  0  0  0  0  0  0  0  0  0
  150.0613  131.6011  163.4174 H   0  0  0  0  0  0  0  0  0  0  0  0
  1  2  2  0  0  0  0
  2  3  1  0  0  0  0
  2 26  1  0  0  0  0
  3  4  1  0  0  0  0
  3 30  1  0  0  0  0
  3 31  1  0  0  0  0
  4  5  1  0  0  0  0
  4 23  1  0  0  0  0
  5 10  1  0  0  0  0
  5  6  2  0  0  0  0
  6  7  1  0  0  0  0
  7  8  2  0  0  0  0
  7 32  1  0  0  0  0
  8  9  1  0  0  0  0
  9 13  1  0  0  0  0
  9 10  2  0  0  0  0
 10 11  1  0  0  0  0
 11 12  2  0  0  0  0
 12 13  1  0  0  0  0
 12 33  1  0  0  0  0
 13 14  1  0  0  0  0
 14 15  1  0  0  0  0
 14 34  1  0  0  0  0
 14 35  1  0  0  0  0
 15 16  1  0  0  0  0
 15 18  1  0  0  0  0
 15 36  1  0  0  0  0
 16 17  1  0  0  0  0
 16 37  1  0  0  0  0
 16 38  1  0  0  0  0
 17 39  1  0  0  0  0
 18 22  1  0  0  0  0
 18 19  1  0  0  0  0
 18 40  1  0  0  0  0
 19 20  1  0  0  0  0
 19 41  1  0  0  0  0
 19 42  1  0  0  0  0
 20 21  1  0  0  0  0
 20 43  1  0  0  0  0
 20 44  1  0  0  0  0
 21 22  1  0  0  0  0
 22 45  1  0  0  0  0
 22 46  1  0  0  0  0
 23 25  1  0  0  0  0
 23 24  1  0  0  0  0
 23 47  1  0  0  0  0
 24 25  1  0  0  0  0
 24 48  1  0  0  0  0
 24 49  1  0  0  0  0
 25 50  1  0  0  0  0
 25 51  1  0  0  0  0
 26 27  1  0  0  0  0
 26 52  1  0  0  0  0
 27 29  1  0  0  0  0
 27 28  1  0  0  0  0
 27 53  1  0  0  0  0
 28 29  1  0  0  0  0
 28 54  1  0  0  0  0
 28 55  1  0  0  0  0
 29 56  1  0  0  0  0
 29 57  1  0  0  0  0
M  END
> <s_m_source_file>
AV-unprocessed.smi

> <i_m_source_file_index>
77

> <i_lp_mmshare_version>
43012

> <i_f3d_flags>
0

> <s_epik_input>
W0NIMl0xW0NIMl1bQ0hdMVtOSF1DKD1PKVtDSDJdTihbQ0hdMltDSDJdW0NIMl0yKWMobltjSF1uMyljKGMzNCluW2NIXW40W0NIMl1bQ0BIXShbQ0gyXVtPSF0pW0NAQEhdNVtDSDJdW0NIMl1PW0NIMl01

> <s_epik_cmdline>
J2VwaWtfcHl0aG9uJywgJy1waCcsICc3LjAnLCAnLXRuJywgJzgnLCAnLW1hJywgJzIwMCcsICctbWV0YWxfYmluZGluZycsICctaW1hZScsICc8aW5maWxlLm1hZT4nLCAnLW9tYWUnLCAnPG91dGZpbGUubWFlPic=

> <r_lp_tautomer_probability>
1

> <r_epik_Ionization_Penalty>
0.000703847

> <r_epik_Ionization_Penalty_Charging>
0

> <r_epik_Ionization_Penalty_Neutral>
0.000703847

> <r_epik_State_Penalty>
0.00034025

> <r_epik_Charging_Adjusted_Penalty>
0.00034025

> <i_epik_Tot_Q>
0

> <i_epik_Tot_abs_Q>
0

> <r_epik_Metal_State_Penalty>
-0

> <b_epik_Metal_Only>
0

> <s_lp_Force_Field>
OPLS_2005

> <r_lp_Energy>
54.3031

> <b_lp_Chiralities_Consistent>
1

> <s_lp_Variant>
AV-unprocessed.smi:77-4

> <Gold.Version>
5.8.1

> <Gold.Id.Protein>
6NUR|6NUR_protein|mol2

> <Gold.PLP.Fitness>
49.1322

> <Gold.PLP.PLP>
-45.5525

> <Gold.PLP.part.hbond>
-5.0000

> <Gold.PLP.part.metal>
0.0000

> <Gold.PLP.part.buried>
-6.8642

> <Gold.PLP.part.nonpolar>
-33.5354

> <Gold.PLP.part.repulsive>
0.0529

> <Gold.PLP.ligand.clash>
0.0000

> <Gold.PLP.ligand.torsion>
3.0841

> <Gold.PLP.Chemscore.Hbond>
2.7160

> <Gold.PLP.Chemscore.CHOScore>
0.0000

> <Gold.PLP.Chemscore.Metal>
0.0000

> <Gold.Chemscore.Hbonds>
donor molecule, donor type, donor heavy atom, donor atom, acceptor molecule, acceptor atom, score
      P1  H  6896  6907       L1     1  0.77
      P1  H  6896  6908       L1    11  1.00
      P1  H  7997  8009       L1    17  1.00

> <Gold.PLP.Chemscore.Internal.Correction>
1.5997

> <Gold.Rescore>
     Score         DG    S(hbond)    S(metal)    S(lipo)     H(rot)  DE(clash)    DE(int)     intcor
     11.97     -16.75       2.60        0.00      98.04       3.47       0.53       4.26       ----

> <Gold.Chemscore.Fitness>
11.9661

> <Gold.Chemscore.DG>
-16.7499

> <Gold.Chemscore.ZeroCoef>
-5.4800

> <Gold.Chemscore.Hbond>
2.5993

> <Gold.Chemscore.Metal>
0.0000

> <Gold.Chemscore.Lipo>
98.0370

> <Gold.Chemscore.Internal_Hbond>
0.0000

> <Gold.Chemscore.DEClash>
0.5267

> <Gold.Chemscore.DEInternal>
4.2571

> <Gold.Chemscore.Rot>
3.4695

> <Gold.Chemscore.Internal.Correction>
   9.000000E+99

> <Gold.Chemscore.Hbonds>
donor molecule, donor type, donor heavy atom, donor atom, acceptor molecule, acceptor atom, score
      P1  H  6896  6907       L1     1  0.59
      P1  H  6896  6908       L1    11  0.99
      P1  H  7997  8009       L1    17  0.93

> <Gold.Chemscore.Hbond.Weighted>
-8.6815

> <Gold.Chemscore.Metal.Weighted>
-0.0000

> <Gold.Chemscore.Lipo.Weighted>
-11.4703

> <Gold.Chemscore.Internal_Hbond.Weighted>
0.0000

> <Gold.Chemscore.DEClash.Weighted>
0.5267

> <Gold.Chemscore.DEInternal.Weighted>
4.2571

> <Gold.Chemscore.Rot.Weighted>
8.8820

> <Gold.Chemscore.Internal.Correction.Weighted>
   9.000000E+99

> <Gold.Protein.RotatedTorsions>
[ 6907 6896 6895 6894 ] final -147.10 input  -60.11 | X-H torsion
[ 7974 7965 7964 7962 ] final   64.15 input  175.53 | X-H torsion
[ 8008 7997 7996 7995 ] final -139.14 input   59.86 | X-H torsion
[ 10167 10162 10161 10158 ] final  -74.09 input  -65.29 | X-H torsion
[ 10718 10713 10712 10709 ] final   52.73 input   66.30 | X-H torsion
[ 10763 10752 10751 10750 ] final   34.51 input  -60.55 | X-H torsion
[ 11005 11000 10999 10996 ] final   43.15 input  -57.11 | X-H torsion

> <Gold.Protein.ActiveResidues>
 VAL166  LYS551  ARG553  GLY616  TRP617  ASP618  TYR619  PRO620  LYS621  CYS622 
 ASP623  PHE694  ASN695  SER759  ASP760  ASP761  ALA762  ILE779  LEU786  VAL792 
 PHE793  MET794  SER795  GLU796  ALA797  LYS798  CYS799  TRP800  GLU811  SER814 

> <Gold.Protein.RotatedAtoms>
  151.1509  133.4908  159.2595 H   0  0  0  0  0  0  0  0  0  0  0  0  # atno 6907 bound_to 6896
  151.1555  135.0248  159.8697 H   0  0  0  0  0  0  0  0  0  0  0  0  # atno 6908 bound_to 6896
  152.5463  134.1388  159.8523 H   0  0  0  0  0  0  0  0  0  0  0  0  # atno 6909 bound_to 6896
  145.8536  139.3269  143.0861 H   0  0  0  0  0  0  0  0  0  0  0  0  # atno 7974 bound_to 7965
  155.4400  140.0531  157.3011 H   0  0  0  0  0  0  0  0  0  0  0  0  # atno 8008 bound_to 7997
  154.4822  140.2086  155.9694 H   0  0  0  0  0  0  0  0  0  0  0  0  # atno 8009 bound_to 7997
  156.1223  140.3186  155.8231 H   0  0  0  0  0  0  0  0  0  0  0  0  # atno 8010 bound_to 7997
  140.5056  143.2353  151.7679 H   0  0  0  0  0  0  0  0  0  0  0  0  # atno 10167 bound_to 10162
  157.5102  130.8496  149.8425 H   0  0  0  0  0  0  0  0  0  0  0  0  # atno 10718 bound_to 10713
  153.0161  135.6358  154.1680 H   0  0  0  0  0  0  0  0  0  0  0  0  # atno 10763 bound_to 10752
  154.1419  135.2834  155.3160 H   0  0  0  0  0  0  0  0  0  0  0  0  # atno 10764 bound_to 10752
  154.6118  135.5554  153.7543 H   0  0  0  0  0  0  0  0  0  0  0  0  # atno 10765 bound_to 10752
  140.1672  134.4267  155.8280 H   0  0  0  0  0  0  0  0  0  0  0  0  # atno 11005 bound_to 11000
  145.9329  140.9035  143.0347 LP  0  0  0  0  0  0  0  0  0  0  0  0  # atno 17320 bound_to 7965
  144.6728  140.1443  143.7435 LP  0  0  0  0  0  0  0  0  0  0  0  0  # atno 17321 bound_to 7965
  139.4883  144.4461  151.9708 LP  0  0  0  0  0  0  0  0  0  0  0  0  # atno 17342 bound_to 10162
  140.3552  144.3040  150.5942 LP  0  0  0  0  0  0  0  0  0  0  0  0  # atno 17343 bound_to 10162
  156.0284  130.3772  150.1757 LP  0  0  0  0  0  0  0  0  0  0  0  0  # atno 17370 bound_to 10713
  156.9946  130.9904  151.3406 LP  0  0  0  0  0  0  0  0  0  0  0  0  # atno 17371 bound_to 10713
  141.2214  133.6939  156.7699 LP  0  0  0  0  0  0  0  0  0  0  0  0  # atno 17394 bound_to 11000
  140.2420  134.8606  157.3583 LP  0  0  0  0  0  0  0  0  0  0  0  0  # atno 17395 bound_to 11000

$$$$
