AV-unprocessed.smi:1123|AV-procd|sdf|4829|dock1
  -GOLD-   22720 3393D 1   1.00000     0.00000
 Structure written by MMmdl.
 37 38  0  0  0  0  0  0  0  0  1 V2000
  146.9024  133.0107  152.7704 C   0  0  0  0  0  0  0  0  0  0  0  0
  146.4230  134.0217  151.7084 C   0  0  2  0  0  0  0  0  0  0  0  0
  145.7339  135.2488  152.3262 C   0  0  0  0  0  0  0  0  0  0  0  0
  144.5942  135.1647  152.7855 O   0  0  0  0  0  0  0  0  0  0  0  0
  146.4419  136.3896  152.3278 N   0  0  0  0  0  0  0  0  0  0  0  0
  145.9700  137.6690  152.8425 C   0  0  0  0  0  0  0  0  0  0  0  0
  146.8925  138.8241  152.4101 C   0  0  0  0  0  0  0  0  0  0  0  0
  147.7223  139.3822  153.4765 N   0  0  0  0  0  0  0  0  0  0  0  0
  148.8964  138.5490  153.7139 C   0  0  0  0  0  0  0  0  0  0  0  0
  149.7889  139.1148  154.8320 C   0  0  0  0  0  0  0  0  0  0  0  0
  150.1752  140.4452  154.5040 O   0  0  0  0  0  0  0  0  0  0  0  0
  149.0589  141.3073  154.3104 C   0  0  0  0  0  0  0  0  0  0  0  0
  148.1591  140.7482  153.1941 C   0  0  0  0  0  0  0  0  0  0  0  0
  145.5553  133.4071  150.7109 N   0  0  0  0  0  0  0  0  0  0  0  0
  145.7894  132.3850  149.8846 C   0  0  0  0  0  0  0  0  0  0  0  0
  144.7850  132.1144  149.0628 N   0  0  0  0  0  0  0  0  0  0  0  0
  143.9047  133.0833  149.4530 C   0  0  0  0  0  0  0  0  0  0  0  0
  144.3196  133.8908  150.4288 N   0  0  0  0  0  0  0  0  0  0  0  0
  147.5945  133.4779  153.4720 H   0  0  0  0  0  0  0  0  0  0  0  0
  147.4265  132.1766  152.3031 H   0  0  0  0  0  0  0  0  0  0  0  0
  146.0749  132.5976  153.3487 H   0  0  0  0  0  0  0  0  0  0  0  0
  147.3108  134.3770  151.1825 H   0  0  0  0  0  0  0  0  0  0  0  0
  147.3712  136.3727  151.9337 H   0  0  0  0  0  0  0  0  0  0  0  0
  144.9602  137.8160  152.4610 H   0  0  0  0  0  0  0  0  0  0  0  0
  145.8905  137.6296  153.9303 H   0  0  0  0  0  0  0  0  0  0  0  0
  147.5471  138.4515  151.6211 H   0  0  0  0  0  0  0  0  0  0  0  0
  146.2973  139.6169  151.9543 H   0  0  0  0  0  0  0  0  0  0  0  0
  148.5852  137.5382  153.9800 H   0  0  0  0  0  0  0  0  0  0  0  0
  149.4807  138.4635  152.7964 H   0  0  0  0  0  0  0  0  0  0  0  0
  149.2639  139.1061  155.7884 H   0  0  0  0  0  0  0  0  0  0  0  0
  150.6830  138.5027  154.9507 H   0  0  0  0  0  0  0  0  0  0  0  0
  148.5010  141.4054  155.2427 H   0  0  0  0  0  0  0  0  0  0  0  0
  149.4178  142.3020  154.0458 H   0  0  0  0  0  0  0  0  0  0  0  0
  148.7007  140.7754  152.2474 H   0  0  0  0  0  0  0  0  0  0  0  0
  147.2983  141.4064  153.0818 H   0  0  0  0  0  0  0  0  0  0  0  0
  146.7158  131.8300  149.8814 H   0  0  0  0  0  0  0  0  0  0  0  0
  142.9313  133.2010  149.0001 H   0  0  0  0  0  0  0  0  0  0  0  0
  1  2  1  0  0  0  0
  1 19  1  0  0  0  0
  1 20  1  0  0  0  0
  1 21  1  0  0  0  0
  2  3  1  0  0  0  0
  2 14  1  0  0  0  0
  2 22  1  0  0  0  0
  3  4  2  0  0  0  0
  3  5  1  0  0  0  0
  5  6  1  0  0  0  0
  5 23  1  0  0  0  0
  6  7  1  0  0  0  0
  6 24  1  0  0  0  0
  6 25  1  0  0  0  0
  7  8  1  0  0  0  0
  7 26  1  0  0  0  0
  7 27  1  0  0  0  0
  8 13  1  0  0  0  0
  8  9  1  0  0  0  0
  9 10  1  0  0  0  0
  9 28  1  0  0  0  0
  9 29  1  0  0  0  0
 10 11  1  0  0  0  0
 10 30  1  0  0  0  0
 10 31  1  0  0  0  0
 11 12  1  0  0  0  0
 12 13  1  0  0  0  0
 12 32  1  0  0  0  0
 12 33  1  0  0  0  0
 13 34  1  0  0  0  0
 13 35  1  0  0  0  0
 14 18  1  0  0  0  0
 14 15  1  0  0  0  0
 15 16  2  0  0  0  0
 15 36  1  0  0  0  0
 16 17  1  0  0  0  0
 17 18  2  0  0  0  0
 17 37  1  0  0  0  0
M  END
> <s_m_source_file>
AV-unprocessed.smi

> <i_m_source_file_index>
1123

> <i_lp_mmshare_version>
43012

> <i_f3d_flags>
0

> <s_epik_input>
bjFbY0hdbltjSF1uMVtDQEhdKFtDSDNdKUMoPU8pW05IXVtDSDJdW0NIMl1OMltDSDJdW0NIMl1PW0NIMl1bQ0gyXTI=

> <s_epik_cmdline>
J2VwaWtfcHl0aG9uJywgJy1waCcsICc3LjAnLCAnLXRuJywgJzgnLCAnLW1hJywgJzIwMCcsICctbWV0YWxfYmluZGluZycsICctaW1hZScsICc8aW5maWxlLm1hZT4nLCAnLW9tYWUnLCAnPG91dGZpbGUubWFlPic=

> <r_lp_tautomer_probability>
1

> <r_epik_Ionization_Penalty>
0.211373

> <r_epik_Ionization_Penalty_Charging>
0

> <r_epik_Ionization_Penalty_Neutral>
0.211373

> <r_epik_State_Penalty>
0.201459

> <r_epik_Charging_Adjusted_Penalty>
0.201459

> <i_epik_Tot_Q>
0

> <i_epik_Tot_abs_Q>
0

> <r_epik_Metal_State_Penalty>
0.201458

> <b_epik_Metal_Only>
0

> <s_lp_Force_Field>
OPLS_2005

> <r_lp_Energy>
26.6349

> <b_lp_Chiralities_Consistent>
1

> <s_lp_Variant>
AV-unprocessed.smi:1123-1

> <Gold.Version>
5.8.1

> <Gold.Id.Protein>
6NUR|6NUR_protein|mol2

> <Gold.PLP.Fitness>
39.0714

> <Gold.PLP.PLP>
-29.1416

> <Gold.PLP.part.hbond>
-2.4306

> <Gold.PLP.part.metal>
0.0000

> <Gold.PLP.part.buried>
0.3646

> <Gold.PLP.part.nonpolar>
-26.7831

> <Gold.PLP.part.repulsive>
0.7785

> <Gold.PLP.ligand.clash>
0.0000

> <Gold.PLP.ligand.torsion>
0.8967

> <Gold.PLP.Chemscore.Hbond>
1.8640

> <Gold.PLP.Chemscore.CHOScore>
2.0000

> <Gold.PLP.Chemscore.Metal>
0.0000

> <Gold.Chemscore.Hbonds>
donor molecule, donor type, donor heavy atom, donor atom, acceptor molecule, acceptor atom, score
      L1  H     5    23       P1  7948  1.00
      P1  H  7989  7998       L1    11  0.94
      L1  C    15    36       P1 10747  1.00
      L1  C    17    37       P1 10186  1.00

> <Gold.PLP.Chemscore.Internal.Correction>
0.1311

> <Gold.Rescore>
     Score         DG    S(hbond)    S(metal)    S(lipo)     H(rot)  DE(clash)    DE(int)     intcor
      7.72     -10.38       1.80        0.00      47.56       2.61       0.02       2.64       ----

> <Gold.Chemscore.Fitness>
7.7165

> <Gold.Chemscore.DG>
-10.3849

> <Gold.Chemscore.ZeroCoef>
-5.4800

> <Gold.Chemscore.Hbond>
1.8029

> <Gold.Chemscore.Metal>
0.0000

> <Gold.Chemscore.Lipo>
47.5561

> <Gold.Chemscore.Internal_Hbond>
0.0000

> <Gold.Chemscore.DEClash>
0.0248

> <Gold.Chemscore.DEInternal>
2.6437

> <Gold.Chemscore.Rot>
2.6097

> <Gold.Chemscore.Internal.Correction>
   9.000000E+99

> <Gold.Chemscore.Hbonds>
donor molecule, donor type, donor heavy atom, donor atom, acceptor molecule, acceptor atom, score
      L1  H     5    23       P1  7948  0.96
      P1  H  7989  7998       L1    11  0.77

> <Gold.Chemscore.Hbond.Weighted>
-6.0217

> <Gold.Chemscore.Metal.Weighted>
-0.0000

> <Gold.Chemscore.Lipo.Weighted>
-5.5641

> <Gold.Chemscore.Internal_Hbond.Weighted>
0.0000

> <Gold.Chemscore.DEClash.Weighted>
0.0248

> <Gold.Chemscore.DEInternal.Weighted>
2.6437

> <Gold.Chemscore.Rot.Weighted>
6.6809

> <Gold.Chemscore.Internal.Correction.Weighted>
   9.000000E+99

> <Gold.Protein.RotatedTorsions>
[ 6907 6896 6895 6894 ] final  -93.35 input  -60.11 | X-H torsion
[ 7974 7965 7964 7962 ] final -123.67 input  175.53 | X-H torsion
[ 8008 7997 7996 7995 ] final  151.40 input   59.86 | X-H torsion
[ 10167 10162 10161 10158 ] final  170.72 input  -65.29 | X-H torsion
[ 10718 10713 10712 10709 ] final  108.78 input   66.30 | X-H torsion
[ 10763 10752 10751 10750 ] final  -64.53 input  -60.55 | X-H torsion
[ 11005 11000 10999 10996 ] final  -36.91 input  -57.11 | X-H torsion

> <Gold.Protein.ActiveResidues>
 VAL166  LYS551  ARG553  GLY616  TRP617  ASP618  TYR619  PRO620  LYS621  CYS622 
 ASP623  PHE694  ASN695  SER759  ASP760  ASP761  ALA762  ILE779  LEU786  VAL792 
 PHE793  MET794  SER795  GLU796  ALA797  LYS798  CYS799  TRP800  GLU811  SER814 

> <Gold.Protein.RotatedAtoms>
  150.6921  134.1981  159.4311 H   0  0  0  0  0  0  0  0  0  0  0  0  # atno 6907 bound_to 6896
  151.9949  134.9957  160.0572 H   0  0  0  0  0  0  0  0  0  0  0  0  # atno 6908 bound_to 6896
  152.1633  133.4561  159.4909 H   0  0  0  0  0  0  0  0  0  0  0  0  # atno 6909 bound_to 6896
  145.0163  140.7949  143.4408 H   0  0  0  0  0  0  0  0  0  0  0  0  # atno 7974 bound_to 7965
  156.2675  140.2048  156.6170 H   0  0  0  0  0  0  0  0  0  0  0  0  # atno 8008 bound_to 7997
  154.6786  140.0542  157.0266 H   0  0  0  0  0  0  0  0  0  0  0  0  # atno 8009 bound_to 7997
  155.1033  140.3208  155.4544 H   0  0  0  0  0  0  0  0  0  0  0  0  # atno 8010 bound_to 7997
  139.5026  144.3565  151.9869 H   0  0  0  0  0  0  0  0  0  0  0  0  # atno 10167 bound_to 10162
  157.6571  131.0900  150.6356 H   0  0  0  0  0  0  0  0  0  0  0  0  # atno 10718 bound_to 10713
  154.3315  135.6175  153.5553 H   0  0  0  0  0  0  0  0  0  0  0  0  # atno 10763 bound_to 10752
  152.9811  135.5748  154.4957 H   0  0  0  0  0  0  0  0  0  0  0  0  # atno 10764 bound_to 10752
  154.4644  135.2857  155.1666 H   0  0  0  0  0  0  0  0  0  0  0  0  # atno 10765 bound_to 10752
  140.9911  133.7004  156.1852 H   0  0  0  0  0  0  0  0  0  0  0  0  # atno 11005 bound_to 11000
  145.1956  139.2278  143.5220 LP  0  0  0  0  0  0  0  0  0  0  0  0  # atno 17320 bound_to 7965
  146.3478  140.1762  142.8589 LP  0  0  0  0  0  0  0  0  0  0  0  0  # atno 17321 bound_to 7965
  140.3001  144.3656  150.6063 LP  0  0  0  0  0  0  0  0  0  0  0  0  # atno 17342 bound_to 10162
  140.5880  143.2169  151.7306 LP  0  0  0  0  0  0  0  0  0  0  0  0  # atno 17343 bound_to 10162
  156.6661  130.4526  149.5672 LP  0  0  0  0  0  0  0  0  0  0  0  0  # atno 17370 bound_to 10713
  156.2031  130.6632  151.1189 LP  0  0  0  0  0  0  0  0  0  0  0  0  # atno 17371 bound_to 10713
  140.7038  134.4536  157.5585 LP  0  0  0  0  0  0  0  0  0  0  0  0  # atno 17394 bound_to 11000
  139.8993  134.8594  156.1966 LP  0  0  0  0  0  0  0  0  0  0  0  0  # atno 17395 bound_to 11000

$$$$
