AV-unprocessed.smi:1726|AV-procd|sdf|6959|dock1
  -GOLD-   22720 8173D 1   1.00000     0.00000
 Structure written by MMmdl.
 43 44  0  0  0  0  0  0  0  0  2 V2000
  144.3245  132.5398  149.2577 C   0  0  0  0  0  0  0  0  0  0  0  0
  143.7606  132.7873  150.6643 C   0  0  0  0  0  0  0  0  0  0  0  0
  144.6200  132.2089  151.7272 N   0  3  1  0  0  0  0  0  0  0  0  0
  145.1588  130.8743  151.3566 C   0  0  0  0  0  0  0  0  0  0  0  0
  145.9177  130.2333  152.5320 C   0  0  0  0  0  0  0  0  0  0  0  0
  147.0215  131.1636  153.0624 C   0  0  0  0  0  0  0  0  0  0  0  0
  146.4556  132.5561  153.3937 C   0  0  2  0  0  0  0  0  0  0  0  0
  145.5867  132.4728  154.5684 N   0  0  0  0  0  0  0  0  0  0  0  0
  145.9281  132.8266  155.8157 C   0  0  0  0  0  0  0  0  0  0  0  0
  147.0325  133.2853  156.1037 O   0  0  0  0  0  0  0  0  0  0  0  0
  144.9068  132.6175  156.6667 N   0  0  0  0  0  0  0  0  0  0  0  0
  144.8233  132.8424  158.0524 C   0  0  0  0  0  0  0  0  0  0  0  0
  145.8700  133.1381  158.8677 C   0  0  0  0  0  0  0  0  0  0  0  0
  145.6998  133.3543  160.2950 C   0  0  0  0  0  0  0  0  0  0  0  0
  146.8865  133.6177  161.2092 C   0  0  0  0  0  0  0  0  0  0  0  0
  147.6527  134.5764  160.6910 F   0  0  0  0  0  0  0  0  0  0  0  0
  146.4867  134.0139  162.4183 F   0  0  0  0  0  0  0  0  0  0  0  0
  147.6329  132.5225  161.3537 F   0  0  0  0  0  0  0  0  0  0  0  0
  144.4504  133.2255  160.7771 C   0  0  0  0  0  0  0  0  0  0  0  0
  143.3676  132.9330  159.9457 N   0  0  0  0  0  0  0  0  0  0  0  0
  143.4658  132.7316  158.6128 C   0  0  0  0  0  0  0  0  0  0  0  0
  142.4622  132.4759  157.9479 O   0  0  0  0  0  0  0  0  0  0  0  0
  145.7088  133.1223  152.1654 C   0  0  0  0  0  0  0  0  0  0  0  0
  142.4588  132.8683  160.3812 H   0  0  0  0  0  0  0  0  0  0  0  0
  143.7213  133.0530  148.5083 H   0  0  0  0  0  0  0  0  0  0  0  0
  144.3304  131.4822  148.9961 H   0  0  0  0  0  0  0  0  0  0  0  0
  145.3451  132.9136  149.1715 H   0  0  0  0  0  0  0  0  0  0  0  0
  143.6907  133.8665  150.8068 H   0  0  0  0  0  0  0  0  0  0  0  0
  142.7449  132.3985  150.7486 H   0  0  0  0  0  0  0  0  0  0  0  0
  144.3428  130.2148  151.0585 H   0  0  0  0  0  0  0  0  0  0  0  0
  145.8172  130.9743  150.4920 H   0  0  0  0  0  0  0  0  0  0  0  0
  145.2160  129.9980  153.3331 H   0  0  0  0  0  0  0  0  0  0  0  0
  146.3525  129.2833  152.2195 H   0  0  0  0  0  0  0  0  0  0  0  0
  147.4995  130.7246  153.9389 H   0  0  0  0  0  0  0  0  0  0  0  0
  147.8018  131.2624  152.3066 H   0  0  0  0  0  0  0  0  0  0  0  0
  147.2903  133.2159  153.6371 H   0  0  0  0  0  0  0  0  0  0  0  0
  144.6611  132.0963  154.4217 H   0  0  0  0  0  0  0  0  0  0  0  0
  144.0609  132.2441  156.2605 H   0  0  0  0  0  0  0  0  0  0  0  0
  146.8727  133.2230  158.4852 H   0  0  0  0  0  0  0  0  0  0  0  0
  144.1867  133.3300  161.8193 H   0  0  0  0  0  0  0  0  0  0  0  0
  146.4088  133.2693  151.3412 H   0  0  0  0  0  0  0  0  0  0  0  0
  145.3096  134.1077  152.4013 H   0  0  0  0  0  0  0  0  0  0  0  0
  144.0210  132.0603  152.5268 H   0  0  0  0  0  0  0  0  0  0  0  0
  1  2  1  0  0  0  0
  1 25  1  0  0  0  0
  1 26  1  0  0  0  0
  1 27  1  0  0  0  0
  2  3  1  0  0  0  0
  2 28  1  0  0  0  0
  2 29  1  0  0  0  0
  3 23  1  0  0  0  0
  3  4  1  0  0  0  0
  3 43  1  0  0  0  0
  4  5  1  0  0  0  0
  4 30  1  0  0  0  0
  4 31  1  0  0  0  0
  5  6  1  0  0  0  0
  5 32  1  0  0  0  0
  5 33  1  0  0  0  0
  6  7  1  0  0  0  0
  6 34  1  0  0  0  0
  6 35  1  0  0  0  0
  7  8  1  0  0  0  0
  7 23  1  0  0  0  0
  7 36  1  0  0  0  0
  8  9  1  0  0  0  0
  8 37  1  0  0  0  0
  9 10  2  0  0  0  0
  9 11  1  0  0  0  0
 11 12  1  0  0  0  0
 11 38  1  0  0  0  0
 12 21  1  0  0  0  0
 12 13  2  0  0  0  0
 13 14  1  0  0  0  0
 13 39  1  0  0  0  0
 14 15  1  0  0  0  0
 14 19  2  0  0  0  0
 15 16  1  0  0  0  0
 15 17  1  0  0  0  0
 15 18  1  0  0  0  0
 19 20  1  0  0  0  0
 19 40  1  0  0  0  0
 20 24  1  0  0  0  0
 20 21  1  0  0  0  0
 21 22  2  0  0  0  0
 23 41  1  0  0  0  0
 23 42  1  0  0  0  0
M  CHG  1   3   1
M  END
> <s_m_source_file>
AV-unprocessed.smi

> <i_m_source_file_index>
1726

> <i_lp_mmshare_version>
43012

> <i_f3d_flags>
0

> <s_epik_input>
W0NIM11bQ0gyXU4xW0NIMl1bQ0gyXVtDSDJdW0NASF0oW0NIMl0xKVtOSF1DKD1PKVtOSF1jMltjSF1jKEMoRikoRilGKVtjSF1bbkhdYzI9Tw==

> <s_epik_cmdline>
J2VwaWtfcHl0aG9uJywgJy1waCcsICc3LjAnLCAnLXRuJywgJzgnLCAnLW1hJywgJzIwMCcsICctbWV0YWxfYmluZGluZycsICctaW1hZScsICc8aW5maWxlLm1hZT4nLCAnLW9tYWUnLCAnPG91dGZpbGUubWFlPic=

> <r_lp_tautomer_probability>
1

> <r_epik_Ionization_Penalty>
0.00745721

> <r_epik_Ionization_Penalty_Charging>
0.00743804

> <r_epik_Ionization_Penalty_Neutral>
1.91703e-05

> <r_epik_State_Penalty>
-0

> <r_epik_Charging_Adjusted_Penalty>
0.00743804

> <i_epik_Tot_Q>
1

> <i_epik_Tot_abs_Q>
1

> <r_epik_Metal_State_Penalty>
0.37929

> <b_epik_Metal_Only>
0

> <s_lp_Force_Field>
OPLS_2005

> <r_lp_Energy>
34.9839

> <b_lp_Chiralities_Consistent>
1

> <s_lp_Variant>
AV-unprocessed.smi:1726-3

> <Gold.Version>
5.8.1

> <Gold.Id.Protein>
6NUR|6NUR_protein|mol2

> <Gold.PLP.Fitness>
37.7637

> <Gold.PLP.PLP>
-31.2855

> <Gold.PLP.part.hbond>
-3.0000

> <Gold.PLP.part.metal>
0.0000

> <Gold.PLP.part.buried>
-5.1024

> <Gold.PLP.part.nonpolar>
-24.2776

> <Gold.PLP.part.repulsive>
0.1893

> <Gold.PLP.ligand.clash>
0.6659

> <Gold.PLP.ligand.torsion>
0.9447

> <Gold.PLP.Chemscore.Hbond>
2.9913

> <Gold.PLP.Chemscore.CHOScore>
0.0000

> <Gold.PLP.Chemscore.Metal>
0.0000

> <Gold.Chemscore.Hbonds>
donor molecule, donor type, donor heavy atom, donor atom, acceptor molecule, acceptor atom, score
      L1  H     8    37       P1 10957  1.00
      L1  H    11    38       P1 10957  0.98
      P1  H 11000 11005       L1    22  1.00

> <Gold.PLP.Chemscore.Internal.Correction>
0.0597

> <Gold.Rescore>
     Score         DG    S(hbond)    S(metal)    S(lipo)     H(rot)  DE(clash)    DE(int)     intcor
     16.51     -18.21       2.43        0.00      67.68       1.29       0.06       1.64       ----

> <Gold.Chemscore.Fitness>
16.5099

> <Gold.Chemscore.DG>
-18.2130

> <Gold.Chemscore.ZeroCoef>
-5.4800

> <Gold.Chemscore.Hbond>
2.4289

> <Gold.Chemscore.Metal>
0.0000

> <Gold.Chemscore.Lipo>
67.6824

> <Gold.Chemscore.Internal_Hbond>
0.0000

> <Gold.Chemscore.DEClash>
0.0640

> <Gold.Chemscore.DEInternal>
1.6392

> <Gold.Chemscore.Rot>
1.2884

> <Gold.Chemscore.Internal.Correction>
   9.000000E+99

> <Gold.Chemscore.Hbonds>
donor molecule, donor type, donor heavy atom, donor atom, acceptor molecule, acceptor atom, score
      L1  H     8    37       P1 10957  0.24
      L1  H    11    38       P1 10957  0.90
      P1  H 11000 11005       L1    22  0.90

> <Gold.Chemscore.Hbond.Weighted>
-8.1125

> <Gold.Chemscore.Metal.Weighted>
-0.0000

> <Gold.Chemscore.Lipo.Weighted>
-7.9188

> <Gold.Chemscore.Internal_Hbond.Weighted>
0.0000

> <Gold.Chemscore.DEClash.Weighted>
0.0640

> <Gold.Chemscore.DEInternal.Weighted>
1.6392

> <Gold.Chemscore.Rot.Weighted>
3.2983

> <Gold.Chemscore.Internal.Correction.Weighted>
   9.000000E+99

> <Gold.Protein.RotatedTorsions>
[ 6907 6896 6895 6894 ] final -108.68 input  -60.11 | X-H torsion
[ 7974 7965 7964 7962 ] final -145.22 input  175.53 | X-H torsion
[ 8008 7997 7996 7995 ] final -128.51 input   59.86 | X-H torsion
[ 10167 10162 10161 10158 ] final   34.10 input  -65.29 | X-H torsion
[ 10718 10713 10712 10709 ] final   60.88 input   66.30 | X-H torsion
[ 10763 10752 10751 10750 ] final  120.27 input  -60.55 | X-H torsion
[ 11005 11000 10999 10996 ] final -104.35 input  -57.11 | X-H torsion

> <Gold.Protein.ActiveResidues>
 VAL166  LYS551  ARG553  GLY616  TRP617  ASP618  TYR619  PRO620  LYS621  CYS622 
 ASP623  PHE694  ASN695  SER759  ASP760  ASP761  ALA762  ILE779  LEU786  VAL792 
 PHE793  MET794  SER795  GLU796  ALA797  LYS798  CYS799  TRP800  GLU811  SER814 

> <Gold.Protein.RotatedAtoms>
  150.7516  133.9641  159.3524 H   0  0  0  0  0  0  0  0  0  0  0  0  # atno 6907 bound_to 6896
  151.7569  135.0817  160.0349 H   0  0  0  0  0  0  0  0  0  0  0  0  # atno 6908 bound_to 6896
  152.3429  133.6051  159.5925 H   0  0  0  0  0  0  0  0  0  0  0  0  # atno 6909 bound_to 6896
  144.8243  140.5611  143.5558 H   0  0  0  0  0  0  0  0  0  0  0  0  # atno 7974 bound_to 7965
  155.2639  140.0437  157.3000 H   0  0  0  0  0  0  0  0  0  0  0  0  # atno 8008 bound_to 7997
  154.5694  140.2369  155.8183 H   0  0  0  0  0  0  0  0  0  0  0  0  # atno 8009 bound_to 7997
  156.2111  140.2998  155.9741 H   0  0  0  0  0  0  0  0  0  0  0  0  # atno 8010 bound_to 7997
  140.4346  144.1275  150.6164 H   0  0  0  0  0  0  0  0  0  0  0  0  # atno 10167 bound_to 10162
  157.5786  130.8964  149.9391 H   0  0  0  0  0  0  0  0  0  0  0  0  # atno 10718 bound_to 10713
  153.5959  135.3457  155.2928 H   0  0  0  0  0  0  0  0  0  0  0  0  # atno 10763 bound_to 10752
  154.8644  135.4216  154.2465 H   0  0  0  0  0  0  0  0  0  0  0  0  # atno 10764 bound_to 10752
  153.3283  135.7042  153.7041 H   0  0  0  0  0  0  0  0  0  0  0  0  # atno 10765 bound_to 10752
  141.1104  133.8716  157.1600 H   0  0  0  0  0  0  0  0  0  0  0  0  # atno 11005 bound_to 11000
  145.5036  139.1482  143.3644 LP  0  0  0  0  0  0  0  0  0  0  0  0  # atno 17320 bound_to 7965
  146.2548  140.5176  142.8878 LP  0  0  0  0  0  0  0  0  0  0  0  0  # atno 17321 bound_to 7965
  140.4388  143.2535  151.9500 LP  0  0  0  0  0  0  0  0  0  0  0  0  # atno 17342 bound_to 10162
  139.4786  144.5674  151.8143 LP  0  0  0  0  0  0  0  0  0  0  0  0  # atno 17343 bound_to 10162
  156.0832  130.3671  150.0540 LP  0  0  0  0  0  0  0  0  0  0  0  0  # atno 17370 bound_to 10713
  156.8682  130.9515  151.3612 LP  0  0  0  0  0  0  0  0  0  0  0  0  # atno 17371 bound_to 10713
  139.9995  135.0033  157.0159 LP  0  0  0  0  0  0  0  0  0  0  0  0  # atno 17394 bound_to 11000
  140.4790  134.1309  155.7214 LP  0  0  0  0  0  0  0  0  0  0  0  0  # atno 17395 bound_to 11000

$$$$
