AV-unprocessed.smi:261|AV-procd|sdf|1992|dock3
  -GOLD-   2262021183D 1   1.00000     0.00000
 Structure written by MMmdl.
 51 54  0  0  0  0  0  0  0  0  1 V2000
  151.3394  144.3256  158.1871 C   0  0  0  0  0  0  0  0  0  0  0  0
  151.6492  142.9552  158.3802 O   0  0  0  0  0  0  0  0  0  0  0  0
  151.2999  142.1355  157.2745 C   0  0  2  0  0  0  0  0  0  0  0  0
  149.7897  141.9790  157.0897 C   0  0  0  0  0  0  0  0  0  0  0  0
  149.6281  140.6350  156.3555 C   0  0  1  0  0  0  0  0  0  0  0  0
  149.5097  140.8194  154.8344 C   0  0  0  0  0  0  0  0  0  0  0  0
  149.6427  139.7238  154.0831 N   0  0  0  0  0  0  0  0  0  0  0  0
  149.2855  141.9237  154.3407 O   0  0  0  0  0  0  0  0  0  0  0  0
  150.8443  139.8862  156.6852 N   0  0  0  0  0  0  0  0  0  0  0  0
  150.7015  138.6006  157.0733 C   0  0  0  0  0  0  0  0  0  0  0  0
  150.3611  138.3098  158.3563 N   0  0  0  0  0  0  0  0  0  0  0  0
  150.2342  137.0350  158.7380 C   0  0  0  0  0  0  0  0  0  0  0  0
  150.4012  135.9256  158.0137 N   0  0  0  0  0  0  0  0  0  0  0  0
  150.7447  136.2200  156.7267 C   0  0  0  0  0  0  0  0  0  0  0  0
  150.9147  137.5212  156.1784 C   0  0  0  0  0  0  0  0  0  0  0  0
  151.2624  137.4348  154.8369 N   0  0  0  0  0  0  0  0  0  0  0  0
  151.2921  136.1513  154.6022 C   0  0  0  0  0  0  0  0  0  0  0  0
  151.0045  135.3482  155.6842 N   0  0  0  0  0  0  0  0  0  0  0  0
  150.9768  133.8942  155.7053 C   0  0  0  0  0  0  0  0  0  0  0  0
  150.4910  133.2626  154.3813 C   0  0  2  0  0  0  0  0  0  0  0  0
  149.3206  133.9315  153.9551 O   0  0  0  0  0  0  0  0  0  0  0  0
  150.1846  131.7540  154.4806 C   0  0  1  0  0  0  0  0  0  0  0  0
  149.6344  131.1287  153.1974 C   0  0  0  0  0  0  0  0  0  0  0  0
  150.0479  129.6676  153.3007 C   0  0  0  0  0  0  0  0  0  0  0  0
  151.0686  129.6472  154.4414 C   0  0  0  0  0  0  0  0  0  0  0  0
  151.3778  131.0122  154.6784 O   0  0  0  0  0  0  0  0  0  0  0  0
  151.7313  140.6918  157.5140 C   0  0  0  0  0  0  0  0  0  0  0  0
  151.7597  142.5005  156.3540 H   0  0  0  0  0  0  0  0  0  0  0  0
  148.7273  140.1320  156.7126 H   0  0  0  0  0  0  0  0  0  0  0  0
  151.6484  144.8952  159.0635 H   0  0  0  0  0  0  0  0  0  0  0  0
  150.2687  144.4807  158.0501 H   0  0  0  0  0  0  0  0  0  0  0  0
  151.8657  144.7297  157.3216 H   0  0  0  0  0  0  0  0  0  0  0  0
  149.3068  141.9140  158.0658 H   0  0  0  0  0  0  0  0  0  0  0  0
  149.3417  142.8215  156.5612 H   0  0  0  0  0  0  0  0  0  0  0  0
  149.5734  139.7887  153.0779 H   0  0  0  0  0  0  0  0  0  0  0  0
  149.8125  138.8323  154.5255 H   0  0  0  0  0  0  0  0  0  0  0  0
  149.9611  136.8820  159.7717 H   0  0  0  0  0  0  0  0  0  0  0  0
  151.5370  135.7511  153.6289 H   0  0  0  0  0  0  0  0  0  0  0  0
  151.9734  133.5293  155.9573 H   0  0  0  0  0  0  0  0  0  0  0  0
  150.3251  133.5821  156.5221 H   0  0  0  0  0  0  0  0  0  0  0  0
  151.2575  133.4251  153.6230 H   0  0  0  0  0  0  0  0  0  0  0  0
  149.5235  134.4200  153.1715 H   0  0  0  0  0  0  0  0  0  0  0  0
  149.5018  131.5482  155.3074 H   0  0  0  0  0  0  0  0  0  0  0  0
  148.5560  131.2575  153.0991 H   0  0  0  0  0  0  0  0  0  0  0  0
  150.1063  131.5789  152.3229 H   0  0  0  0  0  0  0  0  0  0  0  0
  149.1991  129.0227  153.5308 H   0  0  0  0  0  0  0  0  0  0  0  0
  150.4873  129.3236  152.3637 H   0  0  0  0  0  0  0  0  0  0  0  0
  150.6280  129.2188  155.3431 H   0  0  0  0  0  0  0  0  0  0  0  0
  151.9638  129.0759  154.1953 H   0  0  0  0  0  0  0  0  0  0  0  0
  152.7753  140.5347  157.2412 H   0  0  0  0  0  0  0  0  0  0  0  0
  151.6160  140.4304  158.5677 H   0  0  0  0  0  0  0  0  0  0  0  0
  1  2  1  0  0  0  0
  1 30  1  0  0  0  0
  1 31  1  0  0  0  0
  1 32  1  0  0  0  0
  2  3  1  0  0  0  0
  3 28  1  0  0  0  0
  3 27  1  0  0  0  0
  3  4  1  0  0  0  0
  4  5  1  0  0  0  0
  4 33  1  0  0  0  0
  4 34  1  0  0  0  0
  5 29  1  0  0  0  0
  5  6  1  0  0  0  0
  5  9  1  0  0  0  0
  6  7  1  0  0  0  0
  6  8  2  0  0  0  0
  7 35  1  0  0  0  0
  7 36  1  0  0  0  0
  9 10  1  0  0  0  0
  9 27  1  0  0  0  0
 10 15  1  0  0  0  0
 10 11  2  0  0  0  0
 11 12  1  0  0  0  0
 12 13  2  0  0  0  0
 12 37  1  0  0  0  0
 13 14  1  0  0  0  0
 14 18  1  0  0  0  0
 14 15  2  0  0  0  0
 15 16  1  0  0  0  0
 16 17  2  0  0  0  0
 17 18  1  0  0  0  0
 17 38  1  0  0  0  0
 18 19  1  0  0  0  0
 19 20  1  0  0  0  0
 19 39  1  0  0  0  0
 19 40  1  0  0  0  0
 20 21  1  0  0  0  0
 20 22  1  0  0  0  0
 20 41  1  0  0  0  0
 21 42  1  0  0  0  0
 22 26  1  0  0  0  0
 22 23  1  0  0  0  0
 22 43  1  0  0  0  0
 23 24  1  0  0  0  0
 23 44  1  0  0  0  0
 23 45  1  0  0  0  0
 24 25  1  0  0  0  0
 24 46  1  0  0  0  0
 24 47  1  0  0  0  0
 25 26  1  0  0  0  0
 25 48  1  0  0  0  0
 25 49  1  0  0  0  0
 27 50  1  0  0  0  0
 27 51  1  0  0  0  0
M  END
> <s_m_source_file>
AV-unprocessed.smi

> <i_m_source_file_index>
261

> <i_lp_mmshare_version>
43012

> <i_f3d_flags>
0

> <s_epik_input>
W0NIM11PW0NASF0xW0NIMl1bQ0BASF0oQyg9TylbTkgyXSlOKFtDSDJdMSljKG5bY0hdbjIpYyhjMjMpbltjSF1uM1tDSDJdW0NASF0oW09IXSlbQ0BASF00W0NIMl1bQ0gyXVtDSDJdTzQ=

> <s_epik_cmdline>
J2VwaWtfcHl0aG9uJywgJy1waCcsICc3LjAnLCAnLXRuJywgJzgnLCAnLW1hJywgJzIwMCcsICctbWV0YWxfYmluZGluZycsICctaW1hZScsICc8aW5maWxlLm1hZT4nLCAnLW9tYWUnLCAnPG91dGZpbGUubWFlPic=

> <r_lp_tautomer_probability>
1

> <r_epik_Ionization_Penalty>
0.000713824

> <r_epik_Ionization_Penalty_Charging>
0

> <r_epik_Ionization_Penalty_Neutral>
0.000713824

> <r_epik_State_Penalty>
0.000402132

> <r_epik_Charging_Adjusted_Penalty>
0.000402132

> <i_epik_Tot_Q>
0

> <i_epik_Tot_abs_Q>
0

> <r_epik_Metal_State_Penalty>
-0

> <b_epik_Metal_Only>
0

> <s_lp_Force_Field>
OPLS_2005

> <r_lp_Energy>
43.7776

> <b_lp_Chiralities_Consistent>
1

> <s_lp_Variant>
AV-unprocessed.smi:261-10

> <Gold.Version>
5.8.1

> <Gold.Id.Protein>
6NUR|6NUR_protein|mol2

> <Gold.PLP.Fitness>
44.8587

> <Gold.PLP.PLP>
-36.5263

> <Gold.PLP.part.hbond>
-4.3957

> <Gold.PLP.part.metal>
0.0000

> <Gold.PLP.part.buried>
-2.4130

> <Gold.PLP.part.nonpolar>
-28.7591

> <Gold.PLP.part.repulsive>
0.9784

> <Gold.PLP.ligand.clash>
0.0000

> <Gold.PLP.ligand.torsion>
1.1177

> <Gold.PLP.Chemscore.Hbond>
2.4867

> <Gold.PLP.Chemscore.CHOScore>
0.9129

> <Gold.PLP.Chemscore.Metal>
0.0000

> <Gold.Chemscore.Hbonds>
donor molecule, donor type, donor heavy atom, donor atom, acceptor molecule, acceptor atom, score
      L1  H     7    35       P1  7957  1.00
      L1  H    21    42       P1  7948  0.02
      P1  H  6896  6908       L1    13  0.52
      P1  H  8011  8017       L1     8  0.31
      L1  C    17    38       P1  7949  1.00

> <Gold.PLP.Chemscore.Internal.Correction>
0.3690

> <Gold.Rescore>
     Score         DG    S(hbond)    S(metal)    S(lipo)     H(rot)  DE(clash)    DE(int)     intcor
      7.65     -12.09       2.32        0.00      68.59       3.57       0.69       3.75       ----

> <Gold.Chemscore.Fitness>
7.6510

> <Gold.Chemscore.DG>
-12.0920

> <Gold.Chemscore.ZeroCoef>
-5.4800

> <Gold.Chemscore.Hbond>
2.3164

> <Gold.Chemscore.Metal>
0.0000

> <Gold.Chemscore.Lipo>
68.5866

> <Gold.Chemscore.Internal_Hbond>
0.0000

> <Gold.Chemscore.DEClash>
0.6914

> <Gold.Chemscore.DEInternal>
3.7495

> <Gold.Chemscore.Rot>
3.5740

> <Gold.Chemscore.Internal.Correction>
   9.000000E+99

> <Gold.Chemscore.Hbonds>
donor molecule, donor type, donor heavy atom, donor atom, acceptor molecule, acceptor atom, score
      L1  H     7    35       P1  7957  0.99
      P1  H  6896  6908       L1    13  0.05
      P1  H  8011  8017       L1     8  0.31

> <Gold.Chemscore.Hbond.Weighted>
-7.7368

> <Gold.Chemscore.Metal.Weighted>
-0.0000

> <Gold.Chemscore.Lipo.Weighted>
-8.0246

> <Gold.Chemscore.Internal_Hbond.Weighted>
0.0000

> <Gold.Chemscore.DEClash.Weighted>
0.6914

> <Gold.Chemscore.DEInternal.Weighted>
3.7495

> <Gold.Chemscore.Rot.Weighted>
9.1495

> <Gold.Chemscore.Internal.Correction.Weighted>
   9.000000E+99

> <Gold.Protein.RotatedTorsions>
[ 6907 6896 6895 6894 ] final -178.02 input  -60.11 | X-H torsion
[ 7974 7965 7964 7962 ] final   74.49 input  175.53 | X-H torsion
[ 8008 7997 7996 7995 ] final   86.67 input   59.86 | X-H torsion
[ 10167 10162 10161 10158 ] final -117.18 input  -65.29 | X-H torsion
[ 10718 10713 10712 10709 ] final  108.59 input   66.30 | X-H torsion
[ 10763 10752 10751 10750 ] final -148.87 input  -60.55 | X-H torsion
[ 11005 11000 10999 10996 ] final   14.62 input  -57.11 | X-H torsion

> <Gold.Protein.ActiveResidues>
 VAL166  LYS551  ARG553  GLY616  TRP617  ASP618  TYR619  PRO620  LYS621  CYS622 
 ASP623  PHE694  ASN695  SER759  ASP760  ASP761  ALA762  ILE779  LEU786  VAL792 
 PHE793  MET794  SER795  GLU796  ALA797  LYS798  CYS799  TRP800  GLU811  SER814 

> <Gold.Protein.RotatedAtoms>
  151.6305  133.3332  159.3107 H   0  0  0  0  0  0  0  0  0  0  0  0  # atno 6907 bound_to 6896
  150.8059  134.7187  159.6655 H   0  0  0  0  0  0  0  0  0  0  0  0  # atno 6908 bound_to 6896
  152.4154  134.6055  160.0063 H   0  0  0  0  0  0  0  0  0  0  0  0  # atno 6909 bound_to 6896
  145.7275  139.2671  143.1560 H   0  0  0  0  0  0  0  0  0  0  0  0  # atno 7974 bound_to 7965
  155.9657  140.3390  155.6530 H   0  0  0  0  0  0  0  0  0  0  0  0  # atno 8008 bound_to 7997
  155.6740  140.0730  157.2528 H   0  0  0  0  0  0  0  0  0  0  0  0  # atno 8009 bound_to 7997
  154.4154  140.1686  156.1897 H   0  0  0  0  0  0  0  0  0  0  0  0  # atno 8010 bound_to 7997
  140.0712  143.4876  152.1979 H   0  0  0  0  0  0  0  0  0  0  0  0  # atno 10167 bound_to 10162
  157.6579  131.0897  150.6329 H   0  0  0  0  0  0  0  0  0  0  0  0  # atno 10718 bound_to 10713
  154.8209  135.3323  154.7040 H   0  0  0  0  0  0  0  0  0  0  0  0  # atno 10763 bound_to 10752
  153.7673  135.6928  153.4918 H   0  0  0  0  0  0  0  0  0  0  0  0  # atno 10764 bound_to 10752
  153.2069  135.4496  155.0282 H   0  0  0  0  0  0  0  0  0  0  0  0  # atno 10765 bound_to 10752
  140.4674  134.1065  155.7727 H   0  0  0  0  0  0  0  0  0  0  0  0  # atno 11005 bound_to 11000
  146.0568  140.8012  142.9754 LP  0  0  0  0  0  0  0  0  0  0  0  0  # atno 17320 bound_to 7965
  144.6901  140.3136  143.7244 LP  0  0  0  0  0  0  0  0  0  0  0  0  # atno 17321 bound_to 7965
  139.5835  144.7521  151.3579 LP  0  0  0  0  0  0  0  0  0  0  0  0  # atno 17342 bound_to 10162
  140.7125  143.7354  150.7592 LP  0  0  0  0  0  0  0  0  0  0  0  0  # atno 17343 bound_to 10162
  156.6634  130.4518  149.5680 LP  0  0  0  0  0  0  0  0  0  0  0  0  # atno 17370 bound_to 10713
  156.2051  130.6644  151.1209 LP  0  0  0  0  0  0  0  0  0  0  0  0  # atno 17371 bound_to 10713
  141.1593  133.8824  157.1893 LP  0  0  0  0  0  0  0  0  0  0  0  0  # atno 17394 bound_to 11000
  139.9906  135.0066  156.9967 LP  0  0  0  0  0  0  0  0  0  0  0  0  # atno 17395 bound_to 11000

$$$$
