AV-unprocessed.smi:3217|AV-procd|sdf|12290|dock6
  -GOLD-   2272018133D 1   1.00000     0.00000
 Structure written by MMmdl.
 34 35  0  0  0  0  0  0  0  0  1 V2000
  149.0622  140.3822  154.3696 C   0  0  0  0  0  0  0  0  0  0  0  0
  148.1177  140.9726  155.4265 C   0  0  1  0  0  0  0  0  0  0  0  0
  148.7926  142.0855  156.0933 N   0  0  0  0  0  0  0  0  0  0  0  0
  149.4948  142.0118  157.2333 C   0  0  0  0  0  0  0  0  0  0  0  0
  149.6468  140.9724  157.8741 O   0  0  0  0  0  0  0  0  0  0  0  0
  150.0074  143.2107  157.5597 N   0  0  0  0  0  0  0  0  0  0  0  0
  150.8324  143.5600  158.6637 C   0  0  0  0  0  0  0  0  0  0  0  0
  151.8720  142.7482  159.1803 C   0  0  0  0  0  0  0  0  0  0  0  0
  152.6089  143.2103  160.2879 C   0  0  0  0  0  0  0  0  0  0  0  0
  152.2761  144.4605  160.8439 C   0  0  0  0  0  0  0  0  0  0  0  0
  151.2801  145.2384  160.3709 N   0  0  0  0  0  0  0  0  0  0  0  0
  150.5788  144.7895  159.3081 C   0  0  0  0  0  0  0  0  0  0  0  0
  146.7847  141.4447  154.8110 C   0  0  2  0  0  0  0  0  0  0  0  0
  146.9100  142.5994  153.8134 C   0  0  0  0  0  0  0  0  0  0  0  0
  145.5400  143.2312  153.8967 C   0  0  0  0  0  0  0  0  0  0  0  0
  145.2393  143.1118  155.3866 C   0  0  0  0  0  0  0  0  0  0  0  0
  145.9106  141.9343  155.8271 O   0  0  0  0  0  0  0  0  0  0  0  0
  148.6101  139.5236  153.8725 H   0  0  0  0  0  0  0  0  0  0  0  0
  149.9945  140.0438  154.8232 H   0  0  0  0  0  0  0  0  0  0  0  0
  149.3120  141.1169  153.6033 H   0  0  0  0  0  0  0  0  0  0  0  0
  147.8970  140.1831  156.1470 H   0  0  0  0  0  0  0  0  0  0  0  0
  148.7265  142.9849  155.6399 H   0  0  0  0  0  0  0  0  0  0  0  0
  149.8362  143.9555  156.9003 H   0  0  0  0  0  0  0  0  0  0  0  0
  152.1140  141.7832  158.7643 H   0  0  0  0  0  0  0  0  0  0  0  0
  153.4099  142.6172  160.7037 H   0  0  0  0  0  0  0  0  0  0  0  0
  152.8209  144.8431  161.6942 H   0  0  0  0  0  0  0  0  0  0  0  0
  149.7894  145.4387  158.9578 H   0  0  0  0  0  0  0  0  0  0  0  0
  146.2810  140.6098  154.3207 H   0  0  0  0  0  0  0  0  0  0  0  0
  147.6684  143.3122  154.1413 H   0  0  0  0  0  0  0  0  0  0  0  0
  147.1659  142.2673  152.8069 H   0  0  0  0  0  0  0  0  0  0  0  0
  145.5179  144.2605  153.5377 H   0  0  0  0  0  0  0  0  0  0  0  0
  144.8215  142.6489  153.3180 H   0  0  0  0  0  0  0  0  0  0  0  0
  145.6497  143.9658  155.9268 H   0  0  0  0  0  0  0  0  0  0  0  0
  144.1700  143.0630  155.5932 H   0  0  0  0  0  0  0  0  0  0  0  0
  1  2  1  0  0  0  0
  1 18  1  0  0  0  0
  1 19  1  0  0  0  0
  1 20  1  0  0  0  0
  2  3  1  0  0  0  0
  2 13  1  0  0  0  0
  2 21  1  0  0  0  0
  3  4  1  0  0  0  0
  3 22  1  0  0  0  0
  4  5  2  0  0  0  0
  4  6  1  0  0  0  0
  6  7  1  0  0  0  0
  6 23  1  0  0  0  0
  7 12  1  0  0  0  0
  7  8  2  0  0  0  0
  8  9  1  0  0  0  0
  8 24  1  0  0  0  0
  9 10  2  0  0  0  0
  9 25  1  0  0  0  0
 10 11  1  0  0  0  0
 10 26  1  0  0  0  0
 11 12  2  0  0  0  0
 12 27  1  0  0  0  0
 13 17  1  0  0  0  0
 13 14  1  0  0  0  0
 13 28  1  0  0  0  0
 14 15  1  0  0  0  0
 14 29  1  0  0  0  0
 14 30  1  0  0  0  0
 15 16  1  0  0  0  0
 15 31  1  0  0  0  0
 15 32  1  0  0  0  0
 16 17  1  0  0  0  0
 16 33  1  0  0  0  0
 16 34  1  0  0  0  0
M  END
> <s_m_source_file>
AV-unprocessed.smi

> <i_m_source_file_index>
3217

> <i_lp_mmshare_version>
43012

> <i_f3d_flags>
0

> <s_epik_input>
TzFbQ0gyXVtDSDJdW0NIMl1bQ0BIXTFbQ0BIXShbQ0gzXSlbTkhdQyg9TylbTkhdYzJbY0hdW2NIXVtjSF1uW2NIXTI=

> <s_epik_cmdline>
J2VwaWtfcHl0aG9uJywgJy1waCcsICc3LjAnLCAnLXRuJywgJzgnLCAnLW1hJywgJzIwMCcsICctbWV0YWxfYmluZGluZycsICctaW1hZScsICc8aW5maWxlLm1hZT4nLCAnLW9tYWUnLCAnPG91dGZpbGUubWFlPic=

> <r_epik_Ionization_Penalty>
0.00475451

> <r_epik_Ionization_Penalty_Charging>
0

> <r_epik_Ionization_Penalty_Neutral>
0.00475451

> <r_epik_State_Penalty>
0.00341814

> <r_epik_Charging_Adjusted_Penalty>
0.00341814

> <i_epik_Tot_Q>
0

> <i_epik_Tot_abs_Q>
0

> <r_epik_Metal_State_Penalty>
-0

> <b_epik_Metal_Only>
0

> <s_lp_Force_Field>
OPLS_2005

> <r_lp_Energy>
20.7148

> <b_lp_Chiralities_Consistent>
1

> <s_lp_Variant>
AV-unprocessed.smi:3217-2

> <Gold.Version>
5.8.1

> <Gold.Id.Protein>
6NUR|6NUR_protein|mol2

> <Gold.PLP.Fitness>
40.9106

> <Gold.PLP.PLP>
-33.2435

> <Gold.PLP.part.hbond>
-2.0000

> <Gold.PLP.part.metal>
0.0000

> <Gold.PLP.part.buried>
-6.5498

> <Gold.PLP.part.nonpolar>
-25.1990

> <Gold.PLP.part.repulsive>
0.4327

> <Gold.PLP.ligand.clash>
0.0000

> <Gold.PLP.ligand.torsion>
0.6507

> <Gold.PLP.Chemscore.Hbond>
2.0000

> <Gold.PLP.Chemscore.CHOScore>
0.9865

> <Gold.PLP.Chemscore.Metal>
0.0000

> <Gold.Chemscore.Hbonds>
donor molecule, donor type, donor heavy atom, donor atom, acceptor molecule, acceptor atom, score
      L1  H     3    22       P1  8028  1.00
      L1  H     6    23       P1  8028  1.00
      L1  C    12    27       P1  8029  0.90

> <Gold.PLP.Chemscore.Internal.Correction>
0.0088

> <Gold.Rescore>
     Score         DG    S(hbond)    S(metal)    S(lipo)     H(rot)  DE(clash)    DE(int)     intcor
     17.96     -18.81       1.88        0.00      86.94       1.22       0.18       0.67       ----

> <Gold.Chemscore.Fitness>
17.9550

> <Gold.Chemscore.DG>
-18.8072

> <Gold.Chemscore.ZeroCoef>
-5.4800

> <Gold.Chemscore.Hbond>
1.8826

> <Gold.Chemscore.Metal>
0.0000

> <Gold.Chemscore.Lipo>
86.9400

> <Gold.Chemscore.Internal_Hbond>
0.0000

> <Gold.Chemscore.DEClash>
0.1831

> <Gold.Chemscore.DEInternal>
0.6691

> <Gold.Chemscore.Rot>
1.2236

> <Gold.Chemscore.Internal.Correction>
   9.000000E+99

> <Gold.Chemscore.Hbonds>
donor molecule, donor type, donor heavy atom, donor atom, acceptor molecule, acceptor atom, score
      L1  H     3    22       P1  8028  0.96
      L1  H     6    23       P1  8028  0.91

> <Gold.Chemscore.Hbond.Weighted>
-6.2878

> <Gold.Chemscore.Metal.Weighted>
-0.0000

> <Gold.Chemscore.Lipo.Weighted>
-10.1720

> <Gold.Chemscore.Internal_Hbond.Weighted>
0.0000

> <Gold.Chemscore.DEClash.Weighted>
0.1831

> <Gold.Chemscore.DEInternal.Weighted>
0.6691

> <Gold.Chemscore.Rot.Weighted>
3.1325

> <Gold.Chemscore.Internal.Correction.Weighted>
   9.000000E+99

> <Gold.Protein.RotatedTorsions>
[ 6907 6896 6895 6894 ] final -113.06 input  -60.11 | X-H torsion
[ 7974 7965 7964 7962 ] final -138.84 input  175.53 | X-H torsion
[ 8008 7997 7996 7995 ] final  -74.22 input   59.86 | X-H torsion
[ 10167 10162 10161 10158 ] final  143.49 input  -65.29 | X-H torsion
[ 10718 10713 10712 10709 ] final  152.32 input   66.30 | X-H torsion
[ 10763 10752 10751 10750 ] final -163.45 input  -60.55 | X-H torsion
[ 11005 11000 10999 10996 ] final  157.27 input  -57.11 | X-H torsion

> <Gold.Protein.ActiveResidues>
 VAL166  LYS551  ARG553  GLY616  TRP617  ASP618  TYR619  PRO620  LYS621  CYS622 
 ASP623  PHE694  ASN695  SER759  ASP760  ASP761  ALA762  ILE779  LEU786  VAL792 
 PHE793  MET794  SER795  GLU796  ALA797  LYS798  CYS799  TRP800  GLU811  SER814 

> <Gold.Protein.RotatedAtoms>
  150.7802  133.8999  159.3337 H   0  0  0  0  0  0  0  0  0  0  0  0  # atno 6907 bound_to 6896
  151.6864  135.0952  160.0235 H   0  0  0  0  0  0  0  0  0  0  0  0  # atno 6908 bound_to 6896
  152.3851  133.6562  159.6228 H   0  0  0  0  0  0  0  0  0  0  0  0  # atno 6909 bound_to 6896
  144.8725  140.6389  143.5257 H   0  0  0  0  0  0  0  0  0  0  0  0  # atno 7974 bound_to 7965
  154.5312  140.0765  156.8349 H   0  0  0  0  0  0  0  0  0  0  0  0  # atno 8008 bound_to 7997
  155.3370  140.3405  155.4221 H   0  0  0  0  0  0  0  0  0  0  0  0  # atno 8009 bound_to 7997
  156.1783  140.1643  156.8308 H   0  0  0  0  0  0  0  0  0  0  0  0  # atno 8010 bound_to 7997
  139.4968  144.6037  151.6425 H   0  0  0  0  0  0  0  0  0  0  0  0  # atno 10167 bound_to 10162
  157.2594  131.0795  151.1676 H   0  0  0  0  0  0  0  0  0  0  0  0  # atno 10718 bound_to 10713
  154.7121  135.3008  154.9181 H   0  0  0  0  0  0  0  0  0  0  0  0  # atno 10763 bound_to 10752
  154.0079  135.6698  153.4767 H   0  0  0  0  0  0  0  0  0  0  0  0  # atno 10764 bound_to 10752
  153.0763  135.5033  154.8325 H   0  0  0  0  0  0  0  0  0  0  0  0  # atno 10765 bound_to 10752
  140.1754  134.8514  157.2740 H   0  0  0  0  0  0  0  0  0  0  0  0  # atno 11005 bound_to 11000
  145.4103  139.1581  143.4129 LP  0  0  0  0  0  0  0  0  0  0  0  0  # atno 17320 bound_to 7965
  146.2940  140.4206  142.8728 LP  0  0  0  0  0  0  0  0  0  0  0  0  # atno 17321 bound_to 7965
  140.5693  144.0136  150.6208 LP  0  0  0  0  0  0  0  0  0  0  0  0  # atno 17342 bound_to 10162
  140.3248  143.3114  152.0747 LP  0  0  0  0  0  0  0  0  0  0  0  0  # atno 17343 bound_to 10162
  157.3192  130.6929  149.6259 LP  0  0  0  0  0  0  0  0  0  0  0  0  # atno 17370 bound_to 10713
  155.9664  130.4340  150.5032 LP  0  0  0  0  0  0  0  0  0  0  0  0  # atno 17371 bound_to 10713
  140.2329  134.3888  155.7514 LP  0  0  0  0  0  0  0  0  0  0  0  0  # atno 17394 bound_to 11000
  141.2220  133.7224  156.8669 LP  0  0  0  0  0  0  0  0  0  0  0  0  # atno 17395 bound_to 11000

$$$$
