AV-unprocessed.smi:2339|AV-procd|sdf|9337|dock1
  -GOLD-   2272012553D 1   1.00000     0.00000
 Structure written by MMmdl.
 49 52  0  0  0  0  0  0  0  0  1 V2000
  151.1228  145.1213  159.9263 C   0  0  0  0  0  0  0  0  0  0  0  0
  151.8971  144.5453  161.1168 C   0  0  0  0  0  0  0  0  0  0  0  0
  152.3636  143.1910  160.8559 N   0  0  0  0  0  0  0  0  0  0  0  0
  153.2801  142.5688  161.6976 C   0  0  0  0  0  0  0  0  0  0  0  0
  153.8148  141.3541  161.4663 C   0  0  0  0  0  0  0  0  0  0  0  0
  153.4264  140.6122  160.2497 C   0  0  0  0  0  0  0  0  0  0  0  0
  153.8991  139.5028  160.0025 O   0  0  0  0  0  0  0  0  0  0  0  0
  152.4435  141.2753  159.3536 C   0  0  0  0  0  0  0  0  0  0  0  0
  152.0870  140.5720  158.1934 N   0  0  0  0  0  0  0  0  0  0  0  0
  151.3486  140.9803  157.1418 C   0  0  0  0  0  0  0  0  0  0  0  0
  150.7961  142.0739  157.0446 O   0  0  0  0  0  0  0  0  0  0  0  0
  151.2064  140.0433  156.1886 N   0  0  0  0  0  0  0  0  0  0  0  0
  150.4691  140.1607  154.9240 C   0  0  1  0  0  0  0  0  0  0  0  0
  150.2355  138.8095  154.2051 C   0  0  1  0  0  0  0  0  0  0  0  0
  150.9265  137.5267  154.6018 C   0  0  0  0  0  0  0  0  0  0  0  0
  149.8860  136.8393  155.4903 C   0  0  0  0  0  0  0  0  0  0  0  0
  149.0270  137.8910  155.9240 O   0  0  0  0  0  0  0  0  0  0  0  0
  148.8488  138.7845  154.8282 C   0  0  1  0  0  0  0  0  0  0  0  0
  148.9440  140.2901  155.1494 C   0  0  0  0  0  0  0  0  0  0  0  0
  148.3967  140.7642  156.4959 C   0  0  0  0  0  0  0  0  0  0  0  0
  146.9201  141.0953  156.2779 C   0  0  0  0  0  0  0  0  0  0  0  0
  146.8013  141.4648  154.7964 C   0  0  0  0  0  0  0  0  0  0  0  0
  148.1843  141.2049  154.1886 C   0  0  0  0  0  0  0  0  0  0  0  0
  151.9876  142.5050  159.7027 C   0  0  0  0  0  0  0  0  0  0  0  0
  150.7748  146.1310  160.1438 H   0  0  0  0  0  0  0  0  0  0  0  0
  150.2499  144.5116  159.6911 H   0  0  0  0  0  0  0  0  0  0  0  0
  151.7494  145.1706  159.0352 H   0  0  0  0  0  0  0  0  0  0  0  0
  152.7489  145.1857  161.3494 H   0  0  0  0  0  0  0  0  0  0  0  0
  151.2641  144.5466  162.0049 H   0  0  0  0  0  0  0  0  0  0  0  0
  153.5367  143.1412  162.5773 H   0  0  0  0  0  0  0  0  0  0  0  0
  154.5226  140.9095  162.1505 H   0  0  0  0  0  0  0  0  0  0  0  0
  152.4087  139.6151  158.1667 H   0  0  0  0  0  0  0  0  0  0  0  0
  151.5730  139.1257  156.3975 H   0  0  0  0  0  0  0  0  0  0  0  0
  150.8518  140.9362  154.2578 H   0  0  0  0  0  0  0  0  0  0  0  0
  150.1736  138.9561  153.1256 H   0  0  0  0  0  0  0  0  0  0  0  0
  151.1739  136.9084  153.7386 H   0  0  0  0  0  0  0  0  0  0  0  0
  151.8528  137.7048  155.1456 H   0  0  0  0  0  0  0  0  0  0  0  0
  149.3024  136.1222  154.9113 H   0  0  0  0  0  0  0  0  0  0  0  0
  150.3335  136.3140  156.3340 H   0  0  0  0  0  0  0  0  0  0  0  0
  148.0553  138.4834  154.1426 H   0  0  0  0  0  0  0  0  0  0  0  0
  148.5242  140.0275  157.2896 H   0  0  0  0  0  0  0  0  0  0  0  0
  148.9236  141.6647  156.8146 H   0  0  0  0  0  0  0  0  0  0  0  0
  146.3092  140.2160  156.4867 H   0  0  0  0  0  0  0  0  0  0  0  0
  146.5808  141.8960  156.9354 H   0  0  0  0  0  0  0  0  0  0  0  0
  146.0457  140.8431  154.3147 H   0  0  0  0  0  0  0  0  0  0  0  0
  146.5046  142.5055  154.6618 H   0  0  0  0  0  0  0  0  0  0  0  0
  148.7128  142.1535  154.0842 H   0  0  0  0  0  0  0  0  0  0  0  0
  148.1028  140.7823  153.1863 H   0  0  0  0  0  0  0  0  0  0  0  0
  151.2916  143.0647  159.0978 H   0  0  0  0  0  0  0  0  0  0  0  0
  1  2  1  0  0  0  0
  1 25  1  0  0  0  0
  1 26  1  0  0  0  0
  1 27  1  0  0  0  0
  2  3  1  0  0  0  0
  2 28  1  0  0  0  0
  2 29  1  0  0  0  0
  3 24  1  0  0  0  0
  3  4  1  0  0  0  0
  4  5  2  0  0  0  0
  4 30  1  0  0  0  0
  5  6  1  0  0  0  0
  5 31  1  0  0  0  0
  6  7  2  0  0  0  0
  6  8  1  0  0  0  0
  8  9  1  0  0  0  0
  8 24  2  0  0  0  0
  9 10  1  0  0  0  0
  9 32  1  0  0  0  0
 10 11  2  0  0  0  0
 10 12  1  0  0  0  0
 12 13  1  0  0  0  0
 12 33  1  0  0  0  0
 13 19  1  0  0  0  0
 13 14  1  0  0  0  0
 13 34  1  0  0  0  0
 14 18  1  0  0  0  0
 14 15  1  0  0  0  0
 14 35  1  0  0  0  0
 15 16  1  0  0  0  0
 15 36  1  0  0  0  0
 15 37  1  0  0  0  0
 16 17  1  0  0  0  0
 16 38  1  0  0  0  0
 16 39  1  0  0  0  0
 17 18  1  0  0  0  0
 18 19  1  0  0  0  0
 18 40  1  0  0  0  0
 19 23  1  0  0  0  0
 19 20  1  0  0  0  0
 20 21  1  0  0  0  0
 20 41  1  0  0  0  0
 20 42  1  0  0  0  0
 21 22  1  0  0  0  0
 21 43  1  0  0  0  0
 21 44  1  0  0  0  0
 22 23  1  0  0  0  0
 22 45  1  0  0  0  0
 22 46  1  0  0  0  0
 23 47  1  0  0  0  0
 23 48  1  0  0  0  0
 24 49  1  0  0  0  0
M  END
> <s_m_source_file>
AV-unprocessed.smi

> <i_m_source_file_index>
2339

> <i_lp_mmshare_version>
43012

> <i_f3d_flags>
0

> <s_epik_input>
W0NIM11bQ0gyXW4xW2NIXVtjSF1jKD1PKWMoW2NIXTEpW05IXUMoPU8pW05IXVtDQEBIXTJbQ0BASF0oW0NIMl1bQ0gyXU8zKVtDQEBIXTNDMjRbQ0gyXVtDSDJdW0NIMl1bQ0gyXTQ=

> <s_epik_cmdline>
J2VwaWtfcHl0aG9uJywgJy1waCcsICc3LjAnLCAnLXRuJywgJzgnLCAnLW1hJywgJzIwMCcsICctbWV0YWxfYmluZGluZycsICctaW1hZScsICc8aW5maWxlLm1hZT4nLCAnLW9tYWUnLCAnPG91dGZpbGUubWFlPic=

> <r_lp_tautomer_probability>
1

> <r_epik_Ionization_Penalty>
0.00145966

> <r_epik_Ionization_Penalty_Charging>
0.00143969

> <r_epik_Ionization_Penalty_Neutral>
1.99697e-05

> <r_epik_State_Penalty>
0.000961843

> <r_epik_Charging_Adjusted_Penalty>
0.00240153

> <i_epik_Tot_Q>
0

> <i_epik_Tot_abs_Q>
0

> <r_epik_Metal_State_Penalty>
-0

> <b_epik_Metal_Only>
0

> <s_lp_Force_Field>
OPLS_2005

> <r_lp_Energy>
59.7263

> <b_lp_Chiralities_Consistent>
1

> <s_lp_Variant>
AV-unprocessed.smi:2339-2

> <Gold.Version>
5.8.1

> <Gold.Id.Protein>
6NUR|6NUR_protein|mol2

> <Gold.PLP.Fitness>
47.4826

> <Gold.PLP.PLP>
-47.6620

> <Gold.PLP.part.hbond>
0.0000

> <Gold.PLP.part.metal>
0.0000

> <Gold.PLP.part.buried>
-3.4368

> <Gold.PLP.part.nonpolar>
-43.7385

> <Gold.PLP.part.repulsive>
0.3259

> <Gold.PLP.ligand.clash>
0.0000

> <Gold.PLP.ligand.torsion>
0.1929

> <Gold.PLP.Chemscore.Hbond>
0.0000

> <Gold.PLP.Chemscore.CHOScore>
0.0000

> <Gold.PLP.Chemscore.Metal>
0.0000

> <Gold.PLP.Chemscore.Internal.Correction>
0.2063

> <Gold.Rescore>
     Score         DG    S(hbond)    S(metal)    S(lipo)     H(rot)  DE(clash)    DE(int)     intcor
     12.59     -16.72       0.00        0.00     121.60       1.17       0.71       3.41       ----

> <Gold.Chemscore.Fitness>
12.5939

> <Gold.Chemscore.DG>
-16.7202

> <Gold.Chemscore.ZeroCoef>
-5.4800

> <Gold.Chemscore.Hbond>
0.0000

> <Gold.Chemscore.Metal>
0.0000

> <Gold.Chemscore.Lipo>
121.6038

> <Gold.Chemscore.Internal_Hbond>
0.0000

> <Gold.Chemscore.DEClash>
0.7125

> <Gold.Chemscore.DEInternal>
3.4138

> <Gold.Chemscore.Rot>
1.1670

> <Gold.Chemscore.Internal.Correction>
   9.000000E+99

> <Gold.Chemscore.Hbond.Weighted>
-0.0000

> <Gold.Chemscore.Metal.Weighted>
-0.0000

> <Gold.Chemscore.Lipo.Weighted>
-14.2276

> <Gold.Chemscore.Internal_Hbond.Weighted>
0.0000

> <Gold.Chemscore.DEClash.Weighted>
0.7125

> <Gold.Chemscore.DEInternal.Weighted>
3.4138

> <Gold.Chemscore.Rot.Weighted>
2.9874

> <Gold.Chemscore.Internal.Correction.Weighted>
   9.000000E+99

> <Gold.Protein.RotatedTorsions>
[ 6907 6896 6895 6894 ] final -165.14 input  -60.11 | X-H torsion
[ 7974 7965 7964 7962 ] final -114.55 input  175.53 | X-H torsion
[ 8008 7997 7996 7995 ] final   97.11 input   59.86 | X-H torsion
[ 10167 10162 10161 10158 ] final  -39.66 input  -65.29 | X-H torsion
[ 10718 10713 10712 10709 ] final  122.35 input   66.30 | X-H torsion
[ 10763 10752 10751 10750 ] final  -75.72 input  -60.55 | X-H torsion
[ 11005 11000 10999 10996 ] final   -5.38 input  -57.11 | X-H torsion

> <Gold.Protein.ActiveResidues>
 VAL166  LYS551  ARG553  GLY616  TRP617  ASP618  TYR619  PRO620  LYS621  CYS622 
 ASP623  PHE694  ASN695  SER759  ASP760  ASP761  ALA762  ILE779  LEU786  VAL792 
 PHE793  MET794  SER795  GLU796  ALA797  LYS798  CYS799  TRP800  GLU811  SER814 

> <Gold.Protein.RotatedAtoms>
  151.4229  133.3693  159.2758 H   0  0  0  0  0  0  0  0  0  0  0  0  # atno 6907 bound_to 6896
  150.9280  134.8698  159.7543 H   0  0  0  0  0  0  0  0  0  0  0  0  # atno 6908 bound_to 6896
  152.5014  134.4172  159.9520 H   0  0  0  0  0  0  0  0  0  0  0  0  # atno 6909 bound_to 6896
  145.1188  140.8656  143.3826 H   0  0  0  0  0  0  0  0  0  0  0  0  # atno 7974 bound_to 7965
  156.0867  140.3263  155.7763 H   0  0  0  0  0  0  0  0  0  0  0  0  # atno 8008 bound_to 7997
  155.5063  140.0573  157.2948 H   0  0  0  0  0  0  0  0  0  0  0  0  # atno 8009 bound_to 7997
  154.4613  140.1968  156.0252 H   0  0  0  0  0  0  0  0  0  0  0  0  # atno 8010 bound_to 7997
  140.7057  143.3201  151.2814 H   0  0  0  0  0  0  0  0  0  0  0  0  # atno 10167 bound_to 10162
  157.5749  131.1080  150.8298 H   0  0  0  0  0  0  0  0  0  0  0  0  # atno 10718 bound_to 10713
  154.4902  135.5822  153.6454 H   0  0  0  0  0  0  0  0  0  0  0  0  # atno 10763 bound_to 10752
  152.9861  135.6111  154.3134 H   0  0  0  0  0  0  0  0  0  0  0  0  # atno 10764 bound_to 10752
  154.3033  135.2846  155.2580 H   0  0  0  0  0  0  0  0  0  0  0  0  # atno 10765 bound_to 10752
  140.6905  133.9075  155.8615 H   0  0  0  0  0  0  0  0  0  0  0  0  # atno 11005 bound_to 11000
  145.0764  139.2993  143.5806 LP  0  0  0  0  0  0  0  0  0  0  0  0  # atno 17320 bound_to 7965
  146.3522  140.0255  142.8655 LP  0  0  0  0  0  0  0  0  0  0  0  0  # atno 17321 bound_to 7965
  139.6652  144.0118  152.2718 LP  0  0  0  0  0  0  0  0  0  0  0  0  # atno 17342 bound_to 10162
  139.9698  144.6501  150.7999 LP  0  0  0  0  0  0  0  0  0  0  0  0  # atno 17343 bound_to 10162
  156.8759  130.5162  149.5294 LP  0  0  0  0  0  0  0  0  0  0  0  0  # atno 17370 bound_to 10713
  156.0794  130.5808  150.9534 LP  0  0  0  0  0  0  0  0  0  0  0  0  # atno 17371 bound_to 10713
  141.0245  134.0843  157.4084 LP  0  0  0  0  0  0  0  0  0  0  0  0  # atno 17394 bound_to 11000
  139.8925  135.0125  156.6848 LP  0  0  0  0  0  0  0  0  0  0  0  0  # atno 17395 bound_to 11000

$$$$
