AV-unprocessed.smi:779|AV-procd|sdf|3705|dock2
  -GOLD-   22720 1123D 1   1.00000     0.00000
 Structure written by MMmdl.
 20 20  0  0  0  0  0  0  0  0  3 V2000
  153.0404  138.9492  155.2016 O   0  0  0  0  0  0  0  0  0  0  0  0
  151.9523  138.4828  154.7946 C   0  0  0  0  0  0  0  0  0  0  0  0
  151.8021  137.3681  154.2462 O   0  5  0  0  0  0  0  0  0  0  0  0
  150.6894  139.4173  155.0387 C   0  0  0  0  0  0  0  0  0  0  0  0
  149.6642  139.5293  154.1672 C   0  0  0  0  0  0  0  0  0  0  0  0
  148.5660  140.3727  154.3970 N   0  0  0  0  0  0  0  0  0  0  0  0
  147.5167  140.4168  153.3699 C   0  0  0  0  0  0  0  0  0  0  0  0
  147.0318  139.0035  153.0106 C   0  0  0  0  0  0  0  0  0  0  0  0
  147.3858  138.6968  151.6791 O   0  0  0  0  0  0  0  0  0  0  0  0
  148.5160  141.1354  155.5263 C   0  0  0  0  0  0  0  0  0  0  0  0
  147.5553  141.8880  155.6956 O   0  0  0  0  0  0  0  0  0  0  0  0
  149.5372  141.0395  156.4303 N   0  5  0  0  0  0  0  0  0  0  0  0
  150.6258  140.2281  156.2748 C   0  0  0  0  0  0  0  0  0  0  0  0
  151.4992  140.1893  157.1413 O   0  0  0  0  0  0  0  0  0  0  0  0
  149.6257  138.9865  153.2339 H   0  0  0  0  0  0  0  0  0  0  0  0
  146.6758  141.0143  153.7256 H   0  0  0  0  0  0  0  0  0  0  0  0
  147.8742  140.9323  152.4769 H   0  0  0  0  0  0  0  0  0  0  0  0
  147.4729  138.2604  153.6757 H   0  0  0  0  0  0  0  0  0  0  0  0
  145.9486  138.9315  153.1125 H   0  0  0  0  0  0  0  0  0  0  0  0
  147.6939  137.8040  151.6513 H   0  0  0  0  0  0  0  0  0  0  0  0
  1  2  2  0  0  0  0
  2  3  1  0  0  0  0
  2  4  1  0  0  0  0
  4 13  1  0  0  0  0
  4  5  2  0  0  0  0
  5  6  1  0  0  0  0
  5 15  1  0  0  0  0
  6  7  1  0  0  0  0
  6 10  1  0  0  0  0
  7  8  1  0  0  0  0
  7 16  1  0  0  0  0
  7 17  1  0  0  0  0
  8  9  1  0  0  0  0
  8 18  1  0  0  0  0
  8 19  1  0  0  0  0
  9 20  1  0  0  0  0
 10 11  2  0  0  0  0
 10 12  1  0  0  0  0
 12 13  1  0  0  0  0
 13 14  2  0  0  0  0
M  CHG  1   3  -1
M  CHG  1  12  -1
M  END
> <s_m_source_file>
AV-unprocessed.smi

> <i_m_source_file_index>
779

> <i_lp_mmshare_version>
43012

> <i_f3d_flags>
0

> <s_epik_input>
Tz1DKFtPSF0pYzFbY0hdbihbQ0gyXVtDSDJdW09IXSljKD1PKVtuSF1jMT1P

> <s_epik_cmdline>
J2VwaWtfcHl0aG9uJywgJy1waCcsICc3LjAnLCAnLXRuJywgJzgnLCAnLW1hJywgJzIwMCcsICctbWV0YWxfYmluZGluZycsICctaW1hZScsICc8aW5maWxlLm1hZT4nLCAnLW9tYWUnLCAnPG91dGZpbGUubWFlPic=

> <r_lp_tautomer_probability>
1

> <r_epik_Ionization_Penalty>
3.89082

> <r_epik_Ionization_Penalty_Charging>
0.00124607

> <r_epik_Ionization_Penalty_Neutral>
3.88958

> <r_epik_State_Penalty>
3.88874

> <r_epik_Charging_Adjusted_Penalty>
3.88999

> <i_epik_Tot_Q>
-2

> <i_epik_Tot_abs_Q>
2

> <r_epik_Metal_State_Penalty>
0.317414

> <b_epik_Metal_Only>
1

> <s_lp_Force_Field>
OPLS_2005

> <r_lp_Energy>
29.4188

> <b_lp_Chiralities_Consistent>
1

> <s_lp_Variant>
AV-unprocessed.smi:779-2

> <Gold.Version>
5.8.1

> <Gold.Id.Protein>
6NUR|6NUR_protein|mol2

> <Gold.PLP.Fitness>
40.7490

> <Gold.PLP.PLP>
-25.2721

> <Gold.PLP.part.hbond>
-5.0000

> <Gold.PLP.part.metal>
0.0000

> <Gold.PLP.part.buried>
-1.5306

> <Gold.PLP.part.nonpolar>
-20.1841

> <Gold.PLP.part.repulsive>
1.1927

> <Gold.PLP.ligand.clash>
0.0000

> <Gold.PLP.ligand.torsion>
0.9764

> <Gold.PLP.Chemscore.Hbond>
4.9840

> <Gold.PLP.Chemscore.CHOScore>
0.8248

> <Gold.PLP.Chemscore.Metal>
0.0000

> <Gold.Chemscore.Hbonds>
donor molecule, donor type, donor heavy atom, donor atom, acceptor molecule, acceptor atom, score
      L1  H     9    20       P1  7948  1.00
      P1  H  7997  8009       L1     1  2.00
      P1  H 10752 10763       L1     3  1.92
      L1  C     5    15       P1  7957  0.87

> <Gold.PLP.Chemscore.Internal.Correction>
0.0034

> <Gold.Rescore>
     Score         DG    S(hbond)    S(metal)    S(lipo)     H(rot)  DE(clash)    DE(int)     intcor
     10.36     -12.94       2.87        0.00      29.14       2.17       0.20       2.37       ----

> <Gold.Chemscore.Fitness>
10.3648

> <Gold.Chemscore.DG>
-12.9363

> <Gold.Chemscore.ZeroCoef>
-5.4800

> <Gold.Chemscore.Hbond>
2.8723

> <Gold.Chemscore.Metal>
0.0000

> <Gold.Chemscore.Lipo>
29.1414

> <Gold.Chemscore.Internal_Hbond>
0.0000

> <Gold.Chemscore.DEClash>
0.2041

> <Gold.Chemscore.DEInternal>
2.3673

> <Gold.Chemscore.Rot>
2.1667

> <Gold.Chemscore.Internal.Correction>
   9.000000E+99

> <Gold.Chemscore.Hbonds>
donor molecule, donor type, donor heavy atom, donor atom, acceptor molecule, acceptor atom, score
      L1  H     9    20       P1  7948  0.96
      P1  H  7997  8009       L1     1  0.96
      P1  H 10752 10763       L1     3  0.87

> <Gold.Chemscore.Hbond.Weighted>
-9.5934

> <Gold.Chemscore.Metal.Weighted>
-0.0000

> <Gold.Chemscore.Lipo.Weighted>
-3.4095

> <Gold.Chemscore.Internal_Hbond.Weighted>
0.0000

> <Gold.Chemscore.DEClash.Weighted>
0.2041

> <Gold.Chemscore.DEInternal.Weighted>
2.3673

> <Gold.Chemscore.Rot.Weighted>
5.5467

> <Gold.Chemscore.Internal.Correction.Weighted>
   9.000000E+99

> <Gold.Protein.RotatedTorsions>
[ 6907 6896 6895 6894 ] final  177.36 input  -60.11 | X-H torsion
[ 7974 7965 7964 7962 ] final -163.54 input  175.53 | X-H torsion
[ 8008 7997 7996 7995 ] final -139.64 input   59.86 | X-H torsion
[ 10167 10162 10161 10158 ] final  -74.21 input  -65.29 | X-H torsion
[ 10718 10713 10712 10709 ] final  -73.33 input   66.30 | X-H torsion
[ 10763 10752 10751 10750 ] final   34.00 input  -60.55 | X-H torsion
[ 11005 11000 10999 10996 ] final  133.47 input  -57.11 | X-H torsion

> <Gold.Protein.ActiveResidues>
 VAL166  LYS551  ARG553  GLY616  TRP617  ASP618  TYR619  PRO620  LYS621  CYS622 
 ASP623  PHE694  ASN695  SER759  ASP760  ASP761  ALA762  ILE779  LEU786  VAL792 
 PHE793  MET794  SER795  GLU796  ALA797  LYS798  CYS799  TRP800  GLU811  SER814 

> <Gold.Protein.RotatedAtoms>
  151.7053  133.3311  159.3276 H   0  0  0  0  0  0  0  0  0  0  0  0  # atno 6907 bound_to 6896
  150.7718  134.6580  159.6333 H   0  0  0  0  0  0  0  0  0  0  0  0  # atno 6908 bound_to 6896
  152.3745  134.6687  160.0216 H   0  0  0  0  0  0  0  0  0  0  0  0  # atno 6909 bound_to 6896
  144.7323  140.3092  143.6191 H   0  0  0  0  0  0  0  0  0  0  0  0  # atno 7974 bound_to 7965
  155.4483  140.0537  157.3004 H   0  0  0  0  0  0  0  0  0  0  0  0  # atno 8008 bound_to 7997
  154.4788  140.2072  155.9769 H   0  0  0  0  0  0  0  0  0  0  0  0  # atno 8009 bound_to 7997
  156.1174  140.3194  155.8164 H   0  0  0  0  0  0  0  0  0  0  0  0  # atno 8010 bound_to 7997
  140.5046  143.2355  151.7695 H   0  0  0  0  0  0  0  0  0  0  0  0  # atno 10167 bound_to 10162
  156.0284  130.4392  150.2727 H   0  0  0  0  0  0  0  0  0  0  0  0  # atno 10718 bound_to 10713
  153.0185  135.6372  154.1600 H   0  0  0  0  0  0  0  0  0  0  0  0  # atno 10763 bound_to 10752
  154.1336  135.2839  155.3180 H   0  0  0  0  0  0  0  0  0  0  0  0  # atno 10764 bound_to 10752
  154.6176  135.5535  153.7602 H   0  0  0  0  0  0  0  0  0  0  0  0  # atno 10765 bound_to 10752
  139.9853  134.9534  156.9729 H   0  0  0  0  0  0  0  0  0  0  0  0  # atno 11005 bound_to 11000
  145.7682  139.1848  143.2228 LP  0  0  0  0  0  0  0  0  0  0  0  0  # atno 17320 bound_to 7965
  146.0932  140.7631  142.9585 LP  0  0  0  0  0  0  0  0  0  0  0  0  # atno 17321 bound_to 7965
  139.4880  144.4475  151.9693 LP  0  0  0  0  0  0  0  0  0  0  0  0  # atno 17342 bound_to 10162
  140.3565  144.3025  150.5940 LP  0  0  0  0  0  0  0  0  0  0  0  0  # atno 17343 bound_to 10162
  157.0830  131.0148  151.3149 LP  0  0  0  0  0  0  0  0  0  0  0  0  # atno 17370 bound_to 10713
  157.4913  130.7823  149.7510 LP  0  0  0  0  0  0  0  0  0  0  0  0  # atno 17371 bound_to 10713
  140.5014  134.1093  155.7251 LP  0  0  0  0  0  0  0  0  0  0  0  0  # atno 17394 bound_to 11000
  141.1519  133.8953  157.2075 LP  0  0  0  0  0  0  0  0  0  0  0  0  # atno 17395 bound_to 11000

$$$$
