AV-unprocessed.smi:2119|AV-procd|sdf|8633|dock6
  -GOLD-   2272011383D 1   1.00000     0.00000
 Structure written by MMmdl.
 47 49  0  0  0  0  0  0  0  0  1 V2000
  144.6523  137.3961  152.4674 O   0  0  0  0  0  0  0  0  0  0  0  0
  145.7846  136.9360  152.3250 C   0  0  0  0  0  0  0  0  0  0  0  0
  146.9032  137.6535  152.4965 N   0  0  0  0  0  0  0  0  0  0  0  0
  146.9534  139.0749  152.8193 C   0  0  0  0  0  0  0  0  0  0  0  0
  147.0142  139.3306  154.3513 C   0  0  1  0  0  0  0  0  0  0  0  0
  148.4776  139.3999  154.8808 C   0  0  1  0  0  0  0  0  0  0  0  0
  149.3522  138.2344  154.4446 C   0  0  0  0  0  0  0  0  0  0  0  0
  150.7539  138.7702  154.7002 C   0  0  0  0  0  0  0  0  0  0  0  0
  150.6818  140.1495  154.3686 O   0  0  0  0  0  0  0  0  0  0  0  0
  149.3231  140.5786  154.3747 C   0  0  0  0  0  0  0  0  0  0  0  0
  146.2251  140.4983  154.7833 N   0  0  0  0  0  0  0  0  0  0  0  0
  146.5471  141.7325  154.0719 C   0  0  0  0  0  0  0  0  0  0  0  0
  145.5896  142.8717  154.4607 C   0  0  0  0  0  0  0  0  0  0  0  0
  145.6253  143.0643  155.8717 O   0  0  0  0  0  0  0  0  0  0  0  0
  145.2689  141.8918  156.5981 C   0  0  0  0  0  0  0  0  0  0  0  0
  146.2191  140.7409  156.2253 C   0  0  0  0  0  0  0  0  0  0  0  0
  146.0729  135.6658  151.9944 N   0  0  0  0  0  0  0  0  0  0  0  0
  145.1805  134.6097  151.6658 C   0  0  0  0  0  0  0  0  0  0  0  0
  145.6650  133.5671  150.8493 C   0  0  0  0  0  0  0  0  0  0  0  0
  144.7985  132.5178  150.4887 C   0  0  0  0  0  0  0  0  0  0  0  0
  143.4703  132.5567  150.9546 C   0  0  0  0  0  0  0  0  0  0  0  0
  142.9855  133.5528  151.7252 N   0  0  0  0  0  0  0  0  0  0  0  0
  143.8225  134.5558  152.0686 C   0  0  0  0  0  0  0  0  0  0  0  0
  147.7894  137.1866  152.3717 H   0  0  0  0  0  0  0  0  0  0  0  0
  147.8073  139.5507  152.3342 H   0  0  0  0  0  0  0  0  0  0  0  0
  146.0630  139.5191  152.3775 H   0  0  0  0  0  0  0  0  0  0  0  0
  146.5629  138.4617  154.8327 H   0  0  0  0  0  0  0  0  0  0  0  0
  148.4741  139.4323  155.9713 H   0  0  0  0  0  0  0  0  0  0  0  0
  149.1515  137.3155  154.9968 H   0  0  0  0  0  0  0  0  0  0  0  0
  149.2164  138.0306  153.3814 H   0  0  0  0  0  0  0  0  0  0  0  0
  151.0116  138.6746  155.7559 H   0  0  0  0  0  0  0  0  0  0  0  0
  151.5156  138.2555  154.1144 H   0  0  0  0  0  0  0  0  0  0  0  0
  149.0508  140.8472  153.3534 H   0  0  0  0  0  0  0  0  0  0  0  0
  149.2096  141.4648  154.9993 H   0  0  0  0  0  0  0  0  0  0  0  0
  147.5666  142.0465  154.2930 H   0  0  0  0  0  0  0  0  0  0  0  0
  146.4936  141.5672  152.9953 H   0  0  0  0  0  0  0  0  0  0  0  0
  145.8826  143.7980  153.9664 H   0  0  0  0  0  0  0  0  0  0  0  0
  144.5703  142.6465  154.1431 H   0  0  0  0  0  0  0  0  0  0  0  0
  145.3273  142.1010  157.6662 H   0  0  0  0  0  0  0  0  0  0  0  0
  144.2343  141.6220  156.3808 H   0  0  0  0  0  0  0  0  0  0  0  0
  145.9152  139.8439  156.7636 H   0  0  0  0  0  0  0  0  0  0  0  0
  147.2243  140.9885  156.5682 H   0  0  0  0  0  0  0  0  0  0  0  0
  147.0510  135.4161  152.0038 H   0  0  0  0  0  0  0  0  0  0  0  0
  146.6885  133.5670  150.5036 H   0  0  0  0  0  0  0  0  0  0  0  0
  145.1431  131.7035  149.8685 H   0  0  0  0  0  0  0  0  0  0  0  0
  142.7774  131.7693  150.6969 H   0  0  0  0  0  0  0  0  0  0  0  0
  143.3688  135.3342  152.6614 H   0  0  0  0  0  0  0  0  0  0  0  0
  1  2  2  0  0  0  0
  2  3  1  0  0  0  0
  2 17  1  0  0  0  0
  3  4  1  0  0  0  0
  3 24  1  0  0  0  0
  4  5  1  0  0  0  0
  4 25  1  0  0  0  0
  4 26  1  0  0  0  0
  5  6  1  0  0  0  0
  5 11  1  0  0  0  0
  5 27  1  0  0  0  0
  6 10  1  0  0  0  0
  6  7  1  0  0  0  0
  6 28  1  0  0  0  0
  7  8  1  0  0  0  0
  7 29  1  0  0  0  0
  7 30  1  0  0  0  0
  8  9  1  0  0  0  0
  8 31  1  0  0  0  0
  8 32  1  0  0  0  0
  9 10  1  0  0  0  0
 10 33  1  0  0  0  0
 10 34  1  0  0  0  0
 11 16  1  0  0  0  0
 11 12  1  0  0  0  0
 12 13  1  0  0  0  0
 12 35  1  0  0  0  0
 12 36  1  0  0  0  0
 13 14  1  0  0  0  0
 13 37  1  0  0  0  0
 13 38  1  0  0  0  0
 14 15  1  0  0  0  0
 15 16  1  0  0  0  0
 15 39  1  0  0  0  0
 15 40  1  0  0  0  0
 16 41  1  0  0  0  0
 16 42  1  0  0  0  0
 17 18  1  0  0  0  0
 17 43  1  0  0  0  0
 18 23  1  0  0  0  0
 18 19  2  0  0  0  0
 19 20  1  0  0  0  0
 19 44  1  0  0  0  0
 20 21  2  0  0  0  0
 20 45  1  0  0  0  0
 21 22  1  0  0  0  0
 21 46  1  0  0  0  0
 22 23  2  0  0  0  0
 23 47  1  0  0  0  0
M  END
> <s_m_source_file>
AV-unprocessed.smi

> <i_m_source_file_index>
2119

> <i_lp_mmshare_version>
43012

> <i_f3d_flags>
0

> <s_epik_input>
W2NIXTFuW2NIXVtjSF1bY0hdYzFbTkhdQyg9TylbTkhdW0NIMl1bQ0BIXShbQ0BASF0yW0NIMl1bQ0gyXU9bQ0gyXTIpTjNbQ0gyXVtDSDJdT1tDSDJdW0NIMl0z

> <s_epik_cmdline>
J2VwaWtfcHl0aG9uJywgJy1waCcsICc3LjAnLCAnLXRuJywgJzgnLCAnLW1hJywgJzIwMCcsICctbWV0YWxfYmluZGluZycsICctaW1hZScsICc8aW5maWxlLm1hZT4nLCAnLW9tYWUnLCAnPG91dGZpbGUubWFlPic=

> <r_epik_Ionization_Penalty>
0.129787

> <r_epik_Ionization_Penalty_Charging>
0

> <r_epik_Ionization_Penalty_Neutral>
0.129787

> <r_epik_State_Penalty>
0.121311

> <r_epik_Charging_Adjusted_Penalty>
0.121311

> <i_epik_Tot_Q>
0

> <i_epik_Tot_abs_Q>
0

> <r_epik_Metal_State_Penalty>
0.117931

> <b_epik_Metal_Only>
0

> <s_lp_Force_Field>
OPLS_2005

> <r_lp_Energy>
52.557

> <b_lp_Chiralities_Consistent>
1

> <s_lp_Variant>
AV-unprocessed.smi:2119-4

> <Gold.Version>
5.8.1

> <Gold.Id.Protein>
6NUR|6NUR_protein|mol2

> <Gold.PLP.Fitness>
43.9668

> <Gold.PLP.PLP>
-35.1326

> <Gold.PLP.part.hbond>
-2.8962

> <Gold.PLP.part.metal>
0.0000

> <Gold.PLP.part.buried>
-8.3862

> <Gold.PLP.part.nonpolar>
-27.9009

> <Gold.PLP.part.repulsive>
2.2089

> <Gold.PLP.ligand.clash>
0.0000

> <Gold.PLP.ligand.torsion>
0.8771

> <Gold.PLP.Chemscore.Hbond>
2.8230

> <Gold.PLP.Chemscore.CHOScore>
0.6208

> <Gold.PLP.Chemscore.Metal>
0.0000

> <Gold.Chemscore.Hbonds>
donor molecule, donor type, donor heavy atom, donor atom, acceptor molecule, acceptor atom, score
      L1  H     3    24       P1  7948  1.00
      L1  H    17    43       P1  7948  0.84
      P1  H  7989  7998       L1     9  0.86
      L1  C    21    46       P1 10952  0.67

> <Gold.PLP.Chemscore.Internal.Correction>
0.2569

> <Gold.Rescore>
     Score         DG    S(hbond)    S(metal)    S(lipo)     H(rot)  DE(clash)    DE(int)     intcor
     17.94     -19.97       2.72        0.00      82.33       1.65       0.00       2.03       ----

> <Gold.Chemscore.Fitness>
17.9383

> <Gold.Chemscore.DG>
-19.9703

> <Gold.Chemscore.ZeroCoef>
-5.4800

> <Gold.Chemscore.Hbond>
2.7196

> <Gold.Chemscore.Metal>
0.0000

> <Gold.Chemscore.Lipo>
82.3348

> <Gold.Chemscore.Internal_Hbond>
0.0000

> <Gold.Chemscore.DEClash>
0.0015

> <Gold.Chemscore.DEInternal>
2.0305

> <Gold.Chemscore.Rot>
1.6508

> <Gold.Chemscore.Internal.Correction>
   9.000000E+99

> <Gold.Chemscore.Hbonds>
donor molecule, donor type, donor heavy atom, donor atom, acceptor molecule, acceptor atom, score
      L1  H     3    24       P1  7948  0.97
      L1  H    17    43       P1  7948  0.77
      P1  H  7989  7998       L1     9  0.80

> <Gold.Chemscore.Hbond.Weighted>
-9.0833

> <Gold.Chemscore.Metal.Weighted>
-0.0000

> <Gold.Chemscore.Lipo.Weighted>
-9.6332

> <Gold.Chemscore.Internal_Hbond.Weighted>
0.0000

> <Gold.Chemscore.DEClash.Weighted>
0.0015

> <Gold.Chemscore.DEInternal.Weighted>
2.0305

> <Gold.Chemscore.Rot.Weighted>
4.2262

> <Gold.Chemscore.Internal.Correction.Weighted>
   9.000000E+99

> <Gold.Protein.RotatedTorsions>
[ 6907 6896 6895 6894 ] final  109.25 input  -60.11 | X-H torsion
[ 7974 7965 7964 7962 ] final   75.53 input  175.53 | X-H torsion
[ 8008 7997 7996 7995 ] final -144.19 input   59.86 | X-H torsion
[ 10167 10162 10161 10158 ] final  129.79 input  -65.29 | X-H torsion
[ 10718 10713 10712 10709 ] final  -62.31 input   66.30 | X-H torsion
[ 10763 10752 10751 10750 ] final  -54.18 input  -60.55 | X-H torsion
[ 11005 11000 10999 10996 ] final -172.98 input  -57.11 | X-H torsion

> <Gold.Protein.ActiveResidues>
 VAL166  LYS551  ARG553  GLY616  TRP617  ASP618  TYR619  PRO620  LYS621  CYS622 
 ASP623  PHE694  ASN695  SER759  ASP760  ASP761  ALA762  ILE779  LEU786  VAL792 
 PHE793  MET794  SER795  GLU796  ALA797  LYS798  CYS799  TRP800  GLU811  SER814 

> <Gold.Protein.RotatedAtoms>
  152.5075  133.8970  159.7422 H   0  0  0  0  0  0  0  0  0  0  0  0  # atno 6907 bound_to 6896
  150.9395  133.6664  159.2800 H   0  0  0  0  0  0  0  0  0  0  0  0  # atno 6908 bound_to 6896
  151.3980  135.0971  159.9599 H   0  0  0  0  0  0  0  0  0  0  0  0  # atno 6909 bound_to 6896
  145.7144  139.2626  143.1632 H   0  0  0  0  0  0  0  0  0  0  0  0  # atno 7974 bound_to 7965
  155.5229  140.0593  157.2903 H   0  0  0  0  0  0  0  0  0  0  0  0  # atno 8008 bound_to 7997
  154.4511  140.1949  156.0462 H   0  0  0  0  0  0  0  0  0  0  0  0  # atno 8009 bound_to 7997
  156.0706  140.3260  155.7575 H   0  0  0  0  0  0  0  0  0  0  0  0  # atno 8010 bound_to 7997
  139.5461  144.6774  151.4470 H   0  0  0  0  0  0  0  0  0  0  0  0  # atno 10167 bound_to 10162
  156.0864  130.4207  150.1117 H   0  0  0  0  0  0  0  0  0  0  0  0  # atno 10718 bound_to 10713
  154.1707  135.6459  153.5009 H   0  0  0  0  0  0  0  0  0  0  0  0  # atno 10763 bound_to 10752
  153.0085  135.5382  154.6616 H   0  0  0  0  0  0  0  0  0  0  0  0  # atno 10764 bound_to 10752
  154.5954  135.2938  155.0564 H   0  0  0  0  0  0  0  0  0  0  0  0  # atno 10765 bound_to 10752
  140.4909  134.5986  157.4954 H   0  0  0  0  0  0  0  0  0  0  0  0  # atno 11005 bound_to 11000
  146.0683  140.7897  142.9701 LP  0  0  0  0  0  0  0  0  0  0  0  0  # atno 17320 bound_to 7965
  144.6933  140.3302  143.7217 LP  0  0  0  0  0  0  0  0  0  0  0  0  # atno 17321 bound_to 7965
  140.6709  143.8296  150.6998 LP  0  0  0  0  0  0  0  0  0  0  0  0  # atno 17342 bound_to 10162
  140.1720  143.4187  152.1994 LP  0  0  0  0  0  0  0  0  0  0  0  0  # atno 17343 bound_to 10162
  156.9137  130.9660  151.3559 LP  0  0  0  0  0  0  0  0  0  0  0  0  # atno 17370 bound_to 10713
  157.5999  130.8505  149.8786 LP  0  0  0  0  0  0  0  0  0  0  0  0  # atno 17371 bound_to 10713
  139.9770  134.7199  155.9931 LP  0  0  0  0  0  0  0  0  0  0  0  0  # atno 17394 bound_to 11000
  141.1485  133.6552  156.3939 LP  0  0  0  0  0  0  0  0  0  0  0  0  # atno 17395 bound_to 11000

$$$$
