AV-unprocessed.smi:1740|AV-procd|sdf|7013|dock5
  -GOLD-   22720 8233D 1   1.00000     0.00000
 Structure written by MMmdl.
 51 53  0  0  0  0  0  0  0  0  3 V2000
  142.9964  138.5500  154.3497 N   0  5  0  0  0  0  0  0  0  0  0  0
  144.0735  138.6409  155.1553 C   0  0  0  0  0  0  0  0  0  0  0  0
  144.8002  137.7323  155.5503 O   0  0  0  0  0  0  0  0  0  0  0  0
  144.3592  140.0832  155.5878 C   0  0  0  0  0  0  0  0  0  0  0  0
  145.3696  140.7144  154.7001 N   0  3  2  0  0  0  0  0  0  0  0  0
  146.6276  139.9284  154.6322 C   0  0  0  0  0  0  0  0  0  0  0  0
  147.6064  140.5259  153.6051 C   0  0  0  0  0  0  0  0  0  0  0  0
  147.9072  142.0093  153.8927 C   0  0  2  0  0  0  0  0  0  0  0  0
  148.7018  142.1687  155.1098 N   0  0  0  0  0  0  0  0  0  0  0  0
  149.6834  141.3498  155.5128 C   0  0  0  0  0  0  0  0  0  0  0  0
  150.0514  140.3646  154.8740 O   0  0  0  0  0  0  0  0  0  0  0  0
  150.1973  141.7600  156.6842 N   0  0  0  0  0  0  0  0  0  0  0  0
  151.2651  141.2010  157.4444 C   0  0  0  0  0  0  0  0  0  0  0  0
  151.6844  139.8566  157.2861 C   0  0  0  0  0  0  0  0  0  0  0  0
  152.7014  139.3488  158.1128 C   0  0  0  0  0  0  0  0  0  0  0  0
  153.2555  140.1981  159.0843 C   0  0  0  0  0  0  0  0  0  0  0  0
  152.8599  141.4746  159.2571 N   0  0  0  0  0  0  0  0  0  0  0  0
  151.8911  141.9836  158.4571 C   0  0  0  0  0  0  0  0  0  0  0  0
  151.5269  143.3325  158.6722 N   0  0  0  0  0  0  0  0  0  0  0  0
  152.4634  144.1776  159.4075 C   0  0  0  0  0  0  0  0  0  0  0  0
  151.6147  145.1169  160.2712 C   0  0  0  0  0  0  0  0  0  0  0  0
  150.2522  145.1071  159.5850 C   0  0  0  0  0  0  0  0  0  0  0  0
  150.1631  143.6774  159.0598 C   0  0  0  0  0  0  0  0  0  0  0  0
  146.5854  142.7871  154.0087 C   0  0  0  0  0  0  0  0  0  0  0  0
  145.6254  142.1435  155.0261 C   0  0  0  0  0  0  0  0  0  0  0  0
  142.9724  139.1196  153.4950 H   0  0  0  0  0  0  0  0  0  0  0  0
  143.4404  140.6717  155.5961 H   0  0  0  0  0  0  0  0  0  0  0  0
  144.7206  140.0575  156.6174 H   0  0  0  0  0  0  0  0  0  0  0  0
  147.0884  139.8908  155.6206 H   0  0  0  0  0  0  0  0  0  0  0  0
  146.4016  138.8995  154.3503 H   0  0  0  0  0  0  0  0  0  0  0  0
  148.5288  139.9441  153.5845 H   0  0  0  0  0  0  0  0  0  0  0  0
  147.1726  140.4366  152.6082 H   0  0  0  0  0  0  0  0  0  0  0  0
  148.4734  142.4250  153.0570 H   0  0  0  0  0  0  0  0  0  0  0  0
  148.4797  142.9599  155.6961 H   0  0  0  0  0  0  0  0  0  0  0  0
  149.8325  142.6300  157.0435 H   0  0  0  0  0  0  0  0  0  0  0  0
  151.2324  139.1951  156.5641 H   0  0  0  0  0  0  0  0  0  0  0  0
  153.0388  138.3279  158.0125 H   0  0  0  0  0  0  0  0  0  0  0  0
  154.0324  139.8421  159.7446 H   0  0  0  0  0  0  0  0  0  0  0  0
  153.1547  143.5928  160.0159 H   0  0  0  0  0  0  0  0  0  0  0  0
  153.0487  144.7580  158.6940 H   0  0  0  0  0  0  0  0  0  0  0  0
  151.5199  144.7044  161.2765 H   0  0  0  0  0  0  0  0  0  0  0  0
  152.0418  146.1161  160.3575 H   0  0  0  0  0  0  0  0  0  0  0  0
  149.4323  145.3653  160.2558 H   0  0  0  0  0  0  0  0  0  0  0  0
  150.2480  145.8126  158.7529 H   0  0  0  0  0  0  0  0  0  0  0  0
  149.4781  143.5979  158.2151 H   0  0  0  0  0  0  0  0  0  0  0  0
  149.8052  143.0219  159.8548 H   0  0  0  0  0  0  0  0  0  0  0  0
  146.7796  143.8252  154.2808 H   0  0  0  0  0  0  0  0  0  0  0  0
  146.0999  142.8162  153.0320 H   0  0  0  0  0  0  0  0  0  0  0  0
  144.6887  142.7016  155.0283 H   0  0  0  0  0  0  0  0  0  0  0  0
  146.0356  142.2194  156.0342 H   0  0  0  0  0  0  0  0  0  0  0  0
  144.9645  140.6887  153.7743 H   0  0  0  0  0  0  0  0  0  0  0  0
  1  2  1  0  0  0  0
  1 26  1  0  0  0  0
  2  3  2  0  0  0  0
  2  4  1  0  0  0  0
  4  5  1  0  0  0  0
  4 27  1  0  0  0  0
  4 28  1  0  0  0  0
  5 25  1  0  0  0  0
  5  6  1  0  0  0  0
  5 51  1  0  0  0  0
  6  7  1  0  0  0  0
  6 29  1  0  0  0  0
  6 30  1  0  0  0  0
  7  8  1  0  0  0  0
  7 31  1  0  0  0  0
  7 32  1  0  0  0  0
  8  9  1  0  0  0  0
  8 24  1  0  0  0  0
  8 33  1  0  0  0  0
  9 10  1  0  0  0  0
  9 34  1  0  0  0  0
 10 11  2  0  0  0  0
 10 12  1  0  0  0  0
 12 13  1  0  0  0  0
 12 35  1  0  0  0  0
 13 18  1  0  0  0  0
 13 14  2  0  0  0  0
 14 15  1  0  0  0  0
 14 36  1  0  0  0  0
 15 16  2  0  0  0  0
 15 37  1  0  0  0  0
 16 17  1  0  0  0  0
 16 38  1  0  0  0  0
 17 18  2  0  0  0  0
 18 19  1  0  0  0  0
 19 23  1  0  0  0  0
 19 20  1  0  0  0  0
 20 21  1  0  0  0  0
 20 39  1  0  0  0  0
 20 40  1  0  0  0  0
 21 22  1  0  0  0  0
 21 41  1  0  0  0  0
 21 42  1  0  0  0  0
 22 23  1  0  0  0  0
 22 43  1  0  0  0  0
 22 44  1  0  0  0  0
 23 45  1  0  0  0  0
 23 46  1  0  0  0  0
 24 25  1  0  0  0  0
 24 47  1  0  0  0  0
 24 48  1  0  0  0  0
 25 49  1  0  0  0  0
 25 50  1  0  0  0  0
M  CHG  1   1  -1
M  CHG  1   5   1
M  END
> <s_m_source_file>
AV-unprocessed.smi

> <i_m_source_file_index>
1740

> <i_lp_mmshare_version>
43012

> <i_f3d_flags>
0

> <s_epik_input>
W05IMl1DKD1PKVtDSDJdTjFbQ0gyXVtDSDJdW0NIXShbQ0gyXVtDSDJdMSlbTkhdQyg9TylbTkhdYzJbY0hdW2NIXVtjSF1uYzJOM1tDSDJdW0NIMl1bQ0gyXVtDSDJdMw==

> <s_epik_cmdline>
J2VwaWtfcHl0aG9uJywgJy1waCcsICc3LjAnLCAnLXRuJywgJzgnLCAnLW1hJywgJzIwMCcsICctbWV0YWxfYmluZGluZycsICctaW1hZScsICc8aW5maWxlLm1hZT4nLCAnLW9tYWUnLCAnPG91dGZpbGUubWFlPic=

> <r_lp_tautomer_probability>
1

> <r_epik_Ionization_Penalty>
5.80652

> <r_epik_Ionization_Penalty_Charging>
5.7288

> <r_epik_Ionization_Penalty_Neutral>
0.0777157

> <r_epik_State_Penalty>
6.60246

> <r_epik_Charging_Adjusted_Penalty>
12.3313

> <i_epik_Tot_Q>
0

> <i_epik_Tot_abs_Q>
2

> <r_epik_Metal_State_Penalty>
2.64988

> <b_epik_Metal_Only>
1

> <s_lp_Force_Field>
OPLS_2005

> <r_lp_Energy>
35.9305

> <b_lp_Chiralities_Consistent>
1

> <s_lp_Variant>
AV-unprocessed.smi:1740-8

> <Gold.Version>
5.8.1

> <Gold.Id.Protein>
6NUR|6NUR_protein|mol2

> <Gold.PLP.Fitness>
52.8099

> <Gold.PLP.PLP>
-40.5950

> <Gold.PLP.part.hbond>
-3.8620

> <Gold.PLP.part.metal>
0.0000

> <Gold.PLP.part.buried>
-4.6064

> <Gold.PLP.part.nonpolar>
-30.6596

> <Gold.PLP.part.repulsive>
0.4240

> <Gold.PLP.ligand.clash>
0.0000

> <Gold.PLP.ligand.torsion>
1.0058

> <Gold.PLP.Chemscore.Hbond>
4.6270

> <Gold.PLP.Chemscore.CHOScore>
0.0000

> <Gold.PLP.Chemscore.Metal>
0.0000

> <Gold.Chemscore.Hbonds>
donor molecule, donor type, donor heavy atom, donor atom, acceptor molecule, acceptor atom, score
      L1  H     1    26       P1 10175  1.00
      L1  H     5    51       P1 10175  2.00
      L1  H     9    34       P1  8028  0.70
      P1  H  7989  7998       L1    11  0.69

> <Gold.PLP.Chemscore.Internal.Correction>
0.3455

> <Gold.Rescore>
     Score         DG    S(hbond)    S(metal)    S(lipo)     H(rot)  DE(clash)    DE(int)     intcor
     18.14     -22.49       3.22        0.00     100.60       2.16       0.55       3.80       ----

> <Gold.Chemscore.Fitness>
18.1406

> <Gold.Chemscore.DG>
-22.4900

> <Gold.Chemscore.ZeroCoef>
-5.4800

> <Gold.Chemscore.Hbond>
3.2213

> <Gold.Chemscore.Metal>
0.0000

> <Gold.Chemscore.Lipo>
100.6036

> <Gold.Chemscore.Internal_Hbond>
0.0000

> <Gold.Chemscore.DEClash>
0.5523

> <Gold.Chemscore.DEInternal>
3.7971

> <Gold.Chemscore.Rot>
2.1562

> <Gold.Chemscore.Internal.Correction>
   9.000000E+99

> <Gold.Chemscore.Hbonds>
donor molecule, donor type, donor heavy atom, donor atom, acceptor molecule, acceptor atom, score
      L1  H     1    26       P1 10175  0.95
      L1  H     5    51       P1 10175  0.97
      L1  H     9    34       P1  8028  0.69
      P1  H  7989  7998       L1    11  0.51

> <Gold.Chemscore.Hbond.Weighted>
-10.7592

> <Gold.Chemscore.Metal.Weighted>
-0.0000

> <Gold.Chemscore.Lipo.Weighted>
-11.7706

> <Gold.Chemscore.Internal_Hbond.Weighted>
0.0000

> <Gold.Chemscore.DEClash.Weighted>
0.5523

> <Gold.Chemscore.DEInternal.Weighted>
3.7971

> <Gold.Chemscore.Rot.Weighted>
5.5198

> <Gold.Chemscore.Internal.Correction.Weighted>
   9.000000E+99

> <Gold.Protein.RotatedTorsions>
[ 6907 6896 6895 6894 ] final  -60.01 input  -60.11 | X-H torsion
[ 7974 7965 7964 7962 ] final  -31.16 input  175.53 | X-H torsion
[ 8008 7997 7996 7995 ] final   16.99 input   59.86 | X-H torsion
[ 10167 10162 10161 10158 ] final   93.36 input  -65.29 | X-H torsion
[ 10718 10713 10712 10709 ] final  113.73 input   66.30 | X-H torsion
[ 10763 10752 10751 10750 ] final    2.31 input  -60.55 | X-H torsion
[ 11005 11000 10999 10996 ] final -120.20 input  -57.11 | X-H torsion

> <Gold.Protein.ActiveResidues>
 VAL166  LYS551  ARG553  GLY616  TRP617  ASP618  TYR619  PRO620  LYS621  CYS622 
 ASP623  PHE694  ASN695  SER759  ASP760  ASP761  ALA762  ILE779  LEU786  VAL792 
 PHE793  MET794  SER795  GLU796  ALA797  LYS798  CYS799  TRP800  GLU811  SER814 

> <Gold.Protein.RotatedAtoms>
  150.7888  134.6894  159.6487 H   0  0  0  0  0  0  0  0  0  0  0  0  # atno 6907 bound_to 6896
  152.3989  134.6315  160.0086 H   0  0  0  0  0  0  0  0  0  0  0  0  # atno 6908 bound_to 6896
  151.6593  133.3281  159.3206 H   0  0  0  0  0  0  0  0  0  0  0  0  # atno 6909 bound_to 6896
  146.1089  140.5632  142.8787 H   0  0  0  0  0  0  0  0  0  0  0  0  # atno 7974 bound_to 7965
  154.8849  140.2978  155.5404 H   0  0  0  0  0  0  0  0  0  0  0  0  # atno 8008 bound_to 7997
  156.3021  140.2435  156.3790 H   0  0  0  0  0  0  0  0  0  0  0  0  # atno 8009 bound_to 7997
  154.8679  140.0402  157.1695 H   0  0  0  0  0  0  0  0  0  0  0  0  # atno 8010 bound_to 7997
  139.8187  144.6741  150.9546 H   0  0  0  0  0  0  0  0  0  0  0  0  # atno 10167 bound_to 10162
  157.6321  131.0988  150.7083 H   0  0  0  0  0  0  0  0  0  0  0  0  # atno 10718 bound_to 10713
  153.2972  135.6953  153.7237 H   0  0  0  0  0  0  0  0  0  0  0  0  # atno 10763 bound_to 10752
  153.6166  135.3435  155.2997 H   0  0  0  0  0  0  0  0  0  0  0  0  # atno 10764 bound_to 10752
  154.8540  135.4376  154.2072 H   0  0  0  0  0  0  0  0  0  0  0  0  # atno 10765 bound_to 10752
  141.0161  134.0193  157.3348 H   0  0  0  0  0  0  0  0  0  0  0  0  # atno 11005 bound_to 11000
  144.7494  140.5152  143.6812 LP  0  0  0  0  0  0  0  0  0  0  0  0  # atno 17320 bound_to 7965
  145.5705  139.1483  143.3291 LP  0  0  0  0  0  0  0  0  0  0  0  0  # atno 17321 bound_to 7965
  140.7814  143.4113  151.0989 LP  0  0  0  0  0  0  0  0  0  0  0  0  # atno 17342 bound_to 10162
  139.7775  143.8404  152.3132 LP  0  0  0  0  0  0  0  0  0  0  0  0  # atno 17343 bound_to 10162
  156.7421  130.4742  149.5475 LP  0  0  0  0  0  0  0  0  0  0  0  0  # atno 17370 bound_to 10713
  156.1533  130.6325  151.0624 LP  0  0  0  0  0  0  0  0  0  0  0  0  # atno 17371 bound_to 10713
  139.9118  135.0191  156.7721 LP  0  0  0  0  0  0  0  0  0  0  0  0  # atno 17394 bound_to 11000
  140.6652  133.9609  155.7826 LP  0  0  0  0  0  0  0  0  0  0  0  0  # atno 17395 bound_to 11000

$$$$
