AV-unprocessed.smi:2746|AV-procd|sdf|10575|dock1
  -GOLD-   2272015 23D 1   1.00000     0.00000
 Structure written by MMmdl.
 38 39  0  0  0  0  0  0  0  0  3 V2000
  153.1736  142.8199  161.9301 C   0  0  0  0  0  0  0  0  0  0  0  0
  153.3303  142.2216  160.7351 C   0  0  0  0  0  0  0  0  0  0  0  0
  152.7526  142.6774  159.4008 C   0  0  2  0  0  0  0  0  0  0  0  0
  152.0353  144.0246  159.5683 C   0  0  0  0  0  0  0  0  0  0  0  0
  151.8299  141.7409  158.7519 N   0  5  0  0  0  0  0  0  0  0  0  0
  152.2049  140.5945  158.1185 C   0  0  0  0  0  0  0  0  0  0  0  0
  153.2639  139.9612  158.1926 O   0  0  0  0  0  0  0  0  0  0  0  0
  151.1618  140.1099  157.1488 C   0  0  0  0  0  0  0  0  0  0  0  0
  149.8105  140.5335  157.1944 C   0  0  0  0  0  0  0  0  0  0  0  0
  148.8673  140.0212  156.2712 C   0  0  0  0  0  0  0  0  0  0  0  0
  147.5257  140.4557  156.3222 N   0  0  0  0  0  0  0  0  0  0  0  0
  146.8593  140.3132  157.6146 C   0  0  0  0  0  0  0  0  0  0  0  0
  145.5486  141.1190  157.6322 C   0  0  0  0  0  0  0  0  0  0  0  0
  144.7284  140.7299  156.5351 O   0  0  0  0  0  0  0  0  0  0  0  0
  145.3590  140.9870  155.2848 C   0  0  0  0  0  0  0  0  0  0  0  0
  146.6580  140.1695  155.1838 C   0  0  0  0  0  0  0  0  0  0  0  0
  149.3222  139.0782  155.3145 C   0  0  0  0  0  0  0  0  0  0  0  0
  150.6715  138.6749  155.3195 C   0  0  0  0  0  0  0  0  0  0  0  0
  151.5254  139.1929  156.2253 N   0  3  0  0  0  0  0  0  0  0  0  0
  152.5952  143.7240  162.0600 H   0  0  0  0  0  0  0  0  0  0  0  0
  153.6341  142.4006  162.8121 H   0  0  0  0  0  0  0  0  0  0  0  0
  153.9248  141.3206  160.6938 H   0  0  0  0  0  0  0  0  0  0  0  0
  153.6261  142.8670  158.7753 H   0  0  0  0  0  0  0  0  0  0  0  0
  152.7009  144.7733  159.9990 H   0  0  0  0  0  0  0  0  0  0  0  0
  151.1676  143.9363  160.2233 H   0  0  0  0  0  0  0  0  0  0  0  0
  151.6901  144.4114  158.6085 H   0  0  0  0  0  0  0  0  0  0  0  0
  149.5044  141.2622  157.9309 H   0  0  0  0  0  0  0  0  0  0  0  0
  146.6481  139.2568  157.7858 H   0  0  0  0  0  0  0  0  0  0  0  0
  147.4921  140.6458  158.4363 H   0  0  0  0  0  0  0  0  0  0  0  0
  145.0086  140.9360  158.5613 H   0  0  0  0  0  0  0  0  0  0  0  0
  145.7505  142.1905  157.5875 H   0  0  0  0  0  0  0  0  0  0  0  0
  144.6779  140.7114  154.4796 H   0  0  0  0  0  0  0  0  0  0  0  0
  145.5616  142.0541  155.1792 H   0  0  0  0  0  0  0  0  0  0  0  0
  147.1672  140.4137  154.2507 H   0  0  0  0  0  0  0  0  0  0  0  0
  146.4248  139.1040  155.1641 H   0  0  0  0  0  0  0  0  0  0  0  0
  148.6565  138.6434  154.5844 H   0  0  0  0  0  0  0  0  0  0  0  0
  151.0902  137.9553  154.6317 H   0  0  0  0  0  0  0  0  0  0  0  0
  152.4984  138.8855  156.2161 H   0  0  0  0  0  0  0  0  0  0  0  0
  1  2  2  0  0  0  0
  1 20  1  0  0  0  0
  1 21  1  0  0  0  0
  2  3  1  0  0  0  0
  2 22  1  0  0  0  0
  3  4  1  0  0  0  0
  3  5  1  0  0  0  0
  3 23  1  0  0  0  0
  4 24  1  0  0  0  0
  4 25  1  0  0  0  0
  4 26  1  0  0  0  0
  5  6  1  0  0  0  0
  6  7  2  0  0  0  0
  6  8  1  0  0  0  0
  8 19  1  0  0  0  0
  8  9  2  0  0  0  0
  9 10  1  0  0  0  0
  9 27  1  0  0  0  0
 10 11  1  0  0  0  0
 10 17  2  0  0  0  0
 11 16  1  0  0  0  0
 11 12  1  0  0  0  0
 12 13  1  0  0  0  0
 12 28  1  0  0  0  0
 12 29  1  0  0  0  0
 13 14  1  0  0  0  0
 13 30  1  0  0  0  0
 13 31  1  0  0  0  0
 14 15  1  0  0  0  0
 15 16  1  0  0  0  0
 15 32  1  0  0  0  0
 15 33  1  0  0  0  0
 16 34  1  0  0  0  0
 16 35  1  0  0  0  0
 17 18  1  0  0  0  0
 17 36  1  0  0  0  0
 18 19  2  0  0  0  0
 18 37  1  0  0  0  0
 19 38  1  0  0  0  0
M  CHG  1   5  -1
M  CHG  1  19   1
M  END
> <s_m_source_file>
AV-unprocessed.smi

> <i_m_source_file_index>
2746

> <i_lp_mmshare_version>
43012

> <i_f3d_flags>
0

> <s_epik_input>
W0NIMl09W0NIXVtDQEhdKFtDSDNdKVtOSF1DKD1PKWMxW2NIXWMoW2NIXVtjSF1uMSlOMltDSDJdW0NIMl1PW0NIMl1bQ0gyXTI=

> <s_epik_cmdline>
J2VwaWtfcHl0aG9uJywgJy1waCcsICc3LjAnLCAnLXRuJywgJzgnLCAnLW1hJywgJzIwMCcsICctbWV0YWxfYmluZGluZycsICctaW1hZScsICc8aW5maWxlLm1hZT4nLCAnLW9tYWUnLCAnPG91dGZpbGUubWFlPic=

> <r_lp_tautomer_probability>
1

> <r_epik_Ionization_Penalty>
4.23471

> <r_epik_Ionization_Penalty_Charging>
4.23471

> <r_epik_Ionization_Penalty_Neutral>
3.18831e-12

> <r_epik_State_Penalty>
4.68748

> <r_epik_Charging_Adjusted_Penalty>
8.92219

> <i_epik_Tot_Q>
0

> <i_epik_Tot_abs_Q>
2

> <r_epik_Metal_State_Penalty>
1.16626

> <b_epik_Metal_Only>
1

> <s_lp_Force_Field>
OPLS_2005

> <r_lp_Energy>
19.089

> <b_lp_Chiralities_Consistent>
1

> <s_lp_Variant>
AV-unprocessed.smi:2746-5

> <Gold.Version>
5.8.1

> <Gold.Id.Protein>
6NUR|6NUR_protein|mol2

> <Gold.PLP.Fitness>
43.6747

> <Gold.PLP.PLP>
-41.5978

> <Gold.PLP.part.hbond>
-1.0000

> <Gold.PLP.part.metal>
0.0000

> <Gold.PLP.part.buried>
-5.0820

> <Gold.PLP.part.nonpolar>
-35.3696

> <Gold.PLP.part.repulsive>
0.4603

> <Gold.PLP.ligand.clash>
0.5276

> <Gold.PLP.ligand.torsion>
0.6349

> <Gold.PLP.Chemscore.Hbond>
1.0000

> <Gold.PLP.Chemscore.CHOScore>
0.0000

> <Gold.PLP.Chemscore.Metal>
0.0000

> <Gold.Chemscore.Hbonds>
donor molecule, donor type, donor heavy atom, donor atom, acceptor molecule, acceptor atom, score
      P1  H  7997  8010       L1     7  1.00

> <Gold.PLP.Chemscore.Internal.Correction>
0.8742

> <Gold.Rescore>
     Score         DG    S(hbond)    S(metal)    S(lipo)     H(rot)  DE(clash)    DE(int)     intcor
     16.55     -17.15       0.97        0.00      99.96       1.27       0.01       0.59       ----

> <Gold.Chemscore.Fitness>
16.5460

> <Gold.Chemscore.DG>
-17.1485

> <Gold.Chemscore.ZeroCoef>
-5.4800

> <Gold.Chemscore.Hbond>
0.9686

> <Gold.Chemscore.Metal>
0.0000

> <Gold.Chemscore.Lipo>
99.9592

> <Gold.Chemscore.Internal_Hbond>
0.0000

> <Gold.Chemscore.DEClash>
0.0113

> <Gold.Chemscore.DEInternal>
0.5912

> <Gold.Chemscore.Rot>
1.2742

> <Gold.Chemscore.Internal.Correction>
   9.000000E+99

> <Gold.Chemscore.Hbonds>
donor molecule, donor type, donor heavy atom, donor atom, acceptor molecule, acceptor atom, score
      P1  H  7997  8010       L1     7  0.97

> <Gold.Chemscore.Hbond.Weighted>
-3.2352

> <Gold.Chemscore.Metal.Weighted>
-0.0000

> <Gold.Chemscore.Lipo.Weighted>
-11.6952

> <Gold.Chemscore.Internal_Hbond.Weighted>
0.0000

> <Gold.Chemscore.DEClash.Weighted>
0.0113

> <Gold.Chemscore.DEInternal.Weighted>
0.5912

> <Gold.Chemscore.Rot.Weighted>
3.2619

> <Gold.Chemscore.Internal.Correction.Weighted>
   9.000000E+99

> <Gold.Protein.RotatedTorsions>
[ 6907 6896 6895 6894 ] final  136.12 input  -60.11 | X-H torsion
[ 7974 7965 7964 7962 ] final  -19.94 input  175.53 | X-H torsion
[ 8008 7997 7996 7995 ] final   40.96 input   59.86 | X-H torsion
[ 10167 10162 10161 10158 ] final    6.94 input  -65.29 | X-H torsion
[ 10718 10713 10712 10709 ] final  164.85 input   66.30 | X-H torsion
[ 10763 10752 10751 10750 ] final   38.23 input  -60.55 | X-H torsion
[ 11005 11000 10999 10996 ] final  146.92 input  -57.11 | X-H torsion

> <Gold.Protein.ActiveResidues>
 VAL166  LYS551  ARG553  GLY616  TRP617  ASP618  TYR619  PRO620  LYS621  CYS622 
 ASP623  PHE694  ASN695  SER759  ASP760  ASP761  ALA762  ILE779  LEU786  VAL792 
 PHE793  MET794  SER795  GLU796  ALA797  LYS798  CYS799  TRP800  GLU811  SER814 

> <Gold.Protein.RotatedAtoms>
  152.2929  133.5579  159.5568 H   0  0  0  0  0  0  0  0  0  0  0  0  # atno 6907 bound_to 6896
  150.7243  134.0402  159.3772 H   0  0  0  0  0  0  0  0  0  0  0  0  # atno 6908 bound_to 6896
  151.8307  135.0623  160.0487 H   0  0  0  0  0  0  0  0  0  0  0  0  # atno 6909 bound_to 6896
  146.1815  140.4132  142.8493 H   0  0  0  0  0  0  0  0  0  0  0  0  # atno 7974 bound_to 7965
  155.2618  140.3360  155.4272 H   0  0  0  0  0  0  0  0  0  0  0  0  # atno 8008 bound_to 7997
  156.2171  140.1793  156.7606 H   0  0  0  0  0  0  0  0  0  0  0  0  # atno 8009 bound_to 7997
  154.5770  140.0660  156.9033 H   0  0  0  0  0  0  0  0  0  0  0  0  # atno 8010 bound_to 7997
  140.6400  143.7797  150.7414 H   0  0  0  0  0  0  0  0  0  0  0  0  # atno 10167 bound_to 10162
  157.0884  131.0411  151.2547 H   0  0  0  0  0  0  0  0  0  0  0  0  # atno 10718 bound_to 10713
  153.0008  135.6255  154.2271 H   0  0  0  0  0  0  0  0  0  0  0  0  # atno 10763 bound_to 10752
  154.2014  135.2804  155.2991 H   0  0  0  0  0  0  0  0  0  0  0  0  # atno 10764 bound_to 10752
  154.5681  135.5685  153.7128 H   0  0  0  0  0  0  0  0  0  0  0  0  # atno 10765 bound_to 10752
  140.0833  134.9084  157.1535 H   0  0  0  0  0  0  0  0  0  0  0  0  # atno 11005 bound_to 11000
  144.8323  140.6726  143.6283 LP  0  0  0  0  0  0  0  0  0  0  0  0  # atno 17320 bound_to 7965
  145.4063  139.1588  143.4150 LP  0  0  0  0  0  0  0  0  0  0  0  0  # atno 17321 bound_to 7965
  140.1426  143.4428  152.2184 LP  0  0  0  0  0  0  0  0  0  0  0  0  # atno 17342 bound_to 10162
  139.5609  144.7405  151.4157 LP  0  0  0  0  0  0  0  0  0  0  0  0  # atno 17343 bound_to 10162
  157.4741  130.7726  149.7351 LP  0  0  0  0  0  0  0  0  0  0  0  0  # atno 17370 bound_to 10713
  155.9904  130.3944  150.3028 LP  0  0  0  0  0  0  0  0  0  0  0  0  # atno 17371 bound_to 10713
  140.3456  134.2655  155.7205 LP  0  0  0  0  0  0  0  0  0  0  0  0  # atno 17394 bound_to 11000
  141.2054  133.7861  157.0235 LP  0  0  0  0  0  0  0  0  0  0  0  0  # atno 17395 bound_to 11000

$$$$
