AV-unprocessed.smi:36|AV-procd|sdf|299|dock5
  -GOLD-   2262016103D 1   1.00000     0.00000
 Structure written by MMmdl.
 63 66  0  0  0  0  0  0  0  0  2 V2000
  145.7760  134.8115  162.5094 C   0  0  0  0  0  0  0  0  0  0  0  0
  146.9240  134.4460  161.5542 C   0  0  0  0  0  0  0  0  0  0  0  0
  147.7795  135.6932  161.2742 C   0  0  0  0  0  0  0  0  0  0  0  0
  147.7948  133.3440  162.1798 C   0  0  0  0  0  0  0  0  0  0  0  0
  146.1902  133.8152  159.9068 Si  0  0  0  0  0  0  0  0  0  0  0  0
  145.0437  132.3273  160.2056 C   0  0  0  0  0  0  0  0  0  0  0  0
  145.2248  135.1868  159.0154 C   0  0  0  0  0  0  0  0  0  0  0  0
  147.4790  133.3509  158.9092 O   0  0  0  0  0  0  0  0  0  0  0  0
  147.5766  133.6550  157.5314 C   0  0  0  0  0  0  0  0  0  0  0  0
  149.0362  133.9972  157.1959 C   0  0  2  0  0  0  0  0  0  0  0  0
  149.1481  134.6175  155.9223 O   0  0  0  0  0  0  0  0  0  0  0  0
  150.4902  134.6160  155.5423 C   0  0  1  0  0  0  0  0  0  0  0  0
  151.1237  135.8874  156.0257 N   0  0  0  0  0  0  0  0  0  0  0  0
  151.8713  136.1019  157.1301 C   0  0  0  0  0  0  0  0  0  0  0  0
  152.2995  137.3426  157.3522 N   0  0  0  0  0  0  0  0  0  0  0  0
  151.7470  138.0247  156.2785 C   0  0  0  0  0  0  0  0  0  0  0  0
  151.7842  139.3917  155.8898 C   0  0  0  0  0  0  0  0  0  0  0  0
  152.4486  140.3256  156.5873 N   0  5  0  0  0  0  0  0  0  0  0  0
  152.2553  140.4315  157.9266 C   0  0  0  0  0  0  0  0  0  0  0  0
  152.0423  139.5253  158.7352 O   0  0  0  0  0  0  0  0  0  0  0  0
  152.2434  141.8552  158.4144 C   0  0  0  0  0  0  0  0  0  0  0  0
  151.6163  142.8556  157.6372 C   0  0  0  0  0  0  0  0  0  0  0  0
  151.5739  144.1899  158.0862 C   0  0  0  0  0  0  0  0  0  0  0  0
  152.1495  144.5361  159.3228 C   0  0  0  0  0  0  0  0  0  0  0  0
  152.7635  143.5459  160.1125 C   0  0  0  0  0  0  0  0  0  0  0  0
  152.8074  142.2115  159.6636 C   0  0  0  0  0  0  0  0  0  0  0  0
  151.1212  139.7260  154.7530 N   0  0  0  0  0  0  0  0  0  0  0  0
  150.4555  138.7945  154.0596 C   0  0  0  0  0  0  0  0  0  0  0  0
  150.3294  137.4880  154.3123 N   0  0  0  0  0  0  0  0  0  0  0  0
  151.0049  137.1382  155.4455 C   0  0  0  0  0  0  0  0  0  0  0  0
  151.1359  133.3934  156.2223 C   0  0  0  0  0  0  0  0  0  0  0  0
  150.0106  132.8219  157.0771 C   0  0  2  0  0  0  0  0  0  0  0  0
  149.4147  131.7075  156.4398 O   0  0  0  0  0  0  0  0  0  0  0  0
  146.1556  135.1955  163.4569 H   0  0  0  0  0  0  0  0  0  0  0  0
  145.1522  133.9459  162.7329 H   0  0  0  0  0  0  0  0  0  0  0  0
  145.1320  135.5786  162.0781 H   0  0  0  0  0  0  0  0  0  0  0  0
  147.1832  136.4876  160.8244 H   0  0  0  0  0  0  0  0  0  0  0  0
  148.5998  135.4713  160.5912 H   0  0  0  0  0  0  0  0  0  0  0  0
  148.2161  136.0899  162.1914 H   0  0  0  0  0  0  0  0  0  0  0  0
  148.2310  133.6721  163.1239 H   0  0  0  0  0  0  0  0  0  0  0  0
  148.6158  133.0629  161.5195 H   0  0  0  0  0  0  0  0  0  0  0  0
  147.2126  132.4448  162.3826 H   0  0  0  0  0  0  0  0  0  0  0  0
  144.1822  132.6036  160.8130 H   0  0  0  0  0  0  0  0  0  0  0  0
  145.5572  131.5186  160.7255 H   0  0  0  0  0  0  0  0  0  0  0  0
  144.6604  131.9219  159.2696 H   0  0  0  0  0  0  0  0  0  0  0  0
  144.3882  135.5432  159.6159 H   0  0  0  0  0  0  0  0  0  0  0  0
  144.8171  134.8367  158.0673 H   0  0  0  0  0  0  0  0  0  0  0  0
  145.8584  136.0460  158.7972 H   0  0  0  0  0  0  0  0  0  0  0  0
  147.2434  132.7956  156.9484 H   0  0  0  0  0  0  0  0  0  0  0  0
  146.9113  134.4856  157.2947 H   0  0  0  0  0  0  0  0  0  0  0  0
  149.4292  134.6795  157.9488 H   0  0  0  0  0  0  0  0  0  0  0  0
  150.6076  134.6456  154.4586 H   0  0  0  0  0  0  0  0  0  0  0  0
  152.1207  135.3036  157.8130 H   0  0  0  0  0  0  0  0  0  0  0  0
  151.1685  142.6054  156.6861 H   0  0  0  0  0  0  0  0  0  0  0  0
  151.0982  144.9473  157.4808 H   0  0  0  0  0  0  0  0  0  0  0  0
  152.1164  145.5589  159.6674 H   0  0  0  0  0  0  0  0  0  0  0  0
  153.1993  143.8084  161.0653 H   0  0  0  0  0  0  0  0  0  0  0  0
  153.2743  141.4640  160.2889 H   0  0  0  0  0  0  0  0  0  0  0  0
  149.9517  139.1476  153.1722 H   0  0  0  0  0  0  0  0  0  0  0  0
  151.5011  132.6902  155.4726 H   0  0  0  0  0  0  0  0  0  0  0  0
  151.9790  133.6998  156.8429 H   0  0  0  0  0  0  0  0  0  0  0  0
  150.3701  132.5032  158.0560 H   0  0  0  0  0  0  0  0  0  0  0  0
  149.5155  131.8050  155.5053 H   0  0  0  0  0  0  0  0  0  0  0  0
  1  2  1  0  0  0  0
  1 34  1  0  0  0  0
  1 35  1  0  0  0  0
  1 36  1  0  0  0  0
  2  3  1  0  0  0  0
  2  4  1  0  0  0  0
  2  5  1  0  0  0  0
  3 37  1  0  0  0  0
  3 38  1  0  0  0  0
  3 39  1  0  0  0  0
  4 40  1  0  0  0  0
  4 41  1  0  0  0  0
  4 42  1  0  0  0  0
  5  6  1  0  0  0  0
  5  7  1  0  0  0  0
  5  8  1  0  0  0  0
  6 43  1  0  0  0  0
  6 44  1  0  0  0  0
  6 45  1  0  0  0  0
  7 46  1  0  0  0  0
  7 47  1  0  0  0  0
  7 48  1  0  0  0  0
  8  9  1  0  0  0  0
  9 10  1  0  0  0  0
  9 49  1  0  0  0  0
  9 50  1  0  0  0  0
 10 32  1  0  0  0  0
 10 11  1  0  0  0  0
 10 51  1  0  0  0  0
 11 12  1  0  0  0  0
 12 13  1  0  0  0  0
 12 31  1  0  0  0  0
 12 52  1  0  0  0  0
 13 30  1  0  0  0  0
 13 14  1  0  0  0  0
 14 15  2  0  0  0  0
 14 53  1  0  0  0  0
 15 16  1  0  0  0  0
 16 30  2  0  0  0  0
 16 17  1  0  0  0  0
 17 18  1  0  0  0  0
 17 27  2  0  0  0  0
 18 19  1  0  0  0  0
 19 20  2  0  0  0  0
 19 21  1  0  0  0  0
 21 26  1  0  0  0  0
 21 22  2  0  0  0  0
 22 23  1  0  0  0  0
 22 54  1  0  0  0  0
 23 24  2  0  0  0  0
 23 55  1  0  0  0  0
 24 25  1  0  0  0  0
 24 56  1  0  0  0  0
 25 26  2  0  0  0  0
 25 57  1  0  0  0  0
 26 58  1  0  0  0  0
 27 28  1  0  0  0  0
 28 29  2  0  0  0  0
 28 59  1  0  0  0  0
 29 30  1  0  0  0  0
 31 32  1  0  0  0  0
 31 60  1  0  0  0  0
 31 61  1  0  0  0  0
 32 33  1  0  0  0  0
 32 62  1  0  0  0  0
 33 63  1  0  0  0  0
M  CHG  1  18  -1
M  END
> <s_m_source_file>
AV-unprocessed.smi

> <i_m_source_file_index>
36

> <i_lp_mmshare_version>
43012

> <i_f3d_flags>
0

> <s_epik_input>
W0NIM11DKFtDSDNdKShbQ0gzXSlbU2ldKFtDSDNdKShbQ0gzXSlPW0NIMl1bQ0BASF0xT1tDQEhdKFtDSDJdW0NASF0xW09IXSluKFtjSF1uMiljKGMyMyluW2NIXW5jM1tOSF1DKD1PKWM0W2NIXVtjSF1bY0hdW2NIXVtjSF00

> <s_epik_cmdline>
J2VwaWtfcHl0aG9uJywgJy1waCcsICc3LjAnLCAnLXRuJywgJzgnLCAnLW1hJywgJzIwMCcsICctbWV0YWxfYmluZGluZycsICctaW1hZScsICc8aW5maWxlLm1hZT4nLCAnLW9tYWUnLCAnPG91dGZpbGUubWFlPic=

> <r_lp_tautomer_probability>
1

> <r_epik_Ionization_Penalty>
4.75685

> <r_epik_Ionization_Penalty_Charging>
3.55822

> <r_epik_Ionization_Penalty_Neutral>
1.19863

> <r_epik_State_Penalty>
3.564

> <r_epik_Charging_Adjusted_Penalty>
7.12222

> <i_epik_Tot_Q>
-1

> <i_epik_Tot_abs_Q>
1

> <r_epik_Metal_State_Penalty>
0.523258

> <b_epik_Metal_Only>
1

> <s_epik_Chemistry_Notes>
This compound contains an acetal/aminal-like group ( X-CH(R)-Y where X, Y are N, S, or O) that may be acid/base labile, releasing an aldehyde.

> <s_lp_Force_Field>
OPLS_2005

> <r_lp_Energy>
31.8214

> <b_lp_Chiralities_Consistent>
1

> <s_lp_Variant>
AV-unprocessed.smi:36-21

> <Gold.Version>
5.8.1

> <Gold.Id.Protein>
6NUR|6NUR_protein|mol2

> <Gold.PLP.Fitness>
54.9562

> <Gold.PLP.PLP>
-48.9465

> <Gold.PLP.part.hbond>
-2.0000

> <Gold.PLP.part.metal>
0.0000

> <Gold.PLP.part.buried>
-5.5810

> <Gold.PLP.part.nonpolar>
-42.0249

> <Gold.PLP.part.repulsive>
0.8553

> <Gold.PLP.ligand.clash>
0.0000

> <Gold.PLP.ligand.torsion>
3.1463

> <Gold.PLP.Chemscore.Hbond>
2.9840

> <Gold.PLP.Chemscore.CHOScore>
1.0000

> <Gold.PLP.Chemscore.Metal>
0.0000

> <Gold.Chemscore.Hbonds>
donor molecule, donor type, donor heavy atom, donor atom, acceptor molecule, acceptor atom, score
      P1  H  7989  7998       L1    27  1.00
      P1  H  7997  8010       L1    18  1.95
      L1  C    28    59       P1  7957  1.00

> <Gold.PLP.Chemscore.Internal.Correction>
0.3503

> <Gold.Rescore>
     Score         DG    S(hbond)    S(metal)    S(lipo)     H(rot)  DE(clash)    DE(int)     intcor
      9.50     -15.68       0.90        0.00     119.84       2.67       0.27       5.91       ----

> <Gold.Chemscore.Fitness>
9.4969

> <Gold.Chemscore.DG>
-15.6799

> <Gold.Chemscore.ZeroCoef>
-5.4800

> <Gold.Chemscore.Hbond>
0.9027

> <Gold.Chemscore.Metal>
0.0000

> <Gold.Chemscore.Lipo>
119.8354

> <Gold.Chemscore.Internal_Hbond>
0.0000

> <Gold.Chemscore.DEClash>
0.2713

> <Gold.Chemscore.DEInternal>
5.9117

> <Gold.Chemscore.Rot>
2.6702

> <Gold.Chemscore.Internal.Correction>
   9.000000E+99

> <Gold.Chemscore.Hbonds>
donor molecule, donor type, donor heavy atom, donor atom, acceptor molecule, acceptor atom, score
      P1  H  7989  7998       L1    27  0.40
      P1  H  7997  8010       L1    18  0.21

> <Gold.Chemscore.Hbond.Weighted>
-3.0149

> <Gold.Chemscore.Metal.Weighted>
-0.0000

> <Gold.Chemscore.Lipo.Weighted>
-14.0207

> <Gold.Chemscore.Internal_Hbond.Weighted>
0.0000

> <Gold.Chemscore.DEClash.Weighted>
0.2713

> <Gold.Chemscore.DEInternal.Weighted>
5.9117

> <Gold.Chemscore.Rot.Weighted>
6.8358

> <Gold.Chemscore.Internal.Correction.Weighted>
   9.000000E+99

> <Gold.Protein.RotatedTorsions>
[ 6907 6896 6895 6894 ] final  -21.70 input  -60.11 | X-H torsion
[ 7974 7965 7964 7962 ] final  175.51 input  175.53 | X-H torsion
[ 8008 7997 7996 7995 ] final   65.16 input   59.86 | X-H torsion
[ 10167 10162 10161 10158 ] final  122.27 input  -65.29 | X-H torsion
[ 10718 10713 10712 10709 ] final  -55.76 input   66.30 | X-H torsion
[ 10763 10752 10751 10750 ] final  109.10 input  -60.55 | X-H torsion
[ 11005 11000 10999 10996 ] final  -96.28 input  -57.11 | X-H torsion

> <Gold.Protein.ActiveResidues>
 VAL166  LYS551  ARG553  GLY616  TRP617  ASP618  TYR619  PRO620  LYS621  CYS622 
 ASP623  PHE694  ASN695  SER759  ASP760  ASP761  ALA762  ILE779  LEU786  VAL792 
 PHE793  MET794  SER795  GLU796  ALA797  LYS798  CYS799  TRP800  GLU811  SER814 

> <Gold.Protein.RotatedAtoms>
  151.2295  135.0549  159.8981 H   0  0  0  0  0  0  0  0  0  0  0  0  # atno 6907 bound_to 6896
  152.5406  134.0552  159.8138 H   0  0  0  0  0  0  0  0  0  0  0  0  # atno 6908 bound_to 6896
  151.0730  133.5402  159.2657 H   0  0  0  0  0  0  0  0  0  0  0  0  # atno 6909 bound_to 6896
  144.7200  139.9957  143.6440 H   0  0  0  0  0  0  0  0  0  0  0  0  # atno 7974 bound_to 7965
  155.6574  140.3497  155.4770 H   0  0  0  0  0  0  0  0  0  0  0  0  # atno 8008 bound_to 7997
  155.9797  140.1172  157.0761 H   0  0  0  0  0  0  0  0  0  0  0  0  # atno 8009 bound_to 7997
  154.4188  140.1141  156.5404 H   0  0  0  0  0  0  0  0  0  0  0  0  # atno 8010 bound_to 7997
  139.5869  144.7010  151.3387 H   0  0  0  0  0  0  0  0  0  0  0  0  # atno 10167 bound_to 10162
  156.1342  130.4157  150.0215 H   0  0  0  0  0  0  0  0  0  0  0  0  # atno 10718 bound_to 10713
  153.4299  135.3791  155.2164 H   0  0  0  0  0  0  0  0  0  0  0  0  # atno 10763 bound_to 10752
  154.8749  135.3837  154.4281 H   0  0  0  0  0  0  0  0  0  0  0  0  # atno 10764 bound_to 10752
  153.4812  135.7088  153.6000 H   0  0  0  0  0  0  0  0  0  0  0  0  # atno 10765 bound_to 10752
  141.1416  133.8086  157.0550 H   0  0  0  0  0  0  0  0  0  0  0  0  # atno 11005 bound_to 11000
  146.0376  139.3392  143.0717 LP  0  0  0  0  0  0  0  0  0  0  0  0  # atno 17320 bound_to 7965
  145.8375  140.9598  143.0816 LP  0  0  0  0  0  0  0  0  0  0  0  0  # atno 17321 bound_to 7965
  140.7139  143.7318  150.7618 LP  0  0  0  0  0  0  0  0  0  0  0  0  # atno 17342 bound_to 10162
  140.0864  143.4919  152.2502 LP  0  0  0  0  0  0  0  0  0  0  0  0  # atno 17343 bound_to 10162
  156.8118  130.9327  151.3644 LP  0  0  0  0  0  0  0  0  0  0  0  0  # atno 17370 bound_to 10713
  157.6517  130.8890  149.9646 LP  0  0  0  0  0  0  0  0  0  0  0  0  # atno 17371 bound_to 10713
  140.0608  134.9756  157.1301 LP  0  0  0  0  0  0  0  0  0  0  0  0  # atno 17394 bound_to 11000
  140.3852  134.2244  155.7169 LP  0  0  0  0  0  0  0  0  0  0  0  0  # atno 17395 bound_to 11000

$$$$
