AV-unprocessed.smi:15|AV-procd|sdf|82|dock5
  -GOLD-   2262015213D 1   1.00000     0.00000
 Structure written by MMmdl.
 53 56  0  0  0  0  0  0  0  0  1 V2000
  149.6285  141.0969  154.8246 C   0  0  0  0  0  0  0  0  0  0  0  0
  149.0357  140.4054  156.0593 C   0  0  0  0  0  0  0  0  0  0  0  0
  149.9490  140.4098  157.2017 N   0  0  0  0  0  0  0  0  0  0  0  0
  151.2416  141.0908  157.1054 C   0  0  0  0  0  0  0  0  0  0  0  0
  151.3341  142.3506  157.9887 C   0  0  1  0  0  0  0  0  0  0  0  0
  152.5682  142.3761  158.8876 C   0  0  0  0  0  0  0  0  0  0  0  0
  152.7944  143.8586  159.1442 C   0  0  0  0  0  0  0  0  0  0  0  0
  151.9456  144.5552  158.0773 C   0  0  0  0  0  0  0  0  0  0  0  0
  151.5311  143.5164  157.2029 O   0  0  0  0  0  0  0  0  0  0  0  0
  149.9663  139.3022  157.9815 C   0  0  0  0  0  0  0  0  0  0  0  0
  151.1779  138.8318  158.3732 N   0  0  0  0  0  0  0  0  0  0  0  0
  151.2608  137.7229  159.1135 C   0  0  0  0  0  0  0  0  0  0  0  0
  150.2763  136.9366  159.5521 N   0  0  0  0  0  0  0  0  0  0  0  0
  149.0573  137.3965  159.1490 C   0  0  0  0  0  0  0  0  0  0  0  0
  148.8109  138.5669  158.3768 C   0  0  0  0  0  0  0  0  0  0  0  0
  147.4454  138.7056  158.1555 N   0  0  0  0  0  0  0  0  0  0  0  0
  146.9165  137.6781  158.7604 C   0  0  0  0  0  0  0  0  0  0  0  0
  147.8135  136.8301  159.3690 N   0  0  0  0  0  0  0  0  0  0  0  0
  147.5023  135.6000  160.0804 C   0  0  0  0  0  0  0  0  0  0  0  0
  146.8496  135.8401  161.4645 C   0  0  2  0  0  0  0  0  0  0  0  0
  147.6012  136.8317  162.1452 O   0  0  0  0  0  0  0  0  0  0  0  0
  146.8410  134.5738  162.3273 C   0  0  0  0  0  0  0  0  0  0  0  0
  145.3654  134.2058  162.4328 C   0  0  0  0  0  0  0  0  0  0  0  0
  144.7213  135.4669  162.4024 O   0  0  0  0  0  0  0  0  0  0  0  0
  145.3493  136.2263  161.3803 C   0  0  1  0  0  0  0  0  0  0  0  0
  144.9982  137.7175  161.5148 C   0  0  0  0  0  0  0  0  0  0  0  0
  148.8936  141.1392  154.0206 H   0  0  0  0  0  0  0  0  0  0  0  0
  150.4989  140.5657  154.4402 H   0  0  0  0  0  0  0  0  0  0  0  0
  149.9288  142.1199  155.0526 H   0  0  0  0  0  0  0  0  0  0  0  0
  148.1132  140.9213  156.3298 H   0  0  0  0  0  0  0  0  0  0  0  0
  148.7590  139.3811  155.8101 H   0  0  0  0  0  0  0  0  0  0  0  0
  152.0209  140.3901  157.4022 H   0  0  0  0  0  0  0  0  0  0  0  0
  151.4596  141.3453  156.0675 H   0  0  0  0  0  0  0  0  0  0  0  0
  150.4386  142.4714  158.6001 H   0  0  0  0  0  0  0  0  0  0  0  0
  152.4314  141.8021  159.8045 H   0  0  0  0  0  0  0  0  0  0  0  0
  153.4278  141.9635  158.3577 H   0  0  0  0  0  0  0  0  0  0  0  0
  152.4664  144.1468  160.1434 H   0  0  0  0  0  0  0  0  0  0  0  0
  153.8505  144.1129  159.0501 H   0  0  0  0  0  0  0  0  0  0  0  0
  151.0652  145.0179  158.5262 H   0  0  0  0  0  0  0  0  0  0  0  0
  152.4973  145.3252  157.5378 H   0  0  0  0  0  0  0  0  0  0  0  0
  152.2600  137.4181  159.3878 H   0  0  0  0  0  0  0  0  0  0  0  0
  145.8512  137.4995  158.7646 H   0  0  0  0  0  0  0  0  0  0  0  0
  146.8403  135.0003  159.4540 H   0  0  0  0  0  0  0  0  0  0  0  0
  148.4230  135.0247  160.1879 H   0  0  0  0  0  0  0  0  0  0  0  0
  147.5491  136.6597  163.0732 H   0  0  0  0  0  0  0  0  0  0  0  0
  147.4359  133.7600  161.9110 H   0  0  0  0  0  0  0  0  0  0  0  0
  147.2266  134.7757  163.3280 H   0  0  0  0  0  0  0  0  0  0  0  0
  145.0482  133.6086  161.5762 H   0  0  0  0  0  0  0  0  0  0  0  0
  145.1324  133.6544  163.3438 H   0  0  0  0  0  0  0  0  0  0  0  0
  144.9361  135.8587  160.4404 H   0  0  0  0  0  0  0  0  0  0  0  0
  145.5052  138.3126  160.7553 H   0  0  0  0  0  0  0  0  0  0  0  0
  145.2765  138.1101  162.4930 H   0  0  0  0  0  0  0  0  0  0  0  0
  143.9265  137.8737  161.3918 H   0  0  0  0  0  0  0  0  0  0  0  0
  1  2  1  0  0  0  0
  1 27  1  0  0  0  0
  1 28  1  0  0  0  0
  1 29  1  0  0  0  0
  2  3  1  0  0  0  0
  2 30  1  0  0  0  0
  2 31  1  0  0  0  0
  3  4  1  0  0  0  0
  3 10  1  0  0  0  0
  4  5  1  0  0  0  0
  4 32  1  0  0  0  0
  4 33  1  0  0  0  0
  5  9  1  0  0  0  0
  5  6  1  0  0  0  0
  5 34  1  0  0  0  0
  6  7  1  0  0  0  0
  6 35  1  0  0  0  0
  6 36  1  0  0  0  0
  7  8  1  0  0  0  0
  7 37  1  0  0  0  0
  7 38  1  0  0  0  0
  8  9  1  0  0  0  0
  8 39  1  0  0  0  0
  8 40  1  0  0  0  0
 10 15  1  0  0  0  0
 10 11  2  0  0  0  0
 11 12  1  0  0  0  0
 12 13  2  0  0  0  0
 12 41  1  0  0  0  0
 13 14  1  0  0  0  0
 14 18  1  0  0  0  0
 14 15  2  0  0  0  0
 15 16  1  0  0  0  0
 16 17  2  0  0  0  0
 17 18  1  0  0  0  0
 17 42  1  0  0  0  0
 18 19  1  0  0  0  0
 19 20  1  0  0  0  0
 19 43  1  0  0  0  0
 19 44  1  0  0  0  0
 20 25  1  0  0  0  0
 20 21  1  0  0  0  0
 20 22  1  0  0  0  0
 21 45  1  0  0  0  0
 22 23  1  0  0  0  0
 22 46  1  0  0  0  0
 22 47  1  0  0  0  0
 23 24  1  0  0  0  0
 23 48  1  0  0  0  0
 23 49  1  0  0  0  0
 24 25  1  0  0  0  0
 25 26  1  0  0  0  0
 25 50  1  0  0  0  0
 26 51  1  0  0  0  0
 26 52  1  0  0  0  0
 26 53  1  0  0  0  0
M  END
> <s_m_source_file>
AV-unprocessed.smi

> <i_m_source_file_index>
15

> <i_lp_mmshare_version>
43012

> <i_f3d_flags>
0

> <s_epik_input>
TzFbQ0gyXVtDSDJdW0NIMl1bQ0BIXTFbQ0gyXU4oW0NIMl1bQ0gzXSljKG5bY0hdbjIpYyhjMjMpbltjSF1uM1tDSDJdW0NAQF00KFtPSF0pW0NIMl1bQ0gyXU9bQ0BIXTRbQ0gzXQ==

> <s_epik_cmdline>
J2VwaWtfcHl0aG9uJywgJy1waCcsICc3LjAnLCAnLXRuJywgJzgnLCAnLW1hJywgJzIwMCcsICctbWV0YWxfYmluZGluZycsICctaW1hZScsICc8aW5maWxlLm1hZT4nLCAnLW9tYWUnLCAnPG91dGZpbGUubWFlPic=

> <r_lp_tautomer_probability>
1

> <r_epik_Ionization_Penalty>
0.00360814

> <r_epik_Ionization_Penalty_Charging>
0

> <r_epik_Ionization_Penalty_Neutral>
0.00360814

> <r_epik_State_Penalty>
0.00237482

> <r_epik_Charging_Adjusted_Penalty>
0.00237482

> <i_epik_Tot_Q>
0

> <i_epik_Tot_abs_Q>
0

> <r_epik_Metal_State_Penalty>
-0

> <b_epik_Metal_Only>
0

> <s_lp_Force_Field>
OPLS_2005

> <r_lp_Energy>
44.887

> <b_lp_Chiralities_Consistent>
1

> <s_lp_Variant>
AV-unprocessed.smi:15-4

> <Gold.Version>
5.8.1

> <Gold.Id.Protein>
6NUR|6NUR_protein|mol2

> <Gold.PLP.Fitness>
50.2419

> <Gold.PLP.PLP>
-46.7475

> <Gold.PLP.part.hbond>
-2.9074

> <Gold.PLP.part.metal>
0.0000

> <Gold.PLP.part.buried>
-7.4195

> <Gold.PLP.part.nonpolar>
-37.8622

> <Gold.PLP.part.repulsive>
0.1330

> <Gold.PLP.ligand.clash>
0.0000

> <Gold.PLP.ligand.torsion>
1.7251

> <Gold.PLP.Chemscore.Hbond>
2.0000

> <Gold.PLP.Chemscore.CHOScore>
0.0000

> <Gold.PLP.Chemscore.Metal>
0.0000

> <Gold.Chemscore.Hbonds>
donor molecule, donor type, donor heavy atom, donor atom, acceptor molecule, acceptor atom, score
      P1  H  6896  6908       L1    13  0.83
      P1  H  6931  6943       L1    21  1.00

> <Gold.PLP.Chemscore.Internal.Correction>
0.9446

> <Gold.Rescore>
     Score         DG    S(hbond)    S(metal)    S(lipo)     H(rot)  DE(clash)    DE(int)     intcor
     16.46     -18.22       1.88        0.00     108.80       2.44       0.09       1.67       ----

> <Gold.Chemscore.Fitness>
16.4551

> <Gold.Chemscore.DG>
-18.2192

> <Gold.Chemscore.ZeroCoef>
-5.4800

> <Gold.Chemscore.Hbond>
1.8753

> <Gold.Chemscore.Metal>
0.0000

> <Gold.Chemscore.Lipo>
108.8037

> <Gold.Chemscore.Internal_Hbond>
0.0000

> <Gold.Chemscore.DEClash>
0.0938

> <Gold.Chemscore.DEInternal>
1.6702

> <Gold.Chemscore.Rot>
2.4431

> <Gold.Chemscore.Internal.Correction>
   9.000000E+99

> <Gold.Chemscore.Hbonds>
donor molecule, donor type, donor heavy atom, donor atom, acceptor molecule, acceptor atom, score
      P1  H  6896  6908       L1    13  0.63
      P1  H  6931  6943       L1    21  0.51

> <Gold.Chemscore.Hbond.Weighted>
-6.2636

> <Gold.Chemscore.Metal.Weighted>
-0.0000

> <Gold.Chemscore.Lipo.Weighted>
-12.7300

> <Gold.Chemscore.Internal_Hbond.Weighted>
0.0000

> <Gold.Chemscore.DEClash.Weighted>
0.0938

> <Gold.Chemscore.DEInternal.Weighted>
1.6702

> <Gold.Chemscore.Rot.Weighted>
6.2544

> <Gold.Chemscore.Internal.Correction.Weighted>
   9.000000E+99

> <Gold.Protein.RotatedTorsions>
[ 6907 6896 6895 6894 ] final -164.23 input  -60.11 | X-H torsion
[ 7974 7965 7964 7962 ] final  122.12 input  175.53 | X-H torsion
[ 8008 7997 7996 7995 ] final    6.90 input   59.86 | X-H torsion
[ 10167 10162 10161 10158 ] final  -65.43 input  -65.29 | X-H torsion
[ 10718 10713 10712 10709 ] final   80.54 input   66.30 | X-H torsion
[ 10763 10752 10751 10750 ] final  -74.24 input  -60.55 | X-H torsion
[ 11005 11000 10999 10996 ] final   55.61 input  -57.11 | X-H torsion

> <Gold.Protein.ActiveResidues>
 VAL166  LYS551  ARG553  GLY616  TRP617  ASP618  TYR619  PRO620  LYS621  CYS622 
 ASP623  PHE694  ASN695  SER759  ASP760  ASP761  ALA762  ILE779  LEU786  VAL792 
 PHE793  MET794  SER795  GLU796  ALA797  LYS798  CYS799  TRP800  GLU811  SER814 

> <Gold.Protein.RotatedAtoms>
  151.4086  133.3734  159.2740 H   0  0  0  0  0  0  0  0  0  0  0  0  # atno 6907 bound_to 6896
  150.9380  134.8792  159.7604 H   0  0  0  0  0  0  0  0  0  0  0  0  # atno 6908 bound_to 6896
  152.5058  134.4035  159.9476 H   0  0  0  0  0  0  0  0  0  0  0  0  # atno 6909 bound_to 6896
  145.1112  139.3451  143.4762 H   0  0  0  0  0  0  0  0  0  0  0  0  # atno 7974 bound_to 7965
  154.7470  140.2759  155.6325 H   0  0  0  0  0  0  0  0  0  0  0  0  # atno 8008 bound_to 7997
  156.2887  140.2686  156.2139 H   0  0  0  0  0  0  0  0  0  0  0  0  # atno 8009 bound_to 7997
  155.0186  140.0371  157.2418 H   0  0  0  0  0  0  0  0  0  0  0  0  # atno 8010 bound_to 7997
  140.5730  143.2319  151.6499 H   0  0  0  0  0  0  0  0  0  0  0  0  # atno 10167 bound_to 10162
  157.6809  130.9964  150.2094 H   0  0  0  0  0  0  0  0  0  0  0  0  # atno 10718 bound_to 10713
  154.4705  135.5871  153.6318 H   0  0  0  0  0  0  0  0  0  0  0  0  # atno 10763 bound_to 10752
  152.9834  135.6065  154.3373 H   0  0  0  0  0  0  0  0  0  0  0  0  # atno 10764 bound_to 10752
  154.3254  135.2843  155.2477 H   0  0  0  0  0  0  0  0  0  0  0  0  # atno 10765 bound_to 10752
  140.0593  134.5625  155.9171 H   0  0  0  0  0  0  0  0  0  0  0  0  # atno 11005 bound_to 11000
  146.3526  140.1032  142.8607 LP  0  0  0  0  0  0  0  0  0  0  0  0  # atno 17320 bound_to 7965
  145.0844  140.9243  143.4806 LP  0  0  0  0  0  0  0  0  0  0  0  0  # atno 17321 bound_to 7965
  139.5127  144.3465  152.0692 LP  0  0  0  0  0  0  0  0  0  0  0  0  # atno 17342 bound_to 10162
  140.2605  144.4072  150.6187 LP  0  0  0  0  0  0  0  0  0  0  0  0  # atno 17343 bound_to 10162
  156.2768  130.3728  149.7975 LP  0  0  0  0  0  0  0  0  0  0  0  0  # atno 17370 bound_to 10713
  156.5675  130.8410  151.3347 LP  0  0  0  0  0  0  0  0  0  0  0  0  # atno 17371 bound_to 10713
  141.1966  133.6592  156.5700 LP  0  0  0  0  0  0  0  0  0  0  0  0  # atno 17394 bound_to 11000
  140.3795  134.7536  157.4652 LP  0  0  0  0  0  0  0  0  0  0  0  0  # atno 17395 bound_to 11000

$$$$
