AV-unprocessed.smi:67|AV-procd|sdf|630|dock10
  -GOLD-   2262016523D 1   1.00000     0.00000
 Structure written by MMmdl.
 49 51  0  0  0  0  0  0  0  0  3 V2000
  146.6581  134.5771  151.0665 O   0  0  0  0  0  0  0  0  0  0  0  0
  145.3224  134.5713  151.5408 C   0  0  2  0  0  0  0  0  0  0  0  0
  145.2984  135.2060  152.9492 C   0  0  0  0  0  0  0  0  0  0  0  0
  146.1931  136.3907  153.0410 N   0  3  2  0  0  0  0  0  0  0  0  0
  146.4225  136.8429  154.4378 C   0  0  0  0  0  0  0  0  0  0  0  0
  147.5280  137.9098  154.4989 C   0  0  0  0  0  0  0  0  0  0  0  0
  147.2176  139.0784  153.5390 C   0  0  1  0  0  0  0  0  0  0  0  0
  148.1547  140.1574  153.5889 O   0  0  0  0  0  0  0  0  0  0  0  0
  149.2666  140.1607  154.4105 C   0  0  0  0  0  0  0  0  0  0  0  0
  150.2687  139.2223  154.0889 C   0  0  0  0  0  0  0  0  0  0  0  0
  151.4481  139.1291  154.8511 C   0  0  0  0  0  0  0  0  0  0  0  0
  151.6430  139.9798  155.9537 C   0  0  0  0  0  0  0  0  0  0  0  0
  150.6549  140.9266  156.2959 C   0  0  0  0  0  0  0  0  0  0  0  0
  150.8331  141.8604  157.4835 C   0  0  0  0  0  0  0  0  0  0  0  0
  149.7414  141.8194  158.2472 F   0  0  0  0  0  0  0  0  0  0  0  0
  151.8861  141.5275  158.2306 F   0  0  0  0  0  0  0  0  0  0  0  0
  151.0012  143.1079  157.0453 F   0  0  0  0  0  0  0  0  0  0  0  0
  149.4762  141.0116  155.5249 C   0  0  0  0  0  0  0  0  0  0  0  0
  146.8494  138.6100  152.1149 C   0  0  0  0  0  0  0  0  0  0  0  0
  145.7730  137.5140  152.1630 C   0  0  0  0  0  0  0  0  0  0  0  0
  144.8078  133.1289  151.5214 C   0  0  0  0  0  0  0  0  0  0  0  0
  144.3992  132.8948  150.0647 C   0  0  0  0  0  0  0  0  0  0  0  0
  144.0534  134.2192  149.5132 N   0  3  0  0  0  0  0  0  0  0  0  0
  144.4124  135.2524  150.5056 C   0  0  0  0  0  0  0  0  0  0  0  0
  147.1563  135.2111  151.5611 H   0  0  0  0  0  0  0  0  0  0  0  0
  144.2782  135.4832  153.2203 H   0  0  0  0  0  0  0  0  0  0  0  0
  145.5927  134.4516  153.6810 H   0  0  0  0  0  0  0  0  0  0  0  0
  145.4925  137.2349  154.8532 H   0  0  0  0  0  0  0  0  0  0  0  0
  146.7148  135.9938  155.0572 H   0  0  0  0  0  0  0  0  0  0  0  0
  147.6148  138.2873  155.5181 H   0  0  0  0  0  0  0  0  0  0  0  0
  148.4800  137.4341  154.2791 H   0  0  0  0  0  0  0  0  0  0  0  0
  146.3077  139.5341  153.9320 H   0  0  0  0  0  0  0  0  0  0  0  0
  150.1315  138.5629  153.2443 H   0  0  0  0  0  0  0  0  0  0  0  0
  152.2039  138.4035  154.5886 H   0  0  0  0  0  0  0  0  0  0  0  0
  152.5527  139.8977  156.5299 H   0  0  0  0  0  0  0  0  0  0  0  0
  148.7532  141.7489  155.8250 H   0  0  0  0  0  0  0  0  0  0  0  0
  146.4816  139.4575  151.5356 H   0  0  0  0  0  0  0  0  0  0  0  0
  147.7075  138.2290  151.5677 H   0  0  0  0  0  0  0  0  0  0  0  0
  145.5889  137.1502  151.1522 H   0  0  0  0  0  0  0  0  0  0  0  0
  144.8303  137.9268  152.5262 H   0  0  0  0  0  0  0  0  0  0  0  0
  145.5379  132.4015  151.8789 H   0  0  0  0  0  0  0  0  0  0  0  0
  143.9243  133.0424  152.1559 H   0  0  0  0  0  0  0  0  0  0  0  0
  145.2392  132.4947  149.4958 H   0  0  0  0  0  0  0  0  0  0  0  0
  143.5680  132.1954  149.9731 H   0  0  0  0  0  0  0  0  0  0  0  0
  144.5818  134.3650  148.6646 H   0  0  0  0  0  0  0  0  0  0  0  0
  143.4853  135.5788  150.9778 H   0  0  0  0  0  0  0  0  0  0  0  0
  144.8690  136.1243  150.0354 H   0  0  0  0  0  0  0  0  0  0  0  0
  143.0653  134.2691  149.3088 H   0  0  0  0  0  0  0  0  0  0  0  0
  147.0928  136.0794  152.7026 H   0  0  0  0  0  0  0  0  0  0  0  0
  1  2  1  0  0  0  0
  1 25  1  0  0  0  0
  2 24  1  0  0  0  0
  2  3  1  0  0  0  0
  2 21  1  0  0  0  0
  3  4  1  0  0  0  0
  3 26  1  0  0  0  0
  3 27  1  0  0  0  0
  4 20  1  0  0  0  0
  4  5  1  0  0  0  0
  4 49  1  0  0  0  0
  5  6  1  0  0  0  0
  5 28  1  0  0  0  0
  5 29  1  0  0  0  0
  6  7  1  0  0  0  0
  6 30  1  0  0  0  0
  6 31  1  0  0  0  0
  7  8  1  0  0  0  0
  7 19  1  0  0  0  0
  7 32  1  0  0  0  0
  8  9  1  0  0  0  0
  9 18  1  0  0  0  0
  9 10  2  0  0  0  0
 10 11  1  0  0  0  0
 10 33  1  0  0  0  0
 11 12  2  0  0  0  0
 11 34  1  0  0  0  0
 12 13  1  0  0  0  0
 12 35  1  0  0  0  0
 13 14  1  0  0  0  0
 13 18  2  0  0  0  0
 14 15  1  0  0  0  0
 14 16  1  0  0  0  0
 14 17  1  0  0  0  0
 18 36  1  0  0  0  0
 19 20  1  0  0  0  0
 19 37  1  0  0  0  0
 19 38  1  0  0  0  0
 20 39  1  0  0  0  0
 20 40  1  0  0  0  0
 21 22  1  0  0  0  0
 21 41  1  0  0  0  0
 21 42  1  0  0  0  0
 22 23  1  0  0  0  0
 22 43  1  0  0  0  0
 22 44  1  0  0  0  0
 23 24  1  0  0  0  0
 23 45  1  0  0  0  0
 23 48  1  0  0  0  0
 24 46  1  0  0  0  0
 24 47  1  0  0  0  0
M  CHG  1   4   1
M  CHG  1  23   1
M  END
> <s_m_source_file>
AV-unprocessed.smi

> <i_m_source_file_index>
67

> <i_lp_mmshare_version>
43012

> <i_f3d_flags>
0

> <s_epik_input>
W0NIMl0xW05IXVtDSDJdW0NIMl1bQ0BAXTEoW09IXSlbQ0gyXU4yW0NIMl1bQ0gyXVtDSF0oW0NIMl1bQ0gyXTIpT2MzW2NIXVtjSF1bY0hdYyhDKEYpKEYpRilbY0hdMw==

> <s_epik_cmdline>
J2VwaWtfcHl0aG9uJywgJy1waCcsICc3LjAnLCAnLXRuJywgJzgnLCAnLW1hJywgJzIwMCcsICctbWV0YWxfYmluZGluZycsICctaW1hZScsICc8aW5maWxlLm1hZT4nLCAnLW9tYWUnLCAnPG91dGZpbGUubWFlPic=

> <r_lp_tautomer_probability>
1

> <r_epik_Ionization_Penalty>
0.0989853

> <r_epik_Ionization_Penalty_Charging>
0.0989662

> <r_epik_Ionization_Penalty_Neutral>
1.91014e-05

> <r_epik_State_Penalty>
0.0852826

> <r_epik_Charging_Adjusted_Penalty>
0.184249

> <i_epik_Tot_Q>
2

> <i_epik_Tot_abs_Q>
2

> <r_epik_Metal_State_Penalty>
0.0849414

> <b_epik_Metal_Only>
0

> <s_lp_Force_Field>
OPLS_2005

> <r_lp_Energy>
59.8113

> <b_lp_Chiralities_Consistent>
1

> <s_lp_Variant>
AV-unprocessed.smi:67-2

> <Gold.Version>
5.8.1

> <Gold.Id.Protein>
6NUR|6NUR_protein|mol2

> <Gold.PLP.Fitness>
57.7133

> <Gold.PLP.PLP>
-42.1151

> <Gold.PLP.part.hbond>
-4.0000

> <Gold.PLP.part.metal>
0.0000

> <Gold.PLP.part.buried>
0.0810

> <Gold.PLP.part.nonpolar>
-38.6838

> <Gold.PLP.part.repulsive>
2.6000

> <Gold.PLP.ligand.clash>
0.0000

> <Gold.PLP.ligand.torsion>
1.3695

> <Gold.PLP.Chemscore.Hbond>
5.9360

> <Gold.PLP.Chemscore.CHOScore>
0.0000

> <Gold.PLP.Chemscore.Metal>
0.0000

> <Gold.Chemscore.Hbonds>
donor molecule, donor type, donor heavy atom, donor atom, acceptor molecule, acceptor atom, score
      L1  H     1    25       P1  7948  0.92
      L1  H     4    49       P1  7948  1.95
      L1  H    23    45       P1  7921  1.00
      L1  H    23    48       P1 10186  1.82

> <Gold.PLP.Chemscore.Internal.Correction>
0.5291

> <Gold.Rescore>
     Score         DG    S(hbond)    S(metal)    S(lipo)     H(rot)  DE(clash)    DE(int)     intcor
     20.01     -22.48       3.27        0.00     100.86       2.24       0.94       1.53       ----

> <Gold.Chemscore.Fitness>
20.0078

> <Gold.Chemscore.DG>
-22.4816

> <Gold.Chemscore.ZeroCoef>
-5.4800

> <Gold.Chemscore.Hbond>
3.2703

> <Gold.Chemscore.Metal>
0.0000

> <Gold.Chemscore.Lipo>
100.8620

> <Gold.Chemscore.Internal_Hbond>
0.0000

> <Gold.Chemscore.DEClash>
0.9436

> <Gold.Chemscore.DEInternal>
1.5302

> <Gold.Chemscore.Rot>
2.2352

> <Gold.Chemscore.Internal.Correction>
   9.000000E+99

> <Gold.Chemscore.Hbonds>
donor molecule, donor type, donor heavy atom, donor atom, acceptor molecule, acceptor atom, score
      L1  H     1    25       P1  7948  0.77
      L1  H     4    49       P1  7948  0.92
      L1  H    23    45       P1  7921  0.98
      L1  H    23    48       P1 10186  0.87

> <Gold.Chemscore.Hbond.Weighted>
-10.9229

> <Gold.Chemscore.Metal.Weighted>
-0.0000

> <Gold.Chemscore.Lipo.Weighted>
-11.8009

> <Gold.Chemscore.Internal_Hbond.Weighted>
0.0000

> <Gold.Chemscore.DEClash.Weighted>
0.9436

> <Gold.Chemscore.DEInternal.Weighted>
1.5302

> <Gold.Chemscore.Rot.Weighted>
5.7221

> <Gold.Chemscore.Internal.Correction.Weighted>
   9.000000E+99

> <Gold.Protein.RotatedTorsions>
[ 6907 6896 6895 6894 ] final    0.12 input  -60.11 | X-H torsion
[ 7974 7965 7964 7962 ] final -101.11 input  175.53 | X-H torsion
[ 8008 7997 7996 7995 ] final  -79.37 input   59.86 | X-H torsion
[ 10167 10162 10161 10158 ] final   21.11 input  -65.29 | X-H torsion
[ 10718 10713 10712 10709 ] final   36.93 input   66.30 | X-H torsion
[ 10763 10752 10751 10750 ] final   11.31 input  -60.55 | X-H torsion
[ 11005 11000 10999 10996 ] final   93.71 input  -57.11 | X-H torsion

> <Gold.Protein.ActiveResidues>
 VAL166  LYS551  ARG553  GLY616  TRP617  ASP618  TYR619  PRO620  LYS621  CYS622 
 ASP623  PHE694  ASN695  SER759  ASP760  ASP761  ALA762  ILE779  LEU786  VAL792 
 PHE793  MET794  SER795  GLU796  ALA797  LYS798  CYS799  TRP800  GLU811  SER814 

> <Gold.Protein.RotatedAtoms>
  151.5713  135.1062  159.9995 H   0  0  0  0  0  0  0  0  0  0  0  0  # atno 6907 bound_to 6896
  152.4399  133.7425  159.6659 H   0  0  0  0  0  0  0  0  0  0  0  0  # atno 6908 bound_to 6896
  150.8303  133.8033  159.3125 H   0  0  0  0  0  0  0  0  0  0  0  0  # atno 6909 bound_to 6896
  145.2859  140.9339  143.2905 H   0  0  0  0  0  0  0  0  0  0  0  0  # atno 7974 bound_to 7965
  154.5779  140.0679  156.9060 H   0  0  0  0  0  0  0  0  0  0  0  0  # atno 8008 bound_to 7997
  155.2516  140.3352  155.4263 H   0  0  0  0  0  0  0  0  0  0  0  0  # atno 8009 bound_to 7997
  156.2167  140.1781  156.7557 H   0  0  0  0  0  0  0  0  0  0  0  0  # atno 8010 bound_to 7997
  140.5452  143.9607  150.6543 H   0  0  0  0  0  0  0  0  0  0  0  0  # atno 10167 bound_to 10162
  157.3408  130.7547  149.6910 H   0  0  0  0  0  0  0  0  0  0  0  0  # atno 10718 bound_to 10713
  153.1939  135.6846  153.8316 H   0  0  0  0  0  0  0  0  0  0  0  0  # atno 10763 bound_to 10752
  153.7606  135.3210  155.3337 H   0  0  0  0  0  0  0  0  0  0  0  0  # atno 10764 bound_to 10752
  154.8133  135.4702  154.0675 H   0  0  0  0  0  0  0  0  0  0  0  0  # atno 10765 bound_to 10752
  139.8807  134.8805  156.3757 H   0  0  0  0  0  0  0  0  0  0  0  0  # atno 11005 bound_to 11000
  144.9214  139.4407  143.6539 LP  0  0  0  0  0  0  0  0  0  0  0  0  # atno 17320 bound_to 7965
  146.3201  139.8076  142.8952 LP  0  0  0  0  0  0  0  0  0  0  0  0  # atno 17321 bound_to 7965
  140.3018  143.3255  152.0964 LP  0  0  0  0  0  0  0  0  0  0  0  0  # atno 17342 bound_to 10162
  139.5004  144.6692  151.6284 LP  0  0  0  0  0  0  0  0  0  0  0  0  # atno 17343 bound_to 10162
  155.9707  130.4168  150.4249 LP  0  0  0  0  0  0  0  0  0  0  0  0  # atno 17370 bound_to 10713
  157.2297  131.0501  151.2499 LP  0  0  0  0  0  0  0  0  0  0  0  0  # atno 17371 bound_to 10713
  140.9433  133.7500  156.0175 LP  0  0  0  0  0  0  0  0  0  0  0  0  # atno 17394 bound_to 11000
  140.8193  134.3308  157.5387 LP  0  0  0  0  0  0  0  0  0  0  0  0  # atno 17395 bound_to 11000

$$$$
