AV-unprocessed.smi:41|AV-procd|sdf|385|dock6
  -GOLD-   2262016243D 1   1.00000     0.00000
 Structure written by MMmdl.
 26 27  0  0  0  0  0  0  0  0  1 V2000
  154.5795  141.7119  162.7368 N   0  0  0  0  0  0  0  0  0  0  0  0
  153.9413  141.6391  161.5595 C   0  0  0  0  0  0  0  0  0  0  0  0
  154.2300  140.6524  160.7341 N   0  0  0  0  0  0  0  0  0  0  0  0
  153.6326  140.4950  159.5107 C   0  0  0  0  0  0  0  0  0  0  0  0
  153.9255  139.5373  158.7961 O   0  0  0  0  0  0  0  0  0  0  0  0
  152.6829  141.4706  159.1120 N   0  0  0  0  0  0  0  0  0  0  0  0
  151.9658  141.3312  157.8455 C   0  0  2  0  0  0  0  0  0  0  0  0
  150.8081  142.3272  157.6469 C   0  0  0  0  0  0  0  0  0  0  0  0
  149.7313  141.5876  156.4112 S   0  0  0  0  0  0  0  0  0  0  0  0
  150.5502  139.9888  156.6340 C   0  0  1  0  0  0  0  0  0  0  0  0
  151.3042  139.5664  155.3582 C   0  0  0  0  0  0  0  0  0  0  0  0
  150.5564  139.9174  154.2136 O   0  0  0  0  0  0  0  0  0  0  0  0
  151.4414  140.0451  157.7425 O   0  0  0  0  0  0  0  0  0  0  0  0
  152.3463  142.4902  159.9951 C   0  0  0  0  0  0  0  0  0  0  0  0
  152.9432  142.6192  161.1993 C   0  0  0  0  0  0  0  0  0  0  0  0
  152.6123  143.6203  162.0332 F   0  0  0  0  0  0  0  0  0  0  0  0
  152.6632  141.4609  157.0175 H   0  0  0  0  0  0  0  0  0  0  0  0
  149.7712  139.2574  156.8520 H   0  0  0  0  0  0  0  0  0  0  0  0
  154.3629  142.4584  163.3815 H   0  0  0  0  0  0  0  0  0  0  0  0
  155.2770  141.0218  162.9750 H   0  0  0  0  0  0  0  0  0  0  0  0
  150.2221  142.4648  158.5521 H   0  0  0  0  0  0  0  0  0  0  0  0
  151.1891  143.2978  157.3286 H   0  0  0  0  0  0  0  0  0  0  0  0
  152.2540  140.0978  155.2920 H   0  0  0  0  0  0  0  0  0  0  0  0
  151.5346  138.5014  155.3454 H   0  0  0  0  0  0  0  0  0  0  0  0
  149.7201  139.4793  154.2546 H   0  0  0  0  0  0  0  0  0  0  0  0
  151.5796  143.2070  159.7444 H   0  0  0  0  0  0  0  0  0  0  0  0
  1  2  1  0  0  0  0
  1 19  1  0  0  0  0
  1 20  1  0  0  0  0
  2 15  1  0  0  0  0
  2  3  2  0  0  0  0
  3  4  1  0  0  0  0
  4  5  2  0  0  0  0
  4  6  1  0  0  0  0
  6  7  1  0  0  0  0
  6 14  1  0  0  0  0
  7 17  1  0  0  0  0
  7 13  1  0  0  0  0
  7  8  1  0  0  0  0
  8  9  1  0  0  0  0
  8 21  1  0  0  0  0
  8 22  1  0  0  0  0
  9 10  1  0  0  0  0
 10 18  1  0  0  0  0
 10 11  1  0  0  0  0
 10 13  1  0  0  0  0
 11 12  1  0  0  0  0
 11 23  1  0  0  0  0
 11 24  1  0  0  0  0
 12 25  1  0  0  0  0
 14 15  2  0  0  0  0
 14 26  1  0  0  0  0
 15 16  1  0  0  0  0
M  END
> <s_m_source_file>
AV-unprocessed.smi

> <i_m_source_file_index>
41

> <i_lp_mmshare_version>
43012

> <i_f3d_flags>
0

> <s_epik_input>
W05IMl1jMW5jKD1PKW4oW2NIXWMxRilbQ0BASF0yW0NIMl1TW0NAQEhdKE8yKVtDSDJdW09IXQ==

> <s_epik_cmdline>
J2VwaWtfcHl0aG9uJywgJy1waCcsICc3LjAnLCAnLXRuJywgJzgnLCAnLW1hJywgJzIwMCcsICctbWV0YWxfYmluZGluZycsICctaW1hZScsICc8aW5maWxlLm1hZT4nLCAnLW9tYWUnLCAnPG91dGZpbGUubWFlPic=

> <r_lp_tautomer_probability>
1

> <r_epik_Ionization_Penalty>
0.000101883

> <r_epik_Ionization_Penalty_Charging>
1.48607e-08

> <r_epik_Ionization_Penalty_Neutral>
0.000101868

> <r_epik_State_Penalty>
-0

> <r_epik_Charging_Adjusted_Penalty>
1.48607e-08

> <i_epik_Tot_Q>
0

> <i_epik_Tot_abs_Q>
0

> <r_epik_Metal_State_Penalty>
-0

> <b_epik_Metal_Only>
0

> <s_epik_Chemistry_Notes>
This compound contains an acetal/aminal-like group ( X-CH(R)-Y where X, Y are N, S, or O) that may be acid/base labile, releasing an aldehyde.

> <s_lp_Force_Field>
OPLS_2005

> <r_lp_Energy>
16.0015

> <b_lp_Chiralities_Consistent>
1

> <s_lp_Variant>
AV-unprocessed.smi:41-3

> <Gold.Version>
5.8.1

> <Gold.Id.Protein>
6NUR|6NUR_protein|mol2

> <Gold.PLP.Fitness>
39.8646

> <Gold.PLP.PLP>
-34.4290

> <Gold.PLP.part.hbond>
-3.4618

> <Gold.PLP.part.metal>
0.0000

> <Gold.PLP.part.buried>
-3.4535

> <Gold.PLP.part.nonpolar>
-26.3268

> <Gold.PLP.part.repulsive>
0.0099

> <Gold.PLP.ligand.clash>
0.0000

> <Gold.PLP.ligand.torsion>
0.3040

> <Gold.PLP.Chemscore.Hbond>
2.0000

> <Gold.PLP.Chemscore.CHOScore>
0.0000

> <Gold.PLP.Chemscore.Metal>
0.0000

> <Gold.Chemscore.Hbonds>
donor molecule, donor type, donor heavy atom, donor atom, acceptor molecule, acceptor atom, score
      P1  H  7989  7998       L1    12  1.00
      P1  H  7997  8009       L1     5  1.00

> <Gold.PLP.Chemscore.Internal.Correction>
0.0436

> <Gold.Rescore>
     Score         DG    S(hbond)    S(metal)    S(lipo)     H(rot)  DE(clash)    DE(int)     intcor
      8.76     -11.75       1.93        0.00      46.58       2.19       1.28       1.70       ----

> <Gold.Chemscore.Fitness>
8.7622

> <Gold.Chemscore.DG>
-11.7466

> <Gold.Chemscore.ZeroCoef>
-5.4800

> <Gold.Chemscore.Hbond>
1.9253

> <Gold.Chemscore.Metal>
0.0000

> <Gold.Chemscore.Lipo>
46.5807

> <Gold.Chemscore.Internal_Hbond>
0.0000

> <Gold.Chemscore.DEClash>
1.2835

> <Gold.Chemscore.DEInternal>
1.7009

> <Gold.Chemscore.Rot>
2.1929

> <Gold.Chemscore.Internal.Correction>
   9.000000E+99

> <Gold.Chemscore.Hbonds>
donor molecule, donor type, donor heavy atom, donor atom, acceptor molecule, acceptor atom, score
      P1  H  7989  7998       L1    12  0.25
      P1  H  7997  8009       L1     5  0.85

> <Gold.Chemscore.Hbond.Weighted>
-6.4304

> <Gold.Chemscore.Metal.Weighted>
-0.0000

> <Gold.Chemscore.Lipo.Weighted>
-5.4499

> <Gold.Chemscore.Internal_Hbond.Weighted>
0.0000

> <Gold.Chemscore.DEClash.Weighted>
1.2835

> <Gold.Chemscore.DEInternal.Weighted>
1.7009

> <Gold.Chemscore.Rot.Weighted>
5.6137

> <Gold.Chemscore.Internal.Correction.Weighted>
   9.000000E+99

> <Gold.Protein.RotatedTorsions>
[ 6907 6896 6895 6894 ] final   85.82 input  -60.11 | X-H torsion
[ 7974 7965 7964 7962 ] final  -98.84 input  175.53 | X-H torsion
[ 8008 7997 7996 7995 ] final  126.70 input   59.86 | X-H torsion
[ 10167 10162 10161 10158 ] final  -29.36 input  -65.29 | X-H torsion
[ 10718 10713 10712 10709 ] final  138.32 input   66.30 | X-H torsion
[ 10763 10752 10751 10750 ] final  104.58 input  -60.55 | X-H torsion
[ 11005 11000 10999 10996 ] final  -77.91 input  -57.11 | X-H torsion

> <Gold.Protein.ActiveResidues>
 VAL166  LYS551  ARG553  GLY616  TRP617  ASP618  TYR619  PRO620  LYS621  CYS622 
 ASP623  PHE694  ASN695  SER759  ASP760  ASP761  ALA762  ILE779  LEU786  VAL792 
 PHE793  MET794  SER795  GLU796  ALA797  LYS798  CYS799  TRP800  GLU811  SER814 

> <Gold.Protein.RotatedAtoms>
  152.5382  134.2527  159.8904 H   0  0  0  0  0  0  0  0  0  0  0  0  # atno 6907 bound_to 6896
  151.2490  133.4353  159.2618 H   0  0  0  0  0  0  0  0  0  0  0  0  # atno 6908 bound_to 6896
  151.0557  134.9717  159.8290 H   0  0  0  0  0  0  0  0  0  0  0  0  # atno 6909 bound_to 6896
  145.3154  140.9410  143.2746 H   0  0  0  0  0  0  0  0  0  0  0  0  # atno 7974 bound_to 7965
  156.2871  140.2686  156.2153 H   0  0  0  0  0  0  0  0  0  0  0  0  # atno 8008 bound_to 7997
  155.0223  140.0386  157.2460 H   0  0  0  0  0  0  0  0  0  0  0  0  # atno 8009 bound_to 7997
  154.7425  140.2727  155.6366 H   0  0  0  0  0  0  0  0  0  0  0  0  # atno 8010 bound_to 7997
  140.7261  143.3935  151.1388 H   0  0  0  0  0  0  0  0  0  0  0  0  # atno 10167 bound_to 10162
  157.4265  131.1044  151.0296 H   0  0  0  0  0  0  0  0  0  0  0  0  # atno 10718 bound_to 10713
  153.3679  135.3938  155.1767 H   0  0  0  0  0  0  0  0  0  0  0  0  # atno 10763 bound_to 10752
  154.8689  135.3695  154.5015 H   0  0  0  0  0  0  0  0  0  0  0  0  # atno 10764 bound_to 10752
  153.5481  135.7083  153.5665 H   0  0  0  0  0  0  0  0  0  0  0  0  # atno 10765 bound_to 10752
  141.1662  133.7041  156.7892 H   0  0  0  0  0  0  0  0  0  0  0  0  # atno 11005 bound_to 11000
  144.8982  139.4684  143.6645 LP  0  0  0  0  0  0  0  0  0  0  0  0  # atno 17320 bound_to 7965
  146.3102  139.7720  142.9025 LP  0  0  0  0  0  0  0  0  0  0  0  0  # atno 17321 bound_to 7965
  139.7544  143.8730  152.3085 LP  0  0  0  0  0  0  0  0  0  0  0  0  # atno 17342 bound_to 10162
  139.8595  144.7124  150.9117 LP  0  0  0  0  0  0  0  0  0  0  0  0  # atno 17343 bound_to 10162
  157.1208  130.6061  149.5504 LP  0  0  0  0  0  0  0  0  0  0  0  0  # atno 17370 bound_to 10713
  155.9898  130.4947  150.7231 LP  0  0  0  0  0  0  0  0  0  0  0  0  # atno 17371 bound_to 10713
  140.2338  134.8666  157.3503 LP  0  0  0  0  0  0  0  0  0  0  0  0  # atno 17394 bound_to 11000
  140.1865  134.4425  155.7741 LP  0  0  0  0  0  0  0  0  0  0  0  0  # atno 17395 bound_to 11000

$$$$
