AV-unprocessed.smi:3232|AV-procd|sdf|12343|dock5
  -GOLD-   2272018203D 1   1.00000     0.00000
 Structure written by MMmdl.
 40 41  0  0  0  0  0  0  0  0  2 V2000
  146.5235  138.3922  151.7708 C   0  0  0  0  0  0  0  0  0  0  0  0
  145.5783  137.2841  152.2536 C   0  0  0  0  0  0  0  0  0  0  0  0
  146.2163  135.9461  152.2140 N   0  3  2  0  0  0  0  0  0  0  0  0
  145.7719  135.0805  151.1008 C   0  0  0  0  0  0  0  0  0  0  0  0
  146.0533  133.6584  151.5687 C   0  0  0  0  0  0  0  0  0  0  0  0
  145.7368  133.7247  153.0578 C   0  0  0  0  0  0  0  0  0  0  0  0
  146.0835  135.1692  153.4724 C   0  0  1  0  0  0  0  0  0  0  0  0
  147.3762  135.2805  154.3082 C   0  0  0  0  0  0  0  0  0  0  0  0
  148.0290  136.5721  154.1327 N   0  0  0  0  0  0  0  0  0  0  0  0
  148.0863  137.5384  155.0631 C   0  0  0  0  0  0  0  0  0  0  0  0
  147.5036  137.4583  156.1453 O   0  0  0  0  0  0  0  0  0  0  0  0
  148.9510  138.7621  154.7169 C   0  0  1  0  0  0  0  0  0  0  0  0
  148.7488  139.9407  155.6908 C   0  0  0  0  0  0  0  0  0  0  0  0
  150.3535  138.3734  154.6202 N   0  0  0  0  0  0  0  0  0  0  0  0
  150.9204  137.1692  154.7225 C   0  0  0  0  0  0  0  0  0  0  0  0
  152.2431  137.1877  154.6390 N   0  0  0  0  0  0  0  0  0  0  0  0
  152.4431  138.5291  154.4764 C   0  0  0  0  0  0  0  0  0  0  0  0
  151.3461  139.2862  154.4703 N   0  0  0  0  0  0  0  0  0  0  0  0
  146.0486  139.3693  151.8624 H   0  0  0  0  0  0  0  0  0  0  0  0
  146.7987  138.2602  150.7244 H   0  0  0  0  0  0  0  0  0  0  0  0
  147.4402  138.4135  152.3611 H   0  0  0  0  0  0  0  0  0  0  0  0
  145.2854  137.5009  153.2818 H   0  0  0  0  0  0  0  0  0  0  0  0
  144.6619  137.2797  151.6614 H   0  0  0  0  0  0  0  0  0  0  0  0
  144.7002  135.2054  150.9370 H   0  0  0  0  0  0  0  0  0  0  0  0
  146.2873  135.3212  150.1705 H   0  0  0  0  0  0  0  0  0  0  0  0
  145.4602  132.9112  151.0405 H   0  0  0  0  0  0  0  0  0  0  0  0
  147.1075  133.4194  151.4230 H   0  0  0  0  0  0  0  0  0  0  0  0
  144.6703  133.5512  153.2084 H   0  0  0  0  0  0  0  0  0  0  0  0
  146.2690  132.9608  153.6258 H   0  0  0  0  0  0  0  0  0  0  0  0
  145.2461  135.5620  154.0525 H   0  0  0  0  0  0  0  0  0  0  0  0
  147.1489  135.1570  155.3675 H   0  0  0  0  0  0  0  0  0  0  0  0
  148.0719  134.4812  154.0464 H   0  0  0  0  0  0  0  0  0  0  0  0
  148.5250  136.7193  153.2653 H   0  0  0  0  0  0  0  0  0  0  0  0
  148.6414  139.1010  153.7269 H   0  0  0  0  0  0  0  0  0  0  0  0
  147.7082  140.2666  155.7040 H   0  0  0  0  0  0  0  0  0  0  0  0
  149.3536  140.7979  155.3932 H   0  0  0  0  0  0  0  0  0  0  0  0
  149.0276  139.6798  156.7128 H   0  0  0  0  0  0  0  0  0  0  0  0
  150.3547  136.2610  154.8727 H   0  0  0  0  0  0  0  0  0  0  0  0
  153.4268  138.9621  154.3696 H   0  0  0  0  0  0  0  0  0  0  0  0
  147.2078  136.0888  152.0843 H   0  0  0  0  0  0  0  0  0  0  0  0
  1  2  1  0  0  0  0
  1 19  1  0  0  0  0
  1 20  1  0  0  0  0
  1 21  1  0  0  0  0
  2  3  1  0  0  0  0
  2 22  1  0  0  0  0
  2 23  1  0  0  0  0
  3  7  1  0  0  0  0
  3  4  1  0  0  0  0
  3 40  1  0  0  0  0
  4  5  1  0  0  0  0
  4 24  1  0  0  0  0
  4 25  1  0  0  0  0
  5  6  1  0  0  0  0
  5 26  1  0  0  0  0
  5 27  1  0  0  0  0
  6  7  1  0  0  0  0
  6 28  1  0  0  0  0
  6 29  1  0  0  0  0
  7  8  1  0  0  0  0
  7 30  1  0  0  0  0
  8  9  1  0  0  0  0
  8 31  1  0  0  0  0
  8 32  1  0  0  0  0
  9 10  1  0  0  0  0
  9 33  1  0  0  0  0
 10 11  2  0  0  0  0
 10 12  1  0  0  0  0
 12 13  1  0  0  0  0
 12 14  1  0  0  0  0
 12 34  1  0  0  0  0
 13 35  1  0  0  0  0
 13 36  1  0  0  0  0
 13 37  1  0  0  0  0
 14 18  1  0  0  0  0
 14 15  1  0  0  0  0
 15 16  2  0  0  0  0
 15 38  1  0  0  0  0
 16 17  1  0  0  0  0
 17 18  2  0  0  0  0
 17 39  1  0  0  0  0
M  CHG  1   3   1
M  END
> <s_m_source_file>
AV-unprocessed.smi

> <i_m_source_file_index>
3232

> <i_lp_mmshare_version>
43012

> <i_f3d_flags>
0

> <s_epik_input>
W0NIM11bQ0gyXU4xW0NIMl1bQ0gyXVtDSDJdW0NASF0xW0NIMl1bTkhdQyg9TylbQ0BIXShbQ0gzXSluMltjSF1uW2NIXW4y

> <s_epik_cmdline>
J2VwaWtfcHl0aG9uJywgJy1waCcsICc3LjAnLCAnLXRuJywgJzgnLCAnLW1hJywgJzIwMCcsICctbWV0YWxfYmluZGluZycsICctaW1hZScsICc8aW5maWxlLm1hZT4nLCAnLW9tYWUnLCAnPG91dGZpbGUubWFlPic=

> <r_lp_tautomer_probability>
1

> <r_epik_Ionization_Penalty>
0.00177695

> <r_epik_Ionization_Penalty_Charging>
0.00176881

> <r_epik_Ionization_Penalty_Neutral>
8.13528e-06

> <r_epik_State_Penalty>
0.00119827

> <r_epik_Charging_Adjusted_Penalty>
0.00296709

> <i_epik_Tot_Q>
1

> <i_epik_Tot_abs_Q>
1

> <r_epik_Metal_State_Penalty>
-0

> <b_epik_Metal_Only>
0

> <s_lp_Force_Field>
OPLS_2005

> <r_lp_Energy>
32.1761

> <b_lp_Chiralities_Consistent>
1

> <s_lp_Variant>
AV-unprocessed.smi:3232-5

> <Gold.Version>
5.8.1

> <Gold.Id.Protein>
6NUR|6NUR_protein|mol2

> <Gold.PLP.Fitness>
38.5981

> <Gold.PLP.PLP>
-26.7828

> <Gold.PLP.part.hbond>
-3.8604

> <Gold.PLP.part.metal>
0.0000

> <Gold.PLP.part.buried>
-2.8011

> <Gold.PLP.part.nonpolar>
-20.7975

> <Gold.PLP.part.repulsive>
0.2579

> <Gold.PLP.ligand.clash>
0.0000

> <Gold.PLP.ligand.torsion>
1.3870

> <Gold.PLP.Chemscore.Hbond>
4.8160

> <Gold.PLP.Chemscore.CHOScore>
0.0000

> <Gold.PLP.Chemscore.Metal>
0.0000

> <Gold.Chemscore.Hbonds>
donor molecule, donor type, donor heavy atom, donor atom, acceptor molecule, acceptor atom, score
      L1  H     3    40       P1  7948  2.00
      L1  H     9    33       P1  7948  1.00
      P1  H  7989  7998       L1    18  1.00
      P1  H 10752 10765       L1    16  0.82

> <Gold.PLP.Chemscore.Internal.Correction>
0.1413

> <Gold.Rescore>
     Score         DG    S(hbond)    S(metal)    S(lipo)     H(rot)  DE(clash)    DE(int)     intcor
     14.59     -16.08       3.60        0.00      42.44       2.49       0.03       1.47       ----

> <Gold.Chemscore.Fitness>
14.5880

> <Gold.Chemscore.DG>
-16.0848

> <Gold.Chemscore.ZeroCoef>
-5.4800

> <Gold.Chemscore.Hbond>
3.5954

> <Gold.Chemscore.Metal>
0.0000

> <Gold.Chemscore.Lipo>
42.4439

> <Gold.Chemscore.Internal_Hbond>
0.0000

> <Gold.Chemscore.DEClash>
0.0297

> <Gold.Chemscore.DEInternal>
1.4672

> <Gold.Chemscore.Rot>
2.4882

> <Gold.Chemscore.Internal.Correction>
   9.000000E+99

> <Gold.Chemscore.Hbonds>
donor molecule, donor type, donor heavy atom, donor atom, acceptor molecule, acceptor atom, score
      L1  H     3    40       P1  7948  1.00
      L1  H     9    33       P1  7948  0.90
      P1  H  7989  7998       L1    18  0.74
      P1  H 10752 10765       L1    16  0.72

> <Gold.Chemscore.Hbond.Weighted>
-12.0087

> <Gold.Chemscore.Metal.Weighted>
-0.0000

> <Gold.Chemscore.Lipo.Weighted>
-4.9659

> <Gold.Chemscore.Internal_Hbond.Weighted>
0.0000

> <Gold.Chemscore.DEClash.Weighted>
0.0297

> <Gold.Chemscore.DEInternal.Weighted>
1.4672

> <Gold.Chemscore.Rot.Weighted>
6.3697

> <Gold.Chemscore.Internal.Correction.Weighted>
   9.000000E+99

> <Gold.Protein.RotatedTorsions>
[ 6907 6896 6895 6894 ] final  -22.76 input  -60.11 | X-H torsion
[ 7974 7965 7964 7962 ] final   15.80 input  175.53 | X-H torsion
[ 8008 7997 7996 7995 ] final  118.72 input   59.86 | X-H torsion
[ 10167 10162 10161 10158 ] final   65.00 input  -65.29 | X-H torsion
[ 10718 10713 10712 10709 ] final -158.11 input   66.30 | X-H torsion
[ 10763 10752 10751 10750 ] final  169.02 input  -60.55 | X-H torsion
[ 11005 11000 10999 10996 ] final -115.62 input  -57.11 | X-H torsion

> <Gold.Protein.ActiveResidues>
 VAL166  LYS551  ARG553  GLY616  TRP617  ASP618  TYR619  PRO620  LYS621  CYS622 
 ASP623  PHE694  ASN695  SER759  ASP760  ASP761  ALA762  ILE779  LEU786  VAL792 
 PHE793  MET794  SER795  GLU796  ALA797  LYS798  CYS799  TRP800  GLU811  SER814 

> <Gold.Protein.RotatedAtoms>
  151.2139  135.0492  159.8922 H   0  0  0  0  0  0  0  0  0  0  0  0  # atno 6907 bound_to 6896
  152.5422  134.0715  159.8206 H   0  0  0  0  0  0  0  0  0  0  0  0  # atno 6908 bound_to 6896
  151.0872  133.5296  159.2649 H   0  0  0  0  0  0  0  0  0  0  0  0  # atno 6909 bound_to 6896
  146.2268  139.8841  142.8566 H   0  0  0  0  0  0  0  0  0  0  0  0  # atno 7974 bound_to 7965
  156.2560  140.2868  156.0879 H   0  0  0  0  0  0  0  0  0  0  0  0  # atno 8008 bound_to 7997
  155.1495  140.0397  157.2835 H   0  0  0  0  0  0  0  0  0  0  0  0  # atno 8009 bound_to 7997
  154.6471  140.2536  155.7262 H   0  0  0  0  0  0  0  0  0  0  0  0  # atno 8010 bound_to 7997
  140.1161  144.4774  150.6949 H   0  0  0  0  0  0  0  0  0  0  0  0  # atno 10167 bound_to 10162
  156.5495  130.8599  151.2775 H   0  0  0  0  0  0  0  0  0  0  0  0  # atno 10718 bound_to 10713
  154.3771  135.2753  155.2233 H   0  0  0  0  0  0  0  0  0  0  0  0  # atno 10763 bound_to 10752
  154.4356  135.5967  153.6100 H   0  0  0  0  0  0  0  0  0  0  0  0  # atno 10764 bound_to 10752
  152.9836  135.6006  154.4009 H   0  0  0  0  0  0  0  0  0  0  0  0  # atno 10765 bound_to 10752
  141.0475  133.9739  157.2892 H   0  0  0  0  0  0  0  0  0  0  0  0  # atno 11005 bound_to 11000
  145.2483  141.0035  143.3895 LP  0  0  0  0  0  0  0  0  0  0  0  0  # atno 17320 bound_to 7965
  144.9395  139.4205  143.6456 LP  0  0  0  0  0  0  0  0  0  0  0  0  # atno 17321 bound_to 7965
  140.6899  143.2370  151.5161 LP  0  0  0  0  0  0  0  0  0  0  0  0  # atno 17342 bound_to 10162
  139.5593  144.2195  152.1665 LP  0  0  0  0  0  0  0  0  0  0  0  0  # atno 17343 bound_to 10162
  157.7390  130.9824  150.2287 LP  0  0  0  0  0  0  0  0  0  0  0  0  # atno 17370 bound_to 10713
  156.2897  130.3744  149.7853 LP  0  0  0  0  0  0  0  0  0  0  0  0  # atno 17371 bound_to 10713
  139.9324  135.0199  156.8444 LP  0  0  0  0  0  0  0  0  0  0  0  0  # atno 17394 bound_to 11000
  140.6118  134.0075  155.7580 LP  0  0  0  0  0  0  0  0  0  0  0  0  # atno 17395 bound_to 11000

$$$$
