AV-unprocessed.smi:1|AV-procd|sdf|7|dock9
  -GOLD-   2262015 93D 1   1.00000     0.00000
 Structure written by MMmdl.
 57 62  0  0  0  0  0  0  0  0  1 V2000
  148.8167  141.7684  158.1933 O   0  0  0  0  0  0  0  0  0  0  0  0
  149.9429  142.1073  157.8279 C   0  0  0  0  0  0  0  0  0  0  0  0
  150.7101  141.3323  156.8691 N   0  0  0  0  0  0  0  0  0  0  0  0
  150.3206  140.2331  156.1822 C   0  0  0  0  0  0  0  0  0  0  0  0
  150.6072  140.0573  154.8649 N   0  0  0  0  0  0  0  0  0  0  0  0
  150.2042  138.9526  154.2302 C   0  0  0  0  0  0  0  0  0  0  0  0
  149.5152  137.9183  154.7155 N   0  0  0  0  0  0  0  0  0  0  0  0
  149.2313  138.0831  156.0393 C   0  0  0  0  0  0  0  0  0  0  0  0
  149.5981  139.2021  156.8370 C   0  0  0  0  0  0  0  0  0  0  0  0
  149.1414  139.0226  158.1369 N   0  0  0  0  0  0  0  0  0  0  0  0
  148.5407  137.8631  158.1039 C   0  0  0  0  0  0  0  0  0  0  0  0
  148.5447  137.2320  156.8799 N   0  0  0  0  0  0  0  0  0  0  0  0
  147.9456  135.9127  156.5304 C   0  0  2  0  0  0  0  0  0  0  0  0
  146.5676  135.9754  156.7130 O   0  0  0  0  0  0  0  0  0  0  0  0
  146.0664  134.7335  157.2122 C   0  0  2  0  0  0  0  0  0  0  0  0
  145.3449  135.0103  158.5376 C   0  0  0  0  0  0  0  0  0  0  0  0
  144.7493  133.8086  159.0021 O   0  0  0  0  0  0  0  0  0  0  0  0
  143.7011  133.2655  158.3495 C   0  0  0  0  0  0  0  0  0  0  0  0
  143.2342  133.7203  157.3030 O   0  0  0  0  0  0  0  0  0  0  0  0
  143.1627  132.0523  159.0291 C   0  0  0  0  0  0  0  0  0  0  0  0
  142.4496  131.0932  158.2726 C   0  0  0  0  0  0  0  0  0  0  0  0
  141.9297  129.9372  158.8868 C   0  0  0  0  0  0  0  0  0  0  0  0
  142.1175  129.7256  160.2650 C   0  0  0  0  0  0  0  0  0  0  0  0
  142.8258  130.6716  161.0286 C   0  0  0  0  0  0  0  0  0  0  0  0
  143.3462  131.8284  160.4162 C   0  0  0  0  0  0  0  0  0  0  0  0
  147.2917  133.8303  157.4030 C   0  0  1  0  0  0  0  0  0  0  0  0
  147.4620  132.9811  156.2807 O   0  0  0  0  0  0  0  0  0  0  0  0
  149.0908  132.9206  155.9107 S   0  0  0  0  0  0  0  0  0  0  0  0
  149.6404  131.6666  156.4477 O   0  0  0  0  0  0  0  0  0  0  0  0
  149.2592  133.3242  154.5064 O   0  0  0  0  0  0  0  0  0  0  0  0
  149.6082  134.1766  156.8844 O   0  0  0  0  0  0  0  0  0  0  0  0
  148.4686  134.8062  157.4423 C   0  0  1  0  0  0  0  0  0  0  0  0
  150.6404  143.2968  158.4204 C   0  0  0  0  0  0  0  0  0  0  0  0
  150.0015  144.0663  159.4187 C   0  0  0  0  0  0  0  0  0  0  0  0
  150.6418  145.1939  159.9686 C   0  0  0  0  0  0  0  0  0  0  0  0
  151.9223  145.5668  159.5186 C   0  0  0  0  0  0  0  0  0  0  0  0
  152.5614  144.8125  158.5164 C   0  0  0  0  0  0  0  0  0  0  0  0
  151.9226  143.6841  157.9665 C   0  0  0  0  0  0  0  0  0  0  0  0
  151.6494  141.6567  156.6903 H   0  0  0  0  0  0  0  0  0  0  0  0
  150.4714  138.8880  153.1854 H   0  0  0  0  0  0  0  0  0  0  0  0
  148.0715  137.4343  158.9776 H   0  0  0  0  0  0  0  0  0  0  0  0
  148.1709  135.7566  155.4745 H   0  0  0  0  0  0  0  0  0  0  0  0
  145.3712  134.2938  156.4958 H   0  0  0  0  0  0  0  0  0  0  0  0
  146.0531  135.3607  159.2889 H   0  0  0  0  0  0  0  0  0  0  0  0
  144.6086  135.8018  158.3964 H   0  0  0  0  0  0  0  0  0  0  0  0
  142.2924  131.2344  157.2128 H   0  0  0  0  0  0  0  0  0  0  0  0
  141.3855  129.2127  158.2991 H   0  0  0  0  0  0  0  0  0  0  0  0
  141.7191  128.8389  160.7356 H   0  0  0  0  0  0  0  0  0  0  0  0
  142.9706  130.5107  162.0867 H   0  0  0  0  0  0  0  0  0  0  0  0
  143.8858  132.5334  161.0314 H   0  0  0  0  0  0  0  0  0  0  0  0
  147.2345  133.2135  158.3008 H   0  0  0  0  0  0  0  0  0  0  0  0
  148.6438  135.1810  158.4514 H   0  0  0  0  0  0  0  0  0  0  0  0
  149.0179  143.7937  159.7739 H   0  0  0  0  0  0  0  0  0  0  0  0
  150.1488  145.7740  160.7346 H   0  0  0  0  0  0  0  0  0  0  0  0
  152.4124  146.4325  159.9391 H   0  0  0  0  0  0  0  0  0  0  0  0
  153.5413  145.1015  158.1664 H   0  0  0  0  0  0  0  0  0  0  0  0
  152.4265  143.1253  157.1912 H   0  0  0  0  0  0  0  0  0  0  0  0
  1  2  2  0  0  0  0
  2  3  1  0  0  0  0
  2 33  1  0  0  0  0
  3  4  1  0  0  0  0
  3 39  1  0  0  0  0
  4  9  1  0  0  0  0
  4  5  2  0  0  0  0
  5  6  1  0  0  0  0
  6  7  2  0  0  0  0
  6 40  1  0  0  0  0
  7  8  1  0  0  0  0
  8 12  1  0  0  0  0
  8  9  2  0  0  0  0
  9 10  1  0  0  0  0
 10 11  2  0  0  0  0
 11 12  1  0  0  0  0
 11 41  1  0  0  0  0
 12 13  1  0  0  0  0
 13 32  1  0  0  0  0
 13 14  1  0  0  0  0
 13 42  1  0  0  0  0
 14 15  1  0  0  0  0
 15 16  1  0  0  0  0
 15 26  1  0  0  0  0
 15 43  1  0  0  0  0
 16 17  1  0  0  0  0
 16 44  1  0  0  0  0
 16 45  1  0  0  0  0
 17 18  1  0  0  0  0
 18 19  2  0  0  0  0
 18 20  1  0  0  0  0
 20 25  1  0  0  0  0
 20 21  2  0  0  0  0
 21 22  1  0  0  0  0
 21 46  1  0  0  0  0
 22 23  2  0  0  0  0
 22 47  1  0  0  0  0
 23 24  1  0  0  0  0
 23 48  1  0  0  0  0
 24 25  2  0  0  0  0
 24 49  1  0  0  0  0
 25 50  1  0  0  0  0
 26 32  1  0  0  0  0
 26 27  1  0  0  0  0
 26 51  1  0  0  0  0
 27 28  1  0  0  0  0
 28 29  2  0  0  0  0
 28 30  2  0  0  0  0
 28 31  1  0  0  0  0
 31 32  1  0  0  0  0
 32 52  1  0  0  0  0
 33 38  1  0  0  0  0
 33 34  2  0  0  0  0
 34 35  1  0  0  0  0
 34 53  1  0  0  0  0
 35 36  2  0  0  0  0
 35 54  1  0  0  0  0
 36 37  1  0  0  0  0
 36 55  1  0  0  0  0
 37 38  2  0  0  0  0
 37 56  1  0  0  0  0
 38 57  1  0  0  0  0
M  END
> <s_m_source_file>
AV-unprocessed.smi

> <i_m_source_file_index>
1

> <i_lp_mmshare_version>
43012

> <i_f3d_flags>
0

> <s_epik_input>
W2NIXTFbY0hdW2NIXVtjSF1bY0hdYzFDKD1PKVtOSF1jKG5bY0hdbjIpYyhjMjMpbltjSF1uM1tDQEBIXShbQ0BIXShbQ0BIXTQ1KU9TKE81KSg9Tyk9TylPW0NASF00W0NIMl1PQyg9TyljNltjSF1bY0hdW2NIXVtjSF1bY0hdNg==

> <s_epik_cmdline>
J2VwaWtfcHl0aG9uJywgJy1waCcsICc3LjAnLCAnLXRuJywgJzgnLCAnLW1hJywgJzIwMCcsICctbWV0YWxfYmluZGluZycsICctaW1hZScsICc8aW5maWxlLm1hZT4nLCAnLW9tYWUnLCAnPG91dGZpbGUubWFlPic=

> <r_lp_tautomer_probability>
1

> <r_epik_Ionization_Penalty>
0.00195722

> <r_epik_Ionization_Penalty_Charging>
0

> <r_epik_Ionization_Penalty_Neutral>
0.00195722

> <r_epik_State_Penalty>
0.00633741

> <r_epik_Charging_Adjusted_Penalty>
0.00633741

> <i_epik_Tot_Q>
0

> <i_epik_Tot_abs_Q>
0

> <r_epik_Metal_State_Penalty>
0.341185

> <b_epik_Metal_Only>
0

> <s_epik_Chemistry_Notes>
This compound has an ester and may undergo hydrolysis at high or low pH. This compound contains an acetal/aminal-like group ( X-CH(R)-Y where X, Y are N, S, or O) that may be acid/base labile, releasing an aldehyde.

> <s_lp_Force_Field>
OPLS_2005

> <r_lp_Energy>
42.4074

> <b_lp_Chiralities_Consistent>
1

> <s_lp_Variant>
AV-unprocessed.smi:1-7

> <Gold.Version>
5.8.1

> <Gold.Id.Protein>
6NUR|6NUR_protein|mol2

> <Gold.PLP.Fitness>
53.2407

> <Gold.PLP.PLP>
-45.4474

> <Gold.PLP.part.hbond>
-2.0000

> <Gold.PLP.part.metal>
0.0000

> <Gold.PLP.part.buried>
-8.6169

> <Gold.PLP.part.nonpolar>
-35.9153

> <Gold.PLP.part.repulsive>
0.8172

> <Gold.PLP.ligand.clash>
0.0000

> <Gold.PLP.ligand.torsion>
0.6837

> <Gold.PLP.Chemscore.Hbond>
2.0000

> <Gold.PLP.Chemscore.CHOScore>
1.0000

> <Gold.PLP.Chemscore.Metal>
0.0000

> <Gold.Chemscore.Hbonds>
donor molecule, donor type, donor heavy atom, donor atom, acceptor molecule, acceptor atom, score
      P1  H  7989  7998       L1     5  1.00
      P1  H 11000 11005       L1    19  0.99
      L1  C     6    40       P1  7957  1.00

> <Gold.PLP.Chemscore.Internal.Correction>
0.1606

> <Gold.Rescore>
     Score         DG    S(hbond)    S(metal)    S(lipo)     H(rot)  DE(clash)    DE(int)     intcor
     15.37     -18.19       1.75        0.00     105.45       2.13       1.01       1.81       ----

> <Gold.Chemscore.Fitness>
15.3663

> <Gold.Chemscore.DG>
-18.1904

> <Gold.Chemscore.ZeroCoef>
-5.4800

> <Gold.Chemscore.Hbond>
1.7468

> <Gold.Chemscore.Metal>
0.0000

> <Gold.Chemscore.Lipo>
105.4486

> <Gold.Chemscore.Internal_Hbond>
0.0000

> <Gold.Chemscore.DEClash>
1.0127

> <Gold.Chemscore.DEInternal>
1.8114

> <Gold.Chemscore.Rot>
2.1333

> <Gold.Chemscore.Internal.Correction>
   9.000000E+99

> <Gold.Chemscore.Hbonds>
donor molecule, donor type, donor heavy atom, donor atom, acceptor molecule, acceptor atom, score
      P1  H  7989  7998       L1     5  0.26
      P1  H 11000 11005       L1    19  0.91

> <Gold.Chemscore.Hbond.Weighted>
-5.8342

> <Gold.Chemscore.Metal.Weighted>
-0.0000

> <Gold.Chemscore.Lipo.Weighted>
-12.3375

> <Gold.Chemscore.Internal_Hbond.Weighted>
0.0000

> <Gold.Chemscore.DEClash.Weighted>
1.0127

> <Gold.Chemscore.DEInternal.Weighted>
1.8114

> <Gold.Chemscore.Rot.Weighted>
5.4614

> <Gold.Chemscore.Internal.Correction.Weighted>
   9.000000E+99

> <Gold.Protein.RotatedTorsions>
[ 6907 6896 6895 6894 ] final   96.52 input  -60.11 | X-H torsion
[ 7974 7965 7964 7962 ] final  -63.47 input  175.53 | X-H torsion
[ 8008 7997 7996 7995 ] final  169.76 input   59.86 | X-H torsion
[ 10167 10162 10161 10158 ] final -101.19 input  -65.29 | X-H torsion
[ 10718 10713 10712 10709 ] final   12.79 input   66.30 | X-H torsion
[ 10763 10752 10751 10750 ] final   -0.16 input  -60.55 | X-H torsion
[ 11005 11000 10999 10996 ] final  -87.85 input  -57.11 | X-H torsion

> <Gold.Protein.ActiveResidues>
 VAL166  LYS551  ARG553  GLY616  TRP617  ASP618  TYR619  PRO620  LYS621  CYS622 
 ASP623  PHE694  ASN695  SER759  ASP760  ASP761  ALA762  ILE779  LEU786  VAL792 
 PHE793  MET794  SER795  GLU796  ALA797  LYS798  CYS799  TRP800  GLU811  SER814 

> <Gold.Protein.RotatedAtoms>
  152.5434  134.0874  159.8261 H   0  0  0  0  0  0  0  0  0  0  0  0  # atno 6907 bound_to 6896
  151.0968  133.5266  159.2619 H   0  0  0  0  0  0  0  0  0  0  0  0  # atno 6908 bound_to 6896
  151.2036  135.0462  159.8937 H   0  0  0  0  0  0  0  0  0  0  0  0  # atno 6909 bound_to 6896
  145.7787  140.8774  143.0342 H   0  0  0  0  0  0  0  0  0  0  0  0  # atno 7974 bound_to 7965
  156.1427  140.1555  156.8895 H   0  0  0  0  0  0  0  0  0  0  0  0  # atno 8008 bound_to 7997
  154.5002  140.0827  156.7819 H   0  0  0  0  0  0  0  0  0  0  0  0  # atno 8009 bound_to 7997
  155.4047  140.3416  155.4261 H   0  0  0  0  0  0  0  0  0  0  0  0  # atno 8010 bound_to 7997
  140.2439  143.3519  152.0776 H   0  0  0  0  0  0  0  0  0  0  0  0  # atno 10167 bound_to 10162
  157.0152  130.6133  149.5713 H   0  0  0  0  0  0  0  0  0  0  0  0  # atno 10718 bound_to 10713
  153.3283  135.6973  153.6970 H   0  0  0  0  0  0  0  0  0  0  0  0  # atno 10763 bound_to 10752
  153.5783  135.3503  155.2865 H   0  0  0  0  0  0  0  0  0  0  0  0  # atno 10764 bound_to 10752
  154.8612  135.4289  154.2465 H   0  0  0  0  0  0  0  0  0  0  0  0  # atno 10765 bound_to 10752
  141.1611  133.7535  156.9366 H   0  0  0  0  0  0  0  0  0  0  0  0  # atno 11005 bound_to 11000
  144.6800  139.9958  143.7484 LP  0  0  0  0  0  0  0  0  0  0  0  0  # atno 17320 bound_to 7965
  146.0096  139.3159  143.0878 LP  0  0  0  0  0  0  0  0  0  0  0  0  # atno 17321 bound_to 7965
  139.5068  144.6820  151.5983 LP  0  0  0  0  0  0  0  0  0  0  0  0  # atno 17342 bound_to 10162
  140.6092  143.9467  150.6441 LP  0  0  0  0  0  0  0  0  0  0  0  0  # atno 17343 bound_to 10162
  156.0122  130.5214  150.8023 LP  0  0  0  0  0  0  0  0  0  0  0  0  # atno 17370 bound_to 10713
  157.5291  131.0935  150.9979 LP  0  0  0  0  0  0  0  0  0  0  0  0  # atno 17371 bound_to 10713
  140.1350  134.9331  157.2389 LP  0  0  0  0  0  0  0  0  0  0  0  0  # atno 17394 bound_to 11000
  140.2906  134.3244  155.7316 LP  0  0  0  0  0  0  0  0  0  0  0  0  # atno 17395 bound_to 11000

$$$$
