AV-unprocessed.smi:1379|AV-procd|sdf|5598|dock5
  -GOLD-   22720 5203D 1   1.00000     0.00000
 Structure written by MMmdl.
 34 35  0  0  0  0  0  0  0  0  1 V2000
  154.1111  136.1943  163.4854 C   0  0  0  0  0  0  0  0  0  0  0  0
  154.3455  135.3255  162.3916 O   0  0  0  0  0  0  0  0  0  0  0  0
  154.9563  135.9862  161.2935 C   0  0  0  0  0  0  0  0  0  0  0  0
  154.0134  137.0599  160.7460 C   0  0  0  0  0  0  0  0  0  0  0  0
  152.9876  136.7358  160.1473 O   0  0  0  0  0  0  0  0  0  0  0  0
  154.4092  138.3288  160.9552 N   0  0  0  0  0  0  0  0  0  0  0  0
  153.7646  139.5368  160.5728 C   0  0  0  0  0  0  0  0  0  0  0  0
  152.8642  139.6537  159.4871 C   0  0  0  0  0  0  0  0  0  0  0  0
  152.2783  140.9060  159.2205 C   0  0  0  0  0  0  0  0  0  0  0  0
  152.5986  142.0001  160.0499 C   0  0  0  0  0  0  0  0  0  0  0  0
  152.0155  143.2469  159.7770 N   0  0  0  0  0  0  0  0  0  0  0  0
  152.2526  144.2857  160.7661 C   0  0  0  0  0  0  0  0  0  0  0  0
  151.8623  145.5964  160.0787 C   0  0  0  0  0  0  0  0  0  0  0  0
  151.9668  145.2984  158.5779 C   0  0  0  0  0  0  0  0  0  0  0  0
  152.3828  143.8269  158.4962 C   0  0  0  0  0  0  0  0  0  0  0  0
  153.4491  141.8920  161.0985 N   0  0  0  0  0  0  0  0  0  0  0  0
  154.0086  140.6892  161.3482 C   0  0  0  0  0  0  0  0  0  0  0  0
  153.6481  135.6396  164.3012 H   0  0  0  0  0  0  0  0  0  0  0  0
  153.4388  137.0065  163.2061 H   0  0  0  0  0  0  0  0  0  0  0  0
  155.0433  136.6227  163.8558 H   0  0  0  0  0  0  0  0  0  0  0  0
  155.8918  136.4535  161.6059 H   0  0  0  0  0  0  0  0  0  0  0  0
  155.1838  135.2710  160.5013 H   0  0  0  0  0  0  0  0  0  0  0  0
  155.3124  138.4412  161.3926 H   0  0  0  0  0  0  0  0  0  0  0  0
  152.6009  138.8134  158.8644 H   0  0  0  0  0  0  0  0  0  0  0  0
  151.5902  141.0204  158.3957 H   0  0  0  0  0  0  0  0  0  0  0  0
  151.6623  144.1131  161.6666 H   0  0  0  0  0  0  0  0  0  0  0  0
  153.3048  144.3131  161.0526 H   0  0  0  0  0  0  0  0  0  0  0  0
  150.8359  145.8652  160.3317 H   0  0  0  0  0  0  0  0  0  0  0  0
  152.5075  146.4199  160.3860 H   0  0  0  0  0  0  0  0  0  0  0  0
  150.9971  145.4470  158.1013 H   0  0  0  0  0  0  0  0  0  0  0  0
  152.6868  145.9452  158.0759 H   0  0  0  0  0  0  0  0  0  0  0  0
  153.4594  143.7492  158.3372 H   0  0  0  0  0  0  0  0  0  0  0  0
  151.8838  143.3130  157.6743 H   0  0  0  0  0  0  0  0  0  0  0  0
  154.6788  140.6484  162.1945 H   0  0  0  0  0  0  0  0  0  0  0  0
  1  2  1  0  0  0  0
  1 18  1  0  0  0  0
  1 19  1  0  0  0  0
  1 20  1  0  0  0  0
  2  3  1  0  0  0  0
  3  4  1  0  0  0  0
  3 21  1  0  0  0  0
  3 22  1  0  0  0  0
  4  5  2  0  0  0  0
  4  6  1  0  0  0  0
  6  7  1  0  0  0  0
  6 23  1  0  0  0  0
  7 17  1  0  0  0  0
  7  8  2  0  0  0  0
  8  9  1  0  0  0  0
  8 24  1  0  0  0  0
  9 10  2  0  0  0  0
  9 25  1  0  0  0  0
 10 11  1  0  0  0  0
 10 16  1  0  0  0  0
 11 15  1  0  0  0  0
 11 12  1  0  0  0  0
 12 13  1  0  0  0  0
 12 26  1  0  0  0  0
 12 27  1  0  0  0  0
 13 14  1  0  0  0  0
 13 28  1  0  0  0  0
 13 29  1  0  0  0  0
 14 15  1  0  0  0  0
 14 30  1  0  0  0  0
 14 31  1  0  0  0  0
 15 32  1  0  0  0  0
 15 33  1  0  0  0  0
 16 17  2  0  0  0  0
 17 34  1  0  0  0  0
M  END
> <s_m_source_file>
AV-unprocessed.smi

> <i_m_source_file_index>
1379

> <i_lp_mmshare_version>
43012

> <i_f3d_flags>
0

> <s_epik_input>
W0NIM11PW0NIMl1DKD1PKVtOSF1jMVtjSF1bY0hdYyhuW2NIXTEpTjJbQ0gyXVtDSDJdW0NIMl1bQ0gyXTI=

> <s_epik_cmdline>
J2VwaWtfcHl0aG9uJywgJy1waCcsICc3LjAnLCAnLXRuJywgJzgnLCAnLW1hJywgJzIwMCcsICctbWV0YWxfYmluZGluZycsICctaW1hZScsICc8aW5maWxlLm1hZT4nLCAnLW9tYWUnLCAnPG91dGZpbGUubWFlPic=

> <r_lp_tautomer_probability>
1

> <r_epik_Ionization_Penalty>
0.0264378

> <r_epik_Ionization_Penalty_Charging>
0

> <r_epik_Ionization_Penalty_Neutral>
0.0264378

> <r_epik_State_Penalty>
0.0211097

> <r_epik_Charging_Adjusted_Penalty>
0.0211097

> <i_epik_Tot_Q>
0

> <i_epik_Tot_abs_Q>
0

> <r_epik_Metal_State_Penalty>
0.0201313

> <b_epik_Metal_Only>
0

> <s_lp_Force_Field>
OPLS_2005

> <r_lp_Energy>
37.8316

> <b_lp_Chiralities_Consistent>
1

> <s_lp_Variant>
AV-unprocessed.smi:1379-1

> <Gold.Version>
5.8.1

> <Gold.Id.Protein>
6NUR|6NUR_protein|mol2

> <Gold.PLP.Fitness>
40.4111

> <Gold.PLP.PLP>
-38.0282

> <Gold.PLP.part.hbond>
-0.9572

> <Gold.PLP.part.metal>
0.0000

> <Gold.PLP.part.buried>
-6.6026

> <Gold.PLP.part.nonpolar>
-30.4330

> <Gold.PLP.part.repulsive>
0.0004

> <Gold.PLP.ligand.clash>
0.0000

> <Gold.PLP.ligand.torsion>
0.3066

> <Gold.PLP.Chemscore.Hbond>
0.9913

> <Gold.PLP.Chemscore.CHOScore>
0.0000

> <Gold.PLP.Chemscore.Metal>
0.0000

> <Gold.Chemscore.Hbonds>
donor molecule, donor type, donor heavy atom, donor atom, acceptor molecule, acceptor atom, score
      P1  H  6896  6909       L1     5  1.00

> <Gold.PLP.Chemscore.Internal.Correction>
0.0224

> <Gold.Rescore>
     Score         DG    S(hbond)    S(metal)    S(lipo)     H(rot)  DE(clash)    DE(int)     intcor
     15.21     -16.48       1.00        0.00      96.46       1.42       0.10       1.18       ----

> <Gold.Chemscore.Fitness>
15.2083

> <Gold.Chemscore.DG>
-16.4824

> <Gold.Chemscore.ZeroCoef>
-5.4800

> <Gold.Chemscore.Hbond>
0.9999

> <Gold.Chemscore.Metal>
0.0000

> <Gold.Chemscore.Lipo>
96.4590

> <Gold.Chemscore.Internal_Hbond>
0.0000

> <Gold.Chemscore.DEClash>
0.0956

> <Gold.Chemscore.DEInternal>
1.1784

> <Gold.Chemscore.Rot>
1.4153

> <Gold.Chemscore.Internal.Correction>
   9.000000E+99

> <Gold.Chemscore.Hbonds>
donor molecule, donor type, donor heavy atom, donor atom, acceptor molecule, acceptor atom, score
      P1  H  6896  6909       L1     5  0.99

> <Gold.Chemscore.Hbond.Weighted>
-3.3398

> <Gold.Chemscore.Metal.Weighted>
-0.0000

> <Gold.Chemscore.Lipo.Weighted>
-11.2857

> <Gold.Chemscore.Internal_Hbond.Weighted>
0.0000

> <Gold.Chemscore.DEClash.Weighted>
0.0956

> <Gold.Chemscore.DEInternal.Weighted>
1.1784

> <Gold.Chemscore.Rot.Weighted>
3.6231

> <Gold.Chemscore.Internal.Correction.Weighted>
   9.000000E+99

> <Gold.Protein.RotatedTorsions>
[ 6907 6896 6895 6894 ] final  149.47 input  -60.11 | X-H torsion
[ 7974 7965 7964 7962 ] final    5.59 input  175.53 | X-H torsion
[ 8008 7997 7996 7995 ] final    2.61 input   59.86 | X-H torsion
[ 10167 10162 10161 10158 ] final -120.94 input  -65.29 | X-H torsion
[ 10718 10713 10712 10709 ] final  -89.65 input   66.30 | X-H torsion
[ 10763 10752 10751 10750 ] final -173.43 input  -60.55 | X-H torsion
[ 11005 11000 10999 10996 ] final  170.08 input  -57.11 | X-H torsion

> <Gold.Protein.ActiveResidues>
 VAL166  LYS551  ARG553  GLY616  TRP617  ASP618  TYR619  PRO620  LYS621  CYS622 
 ASP623  PHE694  ASN695  SER759  ASP760  ASP761  ALA762  ILE779  LEU786  VAL792 
 PHE793  MET794  SER795  GLU796  ALA797  LYS798  CYS799  TRP800  GLU811  SER814 

> <Gold.Protein.RotatedAtoms>
  152.1276  133.4389  159.4705 H   0  0  0  0  0  0  0  0  0  0  0  0  # atno 6907 bound_to 6896
  150.6876  134.2459  159.4500 H   0  0  0  0  0  0  0  0  0  0  0  0  # atno 6908 bound_to 6896
  152.0341  134.9750  160.0623 H   0  0  0  0  0  0  0  0  0  0  0  0  # atno 6909 bound_to 6896
  146.2440  140.0361  142.8386 H   0  0  0  0  0  0  0  0  0  0  0  0  # atno 7974 bound_to 7965
  154.6936  140.2658  155.6788 H   0  0  0  0  0  0  0  0  0  0  0  0  # atno 8008 bound_to 7997
  156.2741  140.2786  156.1446 H   0  0  0  0  0  0  0  0  0  0  0  0  # atno 8009 bound_to 7997
  155.0862  140.0373  157.2644 H   0  0  0  0  0  0  0  0  0  0  0  0  # atno 8010 bound_to 7997
  140.0304  143.5254  152.2179 H   0  0  0  0  0  0  0  0  0  0  0  0  # atno 10167 bound_to 10162
  155.9985  130.4880  150.5203 H   0  0  0  0  0  0  0  0  0  0  0  0  # atno 10718 bound_to 10713
  154.6080  135.2861  155.0464 H   0  0  0  0  0  0  0  0  0  0  0  0  # atno 10763 bound_to 10752
  154.1704  135.6473  153.5012 H   0  0  0  0  0  0  0  0  0  0  0  0  # atno 10764 bound_to 10752
  153.0183  135.5399  154.6823 H   0  0  0  0  0  0  0  0  0  0  0  0  # atno 10765 bound_to 10752
  140.3046  134.7567  157.3943 H   0  0  0  0  0  0  0  0  0  0  0  0  # atno 11005 bound_to 11000
  145.1111  140.9405  143.4656 LP  0  0  0  0  0  0  0  0  0  0  0  0  # atno 17320 bound_to 7965
  145.0575  139.3132  143.5897 LP  0  0  0  0  0  0  0  0  0  0  0  0  # atno 17321 bound_to 7965
  139.6080  144.7601  151.3018 LP  0  0  0  0  0  0  0  0  0  0  0  0  # atno 17342 bound_to 10162
  140.7304  143.6880  150.7946 LP  0  0  0  0  0  0  0  0  0  0  0  0  # atno 17343 bound_to 10162
  157.3165  131.0674  151.1963 LP  0  0  0  0  0  0  0  0  0  0  0  0  # atno 17370 bound_to 10713
  157.2891  130.6787  149.6105 LP  0  0  0  0  0  0  0  0  0  0  0  0  # atno 17371 bound_to 10713
  140.1079  134.5385  155.8293 LP  0  0  0  0  0  0  0  0  0  0  0  0  # atno 17394 bound_to 11000
  141.2121  133.6715  156.6633 LP  0  0  0  0  0  0  0  0  0  0  0  0  # atno 17395 bound_to 11000

$$$$
