AV-unprocessed.smi:506|AV-procd|sdf|2751|dock10
  -GOLD-   2262023223D 1   1.00000     0.00000
 Structure written by MMmdl.
 41 43  0  0  0  0  0  0  0  0  2 V2000
  145.8795  143.4047  153.7517 C   0  0  0  0  0  0  0  0  0  0  0  0
  145.9182  142.0095  154.0136 O   0  0  0  0  0  0  0  0  0  0  0  0
  147.1490  141.4207  154.2099 C   0  0  0  0  0  0  0  0  0  0  0  0
  148.1718  142.2331  154.7371 C   0  0  0  0  0  0  0  0  0  0  0  0
  149.4575  141.7109  154.9728 C   0  0  0  0  0  0  0  0  0  0  0  0
  149.7521  140.3635  154.6868 C   0  0  0  0  0  0  0  0  0  0  0  0
  151.0337  139.9321  154.9536 O   0  0  0  0  0  0  0  0  0  0  0  0
  151.7720  140.6045  155.9633 C   0  0  0  0  0  0  0  0  0  0  0  0
  151.4295  139.9725  157.3176 C   0  0  0  0  0  0  0  0  0  0  0  0
  152.1825  140.5922  158.4152 N   0  0  0  0  0  0  0  0  0  0  0  0
  153.1053  140.0551  159.2638 C   0  0  0  0  0  0  0  0  0  0  0  0
  153.5870  138.6390  159.2717 C   0  0  0  0  0  0  0  0  0  0  0  0
  154.2441  138.2668  158.0783 O   0  0  0  0  0  0  0  0  0  0  0  0
  153.5067  141.0531  160.1026 N   0  3  0  0  0  0  0  0  0  0  0  0
  152.8412  142.2372  159.7838 C   0  0  0  0  0  0  0  0  0  0  0  0
  152.9177  143.5070  160.3476 C   0  0  0  0  0  0  0  0  0  0  0  0
  152.1001  144.5037  159.7752 C   0  0  0  0  0  0  0  0  0  0  0  0
  151.2513  144.2208  158.6852 C   0  0  0  0  0  0  0  0  0  0  0  0
  151.1816  142.9292  158.1224 C   0  0  0  0  0  0  0  0  0  0  0  0
  151.9911  141.9493  158.6966 C   0  0  0  0  0  0  0  0  0  0  0  0
  148.7283  139.5436  154.1514 C   0  0  0  0  0  0  0  0  0  0  0  0
  147.4414  140.0660  153.9164 C   0  0  0  0  0  0  0  0  0  0  0  0
  144.8440  143.7165  153.6160 H   0  0  0  0  0  0  0  0  0  0  0  0
  146.4217  143.6541  152.8384 H   0  0  0  0  0  0  0  0  0  0  0  0
  146.2897  143.9782  154.5842 H   0  0  0  0  0  0  0  0  0  0  0  0
  147.9684  143.2689  154.9662 H   0  0  0  0  0  0  0  0  0  0  0  0
  150.2252  142.3522  155.3802 H   0  0  0  0  0  0  0  0  0  0  0  0
  152.8429  140.5092  155.7767 H   0  0  0  0  0  0  0  0  0  0  0  0
  151.5189  141.6659  155.9704 H   0  0  0  0  0  0  0  0  0  0  0  0
  150.3626  140.0475  157.5303 H   0  0  0  0  0  0  0  0  0  0  0  0
  151.6690  138.9087  157.3074 H   0  0  0  0  0  0  0  0  0  0  0  0
  154.2686  138.4985  160.1110 H   0  0  0  0  0  0  0  0  0  0  0  0
  152.7380  137.9727  159.4272 H   0  0  0  0  0  0  0  0  0  0  0  0
  154.0223  137.3693  157.8808 H   0  0  0  0  0  0  0  0  0  0  0  0
  153.5688  143.7266  161.1812 H   0  0  0  0  0  0  0  0  0  0  0  0
  152.1251  145.5055  160.1794 H   0  0  0  0  0  0  0  0  0  0  0  0
  150.6409  145.0108  158.2720 H   0  0  0  0  0  0  0  0  0  0  0  0
  150.5296  142.7234  157.2865 H   0  0  0  0  0  0  0  0  0  0  0  0
  148.9036  138.5059  153.9121 H   0  0  0  0  0  0  0  0  0  0  0  0
  146.6929  139.4029  153.5098 H   0  0  0  0  0  0  0  0  0  0  0  0
  154.1920  140.9262  160.8365 H   0  0  0  0  0  0  0  0  0  0  0  0
  1  2  1  0  0  0  0
  1 23  1  0  0  0  0
  1 24  1  0  0  0  0
  1 25  1  0  0  0  0
  2  3  1  0  0  0  0
  3 22  1  0  0  0  0
  3  4  2  0  0  0  0
  4  5  1  0  0  0  0
  4 26  1  0  0  0  0
  5  6  2  0  0  0  0
  5 27  1  0  0  0  0
  6  7  1  0  0  0  0
  6 21  1  0  0  0  0
  7  8  1  0  0  0  0
  8  9  1  0  0  0  0
  8 28  1  0  0  0  0
  8 29  1  0  0  0  0
  9 10  1  0  0  0  0
  9 30  1  0  0  0  0
  9 31  1  0  0  0  0
 10 20  1  0  0  0  0
 10 11  1  0  0  0  0
 11 12  1  0  0  0  0
 11 14  2  0  0  0  0
 12 13  1  0  0  0  0
 12 32  1  0  0  0  0
 12 33  1  0  0  0  0
 13 34  1  0  0  0  0
 14 15  1  0  0  0  0
 14 41  1  0  0  0  0
 15 20  2  0  0  0  0
 15 16  1  0  0  0  0
 16 17  2  0  0  0  0
 16 35  1  0  0  0  0
 17 18  1  0  0  0  0
 17 36  1  0  0  0  0
 18 19  2  0  0  0  0
 18 37  1  0  0  0  0
 19 20  1  0  0  0  0
 19 38  1  0  0  0  0
 21 22  2  0  0  0  0
 21 39  1  0  0  0  0
 22 40  1  0  0  0  0
M  CHG  1  14   1
M  END
> <s_m_source_file>
AV-unprocessed.smi

> <i_m_source_file_index>
506

> <i_lp_mmshare_version>
43012

> <i_f3d_flags>
0

> <s_epik_input>
W0NIM11PYzFbY0hdW2NIXWMoW2NIXVtjSF0xKU9bQ0gyXVtDSDJdbihjKG4yKVtDSDJdW09IXSljKGMyMylbY0hdW2NIXVtjSF1bY0hdMw==

> <s_epik_cmdline>
J2VwaWtfcHl0aG9uJywgJy1waCcsICc3LjAnLCAnLXRuJywgJzgnLCAnLW1hJywgJzIwMCcsICctbWV0YWxfYmluZGluZycsICctaW1hZScsICc8aW5maWxlLm1hZT4nLCAnLW9tYWUnLCAnPG91dGZpbGUubWFlPic=

> <r_lp_tautomer_probability>
1

> <r_epik_Ionization_Penalty>
1.51027

> <r_epik_Ionization_Penalty_Charging>
1.50942

> <r_epik_Ionization_Penalty_Neutral>
0.000855784

> <r_epik_State_Penalty>
1.60032

> <r_epik_Charging_Adjusted_Penalty>
3.10973

> <i_epik_Tot_Q>
1

> <i_epik_Tot_abs_Q>
1

> <r_epik_Metal_State_Penalty>
5.65193

> <b_epik_Metal_Only>
0

> <s_lp_Force_Field>
OPLS_2005

> <r_lp_Energy>
22.2088

> <b_lp_Chiralities_Consistent>
1

> <s_lp_Variant>
AV-unprocessed.smi:506-2

> <Gold.Version>
5.8.1

> <Gold.Id.Protein>
6NUR|6NUR_protein|mol2

> <Gold.PLP.Fitness>
47.4359

> <Gold.PLP.PLP>
-44.6483

> <Gold.PLP.part.hbond>
-2.0000

> <Gold.PLP.part.metal>
0.0000

> <Gold.PLP.part.buried>
-1.7257

> <Gold.PLP.part.nonpolar>
-41.0920

> <Gold.PLP.part.repulsive>
0.5422

> <Gold.PLP.ligand.clash>
0.0021

> <Gold.PLP.ligand.torsion>
0.8979

> <Gold.PLP.Chemscore.Hbond>
1.5225

> <Gold.PLP.Chemscore.CHOScore>
0.0000

> <Gold.PLP.Chemscore.Metal>
0.0000

> <Gold.Chemscore.Hbonds>
donor molecule, donor type, donor heavy atom, donor atom, acceptor molecule, acceptor atom, score
      P1  H  7989  7998       L1     7  0.48
      P1  H  7997  8009       L1    13  1.00

> <Gold.PLP.Chemscore.Internal.Correction>
0.0179

> <Gold.Rescore>
     Score         DG    S(hbond)    S(metal)    S(lipo)     H(rot)  DE(clash)    DE(int)     intcor
     14.97     -17.24       0.90        0.00     130.55       2.54       1.35       0.92       ----

> <Gold.Chemscore.Fitness>
14.9726

> <Gold.Chemscore.DG>
-17.2391

> <Gold.Chemscore.ZeroCoef>
-5.4800

> <Gold.Chemscore.Hbond>
0.8965

> <Gold.Chemscore.Metal>
0.0000

> <Gold.Chemscore.Lipo>
130.5549

> <Gold.Chemscore.Internal_Hbond>
0.0000

> <Gold.Chemscore.DEClash>
1.3492

> <Gold.Chemscore.DEInternal>
0.9173

> <Gold.Chemscore.Rot>
2.5431

> <Gold.Chemscore.Internal.Correction>
   9.000000E+99

> <Gold.Chemscore.Hbonds>
donor molecule, donor type, donor heavy atom, donor atom, acceptor molecule, acceptor atom, score
      P1  H  7997  8009       L1    13  0.49

> <Gold.Chemscore.Hbond.Weighted>
-2.9945

> <Gold.Chemscore.Metal.Weighted>
-0.0000

> <Gold.Chemscore.Lipo.Weighted>
-15.2749

> <Gold.Chemscore.Internal_Hbond.Weighted>
0.0000

> <Gold.Chemscore.DEClash.Weighted>
1.3492

> <Gold.Chemscore.DEInternal.Weighted>
0.9173

> <Gold.Chemscore.Rot.Weighted>
6.5103

> <Gold.Chemscore.Internal.Correction.Weighted>
   9.000000E+99

> <Gold.Protein.RotatedTorsions>
[ 6907 6896 6895 6894 ] final  176.21 input  -60.11 | X-H torsion
[ 7974 7965 7964 7962 ] final  -21.06 input  175.53 | X-H torsion
[ 8008 7997 7996 7995 ] final  139.61 input   59.86 | X-H torsion
[ 10167 10162 10161 10158 ] final   15.95 input  -65.29 | X-H torsion
[ 10718 10713 10712 10709 ] final -143.23 input   66.30 | X-H torsion
[ 10763 10752 10751 10750 ] final  -18.52 input  -60.55 | X-H torsion
[ 11005 11000 10999 10996 ] final   70.06 input  -57.11 | X-H torsion

> <Gold.Protein.ActiveResidues>
 VAL166  LYS551  ARG553  GLY616  TRP617  ASP618  TYR619  PRO620  LYS621  CYS622 
 ASP623  PHE694  ASN695  SER759  ASP760  ASP761  ALA762  ILE779  LEU786  VAL792 
 PHE793  MET794  SER795  GLU796  ALA797  LYS798  CYS799  TRP800  GLU811  SER814 

> <Gold.Protein.RotatedAtoms>
  151.7237  133.3315  159.3321 H   0  0  0  0  0  0  0  0  0  0  0  0  # atno 6907 bound_to 6896
  150.7642  134.6425  159.6254 H   0  0  0  0  0  0  0  0  0  0  0  0  # atno 6908 bound_to 6896
  152.3636  134.6839  160.0251 H   0  0  0  0  0  0  0  0  0  0  0  0  # atno 6909 bound_to 6896
  146.1754  140.4289  142.8516 H   0  0  0  0  0  0  0  0  0  0  0  0  # atno 7974 bound_to 7965
  156.2988  140.2363  156.4266 H   0  0  0  0  0  0  0  0  0  0  0  0  # atno 8008 bound_to 7997
  154.8308  140.0433  157.1495 H   0  0  0  0  0  0  0  0  0  0  0  0  # atno 8009 bound_to 7997
  154.9210  140.3003  155.5220 H   0  0  0  0  0  0  0  0  0  0  0  0  # atno 8010 bound_to 7997
  140.5832  143.8941  150.6807 H   0  0  0  0  0  0  0  0  0  0  0  0  # atno 10167 bound_to 10162
  156.3555  130.7710  151.1870 H   0  0  0  0  0  0  0  0  0  0  0  0  # atno 10718 bound_to 10713
  153.5906  135.7002  153.5425 H   0  0  0  0  0  0  0  0  0  0  0  0  # atno 10763 bound_to 10752
  153.3181  135.4082  155.1393 H   0  0  0  0  0  0  0  0  0  0  0  0  # atno 10764 bound_to 10752
  154.8601  135.3689  154.5438 H   0  0  0  0  0  0  0  0  0  0  0  0  # atno 10765 bound_to 10752
  139.9618  134.7047  156.0629 H   0  0  0  0  0  0  0  0  0  0  0  0  # atno 11005 bound_to 11000
  144.8227  140.6578  143.6342 LP  0  0  0  0  0  0  0  0  0  0  0  0  # atno 17320 bound_to 7965
  145.4227  139.1561  143.4065 LP  0  0  0  0  0  0  0  0  0  0  0  0  # atno 17321 bound_to 7965
  140.2445  143.3639  152.1458 LP  0  0  0  0  0  0  0  0  0  0  0  0  # atno 17342 bound_to 10162
  139.5182  144.7002  151.5515 LP  0  0  0  0  0  0  0  0  0  0  0  0  # atno 17343 bound_to 10162
  157.7467  131.0415  150.4650 LP  0  0  0  0  0  0  0  0  0  0  0  0  # atno 17370 bound_to 10713
  156.4852  130.4083  149.6438 LP  0  0  0  0  0  0  0  0  0  0  0  0  # atno 17371 bound_to 10713
  141.1296  133.6590  156.3428 LP  0  0  0  0  0  0  0  0  0  0  0  0  # atno 17394 bound_to 11000
  140.5483  134.6053  157.5400 LP  0  0  0  0  0  0  0  0  0  0  0  0  # atno 17395 bound_to 11000

$$$$
