AV-unprocessed.smi:325|AV-procd|sdf|2342|dock1
  -GOLD-   2262022253D 1   1.00000     0.00000
 Structure written by MMmdl.
 46 47  0  0  0  0  0  0  0  0  1 V2000
  147.9015  142.0228  154.0998 C   0  0  0  0  0  0  0  0  0  0  0  0
  149.0552  141.3257  154.7991 C   0  0  0  0  0  0  0  0  0  0  0  0
  149.6366  142.0582  155.8178 N   0  0  0  0  0  0  0  0  0  0  0  0
  150.7098  141.5184  156.5163 C   0  0  0  0  0  0  0  0  0  0  0  0
  151.2262  142.3458  157.5133 N   0  0  0  0  0  0  0  0  0  0  0  0
  151.4506  143.7654  157.2376 C   0  0  0  0  0  0  0  0  0  0  0  0
  151.5375  144.5796  158.5396 C   0  0  0  0  0  0  0  0  0  0  0  0
  152.5526  144.0393  159.3747 O   0  0  0  0  0  0  0  0  0  0  0  0
  152.2676  142.6943  159.7352 C   0  0  0  0  0  0  0  0  0  0  0  0
  152.2012  141.8222  158.4702 C   0  0  0  0  0  0  0  0  0  0  0  0
  151.1888  140.3323  156.2729 N   0  0  0  0  0  0  0  0  0  0  0  0
  150.6324  139.5340  155.2624 C   0  0  0  0  0  0  0  0  0  0  0  0
  151.0782  138.4095  155.0395 O   0  0  0  0  0  0  0  0  0  0  0  0
  149.5007  140.0852  154.4884 C   0  0  0  0  0  0  0  0  0  0  0  0
  148.9029  139.2402  153.3669 C   0  0  0  0  0  0  0  0  0  0  0  0
  147.3881  139.0239  153.5456 C   0  0  0  0  0  0  0  0  0  0  0  0
  146.7483  138.2663  152.3782 C   0  0  0  0  0  0  0  0  0  0  0  0
  146.8497  138.6881  151.2256 O   0  0  0  0  0  0  0  0  0  0  0  0
  146.0910  137.1392  152.6940 N   0  0  0  0  0  0  0  0  0  0  0  0
  145.4187  136.2561  151.7448 C   0  0  0  0  0  0  0  0  0  0  0  0
  143.9046  136.2296  152.0094 C   0  0  0  0  0  0  0  0  0  0  0  0
  146.0323  134.8521  151.8312 C   0  0  0  0  0  0  0  0  0  0  0  0
  149.2603  142.9739  156.0159 H   0  0  0  0  0  0  0  0  0  0  0  0
  147.0055  141.4026  154.1338 H   0  0  0  0  0  0  0  0  0  0  0  0
  148.1502  142.2148  153.0559 H   0  0  0  0  0  0  0  0  0  0  0  0
  147.6649  142.9789  154.5687 H   0  0  0  0  0  0  0  0  0  0  0  0
  150.6570  144.1776  156.6135 H   0  0  0  0  0  0  0  0  0  0  0  0
  152.3782  143.8698  156.6733 H   0  0  0  0  0  0  0  0  0  0  0  0
  151.7792  145.6190  158.3164 H   0  0  0  0  0  0  0  0  0  0  0  0
  150.5798  144.5800  159.0627 H   0  0  0  0  0  0  0  0  0  0  0  0
  153.0518  142.3314  160.3996 H   0  0  0  0  0  0  0  0  0  0  0  0
  151.3304  142.6440  160.2918 H   0  0  0  0  0  0  0  0  0  0  0  0
  153.1814  141.7832  157.9929 H   0  0  0  0  0  0  0  0  0  0  0  0
  151.9434  140.8004  158.7527 H   0  0  0  0  0  0  0  0  0  0  0  0
  149.4245  138.2826  153.3232 H   0  0  0  0  0  0  0  0  0  0  0  0
  149.0941  139.7126  152.4034 H   0  0  0  0  0  0  0  0  0  0  0  0
  147.1950  138.4632  154.4609 H   0  0  0  0  0  0  0  0  0  0  0  0
  146.8940  139.9899  153.6609 H   0  0  0  0  0  0  0  0  0  0  0  0
  146.0610  136.8676  153.6661 H   0  0  0  0  0  0  0  0  0  0  0  0
  145.5884  136.6302  150.7336 H   0  0  0  0  0  0  0  0  0  0  0  0
  143.3956  135.5731  151.3032 H   0  0  0  0  0  0  0  0  0  0  0  0
  143.4662  137.2227  151.9054 H   0  0  0  0  0  0  0  0  0  0  0  0
  143.6829  135.8710  153.0151 H   0  0  0  0  0  0  0  0  0  0  0  0
  145.5753  134.1804  151.1042 H   0  0  0  0  0  0  0  0  0  0  0  0
  145.8908  134.4160  152.8210 H   0  0  0  0  0  0  0  0  0  0  0  0
  147.1035  134.8772  151.6271 H   0  0  0  0  0  0  0  0  0  0  0  0
  1 24  1  0  0  0  0
  1 25  1  0  0  0  0
  1 26  1  0  0  0  0
  1  2  1  0  0  0  0
  2 14  2  0  0  0  0
  2  3  1  0  0  0  0
  3 23  1  0  0  0  0
  3  4  1  0  0  0  0
  4  5  1  0  0  0  0
  4 11  2  0  0  0  0
  5 10  1  0  0  0  0
  5  6  1  0  0  0  0
  6  7  1  0  0  0  0
  6 27  1  0  0  0  0
  6 28  1  0  0  0  0
  7  8  1  0  0  0  0
  7 29  1  0  0  0  0
  7 30  1  0  0  0  0
  8  9  1  0  0  0  0
  9 10  1  0  0  0  0
  9 31  1  0  0  0  0
  9 32  1  0  0  0  0
 10 33  1  0  0  0  0
 10 34  1  0  0  0  0
 11 12  1  0  0  0  0
 12 13  2  0  0  0  0
 12 14  1  0  0  0  0
 14 15  1  0  0  0  0
 15 16  1  0  0  0  0
 15 35  1  0  0  0  0
 15 36  1  0  0  0  0
 16 17  1  0  0  0  0
 16 37  1  0  0  0  0
 16 38  1  0  0  0  0
 17 18  2  0  0  0  0
 17 19  1  0  0  0  0
 19 20  1  0  0  0  0
 19 39  1  0  0  0  0
 20 21  1  0  0  0  0
 20 22  1  0  0  0  0
 20 40  1  0  0  0  0
 21 41  1  0  0  0  0
 21 42  1  0  0  0  0
 21 43  1  0  0  0  0
 22 44  1  0  0  0  0
 22 45  1  0  0  0  0
 22 46  1  0  0  0  0
M  END
> <s_m_source_file>
AV-unprocessed.smi

> <i_m_source_file_index>
325

> <i_lp_mmshare_version>
43012

> <i_f3d_flags>
0

> <s_epik_input>
W0NIMl0xW0NIMl1PW0NIMl1bQ0gyXU4xYyhuYzJbQ0gzXSlbbkhdYyg9TyljMltDSDJdW0NIMl1DKD1PKVtOSF1bQ0hdKFtDSDNdKVtDSDNd

> <s_epik_cmdline>
J2VwaWtfcHl0aG9uJywgJy1waCcsICc3LjAnLCAnLXRuJywgJzgnLCAnLW1hJywgJzIwMCcsICctbWV0YWxfYmluZGluZycsICctaW1hZScsICc8aW5maWxlLm1hZT4nLCAnLW9tYWUnLCAnPG91dGZpbGUubWFlPic=

> <r_lp_tautomer_probability>
0.108306

> <r_epik_Ionization_Penalty>
0.0738532

> <r_epik_Ionization_Penalty_Charging>
0.0614224

> <r_epik_Ionization_Penalty_Neutral>
0.0124309

> <r_epik_State_Penalty>
1.70966

> <r_epik_Charging_Adjusted_Penalty>
1.77108

> <i_epik_Tot_Q>
0

> <i_epik_Tot_abs_Q>
0

> <r_epik_Metal_State_Penalty>
2.67951

> <b_epik_Metal_Only>
0

> <s_lp_Force_Field>
OPLS_2005

> <r_lp_Energy>
25.9906

> <b_lp_Chiralities_Consistent>
1

> <s_lp_Variant>
AV-unprocessed.smi:325-2

> <Gold.Version>
5.8.1

> <Gold.Id.Protein>
6NUR|6NUR_protein|mol2

> <Gold.PLP.Fitness>
46.5828

> <Gold.PLP.PLP>
-41.1185

> <Gold.PLP.part.hbond>
-2.7687

> <Gold.PLP.part.metal>
0.0000

> <Gold.PLP.part.buried>
0.8777

> <Gold.PLP.part.nonpolar>
-40.7439

> <Gold.PLP.part.repulsive>
1.3318

> <Gold.PLP.ligand.clash>
0.0000

> <Gold.PLP.ligand.torsion>
0.4328

> <Gold.PLP.Chemscore.Hbond>
1.9913

> <Gold.PLP.Chemscore.CHOScore>
0.0000

> <Gold.PLP.Chemscore.Metal>
0.0000

> <Gold.Chemscore.Hbonds>
donor molecule, donor type, donor heavy atom, donor atom, acceptor molecule, acceptor atom, score
      L1  H     3    23       P1  8028  1.00
      P1  H  7954  7966       L1    18  0.98

> <Gold.PLP.Chemscore.Internal.Correction>
0.3561

> <Gold.Rescore>
     Score         DG    S(hbond)    S(metal)    S(lipo)     H(rot)  DE(clash)    DE(int)     intcor
     16.10     -18.53       1.92        0.00      94.15       1.71       2.03       0.40       ----

> <Gold.Chemscore.Fitness>
16.0968

> <Gold.Chemscore.DG>
-18.5284

> <Gold.Chemscore.ZeroCoef>
-5.4800

> <Gold.Chemscore.Hbond>
1.9177

> <Gold.Chemscore.Metal>
0.0000

> <Gold.Chemscore.Lipo>
94.1501

> <Gold.Chemscore.Internal_Hbond>
0.0000

> <Gold.Chemscore.DEClash>
2.0327

> <Gold.Chemscore.DEInternal>
0.3990

> <Gold.Chemscore.Rot>
1.7080

> <Gold.Chemscore.Internal.Correction>
   9.000000E+99

> <Gold.Chemscore.Hbonds>
donor molecule, donor type, donor heavy atom, donor atom, acceptor molecule, acceptor atom, score
      L1  H     3    23       P1  8028  0.98
      P1  H  7954  7966       L1    18  0.87

> <Gold.Chemscore.Hbond.Weighted>
-6.4053

> <Gold.Chemscore.Metal.Weighted>
-0.0000

> <Gold.Chemscore.Lipo.Weighted>
-11.0156

> <Gold.Chemscore.Internal_Hbond.Weighted>
0.0000

> <Gold.Chemscore.DEClash.Weighted>
2.0327

> <Gold.Chemscore.DEInternal.Weighted>
0.3990

> <Gold.Chemscore.Rot.Weighted>
4.3724

> <Gold.Chemscore.Internal.Correction.Weighted>
   9.000000E+99

> <Gold.Protein.RotatedTorsions>
[ 6907 6896 6895 6894 ] final  -29.51 input  -60.11 | X-H torsion
[ 7974 7965 7964 7962 ] final -122.24 input  175.53 | X-H torsion
[ 8008 7997 7996 7995 ] final -155.52 input   59.86 | X-H torsion
[ 10167 10162 10161 10158 ] final   38.00 input  -65.29 | X-H torsion
[ 10718 10713 10712 10709 ] final -100.64 input   66.30 | X-H torsion
[ 10763 10752 10751 10750 ] final   79.11 input  -60.55 | X-H torsion
[ 11005 11000 10999 10996 ] final   94.23 input  -57.11 | X-H torsion

> <Gold.Protein.ActiveResidues>
 VAL166  LYS551  ARG553  GLY616  TRP617  ASP618  TYR619  PRO620  LYS621  CYS622 
 ASP623  PHE694  ASN695  SER759  ASP760  ASP761  ALA762  ILE779  LEU786  VAL792 
 PHE793  MET794  SER795  GLU796  ALA797  LYS798  CYS799  TRP800  GLU811  SER814 

> <Gold.Protein.RotatedAtoms>
  151.1182  135.0064  159.8525 H   0  0  0  0  0  0  0  0  0  0  0  0  # atno 6907 bound_to 6896
  152.5446  134.1754  159.8624 H   0  0  0  0  0  0  0  0  0  0  0  0  # atno 6908 bound_to 6896
  151.1810  133.4680  159.2627 H   0  0  0  0  0  0  0  0  0  0  0  0  # atno 6909 bound_to 6896
  145.0316  140.8072  143.4320 H   0  0  0  0  0  0  0  0  0  0  0  0  # atno 7974 bound_to 7965
  155.7030  140.0769  157.2402 H   0  0  0  0  0  0  0  0  0  0  0  0  # atno 8008 bound_to 7997
  154.4070  140.1644  156.2265 H   0  0  0  0  0  0  0  0  0  0  0  0  # atno 8009 bound_to 7997
  155.9350  140.3388  155.6283 H   0  0  0  0  0  0  0  0  0  0  0  0  # atno 8010 bound_to 7997
  140.3978  144.1764  150.6132 H   0  0  0  0  0  0  0  0  0  0  0  0  # atno 10167 bound_to 10162
  156.0169  130.5337  150.6847 H   0  0  0  0  0  0  0  0  0  0  0  0  # atno 10718 bound_to 10713
  153.0927  135.4852  154.8719 H   0  0  0  0  0  0  0  0  0  0  0  0  # atno 10763 bound_to 10752
  154.7288  135.3055  154.8929 H   0  0  0  0  0  0  0  0  0  0  0  0  # atno 10764 bound_to 10752
  153.9571  135.6816  153.4798 H   0  0  0  0  0  0  0  0  0  0  0  0  # atno 10765 bound_to 10752
  139.8801  134.8834  156.3834 H   0  0  0  0  0  0  0  0  0  0  0  0  # atno 11005 bound_to 11000
  145.1763  139.2376  143.5315 LP  0  0  0  0  0  0  0  0  0  0  0  0  # atno 17320 bound_to 7965
  146.3499  140.1526  142.8592 LP  0  0  0  0  0  0  0  0  0  0  0  0  # atno 17321 bound_to 7965
  140.4771  143.2392  151.9007 LP  0  0  0  0  0  0  0  0  0  0  0  0  # atno 17342 bound_to 10162
  139.4786  144.5308  151.8669 LP  0  0  0  0  0  0  0  0  0  0  0  0  # atno 17343 bound_to 10162
  157.4541  131.0876  151.0815 LP  0  0  0  0  0  0  0  0  0  0  0  0  # atno 17370 bound_to 10713
  157.1322  130.6107  149.5532 LP  0  0  0  0  0  0  0  0  0  0  0  0  # atno 17371 bound_to 10713
  140.9383  133.7532  156.0113 LP  0  0  0  0  0  0  0  0  0  0  0  0  # atno 17394 bound_to 11000
  140.8249  134.3245  157.5369 LP  0  0  0  0  0  0  0  0  0  0  0  0  # atno 17395 bound_to 11000

$$$$
