AV-unprocessed.smi:1910|AV-procd|sdf|7737|dock4
  -GOLD-   22720 9473D 1   1.00000     0.00000
 Structure written by MMmdl.
 41 42  0  0  0  0  0  0  0  0  2 V2000
  151.7722  138.3850  154.3817 C   0  0  0  0  0  0  0  0  0  0  0  0
  150.4011  138.2844  154.0128 O   0  0  0  0  0  0  0  0  0  0  0  0
  149.5953  139.3979  154.1559 C   0  0  0  0  0  0  0  0  0  0  0  0
  150.1234  140.5074  154.7312 N   0  0  0  0  0  0  0  0  0  0  0  0
  149.3394  141.5969  154.8656 C   0  0  0  0  0  0  0  0  0  0  0  0
  148.0016  141.6415  154.4327 C   0  0  0  0  0  0  0  0  0  0  0  0
  147.4514  140.4920  153.8365 C   0  0  0  0  0  0  0  0  0  0  0  0
  148.2573  139.3354  153.7014 C   0  0  0  0  0  0  0  0  0  0  0  0
  147.8088  138.1304  153.0937 N   0  0  0  0  0  0  0  0  0  0  0  0
  146.5536  137.6616  152.9937 C   0  0  0  0  0  0  0  0  0  0  0  0
  145.5519  138.1985  153.4659 O   0  0  0  0  0  0  0  0  0  0  0  0
  146.5193  136.5029  152.3224 N   0  0  0  0  0  0  0  0  0  0  0  0
  145.3041  135.7422  152.0651 C   0  0  0  0  0  0  0  0  0  0  0  0
  145.4153  134.3254  152.6503 C   0  0  0  0  0  0  0  0  0  0  0  0
  145.1984  133.2765  151.6229 N   0  3  0  0  0  0  0  0  0  0  0  0
  143.8226  133.2977  151.0710 C   0  0  0  0  0  0  0  0  0  0  0  0
  143.6330  132.1598  150.0534 C   0  0  0  0  0  0  0  0  0  0  0  0
  144.6033  132.2769  149.0207 O   0  0  0  0  0  0  0  0  0  0  0  0
  145.9293  132.1698  149.5234 C   0  0  0  0  0  0  0  0  0  0  0  0
  146.1964  133.3065  150.5248 C   0  0  0  0  0  0  0  0  0  0  0  0
  152.2626  137.4272  154.2089 H   0  0  0  0  0  0  0  0  0  0  0  0
  151.8850  138.6277  155.4392 H   0  0  0  0  0  0  0  0  0  0  0  0
  152.2918  139.1352  153.7840 H   0  0  0  0  0  0  0  0  0  0  0  0
  149.7944  142.4616  155.3254 H   0  0  0  0  0  0  0  0  0  0  0  0
  147.4121  142.5388  154.5500 H   0  0  0  0  0  0  0  0  0  0  0  0
  146.4329  140.5264  153.4820 H   0  0  0  0  0  0  0  0  0  0  0  0
  148.5399  137.5292  152.7423 H   0  0  0  0  0  0  0  0  0  0  0  0
  147.3875  136.1241  151.9727 H   0  0  0  0  0  0  0  0  0  0  0  0
  144.4650  136.2843  152.5016 H   0  0  0  0  0  0  0  0  0  0  0  0
  145.1259  135.6832  150.9899 H   0  0  0  0  0  0  0  0  0  0  0  0
  146.4155  134.2101  153.0709 H   0  0  0  0  0  0  0  0  0  0  0  0
  144.7153  134.1878  153.4762 H   0  0  0  0  0  0  0  0  0  0  0  0
  143.0967  133.1901  151.8778 H   0  0  0  0  0  0  0  0  0  0  0  0
  143.6337  134.2612  150.5946 H   0  0  0  0  0  0  0  0  0  0  0  0
  143.7148  131.1852  150.5373 H   0  0  0  0  0  0  0  0  0  0  0  0
  142.6381  132.2127  149.6111 H   0  0  0  0  0  0  0  0  0  0  0  0
  146.0772  131.1949  149.9910 H   0  0  0  0  0  0  0  0  0  0  0  0
  146.6290  132.2322  148.6897 H   0  0  0  0  0  0  0  0  0  0  0  0
  146.1496  134.2694  150.0138 H   0  0  0  0  0  0  0  0  0  0  0  0
  147.2058  133.2040  150.9218 H   0  0  0  0  0  0  0  0  0  0  0  0
  145.2998  132.3876  152.0920 H   0  0  0  0  0  0  0  0  0  0  0  0
  1  2  1  0  0  0  0
  1 21  1  0  0  0  0
  1 22  1  0  0  0  0
  1 23  1  0  0  0  0
  2  3  1  0  0  0  0
  3  8  1  0  0  0  0
  3  4  2  0  0  0  0
  4  5  1  0  0  0  0
  5  6  2  0  0  0  0
  5 24  1  0  0  0  0
  6  7  1  0  0  0  0
  6 25  1  0  0  0  0
  7  8  2  0  0  0  0
  7 26  1  0  0  0  0
  8  9  1  0  0  0  0
  9 10  1  0  0  0  0
  9 27  1  0  0  0  0
 10 11  2  0  0  0  0
 10 12  1  0  0  0  0
 12 13  1  0  0  0  0
 12 28  1  0  0  0  0
 13 14  1  0  0  0  0
 13 29  1  0  0  0  0
 13 30  1  0  0  0  0
 14 15  1  0  0  0  0
 14 31  1  0  0  0  0
 14 32  1  0  0  0  0
 15 20  1  0  0  0  0
 15 16  1  0  0  0  0
 15 41  1  0  0  0  0
 16 17  1  0  0  0  0
 16 33  1  0  0  0  0
 16 34  1  0  0  0  0
 17 18  1  0  0  0  0
 17 35  1  0  0  0  0
 17 36  1  0  0  0  0
 18 19  1  0  0  0  0
 19 20  1  0  0  0  0
 19 37  1  0  0  0  0
 19 38  1  0  0  0  0
 20 39  1  0  0  0  0
 20 40  1  0  0  0  0
M  CHG  1  15   1
M  END
> <s_m_source_file>
AV-unprocessed.smi

> <i_m_source_file_index>
1910

> <i_lp_mmshare_version>
43012

> <i_f3d_flags>
0

> <s_epik_input>
W0NIM11PYzFuW2NIXVtjSF1bY0hdYzFbTkhdQyg9TylbTkhdW0NIMl1bQ0gyXU4yW0NIMl1bQ0gyXU9bQ0gyXVtDSDJdMg==

> <s_epik_cmdline>
J2VwaWtfcHl0aG9uJywgJy1waCcsICc3LjAnLCAnLXRuJywgJzgnLCAnLW1hJywgJzIwMCcsICctbWV0YWxfYmluZGluZycsICctaW1hZScsICc8aW5maWxlLm1hZT4nLCAnLW9tYWUnLCAnPG91dGZpbGUubWFlPic=

> <r_lp_tautomer_probability>
1

> <r_epik_Ionization_Penalty>
0.602607

> <r_epik_Ionization_Penalty_Charging>
0.602531

> <r_epik_Ionization_Penalty_Neutral>
7.65669e-05

> <r_epik_State_Penalty>
0.617039

> <r_epik_Charging_Adjusted_Penalty>
1.21957

> <i_epik_Tot_Q>
1

> <i_epik_Tot_abs_Q>
1

> <r_epik_Metal_State_Penalty>
0.617043

> <b_epik_Metal_Only>
0

> <s_lp_Force_Field>
OPLS_2005

> <r_lp_Energy>
18.6257

> <b_lp_Chiralities_Consistent>
1

> <s_lp_Variant>
AV-unprocessed.smi:1910-2

> <Gold.Version>
5.8.1

> <Gold.Id.Protein>
6NUR|6NUR_protein|mol2

> <Gold.PLP.Fitness>
45.8417

> <Gold.PLP.PLP>
-35.1354

> <Gold.PLP.part.hbond>
-3.6097

> <Gold.PLP.part.metal>
0.0000

> <Gold.PLP.part.buried>
-3.3728

> <Gold.PLP.part.nonpolar>
-29.9348

> <Gold.PLP.part.repulsive>
1.0022

> <Gold.PLP.ligand.clash>
0.0000

> <Gold.PLP.ligand.torsion>
0.5383

> <Gold.PLP.Chemscore.Hbond>
2.9120

> <Gold.PLP.Chemscore.CHOScore>
1.0000

> <Gold.PLP.Chemscore.Metal>
0.0000

> <Gold.Chemscore.Hbonds>
donor molecule, donor type, donor heavy atom, donor atom, acceptor molecule, acceptor atom, score
      L1  H     9    27       P1  7948  0.98
      L1  H    12    28       P1  7948  1.00
      P1  H  7989  7998       L1     4  0.93
      L1  C     5    24       P1  8028  0.99

> <Gold.PLP.Chemscore.Internal.Correction>
0.0468

> <Gold.Rescore>
     Score         DG    S(hbond)    S(metal)    S(lipo)     H(rot)  DE(clash)    DE(int)     intcor
     15.77     -17.59       2.19        0.00      81.04       1.83       0.22       1.59       ----

> <Gold.Chemscore.Fitness>
15.7746

> <Gold.Chemscore.DG>
-17.5878

> <Gold.Chemscore.ZeroCoef>
-5.4800

> <Gold.Chemscore.Hbond>
2.1859

> <Gold.Chemscore.Metal>
0.0000

> <Gold.Chemscore.Lipo>
81.0367

> <Gold.Chemscore.Internal_Hbond>
0.0000

> <Gold.Chemscore.DEClash>
0.2192

> <Gold.Chemscore.DEInternal>
1.5940

> <Gold.Chemscore.Rot>
1.8260

> <Gold.Chemscore.Internal.Correction>
   9.000000E+99

> <Gold.Chemscore.Hbonds>
donor molecule, donor type, donor heavy atom, donor atom, acceptor molecule, acceptor atom, score
      L1  H     9    27       P1  7948  0.92
      L1  H    12    28       P1  7948  0.90
      P1  H  7989  7998       L1     4  0.20

> <Gold.Chemscore.Hbond.Weighted>
-7.3010

> <Gold.Chemscore.Metal.Weighted>
-0.0000

> <Gold.Chemscore.Lipo.Weighted>
-9.4813

> <Gold.Chemscore.Internal_Hbond.Weighted>
0.0000

> <Gold.Chemscore.DEClash.Weighted>
0.2192

> <Gold.Chemscore.DEInternal.Weighted>
1.5940

> <Gold.Chemscore.Rot.Weighted>
4.6744

> <Gold.Chemscore.Internal.Correction.Weighted>
   9.000000E+99

> <Gold.Protein.RotatedTorsions>
[ 6907 6896 6895 6894 ] final  -53.36 input  -60.11 | X-H torsion
[ 7974 7965 7964 7962 ] final -128.99 input  175.53 | X-H torsion
[ 8008 7997 7996 7995 ] final  139.52 input   59.86 | X-H torsion
[ 10167 10162 10161 10158 ] final  154.61 input  -65.29 | X-H torsion
[ 10718 10713 10712 10709 ] final    3.51 input   66.30 | X-H torsion
[ 10763 10752 10751 10750 ] final -153.97 input  -60.55 | X-H torsion
[ 11005 11000 10999 10996 ] final   -9.92 input  -57.11 | X-H torsion

> <Gold.Protein.ActiveResidues>
 VAL166  LYS551  ARG553  GLY616  TRP617  ASP618  TYR619  PRO620  LYS621  CYS622 
 ASP623  PHE694  ASN695  SER759  ASP760  ASP761  ALA762  ILE779  LEU786  VAL792 
 PHE793  MET794  SER795  GLU796  ALA797  LYS798  CYS799  TRP800  GLU811  SER814 

> <Gold.Protein.RotatedAtoms>
  150.8434  134.7734  159.6950 H   0  0  0  0  0  0  0  0  0  0  0  0  # atno 6907 bound_to 6896
  152.4516  134.5377  159.9839 H   0  0  0  0  0  0  0  0  0  0  0  0  # atno 6908 bound_to 6896
  151.5512  133.3379  159.2989 H   0  0  0  0  0  0  0  0  0  0  0  0  # atno 6909 bound_to 6896
  144.9616  140.7452  143.4725 H   0  0  0  0  0  0  0  0  0  0  0  0  # atno 7974 bound_to 7965
  156.2989  140.2365  156.4251 H   0  0  0  0  0  0  0  0  0  0  0  0  # atno 8008 bound_to 7997
  154.8321  140.0432  157.1504 H   0  0  0  0  0  0  0  0  0  0  0  0  # atno 8009 bound_to 7997
  154.9197  140.3002  155.5226 H   0  0  0  0  0  0  0  0  0  0  0  0  # atno 8010 bound_to 7997
  139.4823  144.5172  151.7933 H   0  0  0  0  0  0  0  0  0  0  0  0  # atno 10167 bound_to 10162
  156.8789  130.5646  149.5654 H   0  0  0  0  0  0  0  0  0  0  0  0  # atno 10718 bound_to 10713
  154.7891  135.3200  154.7819 H   0  0  0  0  0  0  0  0  0  0  0  0  # atno 10763 bound_to 10752
  153.8512  135.6862  153.4796 H   0  0  0  0  0  0  0  0  0  0  0  0  # atno 10764 bound_to 10752
  153.1554  135.4682  154.9636 H   0  0  0  0  0  0  0  0  0  0  0  0  # atno 10765 bound_to 10752
  140.7393  133.8683  155.8955 H   0  0  0  0  0  0  0  0  0  0  0  0  # atno 11005 bound_to 11000
  145.2691  139.1961  143.4851 LP  0  0  0  0  0  0  0  0  0  0  0  0  # atno 17320 bound_to 7965
  146.3355  140.2635  142.8603 LP  0  0  0  0  0  0  0  0  0  0  0  0  # atno 17321 bound_to 7965
  140.4682  144.1625  150.5914 LP  0  0  0  0  0  0  0  0  0  0  0  0  # atno 17342 bound_to 10162
  140.4411  143.2526  151.9471 LP  0  0  0  0  0  0  0  0  0  0  0  0  # atno 17343 bound_to 10162
  156.0687  130.5725  150.9341 LP  0  0  0  0  0  0  0  0  0  0  0  0  # atno 17370 bound_to 10713
  157.6152  131.0934  150.8723 LP  0  0  0  0  0  0  0  0  0  0  0  0  # atno 17371 bound_to 10713
  140.9851  134.1354  157.4459 LP  0  0  0  0  0  0  0  0  0  0  0  0  # atno 17394 bound_to 11000
  139.8809  135.0023  156.6117 LP  0  0  0  0  0  0  0  0  0  0  0  0  # atno 17395 bound_to 11000

$$$$
