AV-unprocessed.smi:55|AV-procd|sdf|562|dock5
  -GOLD-   2262016463D 1   1.00000     0.00000
 Structure written by MMmdl.
 31 32  0  0  0  0  0  0  0  0  1 V2000
  152.7926  143.6845  160.5741 C   0  0  0  0  0  0  0  0  0  0  0  0
  152.1420  143.1244  159.3201 C   0  0  0  0  0  0  0  0  0  0  0  0
  152.2558  141.8199  158.9621 C   0  0  0  0  0  0  0  0  0  0  0  0
  151.6741  141.2785  157.8242 N   0  0  0  0  0  0  0  0  0  0  0  0
  151.8426  139.8157  157.4810 C   0  0  1  0  0  0  0  0  0  0  0  0
  150.4835  139.1260  157.3546 C   0  0  0  0  0  0  0  0  0  0  0  0
  150.7293  138.1973  156.1842 C   0  0  1  0  0  0  0  0  0  0  0  0
  149.5180  137.8706  155.5345 O   0  0  0  0  0  0  0  0  0  0  0  0
  151.6597  139.0341  155.3026 C   0  0  2  0  0  0  0  0  0  0  0  0
  152.5264  138.1919  154.3544 C   0  0  0  0  0  0  0  0  0  0  0  0
  151.7918  137.0812  153.8862 O   0  0  0  0  0  0  0  0  0  0  0  0
  152.4912  139.7083  156.2472 O   0  0  0  0  0  0  0  0  0  0  0  0
  150.9304  142.1139  156.9647 C   0  0  0  0  0  0  0  0  0  0  0  0
  150.4063  141.7141  155.9258 O   0  0  0  0  0  0  0  0  0  0  0  0
  150.8104  143.4529  157.3332 N   0  0  0  0  0  0  0  0  0  0  0  0
  151.3699  144.0369  158.4723 C   0  0  0  0  0  0  0  0  0  0  0  0
  151.1933  145.2345  158.6896 O   0  0  0  0  0  0  0  0  0  0  0  0
  152.4916  139.3612  158.2309 H   0  0  0  0  0  0  0  0  0  0  0  0
  151.2314  137.2906  156.5253 H   0  0  0  0  0  0  0  0  0  0  0  0
  151.0718  139.7689  154.7490 H   0  0  0  0  0  0  0  0  0  0  0  0
  150.2761  144.0537  156.7226 H   0  0  0  0  0  0  0  0  0  0  0  0
  153.3231  142.9136  161.1337 H   0  0  0  0  0  0  0  0  0  0  0  0
  152.0397  144.1167  161.2340 H   0  0  0  0  0  0  0  0  0  0  0  0
  153.5103  144.4639  160.3153 H   0  0  0  0  0  0  0  0  0  0  0  0
  152.8360  141.1706  159.6000 H   0  0  0  0  0  0  0  0  0  0  0  0
  150.2089  138.6154  158.2781 H   0  0  0  0  0  0  0  0  0  0  0  0
  149.7160  139.8635  157.1121 H   0  0  0  0  0  0  0  0  0  0  0  0
  149.3791  138.4847  154.8296 H   0  0  0  0  0  0  0  0  0  0  0  0
  152.8931  138.7872  153.5175 H   0  0  0  0  0  0  0  0  0  0  0  0
  153.3977  137.8065  154.8848 H   0  0  0  0  0  0  0  0  0  0  0  0
  151.7505  137.1244  152.9430 H   0  0  0  0  0  0  0  0  0  0  0  0
  1  2  1  0  0  0  0
  1 22  1  0  0  0  0
  1 23  1  0  0  0  0
  1 24  1  0  0  0  0
  2 16  1  0  0  0  0
  2  3  2  0  0  0  0
  3  4  1  0  0  0  0
  3 25  1  0  0  0  0
  4  5  1  0  0  0  0
  4 13  1  0  0  0  0
  5 18  1  0  0  0  0
  5 12  1  0  0  0  0
  5  6  1  0  0  0  0
  6  7  1  0  0  0  0
  6 26  1  0  0  0  0
  6 27  1  0  0  0  0
  7 19  1  0  0  0  0
  7  8  1  0  0  0  0
  7  9  1  0  0  0  0
  8 28  1  0  0  0  0
  9 20  1  0  0  0  0
  9 10  1  0  0  0  0
  9 12  1  0  0  0  0
 10 11  1  0  0  0  0
 10 29  1  0  0  0  0
 10 30  1  0  0  0  0
 11 31  1  0  0  0  0
 13 14  2  0  0  0  0
 13 15  1  0  0  0  0
 15 21  1  0  0  0  0
 15 16  1  0  0  0  0
 16 17  2  0  0  0  0
M  END
> <s_m_source_file>
AV-unprocessed.smi

> <i_m_source_file_index>
55

> <i_lp_mmshare_version>
43012

> <i_f3d_flags>
0

> <s_epik_input>
Tz1jMVtuSF1jKD1PKW4oW2NIXWMxW0NIM10pW0NAQEhdMltDSDJdW0NAQEhdKFtPSF0pW0NAQEhdKE8yKVtDSDJdW09IXQ==

> <s_epik_cmdline>
J2VwaWtfcHl0aG9uJywgJy1waCcsICc3LjAnLCAnLXRuJywgJzgnLCAnLW1hJywgJzIwMCcsICctbWV0YWxfYmluZGluZycsICctaW1hZScsICc8aW5maWxlLm1hZT4nLCAnLW9tYWUnLCAnPG91dGZpbGUubWFlPic=

> <r_lp_tautomer_probability>
0.999537

> <r_epik_Ionization_Penalty>
0.00121888

> <r_epik_Ionization_Penalty_Charging>
0.00121876

> <r_epik_Ionization_Penalty_Neutral>
1.19946e-07

> <r_epik_State_Penalty>
0.000805124

> <r_epik_Charging_Adjusted_Penalty>
0.00202389

> <i_epik_Tot_Q>
0

> <i_epik_Tot_abs_Q>
0

> <r_epik_Metal_State_Penalty>
0.662472

> <b_epik_Metal_Only>
0

> <s_epik_Chemistry_Notes>
This compound contains an acetal/aminal-like group ( X-CH(R)-Y where X, Y are N, S, or O) that may be acid/base labile, releasing an aldehyde.

> <s_lp_Force_Field>
OPLS_2005

> <r_lp_Energy>
25.0544

> <b_lp_Chiralities_Consistent>
1

> <s_lp_Variant>
AV-unprocessed.smi:55-2

> <Gold.Version>
5.8.1

> <Gold.Id.Protein>
6NUR|6NUR_protein|mol2

> <Gold.PLP.Fitness>
41.6944

> <Gold.PLP.PLP>
-31.1316

> <Gold.PLP.part.hbond>
-4.1398

> <Gold.PLP.part.metal>
0.0000

> <Gold.PLP.part.buried>
-6.4635

> <Gold.PLP.part.nonpolar>
-20.7819

> <Gold.PLP.part.repulsive>
0.2283

> <Gold.PLP.ligand.clash>
0.0000

> <Gold.PLP.ligand.torsion>
0.3034

> <Gold.PLP.Chemscore.Hbond>
3.7200

> <Gold.PLP.Chemscore.CHOScore>
0.0000

> <Gold.PLP.Chemscore.Metal>
0.0000

> <Gold.Chemscore.Hbonds>
donor molecule, donor type, donor heavy atom, donor atom, acceptor molecule, acceptor atom, score
      L1  H    11    31       P1  7949  0.75
      L1  H    15    21       P1  8028  1.00
      P1  H  7997  8010       L1    12  1.00
      P1  H 10752 10764       L1    11  0.90

> <Gold.PLP.Chemscore.Internal.Correction>
0.0096

> <Gold.Rescore>
     Score         DG    S(hbond)    S(metal)    S(lipo)     H(rot)  DE(clash)    DE(int)     intcor
     14.08     -16.14       3.24        0.00      58.16       2.73       0.03       2.03       ----

> <Gold.Chemscore.Fitness>
14.0826

> <Gold.Chemscore.DG>
-16.1407

> <Gold.Chemscore.ZeroCoef>
-5.4800

> <Gold.Chemscore.Hbond>
3.2434

> <Gold.Chemscore.Metal>
0.0000

> <Gold.Chemscore.Lipo>
58.1581

> <Gold.Chemscore.Internal_Hbond>
0.0000

> <Gold.Chemscore.DEClash>
0.0310

> <Gold.Chemscore.DEInternal>
2.0272

> <Gold.Chemscore.Rot>
2.7253

> <Gold.Chemscore.Internal.Correction>
   9.000000E+99

> <Gold.Chemscore.Hbonds>
donor molecule, donor type, donor heavy atom, donor atom, acceptor molecule, acceptor atom, score
      L1  H    11    31       P1  7949  0.75
      L1  H    15    21       P1  8028  0.99
      P1  H  7997  8010       L1    12  0.88
      P1  H 10752 10764       L1    11  0.06

> <Gold.Chemscore.Hbond.Weighted>
-10.8331

> <Gold.Chemscore.Metal.Weighted>
-0.0000

> <Gold.Chemscore.Lipo.Weighted>
-6.8045

> <Gold.Chemscore.Internal_Hbond.Weighted>
0.0000

> <Gold.Chemscore.DEClash.Weighted>
0.0310

> <Gold.Chemscore.DEInternal.Weighted>
2.0272

> <Gold.Chemscore.Rot.Weighted>
6.9769

> <Gold.Chemscore.Internal.Correction.Weighted>
   9.000000E+99

> <Gold.Protein.RotatedTorsions>
[ 6907 6896 6895 6894 ] final   77.73 input  -60.11 | X-H torsion
[ 7974 7965 7964 7962 ] final   44.50 input  175.53 | X-H torsion
[ 8008 7997 7996 7995 ] final   78.82 input   59.86 | X-H torsion
[ 10167 10162 10161 10158 ] final  166.25 input  -65.29 | X-H torsion
[ 10718 10713 10712 10709 ] final  -34.98 input   66.30 | X-H torsion
[ 10763 10752 10751 10750 ] final  -93.94 input  -60.55 | X-H torsion
[ 11005 11000 10999 10996 ] final -135.24 input  -57.11 | X-H torsion

> <Gold.Protein.ActiveResidues>
 VAL166  LYS551  ARG553  GLY616  TRP617  ASP618  TYR619  PRO620  LYS621  CYS622 
 ASP623  PHE694  ASN695  SER759  ASP760  ASP761  ALA762  ILE779  LEU786  VAL792 
 PHE793  MET794  SER795  GLU796  ALA797  LYS798  CYS799  TRP800  GLU811  SER814 

> <Gold.Protein.RotatedAtoms>
  152.5130  134.3772  159.9338 H   0  0  0  0  0  0  0  0  0  0  0  0  # atno 6907 bound_to 6896
  151.3728  133.3842  159.2709 H   0  0  0  0  0  0  0  0  0  0  0  0  # atno 6908 bound_to 6896
  150.9564  134.8978  159.7762 H   0  0  0  0  0  0  0  0  0  0  0  0  # atno 6909 bound_to 6896
  146.0563  139.5068  142.9686 H   0  0  0  0  0  0  0  0  0  0  0  0  # atno 7974 bound_to 7965
  155.8611  140.3453  155.5757 H   0  0  0  0  0  0  0  0  0  0  0  0  # atno 8008 bound_to 7997
  155.7932  140.0874  157.2017 H   0  0  0  0  0  0  0  0  0  0  0  0  # atno 8009 bound_to 7997
  154.4012  140.1479  156.3174 H   0  0  0  0  0  0  0  0  0  0  0  0  # atno 8010 bound_to 7997
  139.4921  144.4047  151.9369 H   0  0  0  0  0  0  0  0  0  0  0  0  # atno 10167 bound_to 10162
  156.3441  130.4298  149.7762 H   0  0  0  0  0  0  0  0  0  0  0  0  # atno 10718 bound_to 10713
  154.7007  135.5176  153.8523 H   0  0  0  0  0  0  0  0  0  0  0  0  # atno 10763 bound_to 10752
  153.0702  135.6598  154.0274 H   0  0  0  0  0  0  0  0  0  0  0  0  # atno 10764 bound_to 10752
  154.0133  135.3000  155.3369 H   0  0  0  0  0  0  0  0  0  0  0  0  # atno 10765 bound_to 10752
  140.8916  134.1804  157.4523 H   0  0  0  0  0  0  0  0  0  0  0  0  # atno 11005 bound_to 11000
  145.6637  141.0234  143.1695 LP  0  0  0  0  0  0  0  0  0  0  0  0  # atno 17320 bound_to 7965
  144.7150  139.8231  143.7402 LP  0  0  0  0  0  0  0  0  0  0  0  0  # atno 17321 bound_to 7965
  140.3487  144.3115  150.5953 LP  0  0  0  0  0  0  0  0  0  0  0  0  # atno 17342 bound_to 10162
  140.5504  143.2207  151.7937 LP  0  0  0  0  0  0  0  0  0  0  0  0  # atno 17343 bound_to 10162
  156.4987  130.8119  151.3124 LP  0  0  0  0  0  0  0  0  0  0  0  0  # atno 17370 bound_to 10713
  157.7451  130.9952  150.2734 LP  0  0  0  0  0  0  0  0  0  0  0  0  # atno 17371 bound_to 10713
  139.8730  134.9861  156.5309 LP  0  0  0  0  0  0  0  0  0  0  0  0  # atno 17394 bound_to 11000
  140.8339  133.8257  155.9010 LP  0  0  0  0  0  0  0  0  0  0  0  0  # atno 17395 bound_to 11000

$$$$
