AV-unprocessed.smi:1962|AV-procd|sdf|7925|dock10
  -GOLD-   2272010 93D 1   1.00000     0.00000
 Structure written by MMmdl.
 35 36  0  0  0  0  0  0  0  0  2 V2000
  150.6596  139.6643  154.9911 C   0  0  0  0  0  0  0  0  0  0  0  0
  151.5392  140.5200  155.9131 C   0  0  1  0  0  0  0  0  0  0  0  0
  150.6849  141.2542  156.9805 C   0  0  0  0  0  0  0  0  0  0  0  0
  151.4285  142.2063  157.8027 N   0  0  0  0  0  0  0  0  0  0  0  0
  151.3269  143.5847  157.8408 C   0  0  0  0  0  0  0  0  0  0  0  0
  152.2149  144.0368  158.7740 C   0  0  0  0  0  0  0  0  0  0  0  0
  152.8147  142.8473  159.2726 C   0  0  0  0  0  0  0  0  0  0  0  0
  152.3346  141.7553  158.7018 N   0  0  0  0  0  0  0  0  0  0  0  0
  152.5252  139.6481  156.5625 N   0  5  0  0  0  0  0  0  0  0  0  0
  152.2320  138.5743  157.3583 C   0  0  0  0  0  0  0  0  0  0  0  0
  151.5197  137.6112  157.0488 O   0  0  0  0  0  0  0  0  0  0  0  0
  152.8087  138.5220  158.7346 C   0  0  0  0  0  0  0  0  0  0  0  0
  153.6090  139.4624  159.1305 N   0  0  0  0  0  0  0  0  0  0  0  0
  154.1615  139.4779  160.3944 N   0  0  0  0  0  0  0  0  0  0  0  0
  154.8166  140.7320  160.7594 C   0  0  0  0  0  0  0  0  0  0  0  0
  154.1459  138.4308  161.2555 C   0  0  0  0  0  0  0  0  0  0  0  0
  154.6221  138.4701  162.3903 O   0  0  0  0  0  0  0  0  0  0  0  0
  153.5200  137.1329  160.7391 C   0  0  0  0  0  0  0  0  0  0  0  0
  152.4339  137.3908  159.6765 C   0  0  0  0  0  0  0  0  0  0  0  0
  149.9236  140.2792  154.4730 H   0  0  0  0  0  0  0  0  0  0  0  0
  150.1183  138.9004  155.5507 H   0  0  0  0  0  0  0  0  0  0  0  0
  151.2580  139.1608  154.2309 H   0  0  0  0  0  0  0  0  0  0  0  0
  152.0147  141.2753  155.2851 H   0  0  0  0  0  0  0  0  0  0  0  0
  149.8853  141.8081  156.4875 H   0  0  0  0  0  0  0  0  0  0  0  0
  150.1930  140.5306  157.6331 H   0  0  0  0  0  0  0  0  0  0  0  0
  150.6432  144.1218  157.1998 H   0  0  0  0  0  0  0  0  0  0  0  0
  152.4061  145.0610  159.0570 H   0  0  0  0  0  0  0  0  0  0  0  0
  153.5758  142.7447  160.0317 H   0  0  0  0  0  0  0  0  0  0  0  0
  154.3121  141.1934  161.6091 H   0  0  0  0  0  0  0  0  0  0  0  0
  154.8081  141.4514  159.9388 H   0  0  0  0  0  0  0  0  0  0  0  0
  155.8586  140.5589  161.0320 H   0  0  0  0  0  0  0  0  0  0  0  0
  154.3212  136.5337  160.3049 H   0  0  0  0  0  0  0  0  0  0  0  0
  153.1098  136.5561  161.5688 H   0  0  0  0  0  0  0  0  0  0  0  0
  151.4861  137.6272  160.1613 H   0  0  0  0  0  0  0  0  0  0  0  0
  152.2755  136.4629  159.1262 H   0  0  0  0  0  0  0  0  0  0  0  0
  1  2  1  0  0  0  0
  1 20  1  0  0  0  0
  1 21  1  0  0  0  0
  1 22  1  0  0  0  0
  2  3  1  0  0  0  0
  2  9  1  0  0  0  0
  2 23  1  0  0  0  0
  3  4  1  0  0  0  0
  3 24  1  0  0  0  0
  3 25  1  0  0  0  0
  4  8  1  0  0  0  0
  4  5  1  0  0  0  0
  5  6  2  0  0  0  0
  5 26  1  0  0  0  0
  6  7  1  0  0  0  0
  6 27  1  0  0  0  0
  7  8  2  0  0  0  0
  7 28  1  0  0  0  0
  9 10  1  0  0  0  0
 10 11  2  0  0  0  0
 10 12  1  0  0  0  0
 12 19  1  0  0  0  0
 12 13  2  0  0  0  0
 13 14  1  0  0  0  0
 14 15  1  0  0  0  0
 14 16  1  0  0  0  0
 15 29  1  0  0  0  0
 15 30  1  0  0  0  0
 15 31  1  0  0  0  0
 16 17  2  0  0  0  0
 16 18  1  0  0  0  0
 18 19  1  0  0  0  0
 18 32  1  0  0  0  0
 18 33  1  0  0  0  0
 19 34  1  0  0  0  0
 19 35  1  0  0  0  0
M  CHG  1   9  -1
M  END
> <s_m_source_file>
AV-unprocessed.smi

> <i_m_source_file_index>
1962

> <i_lp_mmshare_version>
43012

> <i_f3d_flags>
0

> <s_epik_input>
bjFbY0hdW2NIXVtjSF1uMVtDSDJdW0NAQEhdKFtDSDNdKVtOSF1DKD1PKUMyPU5OKFtDSDNdKUMoPU8pW0NIMl1bQ0gyXTI=

> <s_epik_cmdline>
J2VwaWtfcHl0aG9uJywgJy1waCcsICc3LjAnLCAnLXRuJywgJzgnLCAnLW1hJywgJzIwMCcsICctbWV0YWxfYmluZGluZycsICctaW1hZScsICc8aW5maWxlLm1hZT4nLCAnLW9tYWUnLCAnPG91dGZpbGUubWFlPic=

> <r_lp_tautomer_probability>
1

> <r_epik_Ionization_Penalty>
5.21086

> <r_epik_Ionization_Penalty_Charging>
5.21084

> <r_epik_Ionization_Penalty_Neutral>
2.41961e-05

> <r_epik_State_Penalty>
5.21075

> <r_epik_Charging_Adjusted_Penalty>
10.4216

> <i_epik_Tot_Q>
-1

> <i_epik_Tot_abs_Q>
1

> <r_epik_Metal_State_Penalty>
1.27477

> <b_epik_Metal_Only>
1

> <s_epik_Chemistry_Notes>
This compound has an imine and may undergo hydrolysis.

> <s_lp_Force_Field>
OPLS_2005

> <r_lp_Energy>
25.3594

> <b_lp_Chiralities_Consistent>
1

> <s_lp_Variant>
AV-unprocessed.smi:1962-4

> <Gold.Version>
5.8.1

> <Gold.Id.Protein>
6NUR|6NUR_protein|mol2

> <Gold.PLP.Fitness>
42.7344

> <Gold.PLP.PLP>
-34.9177

> <Gold.PLP.part.hbond>
-1.2237

> <Gold.PLP.part.metal>
0.0000

> <Gold.PLP.part.buried>
-2.8777

> <Gold.PLP.part.nonpolar>
-30.8344

> <Gold.PLP.part.repulsive>
0.0000

> <Gold.PLP.ligand.clash>
0.0000

> <Gold.PLP.ligand.torsion>
0.6067

> <Gold.PLP.Chemscore.Hbond>
2.0000

> <Gold.PLP.Chemscore.CHOScore>
1.0000

> <Gold.PLP.Chemscore.Metal>
0.0000

> <Gold.Chemscore.Hbonds>
donor molecule, donor type, donor heavy atom, donor atom, acceptor molecule, acceptor atom, score
      P1  H  7997  8008       L1     9  2.00
      L1  C     5    26       P1  8028  1.00

> <Gold.PLP.Chemscore.Internal.Correction>
0.0300

> <Gold.Rescore>
     Score         DG    S(hbond)    S(metal)    S(lipo)     H(rot)  DE(clash)    DE(int)     intcor
     13.15     -14.16       0.90        0.00      81.12       1.50       0.05       0.95       ----

> <Gold.Chemscore.Fitness>
13.1523

> <Gold.Chemscore.DG>
-14.1585

> <Gold.Chemscore.ZeroCoef>
-5.4800

> <Gold.Chemscore.Hbond>
0.9037

> <Gold.Chemscore.Metal>
0.0000

> <Gold.Chemscore.Lipo>
81.1185

> <Gold.Chemscore.Internal_Hbond>
0.0000

> <Gold.Chemscore.DEClash>
0.0515

> <Gold.Chemscore.DEInternal>
0.9547

> <Gold.Chemscore.Rot>
1.4964

> <Gold.Chemscore.Internal.Correction>
   9.000000E+99

> <Gold.Chemscore.Hbonds>
donor molecule, donor type, donor heavy atom, donor atom, acceptor molecule, acceptor atom, score
      P1  H  7997  8008       L1     9  0.90

> <Gold.Chemscore.Hbond.Weighted>
-3.0185

> <Gold.Chemscore.Metal.Weighted>
-0.0000

> <Gold.Chemscore.Lipo.Weighted>
-9.4909

> <Gold.Chemscore.Internal_Hbond.Weighted>
0.0000

> <Gold.Chemscore.DEClash.Weighted>
0.0515

> <Gold.Chemscore.DEInternal.Weighted>
0.9547

> <Gold.Chemscore.Rot.Weighted>
3.8309

> <Gold.Chemscore.Internal.Correction.Weighted>
   9.000000E+99

> <Gold.Protein.RotatedTorsions>
[ 6907 6896 6895 6894 ] final -150.58 input  -60.11 | X-H torsion
[ 7974 7965 7964 7962 ] final  139.22 input  175.53 | X-H torsion
[ 8008 7997 7996 7995 ] final  -49.82 input   59.86 | X-H torsion
[ 10167 10162 10161 10158 ] final   50.59 input  -65.29 | X-H torsion
[ 10718 10713 10712 10709 ] final   46.80 input   66.30 | X-H torsion
[ 10763 10752 10751 10750 ] final  133.07 input  -60.55 | X-H torsion
[ 11005 11000 10999 10996 ] final  130.95 input  -57.11 | X-H torsion

> <Gold.Protein.ActiveResidues>
 VAL166  LYS551  ARG553  GLY616  TRP617  ASP618  TYR619  PRO620  LYS621  CYS622 
 ASP623  PHE694  ASN695  SER759  ASP760  ASP761  ALA762  ILE779  LEU786  VAL792 
 PHE793  MET794  SER795  GLU796  ALA797  LYS798  CYS799  TRP800  GLU811  SER814 

> <Gold.Protein.RotatedAtoms>
  151.2006  133.4613  159.2595 H   0  0  0  0  0  0  0  0  0  0  0  0  # atno 6907 bound_to 6896
  151.1073  135.0007  159.8487 H   0  0  0  0  0  0  0  0  0  0  0  0  # atno 6908 bound_to 6896
  152.5448  134.1928  159.8734 H   0  0  0  0  0  0  0  0  0  0  0  0  # atno 6909 bound_to 6896
  144.9299  139.5060  143.5623 H   0  0  0  0  0  0  0  0  0  0  0  0  # atno 7974 bound_to 7965
  154.4051  140.1287  156.4566 H   0  0  0  0  0  0  0  0  0  0  0  0  # atno 8008 bound_to 7997
  155.7314  140.3491  155.5041 H   0  0  0  0  0  0  0  0  0  0  0  0  # atno 8009 bound_to 7997
  155.9123  140.1038  157.1260 H   0  0  0  0  0  0  0  0  0  0  0  0  # atno 8010 bound_to 7997
  140.2709  144.3267  150.6290 H   0  0  0  0  0  0  0  0  0  0  0  0  # atno 10167 bound_to 10162
  157.4519  130.8144  149.7797 H   0  0  0  0  0  0  0  0  0  0  0  0  # atno 10718 bound_to 10713
  153.8010  135.3142  155.3390 H   0  0  0  0  0  0  0  0  0  0  0  0  # atno 10763 bound_to 10752
  154.8089  135.4680  154.0467 H   0  0  0  0  0  0  0  0  0  0  0  0  # atno 10764 bound_to 10752
  153.1815  135.6894  153.8560 H   0  0  0  0  0  0  0  0  0  0  0  0  # atno 10765 bound_to 10752
  139.9702  134.9579  156.9368 H   0  0  0  0  0  0  0  0  0  0  0  0  # atno 11005 bound_to 11000
  146.3242  139.8242  142.8921 LP  0  0  0  0  0  0  0  0  0  0  0  0  # atno 17320 bound_to 7965
  145.3159  141.0231  143.3528 LP  0  0  0  0  0  0  0  0  0  0  0  0  # atno 17321 bound_to 7965
  140.5890  143.2169  151.7287 LP  0  0  0  0  0  0  0  0  0  0  0  0  # atno 17342 bound_to 10162
  139.4989  144.3967  152.0224 LP  0  0  0  0  0  0  0  0  0  0  0  0  # atno 17343 bound_to 10162
  155.9991  130.3891  150.2678 LP  0  0  0  0  0  0  0  0  0  0  0  0  # atno 17370 bound_to 10713
  157.0850  131.0154  151.3143 LP  0  0  0  0  0  0  0  0  0  0  0  0  # atno 17371 bound_to 10713
  140.5310  134.0813  155.7316 LP  0  0  0  0  0  0  0  0  0  0  0  0  # atno 17394 bound_to 11000
  141.1381  133.9185  157.2387 LP  0  0  0  0  0  0  0  0  0  0  0  0  # atno 17395 bound_to 11000

$$$$
