AV-unprocessed.smi:1736|AV-procd|sdf|6992|dock5
  -GOLD-   22720 8203D 1   1.00000     0.00000
 Structure written by MMmdl.
 44 45  0  0  0  0  0  0  0  0  1 V2000
  151.5790  141.5713  157.6615 C   0  0  0  0  0  0  0  0  0  0  0  0
  150.3403  141.6238  156.9005 N   0  0  0  0  0  0  0  0  0  0  0  0
  150.5067  141.0609  155.5638 C   0  0  0  0  0  0  0  0  0  0  0  0
  149.1978  141.1287  154.7554 C   0  0  0  0  0  0  0  0  0  0  0  0
  148.1002  140.4145  155.4288 N   0  0  0  0  0  0  0  0  0  0  0  0
  146.8368  140.3246  154.6436 C   0  0  0  0  0  0  0  0  0  0  0  0
  146.1760  141.7029  154.3995 C   0  0  0  0  0  0  0  0  0  0  0  0
  147.0918  139.6892  153.2531 C   0  0  0  0  0  0  0  0  0  0  0  0
  145.7788  139.4297  155.3551 C   0  0  0  0  0  0  0  0  0  0  0  0
  144.5460  139.2810  154.5820 N   0  0  0  0  0  0  0  0  0  0  0  0
  143.5913  138.3651  154.7969 C   0  0  0  0  0  0  0  0  0  0  0  0
  143.6493  137.5118  155.6823 O   0  0  0  0  0  0  0  0  0  0  0  0
  142.5758  138.5110  153.9308 N   0  0  0  0  0  0  0  0  0  0  0  0
  141.3940  137.7326  153.8553 C   0  0  0  0  0  0  0  0  0  0  0  0
  141.1110  136.4623  154.4379 C   0  0  0  0  0  0  0  0  0  0  0  0
  139.8852  136.0584  154.1350 N   0  0  0  0  0  0  0  0  0  0  0  0
  139.3854  137.0537  153.3684 N   0  0  0  0  0  0  0  0  0  0  0  0
  140.2701  138.0910  153.1727 C   0  0  0  0  0  0  0  0  0  0  0  0
  147.9496  140.9811  156.7791 C   0  0  0  0  0  0  0  0  0  0  0  0
  149.2633  140.9089  157.5784 C   0  0  0  0  0  0  0  0  0  0  0  0
  138.4495  137.0104  152.9909 H   0  0  0  0  0  0  0  0  0  0  0  0
  152.3684  142.1254  157.1527 H   0  0  0  0  0  0  0  0  0  0  0  0
  151.9172  140.5429  157.7951 H   0  0  0  0  0  0  0  0  0  0  0  0
  151.4447  142.0159  158.6482 H   0  0  0  0  0  0  0  0  0  0  0  0
  151.2870  141.6051  155.0304 H   0  0  0  0  0  0  0  0  0  0  0  0
  150.8408  140.0243  155.6323 H   0  0  0  0  0  0  0  0  0  0  0  0
  148.9317  142.1736  154.5949 H   0  0  0  0  0  0  0  0  0  0  0  0
  149.3963  140.6987  153.7754 H   0  0  0  0  0  0  0  0  0  0  0  0
  145.2629  141.5997  153.8119 H   0  0  0  0  0  0  0  0  0  0  0  0
  146.8269  142.3812  153.8486 H   0  0  0  0  0  0  0  0  0  0  0  0
  145.8952  142.1958  155.3299 H   0  0  0  0  0  0  0  0  0  0  0  0
  146.1570  139.4465  152.7461 H   0  0  0  0  0  0  0  0  0  0  0  0
  147.6674  138.7662  153.3308 H   0  0  0  0  0  0  0  0  0  0  0  0
  147.6338  140.3587  152.5855 H   0  0  0  0  0  0  0  0  0  0  0  0
  146.1738  138.4314  155.5416 H   0  0  0  0  0  0  0  0  0  0  0  0
  145.5605  139.8217  156.3502 H   0  0  0  0  0  0  0  0  0  0  0  0
  144.4026  139.9467  153.8370 H   0  0  0  0  0  0  0  0  0  0  0  0
  142.6549  139.2589  153.2577 H   0  0  0  0  0  0  0  0  0  0  0  0
  141.7303  135.8289  155.0555 H   0  0  0  0  0  0  0  0  0  0  0  0
  140.0282  138.9636  152.5838 H   0  0  0  0  0  0  0  0  0  0  0  0
  147.6227  142.0196  156.7227 H   0  0  0  0  0  0  0  0  0  0  0  0
  147.1921  140.4416  157.3442 H   0  0  0  0  0  0  0  0  0  0  0  0
  149.5431  139.8650  157.7296 H   0  0  0  0  0  0  0  0  0  0  0  0
  149.1050  141.3356  158.5694 H   0  0  0  0  0  0  0  0  0  0  0  0
  1  2  1  0  0  0  0
  1 22  1  0  0  0  0
  1 23  1  0  0  0  0
  1 24  1  0  0  0  0
  2 20  1  0  0  0  0
  2  3  1  0  0  0  0
  3  4  1  0  0  0  0
  3 25  1  0  0  0  0
  3 26  1  0  0  0  0
  4  5  1  0  0  0  0
  4 27  1  0  0  0  0
  4 28  1  0  0  0  0
  5  6  1  0  0  0  0
  5 19  1  0  0  0  0
  6  7  1  0  0  0  0
  6  8  1  0  0  0  0
  6  9  1  0  0  0  0
  7 29  1  0  0  0  0
  7 30  1  0  0  0  0
  7 31  1  0  0  0  0
  8 32  1  0  0  0  0
  8 33  1  0  0  0  0
  8 34  1  0  0  0  0
  9 10  1  0  0  0  0
  9 35  1  0  0  0  0
  9 36  1  0  0  0  0
 10 11  1  0  0  0  0
 10 37  1  0  0  0  0
 11 12  2  0  0  0  0
 11 13  1  0  0  0  0
 13 14  1  0  0  0  0
 13 38  1  0  0  0  0
 14 18  2  0  0  0  0
 14 15  1  0  0  0  0
 15 16  2  0  0  0  0
 15 39  1  0  0  0  0
 16 17  1  0  0  0  0
 17 21  1  0  0  0  0
 17 18  1  0  0  0  0
 18 40  1  0  0  0  0
 19 20  1  0  0  0  0
 19 41  1  0  0  0  0
 19 42  1  0  0  0  0
 20 43  1  0  0  0  0
 20 44  1  0  0  0  0
M  END
> <s_m_source_file>
AV-unprocessed.smi

> <i_m_source_file_index>
1736

> <i_lp_mmshare_version>
43012

> <i_f3d_flags>
0

> <s_epik_input>
W0NIM11OMVtDSDJdW0NIMl1OKFtDSDJdW0NIMl0xKUMoW0NIM10pKFtDSDNdKVtDSDJdW05IXUMoPU8pW05IXWMyW2NIXW5bbkhdW2NIXTI=

> <s_epik_cmdline>
J2VwaWtfcHl0aG9uJywgJy1waCcsICc3LjAnLCAnLXRuJywgJzgnLCAnLW1hJywgJzIwMCcsICctbWV0YWxfYmluZGluZycsICctaW1hZScsICc8aW5maWxlLm1hZT4nLCAnLW9tYWUnLCAnPG91dGZpbGUubWFlPic=

> <r_lp_tautomer_probability>
0.5

> <r_epik_Ionization_Penalty>
3.08539

> <r_epik_Ionization_Penalty_Charging>
0

> <r_epik_Ionization_Penalty_Neutral>
3.08539

> <r_epik_State_Penalty>
2.1584

> <r_epik_Charging_Adjusted_Penalty>
2.1584

> <i_epik_Tot_Q>
0

> <i_epik_Tot_abs_Q>
0

> <r_epik_Metal_State_Penalty>
2.1584

> <b_epik_Metal_Only>
0

> <s_lp_Force_Field>
OPLS_2005

> <r_lp_Energy>
53.1153

> <b_lp_Chiralities_Consistent>
1

> <s_lp_Variant>
AV-unprocessed.smi:1736-3

> <Gold.Version>
5.8.1

> <Gold.Id.Protein>
6NUR|6NUR_protein|mol2

> <Gold.PLP.Fitness>
35.3619

> <Gold.PLP.PLP>
-25.7502

> <Gold.PLP.part.hbond>
-3.2210

> <Gold.PLP.part.metal>
0.0000

> <Gold.PLP.part.buried>
-4.1012

> <Gold.PLP.part.nonpolar>
-18.9725

> <Gold.PLP.part.repulsive>
0.3477

> <Gold.PLP.ligand.clash>
0.0000

> <Gold.PLP.ligand.torsion>
0.1756

> <Gold.PLP.Chemscore.Hbond>
2.0000

> <Gold.PLP.Chemscore.CHOScore>
1.3058

> <Gold.PLP.Chemscore.Metal>
0.0000

> <Gold.Chemscore.Hbonds>
donor molecule, donor type, donor heavy atom, donor atom, acceptor molecule, acceptor atom, score
      L1  H    10    37       P1 10175  1.00
      L1  H    13    38       P1 10175  1.00
      L1  C    15    39       P1 11000  0.32
      L1  C    18    40       P1 10160  1.00

> <Gold.PLP.Chemscore.Internal.Correction>
0.0456

> <Gold.Rescore>
     Score         DG    S(hbond)    S(metal)    S(lipo)     H(rot)  DE(clash)    DE(int)     intcor
     13.79     -14.99       1.94        0.00      60.71       1.59       0.07       1.14       ----

> <Gold.Chemscore.Fitness>
13.7857

> <Gold.Chemscore.DG>
-14.9883

> <Gold.Chemscore.ZeroCoef>
-5.4800

> <Gold.Chemscore.Hbond>
1.9389

> <Gold.Chemscore.Metal>
0.0000

> <Gold.Chemscore.Lipo>
60.7091

> <Gold.Chemscore.Internal_Hbond>
0.0000

> <Gold.Chemscore.DEClash>
0.0663

> <Gold.Chemscore.DEInternal>
1.1363

> <Gold.Chemscore.Rot>
1.5901

> <Gold.Chemscore.Internal.Correction>
   9.000000E+99

> <Gold.Chemscore.Hbonds>
donor molecule, donor type, donor heavy atom, donor atom, acceptor molecule, acceptor atom, score
      L1  H    10    37       P1 10175  0.96
      L1  H    13    38       P1 10175  0.94

> <Gold.Chemscore.Hbond.Weighted>
-6.4760

> <Gold.Chemscore.Metal.Weighted>
-0.0000

> <Gold.Chemscore.Lipo.Weighted>
-7.1030

> <Gold.Chemscore.Internal_Hbond.Weighted>
0.0000

> <Gold.Chemscore.DEClash.Weighted>
0.0663

> <Gold.Chemscore.DEInternal.Weighted>
1.1363

> <Gold.Chemscore.Rot.Weighted>
4.0706

> <Gold.Chemscore.Internal.Correction.Weighted>
   9.000000E+99

> <Gold.Protein.RotatedTorsions>
[ 6907 6896 6895 6894 ] final   44.27 input  -60.11 | X-H torsion
[ 7974 7965 7964 7962 ] final  -59.00 input  175.53 | X-H torsion
[ 8008 7997 7996 7995 ] final -150.39 input   59.86 | X-H torsion
[ 10167 10162 10161 10158 ] final   31.69 input  -65.29 | X-H torsion
[ 10718 10713 10712 10709 ] final   16.54 input   66.30 | X-H torsion
[ 10763 10752 10751 10750 ] final  -26.58 input  -60.55 | X-H torsion
[ 11005 11000 10999 10996 ] final -150.95 input  -57.11 | X-H torsion

> <Gold.Protein.ActiveResidues>
 VAL166  LYS551  ARG553  GLY616  TRP617  ASP618  TYR619  PRO620  LYS621  CYS622 
 ASP623  PHE694  ASN695  SER759  ASP760  ASP761  ALA762  ILE779  LEU786  VAL792 
 PHE793  MET794  SER795  GLU796  ALA797  LYS798  CYS799  TRP800  GLU811  SER814 

> <Gold.Protein.RotatedAtoms>
  152.2304  134.8327  160.0474 H   0  0  0  0  0  0  0  0  0  0  0  0  # atno 6907 bound_to 6896
  151.9078  133.3548  159.3861 H   0  0  0  0  0  0  0  0  0  0  0  0  # atno 6908 bound_to 6896
  150.7024  134.4688  159.5460 H   0  0  0  0  0  0  0  0  0  0  0  0  # atno 6909 bound_to 6896
  145.8327  140.8469  143.0075 H   0  0  0  0  0  0  0  0  0  0  0  0  # atno 7974 bound_to 7965
  155.6228  140.0683  157.2673 H   0  0  0  0  0  0  0  0  0  0  0  0  # atno 8008 bound_to 7997
  154.4225  140.1781  156.1439 H   0  0  0  0  0  0  0  0  0  0  0  0  # atno 8009 bound_to 7997
  155.9995  140.3337  155.6835 H   0  0  0  0  0  0  0  0  0  0  0  0  # atno 8010 bound_to 7997
  140.4566  144.0969  150.6203 H   0  0  0  0  0  0  0  0  0  0  0  0  # atno 10167 bound_to 10162
  157.0693  130.6341  149.5802 H   0  0  0  0  0  0  0  0  0  0  0  0  # atno 10718 bound_to 10713
  153.7182  135.6946  153.5019 H   0  0  0  0  0  0  0  0  0  0  0  0  # atno 10763 bound_to 10752
  153.2223  135.4365  155.0502 H   0  0  0  0  0  0  0  0  0  0  0  0  # atno 10764 bound_to 10752
  154.8293  135.3463  154.6716 H   0  0  0  0  0  0  0  0  0  0  0  0  # atno 10765 bound_to 10752
  140.7348  134.3581  157.5159 H   0  0  0  0  0  0  0  0  0  0  0  0  # atno 11005 bound_to 11000
  144.6738  140.0695  143.7473 LP  0  0  0  0  0  0  0  0  0  0  0  0  # atno 17320 bound_to 7965
  145.9553  139.2762  143.1187 LP  0  0  0  0  0  0  0  0  0  0  0  0  # atno 17321 bound_to 7965
  140.4144  143.2641  151.9793 LP  0  0  0  0  0  0  0  0  0  0  0  0  # atno 17342 bound_to 10162
  139.4802  144.5887  151.7809 LP  0  0  0  0  0  0  0  0  0  0  0  0  # atno 17343 bound_to 10162
  155.9955  130.5022  150.7461 LP  0  0  0  0  0  0  0  0  0  0  0  0  # atno 17370 bound_to 10713
  157.4891  131.0909  151.0447 LP  0  0  0  0  0  0  0  0  0  0  0  0  # atno 17371 bound_to 10713
  139.8818  134.9042  156.2872 LP  0  0  0  0  0  0  0  0  0  0  0  0  # atno 17394 bound_to 11000
  140.9889  133.7221  156.0784 LP  0  0  0  0  0  0  0  0  0  0  0  0  # atno 17395 bound_to 11000

$$$$
