AV-unprocessed.smi:3031|AV-procd|sdf|11551|dock6
  -GOLD-   2272016513D 1   1.00000     0.00000
 Structure written by MMmdl.
 48 49  0  0  0  0  0  0  0  0  3 V2000
  152.4304  143.0512  158.6474 C   0  0  0  0  0  0  0  0  0  0  0  0
  151.6137  142.1632  157.7532 C   0  0  0  0  0  0  0  0  0  0  0  0
  151.3382  140.7769  157.9201 C   0  0  0  0  0  0  0  0  0  0  0  0
  150.5892  140.2824  156.9485 N   0  0  0  0  0  0  0  0  0  0  0  0
  150.3504  141.3333  156.1329 N   0  0  0  0  0  0  0  0  0  0  0  0
  149.5714  141.1597  154.9153 C   0  0  0  0  0  0  0  0  0  0  0  0
  149.0236  139.7283  154.7327 C   0  0  2  0  0  0  0  0  0  0  0  0
  150.1635  138.7264  154.4922 C   0  0  0  0  0  0  0  0  0  0  0  0
  148.0535  139.6932  153.6154 N   0  3  0  0  0  0  0  0  0  0  0  0
  147.2172  138.4764  153.5527 C   0  0  0  0  0  0  0  0  0  0  0  0
  146.4758  138.3784  152.2067 C   0  0  1  0  0  0  0  0  0  0  0  0
  147.4428  138.3627  151.1763 O   0  0  0  0  0  0  0  0  0  0  0  0
  145.6313  137.0922  152.0788 C   0  0  0  0  0  0  0  0  0  0  0  0
  146.4012  135.8536  152.3669 N   0  3  0  0  0  0  0  0  0  0  0  0
  146.4433  135.4974  153.8075 C   0  0  0  0  0  0  0  0  0  0  0  0
  147.2790  134.2242  154.0244 C   0  0  0  0  0  0  0  0  0  0  0  0
  146.7442  133.1623  153.2448 O   0  0  0  0  0  0  0  0  0  0  0  0
  146.7830  133.4528  151.8537 C   0  0  0  0  0  0  0  0  0  0  0  0
  145.9299  134.6996  151.5638 C   0  0  0  0  0  0  0  0  0  0  0  0
  150.9704  142.4774  156.5895 C   0  0  0  0  0  0  0  0  0  0  0  0
  153.3936  142.6012  158.8886 H   0  0  0  0  0  0  0  0  0  0  0  0
  151.9219  143.2481  159.5912 H   0  0  0  0  0  0  0  0  0  0  0  0
  152.6356  144.0168  158.1845 H   0  0  0  0  0  0  0  0  0  0  0  0
  151.6623  140.1186  158.7129 H   0  0  0  0  0  0  0  0  0  0  0  0
  148.7496  141.8775  154.9274 H   0  0  0  0  0  0  0  0  0  0  0  0
  150.2080  141.4291  154.0715 H   0  0  0  0  0  0  0  0  0  0  0  0
  148.5118  139.4413  155.6528 H   0  0  0  0  0  0  0  0  0  0  0  0
  150.8797  138.7466  155.3142 H   0  0  0  0  0  0  0  0  0  0  0  0
  150.7071  138.9553  153.5750 H   0  0  0  0  0  0  0  0  0  0  0  0
  149.7912  137.7050  154.4123 H   0  0  0  0  0  0  0  0  0  0  0  0
  147.4289  140.4783  153.7338 H   0  0  0  0  0  0  0  0  0  0  0  0
  147.8270  137.5879  153.7212 H   0  0  0  0  0  0  0  0  0  0  0  0
  146.4935  138.5248  154.3671 H   0  0  0  0  0  0  0  0  0  0  0  0
  145.8524  139.2594  152.0562 H   0  0  0  0  0  0  0  0  0  0  0  0
  148.0065  139.1160  151.2734 H   0  0  0  0  0  0  0  0  0  0  0  0
  144.7673  137.1325  152.7444 H   0  0  0  0  0  0  0  0  0  0  0  0
  145.2308  137.0419  151.0647 H   0  0  0  0  0  0  0  0  0  0  0  0
  146.8739  136.3091  154.3925 H   0  0  0  0  0  0  0  0  0  0  0  0
  145.4283  135.3410  154.1759 H   0  0  0  0  0  0  0  0  0  0  0  0
  148.3245  134.3946  153.7620 H   0  0  0  0  0  0  0  0  0  0  0  0
  147.2578  133.9355  155.0754 H   0  0  0  0  0  0  0  0  0  0  0  0
  147.8140  133.6006  151.5280 H   0  0  0  0  0  0  0  0  0  0  0  0
  146.3949  132.5953  151.3034 H   0  0  0  0  0  0  0  0  0  0  0  0
  144.8826  134.4961  151.7933 H   0  0  0  0  0  0  0  0  0  0  0  0
  145.9848  134.9395  150.5011 H   0  0  0  0  0  0  0  0  0  0  0  0
  150.9045  143.4133  156.0537 H   0  0  0  0  0  0  0  0  0  0  0  0
  148.5490  139.8080  152.7425 H   0  0  0  0  0  0  0  0  0  0  0  0
  147.3531  136.0251  152.0762 H   0  0  0  0  0  0  0  0  0  0  0  0
  1  2  1  0  0  0  0
  1 21  1  0  0  0  0
  1 22  1  0  0  0  0
  1 23  1  0  0  0  0
  2 20  2  0  0  0  0
  2  3  1  0  0  0  0
  3  4  2  0  0  0  0
  3 24  1  0  0  0  0
  4  5  1  0  0  0  0
  5  6  1  0  0  0  0
  5 20  1  0  0  0  0
  6  7  1  0  0  0  0
  6 25  1  0  0  0  0
  6 26  1  0  0  0  0
  7  8  1  0  0  0  0
  7  9  1  0  0  0  0
  7 27  1  0  0  0  0
  8 28  1  0  0  0  0
  8 29  1  0  0  0  0
  8 30  1  0  0  0  0
  9 10  1  0  0  0  0
  9 31  1  0  0  0  0
  9 47  1  0  0  0  0
 10 11  1  0  0  0  0
 10 32  1  0  0  0  0
 10 33  1  0  0  0  0
 11 12  1  0  0  0  0
 11 13  1  0  0  0  0
 11 34  1  0  0  0  0
 12 35  1  0  0  0  0
 13 14  1  0  0  0  0
 13 36  1  0  0  0  0
 13 37  1  0  0  0  0
 14 19  1  0  0  0  0
 14 15  1  0  0  0  0
 14 48  1  0  0  0  0
 15 16  1  0  0  0  0
 15 38  1  0  0  0  0
 15 39  1  0  0  0  0
 16 17  1  0  0  0  0
 16 40  1  0  0  0  0
 16 41  1  0  0  0  0
 17 18  1  0  0  0  0
 18 19  1  0  0  0  0
 18 42  1  0  0  0  0
 18 43  1  0  0  0  0
 19 44  1  0  0  0  0
 19 45  1  0  0  0  0
 20 46  1  0  0  0  0
M  CHG  1   9   1
M  CHG  1  14   1
M  END
> <s_m_source_file>
AV-unprocessed.smi

> <i_m_source_file_index>
3031

> <i_lp_mmshare_version>
43012

> <i_f3d_flags>
0

> <s_epik_input>
W0NIM11jMVtjSF1ubihbY0hdMSlbQ0gyXVtDQEhdKFtDSDNdKVtOSF1bQ0gyXVtDQEhdKFtPSF0pW0NIMl1OMltDSDJdW0NIMl1PW0NIMl1bQ0gyXTI=

> <s_epik_cmdline>
J2VwaWtfcHl0aG9uJywgJy1waCcsICc3LjAnLCAnLXRuJywgJzgnLCAnLW1hJywgJzIwMCcsICctbWV0YWxfYmluZGluZycsICctaW1hZScsICc8aW5maWxlLm1hZT4nLCAnLW9tYWUnLCAnPG91dGZpbGUubWFlPic=

> <r_lp_tautomer_probability>
1

> <r_epik_Ionization_Penalty>
1.76542

> <r_epik_Ionization_Penalty_Charging>
1.76348

> <r_epik_Ionization_Penalty_Neutral>
0.00194017

> <r_epik_State_Penalty>
1.49348

> <r_epik_Charging_Adjusted_Penalty>
3.25696

> <i_epik_Tot_Q>
2

> <i_epik_Tot_abs_Q>
2

> <r_epik_Metal_State_Penalty>
1.49349

> <b_epik_Metal_Only>
0

> <s_lp_Force_Field>
OPLS_2005

> <r_lp_Energy>
28.4562

> <b_lp_Chiralities_Consistent>
1

> <s_lp_Variant>
AV-unprocessed.smi:3031-11

> <Gold.Version>
5.8.1

> <Gold.Id.Protein>
6NUR|6NUR_protein|mol2

> <Gold.PLP.Fitness>
53.3436

> <Gold.PLP.PLP>
-37.0625

> <Gold.PLP.part.hbond>
-4.8603

> <Gold.PLP.part.metal>
0.0000

> <Gold.PLP.part.buried>
-0.0781

> <Gold.PLP.part.nonpolar>
-30.3512

> <Gold.PLP.part.repulsive>
0.1998

> <Gold.PLP.ligand.clash>
0.0000

> <Gold.PLP.ligand.torsion>
0.5577

> <Gold.PLP.Chemscore.Hbond>
4.7500

> <Gold.PLP.Chemscore.CHOScore>
1.0000

> <Gold.PLP.Chemscore.Metal>
0.0000

> <Gold.Chemscore.Hbonds>
donor molecule, donor type, donor heavy atom, donor atom, acceptor molecule, acceptor atom, score
      L1  H     9    47       P1  7957  1.00
      L1  H    12    35       P1  7957  1.00
      L1  H    14    48       P1  7948  2.00
      P1  H  7954  7966       L1    12  0.65
      L1  C    20    46       P1  8028  0.95

> <Gold.PLP.Chemscore.Internal.Correction>
0.1465

> <Gold.Rescore>
     Score         DG    S(hbond)    S(metal)    S(lipo)     H(rot)  DE(clash)    DE(int)     intcor
     17.93     -19.01       3.05        0.00      88.66       2.74       0.33       0.76       ----

> <Gold.Chemscore.Fitness>
17.9321

> <Gold.Chemscore.DG>
-19.0145

> <Gold.Chemscore.ZeroCoef>
-5.4800

> <Gold.Chemscore.Hbond>
3.0491

> <Gold.Chemscore.Metal>
0.0000

> <Gold.Chemscore.Lipo>
88.6633

> <Gold.Chemscore.Internal_Hbond>
0.0000

> <Gold.Chemscore.DEClash>
0.3267

> <Gold.Chemscore.DEInternal>
0.7557

> <Gold.Chemscore.Rot>
2.7434

> <Gold.Chemscore.Internal.Correction>
   9.000000E+99

> <Gold.Chemscore.Hbonds>
donor molecule, donor type, donor heavy atom, donor atom, acceptor molecule, acceptor atom, score
      L1  H     9    47       P1  7957  1.00
      L1  H    12    35       P1  7957  0.64
      L1  H    14    48       P1  7948  0.99
      P1  H  7954  7966       L1    12  0.05

> <Gold.Chemscore.Hbond.Weighted>
-10.1840

> <Gold.Chemscore.Metal.Weighted>
-0.0000

> <Gold.Chemscore.Lipo.Weighted>
-10.3736

> <Gold.Chemscore.Internal_Hbond.Weighted>
0.0000

> <Gold.Chemscore.DEClash.Weighted>
0.3267

> <Gold.Chemscore.DEInternal.Weighted>
0.7557

> <Gold.Chemscore.Rot.Weighted>
7.0231

> <Gold.Chemscore.Internal.Correction.Weighted>
   9.000000E+99

> <Gold.Protein.RotatedTorsions>
[ 6907 6896 6895 6894 ] final  -52.47 input  -60.11 | X-H torsion
[ 7974 7965 7964 7962 ] final  -58.93 input  175.53 | X-H torsion
[ 8008 7997 7996 7995 ] final   61.06 input   59.86 | X-H torsion
[ 10167 10162 10161 10158 ] final -148.06 input  -65.29 | X-H torsion
[ 10718 10713 10712 10709 ] final -171.69 input   66.30 | X-H torsion
[ 10763 10752 10751 10750 ] final  172.58 input  -60.55 | X-H torsion
[ 11005 11000 10999 10996 ] final  121.62 input  -57.11 | X-H torsion

> <Gold.Protein.ActiveResidues>
 VAL166  LYS551  ARG553  GLY616  TRP617  ASP618  TYR619  PRO620  LYS621  CYS622 
 ASP623  PHE694  ASN695  SER759  ASP760  ASP761  ALA762  ILE779  LEU786  VAL792 
 PHE793  MET794  SER795  GLU796  ALA797  LYS798  CYS799  TRP800  GLU811  SER814 

> <Gold.Protein.RotatedAtoms>
  150.8515  134.7841  159.7012 H   0  0  0  0  0  0  0  0  0  0  0  0  # atno 6907 bound_to 6896
  152.4578  134.5248  159.9803 H   0  0  0  0  0  0  0  0  0  0  0  0  # atno 6908 bound_to 6896
  151.5368  133.3401  159.2964 H   0  0  0  0  0  0  0  0  0  0  0  0  # atno 6909 bound_to 6896
  145.8335  140.8464  143.0071 H   0  0  0  0  0  0  0  0  0  0  0  0  # atno 7974 bound_to 7965
  155.5923  140.3493  155.4570 H   0  0  0  0  0  0  0  0  0  0  0  0  # atno 8008 bound_to 7997
  156.0291  140.1270  157.0301 H   0  0  0  0  0  0  0  0  0  0  0  0  # atno 8009 bound_to 7997
  154.4345  140.1047  156.6060 H   0  0  0  0  0  0  0  0  0  0  0  0  # atno 8010 bound_to 7997
  139.7565  143.8440  152.2598 H   0  0  0  0  0  0  0  0  0  0  0  0  # atno 10167 bound_to 10162
  156.7446  130.9355  151.3112 H   0  0  0  0  0  0  0  0  0  0  0  0  # atno 10718 bound_to 10713
  154.4281  135.2759  155.1931 H   0  0  0  0  0  0  0  0  0  0  0  0  # atno 10763 bound_to 10752
  154.3848  135.6079  153.5814 H   0  0  0  0  0  0  0  0  0  0  0  0  # atno 10764 bound_to 10752
  152.9835  135.5889  154.4587 H   0  0  0  0  0  0  0  0  0  0  0  0  # atno 10765 bound_to 10752
  139.9233  134.9639  156.7986 H   0  0  0  0  0  0  0  0  0  0  0  0  # atno 11005 bound_to 11000
  144.6738  140.0707  143.7473 LP  0  0  0  0  0  0  0  0  0  0  0  0  # atno 17320 bound_to 7965
  145.9544  139.2756  143.1193 LP  0  0  0  0  0  0  0  0  0  0  0  0  # atno 17321 bound_to 7965
  139.8433  144.7199  150.9303 LP  0  0  0  0  0  0  0  0  0  0  0  0  # atno 17342 bound_to 10162
  140.7803  143.3963  151.1223 LP  0  0  0  0  0  0  0  0  0  0  0  0  # atno 17343 bound_to 10162
  157.6803  130.9134  150.0252 LP  0  0  0  0  0  0  0  0  0  0  0  0  # atno 17370 bound_to 10713
  156.1442  130.3642  149.9536 LP  0  0  0  0  0  0  0  0  0  0  0  0  # atno 17371 bound_to 10713
  140.6408  133.9820  155.7707 LP  0  0  0  0  0  0  0  0  0  0  0  0  # atno 17394 bound_to 11000
  141.0772  134.0117  157.3440 LP  0  0  0  0  0  0  0  0  0  0  0  0  # atno 17395 bound_to 11000

$$$$
