AV-unprocessed.smi:1986|AV-procd|sdf|8053|dock3
  -GOLD-   2272010253D 1   1.00000     0.00000
 Structure written by MMmdl.
 48 49  0  0  0  0  0  0  0  0  2 V2000
  147.1541  141.0073  153.7383 C   0  0  0  0  0  0  0  0  0  0  0  0
  148.2629  139.9389  153.7050 C   0  0  0  0  0  0  0  0  0  0  0  0
  148.0131  138.6137  154.5014 C   0  0  2  0  0  0  0  0  0  0  0  0
  146.7362  137.9342  153.9488 C   0  0  0  0  0  0  0  0  0  0  0  0
  147.7902  138.9564  156.0066 C   0  0  0  0  0  0  0  0  0  0  0  0
  148.6084  140.0891  156.4308 N   0  0  0  0  0  0  0  0  0  0  0  0
  149.5354  140.0863  157.4029 C   0  0  0  0  0  0  0  0  0  0  0  0
  149.7305  139.1235  158.1429 O   0  0  0  0  0  0  0  0  0  0  0  0
  150.4252  141.3338  157.5366 C   0  0  0  0  0  0  0  0  0  0  0  0
  151.5349  141.1865  158.4944 N   0  0  0  0  0  0  0  0  0  0  0  0
  151.4378  142.0084  159.6062 N   0  0  0  0  0  0  0  0  0  0  0  0
  152.3592  141.9843  160.5090 C   0  0  0  0  0  0  0  0  0  0  0  0
  152.2248  142.8173  161.5925 O   0  0  0  0  0  0  0  0  0  0  0  0
  153.5035  141.1077  160.3870 C   0  0  0  0  0  0  0  0  0  0  0  0
  153.5901  140.3101  159.3002 C   0  0  0  0  0  0  0  0  0  0  0  0
  152.5657  140.3170  158.2550 C   0  0  0  0  0  0  0  0  0  0  0  0
  152.6333  139.6237  157.2400 O   0  0  0  0  0  0  0  0  0  0  0  0
  149.2079  137.6938  154.3749 N   0  3  0  0  0  0  0  0  0  0  0  0
  150.5405  138.3516  154.4926 C   0  0  0  0  0  0  0  0  0  0  0  0
  151.6571  137.3738  154.1010 C   0  0  0  0  0  0  0  0  0  0  0  0
  151.6109  136.2512  154.9691 O   0  0  0  0  0  0  0  0  0  0  0  0
  150.3849  135.5452  154.8462 C   0  0  0  0  0  0  0  0  0  0  0  0
  149.1996  136.4584  155.2104 C   0  0  0  0  0  0  0  0  0  0  0  0
  151.8638  142.2806  162.2814 H   0  0  0  0  0  0  0  0  0  0  0  0
  147.4123  141.8355  153.0782 H   0  0  0  0  0  0  0  0  0  0  0  0
  147.0225  141.4308  154.7338 H   0  0  0  0  0  0  0  0  0  0  0  0
  146.1941  140.6174  153.4028 H   0  0  0  0  0  0  0  0  0  0  0  0
  148.4281  139.7039  152.6533 H   0  0  0  0  0  0  0  0  0  0  0  0
  149.1817  140.4109  154.0555 H   0  0  0  0  0  0  0  0  0  0  0  0
  145.8726  138.5958  154.0031 H   0  0  0  0  0  0  0  0  0  0  0  0
  146.4646  137.0433  154.5146 H   0  0  0  0  0  0  0  0  0  0  0  0
  146.8537  137.6423  152.9051 H   0  0  0  0  0  0  0  0  0  0  0  0
  146.7472  139.2095  156.1935 H   0  0  0  0  0  0  0  0  0  0  0  0
  147.9632  138.0935  156.6487 H   0  0  0  0  0  0  0  0  0  0  0  0
  148.5124  140.9363  155.8890 H   0  0  0  0  0  0  0  0  0  0  0  0
  150.8101  141.5776  156.5448 H   0  0  0  0  0  0  0  0  0  0  0  0
  149.8040  142.1834  157.8255 H   0  0  0  0  0  0  0  0  0  0  0  0
  154.2655  141.0964  161.1524 H   0  0  0  0  0  0  0  0  0  0  0  0
  154.4392  139.6506  159.1969 H   0  0  0  0  0  0  0  0  0  0  0  0
  150.6163  139.2314  153.8583 H   0  0  0  0  0  0  0  0  0  0  0  0
  150.7085  138.6840  155.5175 H   0  0  0  0  0  0  0  0  0  0  0  0
  151.5588  137.0603  153.0601 H   0  0  0  0  0  0  0  0  0  0  0  0
  152.6303  137.8552  154.2001 H   0  0  0  0  0  0  0  0  0  0  0  0
  150.2806  135.1589  153.8314 H   0  0  0  0  0  0  0  0  0  0  0  0
  150.4093  134.6813  155.5106 H   0  0  0  0  0  0  0  0  0  0  0  0
  149.2407  136.7246  156.2671 H   0  0  0  0  0  0  0  0  0  0  0  0
  148.2974  135.8692  155.0581 H   0  0  0  0  0  0  0  0  0  0  0  0
  149.1611  137.3562  153.4238 H   0  0  0  0  0  0  0  0  0  0  0  0
  1  2  1  0  0  0  0
  1 25  1  0  0  0  0
  1 26  1  0  0  0  0
  1 27  1  0  0  0  0
  2  3  1  0  0  0  0
  2 28  1  0  0  0  0
  2 29  1  0  0  0  0
  3  4  1  0  0  0  0
  3  5  1  0  0  0  0
  3 18  1  0  0  0  0
  4 30  1  0  0  0  0
  4 31  1  0  0  0  0
  4 32  1  0  0  0  0
  5  6  1  0  0  0  0
  5 33  1  0  0  0  0
  5 34  1  0  0  0  0
  6  7  1  0  0  0  0
  6 35  1  0  0  0  0
  7  8  2  0  0  0  0
  7  9  1  0  0  0  0
  9 36  1  0  0  0  0
  9 37  1  0  0  0  0
  9 10  1  0  0  0  0
 10 11  1  0  0  0  0
 10 16  1  0  0  0  0
 11 12  2  0  0  0  0
 12 13  1  0  0  0  0
 12 14  1  0  0  0  0
 13 24  1  0  0  0  0
 14 38  1  0  0  0  0
 14 15  2  0  0  0  0
 15 39  1  0  0  0  0
 15 16  1  0  0  0  0
 16 17  2  0  0  0  0
 18 23  1  0  0  0  0
 18 19  1  0  0  0  0
 18 48  1  0  0  0  0
 19 20  1  0  0  0  0
 19 40  1  0  0  0  0
 19 41  1  0  0  0  0
 20 21  1  0  0  0  0
 20 42  1  0  0  0  0
 20 43  1  0  0  0  0
 21 22  1  0  0  0  0
 22 23  1  0  0  0  0
 22 44  1  0  0  0  0
 22 45  1  0  0  0  0
 23 46  1  0  0  0  0
 23 47  1  0  0  0  0
M  CHG  1  18   1
M  END
> <s_m_source_file>
AV-unprocessed.smi

> <i_m_source_file_index>
1986

> <i_lp_mmshare_version>
43012

> <i_f3d_flags>
0

> <s_epik_input>
W0NIMl0xW0NIMl1PW0NIMl1bQ0gyXU4xW0NAQF0oW0NIM10pKFtDSDJdW0NIM10pW0NIMl1bTkhdQyg9TylbQ0gyXW4yW25IXWMoPU8pW2NIXVtjSF1jMj1P

> <s_epik_cmdline>
J2VwaWtfcHl0aG9uJywgJy1waCcsICc3LjAnLCAnLXRuJywgJzgnLCAnLW1hJywgJzIwMCcsICctbWV0YWxfYmluZGluZycsICctaW1hZScsICc8aW5maWxlLm1hZT4nLCAnLW9tYWUnLCAnPG91dGZpbGUubWFlPic=

> <r_lp_tautomer_probability>
0.9996

> <r_epik_Ionization_Penalty>
2.73198

> <r_epik_Ionization_Penalty_Charging>
0.519658

> <r_epik_Ionization_Penalty_Neutral>
2.21233

> <r_epik_State_Penalty>
2.2852

> <r_epik_Charging_Adjusted_Penalty>
2.80486

> <i_epik_Tot_Q>
1

> <i_epik_Tot_abs_Q>
1

> <r_epik_Metal_State_Penalty>
2.2852

> <b_epik_Metal_Only>
0

> <s_lp_Force_Field>
OPLS_2005

> <r_lp_Energy>
41.4304

> <b_lp_Chiralities_Consistent>
1

> <s_lp_Variant>
AV-unprocessed.smi:1986-8

> <Gold.Version>
5.8.1

> <Gold.Id.Protein>
6NUR|6NUR_protein|mol2

> <Gold.PLP.Fitness>
44.2973

> <Gold.PLP.PLP>
-33.6933

> <Gold.PLP.part.hbond>
-4.4312

> <Gold.PLP.part.metal>
0.0000

> <Gold.PLP.part.buried>
-2.7038

> <Gold.PLP.part.nonpolar>
-27.0163

> <Gold.PLP.part.repulsive>
0.1355

> <Gold.PLP.ligand.clash>
0.0000

> <Gold.PLP.ligand.torsion>
0.7767

> <Gold.PLP.Chemscore.Hbond>
3.9825

> <Gold.PLP.Chemscore.CHOScore>
0.0000

> <Gold.PLP.Chemscore.Metal>
0.0000

> <Gold.Chemscore.Hbonds>
donor molecule, donor type, donor heavy atom, donor atom, acceptor molecule, acceptor atom, score
      L1  H    18    48       P1  7948  2.00
      P1  H  7997  8010       L1    17  1.00
      P1  H 10752 10763       L1    21  1.00

> <Gold.PLP.Chemscore.Internal.Correction>
0.2098

> <Gold.Rescore>
     Score         DG    S(hbond)    S(metal)    S(lipo)     H(rot)  DE(clash)    DE(int)     intcor
     12.53     -13.62       2.48        0.00      67.64       3.15       0.28       0.81       ----

> <Gold.Chemscore.Fitness>
12.5266

> <Gold.Chemscore.DG>
-13.6206

> <Gold.Chemscore.ZeroCoef>
-5.4800

> <Gold.Chemscore.Hbond>
2.4812

> <Gold.Chemscore.Metal>
0.0000

> <Gold.Chemscore.Lipo>
67.6362

> <Gold.Chemscore.Internal_Hbond>
0.0000

> <Gold.Chemscore.DEClash>
0.2845

> <Gold.Chemscore.DEInternal>
0.8094

> <Gold.Chemscore.Rot>
3.1485

> <Gold.Chemscore.Internal.Correction>
   9.000000E+99

> <Gold.Chemscore.Hbonds>
donor molecule, donor type, donor heavy atom, donor atom, acceptor molecule, acceptor atom, score
      L1  H    18    48       P1  7948  0.99
      P1  H  7997  8010       L1    17  0.35
      P1  H 10752 10763       L1    21  0.47

> <Gold.Chemscore.Hbond.Weighted>
-8.2872

> <Gold.Chemscore.Metal.Weighted>
-0.0000

> <Gold.Chemscore.Lipo.Weighted>
-7.9134

> <Gold.Chemscore.Internal_Hbond.Weighted>
0.0000

> <Gold.Chemscore.DEClash.Weighted>
0.2845

> <Gold.Chemscore.DEInternal.Weighted>
0.8094

> <Gold.Chemscore.Rot.Weighted>
8.0601

> <Gold.Chemscore.Internal.Correction.Weighted>
   9.000000E+99

> <Gold.Protein.RotatedTorsions>
[ 6907 6896 6895 6894 ] final  -25.50 input  -60.11 | X-H torsion
[ 7974 7965 7964 7962 ] final -130.75 input  175.53 | X-H torsion
[ 8008 7997 7996 7995 ] final   66.41 input   59.86 | X-H torsion
[ 10167 10162 10161 10158 ] final -118.16 input  -65.29 | X-H torsion
[ 10718 10713 10712 10709 ] final  -61.47 input   66.30 | X-H torsion
[ 10763 10752 10751 10750 ] final   73.61 input  -60.55 | X-H torsion
[ 11005 11000 10999 10996 ] final -151.95 input  -57.11 | X-H torsion

> <Gold.Protein.ActiveResidues>
 VAL166  LYS551  ARG553  GLY616  TRP617  ASP618  TYR619  PRO620  LYS621  CYS622 
 ASP623  PHE694  ASN695  SER759  ASP760  ASP761  ALA762  ILE779  LEU786  VAL792 
 PHE793  MET794  SER795  GLU796  ALA797  LYS798  CYS799  TRP800  GLU811  SER814 

> <Gold.Protein.RotatedAtoms>
  151.1743  135.0332  159.8764 H   0  0  0  0  0  0  0  0  0  0  0  0  # atno 6907 bound_to 6896
  152.5447  134.1135  159.8379 H   0  0  0  0  0  0  0  0  0  0  0  0  # atno 6908 bound_to 6896
  151.1245  133.5034  159.2633 H   0  0  0  0  0  0  0  0  0  0  0  0  # atno 6909 bound_to 6896
  144.9445  140.7276  143.4826 H   0  0  0  0  0  0  0  0  0  0  0  0  # atno 7974 bound_to 7965
  155.6769  140.3497  155.4840 H   0  0  0  0  0  0  0  0  0  0  0  0  # atno 8008 bound_to 7997
  155.9640  140.1143  157.0894 H   0  0  0  0  0  0  0  0  0  0  0  0  # atno 8009 bound_to 7997
  154.4150  140.1170  156.5203 H   0  0  0  0  0  0  0  0  0  0  0  0  # atno 8010 bound_to 7997
  140.0605  143.4973  152.2034 H   0  0  0  0  0  0  0  0  0  0  0  0  # atno 10167 bound_to 10162
  156.0919  130.4199  150.0999 H   0  0  0  0  0  0  0  0  0  0  0  0  # atno 10718 bound_to 10713
  153.0532  135.5056  154.7919 H   0  0  0  0  0  0  0  0  0  0  0  0  # atno 10763 bound_to 10752
  154.6764  135.2961  154.9675 H   0  0  0  0  0  0  0  0  0  0  0  0  # atno 10764 bound_to 10752
  154.0475  135.6708  153.4849 H   0  0  0  0  0  0  0  0  0  0  0  0  # atno 10765 bound_to 10752
  140.7241  134.3694  157.5178 H   0  0  0  0  0  0  0  0  0  0  0  0  # atno 11005 bound_to 11000
  145.2939  139.1874  143.4725 LP  0  0  0  0  0  0  0  0  0  0  0  0  # atno 17320 bound_to 7965
  146.3298  140.2920  142.8616 LP  0  0  0  0  0  0  0  0  0  0  0  0  # atno 17321 bound_to 7965
  139.5897  144.7545  151.3432 LP  0  0  0  0  0  0  0  0  0  0  0  0  # atno 17342 bound_to 10162
  140.7174  143.7229  150.7682 LP  0  0  0  0  0  0  0  0  0  0  0  0  # atno 17343 bound_to 10162
  156.9007  130.9619  151.3576 LP  0  0  0  0  0  0  0  0  0  0  0  0  # atno 17370 bound_to 10713
  157.6071  130.8555  149.8892 LP  0  0  0  0  0  0  0  0  0  0  0  0  # atno 17371 bound_to 10713
  139.8841  134.8975  156.2724 LP  0  0  0  0  0  0  0  0  0  0  0  0  # atno 17394 bound_to 11000
  140.9978  133.7170  156.0913 LP  0  0  0  0  0  0  0  0  0  0  0  0  # atno 17395 bound_to 11000

$$$$
