AV-unprocessed.smi:55|AV-procd|sdf|570|dock3
  -GOLD-   2262016473D 1   1.00000     0.00000
 Structure written by MMmdl.
 30 31  0  0  0  0  0  0  0  0  2 V2000
  151.2178  144.8098  158.5708 C   0  0  0  0  0  0  0  0  0  0  0  0
  151.2324  143.2979  158.7129 C   0  0  0  0  0  0  0  0  0  0  0  0
  150.5973  142.4851  157.8399 C   0  0  0  0  0  0  0  0  0  0  0  0
  150.6106  141.1082  157.9742 N   0  0  0  0  0  0  0  0  0  0  0  0
  149.8801  140.2366  156.9778 C   0  0  1  0  0  0  0  0  0  0  0  0
  149.3040  141.0800  155.8381 C   0  0  0  0  0  0  0  0  0  0  0  0
  149.5398  140.1785  154.6441 C   0  0  1  0  0  0  0  0  0  0  0  0
  149.6211  140.9330  153.4523 O   0  0  0  0  0  0  0  0  0  0  0  0
  150.8698  139.5126  155.0099 C   0  0  2  0  0  0  0  0  0  0  0  0
  151.1187  138.1548  154.3351 C   0  0  0  0  0  0  0  0  0  0  0  0
  152.2049  137.4878  154.9426 O   0  0  0  0  0  0  0  0  0  0  0  0
  150.7834  139.3255  156.4207 O   0  0  0  0  0  0  0  0  0  0  0  0
  151.2883  140.5169  159.0728 C   0  0  0  0  0  0  0  0  0  0  0  0
  151.2525  139.2919  159.1903 O   0  0  0  0  0  0  0  0  0  0  0  0
  151.9399  141.3287  159.9538 N   0  5  0  0  0  0  0  0  0  0  0  0
  151.9547  142.6875  159.8354 C   0  0  0  0  0  0  0  0  0  0  0  0
  152.5497  143.4074  160.6367 O   0  0  0  0  0  0  0  0  0  0  0  0
  149.1280  139.6628  157.5199 H   0  0  0  0  0  0  0  0  0  0  0  0
  148.7422  139.4379  154.5711 H   0  0  0  0  0  0  0  0  0  0  0  0
  151.7005  140.1936  154.8164 H   0  0  0  0  0  0  0  0  0  0  0  0
  150.6480  145.1199  157.6945 H   0  0  0  0  0  0  0  0  0  0  0  0
  152.2334  145.1924  158.4661 H   0  0  0  0  0  0  0  0  0  0  0  0
  150.7647  145.2708  159.4492 H   0  0  0  0  0  0  0  0  0  0  0  0
  150.0590  142.9281  157.0160 H   0  0  0  0  0  0  0  0  0  0  0  0
  148.2552  141.3209  156.0137 H   0  0  0  0  0  0  0  0  0  0  0  0
  149.8716  142.0076  155.7424 H   0  0  0  0  0  0  0  0  0  0  0  0
  149.5943  140.3356  152.7201 H   0  0  0  0  0  0  0  0  0  0  0  0
  150.2348  137.5240  154.4318 H   0  0  0  0  0  0  0  0  0  0  0  0
  151.3117  138.2770  153.2690 H   0  0  0  0  0  0  0  0  0  0  0  0
  152.7065  138.1192  155.4358 H   0  0  0  0  0  0  0  0  0  0  0  0
  1  2  1  0  0  0  0
  1 21  1  0  0  0  0
  1 22  1  0  0  0  0
  1 23  1  0  0  0  0
  2 16  1  0  0  0  0
  2  3  2  0  0  0  0
  3  4  1  0  0  0  0
  3 24  1  0  0  0  0
  4  5  1  0  0  0  0
  4 13  1  0  0  0  0
  5 18  1  0  0  0  0
  5 12  1  0  0  0  0
  5  6  1  0  0  0  0
  6  7  1  0  0  0  0
  6 25  1  0  0  0  0
  6 26  1  0  0  0  0
  7 19  1  0  0  0  0
  7  8  1  0  0  0  0
  7  9  1  0  0  0  0
  8 27  1  0  0  0  0
  9 20  1  0  0  0  0
  9 10  1  0  0  0  0
  9 12  1  0  0  0  0
 10 11  1  0  0  0  0
 10 28  1  0  0  0  0
 10 29  1  0  0  0  0
 11 30  1  0  0  0  0
 13 14  2  0  0  0  0
 13 15  1  0  0  0  0
 15 16  1  0  0  0  0
 16 17  2  0  0  0  0
M  CHG  1  15  -1
M  END
> <s_m_source_file>
AV-unprocessed.smi

> <i_m_source_file_index>
55

> <i_lp_mmshare_version>
43012

> <i_f3d_flags>
0

> <s_epik_input>
Tz1jMVtuSF1jKD1PKW4oW2NIXWMxW0NIM10pW0NAQEhdMltDSDJdW0NAQEhdKFtPSF0pW0NAQEhdKE8yKVtDSDJdW09IXQ==

> <s_epik_cmdline>
J2VwaWtfcHl0aG9uJywgJy1waCcsICc3LjAnLCAnLXRuJywgJzgnLCAnLW1hJywgJzIwMCcsICctbWV0YWxfYmluZGluZycsICctaW1hZScsICc8aW5maWxlLm1hZT4nLCAnLW9tYWUnLCAnPG91dGZpbGUubWFlPic=

> <r_lp_tautomer_probability>
0.999537

> <r_epik_Ionization_Penalty>
3.66603

> <r_epik_Ionization_Penalty_Charging>
1.09773e-07

> <r_epik_Ionization_Penalty_Neutral>
3.66603

> <r_epik_State_Penalty>
3.66562

> <r_epik_Charging_Adjusted_Penalty>
3.66562

> <i_epik_Tot_Q>
-1

> <i_epik_Tot_abs_Q>
1

> <r_epik_Metal_State_Penalty>
0.234536

> <b_epik_Metal_Only>
1

> <s_epik_Chemistry_Notes>
This compound contains an acetal/aminal-like group ( X-CH(R)-Y where X, Y are N, S, or O) that may be acid/base labile, releasing an aldehyde.

> <s_lp_Force_Field>
OPLS_2005

> <r_lp_Energy>
34.2111

> <b_lp_Chiralities_Consistent>
1

> <s_lp_Variant>
AV-unprocessed.smi:55-10

> <Gold.Version>
5.8.1

> <Gold.Id.Protein>
6NUR|6NUR_protein|mol2

> <Gold.PLP.Fitness>
44.7739

> <Gold.PLP.PLP>
-33.0875

> <Gold.PLP.part.hbond>
-3.3862

> <Gold.PLP.part.metal>
0.0000

> <Gold.PLP.part.buried>
-4.9251

> <Gold.PLP.part.nonpolar>
-25.1345

> <Gold.PLP.part.repulsive>
0.0000

> <Gold.PLP.ligand.clash>
0.0000

> <Gold.PLP.ligand.torsion>
0.0903

> <Gold.PLP.Chemscore.Hbond>
2.9528

> <Gold.PLP.Chemscore.CHOScore>
1.0000

> <Gold.PLP.Chemscore.Metal>
0.0000

> <Gold.Chemscore.Hbonds>
donor molecule, donor type, donor heavy atom, donor atom, acceptor molecule, acceptor atom, score
      L1  H     8    27       P1  7957  1.00
      P1  H  7989  7998       L1     8  0.10
      P1  H  8011  8017       L1     8  0.60
      P1  H 10752 10765       L1    11  0.73
      L1  C     3    24       P1  8028  1.00

> <Gold.PLP.Chemscore.Internal.Correction>
0.0086

> <Gold.Rescore>
     Score         DG    S(hbond)    S(metal)    S(lipo)     H(rot)  DE(clash)    DE(int)     intcor
      9.69     -11.81       1.84        0.00      60.40       2.69       0.22       1.90       ----

> <Gold.Chemscore.Fitness>
9.6907

> <Gold.Chemscore.DG>
-11.8131

> <Gold.Chemscore.ZeroCoef>
-5.4800

> <Gold.Chemscore.Hbond>
1.8400

> <Gold.Chemscore.Metal>
0.0000

> <Gold.Chemscore.Lipo>
60.3973

> <Gold.Chemscore.Internal_Hbond>
0.0000

> <Gold.Chemscore.DEClash>
0.2224

> <Gold.Chemscore.DEInternal>
1.9001

> <Gold.Chemscore.Rot>
2.6871

> <Gold.Chemscore.Internal.Correction>
   9.000000E+99

> <Gold.Chemscore.Hbonds>
donor molecule, donor type, donor heavy atom, donor atom, acceptor molecule, acceptor atom, score
      L1  H     8    27       P1  7957  0.93
      P1  H  8011  8017       L1     8  0.04
      P1  H 10752 10765       L1    11  0.69

> <Gold.Chemscore.Hbond.Weighted>
-6.1457

> <Gold.Chemscore.Metal.Weighted>
-0.0000

> <Gold.Chemscore.Lipo.Weighted>
-7.0665

> <Gold.Chemscore.Internal_Hbond.Weighted>
0.0000

> <Gold.Chemscore.DEClash.Weighted>
0.2224

> <Gold.Chemscore.DEInternal.Weighted>
1.9001

> <Gold.Chemscore.Rot.Weighted>
6.8791

> <Gold.Chemscore.Internal.Correction.Weighted>
   9.000000E+99

> <Gold.Protein.RotatedTorsions>
[ 6907 6896 6895 6894 ] final  -98.40 input  -60.11 | X-H torsion
[ 7974 7965 7964 7962 ] final  138.01 input  175.53 | X-H torsion
[ 8008 7997 7996 7995 ] final -141.96 input   59.86 | X-H torsion
[ 10167 10162 10161 10158 ] final   76.15 input  -65.29 | X-H torsion
[ 10718 10713 10712 10709 ] final -170.26 input   66.30 | X-H torsion
[ 10763 10752 10751 10750 ] final  173.77 input  -60.55 | X-H torsion
[ 11005 11000 10999 10996 ] final   22.58 input  -57.11 | X-H torsion

> <Gold.Protein.ActiveResidues>
 VAL166  LYS551  ARG553  GLY616  TRP617  ASP618  TYR619  PRO620  LYS621  CYS622 
 ASP623  PHE694  ASN695  SER759  ASP760  ASP761  ALA762  ILE779  LEU786  VAL792 
 PHE793  MET794  SER795  GLU796  ALA797  LYS798  CYS799  TRP800  GLU811  SER814 

> <Gold.Protein.RotatedAtoms>
  150.7045  134.1200  159.4031 H   0  0  0  0  0  0  0  0  0  0  0  0  # atno 6907 bound_to 6896
  151.9187  135.0305  160.0529 H   0  0  0  0  0  0  0  0  0  0  0  0  # atno 6908 bound_to 6896
  152.2275  133.4996  159.5233 H   0  0  0  0  0  0  0  0  0  0  0  0  # atno 6909 bound_to 6896
  144.9413  139.4928  143.5570 H   0  0  0  0  0  0  0  0  0  0  0  0  # atno 7974 bound_to 7965
  155.4863  140.0564  157.2960 H   0  0  0  0  0  0  0  0  0  0  0  0  # atno 8008 bound_to 7997
  154.4640  140.2010  156.0118 H   0  0  0  0  0  0  0  0  0  0  0  0  # atno 8009 bound_to 7997
  156.0942  140.3229  155.7860 H   0  0  0  0  0  0  0  0  0  0  0  0  # atno 8010 bound_to 7997
  139.9953  144.5727  150.7783 H   0  0  0  0  0  0  0  0  0  0  0  0  # atno 10167 bound_to 10162
  156.7236  130.9279  151.3099 H   0  0  0  0  0  0  0  0  0  0  0  0  # atno 10718 bound_to 10713
  154.4447  135.2763  155.1823 H   0  0  0  0  0  0  0  0  0  0  0  0  # atno 10763 bound_to 10752
  154.3675  135.6116  153.5726 H   0  0  0  0  0  0  0  0  0  0  0  0  # atno 10764 bound_to 10752
  152.9843  135.5849  154.4781 H   0  0  0  0  0  0  0  0  0  0  0  0  # atno 10765 bound_to 10752
  140.3790  134.1941  155.7664 H   0  0  0  0  0  0  0  0  0  0  0  0  # atno 11005 bound_to 11000
  146.3286  139.8434  142.8886 LP  0  0  0  0  0  0  0  0  0  0  0  0  # atno 17320 bound_to 7965
  145.2987  141.0188  143.3621 LP  0  0  0  0  0  0  0  0  0  0  0  0  # atno 17321 bound_to 7965
  140.7439  143.2853  151.3480 LP  0  0  0  0  0  0  0  0  0  0  0  0  # atno 17342 bound_to 10162
  139.6311  144.0720  152.2476 LP  0  0  0  0  0  0  0  0  0  0  0  0  # atno 17343 bound_to 10162
  157.6888  130.9212  150.0457 LP  0  0  0  0  0  0  0  0  0  0  0  0  # atno 17370 bound_to 10713
  156.1577  130.3643  149.9344 LP  0  0  0  0  0  0  0  0  0  0  0  0  # atno 17371 bound_to 10713
  141.1930  133.8161  157.0818 LP  0  0  0  0  0  0  0  0  0  0  0  0  # atno 17394 bound_to 11000
  140.0493  134.9814  157.1107 LP  0  0  0  0  0  0  0  0  0  0  0  0  # atno 17395 bound_to 11000

$$$$
