AV-unprocessed.smi:447|AV-procd|sdf|2600|dock2
  -GOLD-   2262022593D 1   1.00000     0.00000
 Structure written by MMmdl.
 45 47  0  0  0  0  0  0  0  0  1 V2000
  150.8511  134.2990  156.0163 C   0  0  0  0  0  0  0  0  0  0  0  0
  151.1470  135.7228  156.4742 C   0  0  0  0  0  0  0  0  0  0  0  0
  151.1581  135.9943  157.6745 O   0  0  0  0  0  0  0  0  0  0  0  0
  151.3838  136.6187  155.5041 N   0  0  0  0  0  0  0  0  0  0  0  0
  151.6614  138.0398  155.7048 C   0  0  1  0  0  0  0  0  0  0  0  0
  153.0026  138.4266  155.0656 C   0  0  0  0  0  0  0  0  0  0  0  0
  150.5083  138.8233  155.1295 C   0  0  0  0  0  0  0  0  0  0  0  0
  149.5440  138.2402  154.4105 N   0  0  0  0  0  0  0  0  0  0  0  0
  148.7144  139.2958  154.0902 C   0  0  0  0  0  0  0  0  0  0  0  0
  147.5121  139.3274  153.3478 C   0  0  0  0  0  0  0  0  0  0  0  0
  146.8282  140.5448  153.1484 C   0  0  0  0  0  0  0  0  0  0  0  0
  147.3355  141.7449  153.6876 C   0  0  0  0  0  0  0  0  0  0  0  0
  148.5320  141.7346  154.4300 C   0  0  0  0  0  0  0  0  0  0  0  0
  149.2109  140.5167  154.6253 C   0  0  0  0  0  0  0  0  0  0  0  0
  150.3833  140.1682  155.2879 N   0  0  0  0  0  0  0  0  0  0  0  0
  151.2585  141.0948  155.9952 C   0  0  0  0  0  0  0  0  0  0  0  0
  151.0748  141.0350  157.5257 C   0  0  1  0  0  0  0  0  0  0  0  0
  151.7354  139.9044  158.0616 O   0  0  0  0  0  0  0  0  0  0  0  0
  151.5276  142.3278  158.1855 C   0  0  0  0  0  0  0  0  0  0  0  0
  151.0640  143.5694  157.6995 C   0  0  0  0  0  0  0  0  0  0  0  0
  151.4855  144.7703  158.3030 C   0  0  0  0  0  0  0  0  0  0  0  0
  152.3752  144.7364  159.3940 C   0  0  0  0  0  0  0  0  0  0  0  0
  152.8444  143.5012  159.8807 C   0  0  0  0  0  0  0  0  0  0  0  0
  152.4228  142.3000  159.2780 C   0  0  0  0  0  0  0  0  0  0  0  0
  149.9169  134.2675  155.4553 H   0  0  0  0  0  0  0  0  0  0  0  0
  150.7590  133.6282  156.8711 H   0  0  0  0  0  0  0  0  0  0  0  0
  151.6524  133.9281  155.3768 H   0  0  0  0  0  0  0  0  0  0  0  0
  151.3475  136.3010  154.5461 H   0  0  0  0  0  0  0  0  0  0  0  0
  151.7285  138.2274  156.7750 H   0  0  0  0  0  0  0  0  0  0  0  0
  153.2158  139.4849  155.2199 H   0  0  0  0  0  0  0  0  0  0  0  0
  153.0011  138.2401  153.9911 H   0  0  0  0  0  0  0  0  0  0  0  0
  153.8240  137.8577  155.5022 H   0  0  0  0  0  0  0  0  0  0  0  0
  147.1155  138.4134  152.9313 H   0  0  0  0  0  0  0  0  0  0  0  0
  145.9101  140.5582  152.5794 H   0  0  0  0  0  0  0  0  0  0  0  0
  146.8056  142.6731  153.5308 H   0  0  0  0  0  0  0  0  0  0  0  0
  148.9232  142.6519  154.8445 H   0  0  0  0  0  0  0  0  0  0  0  0
  152.2943  140.9127  155.7111 H   0  0  0  0  0  0  0  0  0  0  0  0
  151.0360  142.1024  155.6417 H   0  0  0  0  0  0  0  0  0  0  0  0
  150.0141  140.8971  157.7403 H   0  0  0  0  0  0  0  0  0  0  0  0
  152.6458  140.1228  158.1908 H   0  0  0  0  0  0  0  0  0  0  0  0
  150.3838  143.6060  156.8611 H   0  0  0  0  0  0  0  0  0  0  0  0
  151.1272  145.7181  157.9285 H   0  0  0  0  0  0  0  0  0  0  0  0
  152.6992  145.6573  159.8562 H   0  0  0  0  0  0  0  0  0  0  0  0
  153.5286  143.4746  160.7160 H   0  0  0  0  0  0  0  0  0  0  0  0
  152.7907  141.3568  159.6556 H   0  0  0  0  0  0  0  0  0  0  0  0
  1  2  1  0  0  0  0
  1 25  1  0  0  0  0
  1 26  1  0  0  0  0
  1 27  1  0  0  0  0
  2  3  2  0  0  0  0
  2  4  1  0  0  0  0
  4  5  1  0  0  0  0
  4 28  1  0  0  0  0
  5  6  1  0  0  0  0
  5  7  1  0  0  0  0
  5 29  1  0  0  0  0
  6 30  1  0  0  0  0
  6 31  1  0  0  0  0
  6 32  1  0  0  0  0
  7 15  1  0  0  0  0
  7  8  2  0  0  0  0
  8  9  1  0  0  0  0
  9 14  2  0  0  0  0
  9 10  1  0  0  0  0
 10 11  2  0  0  0  0
 10 33  1  0  0  0  0
 11 12  1  0  0  0  0
 11 34  1  0  0  0  0
 12 13  2  0  0  0  0
 12 35  1  0  0  0  0
 13 14  1  0  0  0  0
 13 36  1  0  0  0  0
 14 15  1  0  0  0  0
 15 16  1  0  0  0  0
 16 17  1  0  0  0  0
 16 37  1  0  0  0  0
 16 38  1  0  0  0  0
 17 18  1  0  0  0  0
 17 19  1  0  0  0  0
 17 39  1  0  0  0  0
 18 40  1  0  0  0  0
 19 24  1  0  0  0  0
 19 20  2  0  0  0  0
 20 21  1  0  0  0  0
 20 41  1  0  0  0  0
 21 22  2  0  0  0  0
 21 42  1  0  0  0  0
 22 23  1  0  0  0  0
 22 43  1  0  0  0  0
 23 24  2  0  0  0  0
 23 44  1  0  0  0  0
 24 45  1  0  0  0  0
M  END
> <s_m_source_file>
AV-unprocessed.smi

> <i_m_source_file_index>
447

> <i_lp_mmshare_version>
43012

> <i_f3d_flags>
0

> <s_epik_input>
W0NIM11DKD1PKVtOSF1bQ0BIXShbQ0gzXSljKG4xKW4oYyhjMTIpW2NIXVtjSF1bY0hdW2NIXTIpW0NIMl1bQ0BIXShbT0hdKWMzW2NIXVtjSF1bY0hdW2NIXVtjSF0z

> <s_epik_cmdline>
J2VwaWtfcHl0aG9uJywgJy1waCcsICc3LjAnLCAnLXRuJywgJzgnLCAnLW1hJywgJzIwMCcsICctbWV0YWxfYmluZGluZycsICctaW1hZScsICc8aW5maWxlLm1hZT4nLCAnLW9tYWUnLCAnPG91dGZpbGUubWFlPic=

> <r_epik_Ionization_Penalty>
0.13301

> <r_epik_Ionization_Penalty_Charging>
0

> <r_epik_Ionization_Penalty_Neutral>
0.13301

> <r_epik_State_Penalty>
0.122384

> <r_epik_Charging_Adjusted_Penalty>
0.122384

> <i_epik_Tot_Q>
0

> <i_epik_Tot_abs_Q>
0

> <r_epik_Metal_State_Penalty>
0.0997374

> <b_epik_Metal_Only>
0

> <s_lp_Force_Field>
OPLS_2005

> <r_lp_Energy>
8.36794

> <b_lp_Chiralities_Consistent>
1

> <s_lp_Variant>
AV-unprocessed.smi:447-4

> <Gold.Version>
5.8.1

> <Gold.Id.Protein>
6NUR|6NUR_protein|mol2

> <Gold.PLP.Fitness>
49.6835

> <Gold.PLP.PLP>
-50.6228

> <Gold.PLP.part.hbond>
-1.0000

> <Gold.PLP.part.metal>
0.0000

> <Gold.PLP.part.buried>
-3.0374

> <Gold.PLP.part.nonpolar>
-46.4696

> <Gold.PLP.part.repulsive>
0.8860

> <Gold.PLP.ligand.clash>
0.0000

> <Gold.PLP.ligand.torsion>
0.6775

> <Gold.PLP.Chemscore.Hbond>
0.1076

> <Gold.PLP.Chemscore.CHOScore>
0.0000

> <Gold.PLP.Chemscore.Metal>
0.0000

> <Gold.Chemscore.Hbonds>
donor molecule, donor type, donor heavy atom, donor atom, acceptor molecule, acceptor atom, score
      P1  H  6896  6907       L1     3  0.11

> <Gold.PLP.Chemscore.Internal.Correction>
0.0928

> <Gold.Rescore>
     Score         DG    S(hbond)    S(metal)    S(lipo)     H(rot)  DE(clash)    DE(int)     intcor
     16.94     -17.79       0.50        0.00     142.30       2.35       0.07       0.78       ----

> <Gold.Chemscore.Fitness>
16.9423

> <Gold.Chemscore.DG>
-17.7921

> <Gold.Chemscore.ZeroCoef>
-5.4800

> <Gold.Chemscore.Hbond>
0.5047

> <Gold.Chemscore.Metal>
0.0000

> <Gold.Chemscore.Lipo>
142.3042

> <Gold.Chemscore.Internal_Hbond>
0.0000

> <Gold.Chemscore.DEClash>
0.0682

> <Gold.Chemscore.DEInternal>
0.7816

> <Gold.Chemscore.Rot>
2.3528

> <Gold.Chemscore.Internal.Correction>
   9.000000E+99

> <Gold.Chemscore.Hbonds>
donor molecule, donor type, donor heavy atom, donor atom, acceptor molecule, acceptor atom, score
      P1  H  6896  6907       L1     3  0.11

> <Gold.Chemscore.Hbond.Weighted>
-1.6856

> <Gold.Chemscore.Metal.Weighted>
-0.0000

> <Gold.Chemscore.Lipo.Weighted>
-16.6496

> <Gold.Chemscore.Internal_Hbond.Weighted>
0.0000

> <Gold.Chemscore.DEClash.Weighted>
0.0682

> <Gold.Chemscore.DEInternal.Weighted>
0.7816

> <Gold.Chemscore.Rot.Weighted>
6.0231

> <Gold.Chemscore.Internal.Correction.Weighted>
   9.000000E+99

> <Gold.Protein.RotatedTorsions>
[ 6907 6896 6895 6894 ] final  -53.73 input  -60.11 | X-H torsion
[ 7974 7965 7964 7962 ] final  -77.33 input  175.53 | X-H torsion
[ 8008 7997 7996 7995 ] final  -66.96 input   59.86 | X-H torsion
[ 10167 10162 10161 10158 ] final  -56.23 input  -65.29 | X-H torsion
[ 10718 10713 10712 10709 ] final  -57.45 input   66.30 | X-H torsion
[ 10763 10752 10751 10750 ] final -143.54 input  -60.55 | X-H torsion
[ 11005 11000 10999 10996 ] final   71.26 input  -57.11 | X-H torsion

> <Gold.Protein.ActiveResidues>
 VAL166  LYS551  ARG553  GLY616  TRP617  ASP618  TYR619  PRO620  LYS621  CYS622 
 ASP623  PHE694  ASN695  SER759  ASP760  ASP761  ALA762  ILE779  LEU786  VAL792 
 PHE793  MET794  SER795  GLU796  ALA797  LYS798  CYS799  TRP800  GLU811  SER814 

> <Gold.Protein.RotatedAtoms>
  150.8400  134.7688  159.6924 H   0  0  0  0  0  0  0  0  0  0  0  0  # atno 6907 bound_to 6896
  152.4489  134.5432  159.9855 H   0  0  0  0  0  0  0  0  0  0  0  0  # atno 6908 bound_to 6896
  151.5574  133.3370  159.3000 H   0  0  0  0  0  0  0  0  0  0  0  0  # atno 6909 bound_to 6896
  145.6012  140.9408  143.1240 H   0  0  0  0  0  0  0  0  0  0  0  0  # atno 7974 bound_to 7965
  154.4768  140.0902  156.7282 H   0  0  0  0  0  0  0  0  0  0  0  0  # atno 8008 bound_to 7997
  155.4575  140.3460  155.4290 H   0  0  0  0  0  0  0  0  0  0  0  0  # atno 8009 bound_to 7997
  156.1129  140.1453  156.9301 H   0  0  0  0  0  0  0  0  0  0  0  0  # atno 8010 bound_to 7997
  140.6329  143.2468  151.5193 H   0  0  0  0  0  0  0  0  0  0  0  0  # atno 10167 bound_to 10162
  156.1210  130.4166  150.0442 H   0  0  0  0  0  0  0  0  0  0  0  0  # atno 10718 bound_to 10713
  154.8466  135.3465  154.6203 H   0  0  0  0  0  0  0  0  0  0  0  0  # atno 10763 bound_to 10752
  153.6812  135.6980  153.5122 H   0  0  0  0  0  0  0  0  0  0  0  0  # atno 10764 bound_to 10752
  153.2667  135.4306  155.0903 H   0  0  0  0  0  0  0  0  0  0  0  0  # atno 10765 bound_to 10752
  139.9553  134.7155  156.0767 H   0  0  0  0  0  0  0  0  0  0  0  0  # atno 11005 bound_to 11000
  144.7309  139.7728  143.7347 LP  0  0  0  0  0  0  0  0  0  0  0  0  # atno 17320 bound_to 7965
  146.1575  139.4678  143.0009 LP  0  0  0  0  0  0  0  0  0  0  0  0  # atno 17321 bound_to 7965
  139.5542  144.2318  152.1583 LP  0  0  0  0  0  0  0  0  0  0  0  0  # atno 17342 bound_to 10162
  140.1567  144.5064  150.6656 LP  0  0  0  0  0  0  0  0  0  0  0  0  # atno 17343 bound_to 10162
  156.8380  130.9416  151.3633 LP  0  0  0  0  0  0  0  0  0  0  0  0  # atno 17370 bound_to 10713
  157.6393  130.8792  149.9418 LP  0  0  0  0  0  0  0  0  0  0  0  0  # atno 17371 bound_to 10713
  141.1223  133.6609  156.3247 LP  0  0  0  0  0  0  0  0  0  0  0  0  # atno 17394 bound_to 11000
  140.5623  134.5922  157.5437 LP  0  0  0  0  0  0  0  0  0  0  0  0  # atno 17395 bound_to 11000

$$$$
