AV-unprocessed.smi:1240|AV-procd|sdf|5196|dock5
  -GOLD-   22720 4283D 1   1.00000     0.00000
 Structure written by MMmdl.
 47 49  0  0  0  0  0  0  0  0  1 V2000
  145.2318  134.8103  154.0799 O   0  0  0  0  0  0  0  0  0  0  0  0
  146.2412  135.0067  153.4038 C   0  0  0  0  0  0  0  0  0  0  0  0
  147.2374  135.8211  153.7801 N   0  0  0  0  0  0  0  0  0  0  0  0
  147.2863  136.5900  155.0210 C   0  0  0  0  0  0  0  0  0  0  0  0
  148.7428  136.7628  155.5292 C   0  0  1  0  0  0  0  0  0  0  0  0
  149.5562  137.7802  154.6684 C   0  0  2  0  0  0  0  0  0  0  0  0
  151.0644  137.5372  154.5546 C   0  0  0  0  0  0  0  0  0  0  0  0
  151.6828  138.8899  154.9043 C   0  0  0  0  0  0  0  0  0  0  0  0
  150.6680  139.8259  154.5816 O   0  0  0  0  0  0  0  0  0  0  0  0
  149.4392  139.2722  155.0242 C   0  0  0  0  0  0  0  0  0  0  0  0
  148.8760  136.9245  156.9921 N   0  0  0  0  0  0  0  0  0  0  0  0
  150.2545  137.1399  157.4278 C   0  0  0  0  0  0  0  0  0  0  0  0
  150.3363  137.4505  158.9311 C   0  0  0  0  0  0  0  0  0  0  0  0
  149.7377  136.3870  159.6638 O   0  0  0  0  0  0  0  0  0  0  0  0
  148.3745  136.1790  159.3102 C   0  0  0  0  0  0  0  0  0  0  0  0
  148.2582  135.8787  157.8052 C   0  0  0  0  0  0  0  0  0  0  0  0
  146.4908  134.4662  152.1984 N   0  0  0  0  0  0  0  0  0  0  0  0
  145.7029  133.5525  151.4459 C   0  0  0  0  0  0  0  0  0  0  0  0
  144.3213  133.4990  151.7243 C   0  0  0  0  0  0  0  0  0  0  0  0
  143.5117  132.6144  150.9844 C   0  0  0  0  0  0  0  0  0  0  0  0
  143.9884  131.8130  150.0089 N   0  0  0  0  0  0  0  0  0  0  0  0
  145.3085  131.8737  149.7347 C   0  0  0  0  0  0  0  0  0  0  0  0
  146.2051  132.7227  150.4141 C   0  0  0  0  0  0  0  0  0  0  0  0
  148.0248  135.9232  153.1567 H   0  0  0  0  0  0  0  0  0  0  0  0
  146.8115  137.5644  154.9005 H   0  0  0  0  0  0  0  0  0  0  0  0
  146.6806  136.0451  155.7433 H   0  0  0  0  0  0  0  0  0  0  0  0
  149.2297  135.8110  155.3106 H   0  0  0  0  0  0  0  0  0  0  0  0
  149.1717  137.6981  153.6504 H   0  0  0  0  0  0  0  0  0  0  0  0
  151.4508  136.7472  155.1975 H   0  0  0  0  0  0  0  0  0  0  0  0
  151.3162  137.2652  153.5287 H   0  0  0  0  0  0  0  0  0  0  0  0
  151.9041  138.9503  155.9709 H   0  0  0  0  0  0  0  0  0  0  0  0
  152.6024  139.0869  154.3532 H   0  0  0  0  0  0  0  0  0  0  0  0
  148.5996  139.7542  154.5234 H   0  0  0  0  0  0  0  0  0  0  0  0
  149.3264  139.4509  156.0915 H   0  0  0  0  0  0  0  0  0  0  0  0
  150.8584  136.2554  157.2274 H   0  0  0  0  0  0  0  0  0  0  0  0
  150.6999  137.9613  156.8658 H   0  0  0  0  0  0  0  0  0  0  0  0
  151.3762  137.5564  159.2409 H   0  0  0  0  0  0  0  0  0  0  0  0
  149.8344  138.3915  159.1617 H   0  0  0  0  0  0  0  0  0  0  0  0
  147.9773  135.3484  159.8936 H   0  0  0  0  0  0  0  0  0  0  0  0
  147.7881  137.0616  159.5709 H   0  0  0  0  0  0  0  0  0  0  0  0
  147.2007  135.7915  157.5714 H   0  0  0  0  0  0  0  0  0  0  0  0
  148.7195  134.9137  157.5930 H   0  0  0  0  0  0  0  0  0  0  0  0
  147.3319  134.7839  151.7398 H   0  0  0  0  0  0  0  0  0  0  0  0
  143.8850  134.1196  152.4937 H   0  0  0  0  0  0  0  0  0  0  0  0
  142.4517  132.5507  151.1809 H   0  0  0  0  0  0  0  0  0  0  0  0
  145.6619  131.2292  148.9434 H   0  0  0  0  0  0  0  0  0  0  0  0
  147.2437  132.7252  150.1227 H   0  0  0  0  0  0  0  0  0  0  0  0
  1  2  2  0  0  0  0
  2  3  1  0  0  0  0
  2 17  1  0  0  0  0
  3  4  1  0  0  0  0
  3 24  1  0  0  0  0
  4  5  1  0  0  0  0
  4 25  1  0  0  0  0
  4 26  1  0  0  0  0
  5  6  1  0  0  0  0
  5 11  1  0  0  0  0
  5 27  1  0  0  0  0
  6 10  1  0  0  0  0
  6  7  1  0  0  0  0
  6 28  1  0  0  0  0
  7  8  1  0  0  0  0
  7 29  1  0  0  0  0
  7 30  1  0  0  0  0
  8  9  1  0  0  0  0
  8 31  1  0  0  0  0
  8 32  1  0  0  0  0
  9 10  1  0  0  0  0
 10 33  1  0  0  0  0
 10 34  1  0  0  0  0
 11 16  1  0  0  0  0
 11 12  1  0  0  0  0
 12 13  1  0  0  0  0
 12 35  1  0  0  0  0
 12 36  1  0  0  0  0
 13 14  1  0  0  0  0
 13 37  1  0  0  0  0
 13 38  1  0  0  0  0
 14 15  1  0  0  0  0
 15 16  1  0  0  0  0
 15 39  1  0  0  0  0
 15 40  1  0  0  0  0
 16 41  1  0  0  0  0
 16 42  1  0  0  0  0
 17 18  1  0  0  0  0
 17 43  1  0  0  0  0
 18 23  1  0  0  0  0
 18 19  2  0  0  0  0
 19 20  1  0  0  0  0
 19 44  1  0  0  0  0
 20 21  2  0  0  0  0
 20 45  1  0  0  0  0
 21 22  1  0  0  0  0
 22 23  2  0  0  0  0
 22 46  1  0  0  0  0
 23 47  1  0  0  0  0
M  END
> <s_m_source_file>
AV-unprocessed.smi

> <i_m_source_file_index>
1240

> <i_lp_mmshare_version>
43012

> <i_f3d_flags>
0

> <s_epik_input>
W2NIXTFbY0hdbltjSF1bY0hdYzFbTkhdQyg9TylbTkhdW0NIMl1bQ0BIXShbQ0BASF0yW0NIMl1bQ0gyXU9bQ0gyXTIpTjNbQ0gyXVtDSDJdT1tDSDJdW0NIMl0z

> <s_epik_cmdline>
J2VwaWtfcHl0aG9uJywgJy1waCcsICc3LjAnLCAnLXRuJywgJzgnLCAnLW1hJywgJzIwMCcsICctbWV0YWxfYmluZGluZycsICctaW1hZScsICc8aW5maWxlLm1hZT4nLCAnLW9tYWUnLCAnPG91dGZpbGUubWFlPic=

> <r_epik_Ionization_Penalty>
0.238664

> <r_epik_Ionization_Penalty_Charging>
0

> <r_epik_Ionization_Penalty_Neutral>
0.238664

> <r_epik_State_Penalty>
0.217087

> <r_epik_Charging_Adjusted_Penalty>
0.217087

> <i_epik_Tot_Q>
0

> <i_epik_Tot_abs_Q>
0

> <r_epik_Metal_State_Penalty>
0.199194

> <b_epik_Metal_Only>
0

> <s_lp_Force_Field>
OPLS_2005

> <r_lp_Energy>
59.2824

> <b_lp_Chiralities_Consistent>
1

> <s_lp_Variant>
AV-unprocessed.smi:1240-2

> <Gold.Version>
5.8.1

> <Gold.Id.Protein>
6NUR|6NUR_protein|mol2

> <Gold.PLP.Fitness>
46.6941

> <Gold.PLP.PLP>
-33.6850

> <Gold.PLP.part.hbond>
-4.5349

> <Gold.PLP.part.metal>
0.0000

> <Gold.PLP.part.buried>
-5.6457

> <Gold.PLP.part.nonpolar>
-24.7637

> <Gold.PLP.part.repulsive>
0.3587

> <Gold.PLP.ligand.clash>
0.0000

> <Gold.PLP.ligand.torsion>
1.0126

> <Gold.PLP.Chemscore.Hbond>
4.1131

> <Gold.PLP.Chemscore.CHOScore>
0.7739

> <Gold.PLP.Chemscore.Metal>
0.0000

> <Gold.Chemscore.Hbonds>
donor molecule, donor type, donor heavy atom, donor atom, acceptor molecule, acceptor atom, score
      L1  H     3    24       P1  7948  1.00
      L1  H    17    43       P1  7948  0.70
      P1  H  6896  6907       L1    14  1.00
      P1  H  7989  7998       L1     9  0.90
      P1  H 10785 10796       L1    21  0.37
      L1  C    20    45       P1 10186  0.11

> <Gold.PLP.Chemscore.Internal.Correction>
0.3734

> <Gold.Rescore>
     Score         DG    S(hbond)    S(metal)    S(lipo)     H(rot)  DE(clash)    DE(int)     intcor
     20.36     -22.96       3.67        0.00      80.76       1.65       0.02       2.59       ----

> <Gold.Chemscore.Fitness>
20.3596

> <Gold.Chemscore.DG>
-22.9641

> <Gold.Chemscore.ZeroCoef>
-5.4800

> <Gold.Chemscore.Hbond>
3.6711

> <Gold.Chemscore.Metal>
0.0000

> <Gold.Chemscore.Lipo>
80.7579

> <Gold.Chemscore.Internal_Hbond>
0.0000

> <Gold.Chemscore.DEClash>
0.0180

> <Gold.Chemscore.DEInternal>
2.5865

> <Gold.Chemscore.Rot>
1.6508

> <Gold.Chemscore.Internal.Correction>
   9.000000E+99

> <Gold.Chemscore.Hbonds>
donor molecule, donor type, donor heavy atom, donor atom, acceptor molecule, acceptor atom, score
      L1  H     3    24       P1  7948  0.99
      L1  H    17    43       P1  7948  0.46
      P1  H  6896  6907       L1    14  0.75
      P1  H  7989  7998       L1     9  0.18
      P1  H 10785 10796       L1    21  0.19

> <Gold.Chemscore.Hbond.Weighted>
-12.2616

> <Gold.Chemscore.Metal.Weighted>
-0.0000

> <Gold.Chemscore.Lipo.Weighted>
-9.4487

> <Gold.Chemscore.Internal_Hbond.Weighted>
0.0000

> <Gold.Chemscore.DEClash.Weighted>
0.0180

> <Gold.Chemscore.DEInternal.Weighted>
2.5865

> <Gold.Chemscore.Rot.Weighted>
4.2262

> <Gold.Chemscore.Internal.Correction.Weighted>
   9.000000E+99

> <Gold.Protein.RotatedTorsions>
[ 6907 6896 6895 6894 ] final  -48.26 input  -60.11 | X-H torsion
[ 7974 7965 7964 7962 ] final   92.64 input  175.53 | X-H torsion
[ 8008 7997 7996 7995 ] final -156.00 input   59.86 | X-H torsion
[ 10167 10162 10161 10158 ] final   60.14 input  -65.29 | X-H torsion
[ 10718 10713 10712 10709 ] final   31.08 input   66.30 | X-H torsion
[ 10763 10752 10751 10750 ] final   14.40 input  -60.55 | X-H torsion
[ 11005 11000 10999 10996 ] final  -88.53 input  -57.11 | X-H torsion

> <Gold.Protein.ActiveResidues>
 VAL166  LYS551  ARG553  GLY616  TRP617  ASP618  TYR619  PRO620  LYS621  CYS622 
 ASP623  PHE694  ASN695  SER759  ASP760  ASP761  ALA762  ILE779  LEU786  VAL792 
 PHE793  MET794  SER795  GLU796  ALA797  LYS798  CYS799  TRP800  GLU811  SER814 

> <Gold.Protein.RotatedAtoms>
  150.8924  134.8329  159.7302 H   0  0  0  0  0  0  0  0  0  0  0  0  # atno 6907 bound_to 6896
  152.4845  134.4628  159.9620 H   0  0  0  0  0  0  0  0  0  0  0  0  # atno 6908 bound_to 6896
  151.4689  133.3535  159.2856 H   0  0  0  0  0  0  0  0  0  0  0  0  # atno 6909 bound_to 6896
  145.4895  139.2277  143.2837 H   0  0  0  0  0  0  0  0  0  0  0  0  # atno 7974 bound_to 7965
  155.7105  140.0777  157.2373 H   0  0  0  0  0  0  0  0  0  0  0  0  # atno 8008 bound_to 7997
  154.4059  140.1631  156.2344 H   0  0  0  0  0  0  0  0  0  0  0  0  # atno 8009 bound_to 7997
  155.9287  140.3393  155.6234 H   0  0  0  0  0  0  0  0  0  0  0  0  # atno 8010 bound_to 7997
  140.1688  144.4297  150.6671 H   0  0  0  0  0  0  0  0  0  0  0  0  # atno 10167 bound_to 10162
  157.2678  130.7193  149.6488 H   0  0  0  0  0  0  0  0  0  0  0  0  # atno 10718 bound_to 10713
  153.1626  135.6798  153.8721 H   0  0  0  0  0  0  0  0  0  0  0  0  # atno 10763 bound_to 10752
  153.8111  135.3143  155.3402 H   0  0  0  0  0  0  0  0  0  0  0  0  # atno 10764 bound_to 10752
  154.7943  135.4816  154.0214 H   0  0  0  0  0  0  0  0  0  0  0  0  # atno 10765 bound_to 10752
  141.1600  133.7575  156.9465 H   0  0  0  0  0  0  0  0  0  0  0  0  # atno 11005 bound_to 11000
  146.2292  140.5688  142.8983 LP  0  0  0  0  0  0  0  0  0  0  0  0  # atno 17320 bound_to 7965
  144.7842  140.5902  143.6585 LP  0  0  0  0  0  0  0  0  0  0  0  0  # atno 17321 bound_to 7965
  140.6595  143.2248  151.5889 LP  0  0  0  0  0  0  0  0  0  0  0  0  # atno 17342 bound_to 10162
  139.5347  144.2815  152.1226 LP  0  0  0  0  0  0  0  0  0  0  0  0  # atno 17343 bound_to 10162
  155.9663  130.4377  150.5186 LP  0  0  0  0  0  0  0  0  0  0  0  0  # atno 17370 bound_to 10713
  157.3104  131.0662  151.2005 LP  0  0  0  0  0  0  0  0  0  0  0  0  # atno 17371 bound_to 10713
  140.1286  134.9370  157.2305 LP  0  0  0  0  0  0  0  0  0  0  0  0  # atno 17394 bound_to 11000
  140.2981  134.3163  155.7297 LP  0  0  0  0  0  0  0  0  0  0  0  0  # atno 17395 bound_to 11000

$$$$
