AV-unprocessed.smi:2724|AV-procd|sdf|10511|dock4
  -GOLD-   2272014553D 1   1.00000     0.00000
 Structure written by MMmdl.
 26 27  0  0  0  0  0  0  0  0  2 V2000
  151.8543  145.3756  160.6652 O   0  0  0  0  0  0  0  0  0  0  0  0
  151.9774  144.0061  160.9881 C   0  0  2  0  0  0  0  0  0  0  0  0
  152.6549  143.8165  162.3442 C   0  0  0  0  0  0  0  0  0  0  0  0
  153.1749  142.3805  162.2988 C   0  0  0  0  0  0  0  0  0  0  0  0
  153.5237  142.1110  160.8278 C   0  0  0  0  0  0  0  0  0  0  0  0
  152.8951  143.2566  160.0077 C   0  0  1  0  0  0  0  0  0  0  0  0
  152.1939  142.7846  158.7402 C   0  0  0  0  0  0  0  0  0  0  0  0
  152.1478  141.4144  158.3917 C   0  0  0  0  0  0  0  0  0  0  0  0
  151.4836  141.0192  157.2121 C   0  0  0  0  0  0  0  0  0  0  0  0
  150.8784  142.0021  156.4033 C   0  0  0  0  0  0  0  0  0  0  0  0
  150.9430  143.3021  156.7648 N   0  3  0  0  0  0  0  0  0  0  0  0
  151.5696  143.7207  157.8864 C   0  0  0  0  0  0  0  0  0  0  0  0
  151.3159  145.4576  159.8929 H   0  0  0  0  0  0  0  0  0  0  0  0
  150.9876  143.5496  161.0262 H   0  0  0  0  0  0  0  0  0  0  0  0
  153.4979  144.5027  162.4430 H   0  0  0  0  0  0  0  0  0  0  0  0
  151.9807  143.9948  163.1826 H   0  0  0  0  0  0  0  0  0  0  0  0
  154.0256  142.2275  162.9636 H   0  0  0  0  0  0  0  0  0  0  0  0
  152.3842  141.6989  162.6157 H   0  0  0  0  0  0  0  0  0  0  0  0
  154.6033  142.0853  160.6753 H   0  0  0  0  0  0  0  0  0  0  0  0
  153.1413  141.1317  160.5377 H   0  0  0  0  0  0  0  0  0  0  0  0
  153.7080  143.9286  159.7245 H   0  0  0  0  0  0  0  0  0  0  0  0
  152.6169  140.6709  159.0197 H   0  0  0  0  0  0  0  0  0  0  0  0
  151.4388  139.9768  156.9323 H   0  0  0  0  0  0  0  0  0  0  0  0
  150.3493  141.7899  155.4857 H   0  0  0  0  0  0  0  0  0  0  0  0
  151.5512  144.7861  158.0648 H   0  0  0  0  0  0  0  0  0  0  0  0
  150.4993  143.9983  156.1649 H   0  0  0  0  0  0  0  0  0  0  0  0
  1  2  1  0  0  0  0
  1 13  1  0  0  0  0
  2  6  1  0  0  0  0
  2  3  1  0  0  0  0
  2 14  1  0  0  0  0
  3  4  1  0  0  0  0
  3 15  1  0  0  0  0
  3 16  1  0  0  0  0
  4  5  1  0  0  0  0
  4 17  1  0  0  0  0
  4 18  1  0  0  0  0
  5  6  1  0  0  0  0
  5 19  1  0  0  0  0
  5 20  1  0  0  0  0
  6  7  1  0  0  0  0
  6 21  1  0  0  0  0
  7 12  1  0  0  0  0
  7  8  2  0  0  0  0
  8  9  1  0  0  0  0
  8 22  1  0  0  0  0
  9 10  2  0  0  0  0
  9 23  1  0  0  0  0
 10 11  1  0  0  0  0
 10 24  1  0  0  0  0
 11 12  2  0  0  0  0
 11 26  1  0  0  0  0
 12 25  1  0  0  0  0
M  CHG  1  11   1
M  END
> <s_m_source_file>
AV-unprocessed.smi

> <i_m_source_file_index>
2724

> <i_lp_mmshare_version>
43012

> <i_f3d_flags>
0

> <s_epik_input>
W09IXVtDQEBIXTFbQ0gyXVtDSDJdW0NIMl1bQ0BIXTFjMltjSF1bY0hdW2NIXW5bY0hdMg==

> <s_epik_cmdline>
J2VwaWtfcHl0aG9uJywgJy1waCcsICc3LjAnLCAnLXRuJywgJzgnLCAnLW1hJywgJzIwMCcsICctbWV0YWxfYmluZGluZycsICctaW1hZScsICc8aW5maWxlLm1hZT4nLCAnLW9tYWUnLCAnPG91dGZpbGUubWFlPic=

> <r_epik_Ionization_Penalty>
2.09455

> <r_epik_Ionization_Penalty_Charging>
2.09455

> <r_epik_Ionization_Penalty_Neutral>
5.26757e-08

> <r_epik_State_Penalty>
2.23025

> <r_epik_Charging_Adjusted_Penalty>
4.3248

> <i_epik_Tot_Q>
1

> <i_epik_Tot_abs_Q>
1

> <r_epik_Metal_State_Penalty>
6.30911

> <b_epik_Metal_Only>
0

> <s_lp_Force_Field>
OPLS_2005

> <r_lp_Energy>
27.5674

> <b_lp_Chiralities_Consistent>
1

> <s_lp_Variant>
AV-unprocessed.smi:2724-5

> <Gold.Version>
5.8.1

> <Gold.Id.Protein>
6NUR|6NUR_protein|mol2

> <Gold.PLP.Fitness>
41.6143

> <Gold.PLP.PLP>
-35.6630

> <Gold.PLP.part.hbond>
-1.9766

> <Gold.PLP.part.metal>
0.0000

> <Gold.PLP.part.buried>
-4.5817

> <Gold.PLP.part.nonpolar>
-29.9370

> <Gold.PLP.part.repulsive>
0.0371

> <Gold.PLP.ligand.clash>
0.0000

> <Gold.PLP.ligand.torsion>
0.0007

> <Gold.PLP.Chemscore.Hbond>
1.9840

> <Gold.PLP.Chemscore.CHOScore>
0.0000

> <Gold.PLP.Chemscore.Metal>
0.0000

> <Gold.Chemscore.Hbonds>
donor molecule, donor type, donor heavy atom, donor atom, acceptor molecule, acceptor atom, score
      L1  H    11    26       P1  8028  1.82

> <Gold.PLP.Chemscore.Internal.Correction>
0.0007

> <Gold.Rescore>
     Score         DG    S(hbond)    S(metal)    S(lipo)     H(rot)  DE(clash)    DE(int)     intcor
     16.46     -16.55       1.00        0.00      95.59       1.35       0.09       0.00       ----

> <Gold.Chemscore.Fitness>
16.4597

> <Gold.Chemscore.DG>
-16.5490

> <Gold.Chemscore.ZeroCoef>
-5.4800

> <Gold.Chemscore.Hbond>
1.0000

> <Gold.Chemscore.Metal>
0.0000

> <Gold.Chemscore.Lipo>
95.5896

> <Gold.Chemscore.Internal_Hbond>
0.0000

> <Gold.Chemscore.DEClash>
0.0869

> <Gold.Chemscore.DEInternal>
0.0023

> <Gold.Chemscore.Rot>
1.3496

> <Gold.Chemscore.Internal.Correction>
   9.000000E+99

> <Gold.Chemscore.Hbonds>
donor molecule, donor type, donor heavy atom, donor atom, acceptor molecule, acceptor atom, score
      L1  H    11    26       P1  8028  0.88

> <Gold.Chemscore.Hbond.Weighted>
-3.3400

> <Gold.Chemscore.Metal.Weighted>
-0.0000

> <Gold.Chemscore.Lipo.Weighted>
-11.1840

> <Gold.Chemscore.Internal_Hbond.Weighted>
0.0000

> <Gold.Chemscore.DEClash.Weighted>
0.0869

> <Gold.Chemscore.DEInternal.Weighted>
0.0023

> <Gold.Chemscore.Rot.Weighted>
3.4550

> <Gold.Chemscore.Internal.Correction.Weighted>
   9.000000E+99

> <Gold.Protein.RotatedTorsions>
[ 6907 6896 6895 6894 ] final   -4.01 input  -60.11 | X-H torsion
[ 7974 7965 7964 7962 ] final -112.41 input  175.53 | X-H torsion
[ 8008 7997 7996 7995 ] final  -12.43 input   59.86 | X-H torsion
[ 10167 10162 10161 10158 ] final -110.89 input  -65.29 | X-H torsion
[ 10718 10713 10712 10709 ] final  -89.93 input   66.30 | X-H torsion
[ 10763 10752 10751 10750 ] final  -42.62 input  -60.55 | X-H torsion
[ 11005 11000 10999 10996 ] final -124.13 input  -57.11 | X-H torsion

> <Gold.Protein.ActiveResidues>
 VAL166  LYS551  ARG553  GLY616  TRP617  ASP618  TYR619  PRO620  LYS621  CYS622 
 ASP623  PHE694  ASN695  SER759  ASP760  ASP761  ALA762  ILE779  LEU786  VAL792 
 PHE793  MET794  SER795  GLU796  ALA797  LYS798  CYS799  TRP800  GLU811  SER814 

> <Gold.Protein.RotatedAtoms>
  151.5046  135.1063  159.9837 H   0  0  0  0  0  0  0  0  0  0  0  0  # atno 6907 bound_to 6896
  152.4687  133.7977  159.6947 H   0  0  0  0  0  0  0  0  0  0  0  0  # atno 6908 bound_to 6896
  150.8685  133.7477  159.2994 H   0  0  0  0  0  0  0  0  0  0  0  0  # atno 6909 bound_to 6896
  145.1443  140.8795  143.3683 H   0  0  0  0  0  0  0  0  0  0  0  0  # atno 7974 bound_to 7965
  154.5378  140.2276  155.8693 H   0  0  0  0  0  0  0  0  0  0  0  0  # atno 8008 bound_to 7997
  156.1829  140.3096  155.9145 H   0  0  0  0  0  0  0  0  0  0  0  0  # atno 8009 bound_to 7997
  155.3319  140.0446  157.3033 H   0  0  0  0  0  0  0  0  0  0  0  0  # atno 8010 bound_to 7997
  140.1396  143.4291  152.1571 H   0  0  0  0  0  0  0  0  0  0  0  0  # atno 10167 bound_to 10162
  155.9986  130.4891  150.5246 H   0  0  0  0  0  0  0  0  0  0  0  0  # atno 10718 bound_to 10713
  153.9820  135.6716  153.4750 H   0  0  0  0  0  0  0  0  0  0  0  0  # atno 10763 bound_to 10752
  153.0744  135.4957  154.8369 H   0  0  0  0  0  0  0  0  0  0  0  0  # atno 10764 bound_to 10752
  154.7159  135.3107  154.9086 H   0  0  0  0  0  0  0  0  0  0  0  0  # atno 10765 bound_to 10752
  140.9865  134.0599  157.3704 H   0  0  0  0  0  0  0  0  0  0  0  0  # atno 11005 bound_to 11000
  145.0498  139.3191  143.5934 LP  0  0  0  0  0  0  0  0  0  0  0  0  # atno 17320 bound_to 7965
  146.3502  139.9902  142.8686 LP  0  0  0  0  0  0  0  0  0  0  0  0  # atno 17321 bound_to 7965
  139.5479  144.7313  151.4527 LP  0  0  0  0  0  0  0  0  0  0  0  0  # atno 17342 bound_to 10162
  140.6768  143.8171  150.7069 LP  0  0  0  0  0  0  0  0  0  0  0  0  # atno 17343 bound_to 10162
  157.3203  131.0680  151.1936 LP  0  0  0  0  0  0  0  0  0  0  0  0  # atno 17370 bound_to 10713
  157.2852  130.6769  149.6086 LP  0  0  0  0  0  0  0  0  0  0  0  0  # atno 17371 bound_to 10713
  139.8973  135.0149  156.7093 LP  0  0  0  0  0  0  0  0  0  0  0  0  # atno 17394 bound_to 11000
  140.7106  133.9227  155.8082 LP  0  0  0  0  0  0  0  0  0  0  0  0  # atno 17395 bound_to 11000

$$$$
