AV-unprocessed.smi:2416|AV-procd|sdf|9545|dock2
  -GOLD-   2272013173D 1   1.00000     0.00000
 Structure written by MMmdl.
 40 41  0  0  0  0  0  0  0  0  1 V2000
  146.7831  138.9867  151.8016 C   0  0  0  0  0  0  0  0  0  0  0  0
  147.6316  139.0581  152.9407 O   0  0  0  0  0  0  0  0  0  0  0  0
  147.1196  139.7247  154.1033 C   0  0  2  0  0  0  0  0  0  0  0  0
  145.7029  139.2327  154.4251 C   0  0  0  0  0  0  0  0  0  0  0  0
  147.3911  141.2390  154.0117 C   0  0  0  0  0  0  0  0  0  0  0  0
  148.7912  140.9443  154.5463 C   0  0  1  0  0  0  0  0  0  0  0  0
  149.2736  141.9701  155.4656 N   0  0  0  0  0  0  0  0  0  0  0  0
  150.0285  141.7208  156.5446 C   0  0  0  0  0  0  0  0  0  0  0  0
  150.3864  140.5893  156.8730 O   0  0  0  0  0  0  0  0  0  0  0  0
  150.3302  142.8543  157.2030 N   0  0  0  0  0  0  0  0  0  0  0  0
  151.1082  143.0032  158.3825 C   0  0  0  0  0  0  0  0  0  0  0  0
  150.8267  144.1611  159.1431 C   0  0  0  0  0  0  0  0  0  0  0  0
  151.5457  144.4026  160.3301 C   0  0  0  0  0  0  0  0  0  0  0  0
  152.5279  143.4771  160.7255 C   0  0  0  0  0  0  0  0  0  0  0  0
  153.2446  143.6665  161.8586 F   0  0  0  0  0  0  0  0  0  0  0  0
  152.7458  142.3490  159.9134 C   0  0  0  0  0  0  0  0  0  0  0  0
  152.0578  142.1170  158.7752 N   0  0  0  0  0  0  0  0  0  0  0  0
  148.2115  139.6747  155.2222 C   0  0  0  0  0  0  0  0  0  0  0  0
  147.7034  139.8297  156.6683 C   0  0  0  0  0  0  0  0  0  0  0  0
  149.1268  138.4453  155.2334 C   0  0  0  0  0  0  0  0  0  0  0  0
  147.3563  138.6070  150.9558 H   0  0  0  0  0  0  0  0  0  0  0  0
  146.3822  139.9594  151.5190 H   0  0  0  0  0  0  0  0  0  0  0  0
  145.9533  138.2988  151.9624 H   0  0  0  0  0  0  0  0  0  0  0  0
  145.3327  139.6484  155.3615 H   0  0  0  0  0  0  0  0  0  0  0  0
  145.6722  138.1467  154.5152 H   0  0  0  0  0  0  0  0  0  0  0  0
  144.9847  139.5268  153.6599 H   0  0  0  0  0  0  0  0  0  0  0  0
  147.3768  141.6705  153.0113 H   0  0  0  0  0  0  0  0  0  0  0  0
  146.7739  141.8222  154.6975 H   0  0  0  0  0  0  0  0  0  0  0  0
  149.4887  140.7139  153.7374 H   0  0  0  0  0  0  0  0  0  0  0  0
  149.0208  142.9260  155.2623 H   0  0  0  0  0  0  0  0  0  0  0  0
  149.9661  143.7103  156.8121 H   0  0  0  0  0  0  0  0  0  0  0  0
  150.0687  144.8612  158.8234 H   0  0  0  0  0  0  0  0  0  0  0  0
  151.3468  145.2819  160.9248 H   0  0  0  0  0  0  0  0  0  0  0  0
  153.4904  141.6145  160.1825 H   0  0  0  0  0  0  0  0  0  0  0  0
  148.5256  139.9677  157.3713 H   0  0  0  0  0  0  0  0  0  0  0  0
  147.1481  138.9492  156.9932 H   0  0  0  0  0  0  0  0  0  0  0  0
  147.0403  140.6872  156.7828 H   0  0  0  0  0  0  0  0  0  0  0  0
  149.8994  138.5272  155.9984 H   0  0  0  0  0  0  0  0  0  0  0  0
  149.6439  138.3126  154.2829 H   0  0  0  0  0  0  0  0  0  0  0  0
  148.5646  137.5314  155.4275 H   0  0  0  0  0  0  0  0  0  0  0  0
  1  2  1  0  0  0  0
  1 21  1  0  0  0  0
  1 22  1  0  0  0  0
  1 23  1  0  0  0  0
  2  3  1  0  0  0  0
  3 18  1  0  0  0  0
  3  4  1  0  0  0  0
  3  5  1  0  0  0  0
  4 24  1  0  0  0  0
  4 25  1  0  0  0  0
  4 26  1  0  0  0  0
  5  6  1  0  0  0  0
  5 27  1  0  0  0  0
  5 28  1  0  0  0  0
  6  7  1  0  0  0  0
  6 18  1  0  0  0  0
  6 29  1  0  0  0  0
  7  8  1  0  0  0  0
  7 30  1  0  0  0  0
  8  9  2  0  0  0  0
  8 10  1  0  0  0  0
 10 11  1  0  0  0  0
 10 31  1  0  0  0  0
 11 17  1  0  0  0  0
 11 12  2  0  0  0  0
 12 13  1  0  0  0  0
 12 32  1  0  0  0  0
 13 14  2  0  0  0  0
 13 33  1  0  0  0  0
 14 15  1  0  0  0  0
 14 16  1  0  0  0  0
 16 17  2  0  0  0  0
 16 34  1  0  0  0  0
 18 19  1  0  0  0  0
 18 20  1  0  0  0  0
 19 35  1  0  0  0  0
 19 36  1  0  0  0  0
 19 37  1  0  0  0  0
 20 38  1  0  0  0  0
 20 39  1  0  0  0  0
 20 40  1  0  0  0  0
M  END
> <s_m_source_file>
AV-unprocessed.smi

> <i_m_source_file_index>
2416

> <i_lp_mmshare_version>
43012

> <i_f3d_flags>
0

> <s_epik_input>
W0NIM11PW0NAQF0xKFtDSDNdKVtDSDJdW0NASF0oQzEoW0NIM10pW0NIM10pW05IXUMoPU8pW05IXWMyW2NIXVtjSF1jKEYpW2NIXW4y

> <s_epik_cmdline>
J2VwaWtfcHl0aG9uJywgJy1waCcsICc3LjAnLCAnLXRuJywgJzgnLCAnLW1hJywgJzIwMCcsICctbWV0YWxfYmluZGluZycsICctaW1hZScsICc8aW5maWxlLm1hZT4nLCAnLW9tYWUnLCAnPG91dGZpbGUubWFlPic=

> <r_lp_tautomer_probability>
1

> <r_epik_Ionization_Penalty>
3.67756e-05

> <r_epik_Ionization_Penalty_Charging>
0

> <r_epik_Ionization_Penalty_Neutral>
3.67756e-05

> <r_epik_State_Penalty>
-0

> <r_epik_Charging_Adjusted_Penalty>
0

> <i_epik_Tot_Q>
0

> <i_epik_Tot_abs_Q>
0

> <r_epik_Metal_State_Penalty>
-0

> <b_epik_Metal_Only>
0

> <s_lp_Force_Field>
OPLS_2005

> <r_lp_Energy>
27.4355

> <b_lp_Chiralities_Consistent>
1

> <s_lp_Variant>
AV-unprocessed.smi:2416-2

> <Gold.Version>
5.8.1

> <Gold.Id.Protein>
6NUR|6NUR_protein|mol2

> <Gold.PLP.Fitness>
37.3668

> <Gold.PLP.PLP>
-32.1766

> <Gold.PLP.part.hbond>
-2.0000

> <Gold.PLP.part.metal>
0.0000

> <Gold.PLP.part.buried>
-3.5952

> <Gold.PLP.part.nonpolar>
-28.4967

> <Gold.PLP.part.repulsive>
2.0648

> <Gold.PLP.ligand.clash>
0.0112

> <Gold.PLP.ligand.torsion>
0.5858

> <Gold.PLP.Chemscore.Hbond>
2.0000

> <Gold.PLP.Chemscore.CHOScore>
0.0000

> <Gold.PLP.Chemscore.Metal>
0.0000

> <Gold.Chemscore.Hbonds>
donor molecule, donor type, donor heavy atom, donor atom, acceptor molecule, acceptor atom, score
      L1  H     7    30       P1  8028  1.00
      L1  H    10    31       P1  8028  1.00

> <Gold.PLP.Chemscore.Internal.Correction>
0.3730

> <Gold.Rescore>
     Score         DG    S(hbond)    S(metal)    S(lipo)     H(rot)  DE(clash)    DE(int)     intcor
     12.99     -17.40       1.80        0.00      78.30       1.27       2.88       1.53       ----

> <Gold.Chemscore.Fitness>
12.9916

> <Gold.Chemscore.DG>
-17.3984

> <Gold.Chemscore.ZeroCoef>
-5.4800

> <Gold.Chemscore.Hbond>
1.7955

> <Gold.Chemscore.Metal>
0.0000

> <Gold.Chemscore.Lipo>
78.2961

> <Gold.Chemscore.Internal_Hbond>
0.0000

> <Gold.Chemscore.DEClash>
2.8794

> <Gold.Chemscore.DEInternal>
1.5275

> <Gold.Chemscore.Rot>
1.2653

> <Gold.Chemscore.Internal.Correction>
   9.000000E+99

> <Gold.Chemscore.Hbonds>
donor molecule, donor type, donor heavy atom, donor atom, acceptor molecule, acceptor atom, score
      L1  H     7    30       P1  8028  0.98
      L1  H    10    31       P1  8028  0.98

> <Gold.Chemscore.Hbond.Weighted>
-5.9970

> <Gold.Chemscore.Metal.Weighted>
-0.0000

> <Gold.Chemscore.Lipo.Weighted>
-9.1606

> <Gold.Chemscore.Internal_Hbond.Weighted>
0.0000

> <Gold.Chemscore.DEClash.Weighted>
2.8794

> <Gold.Chemscore.DEInternal.Weighted>
1.5275

> <Gold.Chemscore.Rot.Weighted>
3.2392

> <Gold.Chemscore.Internal.Correction.Weighted>
   9.000000E+99

> <Gold.Protein.RotatedTorsions>
[ 6907 6896 6895 6894 ] final  -99.73 input  -60.11 | X-H torsion
[ 7974 7965 7964 7962 ] final -115.06 input  175.53 | X-H torsion
[ 8008 7997 7996 7995 ] final  -21.47 input   59.86 | X-H torsion
[ 10167 10162 10161 10158 ] final  -19.67 input  -65.29 | X-H torsion
[ 10718 10713 10712 10709 ] final -100.74 input   66.30 | X-H torsion
[ 10763 10752 10751 10750 ] final   88.35 input  -60.55 | X-H torsion
[ 11005 11000 10999 10996 ] final   -0.52 input  -57.11 | X-H torsion

> <Gold.Protein.ActiveResidues>
 VAL166  LYS551  ARG553  GLY616  TRP617  ASP618  TYR619  PRO620  LYS621  CYS622 
 ASP623  PHE694  ASN695  SER759  ASP760  ASP761  ALA762  ILE779  LEU786  VAL792 
 PHE793  MET794  SER795  GLU796  ALA797  LYS798  CYS799  TRP800  GLU811  SER814 

> <Gold.Protein.RotatedAtoms>
  150.7090  134.0995  159.3960 H   0  0  0  0  0  0  0  0  0  0  0  0  # atno 6907 bound_to 6896
  151.8982  135.0387  160.0513 H   0  0  0  0  0  0  0  0  0  0  0  0  # atno 6908 bound_to 6896
  152.2436  133.5120  159.5321 H   0  0  0  0  0  0  0  0  0  0  0  0  # atno 6909 bound_to 6896
  145.1128  140.8622  143.3860 H   0  0  0  0  0  0  0  0  0  0  0  0  # atno 7974 bound_to 7965
  154.4703  140.2034  156.0011 H   0  0  0  0  0  0  0  0  0  0  0  0  # atno 8008 bound_to 7997
  156.1000  140.3245  155.7899 H   0  0  0  0  0  0  0  0  0  0  0  0  # atno 8009 bound_to 7997
  155.4814  140.0539  157.2957 H   0  0  0  0  0  0  0  0  0  0  0  0  # atno 8010 bound_to 7997
  140.7270  143.4796  151.0135 H   0  0  0  0  0  0  0  0  0  0  0  0  # atno 10167 bound_to 10162
  156.0172  130.5342  150.6862 H   0  0  0  0  0  0  0  0  0  0  0  0  # atno 10718 bound_to 10713
  153.1760  135.4510  154.9965 H   0  0  0  0  0  0  0  0  0  0  0  0  # atno 10763 bound_to 10752
  154.7998  135.3251  154.7580 H   0  0  0  0  0  0  0  0  0  0  0  0  # atno 10764 bound_to 10752
  153.8050  135.6959  153.4904 H   0  0  0  0  0  0  0  0  0  0  0  0  # atno 10765 bound_to 10752
  140.6372  133.9522  155.8306 H   0  0  0  0  0  0  0  0  0  0  0  0  # atno 11005 bound_to 11000
  145.0828  139.2947  143.5775 LP  0  0  0  0  0  0  0  0  0  0  0  0  # atno 17320 bound_to 7965
  146.3525  140.0339  142.8648 LP  0  0  0  0  0  0  0  0  0  0  0  0  # atno 17321 bound_to 7965
  139.8494  143.7458  152.3178 LP  0  0  0  0  0  0  0  0  0  0  0  0  # atno 17342 bound_to 10162
  139.7635  144.7499  151.0329 LP  0  0  0  0  0  0  0  0  0  0  0  0  # atno 17343 bound_to 10162
  157.4553  131.0877  151.0803 LP  0  0  0  0  0  0  0  0  0  0  0  0  # atno 17370 bound_to 10713
  157.1306  130.6100  149.5528 LP  0  0  0  0  0  0  0  0  0  0  0  0  # atno 17371 bound_to 10713
  141.0633  134.0314  157.3628 LP  0  0  0  0  0  0  0  0  0  0  0  0  # atno 17394 bound_to 11000
  139.9094  135.0187  156.7626 LP  0  0  0  0  0  0  0  0  0  0  0  0  # atno 17395 bound_to 11000

$$$$
