AV-unprocessed.smi:2138|AV-procd|sdf|8710|dock2
  -GOLD-   2272011473D 1   1.00000     0.00000
 Structure written by MMmdl.
 46 47  0  0  0  0  0  0  0  0  1 V2000
  138.8877  145.0967  154.6130 C   0  0  0  0  0  0  0  0  0  0  0  0
  139.8448  144.0682  154.4309 O   0  0  0  0  0  0  0  0  0  0  0  0
  140.4315  143.6490  155.6517 C   0  0  0  0  0  0  0  0  0  0  0  0
  141.9304  143.4220  155.4343 C   0  0  0  0  0  0  0  0  0  0  0  0
  142.5162  143.0380  156.6705 O   0  0  0  0  0  0  0  0  0  0  0  0
  143.8720  142.7966  156.6988 C   0  0  0  0  0  0  0  0  0  0  0  0
  144.6009  142.4341  157.8588 C   0  0  0  0  0  0  0  0  0  0  0  0
  145.9873  142.2177  157.7446 C   0  0  0  0  0  0  0  0  0  0  0  0
  146.6100  142.3779  156.4912 C   0  0  0  0  0  0  0  0  0  0  0  0
  148.0072  142.1365  156.4007 N   0  0  0  0  0  0  0  0  0  0  0  0
  148.7581  141.2961  157.1360 C   0  0  0  0  0  0  0  0  0  0  0  0
  148.3186  140.5590  158.0188 O   0  0  0  0  0  0  0  0  0  0  0  0
  150.2583  141.2692  156.8009 C   0  0  2  0  0  0  0  0  0  0  0  0
  151.0200  140.2757  157.6979 C   0  0  0  0  0  0  0  0  0  0  0  0
  151.9413  141.1537  158.5265 C   0  0  0  0  0  0  0  0  0  0  0  0
  152.6673  140.6990  159.4095 O   0  0  0  0  0  0  0  0  0  0  0  0
  151.8522  142.4397  158.1622 N   0  0  0  0  0  0  0  0  0  0  0  0
  152.6447  143.5377  158.7351 C   0  0  0  0  0  0  0  0  0  0  0  0
  152.4973  143.6491  160.2629 C   0  0  0  0  0  0  0  0  0  0  0  0
  152.3133  144.8622  158.0296 C   0  0  0  0  0  0  0  0  0  0  0  0
  150.9388  142.6345  157.0418 C   0  0  0  0  0  0  0  0  0  0  0  0
  145.7916  142.7288  155.3909 C   0  0  0  0  0  0  0  0  0  0  0  0
  144.4618  142.9356  155.4921 N   0  0  0  0  0  0  0  0  0  0  0  0
  138.4679  145.3812  153.6482 H   0  0  0  0  0  0  0  0  0  0  0  0
  139.3421  145.9834  155.0568 H   0  0  0  0  0  0  0  0  0  0  0  0
  138.0684  144.7653  155.2524 H   0  0  0  0  0  0  0  0  0  0  0  0
  140.2669  144.3856  156.4397 H   0  0  0  0  0  0  0  0  0  0  0  0
  139.9644  142.7164  155.9715 H   0  0  0  0  0  0  0  0  0  0  0  0
  142.0703  142.6225  154.7051 H   0  0  0  0  0  0  0  0  0  0  0  0
  142.3933  144.3274  155.0387 H   0  0  0  0  0  0  0  0  0  0  0  0
  144.1301  142.3180  158.8231 H   0  0  0  0  0  0  0  0  0  0  0  0
  146.5642  141.9377  158.6141 H   0  0  0  0  0  0  0  0  0  0  0  0
  148.4827  142.6136  155.6485 H   0  0  0  0  0  0  0  0  0  0  0  0
  150.3853  140.9850  155.7547 H   0  0  0  0  0  0  0  0  0  0  0  0
  150.3736  139.6852  158.3494 H   0  0  0  0  0  0  0  0  0  0  0  0
  151.6158  139.5844  157.1009 H   0  0  0  0  0  0  0  0  0  0  0  0
  153.6972  143.3201  158.5450 H   0  0  0  0  0  0  0  0  0  0  0  0
  153.1745  144.4044  160.6625 H   0  0  0  0  0  0  0  0  0  0  0  0
  152.7380  142.7048  160.7521 H   0  0  0  0  0  0  0  0  0  0  0  0
  151.4856  143.9341  160.5531 H   0  0  0  0  0  0  0  0  0  0  0  0
  152.9351  145.6737  158.4086 H   0  0  0  0  0  0  0  0  0  0  0  0
  151.2708  145.1425  158.1834 H   0  0  0  0  0  0  0  0  0  0  0  0
  152.4844  144.7934  156.9549 H   0  0  0  0  0  0  0  0  0  0  0  0
  151.5069  142.9420  156.1630 H   0  0  0  0  0  0  0  0  0  0  0  0
  150.2143  143.4222  157.2536 H   0  0  0  0  0  0  0  0  0  0  0  0
  146.1891  142.8302  154.3930 H   0  0  0  0  0  0  0  0  0  0  0  0
  1  2  1  0  0  0  0
  1 24  1  0  0  0  0
  1 25  1  0  0  0  0
  1 26  1  0  0  0  0
  2  3  1  0  0  0  0
  3  4  1  0  0  0  0
  3 27  1  0  0  0  0
  3 28  1  0  0  0  0
  4  5  1  0  0  0  0
  4 29  1  0  0  0  0
  4 30  1  0  0  0  0
  5  6  1  0  0  0  0
  6 23  1  0  0  0  0
  6  7  2  0  0  0  0
  7  8  1  0  0  0  0
  7 31  1  0  0  0  0
  8  9  2  0  0  0  0
  8 32  1  0  0  0  0
  9 10  1  0  0  0  0
  9 22  1  0  0  0  0
 10 11  1  0  0  0  0
 10 33  1  0  0  0  0
 11 12  2  0  0  0  0
 11 13  1  0  0  0  0
 13 21  1  0  0  0  0
 13 14  1  0  0  0  0
 13 34  1  0  0  0  0
 14 15  1  0  0  0  0
 14 35  1  0  0  0  0
 14 36  1  0  0  0  0
 15 16  2  0  0  0  0
 15 17  1  0  0  0  0
 17 18  1  0  0  0  0
 17 21  1  0  0  0  0
 18 19  1  0  0  0  0
 18 20  1  0  0  0  0
 18 37  1  0  0  0  0
 19 38  1  0  0  0  0
 19 39  1  0  0  0  0
 19 40  1  0  0  0  0
 20 41  1  0  0  0  0
 20 42  1  0  0  0  0
 20 43  1  0  0  0  0
 21 44  1  0  0  0  0
 21 45  1  0  0  0  0
 22 23  2  0  0  0  0
 22 46  1  0  0  0  0
M  END
> <s_m_source_file>
AV-unprocessed.smi

> <i_m_source_file_index>
2138

> <i_lp_mmshare_version>
43012

> <i_f3d_flags>
0

> <s_epik_input>
W0NIM11PW0NIMl1bQ0gyXU9jMVtjSF1bY0hdYyhbY0hdbjEpW05IXUMoPU8pW0NAQEhdMltDSDJdQyg9TylOKFtDSDJdMilbQ0hdKFtDSDNdKVtDSDNd

> <s_epik_cmdline>
J2VwaWtfcHl0aG9uJywgJy1waCcsICc3LjAnLCAnLXRuJywgJzgnLCAnLW1hJywgJzIwMCcsICctbWV0YWxfYmluZGluZycsICctaW1hZScsICc8aW5maWxlLm1hZT4nLCAnLW9tYWUnLCAnPG91dGZpbGUubWFlPic=

> <r_lp_tautomer_probability>
1

> <r_epik_Ionization_Penalty>
1.72652e-05

> <r_epik_Ionization_Penalty_Charging>
0

> <r_epik_Ionization_Penalty_Neutral>
1.72652e-05

> <r_epik_State_Penalty>
-0

> <r_epik_Charging_Adjusted_Penalty>
0

> <i_epik_Tot_Q>
0

> <i_epik_Tot_abs_Q>
0

> <r_epik_Metal_State_Penalty>
-0

> <b_epik_Metal_Only>
0

> <s_lp_Force_Field>
OPLS_2005

> <r_lp_Energy>
27.6576

> <b_lp_Chiralities_Consistent>
1

> <s_lp_Variant>
AV-unprocessed.smi:2138-1

> <Gold.Version>
5.8.1

> <Gold.Id.Protein>
6NUR|6NUR_protein|mol2

> <Gold.PLP.Fitness>
40.1302

> <Gold.PLP.PLP>
-36.7178

> <Gold.PLP.part.hbond>
-2.3588

> <Gold.PLP.part.metal>
0.0000

> <Gold.PLP.part.buried>
-5.3480

> <Gold.PLP.part.nonpolar>
-29.2087

> <Gold.PLP.part.repulsive>
0.2901

> <Gold.PLP.ligand.clash>
0.0000

> <Gold.PLP.ligand.torsion>
0.5340

> <Gold.PLP.Chemscore.Hbond>
1.4320

> <Gold.PLP.Chemscore.CHOScore>
0.0000

> <Gold.PLP.Chemscore.Metal>
0.0000

> <Gold.Chemscore.Hbonds>
donor molecule, donor type, donor heavy atom, donor atom, acceptor molecule, acceptor atom, score
      L1  H    10    33       P1  8028  0.35
      P1  H 10162 10167       L1     2  0.59

> <Gold.PLP.Chemscore.Internal.Correction>
0.1844

> <Gold.Rescore>
     Score         DG    S(hbond)    S(metal)    S(lipo)     H(rot)  DE(clash)    DE(int)     intcor
     11.43     -14.46       1.30        0.00      83.52       2.00       0.10       2.93       ----

> <Gold.Chemscore.Fitness>
11.4260

> <Gold.Chemscore.DG>
-14.4568

> <Gold.Chemscore.ZeroCoef>
-5.4800

> <Gold.Chemscore.Hbond>
1.2975

> <Gold.Chemscore.Metal>
0.0000

> <Gold.Chemscore.Lipo>
83.5231

> <Gold.Chemscore.Internal_Hbond>
0.0000

> <Gold.Chemscore.DEClash>
0.0960

> <Gold.Chemscore.DEInternal>
2.9348

> <Gold.Chemscore.Rot>
2.0035

> <Gold.Chemscore.Internal.Correction>
   9.000000E+99

> <Gold.Chemscore.Hbonds>
donor molecule, donor type, donor heavy atom, donor atom, acceptor molecule, acceptor atom, score
      L1  H    10    33       P1  8028  0.33
      P1  H 10162 10167       L1     2  0.09

> <Gold.Chemscore.Hbond.Weighted>
-4.3336

> <Gold.Chemscore.Metal.Weighted>
-0.0000

> <Gold.Chemscore.Lipo.Weighted>
-9.7722

> <Gold.Chemscore.Internal_Hbond.Weighted>
0.0000

> <Gold.Chemscore.DEClash.Weighted>
0.0960

> <Gold.Chemscore.DEInternal.Weighted>
2.9348

> <Gold.Chemscore.Rot.Weighted>
5.1290

> <Gold.Chemscore.Internal.Correction.Weighted>
   9.000000E+99

> <Gold.Protein.RotatedTorsions>
[ 6907 6896 6895 6894 ] final  169.00 input  -60.11 | X-H torsion
[ 7974 7965 7964 7962 ] final  -24.03 input  175.53 | X-H torsion
[ 8008 7997 7996 7995 ] final  140.93 input   59.86 | X-H torsion
[ 10167 10162 10161 10158 ] final -157.32 input  -65.29 | X-H torsion
[ 10718 10713 10712 10709 ] final  102.04 input   66.30 | X-H torsion
[ 10763 10752 10751 10750 ] final  157.26 input  -60.55 | X-H torsion
[ 11005 11000 10999 10996 ] final   34.23 input  -57.11 | X-H torsion

> <Gold.Protein.ActiveResidues>
 VAL166  LYS551  ARG553  GLY616  TRP617  ASP618  TYR619  PRO620  LYS621  CYS622 
 ASP623  PHE694  ASN695  SER759  ASP760  ASP761  ALA762  ILE779  LEU786  VAL792 
 PHE793  MET794  SER795  GLU796  ALA797  LYS798  CYS799  TRP800  GLU811  SER814 

> <Gold.Protein.RotatedAtoms>
  151.8388  133.3420  159.3636 H   0  0  0  0  0  0  0  0  0  0  0  0  # atno 6907 bound_to 6896
  150.7241  134.5411  159.5757 H   0  0  0  0  0  0  0  0  0  0  0  0  # atno 6908 bound_to 6896
  152.2880  134.7754  160.0434 H   0  0  0  0  0  0  0  0  0  0  0  0  # atno 6909 bound_to 6896
  146.1580  140.4696  142.8583 H   0  0  0  0  0  0  0  0  0  0  0  0  # atno 7974 bound_to 7965
  156.2973  140.2328  156.4481 H   0  0  0  0  0  0  0  0  0  0  0  0  # atno 8008 bound_to 7997
  154.8126  140.0442  157.1374 H   0  0  0  0  0  0  0  0  0  0  0  0  # atno 8009 bound_to 7997
  154.9406  140.3029  155.5126 H   0  0  0  0  0  0  0  0  0  0  0  0  # atno 8010 bound_to 7997
  139.6780  143.9630  152.2321 H   0  0  0  0  0  0  0  0  0  0  0  0  # atno 10167 bound_to 10162
  157.6813  131.0742  150.5344 H   0  0  0  0  0  0  0  0  0  0  0  0  # atno 10718 bound_to 10713
  154.1975  135.2792  155.3002 H   0  0  0  0  0  0  0  0  0  0  0  0  # atno 10763 bound_to 10752
  154.5880  135.5568  153.7254 H   0  0  0  0  0  0  0  0  0  0  0  0  # atno 10764 bound_to 10752
  153.0096  135.6361  154.2113 H   0  0  0  0  0  0  0  0  0  0  0  0  # atno 10765 bound_to 10752
  140.2550  134.3259  155.7877 H   0  0  0  0  0  0  0  0  0  0  0  0  # atno 11005 bound_to 11000
  144.7989  140.6175  143.6491 LP  0  0  0  0  0  0  0  0  0  0  0  0  # atno 17320 bound_to 7965
  145.4660  139.1508  143.3840 LP  0  0  0  0  0  0  0  0  0  0  0  0  # atno 17321 bound_to 7965
  139.9412  144.6680  150.8264 LP  0  0  0  0  0  0  0  0  0  0  0  0  # atno 17342 bound_to 10162
  140.7642  143.3243  151.2551 LP  0  0  0  0  0  0  0  0  0  0  0  0  # atno 17343 bound_to 10162
  156.5653  130.4266  149.6044 LP  0  0  0  0  0  0  0  0  0  0  0  0  # atno 17370 bound_to 10713
  156.2787  130.7058  151.1876 LP  0  0  0  0  0  0  0  0  0  0  0  0  # atno 17371 bound_to 10713
  141.2197  133.7375  156.9096 LP  0  0  0  0  0  0  0  0  0  0  0  0  # atno 17394 bound_to 11000
  140.1521  134.9223  157.2606 LP  0  0  0  0  0  0  0  0  0  0  0  0  # atno 17395 bound_to 11000

$$$$
