AV-unprocessed.smi:283|AV-procd|sdf|2151|dock8
  -GOLD-   2262021493D 1   1.00000     0.00000
 Structure written by MMmdl.
 48 51  0  0  0  0  0  0  0  0  1 V2000
  149.0950  142.1376  158.3140 C   0  0  0  0  0  0  0  0  0  0  0  0
  150.4083  142.8573  157.9569 C   0  0  2  0  0  0  0  0  0  0  0  0
  150.7200  142.7205  156.5344 N   0  0  0  0  0  0  0  0  0  0  0  0
  150.6741  141.5254  155.9047 C   0  0  0  0  0  0  0  0  0  0  0  0
  151.7799  140.7459  155.7835 N   0  0  0  0  0  0  0  0  0  0  0  0
  151.7020  139.5691  155.1562 C   0  0  0  0  0  0  0  0  0  0  0  0
  150.6376  138.9928  154.5941 N   0  0  0  0  0  0  0  0  0  0  0  0
  149.5201  139.7659  154.7188 C   0  0  0  0  0  0  0  0  0  0  0  0
  149.4599  141.0369  155.3568 C   0  0  0  0  0  0  0  0  0  0  0  0
  148.1656  141.5343  155.2954 N   0  0  0  0  0  0  0  0  0  0  0  0
  147.5028  140.6084  154.6567 C   0  0  0  0  0  0  0  0  0  0  0  0
  148.2366  139.5060  154.2765 N   0  0  0  0  0  0  0  0  0  0  0  0
  147.7383  138.3128  153.5205 C   0  0  1  0  0  0  0  0  0  0  0  0
  147.0623  137.4810  154.4178 O   0  0  0  0  0  0  0  0  0  0  0  0
  145.6926  137.3501  154.0459 C   0  0  2  0  0  0  0  0  0  0  0  0
  145.1239  136.0002  154.5191 C   0  0  0  0  0  0  0  0  0  0  0  0
  145.2228  135.8901  155.9233 O   0  0  0  0  0  0  0  0  0  0  0  0
  145.6854  137.6239  152.5357 C   0  0  2  0  0  0  0  0  0  0  0  0
  146.0120  136.4478  151.8110 O   0  0  0  0  0  0  0  0  0  0  0  0
  146.7538  138.7058  152.4071 C   0  0  2  0  0  0  0  0  0  0  0  0
  147.3348  138.7117  151.1171 O   0  0  0  0  0  0  0  0  0  0  0  0
  151.5370  142.3537  158.8551 C   0  0  0  0  0  0  0  0  0  0  0  0
  151.8802  140.9808  158.8552 C   0  0  0  0  0  0  0  0  0  0  0  0
  152.9111  140.4975  159.6826 C   0  0  0  0  0  0  0  0  0  0  0  0
  153.6081  141.3810  160.5257 C   0  0  0  0  0  0  0  0  0  0  0  0
  153.2680  142.7459  160.5438 C   0  0  0  0  0  0  0  0  0  0  0  0
  152.2360  143.2359  159.7180 C   0  0  0  0  0  0  0  0  0  0  0  0
  151.8512  144.9201  159.7976 Cl  0  0  0  0  0  0  0  0  0  0  0  0
  148.6328  137.8058  153.1562 H   0  0  0  0  0  0  0  0  0  0  0  0
  145.1413  138.1483  154.5423 H   0  0  0  0  0  0  0  0  0  0  0  0
  144.7118  137.9766  152.1931 H   0  0  0  0  0  0  0  0  0  0  0  0
  146.3178  139.6823  152.6183 H   0  0  0  0  0  0  0  0  0  0  0  0
  148.8429  142.2866  159.3643 H   0  0  0  0  0  0  0  0  0  0  0  0
  149.1731  141.0637  158.1417 H   0  0  0  0  0  0  0  0  0  0  0  0
  148.2547  142.5064  157.7262 H   0  0  0  0  0  0  0  0  0  0  0  0
  150.2861  143.9225  158.1500 H   0  0  0  0  0  0  0  0  0  0  0  0
  151.0053  143.5701  156.0691 H   0  0  0  0  0  0  0  0  0  0  0  0
  152.6236  139.0091  155.0971 H   0  0  0  0  0  0  0  0  0  0  0  0
  146.4479  140.7055  154.4441 H   0  0  0  0  0  0  0  0  0  0  0  0
  144.0864  135.8700  154.2108 H   0  0  0  0  0  0  0  0  0  0  0  0
  145.6898  135.1836  154.0702 H   0  0  0  0  0  0  0  0  0  0  0  0
  145.2810  134.9741  156.1499 H   0  0  0  0  0  0  0  0  0  0  0  0
  146.9340  136.2740  151.9260 H   0  0  0  0  0  0  0  0  0  0  0  0
  147.9229  139.4498  151.0621 H   0  0  0  0  0  0  0  0  0  0  0  0
  151.3512  140.2831  158.2227 H   0  0  0  0  0  0  0  0  0  0  0  0
  153.1650  139.4477  159.6718 H   0  0  0  0  0  0  0  0  0  0  0  0
  154.3989  141.0115  161.1617 H   0  0  0  0  0  0  0  0  0  0  0  0
  153.8001  143.4202  161.1985 H   0  0  0  0  0  0  0  0  0  0  0  0
  1  2  1  0  0  0  0
  1 33  1  0  0  0  0
  1 34  1  0  0  0  0
  1 35  1  0  0  0  0
  2  3  1  0  0  0  0
  2 22  1  0  0  0  0
  2 36  1  0  0  0  0
  3  4  1  0  0  0  0
  3 37  1  0  0  0  0
  4  9  1  0  0  0  0
  4  5  2  0  0  0  0
  5  6  1  0  0  0  0
  6  7  2  0  0  0  0
  6 38  1  0  0  0  0
  7  8  1  0  0  0  0
  8 12  1  0  0  0  0
  8  9  2  0  0  0  0
  9 10  1  0  0  0  0
 10 11  2  0  0  0  0
 11 12  1  0  0  0  0
 11 39  1  0  0  0  0
 12 13  1  0  0  0  0
 13 29  1  0  0  0  0
 13 20  1  0  0  0  0
 13 14  1  0  0  0  0
 14 15  1  0  0  0  0
 15 30  1  0  0  0  0
 15 16  1  0  0  0  0
 15 18  1  0  0  0  0
 16 17  1  0  0  0  0
 16 40  1  0  0  0  0
 16 41  1  0  0  0  0
 17 42  1  0  0  0  0
 18 31  1  0  0  0  0
 18 19  1  0  0  0  0
 18 20  1  0  0  0  0
 19 43  1  0  0  0  0
 20 32  1  0  0  0  0
 20 21  1  0  0  0  0
 21 44  1  0  0  0  0
 22 27  1  0  0  0  0
 22 23  2  0  0  0  0
 23 24  1  0  0  0  0
 23 45  1  0  0  0  0
 24 25  2  0  0  0  0
 24 46  1  0  0  0  0
 25 26  1  0  0  0  0
 25 47  1  0  0  0  0
 26 27  2  0  0  0  0
 26 48  1  0  0  0  0
 27 28  1  0  0  0  0
M  END
> <s_m_source_file>
AV-unprocessed.smi

> <i_m_source_file_index>
283

> <i_lp_mmshare_version>
43012

> <i_f3d_flags>
0

> <s_epik_input>
Q2xjMVtjSF1bY0hdW2NIXVtjSF1jMVtDQEhdKFtDSDNdKVtOSF1jKG5bY0hdbjIpYyhjMjMpbltjSF1uM1tDQEBIXTRPW0NASF0oW0NIMl1bT0hdKVtDQEBIXShbT0hdKVtDQEhdNFtPSF0=

> <s_epik_cmdline>
J2VwaWtfcHl0aG9uJywgJy1waCcsICc3LjAnLCAnLXRuJywgJzgnLCAnLW1hJywgJzIwMCcsICctbWV0YWxfYmluZGluZycsICctaW1hZScsICc8aW5maWxlLm1hZT4nLCAnLW9tYWUnLCAnPG91dGZpbGUubWFlPic=

> <r_lp_tautomer_probability>
1

> <r_epik_Ionization_Penalty>
0.000266407

> <r_epik_Ionization_Penalty_Charging>
0

> <r_epik_Ionization_Penalty_Neutral>
0.000266407

> <r_epik_State_Penalty>
-0

> <r_epik_Charging_Adjusted_Penalty>
0

> <i_epik_Tot_Q>
0

> <i_epik_Tot_abs_Q>
0

> <r_epik_Metal_State_Penalty>
-0

> <b_epik_Metal_Only>
0

> <s_epik_Chemistry_Notes>
This compound contains an acetal/aminal-like group ( X-CH(R)-Y where X, Y are N, S, or O) that may be acid/base labile, releasing an aldehyde.

> <s_lp_Force_Field>
OPLS_2005

> <r_lp_Energy>
49.1948

> <b_lp_Chiralities_Consistent>
1

> <s_lp_Variant>
AV-unprocessed.smi:283-27

> <Gold.Version>
5.8.1

> <Gold.Id.Protein>
6NUR|6NUR_protein|mol2

> <Gold.PLP.Fitness>
52.2750

> <Gold.PLP.PLP>
-47.5833

> <Gold.PLP.part.hbond>
-5.9659

> <Gold.PLP.part.metal>
0.0000

> <Gold.PLP.part.buried>
-0.8656

> <Gold.PLP.part.nonpolar>
-40.4300

> <Gold.PLP.part.repulsive>
0.4252

> <Gold.PLP.ligand.clash>
0.0000

> <Gold.PLP.ligand.torsion>
1.4552

> <Gold.PLP.Chemscore.Hbond>
2.5024

> <Gold.PLP.Chemscore.CHOScore>
0.0000

> <Gold.PLP.Chemscore.Metal>
0.0000

> <Gold.Chemscore.Hbonds>
donor molecule, donor type, donor heavy atom, donor atom, acceptor molecule, acceptor atom, score
      L1  H    19    43       P1  7948  1.00
      L1  H    21    44       P1  7957  0.94
      P1  H  7954  7966       L1    21  0.51

> <Gold.PLP.Chemscore.Internal.Correction>
0.0949

> <Gold.Rescore>
     Score         DG    S(hbond)    S(metal)    S(lipo)     H(rot)  DE(clash)    DE(int)     intcor
     10.37     -12.42       1.59        0.00     103.54       4.10       0.50       1.55       ----

> <Gold.Chemscore.Fitness>
10.3708

> <Gold.Chemscore.DG>
-12.4212

> <Gold.Chemscore.ZeroCoef>
-5.4800

> <Gold.Chemscore.Hbond>
1.5912

> <Gold.Chemscore.Metal>
0.0000

> <Gold.Chemscore.Lipo>
103.5425

> <Gold.Chemscore.Internal_Hbond>
0.0000

> <Gold.Chemscore.DEClash>
0.5016

> <Gold.Chemscore.DEInternal>
1.5488

> <Gold.Chemscore.Rot>
4.0968

> <Gold.Chemscore.Internal.Correction>
   9.000000E+99

> <Gold.Chemscore.Hbonds>
donor molecule, donor type, donor heavy atom, donor atom, acceptor molecule, acceptor atom, score
      L1  H     3    37       P1  8028  0.01
      L1  H    19    43       P1  7948  0.97
      L1  H    21    44       P1  7957  0.64
      P1  H  7954  7966       L1    21  0.03

> <Gold.Chemscore.Hbond.Weighted>
-5.3146

> <Gold.Chemscore.Metal.Weighted>
-0.0000

> <Gold.Chemscore.Lipo.Weighted>
-12.1145

> <Gold.Chemscore.Internal_Hbond.Weighted>
0.0000

> <Gold.Chemscore.DEClash.Weighted>
0.5016

> <Gold.Chemscore.DEInternal.Weighted>
1.5488

> <Gold.Chemscore.Rot.Weighted>
10.4879

> <Gold.Chemscore.Internal.Correction.Weighted>
   9.000000E+99

> <Gold.Protein.RotatedTorsions>
[ 6907 6896 6895 6894 ] final  155.49 input  -60.11 | X-H torsion
[ 7974 7965 7964 7962 ] final  140.76 input  175.53 | X-H torsion
[ 8008 7997 7996 7995 ] final   16.37 input   59.86 | X-H torsion
[ 10167 10162 10161 10158 ] final  125.55 input  -65.29 | X-H torsion
[ 10718 10713 10712 10709 ] final  178.25 input   66.30 | X-H torsion
[ 10763 10752 10751 10750 ] final -105.98 input  -60.55 | X-H torsion
[ 11005 11000 10999 10996 ] final  -51.73 input  -57.11 | X-H torsion

> <Gold.Protein.ActiveResidues>
 VAL166  LYS551  ARG553  GLY616  TRP617  ASP618  TYR619  PRO620  LYS621  CYS622 
 ASP623  PHE694  ASN695  SER759  ASP760  ASP761  ALA762  ILE779  LEU786  VAL792 
 PHE793  MET794  SER795  GLU796  ALA797  LYS798  CYS799  TRP800  GLU811  SER814 

> <Gold.Protein.RotatedAtoms>
  152.0433  133.3987  159.4345 H   0  0  0  0  0  0  0  0  0  0  0  0  # atno 6907 bound_to 6896
  150.6874  134.3390  159.4869 H   0  0  0  0  0  0  0  0  0  0  0  0  # atno 6908 bound_to 6896
  152.1191  134.9218  160.0614 H   0  0  0  0  0  0  0  0  0  0  0  0  # atno 6909 bound_to 6896
  144.9157  139.5233  143.5687 H   0  0  0  0  0  0  0  0  0  0  0  0  # atno 7974 bound_to 7965
  154.8759  140.2966  155.5453 H   0  0  0  0  0  0  0  0  0  0  0  0  # atno 8008 bound_to 7997
  156.3022  140.2451  156.3688 H   0  0  0  0  0  0  0  0  0  0  0  0  # atno 8009 bound_to 7997
  154.8768  140.0399  157.1747 H   0  0  0  0  0  0  0  0  0  0  0  0  # atno 8010 bound_to 7997
  139.5679  144.6922  151.3859 H   0  0  0  0  0  0  0  0  0  0  0  0  # atno 10167 bound_to 10162
  156.8933  130.9854  151.3046 H   0  0  0  0  0  0  0  0  0  0  0  0  # atno 10718 bound_to 10713
  154.7983  135.4729  154.0213 H   0  0  0  0  0  0  0  0  0  0  0  0  # atno 10763 bound_to 10752
  153.1739  135.6829  153.8577 H   0  0  0  0  0  0  0  0  0  0  0  0  # atno 10764 bound_to 10752
  153.8151  135.3212  155.3382 H   0  0  0  0  0  0  0  0  0  0  0  0  # atno 10765 bound_to 10752
  141.0887  133.6637  156.3920 H   0  0  0  0  0  0  0  0  0  0  0  0  # atno 11005 bound_to 11000
  146.3181  139.7998  142.8968 LP  0  0  0  0  0  0  0  0  0  0  0  0  # atno 17320 bound_to 7965
  145.3379  141.0281  143.3409 LP  0  0  0  0  0  0  0  0  0  0  0  0  # atno 17321 bound_to 7965
  140.6963  143.7740  150.7332 LP  0  0  0  0  0  0  0  0  0  0  0  0  # atno 17342 bound_to 10162
  140.1238  143.4588  152.2297 LP  0  0  0  0  0  0  0  0  0  0  0  0  # atno 17343 bound_to 10162
  157.6070  130.8555  149.8891 LP  0  0  0  0  0  0  0  0  0  0  0  0  # atno 17370 bound_to 10713
  156.0618  130.3698  150.0965 LP  0  0  0  0  0  0  0  0  0  0  0  0  # atno 17371 bound_to 10713
  140.5304  134.6218  157.5348 LP  0  0  0  0  0  0  0  0  0  0  0  0  # atno 17394 bound_to 11000
  139.9709  134.7295  156.0044 LP  0  0  0  0  0  0  0  0  0  0  0  0  # atno 17395 bound_to 11000

$$$$
