AV-unprocessed.smi:2642|AV-procd|sdf|10275|dock2
  -GOLD-   2272014283D 1   1.00000     0.00000
 Structure written by MMmdl.
 31 32  0  0  0  0  0  0  0  0  2 V2000
  144.8730  136.7917  153.0452 O   0  0  0  0  0  0  0  0  0  0  0  0
  146.0056  136.3692  152.8135 C   0  0  0  0  0  0  0  0  0  0  0  0
  147.1237  136.9897  153.2146 N   0  0  0  0  0  0  0  0  0  0  0  0
  147.1668  138.2376  153.9665 C   0  0  0  0  0  0  0  0  0  0  0  0
  148.0050  138.0907  155.2490 C   0  0  0  0  0  0  0  0  0  0  0  0
  149.3967  137.7498  154.9402 N   0  0  0  0  0  0  0  0  0  0  0  0
  150.2947  138.6146  154.4590 C   0  0  0  0  0  0  0  0  0  0  0  0
  150.1310  139.8047  154.1894 O   0  0  0  0  0  0  0  0  0  0  0  0
  151.6004  137.8711  154.2973 C   0  0  0  0  0  0  0  0  0  0  0  0
  151.2606  136.5444  154.7597 N   0  5  0  0  0  0  0  0  0  0  0  0
  149.9577  136.5396  155.1268 C   0  0  0  0  0  0  0  0  0  0  0  0
  149.3253  135.5862  155.5807 O   0  0  0  0  0  0  0  0  0  0  0  0
  146.2934  135.2550  152.1188 N   0  0  0  0  0  0  0  0  0  0  0  0
  145.3988  134.3166  151.5363 C   0  0  0  0  0  0  0  0  0  0  0  0
  145.7941  133.2656  150.6734 C   0  0  0  0  0  0  0  0  0  0  0  0
  144.8060  132.4125  150.1448 C   0  0  0  0  0  0  0  0  0  0  0  0
  143.4610  132.6438  150.4924 C   0  0  0  0  0  0  0  0  0  0  0  0
  143.0688  133.6493  151.3027 N   0  0  0  0  0  0  0  0  0  0  0  0
  144.0214  134.4641  151.8041 C   0  0  0  0  0  0  0  0  0  0  0  0
  148.0121  136.5756  152.9736 H   0  0  0  0  0  0  0  0  0  0  0  0
  147.5545  139.0447  153.3424 H   0  0  0  0  0  0  0  0  0  0  0  0
  146.1411  138.5075  154.2196 H   0  0  0  0  0  0  0  0  0  0  0  0
  147.9736  139.0174  155.8246 H   0  0  0  0  0  0  0  0  0  0  0  0
  147.5688  137.3285  155.8971 H   0  0  0  0  0  0  0  0  0  0  0  0
  151.9148  137.8961  153.2534 H   0  0  0  0  0  0  0  0  0  0  0  0
  152.3766  138.3495  154.8952 H   0  0  0  0  0  0  0  0  0  0  0  0
  147.2727  135.0862  151.9406 H   0  0  0  0  0  0  0  0  0  0  0  0
  146.8241  133.1048  150.3957 H   0  0  0  0  0  0  0  0  0  0  0  0
  145.0735  131.6012  149.4841 H   0  0  0  0  0  0  0  0  0  0  0  0
  142.6790  132.0078  150.1045 H   0  0  0  0  0  0  0  0  0  0  0  0
  143.6707  135.2593  152.4459 H   0  0  0  0  0  0  0  0  0  0  0  0
  1  2  2  0  0  0  0
  2  3  1  0  0  0  0
  2 13  1  0  0  0  0
  3  4  1  0  0  0  0
  3 20  1  0  0  0  0
  4  5  1  0  0  0  0
  4 21  1  0  0  0  0
  4 22  1  0  0  0  0
  5  6  1  0  0  0  0
  5 23  1  0  0  0  0
  5 24  1  0  0  0  0
  6 11  1  0  0  0  0
  6  7  1  0  0  0  0
  7  8  2  0  0  0  0
  7  9  1  0  0  0  0
  9 10  1  0  0  0  0
  9 25  1  0  0  0  0
  9 26  1  0  0  0  0
 10 11  1  0  0  0  0
 11 12  2  0  0  0  0
 13 14  1  0  0  0  0
 13 27  1  0  0  0  0
 14 19  1  0  0  0  0
 14 15  2  0  0  0  0
 15 16  1  0  0  0  0
 15 28  1  0  0  0  0
 16 17  2  0  0  0  0
 16 29  1  0  0  0  0
 17 18  1  0  0  0  0
 17 30  1  0  0  0  0
 18 19  2  0  0  0  0
 19 31  1  0  0  0  0
M  CHG  1  10  -1
M  END
> <s_m_source_file>
AV-unprocessed.smi

> <i_m_source_file_index>
2642

> <i_lp_mmshare_version>
43012

> <i_f3d_flags>
0

> <s_epik_input>
W2NIXTFuW2NIXVtjSF1bY0hdYzFbTkhdQyg9TylbTkhdW0NIMl1bQ0gyXU4yQyg9TylbQ0gyXVtOSF1DMj1P

> <s_epik_cmdline>
J2VwaWtfcHl0aG9uJywgJy1waCcsICc3LjAnLCAnLXRuJywgJzgnLCAnLW1hJywgJzIwMCcsICctbWV0YWxfYmluZGluZycsICctaW1hZScsICc8aW5maWxlLm1hZT4nLCAnLW9tYWUnLCAnPG91dGZpbGUubWFlPic=

> <r_lp_tautomer_probability>
1

> <r_epik_Ionization_Penalty>
5.82623

> <r_epik_Ionization_Penalty_Charging>
5.82164

> <r_epik_Ionization_Penalty_Neutral>
0.00459419

> <r_epik_State_Penalty>
5.8249

> <r_epik_Charging_Adjusted_Penalty>
11.6465

> <i_epik_Tot_Q>
-1

> <i_epik_Tot_abs_Q>
1

> <r_epik_Metal_State_Penalty>
1.79397

> <b_epik_Metal_Only>
1

> <s_lp_Force_Field>
OPLS_2005

> <r_lp_Energy>
16.7854

> <b_lp_Chiralities_Consistent>
1

> <s_lp_Variant>
AV-unprocessed.smi:2642-2

> <Gold.Version>
5.8.1

> <Gold.Id.Protein>
6NUR|6NUR_protein|mol2

> <Gold.PLP.Fitness>
44.0103

> <Gold.PLP.PLP>
-26.9784

> <Gold.PLP.part.hbond>
-3.8379

> <Gold.PLP.part.metal>
0.0000

> <Gold.PLP.part.buried>
-6.8998

> <Gold.PLP.part.nonpolar>
-18.0021

> <Gold.PLP.part.repulsive>
1.1963

> <Gold.PLP.ligand.clash>
0.0000

> <Gold.PLP.ligand.torsion>
0.2025

> <Gold.PLP.Chemscore.Hbond>
4.8160

> <Gold.PLP.Chemscore.CHOScore>
0.9924

> <Gold.PLP.Chemscore.Metal>
0.0000

> <Gold.Chemscore.Hbonds>
donor molecule, donor type, donor heavy atom, donor atom, acceptor molecule, acceptor atom, score
      L1  H     3    20       P1  7948  0.83
      L1  H    13    27       P1  7948  0.74
      P1  H  7989  7998       L1     8  1.00
      P1  H 10752 10763       L1    10  1.80
      L1  C    17    30       P1 10952  0.96

> <Gold.PLP.Chemscore.Internal.Correction>
0.0117

> <Gold.Rescore>
     Score         DG    S(hbond)    S(metal)    S(lipo)     H(rot)  DE(clash)    DE(int)     intcor
     16.47     -18.17       3.70        0.00      44.36       1.90       0.06       1.64       ----

> <Gold.Chemscore.Fitness>
16.4730

> <Gold.Chemscore.DG>
-18.1730

> <Gold.Chemscore.ZeroCoef>
-5.4800

> <Gold.Chemscore.Hbond>
3.7005

> <Gold.Chemscore.Metal>
0.0000

> <Gold.Chemscore.Lipo>
44.3557

> <Gold.Chemscore.Internal_Hbond>
0.0000

> <Gold.Chemscore.DEClash>
0.0576

> <Gold.Chemscore.DEInternal>
1.6425

> <Gold.Chemscore.Rot>
1.8969

> <Gold.Chemscore.Internal.Correction>
   9.000000E+99

> <Gold.Chemscore.Hbonds>
donor molecule, donor type, donor heavy atom, donor atom, acceptor molecule, acceptor atom, score
      L1  H     3    20       P1  7948  0.79
      L1  H    13    27       P1  7948  0.69
      P1  H  7989  7998       L1     8  0.94
      P1  H 10752 10763       L1    10  0.18

> <Gold.Chemscore.Hbond.Weighted>
-12.3596

> <Gold.Chemscore.Metal.Weighted>
-0.0000

> <Gold.Chemscore.Lipo.Weighted>
-5.1896

> <Gold.Chemscore.Internal_Hbond.Weighted>
0.0000

> <Gold.Chemscore.DEClash.Weighted>
0.0576

> <Gold.Chemscore.DEInternal.Weighted>
1.6425

> <Gold.Chemscore.Rot.Weighted>
4.8561

> <Gold.Chemscore.Internal.Correction.Weighted>
   9.000000E+99

> <Gold.Protein.RotatedTorsions>
[ 6907 6896 6895 6894 ] final  -40.09 input  -60.11 | X-H torsion
[ 7974 7965 7964 7962 ] final -168.38 input  175.53 | X-H torsion
[ 8008 7997 7996 7995 ] final  101.02 input   59.86 | X-H torsion
[ 10167 10162 10161 10158 ] final  -60.87 input  -65.29 | X-H torsion
[ 10718 10713 10712 10709 ] final   78.02 input   66.30 | X-H torsion
[ 10763 10752 10751 10750 ] final   40.72 input  -60.55 | X-H torsion
[ 11005 11000 10999 10996 ] final  152.81 input  -57.11 | X-H torsion

> <Gold.Protein.ActiveResidues>
 VAL166  LYS551  ARG553  GLY616  TRP617  ASP618  TYR619  PRO620  LYS621  CYS622 
 ASP623  PHE694  ASN695  SER759  ASP760  ASP761  ALA762  ILE779  LEU786  VAL792 
 PHE793  MET794  SER795  GLU796  ALA797  LYS798  CYS799  TRP800  GLU811  SER814 

> <Gold.Protein.RotatedAtoms>
  150.9825  134.9178  159.7852 H   0  0  0  0  0  0  0  0  0  0  0  0  # atno 6907 bound_to 6896
  152.5226  134.3390  159.9220 H   0  0  0  0  0  0  0  0  0  0  0  0  # atno 6908 bound_to 6896
  151.3397  133.3926  159.2704 H   0  0  0  0  0  0  0  0  0  0  0  0  # atno 6909 bound_to 6896
  144.7204  140.2378  143.6295 H   0  0  0  0  0  0  0  0  0  0  0  0  # atno 7974 bound_to 7965
  156.1259  140.3204  155.8277 H   0  0  0  0  0  0  0  0  0  0  0  0  # atno 8008 bound_to 7997
  155.4420  140.0526  157.3026 H   0  0  0  0  0  0  0  0  0  0  0  0  # atno 8009 bound_to 7997
  154.4862  140.2073  155.9663 H   0  0  0  0  0  0  0  0  0  0  0  0  # atno 8010 bound_to 7997
  140.6043  143.2369  151.5857 H   0  0  0  0  0  0  0  0  0  0  0  0  # atno 10167 bound_to 10162
  157.6731  130.9849  150.1726 H   0  0  0  0  0  0  0  0  0  0  0  0  # atno 10718 bound_to 10713
  152.9928  135.6183  154.2672 H   0  0  0  0  0  0  0  0  0  0  0  0  # atno 10763 bound_to 10752
  154.2406  135.2789  155.2857 H   0  0  0  0  0  0  0  0  0  0  0  0  # atno 10764 bound_to 10752
  154.5372  135.5771  153.6866 H   0  0  0  0  0  0  0  0  0  0  0  0  # atno 10765 bound_to 10752
  140.1341  134.8782  157.2244 H   0  0  0  0  0  0  0  0  0  0  0  0  # atno 11005 bound_to 11000
  145.8348  139.2102  143.1861 LP  0  0  0  0  0  0  0  0  0  0  0  0  # atno 17320 bound_to 7965
  146.0398  140.8176  142.9834 LP  0  0  0  0  0  0  0  0  0  0  0  0  # atno 17321 bound_to 7965
  139.5313  144.2907  152.1154 LP  0  0  0  0  0  0  0  0  0  0  0  0  # atno 17342 bound_to 10162
  140.2094  144.4578  150.6393 LP  0  0  0  0  0  0  0  0  0  0  0  0  # atno 17343 bound_to 10162
  156.2477  130.3697  149.8267 LP  0  0  0  0  0  0  0  0  0  0  0  0  # atno 17370 bound_to 10713
  156.6049  130.8562  151.3440 LP  0  0  0  0  0  0  0  0  0  0  0  0  # atno 17371 bound_to 10713
  140.2804  134.3356  155.7345 LP  0  0  0  0  0  0  0  0  0  0  0  0  # atno 17394 bound_to 11000
  141.2175  133.7475  156.9356 LP  0  0  0  0  0  0  0  0  0  0  0  0  # atno 17395 bound_to 11000

$$$$
