AV-unprocessed.smi:3031|AV-procd|sdf|11544|dock10
  -GOLD-   2272016493D 1   1.00000     0.00000
 Structure written by MMmdl.
 47 48  0  0  0  0  0  0  0  0  2 V2000
  154.5410  141.2279  161.5840 C   0  0  0  0  0  0  0  0  0  0  0  0
  153.5163  142.1224  160.9483 C   0  0  0  0  0  0  0  0  0  0  0  0
  152.7284  143.1289  161.5759 C   0  0  0  0  0  0  0  0  0  0  0  0
  151.9079  143.7377  160.7353 N   0  0  0  0  0  0  0  0  0  0  0  0
  152.1443  143.1465  159.5455 N   0  0  0  0  0  0  0  0  0  0  0  0
  151.3982  143.5639  158.3729 C   0  0  0  0  0  0  0  0  0  0  0  0
  150.7615  142.3839  157.6051 C   0  0  1  0  0  0  0  0  0  0  0  0
  149.4876  141.9058  158.3147 C   0  0  0  0  0  0  0  0  0  0  0  0
  150.4310  142.7654  156.2129 N   0  3  0  0  0  0  0  0  0  0  0  0
  150.1958  141.6377  155.2846 C   0  0  0  0  0  0  0  0  0  0  0  0
  148.6916  141.3926  155.0815 C   0  0  1  0  0  0  0  0  0  0  0  0
  148.1534  142.5478  154.4655 O   0  0  0  0  0  0  0  0  0  0  0  0
  148.4209  140.1764  154.1695 C   0  0  0  0  0  0  0  0  0  0  0  0
  149.1319  138.9520  154.5359 N   0  0  0  0  0  0  0  0  0  0  0  0
  149.2231  138.8146  155.9862 C   0  0  0  0  0  0  0  0  0  0  0  0
  149.9648  137.5315  156.3985 C   0  0  0  0  0  0  0  0  0  0  0  0
  151.2611  137.5221  155.8099 O   0  0  0  0  0  0  0  0  0  0  0  0
  151.2188  137.6070  154.3894 C   0  0  0  0  0  0  0  0  0  0  0  0
  150.4773  138.8880  153.9685 C   0  0  0  0  0  0  0  0  0  0  0  0
  153.1166  142.1736  159.6429 C   0  0  0  0  0  0  0  0  0  0  0  0
  155.3588  141.8016  162.0202 H   0  0  0  0  0  0  0  0  0  0  0  0
  154.9813  140.5372  160.8646 H   0  0  0  0  0  0  0  0  0  0  0  0
  154.1082  140.6261  162.3834 H   0  0  0  0  0  0  0  0  0  0  0  0
  152.7260  143.4303  162.6132 H   0  0  0  0  0  0  0  0  0  0  0  0
  150.6241  144.2596  158.7002 H   0  0  0  0  0  0  0  0  0  0  0  0
  152.0641  144.1294  157.7194 H   0  0  0  0  0  0  0  0  0  0  0  0
  151.4561  141.5423  157.5898 H   0  0  0  0  0  0  0  0  0  0  0  0
  149.7031  141.5865  159.3349 H   0  0  0  0  0  0  0  0  0  0  0  0
  149.0413  141.0579  157.7942 H   0  0  0  0  0  0  0  0  0  0  0  0
  148.7388  142.6972  158.3661 H   0  0  0  0  0  0  0  0  0  0  0  0
  149.5866  143.3194  156.2298 H   0  0  0  0  0  0  0  0  0  0  0  0
  150.6763  141.8138  154.3230 H   0  0  0  0  0  0  0  0  0  0  0  0
  150.6664  140.7511  155.7113 H   0  0  0  0  0  0  0  0  0  0  0  0
  148.2195  141.2440  156.0541 H   0  0  0  0  0  0  0  0  0  0  0  0
  148.4304  143.3081  154.9542 H   0  0  0  0  0  0  0  0  0  0  0  0
  147.3487  139.9874  154.0900 H   0  0  0  0  0  0  0  0  0  0  0  0
  148.7387  140.4463  153.1615 H   0  0  0  0  0  0  0  0  0  0  0  0
  149.7395  139.6782  156.4079 H   0  0  0  0  0  0  0  0  0  0  0  0
  148.2233  138.8065  156.4218 H   0  0  0  0  0  0  0  0  0  0  0  0
  150.0651  137.4828  157.4828 H   0  0  0  0  0  0  0  0  0  0  0  0
  149.4087  136.6458  156.0872 H   0  0  0  0  0  0  0  0  0  0  0  0
  152.2374  137.6135  154.0015 H   0  0  0  0  0  0  0  0  0  0  0  0
  150.7259  136.7239  153.9803 H   0  0  0  0  0  0  0  0  0  0  0  0
  150.4297  138.9200  152.8804 H   0  0  0  0  0  0  0  0  0  0  0  0
  151.0537  139.7592  154.2832 H   0  0  0  0  0  0  0  0  0  0  0  0
  153.4338  141.5967  158.7864 H   0  0  0  0  0  0  0  0  0  0  0  0
  151.1795  143.3389  155.8503 H   0  0  0  0  0  0  0  0  0  0  0  0
  1  2  1  0  0  0  0
  1 21  1  0  0  0  0
  1 22  1  0  0  0  0
  1 23  1  0  0  0  0
  2 20  2  0  0  0  0
  2  3  1  0  0  0  0
  3  4  2  0  0  0  0
  3 24  1  0  0  0  0
  4  5  1  0  0  0  0
  5  6  1  0  0  0  0
  5 20  1  0  0  0  0
  6  7  1  0  0  0  0
  6 25  1  0  0  0  0
  6 26  1  0  0  0  0
  7  8  1  0  0  0  0
  7  9  1  0  0  0  0
  7 27  1  0  0  0  0
  8 28  1  0  0  0  0
  8 29  1  0  0  0  0
  8 30  1  0  0  0  0
  9 10  1  0  0  0  0
  9 31  1  0  0  0  0
  9 47  1  0  0  0  0
 10 11  1  0  0  0  0
 10 32  1  0  0  0  0
 10 33  1  0  0  0  0
 11 12  1  0  0  0  0
 11 13  1  0  0  0  0
 11 34  1  0  0  0  0
 12 35  1  0  0  0  0
 13 14  1  0  0  0  0
 13 36  1  0  0  0  0
 13 37  1  0  0  0  0
 14 19  1  0  0  0  0
 14 15  1  0  0  0  0
 15 16  1  0  0  0  0
 15 38  1  0  0  0  0
 15 39  1  0  0  0  0
 16 17  1  0  0  0  0
 16 40  1  0  0  0  0
 16 41  1  0  0  0  0
 17 18  1  0  0  0  0
 18 19  1  0  0  0  0
 18 42  1  0  0  0  0
 18 43  1  0  0  0  0
 19 44  1  0  0  0  0
 19 45  1  0  0  0  0
 20 46  1  0  0  0  0
M  CHG  1   9   1
M  END
> <s_m_source_file>
AV-unprocessed.smi

> <i_m_source_file_index>
3031

> <i_lp_mmshare_version>
43012

> <i_f3d_flags>
0

> <s_epik_input>
W0NIM11jMVtjSF1ubihbY0hdMSlbQ0gyXVtDQEhdKFtDSDNdKVtOSF1bQ0gyXVtDQEhdKFtPSF0pW0NIMl1OMltDSDJdW0NIMl1PW0NIMl1bQ0gyXTI=

> <s_epik_cmdline>
J2VwaWtfcHl0aG9uJywgJy1waCcsICc3LjAnLCAnLXRuJywgJzgnLCAnLW1hJywgJzIwMCcsICctbWV0YWxfYmluZGluZycsICctaW1hZScsICc8aW5maWxlLm1hZT4nLCAnLW9tYWUnLCAnPG91dGZpbGUubWFlPic=

> <r_lp_tautomer_probability>
1

> <r_epik_Ionization_Penalty>
0.108564

> <r_epik_Ionization_Penalty_Charging>
0.01811

> <r_epik_Ionization_Penalty_Neutral>
0.0904541

> <r_epik_State_Penalty>
0.141043

> <r_epik_Charging_Adjusted_Penalty>
0.159153

> <i_epik_Tot_Q>
1

> <i_epik_Tot_abs_Q>
1

> <r_epik_Metal_State_Penalty>
0.141052

> <b_epik_Metal_Only>
0

> <s_lp_Force_Field>
OPLS_2005

> <r_lp_Energy>
31.0841

> <b_lp_Chiralities_Consistent>
1

> <s_lp_Variant>
AV-unprocessed.smi:3031-4

> <Gold.Version>
5.8.1

> <Gold.Id.Protein>
6NUR|6NUR_protein|mol2

> <Gold.PLP.Fitness>
48.4346

> <Gold.PLP.PLP>
-41.3030

> <Gold.PLP.part.hbond>
-3.2535

> <Gold.PLP.part.metal>
0.0000

> <Gold.PLP.part.buried>
-4.3216

> <Gold.PLP.part.nonpolar>
-33.9092

> <Gold.PLP.part.repulsive>
0.3805

> <Gold.PLP.ligand.clash>
0.0000

> <Gold.PLP.ligand.torsion>
0.9933

> <Gold.PLP.Chemscore.Hbond>
3.0000

> <Gold.PLP.Chemscore.CHOScore>
0.0000

> <Gold.PLP.Chemscore.Metal>
0.0000

> <Gold.Chemscore.Hbonds>
donor molecule, donor type, donor heavy atom, donor atom, acceptor molecule, acceptor atom, score
      L1  H     9    31       P1  8028  1.76
      L1  H    12    35       P1  8028  1.00

> <Gold.PLP.Chemscore.Internal.Correction>
0.1182

> <Gold.Rescore>
     Score         DG    S(hbond)    S(metal)    S(lipo)     H(rot)  DE(clash)    DE(int)     intcor
     16.22     -17.41       1.98        0.00     102.82       2.63       0.19       1.00       ----

> <Gold.Chemscore.Fitness>
16.2249

> <Gold.Chemscore.DG>
-17.4108

> <Gold.Chemscore.ZeroCoef>
-5.4800

> <Gold.Chemscore.Hbond>
1.9839

> <Gold.Chemscore.Metal>
0.0000

> <Gold.Chemscore.Lipo>
102.8177

> <Gold.Chemscore.Internal_Hbond>
0.0000

> <Gold.Chemscore.DEClash>
0.1868

> <Gold.Chemscore.DEInternal>
0.9991

> <Gold.Chemscore.Rot>
2.6270

> <Gold.Chemscore.Internal.Correction>
   9.000000E+99

> <Gold.Chemscore.Hbonds>
donor molecule, donor type, donor heavy atom, donor atom, acceptor molecule, acceptor atom, score
      L1  H     9    31       P1  8028  0.86
      L1  H    12    35       P1  8028  0.99

> <Gold.Chemscore.Hbond.Weighted>
-6.6262

> <Gold.Chemscore.Metal.Weighted>
-0.0000

> <Gold.Chemscore.Lipo.Weighted>
-12.0297

> <Gold.Chemscore.Internal_Hbond.Weighted>
0.0000

> <Gold.Chemscore.DEClash.Weighted>
0.1868

> <Gold.Chemscore.DEInternal.Weighted>
0.9991

> <Gold.Chemscore.Rot.Weighted>
6.7251

> <Gold.Chemscore.Internal.Correction.Weighted>
   9.000000E+99

> <Gold.Protein.RotatedTorsions>
[ 6907 6896 6895 6894 ] final   80.33 input  -60.11 | X-H torsion
[ 7974 7965 7964 7962 ] final   42.30 input  175.53 | X-H torsion
[ 8008 7997 7996 7995 ] final  -83.88 input   59.86 | X-H torsion
[ 10167 10162 10161 10158 ] final  -12.04 input  -65.29 | X-H torsion
[ 10718 10713 10712 10709 ] final   83.64 input   66.30 | X-H torsion
[ 10763 10752 10751 10750 ] final  -30.46 input  -60.55 | X-H torsion
[ 11005 11000 10999 10996 ] final   49.14 input  -57.11 | X-H torsion

> <Gold.Protein.ActiveResidues>
 VAL166  LYS551  ARG553  GLY616  TRP617  ASP618  TYR619  PRO620  LYS621  CYS622 
 ASP623  PHE694  ASN695  SER759  ASP760  ASP761  ALA762  ILE779  LEU786  VAL792 
 PHE793  MET794  SER795  GLU796  ALA797  LYS798  CYS799  TRP800  GLU811  SER814 

> <Gold.Protein.RotatedAtoms>
  152.5231  134.3373  159.9204 H   0  0  0  0  0  0  0  0  0  0  0  0  # atno 6907 bound_to 6896
  151.3323  133.3989  159.2671 H   0  0  0  0  0  0  0  0  0  0  0  0  # atno 6908 bound_to 6896
  150.9870  134.9231  159.7935 H   0  0  0  0  0  0  0  0  0  0  0  0  # atno 6909 bound_to 6896
  146.0752  139.5317  142.9572 H   0  0  0  0  0  0  0  0  0  0  0  0  # atno 7974 bound_to 7965
  154.6238  140.0612  156.9648 H   0  0  0  0  0  0  0  0  0  0  0  0  # atno 8008 bound_to 7997
  155.1774  140.3296  155.4363 H   0  0  0  0  0  0  0  0  0  0  0  0  # atno 8009 bound_to 7997
  156.2446  140.1903  156.6873 H   0  0  0  0  0  0  0  0  0  0  0  0  # atno 8010 bound_to 7997
  140.7152  143.5575  150.9232 H   0  0  0  0  0  0  0  0  0  0  0  0  # atno 10167 bound_to 10162
  157.6883  131.0099  150.2553 H   0  0  0  0  0  0  0  0  0  0  0  0  # atno 10718 bound_to 10713
  153.7814  135.6905  153.4888 H   0  0  0  0  0  0  0  0  0  0  0  0  # atno 10763 bound_to 10752
  153.1809  135.4507  155.0025 H   0  0  0  0  0  0  0  0  0  0  0  0  # atno 10764 bound_to 10752
  154.8080  135.3365  154.7316 H   0  0  0  0  0  0  0  0  0  0  0  0  # atno 10765 bound_to 10752
  140.1129  134.4930  155.8662 H   0  0  0  0  0  0  0  0  0  0  0  0  # atno 11005 bound_to 11000
  145.6319  141.0302  143.1859 LP  0  0  0  0  0  0  0  0  0  0  0  0  # atno 17320 bound_to 7965
  144.7257  139.7884  143.7366 LP  0  0  0  0  0  0  0  0  0  0  0  0  # atno 17321 bound_to 7965
  139.9300  143.6504  152.3078 LP  0  0  0  0  0  0  0  0  0  0  0  0  # atno 17342 bound_to 10162
  139.6951  144.7642  151.1370 LP  0  0  0  0  0  0  0  0  0  0  0  0  # atno 17343 bound_to 10162
  156.3142  130.3776  149.7633 LP  0  0  0  0  0  0  0  0  0  0  0  0  # atno 17370 bound_to 10713
  156.5224  130.8221  151.3208 LP  0  0  0  0  0  0  0  0  0  0  0  0  # atno 17371 bound_to 10713
  141.2134  133.6733  156.6741 LP  0  0  0  0  0  0  0  0  0  0  0  0  # atno 17394 bound_to 11000
  140.3066  134.8120  157.4142 LP  0  0  0  0  0  0  0  0  0  0  0  0  # atno 17395 bound_to 11000

$$$$
