AV-unprocessed.smi:2355|AV-procd|sdf|9388|dock5
  -GOLD-   2272013 23D 1   1.00000     0.00000
 Structure written by MMmdl.
 48 49  0  0  0  0  0  0  0  0  1 V2000
  150.9811  145.4787  160.2905 C   0  0  0  0  0  0  0  0  0  0  0  0
  151.7567  144.2036  160.5464 C   0  0  0  0  0  0  0  0  0  0  0  0
  152.3188  143.9397  161.8102 C   0  0  0  0  0  0  0  0  0  0  0  0
  153.0283  142.7352  161.9834 C   0  0  0  0  0  0  0  0  0  0  0  0
  153.6557  142.3851  163.3163 C   0  0  0  0  0  0  0  0  0  0  0  0
  153.1924  141.8282  160.9968 N   0  0  0  0  0  0  0  0  0  0  0  0
  152.6564  142.0722  159.7751 C   0  0  0  0  0  0  0  0  0  0  0  0
  152.7757  141.1870  158.6710 N   0  0  0  0  0  0  0  0  0  0  0  0
  151.9733  141.0853  157.5968 C   0  0  0  0  0  0  0  0  0  0  0  0
  150.9840  141.7854  157.3785 O   0  0  0  0  0  0  0  0  0  0  0  0
  152.3872  140.1083  156.7767 N   0  0  0  0  0  0  0  0  0  0  0  0
  151.7302  139.6954  155.5365 C   0  0  1  0  0  0  0  0  0  0  0  0
  152.6779  138.7975  154.7209 C   0  0  0  0  0  0  0  0  0  0  0  0
  150.3337  139.0647  155.8366 C   0  0  1  0  0  0  0  0  0  0  0  0
  150.3963  138.2492  157.1544 C   0  0  0  0  0  0  0  0  0  0  0  0
  149.2198  140.0469  155.8271 N   0  0  0  0  0  0  0  0  0  0  0  0
  149.0404  140.7045  154.5265 C   0  0  0  0  0  0  0  0  0  0  0  0
  147.8702  141.7029  154.5177 C   0  0  0  0  0  0  0  0  0  0  0  0
  146.6723  141.0402  154.8968 O   0  0  0  0  0  0  0  0  0  0  0  0
  146.7736  140.4562  156.1879 C   0  0  0  0  0  0  0  0  0  0  0  0
  147.9362  139.4488  156.2125 C   0  0  0  0  0  0  0  0  0  0  0  0
  151.9290  143.2558  159.5176 C   0  0  0  0  0  0  0  0  0  0  0  0
  150.9620  146.1168  161.1744 H   0  0  0  0  0  0  0  0  0  0  0  0
  149.9524  145.2454  160.0153 H   0  0  0  0  0  0  0  0  0  0  0  0
  151.4366  146.0404  159.4746 H   0  0  0  0  0  0  0  0  0  0  0  0
  152.2091  144.6409  162.6247 H   0  0  0  0  0  0  0  0  0  0  0  0
  153.5762  143.2136  164.0206 H   0  0  0  0  0  0  0  0  0  0  0  0
  154.7123  142.1472  163.1893 H   0  0  0  0  0  0  0  0  0  0  0  0
  153.1577  141.5184  163.7514 H   0  0  0  0  0  0  0  0  0  0  0  0
  153.5548  140.5468  158.7106 H   0  0  0  0  0  0  0  0  0  0  0  0
  153.2091  139.5862  157.0425 H   0  0  0  0  0  0  0  0  0  0  0  0
  151.5800  140.5591  154.8905 H   0  0  0  0  0  0  0  0  0  0  0  0
  152.1798  138.3996  153.8365 H   0  0  0  0  0  0  0  0  0  0  0  0
  153.0608  137.9587  155.3015 H   0  0  0  0  0  0  0  0  0  0  0  0
  153.5436  139.3662  154.3791 H   0  0  0  0  0  0  0  0  0  0  0  0
  150.1437  138.3467  155.0371 H   0  0  0  0  0  0  0  0  0  0  0  0
  151.2327  137.5534  157.1724 H   0  0  0  0  0  0  0  0  0  0  0  0
  149.5154  137.6247  157.2945 H   0  0  0  0  0  0  0  0  0  0  0  0
  150.4877  138.8994  158.0250 H   0  0  0  0  0  0  0  0  0  0  0  0
  149.9294  141.2690  154.2528 H   0  0  0  0  0  0  0  0  0  0  0  0
  148.8855  139.9546  153.7495 H   0  0  0  0  0  0  0  0  0  0  0  0
  148.0672  142.5342  155.1967 H   0  0  0  0  0  0  0  0  0  0  0  0
  147.7425  142.1273  153.5219 H   0  0  0  0  0  0  0  0  0  0  0  0
  146.9201  141.2347  156.9384 H   0  0  0  0  0  0  0  0  0  0  0  0
  145.8346  139.9560  156.4252 H   0  0  0  0  0  0  0  0  0  0  0  0
  147.7045  138.6128  155.5508 H   0  0  0  0  0  0  0  0  0  0  0  0
  147.9862  139.0485  157.2233 H   0  0  0  0  0  0  0  0  0  0  0  0
  151.5064  143.4385  158.5399 H   0  0  0  0  0  0  0  0  0  0  0  0
  1  2  1  0  0  0  0
  1 23  1  0  0  0  0
  1 24  1  0  0  0  0
  1 25  1  0  0  0  0
  2 22  1  0  0  0  0
  2  3  2  0  0  0  0
  3  4  1  0  0  0  0
  3 26  1  0  0  0  0
  4  5  1  0  0  0  0
  4  6  2  0  0  0  0
  5 27  1  0  0  0  0
  5 28  1  0  0  0  0
  5 29  1  0  0  0  0
  6  7  1  0  0  0  0
  7  8  1  0  0  0  0
  7 22  2  0  0  0  0
  8  9  1  0  0  0  0
  8 30  1  0  0  0  0
  9 10  2  0  0  0  0
  9 11  1  0  0  0  0
 11 12  1  0  0  0  0
 11 31  1  0  0  0  0
 12 13  1  0  0  0  0
 12 14  1  0  0  0  0
 12 32  1  0  0  0  0
 13 33  1  0  0  0  0
 13 34  1  0  0  0  0
 13 35  1  0  0  0  0
 14 15  1  0  0  0  0
 14 16  1  0  0  0  0
 14 36  1  0  0  0  0
 15 37  1  0  0  0  0
 15 38  1  0  0  0  0
 15 39  1  0  0  0  0
 16 21  1  0  0  0  0
 16 17  1  0  0  0  0
 17 18  1  0  0  0  0
 17 40  1  0  0  0  0
 17 41  1  0  0  0  0
 18 19  1  0  0  0  0
 18 42  1  0  0  0  0
 18 43  1  0  0  0  0
 19 20  1  0  0  0  0
 20 21  1  0  0  0  0
 20 44  1  0  0  0  0
 20 45  1  0  0  0  0
 21 46  1  0  0  0  0
 21 47  1  0  0  0  0
 22 48  1  0  0  0  0
M  END
> <s_m_source_file>
AV-unprocessed.smi

> <i_m_source_file_index>
2355

> <i_lp_mmshare_version>
43012

> <i_f3d_flags>
0

> <s_epik_input>
W0NIM11jMVtjSF1jKFtDSDNdKW5jKFtjSF0xKVtOSF1DKD1PKVtOSF1bQ0BIXShbQ0gzXSlbQ0BIXShbQ0gzXSlOMltDSDJdW0NIMl1PW0NIMl1bQ0gyXTI=

> <s_epik_cmdline>
J2VwaWtfcHl0aG9uJywgJy1waCcsICc3LjAnLCAnLXRuJywgJzgnLCAnLW1hJywgJzIwMCcsICctbWV0YWxfYmluZGluZycsICctaW1hZScsICc8aW5maWxlLm1hZT4nLCAnLW9tYWUnLCAnPG91dGZpbGUubWFlPic=

> <r_epik_Ionization_Penalty>
0.266238

> <r_epik_Ionization_Penalty_Charging>
0

> <r_epik_Ionization_Penalty_Neutral>
0.266238

> <r_epik_State_Penalty>
0.257924

> <r_epik_Charging_Adjusted_Penalty>
0.257924

> <i_epik_Tot_Q>
0

> <i_epik_Tot_abs_Q>
0

> <r_epik_Metal_State_Penalty>
0.257904

> <b_epik_Metal_Only>
0

> <s_lp_Force_Field>
OPLS_2005

> <r_lp_Energy>
36.8304

> <b_lp_Chiralities_Consistent>
1

> <s_lp_Variant>
AV-unprocessed.smi:2355-4

> <Gold.Version>
5.8.1

> <Gold.Id.Protein>
6NUR|6NUR_protein|mol2

> <Gold.PLP.Fitness>
41.4545

> <Gold.PLP.PLP>
-43.3631

> <Gold.PLP.part.hbond>
0.0000

> <Gold.PLP.part.metal>
0.0000

> <Gold.PLP.part.buried>
-6.7947

> <Gold.PLP.part.nonpolar>
-37.0422

> <Gold.PLP.part.repulsive>
1.3035

> <Gold.PLP.ligand.clash>
0.0000

> <Gold.PLP.ligand.torsion>
1.0006

> <Gold.PLP.Chemscore.Hbond>
0.0000

> <Gold.PLP.Chemscore.CHOScore>
0.0000

> <Gold.PLP.Chemscore.Metal>
0.0000

> <Gold.PLP.Chemscore.Internal.Correction>
0.0926

> <Gold.Rescore>
     Score         DG    S(hbond)    S(metal)    S(lipo)     H(rot)  DE(clash)    DE(int)     intcor
     11.25     -14.81       0.00        0.00     110.41       1.40       0.00       3.56       ----

> <Gold.Chemscore.Fitness>
11.2495

> <Gold.Chemscore.DG>
-14.8104

> <Gold.Chemscore.ZeroCoef>
-5.4800

> <Gold.Chemscore.Hbond>
0.0000

> <Gold.Chemscore.Metal>
0.0000

> <Gold.Chemscore.Lipo>
110.4119

> <Gold.Chemscore.Internal_Hbond>
0.0000

> <Gold.Chemscore.DEClash>
0.0048

> <Gold.Chemscore.DEInternal>
3.5561

> <Gold.Chemscore.Rot>
1.4015

> <Gold.Chemscore.Internal.Correction>
   9.000000E+99

> <Gold.Chemscore.Hbond.Weighted>
-0.0000

> <Gold.Chemscore.Metal.Weighted>
-0.0000

> <Gold.Chemscore.Lipo.Weighted>
-12.9182

> <Gold.Chemscore.Internal_Hbond.Weighted>
0.0000

> <Gold.Chemscore.DEClash.Weighted>
0.0048

> <Gold.Chemscore.DEInternal.Weighted>
3.5561

> <Gold.Chemscore.Rot.Weighted>
3.5878

> <Gold.Chemscore.Internal.Correction.Weighted>
   9.000000E+99

> <Gold.Protein.RotatedTorsions>
[ 6907 6896 6895 6894 ] final  157.55 input  -60.11 | X-H torsion
[ 7974 7965 7964 7962 ] final  -29.55 input  175.53 | X-H torsion
[ 8008 7997 7996 7995 ] final   65.35 input   59.86 | X-H torsion
[ 10167 10162 10161 10158 ] final   31.13 input  -65.29 | X-H torsion
[ 10718 10713 10712 10709 ] final -170.72 input   66.30 | X-H torsion
[ 10763 10752 10751 10750 ] final -141.98 input  -60.55 | X-H torsion
[ 11005 11000 10999 10996 ] final   -6.18 input  -57.11 | X-H torsion

> <Gold.Protein.ActiveResidues>
 VAL166  LYS551  ARG553  GLY616  TRP617  ASP618  TYR619  PRO620  LYS621  CYS622 
 ASP623  PHE694  ASN695  SER759  ASP760  ASP761  ALA762  ILE779  LEU786  VAL792 
 PHE793  MET794  SER795  GLU796  ALA797  LYS798  CYS799  TRP800  GLU811  SER814 

> <Gold.Protein.RotatedAtoms>
  152.0135  133.3870  159.4229 H   0  0  0  0  0  0  0  0  0  0  0  0  # atno 6907 bound_to 6896
  150.6897  134.3704  159.4999 H   0  0  0  0  0  0  0  0  0  0  0  0  # atno 6908 bound_to 6896
  152.1468  134.9019  160.0601 H   0  0  0  0  0  0  0  0  0  0  0  0  # atno 6909 bound_to 6896
  146.1208  140.5427  142.8736 H   0  0  0  0  0  0  0  0  0  0  0  0  # atno 7974 bound_to 7965
  155.6604  140.3497  155.4780 H   0  0  0  0  0  0  0  0  0  0  0  0  # atno 8008 bound_to 7997
  155.9773  140.1167  157.0781 H   0  0  0  0  0  0  0  0  0  0  0  0  # atno 8009 bound_to 7997
  154.4182  140.1145  156.5374 H   0  0  0  0  0  0  0  0  0  0  0  0  # atno 8010 bound_to 7997
  140.4616  144.0898  150.6214 H   0  0  0  0  0  0  0  0  0  0  0  0  # atno 10167 bound_to 10162
  156.7303  130.9304  151.3104 H   0  0  0  0  0  0  0  0  0  0  0  0  # atno 10718 bound_to 10713
  154.8526  135.3509  154.5955 H   0  0  0  0  0  0  0  0  0  0  0  0  # atno 10763 bound_to 10752
  153.6564  135.6991  153.5196 H   0  0  0  0  0  0  0  0  0  0  0  0  # atno 10764 bound_to 10752
  153.2853  135.4251  155.1074 H   0  0  0  0  0  0  0  0  0  0  0  0  # atno 10765 bound_to 10752
  140.6992  133.9004  155.8671 H   0  0  0  0  0  0  0  0  0  0  0  0  # atno 11005 bound_to 11000
  144.7595  140.5389  143.6745 LP  0  0  0  0  0  0  0  0  0  0  0  0  # atno 17320 bound_to 7965
  145.5470  139.1476  143.3415 LP  0  0  0  0  0  0  0  0  0  0  0  0  # atno 17321 bound_to 7965
  140.4087  143.2668  151.9860 LP  0  0  0  0  0  0  0  0  0  0  0  0  # atno 17342 bound_to 10162
  139.4807  144.5935  151.7731 LP  0  0  0  0  0  0  0  0  0  0  0  0  # atno 17343 bound_to 10162
  157.6861  130.9187  150.0391 LP  0  0  0  0  0  0  0  0  0  0  0  0  # atno 17370 bound_to 10713
  156.1533  130.3643  149.9406 LP  0  0  0  0  0  0  0  0  0  0  0  0  # atno 17371 bound_to 10713
  141.0177  134.0932  157.4154 LP  0  0  0  0  0  0  0  0  0  0  0  0  # atno 17394 bound_to 11000
  139.8901  135.0110  156.6719 LP  0  0  0  0  0  0  0  0  0  0  0  0  # atno 17395 bound_to 11000

$$$$
