AV-unprocessed.smi:2187|AV-procd|sdf|8878|dock10
  -GOLD-   2272012 73D 1   1.00000     0.00000
 Structure written by MMmdl.
 42 43  0  0  0  0  0  0  0  0  1 V2000
  148.6285  140.3484  154.2795 C   0  0  0  0  0  0  0  0  0  0  0  0
  149.7184  139.3954  154.6799 C   0  0  0  0  0  0  0  0  0  0  0  0
  150.9790  139.7332  154.4662 N   0  0  0  0  0  0  0  0  0  0  0  0
  151.6989  138.6951  154.9364 N   0  0  0  0  0  0  0  0  0  0  0  0
  153.1460  138.7447  154.8597 C   0  0  0  0  0  0  0  0  0  0  0  0
  150.8911  137.7011  155.4543 C   0  0  0  0  0  0  0  0  0  0  0  0
  151.4489  136.4488  156.0502 C   0  0  0  0  0  0  0  0  0  0  0  0
  149.5952  138.1174  155.3017 C   0  0  0  0  0  0  0  0  0  0  0  0
  148.3274  137.4057  155.7019 C   0  0  0  0  0  0  0  0  0  0  0  0
  148.4232  136.9760  157.1653 C   0  0  0  0  0  0  0  0  0  0  0  0
  149.3039  137.4421  157.8880 O   0  0  0  0  0  0  0  0  0  0  0  0
  147.5069  136.0906  157.5868 N   0  0  0  0  0  0  0  0  0  0  0  0
  147.3751  135.5762  158.9491 C   0  0  2  0  0  0  0  0  0  0  0  0
  147.4893  136.7247  159.9843 C   0  0  0  0  0  0  0  0  0  0  0  0
  147.9406  136.3164  161.4026 C   0  0  0  0  0  0  0  0  0  0  0  0
  147.1243  135.1847  162.0598 C   0  0  0  0  0  0  0  0  0  0  0  0
  147.0102  133.8578  161.2705 C   0  0  0  0  0  0  0  0  0  0  0  0
  148.0843  133.6346  160.3036 N   0  0  0  0  0  0  0  0  0  0  0  0
  148.3001  134.3692  159.1987 C   0  0  0  0  0  0  0  0  0  0  0  0
  149.2174  134.1060  158.4218 O   0  0  0  0  0  0  0  0  0  0  0  0
  148.3351  140.9773  155.1198 H   0  0  0  0  0  0  0  0  0  0  0  0
  147.7416  139.8146  153.9391 H   0  0  0  0  0  0  0  0  0  0  0  0
  148.9466  141.0052  153.4690 H   0  0  0  0  0  0  0  0  0  0  0  0
  153.5370  137.7693  154.5696 H   0  0  0  0  0  0  0  0  0  0  0  0
  153.5530  139.0172  155.8333 H   0  0  0  0  0  0  0  0  0  0  0  0
  153.4649  139.4816  154.1216 H   0  0  0  0  0  0  0  0  0  0  0  0
  150.6793  135.8841  156.5760 H   0  0  0  0  0  0  0  0  0  0  0  0
  152.2386  136.6764  156.7665 H   0  0  0  0  0  0  0  0  0  0  0  0
  151.8677  135.8059  155.2760 H   0  0  0  0  0  0  0  0  0  0  0  0
  147.4512  138.0410  155.5671 H   0  0  0  0  0  0  0  0  0  0  0  0
  148.1516  136.5240  155.0848 H   0  0  0  0  0  0  0  0  0  0  0  0
  146.8201  135.7691  156.9200 H   0  0  0  0  0  0  0  0  0  0  0  0
  146.3629  135.1758  159.0179 H   0  0  0  0  0  0  0  0  0  0  0  0
  148.1954  137.4719  159.6188 H   0  0  0  0  0  0  0  0  0  0  0  0
  146.5285  137.2369  160.0481 H   0  0  0  0  0  0  0  0  0  0  0  0
  148.9940  136.0338  161.3802 H   0  0  0  0  0  0  0  0  0  0  0  0
  147.8988  137.1955  162.0466 H   0  0  0  0  0  0  0  0  0  0  0  0
  147.5830  134.9697  163.0256 H   0  0  0  0  0  0  0  0  0  0  0  0
  146.1211  135.5450  162.2901 H   0  0  0  0  0  0  0  0  0  0  0  0
  146.9970  133.0201  161.9681 H   0  0  0  0  0  0  0  0  0  0  0  0
  146.0513  133.8125  160.7532 H   0  0  0  0  0  0  0  0  0  0  0  0
  148.6991  132.8523  160.4759 H   0  0  0  0  0  0  0  0  0  0  0  0
  1  2  1  0  0  0  0
  1 21  1  0  0  0  0
  1 22  1  0  0  0  0
  1 23  1  0  0  0  0
  2  8  1  0  0  0  0
  2  3  2  0  0  0  0
  3  4  1  0  0  0  0
  4  5  1  0  0  0  0
  4  6  1  0  0  0  0
  5 24  1  0  0  0  0
  5 25  1  0  0  0  0
  5 26  1  0  0  0  0
  6  7  1  0  0  0  0
  6  8  2  0  0  0  0
  7 27  1  0  0  0  0
  7 28  1  0  0  0  0
  7 29  1  0  0  0  0
  8  9  1  0  0  0  0
  9 10  1  0  0  0  0
  9 30  1  0  0  0  0
  9 31  1  0  0  0  0
 10 11  2  0  0  0  0
 10 12  1  0  0  0  0
 12 13  1  0  0  0  0
 12 32  1  0  0  0  0
 13 19  1  0  0  0  0
 13 14  1  0  0  0  0
 13 33  1  0  0  0  0
 14 15  1  0  0  0  0
 14 34  1  0  0  0  0
 14 35  1  0  0  0  0
 15 16  1  0  0  0  0
 15 36  1  0  0  0  0
 15 37  1  0  0  0  0
 16 17  1  0  0  0  0
 16 38  1  0  0  0  0
 16 39  1  0  0  0  0
 17 18  1  0  0  0  0
 17 40  1  0  0  0  0
 17 41  1  0  0  0  0
 18 19  1  0  0  0  0
 18 42  1  0  0  0  0
 19 20  2  0  0  0  0
M  END
> <s_m_source_file>
AV-unprocessed.smi

> <i_m_source_file_index>
2187

> <i_lp_mmshare_version>
43012

> <i_f3d_flags>
0

> <s_epik_input>
W0NIM11jMW5uKFtDSDNdKWMoW0NIM10pYzFbQ0gyXUMoPU8pW05IXVtDQEBIXTJbQ0gyXVtDSDJdW0NIMl1bQ0gyXVtOSF1DMj1P

> <s_epik_cmdline>
J2VwaWtfcHl0aG9uJywgJy1waCcsICc3LjAnLCAnLXRuJywgJzgnLCAnLW1hJywgJzIwMCcsICctbWV0YWxfYmluZGluZycsICctaW1hZScsICc8aW5maWxlLm1hZT4nLCAnLW9tYWUnLCAnPG91dGZpbGUubWFlPic=

> <r_lp_tautomer_probability>
1

> <r_epik_Ionization_Penalty>
0.00280384

> <r_epik_Ionization_Penalty_Charging>
0

> <r_epik_Ionization_Penalty_Neutral>
0.00280384

> <r_epik_State_Penalty>
0.00195959

> <r_epik_Charging_Adjusted_Penalty>
0.00195959

> <i_epik_Tot_Q>
0

> <i_epik_Tot_abs_Q>
0

> <r_epik_Metal_State_Penalty>
-0

> <b_epik_Metal_Only>
0

> <s_lp_Force_Field>
OPLS_2005

> <r_lp_Energy>
9.17358

> <b_lp_Chiralities_Consistent>
1

> <s_lp_Variant>
AV-unprocessed.smi:2187-1

> <Gold.Version>
5.8.1

> <Gold.Id.Protein>
6NUR|6NUR_protein|mol2

> <Gold.PLP.Fitness>
34.5320

> <Gold.PLP.PLP>
-29.4923

> <Gold.PLP.part.hbond>
-2.0000

> <Gold.PLP.part.metal>
0.0000

> <Gold.PLP.part.buried>
-4.2021

> <Gold.PLP.part.nonpolar>
-23.5403

> <Gold.PLP.part.repulsive>
0.1943

> <Gold.PLP.ligand.clash>
0.0000

> <Gold.PLP.ligand.torsion>
0.5064

> <Gold.PLP.Chemscore.Hbond>
2.0000

> <Gold.PLP.Chemscore.CHOScore>
0.0000

> <Gold.PLP.Chemscore.Metal>
0.0000

> <Gold.Chemscore.Hbonds>
donor molecule, donor type, donor heavy atom, donor atom, acceptor molecule, acceptor atom, score
      P1  H  6896  6907       L1    20  1.00
      P1  H  7989  7998       L1     3  1.00

> <Gold.PLP.Chemscore.Internal.Correction>
0.0524

> <Gold.Rescore>
     Score         DG    S(hbond)    S(metal)    S(lipo)     H(rot)  DE(clash)    DE(int)     intcor
     14.39     -15.90       1.98        0.00      64.46       1.46       0.05       1.46       ----

> <Gold.Chemscore.Fitness>
14.3930

> <Gold.Chemscore.DG>
-15.9018

> <Gold.Chemscore.ZeroCoef>
-5.4800

> <Gold.Chemscore.Hbond>
1.9796

> <Gold.Chemscore.Metal>
0.0000

> <Gold.Chemscore.Lipo>
64.4604

> <Gold.Chemscore.Internal_Hbond>
0.0000

> <Gold.Chemscore.DEClash>
0.0487

> <Gold.Chemscore.DEInternal>
1.4601

> <Gold.Chemscore.Rot>
1.4578

> <Gold.Chemscore.Internal.Correction>
   9.000000E+99

> <Gold.Chemscore.Hbonds>
donor molecule, donor type, donor heavy atom, donor atom, acceptor molecule, acceptor atom, score
      P1  H  6896  6907       L1    20  0.70
      P1  H  7989  7998       L1     3  0.98

> <Gold.Chemscore.Hbond.Weighted>
-6.6120

> <Gold.Chemscore.Metal.Weighted>
-0.0000

> <Gold.Chemscore.Lipo.Weighted>
-7.5419

> <Gold.Chemscore.Internal_Hbond.Weighted>
0.0000

> <Gold.Chemscore.DEClash.Weighted>
0.0487

> <Gold.Chemscore.DEInternal.Weighted>
1.4601

> <Gold.Chemscore.Rot.Weighted>
3.7321

> <Gold.Chemscore.Internal.Correction.Weighted>
   9.000000E+99

> <Gold.Protein.RotatedTorsions>
[ 6907 6896 6895 6894 ] final -108.36 input  -60.11 | X-H torsion
[ 7974 7965 7964 7962 ] final   53.83 input  175.53 | X-H torsion
[ 8008 7997 7996 7995 ] final   80.72 input   59.86 | X-H torsion
[ 10167 10162 10161 10158 ] final   82.49 input  -65.29 | X-H torsion
[ 10718 10713 10712 10709 ] final   85.06 input   66.30 | X-H torsion
[ 10763 10752 10751 10750 ] final -101.46 input  -60.55 | X-H torsion
[ 11005 11000 10999 10996 ] final   97.05 input  -57.11 | X-H torsion

> <Gold.Protein.ActiveResidues>
 VAL166  LYS551  ARG553  GLY616  TRP617  ASP618  TYR619  PRO620  LYS621  CYS622 
 ASP623  PHE694  ASN695  SER759  ASP760  ASP761  ALA762  ILE779  LEU786  VAL792 
 PHE793  MET794  SER795  GLU796  ALA797  LYS798  CYS799  TRP800  GLU811  SER814 

> <Gold.Protein.RotatedAtoms>
  150.7497  133.9689  159.3539 H   0  0  0  0  0  0  0  0  0  0  0  0  # atno 6907 bound_to 6896
  151.7621  135.0805  160.0356 H   0  0  0  0  0  0  0  0  0  0  0  0  # atno 6908 bound_to 6896
  152.3396  133.6014  159.5903 H   0  0  0  0  0  0  0  0  0  0  0  0  # atno 6909 bound_to 6896
  145.9671  139.4113  143.0213 H   0  0  0  0  0  0  0  0  0  0  0  0  # atno 7974 bound_to 7965
  155.8873  140.3441  155.5931 H   0  0  0  0  0  0  0  0  0  0  0  0  # atno 8008 bound_to 7997
  155.7651  140.0838  157.2155 H   0  0  0  0  0  0  0  0  0  0  0  0  # atno 8009 bound_to 7997
  154.4030  140.1528  156.2865 H   0  0  0  0  0  0  0  0  0  0  0  0  # atno 8010 bound_to 7997
  139.9282  144.6169  150.8371 H   0  0  0  0  0  0  0  0  0  0  0  0  # atno 10167 bound_to 10162
  157.6908  131.0159  150.2766 H   0  0  0  0  0  0  0  0  0  0  0  0  # atno 10718 bound_to 10713
  154.7659  135.4897  153.9554 H   0  0  0  0  0  0  0  0  0  0  0  0  # atno 10763 bound_to 10752
  153.1307  135.6752  153.9190 H   0  0  0  0  0  0  0  0  0  0  0  0  # atno 10764 bound_to 10752
  153.8894  135.3122  155.3426 H   0  0  0  0  0  0  0  0  0  0  0  0  # atno 10765 bound_to 10752
  139.8778  134.8982  156.4250 H   0  0  0  0  0  0  0  0  0  0  0  0  # atno 11005 bound_to 11000
  145.7959  140.9793  143.1024 LP  0  0  0  0  0  0  0  0  0  0  0  0  # atno 17320 bound_to 7965
  144.6828  139.9740  143.7482 LP  0  0  0  0  0  0  0  0  0  0  0  0  # atno 17321 bound_to 7965
  140.7644  143.3248  151.2539 LP  0  0  0  0  0  0  0  0  0  0  0  0  # atno 17342 bound_to 10162
  139.6804  143.9864  152.2805 LP  0  0  0  0  0  0  0  0  0  0  0  0  # atno 17343 bound_to 10162
  156.3319  130.3802  149.7483 LP  0  0  0  0  0  0  0  0  0  0  0  0  # atno 17370 bound_to 10713
  156.5020  130.8133  151.3136 LP  0  0  0  0  0  0  0  0  0  0  0  0  # atno 17371 bound_to 10713
  140.9107  133.7714  155.9788 LP  0  0  0  0  0  0  0  0  0  0  0  0  # atno 17394 bound_to 11000
  140.8550  134.2909  157.5259 LP  0  0  0  0  0  0  0  0  0  0  0  0  # atno 17395 bound_to 11000

$$$$
