AV-unprocessed.smi:3355|AV-procd|sdf|12963|dock1
  -GOLD-   2272019403D 1   1.00000     0.00000
 Structure written by MMmdl.
 45 46  0  0  0  0  0  0  0  0  1 V2000
  147.0857  140.7490  153.1794 C   0  0  0  0  0  0  0  0  0  0  0  0
  147.5095  141.7921  154.2193 C   0  0  0  0  0  0  0  0  0  0  0  0
  146.3604  142.6127  154.7221 C   0  0  0  0  0  0  0  0  0  0  0  0
  145.6196  143.3876  153.9196 N   0  0  0  0  0  0  0  0  0  0  0  0
  144.6630  143.9620  154.7309 N   0  0  0  0  0  0  0  0  0  0  0  0
  144.9164  143.4727  155.9432 C   0  0  0  0  0  0  0  0  0  0  0  0
  145.9549  142.6256  156.0117 N   0  0  0  0  0  0  0  0  0  0  0  0
  146.4570  141.9348  157.1871 C   0  0  0  0  0  0  0  0  0  0  0  0
  146.7751  142.9127  158.3262 C   0  0  0  0  0  0  0  0  0  0  0  0
  148.1773  143.3013  158.2864 N   0  0  0  0  0  0  0  0  0  0  0  0
  149.2071  142.4414  158.2125 C   0  0  0  0  0  0  0  0  0  0  0  0
  149.0319  141.2234  158.1440 O   0  0  0  0  0  0  0  0  0  0  0  0
  150.4357  143.0221  158.1592 N   0  0  0  0  0  0  0  0  0  0  0  0
  150.7063  144.4261  158.5354 C   0  0  0  0  0  0  0  0  0  0  0  0
  152.0650  144.6653  159.2266 C   0  0  0  0  0  0  0  0  0  0  0  0
  152.4190  143.6455  160.3259 C   0  0  0  0  0  0  0  0  0  0  0  0
  153.1387  142.3875  159.7954 C   0  0  1  0  0  0  0  0  0  0  0  0
  153.7248  141.5673  160.9551 C   0  0  0  0  0  0  0  0  0  0  0  0
  152.2505  141.4947  158.9057 C   0  0  0  0  0  0  0  0  0  0  0  0
  151.5976  142.2331  157.7231 C   0  0  0  0  0  0  0  0  0  0  0  0
  147.9475  140.1844  152.8235 H   0  0  0  0  0  0  0  0  0  0  0  0
  146.6182  141.2226  152.3156 H   0  0  0  0  0  0  0  0  0  0  0  0
  146.3731  140.0382  153.5969 H   0  0  0  0  0  0  0  0  0  0  0  0
  148.0222  141.3091  155.0494 H   0  0  0  0  0  0  0  0  0  0  0  0
  148.2406  142.4672  153.7728 H   0  0  0  0  0  0  0  0  0  0  0  0
  144.3237  143.7369  156.8069 H   0  0  0  0  0  0  0  0  0  0  0  0
  145.7362  141.1849  157.5103 H   0  0  0  0  0  0  0  0  0  0  0  0
  147.3580  141.3906  156.9004 H   0  0  0  0  0  0  0  0  0  0  0  0
  146.1528  143.8052  158.2408 H   0  0  0  0  0  0  0  0  0  0  0  0
  146.5546  142.4570  159.2915 H   0  0  0  0  0  0  0  0  0  0  0  0
  148.3835  144.2890  158.3181 H   0  0  0  0  0  0  0  0  0  0  0  0
  150.6293  145.0512  157.6449 H   0  0  0  0  0  0  0  0  0  0  0  0
  149.9517  144.7946  159.2315 H   0  0  0  0  0  0  0  0  0  0  0  0
  152.8668  144.7120  158.4889 H   0  0  0  0  0  0  0  0  0  0  0  0
  152.0368  145.6604  159.6720 H   0  0  0  0  0  0  0  0  0  0  0  0
  153.0852  144.1429  161.0320 H   0  0  0  0  0  0  0  0  0  0  0  0
  151.5308  143.3734  160.8983 H   0  0  0  0  0  0  0  0  0  0  0  0
  153.9819  142.7217  159.1890 H   0  0  0  0  0  0  0  0  0  0  0  0
  152.9403  141.2055  161.6206 H   0  0  0  0  0  0  0  0  0  0  0  0
  154.4171  142.1635  161.5504 H   0  0  0  0  0  0  0  0  0  0  0  0
  154.2747  140.7006  160.5864 H   0  0  0  0  0  0  0  0  0  0  0  0
  152.8674  140.6889  158.5060 H   0  0  0  0  0  0  0  0  0  0  0  0
  151.4844  141.0058  159.5093 H   0  0  0  0  0  0  0  0  0  0  0  0
  151.2923  141.5042  156.9702 H   0  0  0  0  0  0  0  0  0  0  0  0
  152.3255  142.8612  157.2086 H   0  0  0  0  0  0  0  0  0  0  0  0
  1  2  1  0  0  0  0
  1 21  1  0  0  0  0
  1 22  1  0  0  0  0
  1 23  1  0  0  0  0
  2  3  1  0  0  0  0
  2 24  1  0  0  0  0
  2 25  1  0  0  0  0
  3  7  1  0  0  0  0
  3  4  2  0  0  0  0
  4  5  1  0  0  0  0
  5  6  2  0  0  0  0
  6  7  1  0  0  0  0
  6 26  1  0  0  0  0
  7  8  1  0  0  0  0
  8  9  1  0  0  0  0
  8 27  1  0  0  0  0
  8 28  1  0  0  0  0
  9 10  1  0  0  0  0
  9 29  1  0  0  0  0
  9 30  1  0  0  0  0
 10 11  1  0  0  0  0
 10 31  1  0  0  0  0
 11 12  2  0  0  0  0
 11 13  1  0  0  0  0
 13 20  1  0  0  0  0
 13 14  1  0  0  0  0
 14 15  1  0  0  0  0
 14 32  1  0  0  0  0
 14 33  1  0  0  0  0
 15 16  1  0  0  0  0
 15 34  1  0  0  0  0
 15 35  1  0  0  0  0
 16 17  1  0  0  0  0
 16 36  1  0  0  0  0
 16 37  1  0  0  0  0
 17 18  1  0  0  0  0
 17 19  1  0  0  0  0
 17 38  1  0  0  0  0
 18 39  1  0  0  0  0
 18 40  1  0  0  0  0
 18 41  1  0  0  0  0
 19 20  1  0  0  0  0
 19 42  1  0  0  0  0
 19 43  1  0  0  0  0
 20 44  1  0  0  0  0
 20 45  1  0  0  0  0
M  END
> <s_m_source_file>
AV-unprocessed.smi

> <i_m_source_file_index>
3355

> <i_lp_mmshare_version>
43012

> <i_f3d_flags>
0

> <s_epik_input>
W0NIM11bQ0gyXWMxbm5bY0hdbjFbQ0gyXVtDSDJdW05IXUMoPU8pTjJbQ0gyXVtDSDJdW0NIMl1bQ0BASF0oW0NIM10pW0NIMl1bQ0gyXTI=

> <s_epik_cmdline>
J2VwaWtfcHl0aG9uJywgJy1waCcsICc3LjAnLCAnLXRuJywgJzgnLCAnLW1hJywgJzIwMCcsICctbWV0YWxfYmluZGluZycsICctaW1hZScsICc8aW5maWxlLm1hZT4nLCAnLW9tYWUnLCAnPG91dGZpbGUubWFlPic=

> <r_lp_tautomer_probability>
1

> <r_epik_Ionization_Penalty>
0.000387734

> <r_epik_Ionization_Penalty_Charging>
0

> <r_epik_Ionization_Penalty_Neutral>
0.000387734

> <r_epik_State_Penalty>
-0

> <r_epik_Charging_Adjusted_Penalty>
0

> <i_epik_Tot_Q>
0

> <i_epik_Tot_abs_Q>
0

> <r_epik_Metal_State_Penalty>
-0

> <b_epik_Metal_Only>
0

> <s_lp_Force_Field>
OPLS_2005

> <r_lp_Energy>
33.7292

> <b_lp_Chiralities_Consistent>
1

> <s_lp_Variant>
AV-unprocessed.smi:3355-1

> <Gold.Version>
5.8.1

> <Gold.Id.Protein>
6NUR|6NUR_protein|mol2

> <Gold.PLP.Fitness>
43.6633

> <Gold.PLP.PLP>
-42.1066

> <Gold.PLP.part.hbond>
-1.9989

> <Gold.PLP.part.metal>
0.0000

> <Gold.PLP.part.buried>
-6.7795

> <Gold.PLP.part.nonpolar>
-34.9710

> <Gold.PLP.part.repulsive>
0.5179

> <Gold.PLP.ligand.clash>
0.0000

> <Gold.PLP.ligand.torsion>
0.4030

> <Gold.PLP.Chemscore.Hbond>
0.7520

> <Gold.PLP.Chemscore.CHOScore>
0.0000

> <Gold.PLP.Chemscore.Metal>
0.0000

> <Gold.Chemscore.Hbonds>
donor molecule, donor type, donor heavy atom, donor atom, acceptor molecule, acceptor atom, score
      L1  H    10    31       P1  8029  0.74

> <Gold.PLP.Chemscore.Internal.Correction>
0.1067

> <Gold.Rescore>
     Score         DG    S(hbond)    S(metal)    S(lipo)     H(rot)  DE(clash)    DE(int)     intcor
     12.40     -14.17       0.62        0.00      94.55       1.74       0.03       1.74       ----

> <Gold.Chemscore.Fitness>
12.4031

> <Gold.Chemscore.DG>
-14.1742

> <Gold.Chemscore.ZeroCoef>
-5.4800

> <Gold.Chemscore.Hbond>
0.6216

> <Gold.Chemscore.Metal>
0.0000

> <Gold.Chemscore.Lipo>
94.5506

> <Gold.Chemscore.Internal_Hbond>
0.0000

> <Gold.Chemscore.DEClash>
0.0312

> <Gold.Chemscore.DEInternal>
1.7398

> <Gold.Chemscore.Rot>
1.7360

> <Gold.Chemscore.Internal.Correction>
   9.000000E+99

> <Gold.Chemscore.Hbonds>
donor molecule, donor type, donor heavy atom, donor atom, acceptor molecule, acceptor atom, score
      L1  H    10    31       P1  8029  0.35

> <Gold.Chemscore.Hbond.Weighted>
-2.0760

> <Gold.Chemscore.Metal.Weighted>
-0.0000

> <Gold.Chemscore.Lipo.Weighted>
-11.0624

> <Gold.Chemscore.Internal_Hbond.Weighted>
0.0000

> <Gold.Chemscore.DEClash.Weighted>
0.0312

> <Gold.Chemscore.DEInternal.Weighted>
1.7398

> <Gold.Chemscore.Rot.Weighted>
4.4443

> <Gold.Chemscore.Internal.Correction.Weighted>
   9.000000E+99

> <Gold.Protein.RotatedTorsions>
[ 6907 6896 6895 6894 ] final  161.14 input  -60.11 | X-H torsion
[ 7974 7965 7964 7962 ] final  -75.01 input  175.53 | X-H torsion
[ 8008 7997 7996 7995 ] final -101.43 input   59.86 | X-H torsion
[ 10167 10162 10161 10158 ] final -107.48 input  -65.29 | X-H torsion
[ 10718 10713 10712 10709 ] final   83.60 input   66.30 | X-H torsion
[ 10763 10752 10751 10750 ] final  -30.32 input  -60.55 | X-H torsion
[ 11005 11000 10999 10996 ] final   80.43 input  -57.11 | X-H torsion

> <Gold.Protein.ActiveResidues>
 VAL166  LYS551  ARG553  GLY616  TRP617  ASP618  TYR619  PRO620  LYS621  CYS622 
 ASP623  PHE694  ASN695  SER759  ASP760  ASP761  ALA762  ILE779  LEU786  VAL792 
 PHE793  MET794  SER795  GLU796  ALA797  LYS798  CYS799  TRP800  GLU811  SER814 

> <Gold.Protein.RotatedAtoms>
  151.9601  133.3692  159.4031 H   0  0  0  0  0  0  0  0  0  0  0  0  # atno 6907 bound_to 6896
  150.6965  134.4249  159.5231 H   0  0  0  0  0  0  0  0  0  0  0  0  # atno 6908 bound_to 6896
  152.1936  134.8650  160.0566 H   0  0  0  0  0  0  0  0  0  0  0  0  # atno 6909 bound_to 6896
  145.6316  140.9336  143.1084 H   0  0  0  0  0  0  0  0  0  0  0  0  # atno 7974 bound_to 7965
  154.8424  140.0434  157.1550 H   0  0  0  0  0  0  0  0  0  0  0  0  # atno 8008 bound_to 7997
  154.9032  140.3003  155.5286 H   0  0  0  0  0  0  0  0  0  0  0  0  # atno 8009 bound_to 7997
  156.2993  140.2372  156.4063 H   0  0  0  0  0  0  0  0  0  0  0  0  # atno 8010 bound_to 7997
  140.1765  143.4001  152.1314 H   0  0  0  0  0  0  0  0  0  0  0  0  # atno 10167 bound_to 10162
  157.6882  131.0098  150.2548 H   0  0  0  0  0  0  0  0  0  0  0  0  # atno 10718 bound_to 10713
  153.7790  135.6906  153.4892 H   0  0  0  0  0  0  0  0  0  0  0  0  # atno 10763 bound_to 10752
  153.1824  135.4501  155.0043 H   0  0  0  0  0  0  0  0  0  0  0  0  # atno 10764 bound_to 10752
  154.8089  135.3368  154.7295 H   0  0  0  0  0  0  0  0  0  0  0  0  # atno 10765 bound_to 10752
  139.9135  134.7920  156.1908 H   0  0  0  0  0  0  0  0  0  0  0  0  # atno 11005 bound_to 11000
  144.7191  139.8091  143.7388 LP  0  0  0  0  0  0  0  0  0  0  0  0  # atno 17320 bound_to 7965
  146.1352  139.4396  143.0143 LP  0  0  0  0  0  0  0  0  0  0  0  0  # atno 17321 bound_to 7965
  139.5315  144.7164  151.5041 LP  0  0  0  0  0  0  0  0  0  0  0  0  # atno 17342 bound_to 10162
  140.6548  143.8622  150.6823 LP  0  0  0  0  0  0  0  0  0  0  0  0  # atno 17343 bound_to 10162
  156.3138  130.3776  149.7637 LP  0  0  0  0  0  0  0  0  0  0  0  0  # atno 17370 bound_to 10713
  156.5229  130.8223  151.3210 LP  0  0  0  0  0  0  0  0  0  0  0  0  # atno 17371 bound_to 10713
  141.0584  133.6853  156.1906 LP  0  0  0  0  0  0  0  0  0  0  0  0  # atno 17394 bound_to 11000
  140.6699  134.4878  157.5587 LP  0  0  0  0  0  0  0  0  0  0  0  0  # atno 17395 bound_to 11000

$$$$
