AV-unprocessed.smi:72|AV-procd|sdf|745|dock8
  -GOLD-   2262017 83D 1   1.00000     0.00000
 Structure written by MMmdl.
 29 30  0  0  0  0  0  0  0  0  1 V2000
  152.8231  141.0326  159.1532 N   0  0  0  0  0  0  0  0  0  0  0  0
  152.1106  140.9674  157.9743 C   0  0  0  0  0  0  0  0  0  0  0  0
  151.0929  141.9160  157.8084 N   0  0  0  0  0  0  0  0  0  0  0  0
  150.4138  141.8528  156.7072 C   0  0  0  0  0  0  0  0  0  0  0  0
  150.6862  140.8321  155.7065 N   0  0  0  0  0  0  0  0  0  0  0  0
  149.9199  140.7340  154.3961 C   0  0  2  0  0  0  0  0  0  0  0  0
  149.0220  141.8012  154.2878 O   0  0  0  0  0  0  0  0  0  0  0  0
  147.7205  141.3806  154.6867 C   0  0  1  0  0  0  0  0  0  0  0  0
  146.6412  142.3610  154.1962 C   0  0  0  0  0  0  0  0  0  0  0  0
  145.3604  141.8857  154.5523 O   0  0  0  0  0  0  0  0  0  0  0  0
  147.6542  139.9668  154.1021 C   0  0  1  0  0  0  0  0  0  0  0  0
  147.3201  140.0141  152.7240 O   0  0  0  0  0  0  0  0  0  0  0  0
  149.0701  139.4441  154.3480 C   0  0  1  0  0  0  0  0  0  0  0  0
  149.4894  138.5294  153.3522 O   0  0  0  0  0  0  0  0  0  0  0  0
  151.7602  139.9252  155.9284 C   0  0  0  0  0  0  0  0  0  0  0  0
  152.0448  139.0843  155.0755 O   0  0  0  0  0  0  0  0  0  0  0  0
  152.4581  140.0337  157.1367 N   0  0  0  0  0  0  0  0  0  0  0  0
  150.6763  140.8117  153.6131 H   0  0  0  0  0  0  0  0  0  0  0  0
  147.6801  141.2978  155.7744 H   0  0  0  0  0  0  0  0  0  0  0  0
  146.9084  139.3548  154.6103 H   0  0  0  0  0  0  0  0  0  0  0  0
  149.1037  138.9524  155.3216 H   0  0  0  0  0  0  0  0  0  0  0  0
  153.5787  140.4029  159.3811 H   0  0  0  0  0  0  0  0  0  0  0  0
  152.6416  141.7137  159.8761 H   0  0  0  0  0  0  0  0  0  0  0  0
  149.6122  142.5533  156.4732 H   0  0  0  0  0  0  0  0  0  0  0  0
  146.7981  143.3618  154.5994 H   0  0  0  0  0  0  0  0  0  0  0  0
  146.6702  142.4379  153.1089 H   0  0  0  0  0  0  0  0  0  0  0  0
  144.9646  141.4911  153.7901 H   0  0  0  0  0  0  0  0  0  0  0  0
  148.0559  139.6838  152.2310 H   0  0  0  0  0  0  0  0  0  0  0  0
  149.4762  138.9712  152.5166 H   0  0  0  0  0  0  0  0  0  0  0  0
  1  2  1  0  0  0  0
  1 22  1  0  0  0  0
  1 23  1  0  0  0  0
  2 17  2  0  0  0  0
  2  3  1  0  0  0  0
  3  4  2  0  0  0  0
  4  5  1  0  0  0  0
  4 24  1  0  0  0  0
  5  6  1  0  0  0  0
  5 15  1  0  0  0  0
  6 18  1  0  0  0  0
  6 13  1  0  0  0  0
  6  7  1  0  0  0  0
  7  8  1  0  0  0  0
  8 19  1  0  0  0  0
  8  9  1  0  0  0  0
  8 11  1  0  0  0  0
  9 10  1  0  0  0  0
  9 25  1  0  0  0  0
  9 26  1  0  0  0  0
 10 27  1  0  0  0  0
 11 20  1  0  0  0  0
 11 12  1  0  0  0  0
 11 13  1  0  0  0  0
 12 28  1  0  0  0  0
 13 21  1  0  0  0  0
 13 14  1  0  0  0  0
 14 29  1  0  0  0  0
 15 16  2  0  0  0  0
 15 17  1  0  0  0  0
M  END
> <s_m_source_file>
AV-unprocessed.smi

> <i_m_source_file_index>
72

> <i_lp_mmshare_version>
43012

> <i_f3d_flags>
0

> <s_epik_input>
W05IMl1jMW5bY0hdbihjKD1PKW4xKVtDQEBIXTJPW0NASF0oW0NIMl1bT0hdKVtDQEBIXShbT0hdKVtDQEhdMltPSF0=

> <s_epik_cmdline>
J2VwaWtfcHl0aG9uJywgJy1waCcsICc3LjAnLCAnLXRuJywgJzgnLCAnLW1hJywgJzIwMCcsICctbWV0YWxfYmluZGluZycsICctaW1hZScsICc8aW5maWxlLm1hZT4nLCAnLW9tYWUnLCAnPG91dGZpbGUubWFlPic=

> <r_lp_tautomer_probability>
4.77166e-05

> <r_epik_Ionization_Penalty>
1.3546

> <r_epik_Ionization_Penalty_Charging>
1.46833e-10

> <r_epik_Ionization_Penalty_Neutral>
1.3546

> <r_epik_State_Penalty>
3.51908

> <r_epik_Charging_Adjusted_Penalty>
3.51908

> <i_epik_Tot_Q>
0

> <i_epik_Tot_abs_Q>
0

> <r_epik_Metal_State_Penalty>
3.44088

> <b_epik_Metal_Only>
1

> <s_epik_Chemistry_Notes>
This compound contains an acetal/aminal-like group ( X-CH(R)-Y where X, Y are N, S, or O) that may be acid/base labile, releasing an aldehyde.

> <s_lp_Force_Field>
OPLS_2005

> <r_lp_Energy>
31.2985

> <b_lp_Chiralities_Consistent>
1

> <s_lp_Variant>
AV-unprocessed.smi:72-83

> <Gold.Version>
5.8.1

> <Gold.Id.Protein>
6NUR|6NUR_protein|mol2

> <Gold.PLP.Fitness>
45.0411

> <Gold.PLP.PLP>
-29.3611

> <Gold.PLP.part.hbond>
-6.4842

> <Gold.PLP.part.metal>
0.0000

> <Gold.PLP.part.buried>
-1.9969

> <Gold.PLP.part.nonpolar>
-20.2889

> <Gold.PLP.part.repulsive>
0.3534

> <Gold.PLP.ligand.clash>
0.0000

> <Gold.PLP.ligand.torsion>
0.1088

> <Gold.PLP.Chemscore.Hbond>
4.2916

> <Gold.PLP.Chemscore.CHOScore>
1.0000

> <Gold.PLP.Chemscore.Metal>
0.0000

> <Gold.Chemscore.Hbonds>
donor molecule, donor type, donor heavy atom, donor atom, acceptor molecule, acceptor atom, score
      L1  H    10    27       P1 10175  0.85
      L1  H    12    28       P1  7957  0.98
      L1  H    14    29       P1  7957  1.00
      P1  H  7989  7998       L1    16  0.02
      P1  H  7997  8010       L1    17  1.00
      P1  H  8011  8017       L1     7  0.21
      L1  C     4    24       P1  8028  1.00

> <Gold.PLP.Chemscore.Internal.Correction>
0.0227

> <Gold.Rescore>
     Score         DG    S(hbond)    S(metal)    S(lipo)     H(rot)  DE(clash)    DE(int)     intcor
      8.10      -9.29       3.48        0.00      22.21       4.06       1.01       0.18       ----

> <Gold.Chemscore.Fitness>
8.0961

> <Gold.Chemscore.DG>
-9.2913

> <Gold.Chemscore.ZeroCoef>
-5.4800

> <Gold.Chemscore.Hbond>
3.4751

> <Gold.Chemscore.Metal>
0.0000

> <Gold.Chemscore.Lipo>
22.2053

> <Gold.Chemscore.Internal_Hbond>
0.0000

> <Gold.Chemscore.DEClash>
1.0136

> <Gold.Chemscore.DEInternal>
0.1817

> <Gold.Chemscore.Rot>
4.0600

> <Gold.Chemscore.Internal.Correction>
   9.000000E+99

> <Gold.Chemscore.Hbonds>
donor molecule, donor type, donor heavy atom, donor atom, acceptor molecule, acceptor atom, score
      L1  H    10    27       P1 10175  0.19
      L1  H    12    28       P1  7957  0.93
      L1  H    14    29       P1  7957  0.91
      P1  H  7997  8010       L1    17  0.30
      P1  H  8011  8017       L1     7  0.02

> <Gold.Chemscore.Hbond.Weighted>
-11.6069

> <Gold.Chemscore.Metal.Weighted>
-0.0000

> <Gold.Chemscore.Lipo.Weighted>
-2.5980

> <Gold.Chemscore.Internal_Hbond.Weighted>
0.0000

> <Gold.Chemscore.DEClash.Weighted>
1.0136

> <Gold.Chemscore.DEInternal.Weighted>
0.1817

> <Gold.Chemscore.Rot.Weighted>
10.3936

> <Gold.Chemscore.Internal.Correction.Weighted>
   9.000000E+99

> <Gold.Protein.RotatedTorsions>
[ 6907 6896 6895 6894 ] final -143.02 input  -60.11 | X-H torsion
[ 7974 7965 7964 7962 ] final -176.52 input  175.53 | X-H torsion
[ 8008 7997 7996 7995 ] final   67.26 input   59.86 | X-H torsion
[ 10167 10162 10161 10158 ] final -165.11 input  -65.29 | X-H torsion
[ 10718 10713 10712 10709 ] final   80.50 input   66.30 | X-H torsion
[ 10763 10752 10751 10750 ] final -101.80 input  -60.55 | X-H torsion
[ 11005 11000 10999 10996 ] final -125.19 input  -57.11 | X-H torsion

> <Gold.Protein.ActiveResidues>
 VAL166  LYS551  ARG553  GLY616  TRP617  ASP618  TYR619  PRO620  LYS621  CYS622 
 ASP623  PHE694  ASN695  SER759  ASP760  ASP761  ALA762  ILE779  LEU786  VAL792 
 PHE793  MET794  SER795  GLU796  ALA797  LYS798  CYS799  TRP800  GLU811  SER814 

> <Gold.Protein.RotatedAtoms>
  151.0949  133.5287  159.2612 H   0  0  0  0  0  0  0  0  0  0  0  0  # atno 6907 bound_to 6896
  151.2140  135.0492  159.8933 H   0  0  0  0  0  0  0  0  0  0  0  0  # atno 6908 bound_to 6896
  152.5438  134.0761  159.8268 H   0  0  0  0  0  0  0  0  0  0  0  0  # atno 6909 bound_to 6896
  144.7127  140.1157  143.6408 H   0  0  0  0  0  0  0  0  0  0  0  0  # atno 7974 bound_to 7965
  155.6901  140.3496  155.4890 H   0  0  0  0  0  0  0  0  0  0  0  0  # atno 8008 bound_to 7997
  155.9531  140.1123  157.0982 H   0  0  0  0  0  0  0  0  0  0  0  0  # atno 8009 bound_to 7997
  154.4126  140.1190  156.5065 H   0  0  0  0  0  0  0  0  0  0  0  0  # atno 8010 bound_to 7997
  139.6204  144.0636  152.1927 H   0  0  0  0  0  0  0  0  0  0  0  0  # atno 10167 bound_to 10162
  157.6807  130.9962  150.2088 H   0  0  0  0  0  0  0  0  0  0  0  0  # atno 10718 bound_to 10713
  154.7685  135.4884  153.9602 H   0  0  0  0  0  0  0  0  0  0  0  0  # atno 10763 bound_to 10752
  153.1338  135.6758  153.9143 H   0  0  0  0  0  0  0  0  0  0  0  0  # atno 10764 bound_to 10752
  153.8838  135.3129  155.3424 H   0  0  0  0  0  0  0  0  0  0  0  0  # atno 10765 bound_to 10752
  140.9782  134.0711  157.3795 H   0  0  0  0  0  0  0  0  0  0  0  0  # atno 11005 bound_to 11000
  145.9415  139.2672  143.1266 LP  0  0  0  0  0  0  0  0  0  0  0  0  # atno 17320 bound_to 7965
  145.9418  140.8973  143.0303 LP  0  0  0  0  0  0  0  0  0  0  0  0  # atno 17321 bound_to 7965
  140.0276  144.6105  150.7514 LP  0  0  0  0  0  0  0  0  0  0  0  0  # atno 17342 bound_to 10162
  140.7378  143.2770  151.3711 LP  0  0  0  0  0  0  0  0  0  0  0  0  # atno 17343 bound_to 10162
  156.2763  130.3728  149.7980 LP  0  0  0  0  0  0  0  0  0  0  0  0  # atno 17370 bound_to 10713
  156.5682  130.8413  151.3349 LP  0  0  0  0  0  0  0  0  0  0  0  0  # atno 17371 bound_to 10713
  139.8939  135.0133  156.6923 LP  0  0  0  0  0  0  0  0  0  0  0  0  # atno 17394 bound_to 11000
  140.7227  133.9127  155.8158 LP  0  0  0  0  0  0  0  0  0  0  0  0  # atno 17395 bound_to 11000

$$$$
