AV-unprocessed.smi:1697|AV-procd|sdf|6807|dock2
  -GOLD-   22720 7583D 1   1.00000     0.00000
 Structure written by MMmdl.
 55 57  0  0  0  0  0  0  0  0  3 V2000
  145.5372  132.1161  150.9983 C   0  0  0  0  0  0  0  0  0  0  0  0
  146.3963  133.0375  151.8673 C   0  0  0  0  0  0  0  0  0  0  0  0
  146.3524  132.5701  153.2075 O   0  0  0  0  0  0  0  0  0  0  0  0
  147.1708  133.2968  154.1141 C   0  0  2  0  0  0  0  0  0  0  0  0
  146.7697  134.7827  154.1641 C   0  0  0  0  0  0  0  0  0  0  0  0
  147.7587  135.5968  155.0160 C   0  0  0  0  0  0  0  0  0  0  0  0
  149.1512  135.4499  154.5126 N   0  3  1  0  0  0  0  0  0  0  0  0
  150.1345  136.3059  155.2268 C   0  0  0  0  0  0  0  0  0  0  0  0
  149.7671  137.8045  155.2126 C   0  0  2  0  0  0  0  0  0  0  0  0
  149.3010  138.1599  153.9242 O   0  0  0  0  0  0  0  0  0  0  0  0
  150.9855  138.6833  155.5595 C   0  0  0  0  0  0  0  0  0  0  0  0
  150.6134  140.0462  155.9624 N   0  0  0  0  0  0  0  0  0  0  0  0
  149.8150  140.9558  155.3397 C   0  0  0  0  0  0  0  0  0  0  0  0
  149.7866  142.0755  156.1144 N   0  3  0  0  0  0  0  0  0  0  0  0
  150.5796  141.8787  157.2470 C   0  0  0  0  0  0  0  0  0  0  0  0
  150.8642  142.7184  158.3174 C   0  0  0  0  0  0  0  0  0  0  0  0
  151.7200  142.2142  159.3229 C   0  0  0  0  0  0  0  0  0  0  0  0
  152.0539  143.1076  160.5054 C   0  0  0  0  0  0  0  0  0  0  0  0
  152.2578  140.9038  159.2347 C   0  0  0  0  0  0  0  0  0  0  0  0
  153.1766  140.3723  160.3218 C   0  0  0  0  0  0  0  0  0  0  0  0
  151.9552  140.0645  158.1385 C   0  0  0  0  0  0  0  0  0  0  0  0
  151.1128  140.5783  157.1557 C   0  0  0  0  0  0  0  0  0  0  0  0
  149.5701  134.0245  154.4869 C   0  0  0  0  0  0  0  0  0  0  0  0
  148.6200  133.1821  153.6209 C   0  0  0  0  0  0  0  0  0  0  0  0
  145.5477  132.4409  149.9576 H   0  0  0  0  0  0  0  0  0  0  0  0
  144.5006  132.1129  151.3366 H   0  0  0  0  0  0  0  0  0  0  0  0
  145.9043  131.0899  151.0329 H   0  0  0  0  0  0  0  0  0  0  0  0
  147.4196  133.0460  151.4920 H   0  0  0  0  0  0  0  0  0  0  0  0
  146.0145  134.0579  151.8112 H   0  0  0  0  0  0  0  0  0  0  0  0
  147.1080  132.8576  155.1115 H   0  0  0  0  0  0  0  0  0  0  0  0
  146.7399  135.1894  153.1520 H   0  0  0  0  0  0  0  0  0  0  0  0
  145.7659  134.8968  154.5728 H   0  0  0  0  0  0  0  0  0  0  0  0
  147.4535  136.6421  154.9992 H   0  0  0  0  0  0  0  0  0  0  0  0
  147.7105  135.2721  156.0568 H   0  0  0  0  0  0  0  0  0  0  0  0
  150.2367  135.9492  156.2530 H   0  0  0  0  0  0  0  0  0  0  0  0
  151.1185  136.1918  154.7686 H   0  0  0  0  0  0  0  0  0  0  0  0
  148.9754  138.0133  155.9308 H   0  0  0  0  0  0  0  0  0  0  0  0
  149.4197  137.4265  153.3402 H   0  0  0  0  0  0  0  0  0  0  0  0
  151.5764  138.2361  156.3601 H   0  0  0  0  0  0  0  0  0  0  0  0
  151.6495  138.7687  154.6980 H   0  0  0  0  0  0  0  0  0  0  0  0
  149.2964  140.8147  154.4023 H   0  0  0  0  0  0  0  0  0  0  0  0
  150.4504  143.7144  158.3784 H   0  0  0  0  0  0  0  0  0  0  0  0
  153.1303  143.2663  160.5744 H   0  0  0  0  0  0  0  0  0  0  0  0
  151.7099  142.6555  161.4360 H   0  0  0  0  0  0  0  0  0  0  0  0
  151.5790  144.0849  160.4139 H   0  0  0  0  0  0  0  0  0  0  0  0
  153.4858  139.3470  160.1175 H   0  0  0  0  0  0  0  0  0  0  0  0
  152.6730  140.3815  161.2885 H   0  0  0  0  0  0  0  0  0  0  0  0
  154.0767  140.9832  160.3936 H   0  0  0  0  0  0  0  0  0  0  0  0
  152.3654  139.0680  158.0711 H   0  0  0  0  0  0  0  0  0  0  0  0
  150.5809  133.9430  154.0854 H   0  0  0  0  0  0  0  0  0  0  0  0
  149.6002  133.6330  155.5051 H   0  0  0  0  0  0  0  0  0  0  0  0
  148.9346  132.1378  153.6335 H   0  0  0  0  0  0  0  0  0  0  0  0
  148.6846  133.5114  152.5827 H   0  0  0  0  0  0  0  0  0  0  0  0
  149.1526  135.7564  153.5504 H   0  0  0  0  0  0  0  0  0  0  0  0
  149.2651  142.9115  155.8832 H   0  0  0  0  0  0  0  0  0  0  0  0
  1  2  1  0  0  0  0
  1 25  1  0  0  0  0
  1 26  1  0  0  0  0
  1 27  1  0  0  0  0
  2  3  1  0  0  0  0
  2 28  1  0  0  0  0
  2 29  1  0  0  0  0
  3  4  1  0  0  0  0
  4 24  1  0  0  0  0
  4  5  1  0  0  0  0
  4 30  1  0  0  0  0
  5  6  1  0  0  0  0
  5 31  1  0  0  0  0
  5 32  1  0  0  0  0
  6  7  1  0  0  0  0
  6 33  1  0  0  0  0
  6 34  1  0  0  0  0
  7  8  1  0  0  0  0
  7 23  1  0  0  0  0
  7 54  1  0  0  0  0
  8  9  1  0  0  0  0
  8 35  1  0  0  0  0
  8 36  1  0  0  0  0
  9 10  1  0  0  0  0
  9 11  1  0  0  0  0
  9 37  1  0  0  0  0
 10 38  1  0  0  0  0
 11 12  1  0  0  0  0
 11 39  1  0  0  0  0
 11 40  1  0  0  0  0
 12 22  1  0  0  0  0
 12 13  1  0  0  0  0
 13 14  2  0  0  0  0
 13 41  1  0  0  0  0
 14 15  1  0  0  0  0
 14 55  1  0  0  0  0
 15 22  2  0  0  0  0
 15 16  1  0  0  0  0
 16 17  2  0  0  0  0
 16 42  1  0  0  0  0
 17 18  1  0  0  0  0
 17 19  1  0  0  0  0
 18 43  1  0  0  0  0
 18 44  1  0  0  0  0
 18 45  1  0  0  0  0
 19 20  1  0  0  0  0
 19 21  2  0  0  0  0
 20 46  1  0  0  0  0
 20 47  1  0  0  0  0
 20 48  1  0  0  0  0
 21 22  1  0  0  0  0
 21 49  1  0  0  0  0
 23 24  1  0  0  0  0
 23 50  1  0  0  0  0
 23 51  1  0  0  0  0
 24 52  1  0  0  0  0
 24 53  1  0  0  0  0
M  CHG  1   7   1
M  CHG  1  14   1
M  END
> <s_m_source_file>
AV-unprocessed.smi

> <i_m_source_file_index>
1697

> <i_lp_mmshare_version>
43012

> <i_f3d_flags>
0

> <s_epik_input>
W0NIM11bQ0gyXU9bQ0hdMVtDSDJdW0NIMl1OKFtDSDJdW0NIMl0xKVtDSDJdW0NASF0oW09IXSlbQ0gyXW4oW2NIXW4yKWMoYzIzKVtjSF1jKFtDSDNdKWMoW2NIXTMpW0NIM10=

> <s_epik_cmdline>
J2VwaWtfcHl0aG9uJywgJy1waCcsICc3LjAnLCAnLXRuJywgJzgnLCAnLW1hJywgJzIwMCcsICctbWV0YWxfYmluZGluZycsICctaW1hZScsICc8aW5maWxlLm1hZT4nLCAnLW9tYWUnLCAnPG91dGZpbGUubWFlPic=

> <r_epik_Ionization_Penalty>
1.20016

> <r_epik_Ionization_Penalty_Charging>
1.20016

> <r_epik_Ionization_Penalty_Neutral>
1.70998e-06

> <r_epik_State_Penalty>
1.27959

> <r_epik_Charging_Adjusted_Penalty>
2.47975

> <i_epik_Tot_Q>
2

> <i_epik_Tot_abs_Q>
2

> <r_epik_Metal_State_Penalty>
5.29682

> <b_epik_Metal_Only>
0

> <s_lp_Force_Field>
OPLS_2005

> <r_lp_Energy>
32.2014

> <b_lp_Chiralities_Consistent>
1

> <s_lp_Variant>
AV-unprocessed.smi:1697-5

> <Gold.Version>
5.8.1

> <Gold.Id.Protein>
6NUR|6NUR_protein|mol2

> <Gold.PLP.Fitness>
60.8364

> <Gold.PLP.PLP>
-46.3531

> <Gold.PLP.part.hbond>
-3.8534

> <Gold.PLP.part.metal>
0.0000

> <Gold.PLP.part.buried>
-3.7628

> <Gold.PLP.part.nonpolar>
-38.6021

> <Gold.PLP.part.repulsive>
0.2933

> <Gold.PLP.ligand.clash>
0.0000

> <Gold.PLP.ligand.torsion>
0.3745

> <Gold.PLP.Chemscore.Hbond>
5.0000

> <Gold.PLP.Chemscore.CHOScore>
0.0000

> <Gold.PLP.Chemscore.Metal>
0.0000

> <Gold.Chemscore.Hbonds>
donor molecule, donor type, donor heavy atom, donor atom, acceptor molecule, acceptor atom, score
      L1  H     7    54       P1  7948  2.00
      L1  H    10    38       P1  7948  1.00
      L1  H    14    55       P1  8028  2.00

> <Gold.PLP.Chemscore.Internal.Correction>
0.2324

> <Gold.Rescore>
     Score         DG    S(hbond)    S(metal)    S(lipo)     H(rot)  DE(clash)    DE(int)     intcor
     21.84     -22.58       2.93        0.00     113.85       2.35       0.13       0.62       ----

> <Gold.Chemscore.Fitness>
21.8381

> <Gold.Chemscore.DG>
-22.5833

> <Gold.Chemscore.ZeroCoef>
-5.4800

> <Gold.Chemscore.Hbond>
2.9314

> <Gold.Chemscore.Metal>
0.0000

> <Gold.Chemscore.Lipo>
113.8476

> <Gold.Chemscore.Internal_Hbond>
0.0000

> <Gold.Chemscore.DEClash>
0.1250

> <Gold.Chemscore.DEInternal>
0.6201

> <Gold.Chemscore.Rot>
2.3468

> <Gold.Chemscore.Internal.Correction>
   9.000000E+99

> <Gold.Chemscore.Hbonds>
donor molecule, donor type, donor heavy atom, donor atom, acceptor molecule, acceptor atom, score
      L1  H     7    54       P1  7948  0.74
      L1  H    10    38       P1  7948  0.93
      L1  H    14    55       P1  8028  1.00

> <Gold.Chemscore.Hbond.Weighted>
-9.7909

> <Gold.Chemscore.Metal.Weighted>
-0.0000

> <Gold.Chemscore.Lipo.Weighted>
-13.3202

> <Gold.Chemscore.Internal_Hbond.Weighted>
0.0000

> <Gold.Chemscore.DEClash.Weighted>
0.1250

> <Gold.Chemscore.DEInternal.Weighted>
0.6201

> <Gold.Chemscore.Rot.Weighted>
6.0077

> <Gold.Chemscore.Internal.Correction.Weighted>
   9.000000E+99

> <Gold.Protein.RotatedTorsions>
[ 6907 6896 6895 6894 ] final -148.70 input  -60.11 | X-H torsion
[ 7974 7965 7964 7962 ] final  113.70 input  175.53 | X-H torsion
[ 8008 7997 7996 7995 ] final   -6.41 input   59.86 | X-H torsion
[ 10167 10162 10161 10158 ] final  -59.76 input  -65.29 | X-H torsion
[ 10718 10713 10712 10709 ] final  -89.32 input   66.30 | X-H torsion
[ 10763 10752 10751 10750 ] final  138.64 input  -60.55 | X-H torsion
[ 11005 11000 10999 10996 ] final  -74.27 input  -57.11 | X-H torsion

> <Gold.Protein.ActiveResidues>
 VAL166  LYS551  ARG553  GLY616  TRP617  ASP618  TYR619  PRO620  LYS621  CYS622 
 ASP623  PHE694  ASN695  SER759  ASP760  ASP761  ALA762  ILE779  LEU786  VAL792 
 PHE793  MET794  SER795  GLU796  ALA797  LYS798  CYS799  TRP800  GLU811  SER814 

> <Gold.Protein.RotatedAtoms>
  151.1736  133.4769  159.2593 H   0  0  0  0  0  0  0  0  0  0  0  0  # atno 6907 bound_to 6896
  151.1331  135.0140  159.8601 H   0  0  0  0  0  0  0  0  0  0  0  0  # atno 6908 bound_to 6896
  152.5460  134.1637  159.8621 H   0  0  0  0  0  0  0  0  0  0  0  0  # atno 6909 bound_to 6896
  145.2137  139.2894  143.4255 H   0  0  0  0  0  0  0  0  0  0  0  0  # atno 7974 bound_to 7965
  154.5941  140.2433  155.7881 H   0  0  0  0  0  0  0  0  0  0  0  0  # atno 8008 bound_to 7997
  156.2267  140.2980  156.0038 H   0  0  0  0  0  0  0  0  0  0  0  0  # atno 8009 bound_to 7997
  155.2324  140.0404  157.2954 H   0  0  0  0  0  0  0  0  0  0  0  0  # atno 8010 bound_to 7997
  140.6114  143.2388  151.5700 H   0  0  0  0  0  0  0  0  0  0  0  0  # atno 10167 bound_to 10162
  155.9984  130.4868  150.5153 H   0  0  0  0  0  0  0  0  0  0  0  0  # atno 10718 bound_to 10713
  153.8929  135.3031  155.3447 H   0  0  0  0  0  0  0  0  0  0  0  0  # atno 10763 bound_to 10752
  154.7707  135.4887  153.9647 H   0  0  0  0  0  0  0  0  0  0  0  0  # atno 10764 bound_to 10752
  153.1287  135.6799  153.9312 H   0  0  0  0  0  0  0  0  0  0  0  0  # atno 10765 bound_to 10752
  141.1633  133.6906  156.7339 H   0  0  0  0  0  0  0  0  0  0  0  0  # atno 11005 bound_to 11000
  146.3392  140.2421  142.8596 LP  0  0  0  0  0  0  0  0  0  0  0  0  # atno 17320 bound_to 7965
  144.9831  140.8478  143.5385 LP  0  0  0  0  0  0  0  0  0  0  0  0  # atno 17321 bound_to 7965
  139.5364  144.2768  152.1261 LP  0  0  0  0  0  0  0  0  0  0  0  0  # atno 17342 bound_to 10162
  140.1969  144.4697  150.6451 LP  0  0  0  0  0  0  0  0  0  0  0  0  # atno 17343 bound_to 10162
  157.3121  131.0665  151.1993 LP  0  0  0  0  0  0  0  0  0  0  0  0  # atno 17370 bound_to 10713
  157.2936  130.6808  149.6127 LP  0  0  0  0  0  0  0  0  0  0  0  0  # atno 17371 bound_to 10713
  140.2724  134.8381  157.3860 LP  0  0  0  0  0  0  0  0  0  0  0  0  # atno 17394 bound_to 11000
  140.1508  134.4851  155.7962 LP  0  0  0  0  0  0  0  0  0  0  0  0  # atno 17395 bound_to 11000

$$$$
