AV-unprocessed.smi:193|AV-procd|sdf|1498|dock1
  -GOLD-   2262019323D 1   1.00000     0.00000
 Structure written by MMmdl.
 62 66  0  0  0  0  0  0  0  0  2 V2000
  146.3375  136.2208  156.8901 C   0  0  0  0  0  0  0  0  0  0  0  0
  147.7999  136.0841  156.4381 C   0  0  2  0  0  0  0  0  0  0  0  0
  148.5643  137.3747  156.8022 C   0  0  0  0  0  0  0  0  0  0  0  0
  150.0118  137.2701  156.6479 N   0  0  0  0  0  0  0  0  0  0  0  0
  150.6542  138.3260  157.1903 C   0  0  0  0  0  0  0  0  0  0  0  0
  151.4283  138.0937  158.2782 N   0  0  0  0  0  0  0  0  0  0  0  0
  152.0836  139.1052  158.8569 C   0  0  0  0  0  0  0  0  0  0  0  0
  152.0967  140.3961  158.5163 N   0  0  0  0  0  0  0  0  0  0  0  0
  151.3116  140.6309  157.4258 C   0  0  0  0  0  0  0  0  0  0  0  0
  150.5604  139.6605  156.7058 C   0  0  0  0  0  0  0  0  0  0  0  0
  149.8777  140.2671  155.6587 N   0  0  0  0  0  0  0  0  0  0  0  0
  150.2084  141.5267  155.7537 C   0  0  0  0  0  0  0  0  0  0  0  0
  151.0697  141.8325  156.7837 N   0  0  0  0  0  0  0  0  0  0  0  0
  151.5950  143.1472  157.1205 C   0  0  0  0  0  0  0  0  0  0  0  0
  151.2593  143.6082  158.5604 C   0  0  0  0  0  0  0  0  0  0  0  0
  149.9457  143.1659  158.8576 O   0  0  0  0  0  0  0  0  0  0  0  0
  152.2292  142.9644  159.5714 C   0  0  0  0  0  0  0  0  0  0  0  0
  152.0413  143.5232  160.9933 C   0  0  0  0  0  0  0  0  0  0  0  0
  152.1702  144.9396  160.9812 O   0  0  0  0  0  0  0  0  0  0  0  0
  151.1733  145.5762  160.1911 C   0  0  0  0  0  0  0  0  0  0  0  0
  151.3062  145.1435  158.7202 C   0  0  0  0  0  0  0  0  0  0  0  0
  150.5536  136.8499  155.3592 C   0  0  0  0  0  0  0  0  0  0  0  0
  150.3370  135.3467  155.1298 C   0  0  0  0  0  0  0  0  0  0  0  0
  149.0454  135.0100  154.4768 N   0  3  1  0  0  0  0  0  0  0  0  0
  148.7872  133.5518  154.5046 C   0  0  2  0  0  0  0  0  0  0  0  0
  149.9121  132.7238  153.9273 C   0  0  0  0  0  0  0  0  0  0  0  0
  148.6398  132.9291  153.1335 C   0  0  1  0  0  0  0  0  0  0  0  0
  147.6888  131.7742  152.9080 C   0  0  0  0  0  0  0  0  0  0  0  0
  147.8610  135.7962  154.9193 C   0  0  0  0  0  0  0  0  0  0  0  0
  145.8379  137.0428  156.3762 H   0  0  0  0  0  0  0  0  0  0  0  0
  146.2722  136.4103  157.9620 H   0  0  0  0  0  0  0  0  0  0  0  0
  145.7745  135.3092  156.6873 H   0  0  0  0  0  0  0  0  0  0  0  0
  148.2189  135.2433  156.9925 H   0  0  0  0  0  0  0  0  0  0  0  0
  148.1959  138.2098  156.2042 H   0  0  0  0  0  0  0  0  0  0  0  0
  148.3526  137.6273  157.8429 H   0  0  0  0  0  0  0  0  0  0  0  0
  152.6832  138.8429  159.7162 H   0  0  0  0  0  0  0  0  0  0  0  0
  149.8338  142.2736  155.0686 H   0  0  0  0  0  0  0  0  0  0  0  0
  152.6750  143.1328  156.9671 H   0  0  0  0  0  0  0  0  0  0  0  0
  151.1981  143.8629  156.3993 H   0  0  0  0  0  0  0  0  0  0  0  0
  149.3627  143.9086  158.8156 H   0  0  0  0  0  0  0  0  0  0  0  0
  152.1133  141.8797  159.5772 H   0  0  0  0  0  0  0  0  0  0  0  0
  153.2564  143.1587  159.2596 H   0  0  0  0  0  0  0  0  0  0  0  0
  151.0721  143.2375  161.4049 H   0  0  0  0  0  0  0  0  0  0  0  0
  152.7994  143.1095  161.6583 H   0  0  0  0  0  0  0  0  0  0  0  0
  150.1811  145.3442  160.5811 H   0  0  0  0  0  0  0  0  0  0  0  0
  151.2981  146.6560  160.2735 H   0  0  0  0  0  0  0  0  0  0  0  0
  152.2564  145.5151  158.3344 H   0  0  0  0  0  0  0  0  0  0  0  0
  150.5267  145.6224  158.1262 H   0  0  0  0  0  0  0  0  0  0  0  0
  150.1344  137.4411  154.5441 H   0  0  0  0  0  0  0  0  0  0  0  0
  151.6281  137.0419  155.3568 H   0  0  0  0  0  0  0  0  0  0  0  0
  151.1293  134.9766  154.4787 H   0  0  0  0  0  0  0  0  0  0  0  0
  150.4461  134.8042  156.0707 H   0  0  0  0  0  0  0  0  0  0  0  0
  148.2088  133.1808  155.3493 H   0  0  0  0  0  0  0  0  0  0  0  0
  150.8065  133.2351  153.5761 H   0  0  0  0  0  0  0  0  0  0  0  0
  150.0822  131.7406  154.3616 H   0  0  0  0  0  0  0  0  0  0  0  0
  148.7164  133.6006  152.2800 H   0  0  0  0  0  0  0  0  0  0  0  0
  147.6412  131.1331  153.7888 H   0  0  0  0  0  0  0  0  0  0  0  0
  148.0220  131.1755  152.0600 H   0  0  0  0  0  0  0  0  0  0  0  0
  146.6877  132.1500  152.6969 H   0  0  0  0  0  0  0  0  0  0  0  0
  146.9620  135.2680  154.5978 H   0  0  0  0  0  0  0  0  0  0  0  0
  147.8424  136.7362  154.3667 H   0  0  0  0  0  0  0  0  0  0  0  0
  149.1606  135.2440  153.5011 H   0  0  0  0  0  0  0  0  0  0  0  0
  1  2  1  0  0  0  0
  1 30  1  0  0  0  0
  1 31  1  0  0  0  0
  1 32  1  0  0  0  0
  2 29  1  0  0  0  0
  2  3  1  0  0  0  0
  2 33  1  0  0  0  0
  3  4  1  0  0  0  0
  3 34  1  0  0  0  0
  3 35  1  0  0  0  0
  4  5  1  0  0  0  0
  4 22  1  0  0  0  0
  5 10  1  0  0  0  0
  5  6  2  0  0  0  0
  6  7  1  0  0  0  0
  7  8  2  0  0  0  0
  7 36  1  0  0  0  0
  8  9  1  0  0  0  0
  9 13  1  0  0  0  0
  9 10  2  0  0  0  0
 10 11  1  0  0  0  0
 11 12  2  0  0  0  0
 12 13  1  0  0  0  0
 12 37  1  0  0  0  0
 13 14  1  0  0  0  0
 14 15  1  0  0  0  0
 14 38  1  0  0  0  0
 14 39  1  0  0  0  0
 15 21  1  0  0  0  0
 15 16  1  0  0  0  0
 15 17  1  0  0  0  0
 16 40  1  0  0  0  0
 17 18  1  0  0  0  0
 17 41  1  0  0  0  0
 17 42  1  0  0  0  0
 18 19  1  0  0  0  0
 18 43  1  0  0  0  0
 18 44  1  0  0  0  0
 19 20  1  0  0  0  0
 20 21  1  0  0  0  0
 20 45  1  0  0  0  0
 20 46  1  0  0  0  0
 21 47  1  0  0  0  0
 21 48  1  0  0  0  0
 22 23  1  0  0  0  0
 22 49  1  0  0  0  0
 22 50  1  0  0  0  0
 23 24  1  0  0  0  0
 23 51  1  0  0  0  0
 23 52  1  0  0  0  0
 24 25  1  0  0  0  0
 24 29  1  0  0  0  0
 24 62  1  0  0  0  0
 25 27  1  0  0  0  0
 25 26  1  0  0  0  0
 25 53  1  0  0  0  0
 26 27  1  0  0  0  0
 26 54  1  0  0  0  0
 26 55  1  0  0  0  0
 27 28  1  0  0  0  0
 27 56  1  0  0  0  0
 28 57  1  0  0  0  0
 28 58  1  0  0  0  0
 28 59  1  0  0  0  0
 29 60  1  0  0  0  0
 29 61  1  0  0  0  0
M  CHG  1  24   1
M  END
> <s_m_source_file>
AV-unprocessed.smi

> <i_m_source_file_index>
193

> <i_lp_mmshare_version>
43012

> <i_f3d_flags>
0

> <s_epik_input>
W0NIM11bQ0BASF0xW0NIMl1bQ0BIXTFOKFtDSDJdMilbQ0gyXVtDSDJdTihbQ0gyXVtDQEhdMltDSDNdKWMobltjSF1uMyljKGMzNCluW2NIXW40W0NIMl1DNShbT0hdKVtDSDJdW0NIMl1PW0NIMl1bQ0gyXTU=

> <s_epik_cmdline>
J2VwaWtfcHl0aG9uJywgJy1waCcsICc3LjAnLCAnLXRuJywgJzgnLCAnLW1hJywgJzIwMCcsICctbWV0YWxfYmluZGluZycsICctaW1hZScsICc8aW5maWxlLm1hZT4nLCAnLW9tYWUnLCAnPG91dGZpbGUubWFlPic=

> <r_lp_tautomer_probability>
1

> <r_epik_Ionization_Penalty>
0.0540825

> <r_epik_Ionization_Penalty_Charging>
0.0538476

> <r_epik_Ionization_Penalty_Neutral>
0.000234891

> <r_epik_State_Penalty>
0.0200719

> <r_epik_Charging_Adjusted_Penalty>
0.0739194

> <i_epik_Tot_Q>
1

> <i_epik_Tot_abs_Q>
1

> <r_epik_Metal_State_Penalty>
0.0199414

> <b_epik_Metal_Only>
0

> <s_lp_Force_Field>
OPLS_2005

> <r_lp_Energy>
56.0511

> <b_lp_Chiralities_Consistent>
1

> <s_lp_Variant>
AV-unprocessed.smi:193-3

> <Gold.Version>
5.8.1

> <Gold.Id.Protein>
6NUR|6NUR_protein|mol2

> <Gold.PLP.Fitness>
50.9542

> <Gold.PLP.PLP>
-42.8820

> <Gold.PLP.part.hbond>
-1.0000

> <Gold.PLP.part.metal>
0.0000

> <Gold.PLP.part.buried>
-4.9212

> <Gold.PLP.part.nonpolar>
-37.1993

> <Gold.PLP.part.repulsive>
0.2463

> <Gold.PLP.ligand.clash>
0.0000

> <Gold.PLP.ligand.torsion>
1.2327

> <Gold.PLP.Chemscore.Hbond>
2.0000

> <Gold.PLP.Chemscore.CHOScore>
0.9810

> <Gold.PLP.Chemscore.Metal>
0.0000

> <Gold.Chemscore.Hbonds>
donor molecule, donor type, donor heavy atom, donor atom, acceptor molecule, acceptor atom, score
      L1  H    24    62       P1  7948  2.00
      L1  C    12    37       P1  8028  0.60

> <Gold.PLP.Chemscore.Internal.Correction>
1.5947

> <Gold.Rescore>
     Score         DG    S(hbond)    S(metal)    S(lipo)     H(rot)  DE(clash)    DE(int)     intcor
     12.46     -15.70       0.97        0.00     107.71       2.20       0.58       2.66       ----

> <Gold.Chemscore.Fitness>
12.4620

> <Gold.Chemscore.DG>
-15.6987

> <Gold.Chemscore.ZeroCoef>
-5.4800

> <Gold.Chemscore.Hbond>
0.9740

> <Gold.Chemscore.Metal>
0.0000

> <Gold.Chemscore.Lipo>
107.7103

> <Gold.Chemscore.Internal_Hbond>
0.0000

> <Gold.Chemscore.DEClash>
0.5765

> <Gold.Chemscore.DEInternal>
2.6603

> <Gold.Chemscore.Rot>
2.2018

> <Gold.Chemscore.Internal.Correction>
   9.000000E+99

> <Gold.Chemscore.Hbonds>
donor molecule, donor type, donor heavy atom, donor atom, acceptor molecule, acceptor atom, score
      L1  H    24    62       P1  7948  0.35

> <Gold.Chemscore.Hbond.Weighted>
-3.2532

> <Gold.Chemscore.Metal.Weighted>
-0.0000

> <Gold.Chemscore.Lipo.Weighted>
-12.6021

> <Gold.Chemscore.Internal_Hbond.Weighted>
0.0000

> <Gold.Chemscore.DEClash.Weighted>
0.5765

> <Gold.Chemscore.DEInternal.Weighted>
2.6603

> <Gold.Chemscore.Rot.Weighted>
5.6366

> <Gold.Chemscore.Internal.Correction.Weighted>
   9.000000E+99

> <Gold.Protein.RotatedTorsions>
[ 6907 6896 6895 6894 ] final   92.84 input  -60.11 | X-H torsion
[ 7974 7965 7964 7962 ] final -138.66 input  175.53 | X-H torsion
[ 8008 7997 7996 7995 ] final  132.25 input   59.86 | X-H torsion
[ 10167 10162 10161 10158 ] final -177.33 input  -65.29 | X-H torsion
[ 10718 10713 10712 10709 ] final -135.99 input   66.30 | X-H torsion
[ 10763 10752 10751 10750 ] final  159.98 input  -60.55 | X-H torsion
[ 11005 11000 10999 10996 ] final  170.39 input  -57.11 | X-H torsion

> <Gold.Protein.ActiveResidues>
 VAL166  LYS551  ARG553  GLY616  TRP617  ASP618  TYR619  PRO620  LYS621  CYS622 
 ASP623  PHE694  ASN695  SER759  ASP760  ASP761  ALA762  ILE779  LEU786  VAL792 
 PHE793  MET794  SER795  GLU796  ALA797  LYS798  CYS799  TRP800  GLU811  SER814 

> <Gold.Protein.RotatedAtoms>
  152.5453  134.1440  159.8490 H   0  0  0  0  0  0  0  0  0  0  0  0  # atno 6907 bound_to 6896
  151.1473  133.4923  159.2603 H   0  0  0  0  0  0  0  0  0  0  0  0  # atno 6908 bound_to 6896
  151.1509  135.0237  159.8722 H   0  0  0  0  0  0  0  0  0  0  0  0  # atno 6909 bound_to 6896
  144.8740  140.6409  143.5249 H   0  0  0  0  0  0  0  0  0  0  0  0  # atno 7974 bound_to 7965
  156.2980  140.2551  156.3059 H   0  0  0  0  0  0  0  0  0  0  0  0  # atno 8008 bound_to 7997
  154.9373  140.0397  157.2097 H   0  0  0  0  0  0  0  0  0  0  0  0  # atno 8009 bound_to 7997
  154.8160  140.2852  155.5824 H   0  0  0  0  0  0  0  0  0  0  0  0  # atno 8010 bound_to 7997
  139.5485  144.2171  152.1034 H   0  0  0  0  0  0  0  0  0  0  0  0  # atno 10167 bound_to 10162
  156.2722  130.7272  151.1242 H   0  0  0  0  0  0  0  0  0  0  0  0  # atno 10718 bound_to 10713
  154.2403  135.2775  155.2856 H   0  0  0  0  0  0  0  0  0  0  0  0  # atno 10763 bound_to 10752
  154.5550  135.5664  153.6960 H   0  0  0  0  0  0  0  0  0  0  0  0  # atno 10764 bound_to 10752
  153.0001  135.6284  154.2547 H   0  0  0  0  0  0  0  0  0  0  0  0  # atno 10765 bound_to 10752
  140.3079  134.7541  157.3968 H   0  0  0  0  0  0  0  0  0  0  0  0  # atno 11005 bound_to 11000
  145.4078  139.1585  143.4142 LP  0  0  0  0  0  0  0  0  0  0  0  0  # atno 17320 bound_to 7965
  146.2950  140.4179  142.8725 LP  0  0  0  0  0  0  0  0  0  0  0  0  # atno 17321 bound_to 7965
  140.1662  144.4979  150.6605 LP  0  0  0  0  0  0  0  0  0  0  0  0  # atno 17342 bound_to 10162
  140.6741  143.2298  151.5551 LP  0  0  0  0  0  0  0  0  0  0  0  0  # atno 17343 bound_to 10162
  157.7287  131.0629  150.5806 LP  0  0  0  0  0  0  0  0  0  0  0  0  # atno 17370 bound_to 10713
  156.5903  130.4327  149.5939 LP  0  0  0  0  0  0  0  0  0  0  0  0  # atno 17371 bound_to 10713
  140.1051  134.5421  155.8317 LP  0  0  0  0  0  0  0  0  0  0  0  0  # atno 17394 bound_to 11000
  141.2114  133.6707  156.6583 LP  0  0  0  0  0  0  0  0  0  0  0  0  # atno 17395 bound_to 11000

$$$$
