AV-unprocessed.smi:2580|AV-procd|sdf|10128|dock3
  -GOLD-   2272014143D 1   1.00000     0.00000
 Structure written by MMmdl.
 29 30  0  0  0  0  0  0  0  0  1 V2000
  149.5989  138.2466  156.4359 C   0  0  0  0  0  0  0  0  0  0  0  0
  151.0450  138.2724  155.9079 C   0  0  1  0  0  0  0  0  0  0  0  0
  151.1742  138.6417  154.4441 C   0  0  0  0  0  0  0  0  0  0  0  0
  152.6653  138.9420  154.3489 C   0  0  0  0  0  0  0  0  0  0  0  0
  153.0104  139.5439  155.5935 O   0  0  0  0  0  0  0  0  0  0  0  0
  152.0353  139.2403  156.5928 C   0  0  1  0  0  0  0  0  0  0  0  0
  151.4367  140.5722  157.0750 C   0  0  0  0  0  0  0  0  0  0  0  0
  150.2984  140.8951  156.7322 O   0  0  0  0  0  0  0  0  0  0  0  0
  152.2430  141.3226  157.8485 N   0  0  0  0  0  0  0  0  0  0  0  0
  151.9728  142.5791  158.4567 C   0  0  0  0  0  0  0  0  0  0  0  0
  150.9023  143.3452  158.1266 N   0  0  0  0  0  0  0  0  0  0  0  0
  150.7134  144.5257  158.7520 C   0  0  0  0  0  0  0  0  0  0  0  0
  151.5786  145.0163  159.7461 C   0  0  0  0  0  0  0  0  0  0  0  0
  152.6912  144.2331  160.1000 C   0  0  0  0  0  0  0  0  0  0  0  0
  152.8938  142.9989  159.4505 C   0  0  0  0  0  0  0  0  0  0  0  0
  154.2619  142.0331  159.8853 Cl  0  0  0  0  0  0  0  0  0  0  0  0
  149.0822  139.1917  156.2672 H   0  0  0  0  0  0  0  0  0  0  0  0
  149.5773  138.0375  157.5056 H   0  0  0  0  0  0  0  0  0  0  0  0
  149.0211  137.4689  155.9362 H   0  0  0  0  0  0  0  0  0  0  0  0
  151.4480  137.2654  156.0304 H   0  0  0  0  0  0  0  0  0  0  0  0
  150.8593  137.8441  153.7707 H   0  0  0  0  0  0  0  0  0  0  0  0
  150.5911  139.5342  154.2136 H   0  0  0  0  0  0  0  0  0  0  0  0
  153.2326  138.0168  154.2391 H   0  0  0  0  0  0  0  0  0  0  0  0
  152.9104  139.5923  153.5090 H   0  0  0  0  0  0  0  0  0  0  0  0
  152.5260  138.7373  157.4279 H   0  0  0  0  0  0  0  0  0  0  0  0
  153.1628  140.9465  158.0273 H   0  0  0  0  0  0  0  0  0  0  0  0
  149.8470  145.0952  158.4500 H   0  0  0  0  0  0  0  0  0  0  0  0
  151.3935  145.9673  160.2233 H   0  0  0  0  0  0  0  0  0  0  0  0
  153.3798  144.5745  160.8588 H   0  0  0  0  0  0  0  0  0  0  0  0
  1  2  1  0  0  0  0
  1 17  1  0  0  0  0
  1 18  1  0  0  0  0
  1 19  1  0  0  0  0
  2  6  1  0  0  0  0
  2  3  1  0  0  0  0
  2 20  1  0  0  0  0
  3  4  1  0  0  0  0
  3 21  1  0  0  0  0
  3 22  1  0  0  0  0
  4  5  1  0  0  0  0
  4 23  1  0  0  0  0
  4 24  1  0  0  0  0
  5  6  1  0  0  0  0
  6  7  1  0  0  0  0
  6 25  1  0  0  0  0
  7  8  2  0  0  0  0
  7  9  1  0  0  0  0
  9 10  1  0  0  0  0
  9 26  1  0  0  0  0
 10 15  1  0  0  0  0
 10 11  2  0  0  0  0
 11 12  1  0  0  0  0
 12 13  2  0  0  0  0
 12 27  1  0  0  0  0
 13 14  1  0  0  0  0
 13 28  1  0  0  0  0
 14 15  2  0  0  0  0
 14 29  1  0  0  0  0
 15 16  1  0  0  0  0
M  END
> <s_m_source_file>
AV-unprocessed.smi

> <i_m_source_file_index>
2580

> <i_lp_mmshare_version>
43012

> <i_f3d_flags>
0

> <s_epik_input>
W0NIM11bQ0BASF0xW0NIMl1bQ0gyXU9bQ0BIXTFDKD1PKVtOSF1jMm5bY0hdW2NIXVtjSF1jMkNs

> <s_epik_cmdline>
J2VwaWtfcHl0aG9uJywgJy1waCcsICc3LjAnLCAnLXRuJywgJzgnLCAnLW1hJywgJzIwMCcsICctbWV0YWxfYmluZGluZycsICctaW1hZScsICc8aW5maWxlLm1hZT4nLCAnLW9tYWUnLCAnPG91dGZpbGUubWFlPic=

> <r_lp_tautomer_probability>
1

> <r_epik_Ionization_Penalty>
4.32497e-05

> <r_epik_Ionization_Penalty_Charging>
0

> <r_epik_Ionization_Penalty_Neutral>
4.32497e-05

> <r_epik_State_Penalty>
-0

> <r_epik_Charging_Adjusted_Penalty>
0

> <i_epik_Tot_Q>
0

> <i_epik_Tot_abs_Q>
0

> <r_epik_Metal_State_Penalty>
-0

> <b_epik_Metal_Only>
0

> <s_lp_Force_Field>
OPLS_2005

> <r_lp_Energy>
21.8513

> <b_lp_Chiralities_Consistent>
1

> <s_lp_Variant>
AV-unprocessed.smi:2580-2

> <Gold.Version>
5.8.1

> <Gold.Id.Protein>
6NUR|6NUR_protein|mol2

> <Gold.PLP.Fitness>
39.1661

> <Gold.PLP.PLP>
-34.1931

> <Gold.PLP.part.hbond>
-0.9299

> <Gold.PLP.part.metal>
0.0000

> <Gold.PLP.part.buried>
-5.9872

> <Gold.PLP.part.nonpolar>
-27.4498

> <Gold.PLP.part.repulsive>
0.2668

> <Gold.PLP.ligand.clash>
0.0000

> <Gold.PLP.ligand.torsion>
0.2941

> <Gold.PLP.Chemscore.Hbond>
1.0000

> <Gold.PLP.Chemscore.CHOScore>
0.8501

> <Gold.PLP.Chemscore.Metal>
0.0000

> <Gold.Chemscore.Hbonds>
donor molecule, donor type, donor heavy atom, donor atom, acceptor molecule, acceptor atom, score
      P1  H  7997  8009       L1     5  1.00
      L1  C    12    27       P1  8029  1.00

> <Gold.PLP.Chemscore.Internal.Correction>
0.0108

> <Gold.Rescore>
     Score         DG    S(hbond)    S(metal)    S(lipo)     H(rot)  DE(clash)    DE(int)     intcor
     13.73     -16.60       0.98        0.00      88.87       1.00       0.00       2.86       ----

> <Gold.Chemscore.Fitness>
13.7318

> <Gold.Chemscore.DG>
-16.5950

> <Gold.Chemscore.ZeroCoef>
-5.4800

> <Gold.Chemscore.Hbond>
0.9813

> <Gold.Chemscore.Metal>
0.0000

> <Gold.Chemscore.Lipo>
88.8661

> <Gold.Chemscore.Internal_Hbond>
0.0000

> <Gold.Chemscore.DEClash>
0.0000

> <Gold.Chemscore.DEInternal>
2.8632

> <Gold.Chemscore.Rot>
1.0000

> <Gold.Chemscore.Internal.Correction>
   9.000000E+99

> <Gold.Chemscore.Hbonds>
donor molecule, donor type, donor heavy atom, donor atom, acceptor molecule, acceptor atom, score
      P1  H  7997  8009       L1     5  0.52

> <Gold.Chemscore.Hbond.Weighted>
-3.2777

> <Gold.Chemscore.Metal.Weighted>
-0.0000

> <Gold.Chemscore.Lipo.Weighted>
-10.3973

> <Gold.Chemscore.Internal_Hbond.Weighted>
0.0000

> <Gold.Chemscore.DEClash.Weighted>
0.0000

> <Gold.Chemscore.DEInternal.Weighted>
2.8632

> <Gold.Chemscore.Rot.Weighted>
2.5600

> <Gold.Chemscore.Internal.Correction.Weighted>
   9.000000E+99

> <Gold.Protein.RotatedTorsions>
[ 6907 6896 6895 6894 ] final -129.47 input  -60.11 | X-H torsion
[ 7974 7965 7964 7962 ] final  136.97 input  175.53 | X-H torsion
[ 8008 7997 7996 7995 ] final -167.85 input   59.86 | X-H torsion
[ 10167 10162 10161 10158 ] final   82.73 input  -65.29 | X-H torsion
[ 10718 10713 10712 10709 ] final  -74.70 input   66.30 | X-H torsion
[ 10763 10752 10751 10750 ] final -142.74 input  -60.55 | X-H torsion
[ 11005 11000 10999 10996 ] final  -35.62 input  -57.11 | X-H torsion

> <Gold.Protein.ActiveResidues>
 VAL166  LYS551  ARG553  GLY616  TRP617  ASP618  TYR619  PRO620  LYS621  CYS622 
 ASP623  PHE694  ASN695  SER759  ASP760  ASP761  ALA762  ILE779  LEU786  VAL792 
 PHE793  MET794  SER795  GLU796  ALA797  LYS798  CYS799  TRP800  GLU811  SER814 

> <Gold.Protein.RotatedAtoms>
  150.9291  133.6788  159.2814 H   0  0  0  0  0  0  0  0  0  0  0  0  # atno 6907 bound_to 6896
  151.4216  135.0997  159.9625 H   0  0  0  0  0  0  0  0  0  0  0  0  # atno 6908 bound_to 6896
  152.5017  133.8741  159.7368 H   0  0  0  0  0  0  0  0  0  0  0  0  # atno 6909 bound_to 6896
  144.9513  139.4815  143.5524 H   0  0  0  0  0  0  0  0  0  0  0  0  # atno 7974 bound_to 7965
  155.8833  140.1012  157.1470 H   0  0  0  0  0  0  0  0  0  0  0  0  # atno 8008 bound_to 7997
  154.4007  140.1324  156.4288 H   0  0  0  0  0  0  0  0  0  0  0  0  # atno 8009 bound_to 7997
  155.7617  140.3463  155.5204 H   0  0  0  0  0  0  0  0  0  0  0  0  # atno 8010 bound_to 7997
  139.9258  144.6184  150.8394 H   0  0  0  0  0  0  0  0  0  0  0  0  # atno 10167 bound_to 10162
  156.0233  130.4423  150.2931 H   0  0  0  0  0  0  0  0  0  0  0  0  # atno 10718 bound_to 10713
  154.8497  135.3487  154.6075 H   0  0  0  0  0  0  0  0  0  0  0  0  # atno 10763 bound_to 10752
  153.6684  135.6986  153.5159 H   0  0  0  0  0  0  0  0  0  0  0  0  # atno 10764 bound_to 10752
  153.2762  135.4277  155.0992 H   0  0  0  0  0  0  0  0  0  0  0  0  # atno 10765 bound_to 10752
  140.9811  133.7056  156.1685 H   0  0  0  0  0  0  0  0  0  0  0  0  # atno 11005 bound_to 11000
  146.3322  139.8600  142.8858 LP  0  0  0  0  0  0  0  0  0  0  0  0  # atno 17320 bound_to 7965
  145.2840  141.0147  143.3701 LP  0  0  0  0  0  0  0  0  0  0  0  0  # atno 17321 bound_to 7965
  140.7650  143.3265  151.2505 LP  0  0  0  0  0  0  0  0  0  0  0  0  # atno 17342 bound_to 10162
  139.6823  143.9833  152.2815 LP  0  0  0  0  0  0  0  0  0  0  0  0  # atno 17343 bound_to 10162
  157.1035  131.0202  151.3076 LP  0  0  0  0  0  0  0  0  0  0  0  0  # atno 17370 bound_to 10713
  157.4761  130.7737  149.7369 LP  0  0  0  0  0  0  0  0  0  0  0  0  # atno 17371 bound_to 10713
  140.7185  134.4384  157.5576 LP  0  0  0  0  0  0  0  0  0  0  0  0  # atno 17394 bound_to 11000
  139.8950  134.8692  156.2149 LP  0  0  0  0  0  0  0  0  0  0  0  0  # atno 17395 bound_to 11000

$$$$
