AV-unprocessed.smi:610|AV-procd|sdf|3057|dock9
  -GOLD-   2262023583D 1   1.00000     0.00000
 Structure written by MMmdl.
 38 39  0  0  0  0  0  0  0  0  2 V2000
  151.0857  140.0597  155.8306 C   0  0  0  0  0  0  0  0  0  0  0  0
  149.8990  141.0291  155.9095 C   0  0  2  0  0  0  0  0  0  0  0  0
  149.3235  141.3246  154.5071 C   0  0  0  0  0  0  0  0  0  0  0  0
  147.8649  141.4801  154.5053 N   0  0  0  0  0  0  0  0  0  0  0  0
  147.1178  142.3329  155.2773 C   0  0  0  0  0  0  0  0  0  0  0  0
  145.8061  142.1123  154.9456 C   0  0  0  0  0  0  0  0  0  0  0  0
  145.8084  141.1410  153.9806 N   0  3  0  0  0  0  0  0  0  0  0  0
  147.0615  140.7616  153.7104 C   0  0  0  0  0  0  0  0  0  0  0  0
  150.3361  142.2600  156.5666 N   0  0  0  0  0  0  0  0  0  0  0  0
  150.9402  142.3457  157.7660 C   0  0  0  0  0  0  0  0  0  0  0  0
  151.2049  141.3490  158.4403 O   0  0  0  0  0  0  0  0  0  0  0  0
  151.2842  143.7536  158.3148 C   0  0  0  0  0  0  0  0  0  0  0  0
  150.9195  144.8097  157.3789 N   0  0  0  0  0  0  0  0  0  0  0  0
  150.5733  144.0132  159.6711 C   0  0  0  0  0  0  0  0  0  0  0  0
  151.6705  144.2571  160.7143 C   0  0  0  0  0  0  0  0  0  0  0  0
  152.9265  143.6197  160.1307 C   0  0  0  0  0  0  0  0  0  0  0  0
  152.7951  143.8669  158.6285 C   0  0  0  0  0  0  0  0  0  0  0  0
  150.7905  139.1147  155.3736 H   0  0  0  0  0  0  0  0  0  0  0  0
  151.4764  139.8354  156.8239 H   0  0  0  0  0  0  0  0  0  0  0  0
  151.9013  140.4755  155.2377 H   0  0  0  0  0  0  0  0  0  0  0  0
  149.1296  140.5438  156.5126 H   0  0  0  0  0  0  0  0  0  0  0  0
  149.7618  142.2334  154.0921 H   0  0  0  0  0  0  0  0  0  0  0  0
  149.5654  140.5143  153.8178 H   0  0  0  0  0  0  0  0  0  0  0  0
  147.5627  143.0086  155.9934 H   0  0  0  0  0  0  0  0  0  0  0  0
  144.8955  142.5613  155.3144 H   0  0  0  0  0  0  0  0  0  0  0  0
  147.3636  140.0128  152.9999 H   0  0  0  0  0  0  0  0  0  0  0  0
  150.1662  143.1251  156.0733 H   0  0  0  0  0  0  0  0  0  0  0  0
  150.1383  144.5034  156.8171 H   0  0  0  0  0  0  0  0  0  0  0  0
  150.5957  145.6142  157.8964 H   0  0  0  0  0  0  0  0  0  0  0  0
  149.8864  144.8605  159.6366 H   0  0  0  0  0  0  0  0  0  0  0  0
  149.9732  143.1553  159.9800 H   0  0  0  0  0  0  0  0  0  0  0  0
  151.8302  145.3300  160.8303 H   0  0  0  0  0  0  0  0  0  0  0  0
  151.4136  143.8545  161.6945 H   0  0  0  0  0  0  0  0  0  0  0  0
  153.8426  144.0396  160.5466 H   0  0  0  0  0  0  0  0  0  0  0  0
  152.9279  142.5483  160.3344 H   0  0  0  0  0  0  0  0  0  0  0  0
  153.4107  143.1728  158.0539 H   0  0  0  0  0  0  0  0  0  0  0  0
  153.1659  144.8690  158.4051 H   0  0  0  0  0  0  0  0  0  0  0  0
  144.9822  140.7611  153.5355 H   0  0  0  0  0  0  0  0  0  0  0  0
  1  2  1  0  0  0  0
  1 18  1  0  0  0  0
  1 19  1  0  0  0  0
  1 20  1  0  0  0  0
  2  3  1  0  0  0  0
  2  9  1  0  0  0  0
  2 21  1  0  0  0  0
  3  4  1  0  0  0  0
  3 22  1  0  0  0  0
  3 23  1  0  0  0  0
  4  8  1  0  0  0  0
  4  5  1  0  0  0  0
  5  6  2  0  0  0  0
  5 24  1  0  0  0  0
  6  7  1  0  0  0  0
  6 25  1  0  0  0  0
  7  8  2  0  0  0  0
  7 38  1  0  0  0  0
  8 26  1  0  0  0  0
  9 10  1  0  0  0  0
  9 27  1  0  0  0  0
 10 11  2  0  0  0  0
 10 12  1  0  0  0  0
 12 17  1  0  0  0  0
 12 13  1  0  0  0  0
 12 14  1  0  0  0  0
 13 28  1  0  0  0  0
 13 29  1  0  0  0  0
 14 15  1  0  0  0  0
 14 30  1  0  0  0  0
 14 31  1  0  0  0  0
 15 16  1  0  0  0  0
 15 32  1  0  0  0  0
 15 33  1  0  0  0  0
 16 17  1  0  0  0  0
 16 34  1  0  0  0  0
 16 35  1  0  0  0  0
 17 36  1  0  0  0  0
 17 37  1  0  0  0  0
M  CHG  1   7   1
M  END
> <s_m_source_file>
AV-unprocessed.smi

> <i_m_source_file_index>
610

> <i_lp_mmshare_version>
43012

> <i_f3d_flags>
0

> <s_epik_input>
W2NIXTFuW2NIXVtjSF1uMVtDSDJdW0NAQEhdKFtDSDNdKVtOSF1DKD1PKUMyKFtOSDJdKVtDSDJdW0NIMl1bQ0gyXVtDSDJdMg==

> <s_epik_cmdline>
J2VwaWtfcHl0aG9uJywgJy1waCcsICc3LjAnLCAnLXRuJywgJzgnLCAnLW1hJywgJzIwMCcsICctbWV0YWxfYmluZGluZycsICctaW1hZScsICc8aW5maWxlLm1hZT4nLCAnLW9tYWUnLCAnPG91dGZpbGUubWFlPic=

> <r_epik_Ionization_Penalty>
1.50287

> <r_epik_Ionization_Penalty_Charging>
0

> <r_epik_Ionization_Penalty_Neutral>
1.50287

> <r_epik_State_Penalty>
1.57152

> <r_epik_Charging_Adjusted_Penalty>
1.57152

> <i_epik_Tot_Q>
1

> <i_epik_Tot_abs_Q>
1

> <r_epik_Metal_State_Penalty>
1.8522

> <b_epik_Metal_Only>
0

> <s_lp_Force_Field>
OPLS_2005

> <r_lp_Energy>
22.5232

> <b_lp_Chiralities_Consistent>
1

> <s_lp_Variant>
AV-unprocessed.smi:610-5

> <Gold.Version>
5.8.1

> <Gold.Id.Protein>
6NUR|6NUR_protein|mol2

> <Gold.PLP.Fitness>
52.1995

> <Gold.PLP.PLP>
-35.2914

> <Gold.PLP.part.hbond>
-3.8565

> <Gold.PLP.part.metal>
0.0000

> <Gold.PLP.part.buried>
2.1339

> <Gold.PLP.part.nonpolar>
-33.0200

> <Gold.PLP.part.repulsive>
0.0736

> <Gold.PLP.ligand.clash>
0.0000

> <Gold.PLP.ligand.torsion>
0.5481

> <Gold.PLP.Chemscore.Hbond>
3.9920

> <Gold.PLP.Chemscore.CHOScore>
2.0000

> <Gold.PLP.Chemscore.Metal>
0.0000

> <Gold.Chemscore.Hbonds>
donor molecule, donor type, donor heavy atom, donor atom, acceptor molecule, acceptor atom, score
      L1  H     7    38       P1 10175  2.00
      L1  H     9    27       P1  8028  0.85
      L1  H    13    28       P1  8028  1.00
      L1  C     5    24       P1  8028  0.88
      L1  C     8    26       P1  7957  0.11

> <Gold.PLP.Chemscore.Internal.Correction>
0.0282

> <Gold.Rescore>
     Score         DG    S(hbond)    S(metal)    S(lipo)     H(rot)  DE(clash)    DE(int)     intcor
     16.38     -18.86       2.52        0.00      86.47       2.02       1.02       1.46       ----

> <Gold.Chemscore.Fitness>
16.3753

> <Gold.Chemscore.DG>
-18.8601

> <Gold.Chemscore.ZeroCoef>
-5.4800

> <Gold.Chemscore.Hbond>
2.5216

> <Gold.Chemscore.Metal>
0.0000

> <Gold.Chemscore.Lipo>
86.4700

> <Gold.Chemscore.Internal_Hbond>
0.0000

> <Gold.Chemscore.DEClash>
1.0247

> <Gold.Chemscore.DEInternal>
1.4601

> <Gold.Chemscore.Rot>
2.0152

> <Gold.Chemscore.Internal.Correction>
   9.000000E+99

> <Gold.Chemscore.Hbonds>
donor molecule, donor type, donor heavy atom, donor atom, acceptor molecule, acceptor atom, score
      L1  H     7    38       P1 10175  0.90
      L1  H     9    27       P1  8028  0.78
      L1  H    13    28       P1  8028  0.79

> <Gold.Chemscore.Hbond.Weighted>
-8.4220

> <Gold.Chemscore.Metal.Weighted>
-0.0000

> <Gold.Chemscore.Lipo.Weighted>
-10.1170

> <Gold.Chemscore.Internal_Hbond.Weighted>
0.0000

> <Gold.Chemscore.DEClash.Weighted>
1.0247

> <Gold.Chemscore.DEInternal.Weighted>
1.4601

> <Gold.Chemscore.Rot.Weighted>
5.1589

> <Gold.Chemscore.Internal.Correction.Weighted>
   9.000000E+99

> <Gold.Protein.RotatedTorsions>
[ 6907 6896 6895 6894 ] final -108.49 input  -60.11 | X-H torsion
[ 7974 7965 7964 7962 ] final  -48.09 input  175.53 | X-H torsion
[ 8008 7997 7996 7995 ] final   14.98 input   59.86 | X-H torsion
[ 10167 10162 10161 10158 ] final  -16.36 input  -65.29 | X-H torsion
[ 10718 10713 10712 10709 ] final -175.75 input   66.30 | X-H torsion
[ 10763 10752 10751 10750 ] final  -63.79 input  -60.55 | X-H torsion
[ 11005 11000 10999 10996 ] final -165.55 input  -57.11 | X-H torsion

> <Gold.Protein.ActiveResidues>
 VAL166  LYS551  ARG553  GLY616  TRP617  ASP618  TYR619  PRO620  LYS621  CYS622 
 ASP623  PHE694  ASN695  SER759  ASP760  ASP761  ALA762  ILE779  LEU786  VAL792 
 PHE793  MET794  SER795  GLU796  ALA797  LYS798  CYS799  TRP800  GLU811  SER814 

> <Gold.Protein.RotatedAtoms>
  150.7505  133.9669  159.3533 H   0  0  0  0  0  0  0  0  0  0  0  0  # atno 6907 bound_to 6896
  151.7599  135.0810  160.0353 H   0  0  0  0  0  0  0  0  0  0  0  0  # atno 6908 bound_to 6896
  152.3410  133.6029  159.5912 H   0  0  0  0  0  0  0  0  0  0  0  0  # atno 6909 bound_to 6896
  145.9548  140.7537  142.9486 H   0  0  0  0  0  0  0  0  0  0  0  0  # atno 7974 bound_to 7965
  154.8561  140.2937  155.5568 H   0  0  0  0  0  0  0  0  0  0  0  0  # atno 8008 bound_to 7997
  156.3018  140.2487  156.3460 H   0  0  0  0  0  0  0  0  0  0  0  0  # atno 8009 bound_to 7997
  154.8969  140.0392  157.1860 H   0  0  0  0  0  0  0  0  0  0  0  0  # atno 8010 bound_to 7997
  140.7232  143.5124  150.9733 H   0  0  0  0  0  0  0  0  0  0  0  0  # atno 10167 bound_to 10162
  156.8045  130.9564  151.3118 H   0  0  0  0  0  0  0  0  0  0  0  0  # atno 10718 bound_to 10713
  154.3203  135.6197  153.5505 H   0  0  0  0  0  0  0  0  0  0  0  0  # atno 10763 bound_to 10752
  152.9820  135.5722  154.5077 H   0  0  0  0  0  0  0  0  0  0  0  0  # atno 10764 bound_to 10752
  154.4744  135.2860  155.1595 H   0  0  0  0  0  0  0  0  0  0  0  0  # atno 10765 bound_to 10752
  140.5744  134.5205  157.5167 H   0  0  0  0  0  0  0  0  0  0  0  0  # atno 11005 bound_to 11000
  144.6803  140.2494  143.7333 LP  0  0  0  0  0  0  0  0  0  0  0  0  # atno 17320 bound_to 7965
  145.8121  139.2007  143.1987 LP  0  0  0  0  0  0  0  0  0  0  0  0  # atno 17321 bound_to 7965
  139.8839  143.7038  152.3154 LP  0  0  0  0  0  0  0  0  0  0  0  0  # atno 17342 bound_to 10162
  139.7330  144.7578  151.0772 LP  0  0  0  0  0  0  0  0  0  0  0  0  # atno 17343 bound_to 10162
  157.6537  130.8906  149.9684 LP  0  0  0  0  0  0  0  0  0  0  0  0  # atno 17370 bound_to 10713
  156.1081  130.3651  150.0098 LP  0  0  0  0  0  0  0  0  0  0  0  0  # atno 17371 bound_to 10713
  139.9346  134.7899  156.0837 LP  0  0  0  0  0  0  0  0  0  0  0  0  # atno 17394 bound_to 11000
  141.1035  133.6668  156.2810 LP  0  0  0  0  0  0  0  0  0  0  0  0  # atno 17395 bound_to 11000

$$$$
