AV-unprocessed.smi:2056|AV-procd|sdf|8338|dock2
  -GOLD-   2272011 03D 1   1.00000     0.00000
 Structure written by MMmdl.
 34 34  0  0  0  0  0  0  0  0  1 V2000
  149.1876  134.4065  157.4000 C   0  0  0  0  0  0  0  0  0  0  0  0
  150.3446  134.4616  156.3797 C   0  0  0  0  0  0  0  0  0  0  0  0
  151.2469  135.6605  156.7317 C   0  0  0  0  0  0  0  0  0  0  0  0
  151.1857  133.1725  156.4951 C   0  0  0  0  0  0  0  0  0  0  0  0
  149.8070  134.6722  154.9351 C   0  0  0  0  0  0  0  0  0  0  0  0
  148.8460  133.5927  154.4161 C   0  0  0  0  0  0  0  0  0  0  0  0
  148.7325  132.5316  155.0300 O   0  0  0  0  0  0  0  0  0  0  0  0
  148.1968  133.8892  153.2745 N   0  0  0  0  0  0  0  0  0  0  0  0
  147.2507  133.1019  152.5684 C   0  0  0  0  0  0  0  0  0  0  0  0
  147.0250  133.1911  151.2529 N   0  0  0  0  0  0  0  0  0  0  0  0
  146.0336  132.3021  150.8236 C   0  0  0  0  0  0  0  0  0  0  0  0
  145.6395  132.2606  149.3756 C   0  0  0  0  0  0  0  0  0  0  0  0
  144.1478  132.5643  149.2232 C   0  0  0  0  0  0  0  0  0  0  0  0
  143.8158  133.7395  148.6815 N   0  0  0  0  0  0  0  0  0  0  0  0
  143.3040  131.7500  149.5917 O   0  0  0  0  0  0  0  0  0  0  0  0
  145.5231  131.5298  151.8398 C   0  0  0  0  0  0  0  0  0  0  0  0
  146.2548  131.9025  153.3771 S   0  0  0  0  0  0  0  0  0  0  0  0
  149.5642  134.3402  158.4214 H   0  0  0  0  0  0  0  0  0  0  0  0
  148.5440  133.5407  157.2404 H   0  0  0  0  0  0  0  0  0  0  0  0
  148.5620  135.2977  157.3394 H   0  0  0  0  0  0  0  0  0  0  0  0
  150.6966  136.6010  156.6839 H   0  0  0  0  0  0  0  0  0  0  0  0
  152.0900  135.7388  156.0442 H   0  0  0  0  0  0  0  0  0  0  0  0
  151.6543  135.5726  157.7396 H   0  0  0  0  0  0  0  0  0  0  0  0
  151.6441  133.0875  157.4809 H   0  0  0  0  0  0  0  0  0  0  0  0
  151.9891  133.1554  155.7579 H   0  0  0  0  0  0  0  0  0  0  0  0
  150.5834  132.2757  156.3486 H   0  0  0  0  0  0  0  0  0  0  0  0
  149.3122  135.6426  154.8670 H   0  0  0  0  0  0  0  0  0  0  0  0
  150.6455  134.7251  154.2390 H   0  0  0  0  0  0  0  0  0  0  0  0
  148.3910  134.7952  152.8743 H   0  0  0  0  0  0  0  0  0  0  0  0
  146.2122  132.9865  148.7964 H   0  0  0  0  0  0  0  0  0  0  0  0
  145.8603  131.2833  148.9445 H   0  0  0  0  0  0  0  0  0  0  0  0
  142.8438  133.9851  148.5631 H   0  0  0  0  0  0  0  0  0  0  0  0
  144.5415  134.3801  148.3942 H   0  0  0  0  0  0  0  0  0  0  0  0
  144.7585  130.7699  151.7774 H   0  0  0  0  0  0  0  0  0  0  0  0
  1  2  1  0  0  0  0
  1 18  1  0  0  0  0
  1 19  1  0  0  0  0
  1 20  1  0  0  0  0
  2  3  1  0  0  0  0
  2  4  1  0  0  0  0
  2  5  1  0  0  0  0
  3 21  1  0  0  0  0
  3 22  1  0  0  0  0
  3 23  1  0  0  0  0
  4 24  1  0  0  0  0
  4 25  1  0  0  0  0
  4 26  1  0  0  0  0
  5  6  1  0  0  0  0
  5 27  1  0  0  0  0
  5 28  1  0  0  0  0
  6  7  2  0  0  0  0
  6  8  1  0  0  0  0
  8  9  1  0  0  0  0
  8 29  1  0  0  0  0
  9 17  1  0  0  0  0
  9 10  2  0  0  0  0
 10 11  1  0  0  0  0
 11 12  1  0  0  0  0
 11 16  2  0  0  0  0
 12 13  1  0  0  0  0
 12 30  1  0  0  0  0
 12 31  1  0  0  0  0
 13 14  1  0  0  0  0
 13 15  2  0  0  0  0
 14 32  1  0  0  0  0
 14 33  1  0  0  0  0
 16 17  1  0  0  0  0
 16 34  1  0  0  0  0
M  END
> <s_m_source_file>
AV-unprocessed.smi

> <i_m_source_file_index>
2056

> <i_lp_mmshare_version>
43012

> <i_f3d_flags>
0

> <s_epik_input>
W0NIM11DKFtDSDNdKShbQ0gzXSlbQ0gyXUMoPU8pW05IXWMxbmMoW2NIXXMxKVtDSDJdQyg9TylbTkgyXQ==

> <s_epik_cmdline>
J2VwaWtfcHl0aG9uJywgJy1waCcsICc3LjAnLCAnLXRuJywgJzgnLCAnLW1hJywgJzIwMCcsICctbWV0YWxfYmluZGluZycsICctaW1hZScsICc8aW5maWxlLm1hZT4nLCAnLW9tYWUnLCAnPG91dGZpbGUubWFlPic=

> <r_lp_tautomer_probability>
1

> <r_epik_Ionization_Penalty>
0.000211791

> <r_epik_Ionization_Penalty_Charging>
0

> <r_epik_Ionization_Penalty_Neutral>
0.000211791

> <r_epik_State_Penalty>
-0

> <r_epik_Charging_Adjusted_Penalty>
0

> <i_epik_Tot_Q>
0

> <i_epik_Tot_abs_Q>
0

> <r_epik_Metal_State_Penalty>
0.129621

> <b_epik_Metal_Only>
0

> <s_lp_Force_Field>
OPLS_2005

> <r_lp_Energy>
3.85365

> <b_lp_Chiralities_Consistent>
1

> <s_lp_Variant>
AV-unprocessed.smi:2056-1

> <Gold.Version>
5.8.1

> <Gold.Id.Protein>
6NUR|6NUR_protein|mol2

> <Gold.PLP.Fitness>
39.1305

> <Gold.PLP.PLP>
-28.0795

> <Gold.PLP.part.hbond>
-4.0000

> <Gold.PLP.part.metal>
0.0000

> <Gold.PLP.part.buried>
-5.5835

> <Gold.PLP.part.nonpolar>
-21.2998

> <Gold.PLP.part.repulsive>
2.4397

> <Gold.PLP.ligand.clash>
0.0000

> <Gold.PLP.ligand.torsion>
0.3912

> <Gold.PLP.Chemscore.Hbond>
3.9357

> <Gold.PLP.Chemscore.CHOScore>
0.0000

> <Gold.PLP.Chemscore.Metal>
0.0000

> <Gold.Chemscore.Hbonds>
donor molecule, donor type, donor heavy atom, donor atom, acceptor molecule, acceptor atom, score
      L1  H     8    29       P1  7948  1.00
      L1  H    14    32       P1 10186  0.74
      L1  H    14    33       P1  7921  1.00
      P1  H 10785 10796       L1    15  1.00

> <Gold.PLP.Chemscore.Internal.Correction>
0.0262

> <Gold.Rescore>
     Score         DG    S(hbond)    S(metal)    S(lipo)     H(rot)  DE(clash)    DE(int)     intcor
     14.03     -17.71       3.52        0.00      52.31       2.20       1.21       2.47       ----

> <Gold.Chemscore.Fitness>
14.0304

> <Gold.Chemscore.DG>
-17.7137

> <Gold.Chemscore.ZeroCoef>
-5.4800

> <Gold.Chemscore.Hbond>
3.5157

> <Gold.Chemscore.Metal>
0.0000

> <Gold.Chemscore.Lipo>
52.3150

> <Gold.Chemscore.Internal_Hbond>
0.0000

> <Gold.Chemscore.DEClash>
1.2129

> <Gold.Chemscore.DEInternal>
2.4703

> <Gold.Chemscore.Rot>
2.1991

> <Gold.Chemscore.Internal.Correction>
   9.000000E+99

> <Gold.Chemscore.Hbonds>
donor molecule, donor type, donor heavy atom, donor atom, acceptor molecule, acceptor atom, score
      L1  H     8    29       P1  7948  0.55
      L1  H    14    32       P1 10186  0.71
      L1  H    14    33       P1  7921  0.98
      P1  H 10785 10796       L1    15  0.95

> <Gold.Chemscore.Hbond.Weighted>
-11.7425

> <Gold.Chemscore.Metal.Weighted>
-0.0000

> <Gold.Chemscore.Lipo.Weighted>
-6.1209

> <Gold.Chemscore.Internal_Hbond.Weighted>
0.0000

> <Gold.Chemscore.DEClash.Weighted>
1.2129

> <Gold.Chemscore.DEInternal.Weighted>
2.4703

> <Gold.Chemscore.Rot.Weighted>
5.6297

> <Gold.Chemscore.Internal.Correction.Weighted>
   9.000000E+99

> <Gold.Protein.RotatedTorsions>
[ 6907 6896 6895 6894 ] final  159.99 input  -60.11 | X-H torsion
[ 7974 7965 7964 7962 ] final    0.64 input  175.53 | X-H torsion
[ 8008 7997 7996 7995 ] final -125.39 input   59.86 | X-H torsion
[ 10167 10162 10161 10158 ] final  -11.78 input  -65.29 | X-H torsion
[ 10718 10713 10712 10709 ] final  102.31 input   66.30 | X-H torsion
[ 10763 10752 10751 10750 ] final   19.90 input  -60.55 | X-H torsion
[ 11005 11000 10999 10996 ] final  126.11 input  -57.11 | X-H torsion

> <Gold.Protein.ActiveResidues>
 VAL166  LYS551  ARG553  GLY616  TRP617  ASP618  TYR619  PRO620  LYS621  CYS622 
 ASP623  PHE694  ASN695  SER759  ASP760  ASP761  ALA762  ILE779  LEU786  VAL792 
 PHE793  MET794  SER795  GLU796  ALA797  LYS798  CYS799  TRP800  GLU811  SER814 

> <Gold.Protein.RotatedAtoms>
  151.9773  133.3745  159.4093 H   0  0  0  0  0  0  0  0  0  0  0  0  # atno 6907 bound_to 6896
  150.6940  134.4077  159.5156 H   0  0  0  0  0  0  0  0  0  0  0  0  # atno 6908 bound_to 6896
  152.1790  134.8770  160.0579 H   0  0  0  0  0  0  0  0  0  0  0  0  # atno 6909 bound_to 6896
  146.2436  140.1107  142.8344 H   0  0  0  0  0  0  0  0  0  0  0  0  # atno 7974 bound_to 7965
  155.2126  140.0419  157.2936 H   0  0  0  0  0  0  0  0  0  0  0  0  # atno 8008 bound_to 7997
  154.6002  140.2450  155.7774 H   0  0  0  0  0  0  0  0  0  0  0  0  # atno 8009 bound_to 7997
  156.2316  140.2936  156.0212 H   0  0  0  0  0  0  0  0  0  0  0  0  # atno 8010 bound_to 7997
  140.7146  143.5603  150.9203 H   0  0  0  0  0  0  0  0  0  0  0  0  # atno 10167 bound_to 10162
  157.6805  131.0750  150.5385 H   0  0  0  0  0  0  0  0  0  0  0  0  # atno 10718 bound_to 10713
  153.1123  135.6699  153.9479 H   0  0  0  0  0  0  0  0  0  0  0  0  # atno 10763 bound_to 10752
  153.9019  135.3035  155.3450 H   0  0  0  0  0  0  0  0  0  0  0  0  # atno 10764 bound_to 10752
  154.7541  135.5020  153.9421 H   0  0  0  0  0  0  0  0  0  0  0  0  # atno 10765 bound_to 10752
  139.9440  134.9632  156.8658 H   0  0  0  0  0  0  0  0  0  0  0  0  # atno 11005 bound_to 11000
  145.0490  140.9003  143.5007 LP  0  0  0  0  0  0  0  0  0  0  0  0  # atno 17320 bound_to 7965
  145.1201  139.2699  143.5593 LP  0  0  0  0  0  0  0  0  0  0  0  0  # atno 17321 bound_to 7965
  139.9328  143.6473  152.3072 LP  0  0  0  0  0  0  0  0  0  0  0  0  # atno 17342 bound_to 10162
  139.6930  144.7644  151.1406 LP  0  0  0  0  0  0  0  0  0  0  0  0  # atno 17343 bound_to 10162
  156.5693  130.4275  149.6027 LP  0  0  0  0  0  0  0  0  0  0  0  0  # atno 17370 bound_to 10713
  156.2754  130.7041  151.1850 LP  0  0  0  0  0  0  0  0  0  0  0  0  # atno 17371 bound_to 10713
  140.5881  134.0287  155.7489 LP  0  0  0  0  0  0  0  0  0  0  0  0  # atno 17394 bound_to 11000
  141.1084  133.9656  157.2955 LP  0  0  0  0  0  0  0  0  0  0  0  0  # atno 17395 bound_to 11000

$$$$
