AV-unprocessed.smi:109|AV-procd|sdf|1034|dock5
  -GOLD-   2262018 43D 1   1.00000     0.00000
 Structure written by MMmdl.
 58 61  0  0  0  0  0  0  0  0  1 V2000
  150.3209  141.0138  153.7349 O   0  0  0  0  0  0  0  0  0  0  0  0
  150.0358  141.1504  155.1102 C   0  0  0  0  0  0  0  0  0  0  0  0
  151.2217  141.8167  155.8261 C   0  0  0  0  0  0  0  0  0  0  0  0
  151.2608  141.5072  157.3390 C   0  0  1  0  0  0  0  0  0  0  0  0
  151.9936  140.2623  157.5703 N   0  0  0  0  0  0  0  0  0  0  0  0
  151.3571  139.1086  157.8723 C   0  0  0  0  0  0  0  0  0  0  0  0
  151.2369  138.6821  159.1565 N   0  0  0  0  0  0  0  0  0  0  0  0
  150.5948  137.5418  159.4249 C   0  0  0  0  0  0  0  0  0  0  0  0
  150.0090  136.6953  158.5759 N   0  0  0  0  0  0  0  0  0  0  0  0
  150.1261  137.1167  157.2829 C   0  0  0  0  0  0  0  0  0  0  0  0
  150.7821  138.3046  156.8540 C   0  0  0  0  0  0  0  0  0  0  0  0
  150.7029  138.4141  155.4721 N   0  0  0  0  0  0  0  0  0  0  0  0
  150.0355  137.3520  155.1095 C   0  0  0  0  0  0  0  0  0  0  0  0
  149.6449  136.5183  156.1339 N   0  0  0  0  0  0  0  0  0  0  0  0
  148.8654  135.2425  156.0144 C   0  0  1  0  0  0  0  0  0  0  0  0
  148.6769  134.9370  154.6624 O   0  0  0  0  0  0  0  0  0  0  0  0
  149.2039  133.6432  154.3818 C   0  0  2  0  0  0  0  0  0  0  0  0
  148.4473  132.9865  153.2136 C   0  0  0  0  0  0  0  0  0  0  0  0
  148.7328  131.6073  153.1037 O   0  0  0  0  0  0  0  0  0  0  0  0
  149.1834  132.9147  155.7281 C   0  0  1  0  0  0  0  0  0  0  0  0
  150.0621  131.8064  155.7844 O   0  0  0  0  0  0  0  0  0  0  0  0
  149.5622  134.0382  156.6843 C   0  0  1  0  0  0  0  0  0  0  0  0
  150.9668  134.1982  156.8171 O   0  0  0  0  0  0  0  0  0  0  0  0
  151.8385  142.6579  158.2085 C   0  0  0  0  0  0  0  0  0  0  0  0
  151.7773  142.3514  159.7209 C   0  0  0  0  0  0  0  0  0  0  0  0
  152.4477  143.4614  160.5469 C   0  0  0  0  0  0  0  0  0  0  0  0
  151.8217  144.8323  160.2474 C   0  0  0  0  0  0  0  0  0  0  0  0
  151.8736  145.1489  158.7446 C   0  0  0  0  0  0  0  0  0  0  0  0
  151.2062  144.0380  157.9168 C   0  0  0  0  0  0  0  0  0  0  0  0
  147.8958  135.4679  156.4602 H   0  0  0  0  0  0  0  0  0  0  0  0
  150.2413  133.7896  154.0774 H   0  0  0  0  0  0  0  0  0  0  0  0
  148.1741  132.5787  155.9674 H   0  0  0  0  0  0  0  0  0  0  0  0
  149.1431  133.8814  157.6786 H   0  0  0  0  0  0  0  0  0  0  0  0
  151.0381  140.4062  153.6362 H   0  0  0  0  0  0  0  0  0  0  0  0
  149.1310  141.7475  155.2276 H   0  0  0  0  0  0  0  0  0  0  0  0
  149.8314  140.1631  155.5254 H   0  0  0  0  0  0  0  0  0  0  0  0
  152.1534  141.5019  155.3545 H   0  0  0  0  0  0  0  0  0  0  0  0
  151.1484  142.8918  155.6677 H   0  0  0  0  0  0  0  0  0  0  0  0
  150.2251  141.3567  157.6458 H   0  0  0  0  0  0  0  0  0  0  0  0
  152.9989  140.3278  157.4978 H   0  0  0  0  0  0  0  0  0  0  0  0
  150.5407  137.2695  160.4686 H   0  0  0  0  0  0  0  0  0  0  0  0
  149.8035  137.1476  154.0744 H   0  0  0  0  0  0  0  0  0  0  0  0
  147.3724  133.1311  153.3247 H   0  0  0  0  0  0  0  0  0  0  0  0
  148.7366  133.4618  152.2762 H   0  0  0  0  0  0  0  0  0  0  0  0
  149.2234  131.4651  152.3087 H   0  0  0  0  0  0  0  0  0  0  0  0
  150.8541  132.0277  155.3190 H   0  0  0  0  0  0  0  0  0  0  0  0
  151.2039  135.0501  156.4845 H   0  0  0  0  0  0  0  0  0  0  0  0
  152.8989  142.7382  157.9641 H   0  0  0  0  0  0  0  0  0  0  0  0
  150.7435  142.2460  160.0489 H   0  0  0  0  0  0  0  0  0  0  0  0
  152.2663  141.3990  159.9282 H   0  0  0  0  0  0  0  0  0  0  0  0
  152.3602  143.2375  161.6104 H   0  0  0  0  0  0  0  0  0  0  0  0
  153.5151  143.4897  160.3241 H   0  0  0  0  0  0  0  0  0  0  0  0
  150.7853  144.8425  160.5877 H   0  0  0  0  0  0  0  0  0  0  0  0
  152.3400  145.6093  160.8098 H   0  0  0  0  0  0  0  0  0  0  0  0
  151.3832  146.1029  158.5492 H   0  0  0  0  0  0  0  0  0  0  0  0
  152.9118  145.2652  158.4308 H   0  0  0  0  0  0  0  0  0  0  0  0
  151.2921  144.2767  156.8565 H   0  0  0  0  0  0  0  0  0  0  0  0
  150.1403  144.0197  158.1454 H   0  0  0  0  0  0  0  0  0  0  0  0
  1  2  1  0  0  0  0
  1 34  1  0  0  0  0
  2  3  1  0  0  0  0
  2 35  1  0  0  0  0
  2 36  1  0  0  0  0
  3  4  1  0  0  0  0
  3 37  1  0  0  0  0
  3 38  1  0  0  0  0
  4  5  1  0  0  0  0
  4 24  1  0  0  0  0
  4 39  1  0  0  0  0
  5  6  1  0  0  0  0
  5 40  1  0  0  0  0
  6 11  1  0  0  0  0
  6  7  2  0  0  0  0
  7  8  1  0  0  0  0
  8  9  2  0  0  0  0
  8 41  1  0  0  0  0
  9 10  1  0  0  0  0
 10 14  1  0  0  0  0
 10 11  2  0  0  0  0
 11 12  1  0  0  0  0
 12 13  2  0  0  0  0
 13 14  1  0  0  0  0
 13 42  1  0  0  0  0
 14 15  1  0  0  0  0
 15 30  1  0  0  0  0
 15 22  1  0  0  0  0
 15 16  1  0  0  0  0
 16 17  1  0  0  0  0
 17 31  1  0  0  0  0
 17 18  1  0  0  0  0
 17 20  1  0  0  0  0
 18 19  1  0  0  0  0
 18 43  1  0  0  0  0
 18 44  1  0  0  0  0
 19 45  1  0  0  0  0
 20 32  1  0  0  0  0
 20 21  1  0  0  0  0
 20 22  1  0  0  0  0
 21 46  1  0  0  0  0
 22 33  1  0  0  0  0
 22 23  1  0  0  0  0
 23 47  1  0  0  0  0
 24 29  1  0  0  0  0
 24 25  1  0  0  0  0
 24 48  1  0  0  0  0
 25 26  1  0  0  0  0
 25 49  1  0  0  0  0
 25 50  1  0  0  0  0
 26 27  1  0  0  0  0
 26 51  1  0  0  0  0
 26 52  1  0  0  0  0
 27 28  1  0  0  0  0
 27 53  1  0  0  0  0
 27 54  1  0  0  0  0
 28 29  1  0  0  0  0
 28 55  1  0  0  0  0
 28 56  1  0  0  0  0
 29 57  1  0  0  0  0
 29 58  1  0  0  0  0
M  END
> <s_m_source_file>
AV-unprocessed.smi

> <i_m_source_file_index>
109

> <i_lp_mmshare_version>
43012

> <i_f3d_flags>
0

> <s_epik_input>
W0NIMl0xW0NIMl1bQ0gyXVtDSDJdW0NIMl1bQ0hdMVtDQEhdKFtDSDJdW0NIMl1bT0hdKVtOSF1jKG5bY0hdbjIpYyhjMjMpbltjSF1uM1tDQEBIXTRPW0NASF0oW0NIMl1bT0hdKVtDQEBIXShbT0hdKVtDQEhdNFtPSF0=

> <s_epik_cmdline>
J2VwaWtfcHl0aG9uJywgJy1waCcsICc3LjAnLCAnLXRuJywgJzgnLCAnLW1hJywgJzIwMCcsICctbWV0YWxfYmluZGluZycsICctaW1hZScsICc8aW5maWxlLm1hZT4nLCAnLW9tYWUnLCAnPG91dGZpbGUubWFlPic=

> <r_lp_tautomer_probability>
1

> <r_epik_Ionization_Penalty>
0.000793976

> <r_epik_Ionization_Penalty_Charging>
0

> <r_epik_Ionization_Penalty_Neutral>
0.000793976

> <r_epik_State_Penalty>
-0

> <r_epik_Charging_Adjusted_Penalty>
0

> <i_epik_Tot_Q>
0

> <i_epik_Tot_abs_Q>
0

> <r_epik_Metal_State_Penalty>
-0

> <b_epik_Metal_Only>
0

> <s_epik_Chemistry_Notes>
This compound contains an acetal/aminal-like group ( X-CH(R)-Y where X, Y are N, S, or O) that may be acid/base labile, releasing an aldehyde.

> <s_lp_Force_Field>
OPLS_2005

> <r_lp_Energy>
63.9822

> <b_lp_Chiralities_Consistent>
1

> <s_lp_Variant>
AV-unprocessed.smi:109-4

> <Gold.Version>
5.8.1

> <Gold.Id.Protein>
6NUR|6NUR_protein|mol2

> <Gold.PLP.Fitness>
53.4735

> <Gold.PLP.PLP>
-46.0033

> <Gold.PLP.part.hbond>
-4.9360

> <Gold.PLP.part.metal>
0.0000

> <Gold.PLP.part.buried>
-6.0192

> <Gold.PLP.part.nonpolar>
-34.5855

> <Gold.PLP.part.repulsive>
0.2907

> <Gold.PLP.ligand.clash>
0.0000

> <Gold.PLP.ligand.torsion>
1.5510

> <Gold.PLP.Chemscore.Hbond>
2.4619

> <Gold.PLP.Chemscore.CHOScore>
0.9979

> <Gold.PLP.Chemscore.Metal>
0.0000

> <Gold.Chemscore.Hbonds>
donor molecule, donor type, donor heavy atom, donor atom, acceptor molecule, acceptor atom, score
      L1  H    19    45       P1 10747  0.70
      P1  H  6896  6908       L1     9  0.20
      P1  H  8011  8017       L1     1  0.76
      L1  C    13    42       P1  7948  1.00

> <Gold.PLP.Chemscore.Internal.Correction>
0.1926

> <Gold.Rescore>
     Score         DG    S(hbond)    S(metal)    S(lipo)     H(rot)  DE(clash)    DE(int)     intcor
      5.79      -8.41       1.08        0.00     113.92       5.47       0.04       2.58       ----

> <Gold.Chemscore.Fitness>
5.7911

> <Gold.Chemscore.DG>
-8.4136

> <Gold.Chemscore.ZeroCoef>
-5.4800

> <Gold.Chemscore.Hbond>
1.0774

> <Gold.Chemscore.Metal>
0.0000

> <Gold.Chemscore.Lipo>
113.9192

> <Gold.Chemscore.Internal_Hbond>
0.0000

> <Gold.Chemscore.DEClash>
0.0386

> <Gold.Chemscore.DEInternal>
2.5839

> <Gold.Chemscore.Rot>
5.4662

> <Gold.Chemscore.Internal.Correction>
   9.000000E+99

> <Gold.Chemscore.Hbonds>
donor molecule, donor type, donor heavy atom, donor atom, acceptor molecule, acceptor atom, score
      L1  H    19    45       P1 10747  0.27
      P1  H  6896  6908       L1     9  0.01
      P1  H  8011  8017       L1     1  0.71

> <Gold.Chemscore.Hbond.Weighted>
-3.5985

> <Gold.Chemscore.Metal.Weighted>
-0.0000

> <Gold.Chemscore.Lipo.Weighted>
-13.3286

> <Gold.Chemscore.Internal_Hbond.Weighted>
0.0000

> <Gold.Chemscore.DEClash.Weighted>
0.0386

> <Gold.Chemscore.DEInternal.Weighted>
2.5839

> <Gold.Chemscore.Rot.Weighted>
13.9935

> <Gold.Chemscore.Internal.Correction.Weighted>
   9.000000E+99

> <Gold.Protein.RotatedTorsions>
[ 6907 6896 6895 6894 ] final -169.49 input  -60.11 | X-H torsion
[ 7974 7965 7964 7962 ] final   51.32 input  175.53 | X-H torsion
[ 8008 7997 7996 7995 ] final    1.70 input   59.86 | X-H torsion
[ 10167 10162 10161 10158 ] final   72.48 input  -65.29 | X-H torsion
[ 10718 10713 10712 10709 ] final  139.13 input   66.30 | X-H torsion
[ 10763 10752 10751 10750 ] final -176.91 input  -60.55 | X-H torsion
[ 11005 11000 10999 10996 ] final   88.87 input  -57.11 | X-H torsion

> <Gold.Protein.ActiveResidues>
 VAL166  LYS551  ARG553  GLY616  TRP617  ASP618  TYR619  PRO620  LYS621  CYS622 
 ASP623  PHE694  ASN695  SER759  ASP760  ASP761  ALA762  ILE779  LEU786  VAL792 
 PHE793  MET794  SER795  GLU796  ALA797  LYS798  CYS799  TRP800  GLU811  SER814 

> <Gold.Protein.RotatedAtoms>
  151.4925  133.3522  159.2855 H   0  0  0  0  0  0  0  0  0  0  0  0  # atno 6907 bound_to 6896
  150.8825  134.8221  159.7246 H   0  0  0  0  0  0  0  0  0  0  0  0  # atno 6908 bound_to 6896
  152.4772  134.4824  159.9721 H   0  0  0  0  0  0  0  0  0  0  0  0  # atno 6909 bound_to 6896
  145.9924  139.4353  143.0065 H   0  0  0  0  0  0  0  0  0  0  0  0  # atno 7974 bound_to 7965
  154.6829  140.2636  155.6890 H   0  0  0  0  0  0  0  0  0  0  0  0  # atno 8008 bound_to 7997
  156.2703  140.2806  156.1302 H   0  0  0  0  0  0  0  0  0  0  0  0  # atno 8009 bound_to 7997
  155.1006  140.0374  157.2686 H   0  0  0  0  0  0  0  0  0  0  0  0  # atno 8010 bound_to 7997
  140.0348  144.5437  150.7479 H   0  0  0  0  0  0  0  0  0  0  0  0  # atno 10167 bound_to 10162
  157.4178  131.1035  151.0386 H   0  0  0  0  0  0  0  0  0  0  0  0  # atno 10718 bound_to 10713
  154.5666  135.2824  155.0868 H   0  0  0  0  0  0  0  0  0  0  0  0  # atno 10763 bound_to 10752
  154.2257  135.6383  153.5162 H   0  0  0  0  0  0  0  0  0  0  0  0  # atno 10764 bound_to 10752
  153.0045  135.5525  154.6276 H   0  0  0  0  0  0  0  0  0  0  0  0  # atno 10765 bound_to 10752
  139.8887  134.8515  156.3062 H   0  0  0  0  0  0  0  0  0  0  0  0  # atno 11005 bound_to 11000
  145.7609  140.9935  143.1200 LP  0  0  0  0  0  0  0  0  0  0  0  0  # atno 17320 bound_to 7965
  144.6893  139.9330  143.7472 LP  0  0  0  0  0  0  0  0  0  0  0  0  # atno 17321 bound_to 7965
  140.7286  143.2664  151.4032 LP  0  0  0  0  0  0  0  0  0  0  0  0  # atno 17342 bound_to 10162
  139.6052  144.1212  152.2241 LP  0  0  0  0  0  0  0  0  0  0  0  0  # atno 17343 bound_to 10162
  157.1328  130.6109  149.5534 LP  0  0  0  0  0  0  0  0  0  0  0  0  # atno 17370 bound_to 10713
  155.9870  130.4908  150.7108 LP  0  0  0  0  0  0  0  0  0  0  0  0  # atno 17371 bound_to 10713
  140.9881  133.7226  156.0772 LP  0  0  0  0  0  0  0  0  0  0  0  0  # atno 17394 bound_to 11000
  140.7662  134.3884  157.5516 LP  0  0  0  0  0  0  0  0  0  0  0  0  # atno 17395 bound_to 11000

$$$$
