AV-unprocessed.smi:313|AV-procd|sdf|2312|dock8
  -GOLD-   2262022213D 1   1.00000     0.00000
 Structure written by MMmdl.
 50 51  0  0  0  0  0  0  0  0  1 V2000
  152.0355  141.9142  158.5015 C   0  0  0  0  0  0  0  0  0  0  0  0
  150.5982  141.8772  157.9622 C   0  0  0  0  0  0  0  0  0  0  0  0
  150.5108  141.6082  156.4481 C   0  0  1  0  0  0  0  0  0  0  0  0
  151.3017  140.3515  156.0511 C   0  0  0  0  0  0  0  0  0  0  0  0
  149.1144  141.4701  156.0410 N   0  0  0  0  0  0  0  0  0  0  0  0
  148.6848  141.2312  154.7924 C   0  0  0  0  0  0  0  0  0  0  0  0
  149.4427  141.0990  153.8298 O   0  0  0  0  0  0  0  0  0  0  0  0
  147.1608  141.1483  154.6089 C   0  0  1  0  0  0  0  0  0  0  0  0
  146.7243  142.3262  153.7220 C   0  0  0  0  0  0  0  0  0  0  0  0
  146.7832  139.9088  153.9317 N   0  0  0  0  0  0  0  0  0  0  0  0
  146.7749  138.6883  154.4937 C   0  0  0  0  0  0  0  0  0  0  0  0
  147.1032  138.4750  155.6610 O   0  0  0  0  0  0  0  0  0  0  0  0
  146.3982  137.5580  153.5805 C   0  0  0  0  0  0  0  0  0  0  0  0
  146.0359  137.7788  152.2344 C   0  0  0  0  0  0  0  0  0  0  0  0
  145.6712  136.6815  151.4311 C   0  0  0  0  0  0  0  0  0  0  0  0
  145.6706  135.3794  151.9932 C   0  0  0  0  0  0  0  0  0  0  0  0
  145.3102  134.2349  151.2440 N   0  0  0  0  0  0  0  0  0  0  0  0
  143.9489  133.7318  151.4316 C   0  0  0  0  0  0  0  0  0  0  0  0
  143.5860  132.7197  150.3318 C   0  0  0  0  0  0  0  0  0  0  0  0
  144.5628  131.6864  150.2863 O   0  0  0  0  0  0  0  0  0  0  0  0
  145.8490  132.1978  149.9582 C   0  0  0  0  0  0  0  0  0  0  0  0
  146.3087  133.1872  151.0422 C   0  0  0  0  0  0  0  0  0  0  0  0
  146.0069  135.1764  153.2902 N   0  0  0  0  0  0  0  0  0  0  0  0
  146.3541  136.2314  154.0573 C   0  0  0  0  0  0  0  0  0  0  0  0
  152.0386  142.0618  159.5815 H   0  0  0  0  0  0  0  0  0  0  0  0
  152.6113  142.7265  158.0576 H   0  0  0  0  0  0  0  0  0  0  0  0
  152.5575  140.9800  158.2930 H   0  0  0  0  0  0  0  0  0  0  0  0
  150.0481  141.1013  158.4958 H   0  0  0  0  0  0  0  0  0  0  0  0
  150.1000  142.8180  158.2002 H   0  0  0  0  0  0  0  0  0  0  0  0
  150.9497  142.4642  155.9321 H   0  0  0  0  0  0  0  0  0  0  0  0
  152.3507  140.4441  156.3330 H   0  0  0  0  0  0  0  0  0  0  0  0
  151.2664  140.1848  154.9741 H   0  0  0  0  0  0  0  0  0  0  0  0
  150.9036  139.4610  156.5388 H   0  0  0  0  0  0  0  0  0  0  0  0
  148.4196  141.5682  156.7671 H   0  0  0  0  0  0  0  0  0  0  0  0
  146.6594  141.2115  155.5768 H   0  0  0  0  0  0  0  0  0  0  0  0
  146.9764  143.2832  154.1811 H   0  0  0  0  0  0  0  0  0  0  0  0
  145.6451  142.3168  153.5666 H   0  0  0  0  0  0  0  0  0  0  0  0
  147.1982  142.2933  152.7396 H   0  0  0  0  0  0  0  0  0  0  0  0
  146.5313  139.9833  152.9569 H   0  0  0  0  0  0  0  0  0  0  0  0
  146.0324  138.7729  151.8114 H   0  0  0  0  0  0  0  0  0  0  0  0
  145.4076  136.8652  150.4010 H   0  0  0  0  0  0  0  0  0  0  0  0
  143.8820  133.2592  152.4122 H   0  0  0  0  0  0  0  0  0  0  0  0
  143.2149  134.5373  151.4145 H   0  0  0  0  0  0  0  0  0  0  0  0
  142.6113  132.2772  150.5373 H   0  0  0  0  0  0  0  0  0  0  0  0
  143.5128  133.2115  149.3604 H   0  0  0  0  0  0  0  0  0  0  0  0
  146.5533  131.3690  149.8844 H   0  0  0  0  0  0  0  0  0  0  0  0
  145.8217  132.6793  148.9789 H   0  0  0  0  0  0  0  0  0  0  0  0
  147.2584  133.6231  150.7309 H   0  0  0  0  0  0  0  0  0  0  0  0
  146.4762  132.6629  151.9840 H   0  0  0  0  0  0  0  0  0  0  0  0
  146.6092  136.0004  155.0814 H   0  0  0  0  0  0  0  0  0  0  0  0
  1  2  1  0  0  0  0
  1 25  1  0  0  0  0
  1 26  1  0  0  0  0
  1 27  1  0  0  0  0
  2  3  1  0  0  0  0
  2 28  1  0  0  0  0
  2 29  1  0  0  0  0
  3  4  1  0  0  0  0
  3  5  1  0  0  0  0
  3 30  1  0  0  0  0
  4 31  1  0  0  0  0
  4 32  1  0  0  0  0
  4 33  1  0  0  0  0
  5  6  1  0  0  0  0
  5 34  1  0  0  0  0
  6  7  2  0  0  0  0
  6  8  1  0  0  0  0
  8  9  1  0  0  0  0
  8 10  1  0  0  0  0
  8 35  1  0  0  0  0
  9 36  1  0  0  0  0
  9 37  1  0  0  0  0
  9 38  1  0  0  0  0
 10 11  1  0  0  0  0
 10 39  1  0  0  0  0
 11 12  2  0  0  0  0
 11 13  1  0  0  0  0
 13 24  1  0  0  0  0
 13 14  2  0  0  0  0
 14 15  1  0  0  0  0
 14 40  1  0  0  0  0
 15 16  2  0  0  0  0
 15 41  1  0  0  0  0
 16 17  1  0  0  0  0
 16 23  1  0  0  0  0
 17 22  1  0  0  0  0
 17 18  1  0  0  0  0
 18 19  1  0  0  0  0
 18 42  1  0  0  0  0
 18 43  1  0  0  0  0
 19 20  1  0  0  0  0
 19 44  1  0  0  0  0
 19 45  1  0  0  0  0
 20 21  1  0  0  0  0
 21 22  1  0  0  0  0
 21 46  1  0  0  0  0
 21 47  1  0  0  0  0
 22 48  1  0  0  0  0
 22 49  1  0  0  0  0
 23 24  2  0  0  0  0
 24 50  1  0  0  0  0
M  END
> <s_m_source_file>
AV-unprocessed.smi

> <i_m_source_file_index>
313

> <i_lp_mmshare_version>
43012

> <i_f3d_flags>
0

> <s_epik_input>
W0NIM11bQ0gyXVtDQEhdKFtDSDNdKVtOSF1DKD1PKVtDQEhdKFtDSDNdKVtOSF1DKD1PKWMxW2NIXVtjSF1jKG5bY0hdMSlOMltDSDJdW0NIMl1PW0NIMl1bQ0gyXTI=

> <s_epik_cmdline>
J2VwaWtfcHl0aG9uJywgJy1waCcsICc3LjAnLCAnLXRuJywgJzgnLCAnLW1hJywgJzIwMCcsICctbWV0YWxfYmluZGluZycsICctaW1hZScsICc8aW5maWxlLm1hZT4nLCAnLW9tYWUnLCAnPG91dGZpbGUubWFlPic=

> <r_lp_tautomer_probability>
1

> <r_epik_Ionization_Penalty>
9.96442e-06

> <r_epik_Ionization_Penalty_Charging>
0

> <r_epik_Ionization_Penalty_Neutral>
9.96442e-06

> <r_epik_State_Penalty>
-0

> <r_epik_Charging_Adjusted_Penalty>
0

> <i_epik_Tot_Q>
0

> <i_epik_Tot_abs_Q>
0

> <r_epik_Metal_State_Penalty>
-0

> <b_epik_Metal_Only>
0

> <s_lp_Force_Field>
OPLS_2005

> <r_lp_Energy>
19.952

> <b_lp_Chiralities_Consistent>
1

> <s_lp_Variant>
AV-unprocessed.smi:313-4

> <Gold.Version>
5.8.1

> <Gold.Id.Protein>
6NUR|6NUR_protein|mol2

> <Gold.PLP.Fitness>
41.0243

> <Gold.PLP.PLP>
-38.8590

> <Gold.PLP.part.hbond>
-2.6900

> <Gold.PLP.part.metal>
0.0000

> <Gold.PLP.part.buried>
-6.6511

> <Gold.PLP.part.nonpolar>
-33.1176

> <Gold.PLP.part.repulsive>
2.0653

> <Gold.PLP.ligand.clash>
0.0000

> <Gold.PLP.ligand.torsion>
0.5481

> <Gold.PLP.Chemscore.Hbond>
0.9216

> <Gold.PLP.Chemscore.CHOScore>
0.0000

> <Gold.PLP.Chemscore.Metal>
0.0000

> <Gold.Chemscore.Hbonds>
donor molecule, donor type, donor heavy atom, donor atom, acceptor molecule, acceptor atom, score
      P1  H  7989  7998       L1     7  0.20
      P1  H  8011  8017       L1     7  0.91

> <Gold.PLP.Chemscore.Internal.Correction>
0.4967

> <Gold.Rescore>
     Score         DG    S(hbond)    S(metal)    S(lipo)     H(rot)  DE(clash)    DE(int)     intcor
     12.69     -14.30       0.82        0.00      90.99       1.79       0.05       1.55       ----

> <Gold.Chemscore.Fitness>
12.6864

> <Gold.Chemscore.DG>
-14.2957

> <Gold.Chemscore.ZeroCoef>
-5.4800

> <Gold.Chemscore.Hbond>
0.8229

> <Gold.Chemscore.Metal>
0.0000

> <Gold.Chemscore.Lipo>
90.9944

> <Gold.Chemscore.Internal_Hbond>
0.0000

> <Gold.Chemscore.DEClash>
0.0549

> <Gold.Chemscore.DEInternal>
1.5543

> <Gold.Chemscore.Rot>
1.7888

> <Gold.Chemscore.Internal.Correction>
   9.000000E+99

> <Gold.Chemscore.Hbonds>
donor molecule, donor type, donor heavy atom, donor atom, acceptor molecule, acceptor atom, score
      P1  H  7989  7998       L1     7  0.20
      P1  H  8011  8017       L1     7  0.84

> <Gold.Chemscore.Hbond.Weighted>
-2.7486

> <Gold.Chemscore.Metal.Weighted>
-0.0000

> <Gold.Chemscore.Lipo.Weighted>
-10.6463

> <Gold.Chemscore.Internal_Hbond.Weighted>
0.0000

> <Gold.Chemscore.DEClash.Weighted>
0.0549

> <Gold.Chemscore.DEInternal.Weighted>
1.5543

> <Gold.Chemscore.Rot.Weighted>
4.5793

> <Gold.Chemscore.Internal.Correction.Weighted>
   9.000000E+99

> <Gold.Protein.RotatedTorsions>
[ 6907 6896 6895 6894 ] final  -52.41 input  -60.11 | X-H torsion
[ 7974 7965 7964 7962 ] final  -81.98 input  175.53 | X-H torsion
[ 8008 7997 7996 7995 ] final  -15.14 input   59.86 | X-H torsion
[ 10167 10162 10161 10158 ] final   38.72 input  -65.29 | X-H torsion
[ 10718 10713 10712 10709 ] final -173.81 input   66.30 | X-H torsion
[ 10763 10752 10751 10750 ] final  -83.05 input  -60.55 | X-H torsion
[ 11005 11000 10999 10996 ] final -120.29 input  -57.11 | X-H torsion

> <Gold.Protein.ActiveResidues>
 VAL166  LYS551  ARG553  GLY616  TRP617  ASP618  TYR619  PRO620  LYS621  CYS622 
 ASP623  PHE694  ASN695  SER759  ASP760  ASP761  ALA762  ILE779  LEU786  VAL792 
 PHE793  MET794  SER795  GLU796  ALA797  LYS798  CYS799  TRP800  GLU811  SER814 

> <Gold.Protein.RotatedAtoms>
  150.8520  134.7848  159.7016 H   0  0  0  0  0  0  0  0  0  0  0  0  # atno 6907 bound_to 6896
  152.4582  134.5240  159.9801 H   0  0  0  0  0  0  0  0  0  0  0  0  # atno 6908 bound_to 6896
  151.5359  133.3403  159.2962 H   0  0  0  0  0  0  0  0  0  0  0  0  # atno 6909 bound_to 6896
  145.5393  140.9511  143.1559 H   0  0  0  0  0  0  0  0  0  0  0  0  # atno 7974 bound_to 7965
  154.5153  140.2204  155.9077 H   0  0  0  0  0  0  0  0  0  0  0  0  # atno 8008 bound_to 7997
  156.1601  140.3144  155.8758 H   0  0  0  0  0  0  0  0  0  0  0  0  # atno 8009 bound_to 7997
  155.3769  140.0470  157.3035 H   0  0  0  0  0  0  0  0  0  0  0  0  # atno 8010 bound_to 7997
  140.3909  144.1854  150.6131 H   0  0  0  0  0  0  0  0  0  0  0  0  # atno 10167 bound_to 10162
  156.7758  130.9465  151.3120 H   0  0  0  0  0  0  0  0  0  0  0  0  # atno 10718 bound_to 10713
  154.5831  135.5570  153.7204 H   0  0  0  0  0  0  0  0  0  0  0  0  # atno 10763 bound_to 10752
  153.0088  135.6325  154.1955 H   0  0  0  0  0  0  0  0  0  0  0  0  # atno 10764 bound_to 10752
  154.1895  135.2883  155.3006 H   0  0  0  0  0  0  0  0  0  0  0  0  # atno 10765 bound_to 10752
  141.0154  134.0203  157.3357 H   0  0  0  0  0  0  0  0  0  0  0  0  # atno 11005 bound_to 11000
  144.7585  139.7015  143.7244 LP  0  0  0  0  0  0  0  0  0  0  0  0  # atno 17320 bound_to 7965
  146.1991  139.5276  142.9755 LP  0  0  0  0  0  0  0  0  0  0  0  0  # atno 17321 bound_to 7965
  140.4840  143.2369  151.8914 LP  0  0  0  0  0  0  0  0  0  0  0  0  # atno 17342 bound_to 10162
  139.4789  144.5238  151.8764 LP  0  0  0  0  0  0  0  0  0  0  0  0  # atno 17343 bound_to 10162
  157.6669  130.9016  149.9953 LP  0  0  0  0  0  0  0  0  0  0  0  0  # atno 17370 bound_to 10713
  156.1249  130.3645  149.9826 LP  0  0  0  0  0  0  0  0  0  0  0  0  # atno 17371 bound_to 10713
  139.9114  135.0190  156.7706 LP  0  0  0  0  0  0  0  0  0  0  0  0  # atno 17394 bound_to 11000
  140.6664  133.9599  155.7832 LP  0  0  0  0  0  0  0  0  0  0  0  0  # atno 17395 bound_to 11000

$$$$
