AV-unprocessed.smi:1619|AV-procd|sdf|6489|dock3
  -GOLD-   22720 7153D 1   1.00000     0.00000
 Structure written by MMmdl.
 45 47  0  0  0  0  0  0  0  0  3 V2000
  153.3879  142.7396  160.6423 C   0  0  0  0  0  0  0  0  0  0  0  0
  152.4892  142.3310  159.4873 C   0  0  0  0  0  0  0  0  0  0  0  0
  152.6948  141.0680  158.8871 C   0  0  0  0  0  0  0  0  0  0  0  0
  151.8546  140.7211  157.8357 C   0  0  0  0  0  0  0  0  0  0  0  0
  151.7989  139.5677  157.0501 N   0  3  0  0  0  0  0  0  0  0  0  0
  150.7970  139.6886  156.1354 C   0  0  0  0  0  0  0  0  0  0  0  0
  150.2105  140.9019  156.3273 N   0  0  0  0  0  0  0  0  0  0  0  0
  149.0882  141.5340  155.6203 C   0  0  0  0  0  0  0  0  0  0  0  0
  148.6005  140.7113  154.4112 C   0  0  2  0  0  0  0  0  0  0  0  0
  149.5570  140.8001  153.3721 O   0  0  0  0  0  0  0  0  0  0  0  0
  147.2405  141.2122  153.8873 C   0  0  0  0  0  0  0  0  0  0  0  0
  146.5024  140.1720  153.1299 N   0  3  0  0  0  0  0  0  0  0  0  0
  147.0920  139.7928  151.8299 C   0  0  0  0  0  0  0  0  0  0  0  0
  146.4984  138.4224  151.4879 C   0  0  0  0  0  0  0  0  0  0  0  0
  145.9525  137.8670  152.8089 C   0  0  0  0  0  0  0  0  0  0  0  0
  146.3156  138.9096  153.8682 C   0  0  0  0  0  0  0  0  0  0  0  0
  150.8392  141.5818  157.3760 C   0  0  0  0  0  0  0  0  0  0  0  0
  150.6241  142.8304  157.9539 C   0  0  0  0  0  0  0  0  0  0  0  0
  151.4664  143.2005  159.0269 C   0  0  0  0  0  0  0  0  0  0  0  0
  151.2529  144.5548  159.6816 C   0  0  0  0  0  0  0  0  0  0  0  0
  154.1428  141.9800  160.8483 H   0  0  0  0  0  0  0  0  0  0  0  0
  152.8017  142.8824  161.5503 H   0  0  0  0  0  0  0  0  0  0  0  0
  153.9074  143.6708  160.4150 H   0  0  0  0  0  0  0  0  0  0  0  0
  153.4713  140.4009  159.2323 H   0  0  0  0  0  0  0  0  0  0  0  0
  150.5171  138.9528  155.3952 H   0  0  0  0  0  0  0  0  0  0  0  0
  148.2803  141.6948  156.3355 H   0  0  0  0  0  0  0  0  0  0  0  0
  149.4183  142.5230  155.2994 H   0  0  0  0  0  0  0  0  0  0  0  0
  148.5195  139.6660  154.7092 H   0  0  0  0  0  0  0  0  0  0  0  0
  149.3024  140.2161  152.6738 H   0  0  0  0  0  0  0  0  0  0  0  0
  146.6209  141.5571  154.7167 H   0  0  0  0  0  0  0  0  0  0  0  0
  147.3980  142.0771  153.2407 H   0  0  0  0  0  0  0  0  0  0  0  0
  146.8843  140.5338  151.0573 H   0  0  0  0  0  0  0  0  0  0  0  0
  148.1752  139.7050  151.9303 H   0  0  0  0  0  0  0  0  0  0  0  0
  145.6873  138.5268  150.7662 H   0  0  0  0  0  0  0  0  0  0  0  0
  147.2483  137.7652  151.0459 H   0  0  0  0  0  0  0  0  0  0  0  0
  144.8690  137.7599  152.7435 H   0  0  0  0  0  0  0  0  0  0  0  0
  146.3661  136.8869  153.0489 H   0  0  0  0  0  0  0  0  0  0  0  0
  147.2538  138.6290  154.3501 H   0  0  0  0  0  0  0  0  0  0  0  0
  145.5531  139.0024  154.6425 H   0  0  0  0  0  0  0  0  0  0  0  0
  149.8468  143.4925  157.6027 H   0  0  0  0  0  0  0  0  0  0  0  0
  150.4166  145.0893  159.2304 H   0  0  0  0  0  0  0  0  0  0  0  0
  152.1420  145.1764  159.5742 H   0  0  0  0  0  0  0  0  0  0  0  0
  151.0383  144.4369  160.7438 H   0  0  0  0  0  0  0  0  0  0  0  0
  145.5772  140.5306  152.9394 H   0  0  0  0  0  0  0  0  0  0  0  0
  152.3987  138.7565  157.1308 H   0  0  0  0  0  0  0  0  0  0  0  0
  1  2  1  0  0  0  0
  1 21  1  0  0  0  0
  1 22  1  0  0  0  0
  1 23  1  0  0  0  0
  2 19  1  0  0  0  0
  2  3  2  0  0  0  0
  3  4  1  0  0  0  0
  3 24  1  0  0  0  0
  4 17  2  0  0  0  0
  4  5  1  0  0  0  0
  5  6  2  0  0  0  0
  5 45  1  0  0  0  0
  6  7  1  0  0  0  0
  6 25  1  0  0  0  0
  7  8  1  0  0  0  0
  7 17  1  0  0  0  0
  8  9  1  0  0  0  0
  8 26  1  0  0  0  0
  8 27  1  0  0  0  0
  9 10  1  0  0  0  0
  9 11  1  0  0  0  0
  9 28  1  0  0  0  0
 10 29  1  0  0  0  0
 11 12  1  0  0  0  0
 11 30  1  0  0  0  0
 11 31  1  0  0  0  0
 12 16  1  0  0  0  0
 12 13  1  0  0  0  0
 12 44  1  0  0  0  0
 13 14  1  0  0  0  0
 13 32  1  0  0  0  0
 13 33  1  0  0  0  0
 14 15  1  0  0  0  0
 14 34  1  0  0  0  0
 14 35  1  0  0  0  0
 15 16  1  0  0  0  0
 15 36  1  0  0  0  0
 15 37  1  0  0  0  0
 16 38  1  0  0  0  0
 16 39  1  0  0  0  0
 17 18  1  0  0  0  0
 18 19  2  0  0  0  0
 18 40  1  0  0  0  0
 19 20  1  0  0  0  0
 20 41  1  0  0  0  0
 20 42  1  0  0  0  0
 20 43  1  0  0  0  0
M  CHG  1   5   1
M  CHG  1  12   1
M  END
> <s_m_source_file>
AV-unprocessed.smi

> <i_m_source_file_index>
1619

> <i_lp_mmshare_version>
43012

> <i_f3d_flags>
0

> <s_epik_input>
W0NIM11jKFtjSF0xKWMoW0NIM10pW2NIXWMoYzEyKW4oW2NIXW4yKVtDSDJdW0NASF0oW09IXSlbQ0gyXU4zW0NIMl1bQ0gyXVtDSDJdW0NIMl0z

> <s_epik_cmdline>
J2VwaWtfcHl0aG9uJywgJy1waCcsICc3LjAnLCAnLXRuJywgJzgnLCAnLW1hJywgJzIwMCcsICctbWV0YWxfYmluZGluZycsICctaW1hZScsICc8aW5maWxlLm1hZT4nLCAnLW9tYWUnLCAnPG91dGZpbGUubWFlPic=

> <r_epik_Ionization_Penalty>
1.18067

> <r_epik_Ionization_Penalty_Charging>
1.18067

> <r_epik_Ionization_Penalty_Neutral>
1.08888e-06

> <r_epik_State_Penalty>
1.26407

> <r_epik_Charging_Adjusted_Penalty>
2.44473

> <i_epik_Tot_Q>
2

> <i_epik_Tot_abs_Q>
2

> <r_epik_Metal_State_Penalty>
5.27628

> <b_epik_Metal_Only>
0

> <s_lp_Force_Field>
OPLS_2005

> <r_lp_Energy>
41.212

> <b_lp_Chiralities_Consistent>
1

> <s_lp_Variant>
AV-unprocessed.smi:1619-3

> <Gold.Version>
5.8.1

> <Gold.Id.Protein>
6NUR|6NUR_protein|mol2

> <Gold.PLP.Fitness>
52.7846

> <Gold.PLP.PLP>
-41.5213

> <Gold.PLP.part.hbond>
-3.3352

> <Gold.PLP.part.metal>
0.0000

> <Gold.PLP.part.buried>
-0.7770

> <Gold.PLP.part.nonpolar>
-39.4101

> <Gold.PLP.part.repulsive>
0.0920

> <Gold.PLP.ligand.clash>
0.0000

> <Gold.PLP.ligand.torsion>
0.3691

> <Gold.PLP.Chemscore.Hbond>
3.9873

> <Gold.PLP.Chemscore.CHOScore>
0.0000

> <Gold.PLP.Chemscore.Metal>
0.0000

> <Gold.Chemscore.Hbonds>
donor molecule, donor type, donor heavy atom, donor atom, acceptor molecule, acceptor atom, score
      L1  H    10    29       P1  7957  0.74
      L1  H    12    44       P1 10175  2.00
      P1  H  7989  7998       L1    10  0.28
      P1  H  8011  8017       L1    10  0.90

> <Gold.PLP.Chemscore.Internal.Correction>
0.0394

> <Gold.Rescore>
     Score         DG    S(hbond)    S(metal)    S(lipo)     H(rot)  DE(clash)    DE(int)     intcor
     20.26     -21.04       2.16        0.00     116.99       2.08       0.24       0.54       ----

> <Gold.Chemscore.Fitness>
20.2582

> <Gold.Chemscore.DG>
-21.0409

> <Gold.Chemscore.ZeroCoef>
-5.4800

> <Gold.Chemscore.Hbond>
2.1558

> <Gold.Chemscore.Metal>
0.0000

> <Gold.Chemscore.Lipo>
116.9918

> <Gold.Chemscore.Internal_Hbond>
0.0000

> <Gold.Chemscore.DEClash>
0.2428

> <Gold.Chemscore.DEInternal>
0.5399

> <Gold.Chemscore.Rot>
2.0811

> <Gold.Chemscore.Internal.Correction>
   9.000000E+99

> <Gold.Chemscore.Hbonds>
donor molecule, donor type, donor heavy atom, donor atom, acceptor molecule, acceptor atom, score
      L1  H    10    29       P1  7957  0.70
      L1  H    12    44       P1 10175  0.77
      P1  H  7989  7998       L1    10  0.19
      P1  H  8011  8017       L1    10  0.18

> <Gold.Chemscore.Hbond.Weighted>
-7.2004

> <Gold.Chemscore.Metal.Weighted>
-0.0000

> <Gold.Chemscore.Lipo.Weighted>
-13.6880

> <Gold.Chemscore.Internal_Hbond.Weighted>
0.0000

> <Gold.Chemscore.DEClash.Weighted>
0.2428

> <Gold.Chemscore.DEInternal.Weighted>
0.5399

> <Gold.Chemscore.Rot.Weighted>
5.3275

> <Gold.Chemscore.Internal.Correction.Weighted>
   9.000000E+99

> <Gold.Protein.RotatedTorsions>
[ 6907 6896 6895 6894 ] final    8.07 input  -60.11 | X-H torsion
[ 7974 7965 7964 7962 ] final -172.15 input  175.53 | X-H torsion
[ 8008 7997 7996 7995 ] final  -23.76 input   59.86 | X-H torsion
[ 10167 10162 10161 10158 ] final -175.06 input  -65.29 | X-H torsion
[ 10718 10713 10712 10709 ] final  -46.36 input   66.30 | X-H torsion
[ 10763 10752 10751 10750 ] final -120.57 input  -60.55 | X-H torsion
[ 11005 11000 10999 10996 ] final  -10.07 input  -57.11 | X-H torsion

> <Gold.Protein.ActiveResidues>
 VAL166  LYS551  ARG553  GLY616  TRP617  ASP618  TYR619  PRO620  LYS621  CYS622 
 ASP623  PHE694  ASN695  SER759  ASP760  ASP761  ALA762  ILE779  LEU786  VAL792 
 PHE793  MET794  SER795  GLU796  ALA797  LYS798  CYS799  TRP800  GLU811  SER814 

> <Gold.Protein.RotatedAtoms>
  151.7000  135.0931  160.0248 H   0  0  0  0  0  0  0  0  0  0  0  0  # atno 6907 bound_to 6896
  152.3726  133.6434  159.6107 H   0  0  0  0  0  0  0  0  0  0  0  0  # atno 6908 bound_to 6896
  150.7685  133.9162  159.3425 H   0  0  0  0  0  0  0  0  0  0  0  0  # atno 6909 bound_to 6896
  144.7149  140.1815  143.6358 H   0  0  0  0  0  0  0  0  0  0  0  0  # atno 7974 bound_to 7965
  154.4567  140.1972  156.0359 H   0  0  0  0  0  0  0  0  0  0  0  0  # atno 8008 bound_to 7997
  156.0760  140.3278  155.7606 H   0  0  0  0  0  0  0  0  0  0  0  0  # atno 8009 bound_to 7997
  155.5187  140.0568  157.2901 H   0  0  0  0  0  0  0  0  0  0  0  0  # atno 8010 bound_to 7997
  139.5600  144.1892  152.1224 H   0  0  0  0  0  0  0  0  0  0  0  0  # atno 10167 bound_to 10162
  156.2191  130.4165  149.9016 H   0  0  0  0  0  0  0  0  0  0  0  0  # atno 10718 bound_to 10713
  154.8647  135.4198  154.2480 H   0  0  0  0  0  0  0  0  0  0  0  0  # atno 10763 bound_to 10752
  153.3432  135.6995  153.6855 H   0  0  0  0  0  0  0  0  0  0  0  0  # atno 10764 bound_to 10752
  153.5825  135.3570  155.2853 H   0  0  0  0  0  0  0  0  0  0  0  0  # atno 10765 bound_to 10752
  140.7408  133.8671  155.8966 H   0  0  0  0  0  0  0  0  0  0  0  0  # atno 11005 bound_to 11000
  145.8852  139.2345  143.1582 LP  0  0  0  0  0  0  0  0  0  0  0  0  # atno 17320 bound_to 7965
  145.9957  140.8564  143.0044 LP  0  0  0  0  0  0  0  0  0  0  0  0  # atno 17321 bound_to 7965
  140.1404  144.5207  150.6747 LP  0  0  0  0  0  0  0  0  0  0  0  0  # atno 17342 bound_to 10162
  140.6879  143.2360  151.5211 LP  0  0  0  0  0  0  0  0  0  0  0  0  # atno 17343 bound_to 10162
  156.6668  130.8804  151.3556 LP  0  0  0  0  0  0  0  0  0  0  0  0  # atno 17370 bound_to 10713
  157.7078  130.9405  150.0989 LP  0  0  0  0  0  0  0  0  0  0  0  0  # atno 17371 bound_to 10713
  140.9838  134.1370  157.4471 LP  0  0  0  0  0  0  0  0  0  0  0  0  # atno 17394 bound_to 11000
  139.8806  135.0019  156.6094 LP  0  0  0  0  0  0  0  0  0  0  0  0  # atno 17395 bound_to 11000

$$$$
