AV-unprocessed.smi:3153|AV-procd|sdf|12019|dock8
  -GOLD-   2272017433D 1   1.00000     0.00000
 Structure written by MMmdl.
 38 39  0  0  0  0  0  0  0  0  2 V2000
  148.6251  138.8756  152.9591 O   0  0  0  0  0  0  0  0  0  0  0  0
  147.3270  139.2139  153.4166 C   0  0  0  0  0  0  0  0  0  0  0  0
  146.3269  138.2794  152.6995 C   0  0  0  0  0  0  0  0  0  0  0  0
  146.5323  136.8572  153.0477 N   0  3  0  0  0  0  0  0  0  0  0  0
  145.3836  135.9884  152.7281 C   0  0  0  0  0  0  0  0  0  0  0  0
  145.2819  135.7416  151.2151 C   0  0  0  0  0  0  0  0  0  0  0  0
  145.2632  134.3269  150.8942 N   0  0  0  0  0  0  0  0  0  0  0  0
  144.2501  133.5924  150.3139 C   0  0  0  0  0  0  0  0  0  0  0  0
  144.6951  132.3067  150.1981 C   0  0  0  0  0  0  0  0  0  0  0  0
  146.0126  132.3550  150.7332 C   0  0  0  0  0  0  0  0  0  0  0  0
  146.3514  133.5667  151.1443 N   0  0  0  0  0  0  0  0  0  0  0  0
  147.2771  138.9615  154.9426 C   0  0  0  0  0  0  0  0  0  0  0  0
  148.1691  139.9260  155.7442 C   0  0  0  0  0  0  0  0  0  0  0  0
  147.8306  141.3892  155.4289 C   0  0  0  0  0  0  0  0  0  0  0  0
  147.9375  141.6637  153.9226 C   0  0  0  0  0  0  0  0  0  0  0  0
  147.0458  140.7068  153.1106 C   0  0  0  0  0  0  0  0  0  0  0  0
  148.5915  138.0219  152.5544 H   0  0  0  0  0  0  0  0  0  0  0  0
  145.3033  138.5600  152.9528 H   0  0  0  0  0  0  0  0  0  0  0  0
  146.4251  138.3924  151.6187 H   0  0  0  0  0  0  0  0  0  0  0  0
  147.3422  136.5185  152.5483 H   0  0  0  0  0  0  0  0  0  0  0  0
  145.4957  135.0415  153.2581 H   0  0  0  0  0  0  0  0  0  0  0  0
  144.4682  136.4567  153.0924 H   0  0  0  0  0  0  0  0  0  0  0  0
  144.3741  136.1979  150.8183 H   0  0  0  0  0  0  0  0  0  0  0  0
  146.1227  136.2017  150.6938 H   0  0  0  0  0  0  0  0  0  0  0  0
  143.3066  134.0389  150.0358 H   0  0  0  0  0  0  0  0  0  0  0  0
  144.1621  131.4609  149.7896 H   0  0  0  0  0  0  0  0  0  0  0  0
  146.7282  131.5521  150.8324 H   0  0  0  0  0  0  0  0  0  0  0  0
  146.2492  139.0729  155.2911 H   0  0  0  0  0  0  0  0  0  0  0  0
  147.5594  137.9318  155.1663 H   0  0  0  0  0  0  0  0  0  0  0  0
  148.0476  139.7403  156.8118 H   0  0  0  0  0  0  0  0  0  0  0  0
  149.2189  139.7356  155.5185 H   0  0  0  0  0  0  0  0  0  0  0  0
  146.8204  141.6150  155.7729 H   0  0  0  0  0  0  0  0  0  0  0  0
  148.5005  142.0525  155.9771 H   0  0  0  0  0  0  0  0  0  0  0  0
  147.6566  142.6967  153.7147 H   0  0  0  0  0  0  0  0  0  0  0  0
  148.9758  141.5596  153.6056 H   0  0  0  0  0  0  0  0  0  0  0  0
  147.1765  140.9134  152.0478 H   0  0  0  0  0  0  0  0  0  0  0  0
  146.0017  140.9287  153.3356 H   0  0  0  0  0  0  0  0  0  0  0  0
  146.7180  136.7979  154.0389 H   0  0  0  0  0  0  0  0  0  0  0  0
  1  2  1  0  0  0  0
  1 17  1  0  0  0  0
  2 16  1  0  0  0  0
  2  3  1  0  0  0  0
  2 12  1  0  0  0  0
  3  4  1  0  0  0  0
  3 18  1  0  0  0  0
  3 19  1  0  0  0  0
  4  5  1  0  0  0  0
  4 20  1  0  0  0  0
  4 38  1  0  0  0  0
  5  6  1  0  0  0  0
  5 21  1  0  0  0  0
  5 22  1  0  0  0  0
  6  7  1  0  0  0  0
  6 23  1  0  0  0  0
  6 24  1  0  0  0  0
  7 11  1  0  0  0  0
  7  8  1  0  0  0  0
  8  9  2  0  0  0  0
  8 25  1  0  0  0  0
  9 10  1  0  0  0  0
  9 26  1  0  0  0  0
 10 11  2  0  0  0  0
 10 27  1  0  0  0  0
 12 13  1  0  0  0  0
 12 28  1  0  0  0  0
 12 29  1  0  0  0  0
 13 14  1  0  0  0  0
 13 30  1  0  0  0  0
 13 31  1  0  0  0  0
 14 15  1  0  0  0  0
 14 32  1  0  0  0  0
 14 33  1  0  0  0  0
 15 16  1  0  0  0  0
 15 34  1  0  0  0  0
 15 35  1  0  0  0  0
 16 36  1  0  0  0  0
 16 37  1  0  0  0  0
M  CHG  1   4   1
M  END
> <s_m_source_file>
AV-unprocessed.smi

> <i_m_source_file_index>
3153

> <i_lp_mmshare_version>
43012

> <i_f3d_flags>
0

> <s_epik_input>
W0NIMl0xW0NIMl1bQ0gyXVtDSDJdW0NIMl1DMShbT0hdKVtDSDJdW05IXVtDSDJdW0NIMl1uMltjSF1bY0hdW2NIXW4y

> <s_epik_cmdline>
J2VwaWtfcHl0aG9uJywgJy1waCcsICc3LjAnLCAnLXRuJywgJzgnLCAnLW1hJywgJzIwMCcsICctbWV0YWxfYmluZGluZycsICctaW1hZScsICc8aW5maWxlLm1hZT4nLCAnLW9tYWUnLCAnPG91dGZpbGUubWFlPic=

> <r_lp_tautomer_probability>
1

> <r_epik_Ionization_Penalty>
0.0240152

> <r_epik_Ionization_Penalty_Charging>
0.0240119

> <r_epik_Ionization_Penalty_Neutral>
3.38076e-06

> <r_epik_State_Penalty>
0.0194671

> <r_epik_Charging_Adjusted_Penalty>
0.043479

> <i_epik_Tot_Q>
1

> <i_epik_Tot_abs_Q>
1

> <r_epik_Metal_State_Penalty>
0.0195093

> <b_epik_Metal_Only>
0

> <s_lp_Force_Field>
OPLS_2005

> <r_lp_Energy>
15.7554

> <b_lp_Chiralities_Consistent>
1

> <s_lp_Variant>
AV-unprocessed.smi:3153-1

> <Gold.Version>
5.8.1

> <Gold.Id.Protein>
6NUR|6NUR_protein|mol2

> <Gold.PLP.Fitness>
44.4722

> <Gold.PLP.PLP>
-30.4890

> <Gold.PLP.part.hbond>
-2.5185

> <Gold.PLP.part.metal>
0.0000

> <Gold.PLP.part.buried>
-4.9967

> <Gold.PLP.part.nonpolar>
-23.4480

> <Gold.PLP.part.repulsive>
0.2129

> <Gold.PLP.ligand.clash>
0.0000

> <Gold.PLP.ligand.torsion>
0.5322

> <Gold.PLP.Chemscore.Hbond>
3.0000

> <Gold.PLP.Chemscore.CHOScore>
2.0000

> <Gold.PLP.Chemscore.Metal>
0.0000

> <Gold.Chemscore.Hbonds>
donor molecule, donor type, donor heavy atom, donor atom, acceptor molecule, acceptor atom, score
      L1  H     1    17       P1  7948  1.00
      L1  H     4    20       P1  7948  2.00
      L1  C     8    25       P1 10186  1.00
      L1  C    10    27       P1 10747  1.00

> <Gold.PLP.Chemscore.Internal.Correction>
0.0475

> <Gold.Rescore>
     Score         DG    S(hbond)    S(metal)    S(lipo)     H(rot)  DE(clash)    DE(int)     intcor
     15.07     -15.73       2.00        0.00      79.96       2.26       0.13       0.53       ----

> <Gold.Chemscore.Fitness>
15.0686

> <Gold.Chemscore.DG>
-15.7261

> <Gold.Chemscore.ZeroCoef>
-5.4800

> <Gold.Chemscore.Hbond>
1.9991

> <Gold.Chemscore.Metal>
0.0000

> <Gold.Chemscore.Lipo>
79.9568

> <Gold.Chemscore.Internal_Hbond>
0.0000

> <Gold.Chemscore.DEClash>
0.1311

> <Gold.Chemscore.DEInternal>
0.5264

> <Gold.Chemscore.Rot>
2.2601

> <Gold.Chemscore.Internal.Correction>
   9.000000E+99

> <Gold.Chemscore.Hbonds>
donor molecule, donor type, donor heavy atom, donor atom, acceptor molecule, acceptor atom, score
      L1  H     1    17       P1  7948  1.00
      L1  H     4    20       P1  7948  1.00

> <Gold.Chemscore.Hbond.Weighted>
-6.6770

> <Gold.Chemscore.Metal.Weighted>
-0.0000

> <Gold.Chemscore.Lipo.Weighted>
-9.3549

> <Gold.Chemscore.Internal_Hbond.Weighted>
0.0000

> <Gold.Chemscore.DEClash.Weighted>
0.1311

> <Gold.Chemscore.DEInternal.Weighted>
0.5264

> <Gold.Chemscore.Rot.Weighted>
5.7858

> <Gold.Chemscore.Internal.Correction.Weighted>
   9.000000E+99

> <Gold.Protein.RotatedTorsions>
[ 6907 6896 6895 6894 ] final   67.15 input  -60.11 | X-H torsion
[ 7974 7965 7964 7962 ] final -101.88 input  175.53 | X-H torsion
[ 8008 7997 7996 7995 ] final   42.04 input   59.86 | X-H torsion
[ 10167 10162 10161 10158 ] final -159.13 input  -65.29 | X-H torsion
[ 10718 10713 10712 10709 ] final   50.11 input   66.30 | X-H torsion
[ 10763 10752 10751 10750 ] final   11.64 input  -60.55 | X-H torsion
[ 11005 11000 10999 10996 ] final  -23.67 input  -57.11 | X-H torsion

> <Gold.Protein.ActiveResidues>
 VAL166  LYS551  ARG553  GLY616  TRP617  ASP618  TYR619  PRO620  LYS621  CYS622 
 ASP623  PHE694  ASN695  SER759  ASP760  ASP761  ALA762  ILE779  LEU786  VAL792 
 PHE793  MET794  SER795  GLU796  ALA797  LYS798  CYS799  TRP800  GLU811  SER814 

> <Gold.Protein.RotatedAtoms>
  152.4531  134.5350  159.9821 H   0  0  0  0  0  0  0  0  0  0  0  0  # atno 6907 bound_to 6896
  151.5417  133.3426  159.2944 H   0  0  0  0  0  0  0  0  0  0  0  0  # atno 6908 bound_to 6896
  150.8467  134.7809  159.7039 H   0  0  0  0  0  0  0  0  0  0  0  0  # atno 6909 bound_to 6896
  145.2759  140.9312  143.2959 H   0  0  0  0  0  0  0  0  0  0  0  0  # atno 7974 bound_to 7965
  155.2796  140.3371  155.4259 H   0  0  0  0  0  0  0  0  0  0  0  0  # atno 8008 bound_to 7997
  156.2096  140.1764  156.7766 H   0  0  0  0  0  0  0  0  0  0  0  0  # atno 8009 bound_to 7997
  154.5667  140.0677  156.8887 H   0  0  0  0  0  0  0  0  0  0  0  0  # atno 8010 bound_to 7997
  139.6638  143.9865  152.2242 H   0  0  0  0  0  0  0  0  0  0  0  0  # atno 10167 bound_to 10162
  157.4853  130.8341  149.8140 H   0  0  0  0  0  0  0  0  0  0  0  0  # atno 10718 bound_to 10713
  153.1905  135.6841  153.8358 H   0  0  0  0  0  0  0  0  0  0  0  0  # atno 10763 bound_to 10752
  153.7659  135.3203  155.3345 H   0  0  0  0  0  0  0  0  0  0  0  0  # atno 10764 bound_to 10752
  154.8115  135.4714  154.0626 H   0  0  0  0  0  0  0  0  0  0  0  0  # atno 10765 bound_to 10752
  140.8773  133.7678  156.0259 H   0  0  0  0  0  0  0  0  0  0  0  0  # atno 11005 bound_to 11000
  144.9294  139.4316  143.6502 LP  0  0  0  0  0  0  0  0  0  0  0  0  # atno 17320 bound_to 7965
  146.3232  139.8197  142.8929 LP  0  0  0  0  0  0  0  0  0  0  0  0  # atno 17321 bound_to 7965
  139.9611  144.6557  150.8079 LP  0  0  0  0  0  0  0  0  0  0  0  0  # atno 17342 bound_to 10162
  140.7591  143.3121  151.2819 LP  0  0  0  0  0  0  0  0  0  0  0  0  # atno 17343 bound_to 10162
  156.0143  130.3820  150.2161 LP  0  0  0  0  0  0  0  0  0  0  0  0  # atno 17370 bound_to 10713
  157.0348  131.0018  151.3301 LP  0  0  0  0  0  0  0  0  0  0  0  0  # atno 17371 bound_to 10713
  140.8503  134.2962  157.5278 LP  0  0  0  0  0  0  0  0  0  0  0  0  # atno 17394 bound_to 11000
  139.8716  134.9464  156.3937 LP  0  0  0  0  0  0  0  0  0  0  0  0  # atno 17395 bound_to 11000

$$$$
