AV-unprocessed.smi:1231|AV-procd|sdf|5166|dock5
  -GOLD-   22720 4243D 1   1.00000     0.00000
 Structure written by MMmdl.
 43 44  0  0  0  0  0  0  0  0  2 V2000
  143.8630  142.2780  156.1191 C   0  0  0  0  0  0  0  0  0  0  0  0
  145.2603  142.9230  156.1011 C   0  0  1  0  0  0  0  0  0  0  0  0
  146.4097  141.9008  155.9997 C   0  0  0  0  0  0  0  0  0  0  0  0
  146.5050  141.3323  154.6342 N   0  3  2  0  0  0  0  0  0  0  0  0
  147.5670  140.3020  154.5237 C   0  0  0  0  0  0  0  0  0  0  0  0
  148.9287  140.9048  154.1283 C   0  0  0  0  0  0  0  0  0  0  0  0
  149.3585  141.9259  155.0767 N   0  0  0  0  0  0  0  0  0  0  0  0
  150.1669  141.7042  156.1234 C   0  0  0  0  0  0  0  0  0  0  0  0
  150.6397  140.5981  156.3880 O   0  0  0  0  0  0  0  0  0  0  0  0
  150.3813  142.8320  156.8233 N   0  0  0  0  0  0  0  0  0  0  0  0
  151.1878  143.0071  157.9794 C   0  0  0  0  0  0  0  0  0  0  0  0
  151.3375  144.3457  158.4077 C   0  0  0  0  0  0  0  0  0  0  0  0
  152.1181  144.6256  159.5460 C   0  0  0  0  0  0  0  0  0  0  0  0
  152.7315  143.5585  160.2261 C   0  0  0  0  0  0  0  0  0  0  0  0
  152.5334  142.2557  159.7325 C   0  0  0  0  0  0  0  0  0  0  0  0
  151.7847  141.9851  158.6422 N   0  0  0  0  0  0  0  0  0  0  0  0
  146.6303  142.4193  153.6335 C   0  0  0  0  0  0  0  0  0  0  0  0
  145.4471  143.3966  153.7512 C   0  0  2  0  0  0  0  0  0  0  0  0
  145.5846  144.5837  152.7916 C   0  0  0  0  0  0  0  0  0  0  0  0
  145.3872  143.9113  155.0790 O   0  0  0  0  0  0  0  0  0  0  0  0
  143.7500  141.6262  156.9859 H   0  0  0  0  0  0  0  0  0  0  0  0
  143.6734  141.6727  155.2332 H   0  0  0  0  0  0  0  0  0  0  0  0
  143.0845  143.0391  156.1779 H   0  0  0  0  0  0  0  0  0  0  0  0
  145.3726  143.4531  157.0472 H   0  0  0  0  0  0  0  0  0  0  0  0
  147.3549  142.3869  156.2476 H   0  0  0  0  0  0  0  0  0  0  0  0
  146.2635  141.1046  156.7311 H   0  0  0  0  0  0  0  0  0  0  0  0
  147.6355  139.7472  155.4609 H   0  0  0  0  0  0  0  0  0  0  0  0
  147.2848  139.5772  153.7583 H   0  0  0  0  0  0  0  0  0  0  0  0
  149.6881  140.1229  154.1051 H   0  0  0  0  0  0  0  0  0  0  0  0
  148.9001  141.3387  153.1284 H   0  0  0  0  0  0  0  0  0  0  0  0
  149.0112  142.8628  154.9306 H   0  0  0  0  0  0  0  0  0  0  0  0
  149.9147  143.6631  156.4914 H   0  0  0  0  0  0  0  0  0  0  0  0
  150.8588  145.1539  157.8737 H   0  0  0  0  0  0  0  0  0  0  0  0
  152.2431  145.6415  159.8906 H   0  0  0  0  0  0  0  0  0  0  0  0
  153.3373  143.7331  161.1029 H   0  0  0  0  0  0  0  0  0  0  0  0
  152.9878  141.4088  160.2248 H   0  0  0  0  0  0  0  0  0  0  0  0
  147.5733  142.9474  153.7851 H   0  0  0  0  0  0  0  0  0  0  0  0
  146.6560  142.0076  152.6250 H   0  0  0  0  0  0  0  0  0  0  0  0
  144.5181  142.8774  153.5143 H   0  0  0  0  0  0  0  0  0  0  0  0
  145.6170  144.2491  151.7545 H   0  0  0  0  0  0  0  0  0  0  0  0
  146.4964  145.1484  152.9893 H   0  0  0  0  0  0  0  0  0  0  0  0
  144.7410  145.2670  152.8939 H   0  0  0  0  0  0  0  0  0  0  0  0
  145.6276  140.8639  154.4588 H   0  0  0  0  0  0  0  0  0  0  0  0
  1  2  1  0  0  0  0
  1 21  1  0  0  0  0
  1 22  1  0  0  0  0
  1 23  1  0  0  0  0
  2 20  1  0  0  0  0
  2  3  1  0  0  0  0
  2 24  1  0  0  0  0
  3  4  1  0  0  0  0
  3 25  1  0  0  0  0
  3 26  1  0  0  0  0
  4  5  1  0  0  0  0
  4 17  1  0  0  0  0
  4 43  1  0  0  0  0
  5  6  1  0  0  0  0
  5 27  1  0  0  0  0
  5 28  1  0  0  0  0
  6  7  1  0  0  0  0
  6 29  1  0  0  0  0
  6 30  1  0  0  0  0
  7  8  1  0  0  0  0
  7 31  1  0  0  0  0
  8  9  2  0  0  0  0
  8 10  1  0  0  0  0
 10 11  1  0  0  0  0
 10 32  1  0  0  0  0
 11 16  1  0  0  0  0
 11 12  2  0  0  0  0
 12 13  1  0  0  0  0
 12 33  1  0  0  0  0
 13 14  2  0  0  0  0
 13 34  1  0  0  0  0
 14 15  1  0  0  0  0
 14 35  1  0  0  0  0
 15 16  2  0  0  0  0
 15 36  1  0  0  0  0
 17 18  1  0  0  0  0
 17 37  1  0  0  0  0
 17 38  1  0  0  0  0
 18 19  1  0  0  0  0
 18 20  1  0  0  0  0
 18 39  1  0  0  0  0
 19 40  1  0  0  0  0
 19 41  1  0  0  0  0
 19 42  1  0  0  0  0
M  CHG  1   4   1
M  END
> <s_m_source_file>
AV-unprocessed.smi

> <i_m_source_file_index>
1231

> <i_lp_mmshare_version>
43012

> <i_f3d_flags>
0

> <s_epik_input>
W0NIM11bQ0BASF0xW0NIMl1OKFtDSDJdW0NASF0oTzEpW0NIM10pW0NIMl1bQ0gyXVtOSF1DKD1PKVtOSF1jMltjSF1bY0hdW2NIXVtjSF1uMg==

> <s_epik_cmdline>
J2VwaWtfcHl0aG9uJywgJy1waCcsICc3LjAnLCAnLXRuJywgJzgnLCAnLW1hJywgJzIwMCcsICctbWV0YWxfYmluZGluZycsICctaW1hZScsICc8aW5maWxlLm1hZT4nLCAnLW9tYWUnLCAnPG91dGZpbGUubWFlPic=

> <r_epik_Ionization_Penalty>
0.602565

> <r_epik_Ionization_Penalty_Charging>
0.602531

> <r_epik_Ionization_Penalty_Neutral>
3.43186e-05

> <r_epik_State_Penalty>
0.617039

> <r_epik_Charging_Adjusted_Penalty>
1.21957

> <i_epik_Tot_Q>
1

> <i_epik_Tot_abs_Q>
1

> <r_epik_Metal_State_Penalty>
0.617041

> <b_epik_Metal_Only>
0

> <s_lp_Force_Field>
OPLS_2005

> <r_lp_Energy>
18.3102

> <b_lp_Chiralities_Consistent>
1

> <s_lp_Variant>
AV-unprocessed.smi:1231-7

> <Gold.Version>
5.8.1

> <Gold.Id.Protein>
6NUR|6NUR_protein|mol2

> <Gold.PLP.Fitness>
46.1992

> <Gold.PLP.PLP>
-41.2088

> <Gold.PLP.part.hbond>
-2.0000

> <Gold.PLP.part.metal>
0.0000

> <Gold.PLP.part.buried>
-6.1003

> <Gold.PLP.part.nonpolar>
-33.4691

> <Gold.PLP.part.repulsive>
0.4482

> <Gold.PLP.ligand.clash>
0.0000

> <Gold.PLP.ligand.torsion>
0.5055

> <Gold.PLP.Chemscore.Hbond>
1.9920

> <Gold.PLP.Chemscore.CHOScore>
0.0000

> <Gold.PLP.Chemscore.Metal>
0.0000

> <Gold.Chemscore.Hbonds>
donor molecule, donor type, donor heavy atom, donor atom, acceptor molecule, acceptor atom, score
      L1  H     7    31       P1  8028  0.94
      L1  H    10    32       P1  8028  1.00

> <Gold.PLP.Chemscore.Internal.Correction>
0.0254

> <Gold.Rescore>
     Score         DG    S(hbond)    S(metal)    S(lipo)     H(rot)  DE(clash)    DE(int)     intcor
     16.79     -18.62       1.96        0.00      90.23       1.55       0.06       1.77       ----

> <Gold.Chemscore.Fitness>
16.7906

> <Gold.Chemscore.DG>
-18.6190

> <Gold.Chemscore.ZeroCoef>
-5.4800

> <Gold.Chemscore.Hbond>
1.9646

> <Gold.Chemscore.Metal>
0.0000

> <Gold.Chemscore.Lipo>
90.2292

> <Gold.Chemscore.Internal_Hbond>
0.0000

> <Gold.Chemscore.DEClash>
0.0608

> <Gold.Chemscore.DEInternal>
1.7675

> <Gold.Chemscore.Rot>
1.5546

> <Gold.Chemscore.Internal.Correction>
   9.000000E+99

> <Gold.Chemscore.Hbonds>
donor molecule, donor type, donor heavy atom, donor atom, acceptor molecule, acceptor atom, score
      L1  H     7    31       P1  8028  0.89
      L1  H    10    32       P1  8028  1.00

> <Gold.Chemscore.Hbond.Weighted>
-6.5618

> <Gold.Chemscore.Metal.Weighted>
-0.0000

> <Gold.Chemscore.Lipo.Weighted>
-10.5568

> <Gold.Chemscore.Internal_Hbond.Weighted>
0.0000

> <Gold.Chemscore.DEClash.Weighted>
0.0608

> <Gold.Chemscore.DEInternal.Weighted>
1.7675

> <Gold.Chemscore.Rot.Weighted>
3.9797

> <Gold.Chemscore.Internal.Correction.Weighted>
   9.000000E+99

> <Gold.Protein.RotatedTorsions>
[ 6907 6896 6895 6894 ] final -117.83 input  -60.11 | X-H torsion
[ 7974 7965 7964 7962 ] final  -84.52 input  175.53 | X-H torsion
[ 8008 7997 7996 7995 ] final   24.94 input   59.86 | X-H torsion
[ 10167 10162 10161 10158 ] final -126.31 input  -65.29 | X-H torsion
[ 10718 10713 10712 10709 ] final  -86.16 input   66.30 | X-H torsion
[ 10763 10752 10751 10750 ] final -126.62 input  -60.55 | X-H torsion
[ 11005 11000 10999 10996 ] final   29.45 input  -57.11 | X-H torsion

> <Gold.Protein.ActiveResidues>
 VAL166  LYS551  ARG553  GLY616  TRP617  ASP618  TYR619  PRO620  LYS621  CYS622 
 ASP623  PHE694  ASN695  SER759  ASP760  ASP761  ALA762  ILE779  LEU786  VAL792 
 PHE793  MET794  SER795  GLU796  ALA797  LYS798  CYS799  TRP800  GLU811  SER814 

> <Gold.Protein.RotatedAtoms>
  150.8169  133.8322  159.3156 H   0  0  0  0  0  0  0  0  0  0  0  0  # atno 6907 bound_to 6896
  151.6091  135.1040  160.0087 H   0  0  0  0  0  0  0  0  0  0  0  0  # atno 6908 bound_to 6896
  152.4260  133.7155  159.6560 H   0  0  0  0  0  0  0  0  0  0  0  0  # atno 6909 bound_to 6896
  145.5055  140.9544  143.1736 H   0  0  0  0  0  0  0  0  0  0  0  0  # atno 7974 bound_to 7965
  155.0040  140.3128  155.4856 H   0  0  0  0  0  0  0  0  0  0  0  0  # atno 8008 bound_to 7997
  156.2920  140.2227  156.5092 H   0  0  0  0  0  0  0  0  0  0  0  0  # atno 8009 bound_to 7997
  154.7593  140.0460  157.0948 H   0  0  0  0  0  0  0  0  0  0  0  0  # atno 8010 bound_to 7997
  139.9728  143.5826  152.2406 H   0  0  0  0  0  0  0  0  0  0  0  0  # atno 10167 bound_to 10162
  155.9991  130.4756  150.4673 H   0  0  0  0  0  0  0  0  0  0  0  0  # atno 10718 bound_to 10713
  154.8747  135.3989  154.3460 H   0  0  0  0  0  0  0  0  0  0  0  0  # atno 10763 bound_to 10752
  153.4253  135.7024  153.6272 H   0  0  0  0  0  0  0  0  0  0  0  0  # atno 10764 bound_to 10752
  153.4917  135.3747  155.2465 H   0  0  0  0  0  0  0  0  0  0  0  0  # atno 10765 bound_to 10752
  140.3048  134.2715  155.7746 H   0  0  0  0  0  0  0  0  0  0  0  0  # atno 11005 bound_to 11000
  144.7756  139.6638  143.7176 LP  0  0  0  0  0  0  0  0  0  0  0  0  # atno 17320 bound_to 7965
  146.2199  139.5617  142.9625 LP  0  0  0  0  0  0  0  0  0  0  0  0  # atno 17321 bound_to 7965
  139.6468  144.7658  151.2228 LP  0  0  0  0  0  0  0  0  0  0  0  0  # atno 17342 bound_to 10162
  140.7516  143.6226  150.8499 LP  0  0  0  0  0  0  0  0  0  0  0  0  # atno 17343 bound_to 10162
  157.2691  131.0583  151.2271 LP  0  0  0  0  0  0  0  0  0  0  0  0  # atno 17370 bound_to 10713
  157.3358  130.7008  149.6351 LP  0  0  0  0  0  0  0  0  0  0  0  0  # atno 17371 bound_to 10713
  141.2120  133.7670  156.9821 LP  0  0  0  0  0  0  0  0  0  0  0  0  # atno 17394 bound_to 11000
  140.1077  134.9496  157.2018 LP  0  0  0  0  0  0  0  0  0  0  0  0  # atno 17395 bound_to 11000

$$$$
