AV-unprocessed.smi:34|AV-procd|sdf|225|dock1
  -GOLD-   2262015543D 1   1.00000     0.00000
 Structure written by MMmdl.
 55 59  0  0  0  0  0  0  0  0  1 V2000
  152.2038  139.7008  158.9740 O   0  0  0  0  0  0  0  0  0  0  0  0
  152.1511  140.7673  158.3608 C   0  0  0  0  0  0  0  0  0  0  0  0
  152.1945  140.8281  156.9102 N   0  0  0  0  0  0  0  0  0  0  0  0
  152.2190  139.7998  156.0298 C   0  0  0  0  0  0  0  0  0  0  0  0
  153.0245  139.7958  154.9354 N   0  0  0  0  0  0  0  0  0  0  0  0
  153.0131  138.7569  154.0956 C   0  0  0  0  0  0  0  0  0  0  0  0
  152.2864  137.6401  154.1623 N   0  0  0  0  0  0  0  0  0  0  0  0
  151.4735  137.6348  155.2580 C   0  0  0  0  0  0  0  0  0  0  0  0
  151.3836  138.6699  156.2303 C   0  0  0  0  0  0  0  0  0  0  0  0
  150.4556  138.3216  157.2032 N   0  0  0  0  0  0  0  0  0  0  0  0
  150.0271  137.1473  156.8254 C   0  0  0  0  0  0  0  0  0  0  0  0
  150.5843  136.6591  155.6640 N   0  0  0  0  0  0  0  0  0  0  0  0
  150.2962  135.3502  154.9928 C   0  0  2  0  0  0  0  0  0  0  0  0
  148.9108  135.1852  154.9580 O   0  0  0  0  0  0  0  0  0  0  0  0
  148.5649  133.8810  155.4063 C   0  0  2  0  0  0  0  0  0  0  0  0
  147.1636  133.8969  156.0284 C   0  0  0  0  0  0  0  0  0  0  0  0
  147.2195  134.4960  157.3126 O   0  0  0  0  0  0  0  0  0  0  0  0
  147.4489  133.7365  158.4013 C   0  0  0  0  0  0  0  0  0  0  0  0
  147.7728  132.5483  158.3482 O   0  0  0  0  0  0  0  0  0  0  0  0
  147.2702  134.4847  159.6790 C   0  0  0  0  0  0  0  0  0  0  0  0
  147.0107  133.7687  160.8710 C   0  0  0  0  0  0  0  0  0  0  0  0
  146.8363  134.4480  162.0923 C   0  0  0  0  0  0  0  0  0  0  0  0
  146.9186  135.8518  162.1367 C   0  0  0  0  0  0  0  0  0  0  0  0
  147.1753  136.5759  160.9577 C   0  0  0  0  0  0  0  0  0  0  0  0
  147.3503  135.8983  159.7353 C   0  0  0  0  0  0  0  0  0  0  0  0
  149.6805  133.5078  156.3808 C   0  0  1  0  0  0  0  0  0  0  0  0
  149.8190  132.1855  156.4859 F   0  0  0  0  0  0  0  0  0  0  0  0
  150.9028  134.1444  155.7443 C   0  0  2  0  0  0  0  0  0  0  0  0
  151.8753  134.4737  156.7202 O   0  0  0  0  0  0  0  0  0  0  0  0
  152.1207  142.0874  159.0753 C   0  0  0  0  0  0  0  0  0  0  0  0
  152.3830  142.1462  160.4627 C   0  0  0  0  0  0  0  0  0  0  0  0
  152.3401  143.3777  161.1448 C   0  0  0  0  0  0  0  0  0  0  0  0
  152.0285  144.5599  160.4473 C   0  0  0  0  0  0  0  0  0  0  0  0
  151.7545  144.5092  159.0677 C   0  0  0  0  0  0  0  0  0  0  0  0
  151.7956  143.2781  158.3845 C   0  0  0  0  0  0  0  0  0  0  0  0
  152.1841  141.7536  156.5073 H   0  0  0  0  0  0  0  0  0  0  0  0
  153.6818  138.8305  153.2507 H   0  0  0  0  0  0  0  0  0  0  0  0
  149.2845  136.6010  157.3885 H   0  0  0  0  0  0  0  0  0  0  0  0
  150.6961  135.4666  153.9848 H   0  0  0  0  0  0  0  0  0  0  0  0
  148.5899  133.2190  154.5389 H   0  0  0  0  0  0  0  0  0  0  0  0
  146.4698  134.4404  155.3855 H   0  0  0  0  0  0  0  0  0  0  0  0
  146.7892  132.8772  156.1252 H   0  0  0  0  0  0  0  0  0  0  0  0
  146.9428  132.6903  160.8619 H   0  0  0  0  0  0  0  0  0  0  0  0
  146.6387  133.8903  162.9961 H   0  0  0  0  0  0  0  0  0  0  0  0
  146.7850  136.3725  163.0734 H   0  0  0  0  0  0  0  0  0  0  0  0
  147.2375  137.6536  160.9900 H   0  0  0  0  0  0  0  0  0  0  0  0
  147.5444  136.4848  158.8492 H   0  0  0  0  0  0  0  0  0  0  0  0
  149.4875  133.9123  157.3752 H   0  0  0  0  0  0  0  0  0  0  0  0
  151.3340  133.4718  155.0015 H   0  0  0  0  0  0  0  0  0  0  0  0
  151.8780  135.4111  156.8379 H   0  0  0  0  0  0  0  0  0  0  0  0
  152.6228  141.2477  161.0132 H   0  0  0  0  0  0  0  0  0  0  0  0
  152.5452  143.4146  162.2045 H   0  0  0  0  0  0  0  0  0  0  0  0
  151.9958  145.5039  160.9710 H   0  0  0  0  0  0  0  0  0  0  0  0
  151.5095  145.4152  158.5329 H   0  0  0  0  0  0  0  0  0  0  0  0
  151.5714  143.2611  157.3279 H   0  0  0  0  0  0  0  0  0  0  0  0
  1  2  2  0  0  0  0
  2  3  1  0  0  0  0
  2 30  1  0  0  0  0
  3  4  1  0  0  0  0
  3 36  1  0  0  0  0
  4  9  1  0  0  0  0
  4  5  2  0  0  0  0
  5  6  1  0  0  0  0
  6  7  2  0  0  0  0
  6 37  1  0  0  0  0
  7  8  1  0  0  0  0
  8 12  1  0  0  0  0
  8  9  2  0  0  0  0
  9 10  1  0  0  0  0
 10 11  2  0  0  0  0
 11 12  1  0  0  0  0
 11 38  1  0  0  0  0
 12 13  1  0  0  0  0
 13 28  1  0  0  0  0
 13 14  1  0  0  0  0
 13 39  1  0  0  0  0
 14 15  1  0  0  0  0
 15 16  1  0  0  0  0
 15 26  1  0  0  0  0
 15 40  1  0  0  0  0
 16 17  1  0  0  0  0
 16 41  1  0  0  0  0
 16 42  1  0  0  0  0
 17 18  1  0  0  0  0
 18 19  2  0  0  0  0
 18 20  1  0  0  0  0
 20 25  1  0  0  0  0
 20 21  2  0  0  0  0
 21 22  1  0  0  0  0
 21 43  1  0  0  0  0
 22 23  2  0  0  0  0
 22 44  1  0  0  0  0
 23 24  1  0  0  0  0
 23 45  1  0  0  0  0
 24 25  2  0  0  0  0
 24 46  1  0  0  0  0
 25 47  1  0  0  0  0
 26 27  1  0  0  0  0
 26 28  1  0  0  0  0
 26 48  1  0  0  0  0
 28 29  1  0  0  0  0
 28 49  1  0  0  0  0
 29 50  1  0  0  0  0
 30 35  1  0  0  0  0
 30 31  2  0  0  0  0
 31 32  1  0  0  0  0
 31 51  1  0  0  0  0
 32 33  2  0  0  0  0
 32 52  1  0  0  0  0
 33 34  1  0  0  0  0
 33 53  1  0  0  0  0
 34 35  2  0  0  0  0
 34 54  1  0  0  0  0
 35 55  1  0  0  0  0
M  END
> <s_m_source_file>
AV-unprocessed.smi

> <i_m_source_file_index>
34

> <i_lp_mmshare_version>
43012

> <i_f3d_flags>
0

> <s_epik_input>
W2NIXTFbY0hdW2NIXVtjSF1bY0hdYzFDKD1PKVtOSF1jKG5bY0hdbjIpYyhjMjMpbltjSF1uM1tDQEBIXTRPW0NASF0oW0NAQEhdKEYpW0NASF00W09IXSlbQ0gyXU9DKD1PKWM1W2NIXVtjSF1bY0hdW2NIXVtjSF01

> <s_epik_cmdline>
J2VwaWtfcHl0aG9uJywgJy1waCcsICc3LjAnLCAnLXRuJywgJzgnLCAnLW1hJywgJzIwMCcsICctbWV0YWxfYmluZGluZycsICctaW1hZScsICc8aW5maWxlLm1hZT4nLCAnLW9tYWUnLCAnPG91dGZpbGUubWFlPic=

> <r_lp_tautomer_probability>
1

> <r_epik_Ionization_Penalty>
0.00257489

> <r_epik_Ionization_Penalty_Charging>
0

> <r_epik_Ionization_Penalty_Neutral>
0.00257489

> <r_epik_State_Penalty>
0.00519398

> <r_epik_Charging_Adjusted_Penalty>
0.00519398

> <i_epik_Tot_Q>
0

> <i_epik_Tot_abs_Q>
0

> <r_epik_Metal_State_Penalty>
0.335891

> <b_epik_Metal_Only>
0

> <s_epik_Chemistry_Notes>
This compound has an ester and may undergo hydrolysis at high or low pH. This compound contains an acetal/aminal-like group ( X-CH(R)-Y where X, Y are N, S, or O) that may be acid/base labile, releasing an aldehyde.

> <s_lp_Force_Field>
OPLS_2005

> <r_lp_Energy>
52.3036

> <b_lp_Chiralities_Consistent>
1

> <s_lp_Variant>
AV-unprocessed.smi:34-11

> <Gold.Version>
5.8.1

> <Gold.Id.Protein>
6NUR|6NUR_protein|mol2

> <Gold.PLP.Fitness>
62.4486

> <Gold.PLP.PLP>
-58.6138

> <Gold.PLP.part.hbond>
-4.0000

> <Gold.PLP.part.metal>
0.0000

> <Gold.PLP.part.buried>
-7.5012

> <Gold.PLP.part.nonpolar>
-48.5980

> <Gold.PLP.part.repulsive>
0.3180

> <Gold.PLP.ligand.clash>
0.0000

> <Gold.PLP.ligand.torsion>
1.3575

> <Gold.PLP.Chemscore.Hbond>
1.9625

> <Gold.PLP.Chemscore.CHOScore>
0.0000

> <Gold.PLP.Chemscore.Metal>
0.0000

> <Gold.Chemscore.Hbonds>
donor molecule, donor type, donor heavy atom, donor atom, acceptor molecule, acceptor atom, score
      P1  H  7989  7998       L1     5  0.08
      P1  H  7997  8009       L1     5  0.85
      P1  H 10752 10765       L1     7  0.64

> <Gold.PLP.Chemscore.Internal.Correction>
0.6621

> <Gold.Rescore>
     Score         DG    S(hbond)    S(metal)    S(lipo)     H(rot)  DE(clash)    DE(int)     intcor
     11.28     -18.61       1.45        0.00     130.37       2.72       0.05       7.28       ----

> <Gold.Chemscore.Fitness>
11.2819

> <Gold.Chemscore.DG>
-18.6120

> <Gold.Chemscore.ZeroCoef>
-5.4800

> <Gold.Chemscore.Hbond>
1.4507

> <Gold.Chemscore.Metal>
0.0000

> <Gold.Chemscore.Lipo>
130.3734

> <Gold.Chemscore.Internal_Hbond>
0.0000

> <Gold.Chemscore.DEClash>
0.0483

> <Gold.Chemscore.DEInternal>
7.2818

> <Gold.Chemscore.Rot>
2.7215

> <Gold.Chemscore.Internal.Correction>
   9.000000E+99

> <Gold.Chemscore.Hbonds>
donor molecule, donor type, donor heavy atom, donor atom, acceptor molecule, acceptor atom, score
      P1  H  7997  8009       L1     5  0.14
      P1  H 10752 10765       L1     7  0.14

> <Gold.Chemscore.Hbond.Weighted>
-4.8454

> <Gold.Chemscore.Metal.Weighted>
-0.0000

> <Gold.Chemscore.Lipo.Weighted>
-15.2537

> <Gold.Chemscore.Internal_Hbond.Weighted>
0.0000

> <Gold.Chemscore.DEClash.Weighted>
0.0483

> <Gold.Chemscore.DEInternal.Weighted>
7.2818

> <Gold.Chemscore.Rot.Weighted>
6.9670

> <Gold.Chemscore.Internal.Correction.Weighted>
   9.000000E+99

> <Gold.Protein.RotatedTorsions>
[ 6907 6896 6895 6894 ] final  -48.46 input  -60.11 | X-H torsion
[ 7974 7965 7964 7962 ] final  -59.04 input  175.53 | X-H torsion
[ 8008 7997 7996 7995 ] final -126.94 input   59.86 | X-H torsion
[ 10167 10162 10161 10158 ] final -167.22 input  -65.29 | X-H torsion
[ 10718 10713 10712 10709 ] final -127.51 input   66.30 | X-H torsion
[ 10763 10752 10751 10750 ] final  160.56 input  -60.55 | X-H torsion
[ 11005 11000 10999 10996 ] final  101.18 input  -57.11 | X-H torsion

> <Gold.Protein.ActiveResidues>
 VAL166  LYS551  ARG553  GLY616  TRP617  ASP618  TYR619  PRO620  LYS621  CYS622 
 ASP623  PHE694  ASN695  SER759  ASP760  ASP761  ALA762  ILE779  LEU786  VAL792 
 PHE793  MET794  SER795  GLU796  ALA797  LYS798  CYS799  TRP800  GLU811  SER814 

> <Gold.Protein.RotatedAtoms>
  150.8903  134.8306  159.7288 H   0  0  0  0  0  0  0  0  0  0  0  0  # atno 6907 bound_to 6896
  152.4833  134.4658  159.9629 H   0  0  0  0  0  0  0  0  0  0  0  0  # atno 6908 bound_to 6896
  151.4721  133.3527  159.2860 H   0  0  0  0  0  0  0  0  0  0  0  0  # atno 6909 bound_to 6896
  145.8322  140.8472  143.0078 H   0  0  0  0  0  0  0  0  0  0  0  0  # atno 7974 bound_to 7965
  155.2380  140.0427  157.2971 H   0  0  0  0  0  0  0  0  0  0  0  0  # atno 8008 bound_to 7997
  154.5846  140.2410  155.7975 H   0  0  0  0  0  0  0  0  0  0  0  0  # atno 8009 bound_to 7997
  156.2217  140.2967  155.9977 H   0  0  0  0  0  0  0  0  0  0  0  0  # atno 8010 bound_to 7997
  139.6063  144.0906  152.1796 H   0  0  0  0  0  0  0  0  0  0  0  0  # atno 10167 bound_to 10162
  156.1863  130.6766  151.0369 H   0  0  0  0  0  0  0  0  0  0  0  0  # atno 10718 bound_to 10713
  154.2493  135.2772  155.2823 H   0  0  0  0  0  0  0  0  0  0  0  0  # atno 10763 bound_to 10752
  154.5478  135.5684  153.6899 H   0  0  0  0  0  0  0  0  0  0  0  0  # atno 10764 bound_to 10752
  152.9983  135.6267  154.2640 H   0  0  0  0  0  0  0  0  0  0  0  0  # atno 10765 bound_to 10752
  139.8772  134.9172  156.4868 H   0  0  0  0  0  0  0  0  0  0  0  0  # atno 11005 bound_to 11000
  144.6739  140.0689  143.7473 LP  0  0  0  0  0  0  0  0  0  0  0  0  # atno 17320 bound_to 7965
  145.9558  139.2766  143.1185 LP  0  0  0  0  0  0  0  0  0  0  0  0  # atno 17321 bound_to 7965
  140.0514  144.5930  150.7333 LP  0  0  0  0  0  0  0  0  0  0  0  0  # atno 17342 bound_to 10162
  140.7287  143.2665  151.4029 LP  0  0  0  0  0  0  0  0  0  0  0  0  # atno 17343 bound_to 10162
  157.6901  131.0812  150.7132 LP  0  0  0  0  0  0  0  0  0  0  0  0  # atno 17370 bound_to 10713
  156.7188  130.4674  149.5528 LP  0  0  0  0  0  0  0  0  0  0  0  0  # atno 17371 bound_to 10713
  140.8687  133.8005  155.9341 LP  0  0  0  0  0  0  0  0  0  0  0  0  # atno 17394 bound_to 11000
  140.8975  134.2419  157.5060 LP  0  0  0  0  0  0  0  0  0  0  0  0  # atno 17395 bound_to 11000

$$$$
