AV-unprocessed.smi:1644|AV-procd|sdf|6593|dock10
  -GOLD-   22720 7293D 1   1.00000     0.00000
 Structure written by MMmdl.
 48 50  0  0  0  0  0  0  0  0  2 V2000
  153.6977  140.9933  160.2265 C   0  0  0  0  0  0  0  0  0  0  0  0
  153.9764  139.6251  159.5945 C   0  0  0  0  0  0  0  0  0  0  0  0
  152.6880  138.8813  159.2063 C   0  0  0  0  0  0  0  0  0  0  0  0
  151.8465  139.6295  158.1503 C   0  0  1  0  0  0  0  0  0  0  0  0
  152.5785  139.8011  156.9118 N   0  5  0  0  0  0  0  0  0  0  0  0
  151.8871  139.2060  155.9124 C   0  0  0  0  0  0  0  0  0  0  0  0
  152.2110  139.1511  154.7266 O   0  0  0  0  0  0  0  0  0  0  0  0
  150.7566  138.6414  156.3762 N   0  0  0  0  0  0  0  0  0  0  0  0
  149.8015  137.8771  155.5663 C   0  0  0  0  0  0  0  0  0  0  0  0
  150.3214  136.4551  155.2703 C   0  0  2  0  0  0  0  0  0  0  0  0
  151.4133  136.5504  154.3759 O   0  0  0  0  0  0  0  0  0  0  0  0
  149.2391  135.5699  154.6236 C   0  0  0  0  0  0  0  0  0  0  0  0
  149.5543  134.1556  154.7193 N   0  0  0  0  0  0  0  0  0  0  0  0
  150.5885  133.6028  155.3812 C   0  0  0  0  0  0  0  0  0  0  0  0
  150.7016  132.2785  155.3382 N   0  0  0  0  0  0  0  0  0  0  0  0
  149.6149  131.9323  154.5535 C   0  0  0  0  0  0  0  0  0  0  0  0
  149.1647  130.6661  154.1202 C   0  0  0  0  0  0  0  0  0  0  0  0
  148.0128  130.5441  153.3108 C   0  0  0  0  0  0  0  0  0  0  0  0
  147.5664  129.1626  152.8660 C   0  0  0  0  0  0  0  0  0  0  0  0
  147.2900  131.7016  152.9248 C   0  0  0  0  0  0  0  0  0  0  0  0
  146.0478  131.5954  152.0583 C   0  0  0  0  0  0  0  0  0  0  0  0
  147.7272  132.9745  153.3475 C   0  0  0  0  0  0  0  0  0  0  0  0
  148.8753  133.0830  154.1519 C   0  0  0  0  0  0  0  0  0  0  0  0
  150.6478  138.8213  157.6965 C   0  0  0  0  0  0  0  0  0  0  0  0
  149.7569  138.4110  158.4413 O   0  0  0  0  0  0  0  0  0  0  0  0
  154.6281  141.4931  160.4966 H   0  0  0  0  0  0  0  0  0  0  0  0
  153.0989  140.8930  161.1322 H   0  0  0  0  0  0  0  0  0  0  0  0
  153.1585  141.6431  159.5370 H   0  0  0  0  0  0  0  0  0  0  0  0
  154.6018  139.7576  158.7113 H   0  0  0  0  0  0  0  0  0  0  0  0
  154.5554  139.0210  160.2938 H   0  0  0  0  0  0  0  0  0  0  0  0
  152.9348  137.8794  158.8499 H   0  0  0  0  0  0  0  0  0  0  0  0
  152.0898  138.7399  160.1077 H   0  0  0  0  0  0  0  0  0  0  0  0
  151.4876  140.5753  158.5582 H   0  0  0  0  0  0  0  0  0  0  0  0
  148.8642  137.8150  156.1218 H   0  0  0  0  0  0  0  0  0  0  0  0
  149.5485  138.4040  154.6445 H   0  0  0  0  0  0  0  0  0  0  0  0
  150.6611  135.9785  156.1913 H   0  0  0  0  0  0  0  0  0  0  0  0
  151.0788  136.5113  153.4921 H   0  0  0  0  0  0  0  0  0  0  0  0
  148.2787  135.7335  155.1142 H   0  0  0  0  0  0  0  0  0  0  0  0
  149.1008  135.8320  153.5739 H   0  0  0  0  0  0  0  0  0  0  0  0
  151.2998  134.2083  155.9237 H   0  0  0  0  0  0  0  0  0  0  0  0
  149.7153  129.7852  154.4159 H   0  0  0  0  0  0  0  0  0  0  0  0
  146.5952  128.9196  153.2970 H   0  0  0  0  0  0  0  0  0  0  0  0
  148.2751  128.3960  153.1798 H   0  0  0  0  0  0  0  0  0  0  0  0
  147.4862  129.1155  151.7799 H   0  0  0  0  0  0  0  0  0  0  0  0
  145.5828  132.5703  151.9090 H   0  0  0  0  0  0  0  0  0  0  0  0
  145.3100  130.9418  152.5241 H   0  0  0  0  0  0  0  0  0  0  0  0
  146.3008  131.1905  151.0783 H   0  0  0  0  0  0  0  0  0  0  0  0
  147.1914  133.8657  153.0555 H   0  0  0  0  0  0  0  0  0  0  0  0
  1  2  1  0  0  0  0
  1 26  1  0  0  0  0
  1 27  1  0  0  0  0
  1 28  1  0  0  0  0
  2  3  1  0  0  0  0
  2 29  1  0  0  0  0
  2 30  1  0  0  0  0
  3  4  1  0  0  0  0
  3 31  1  0  0  0  0
  3 32  1  0  0  0  0
  4 24  1  0  0  0  0
  4  5  1  0  0  0  0
  4 33  1  0  0  0  0
  5  6  1  0  0  0  0
  6  7  2  0  0  0  0
  6  8  1  0  0  0  0
  8  9  1  0  0  0  0
  8 24  1  0  0  0  0
  9 10  1  0  0  0  0
  9 34  1  0  0  0  0
  9 35  1  0  0  0  0
 10 11  1  0  0  0  0
 10 12  1  0  0  0  0
 10 36  1  0  0  0  0
 11 37  1  0  0  0  0
 12 13  1  0  0  0  0
 12 38  1  0  0  0  0
 12 39  1  0  0  0  0
 13 23  1  0  0  0  0
 13 14  1  0  0  0  0
 14 15  2  0  0  0  0
 14 40  1  0  0  0  0
 15 16  1  0  0  0  0
 16 23  2  0  0  0  0
 16 17  1  0  0  0  0
 17 18  2  0  0  0  0
 17 41  1  0  0  0  0
 18 19  1  0  0  0  0
 18 20  1  0  0  0  0
 19 42  1  0  0  0  0
 19 43  1  0  0  0  0
 19 44  1  0  0  0  0
 20 21  1  0  0  0  0
 20 22  2  0  0  0  0
 21 45  1  0  0  0  0
 21 46  1  0  0  0  0
 21 47  1  0  0  0  0
 22 23  1  0  0  0  0
 22 48  1  0  0  0  0
 24 25  2  0  0  0  0
M  CHG  1   5  -1
M  END
> <s_m_source_file>
AV-unprocessed.smi

> <i_m_source_file_index>
1644

> <i_lp_mmshare_version>
43012

> <i_f3d_flags>
0

> <s_epik_input>
W0NIM11bQ0gyXVtDSDJdW0NAQEhdMVtOSF1DKD1PKU4oQzE9TylbQ0gyXVtDQEhdKFtPSF0pW0NIMl1uKFtjSF1uMiljKGMyMylbY0hdYyhbQ0gzXSljKFtjSF0zKVtDSDNd

> <s_epik_cmdline>
J2VwaWtfcHl0aG9uJywgJy1waCcsICc3LjAnLCAnLXRuJywgJzgnLCAnLW1hJywgJzIwMCcsICctbWV0YWxfYmluZGluZycsICctaW1hZScsICc8aW5maWxlLm1hZT4nLCAnLW9tYWUnLCAnPG91dGZpbGUubWFlPic=

> <r_lp_tautomer_probability>
1

> <r_epik_Ionization_Penalty>
5.95212

> <r_epik_Ionization_Penalty_Charging>
5.84419

> <r_epik_Ionization_Penalty_Neutral>
0.107924

> <r_epik_State_Penalty>
5.94088

> <r_epik_Charging_Adjusted_Penalty>
11.7851

> <i_epik_Tot_Q>
-1

> <i_epik_Tot_abs_Q>
1

> <r_epik_Metal_State_Penalty>
1.99095

> <b_epik_Metal_Only>
1

> <s_lp_Force_Field>
OPLS_2005

> <r_lp_Energy>
18.6255

> <b_lp_Chiralities_Consistent>
1

> <s_lp_Variant>
AV-unprocessed.smi:1644-10

> <Gold.Version>
5.8.1

> <Gold.Id.Protein>
6NUR|6NUR_protein|mol2

> <Gold.PLP.Fitness>
51.4528

> <Gold.PLP.PLP>
-37.8360

> <Gold.PLP.part.hbond>
-4.0000

> <Gold.PLP.part.metal>
0.0000

> <Gold.PLP.part.buried>
-2.2182

> <Gold.PLP.part.nonpolar>
-31.8314

> <Gold.PLP.part.repulsive>
0.0655

> <Gold.PLP.ligand.clash>
0.0000

> <Gold.PLP.ligand.torsion>
0.4940

> <Gold.PLP.Chemscore.Hbond>
4.8390

> <Gold.PLP.Chemscore.CHOScore>
0.0000

> <Gold.PLP.Chemscore.Metal>
0.0000

> <Gold.Chemscore.Hbonds>
donor molecule, donor type, donor heavy atom, donor atom, acceptor molecule, acceptor atom, score
      L1  H    11    37       P1  7949  0.91
      P1  H  7989  7998       L1     7  0.53
      P1  H  7997  8008       L1     5  2.00
      P1  H 10752 10763       L1    11  0.95

> <Gold.PLP.Chemscore.Internal.Correction>
0.0877

> <Gold.Rescore>
     Score         DG    S(hbond)    S(metal)    S(lipo)     H(rot)  DE(clash)    DE(int)     intcor
     15.53     -17.61       2.79        0.00      81.91       2.65       1.37       0.71       ----

> <Gold.Chemscore.Fitness>
15.5299

> <Gold.Chemscore.DG>
-17.6059

> <Gold.Chemscore.ZeroCoef>
-5.4800

> <Gold.Chemscore.Hbond>
2.7913

> <Gold.Chemscore.Metal>
0.0000

> <Gold.Chemscore.Lipo>
81.9102

> <Gold.Chemscore.Internal_Hbond>
0.0000

> <Gold.Chemscore.DEClash>
1.3650

> <Gold.Chemscore.DEInternal>
0.7109

> <Gold.Chemscore.Rot>
2.6486

> <Gold.Chemscore.Internal.Correction>
   9.000000E+99

> <Gold.Chemscore.Hbonds>
donor molecule, donor type, donor heavy atom, donor atom, acceptor molecule, acceptor atom, score
      L1  H    11    37       P1  7949  0.29
      P1  H  7989  7998       L1     7  0.50
      P1  H  7997  8008       L1     5  0.97
      P1  H 10752 10763       L1    11  0.21

> <Gold.Chemscore.Hbond.Weighted>
-9.3228

> <Gold.Chemscore.Metal.Weighted>
-0.0000

> <Gold.Chemscore.Lipo.Weighted>
-9.5835

> <Gold.Chemscore.Internal_Hbond.Weighted>
0.0000

> <Gold.Chemscore.DEClash.Weighted>
1.3650

> <Gold.Chemscore.DEInternal.Weighted>
0.7109

> <Gold.Chemscore.Rot.Weighted>
6.7804

> <Gold.Chemscore.Internal.Correction.Weighted>
   9.000000E+99

> <Gold.Protein.RotatedTorsions>
[ 6907 6896 6895 6894 ] final -106.64 input  -60.11 | X-H torsion
[ 7974 7965 7964 7962 ] final  162.57 input  175.53 | X-H torsion
[ 8008 7997 7996 7995 ] final  -66.65 input   59.86 | X-H torsion
[ 10167 10162 10161 10158 ] final   41.39 input  -65.29 | X-H torsion
[ 10718 10713 10712 10709 ] final  103.55 input   66.30 | X-H torsion
[ 10763 10752 10751 10750 ] final   32.31 input  -60.55 | X-H torsion
[ 11005 11000 10999 10996 ] final  168.00 input  -57.11 | X-H torsion

> <Gold.Protein.ActiveResidues>
 VAL166  LYS551  ARG553  GLY616  TRP617  ASP618  TYR619  PRO620  LYS621  CYS622 
 ASP623  PHE694  ASN695  SER759  ASP760  ASP761  ALA762  ILE779  LEU786  VAL792 
 PHE793  MET794  SER795  GLU796  ALA797  LYS798  CYS799  TRP800  GLU811  SER814 

> <Gold.Protein.RotatedAtoms>
  150.7400  133.9946  159.3618 H   0  0  0  0  0  0  0  0  0  0  0  0  # atno 6907 bound_to 6896
  151.7896  135.0737  160.0395 H   0  0  0  0  0  0  0  0  0  0  0  0  # atno 6908 bound_to 6896
  152.3217  133.5824  159.5785 H   0  0  0  0  0  0  0  0  0  0  0  0  # atno 6909 bound_to 6896
  144.7630  139.8058  143.6325 H   0  0  0  0  0  0  0  0  0  0  0  0  # atno 7974 bound_to 7965
  154.4748  140.0908  156.7235 H   0  0  0  0  0  0  0  0  0  0  0  0  # atno 8008 bound_to 7997
  155.4625  140.3461  155.4296 H   0  0  0  0  0  0  0  0  0  0  0  0  # atno 8009 bound_to 7997
  156.1099  140.1445  156.9341 H   0  0  0  0  0  0  0  0  0  0  0  0  # atno 8010 bound_to 7997
  140.3647  144.2182  150.6136 H   0  0  0  0  0  0  0  0  0  0  0  0  # atno 10167 bound_to 10162
  157.6769  131.0781  150.5572 H   0  0  0  0  0  0  0  0  0  0  0  0  # atno 10718 bound_to 10713
  153.0269  135.6416  154.1335 H   0  0  0  0  0  0  0  0  0  0  0  0  # atno 10763 bound_to 10752
  154.1063  135.2856  155.3242 H   0  0  0  0  0  0  0  0  0  0  0  0  # atno 10764 bound_to 10752
  154.6363  135.5475  153.7801 H   0  0  0  0  0  0  0  0  0  0  0  0  # atno 10765 bound_to 10752
  140.2827  134.7737  157.3772 H   0  0  0  0  0  0  0  0  0  0  0  0  # atno 11005 bound_to 11000
  146.1712  139.4863  142.9926 LP  0  0  0  0  0  0  0  0  0  0  0  0  # atno 17320 bound_to 7965
  145.6557  141.0252  143.1736 LP  0  0  0  0  0  0  0  0  0  0  0  0  # atno 17321 bound_to 7965
  140.5092  143.2295  151.8561 LP  0  0  0  0  0  0  0  0  0  0  0  0  # atno 17342 bound_to 10162
  139.4810  144.4970  151.9111 LP  0  0  0  0  0  0  0  0  0  0  0  0  # atno 17343 bound_to 10162
  156.5875  130.4320  149.5951 LP  0  0  0  0  0  0  0  0  0  0  0  0  # atno 17370 bound_to 10713
  156.2610  130.6962  151.1731 LP  0  0  0  0  0  0  0  0  0  0  0  0  # atno 17371 bound_to 10713
  140.1268  134.5147  155.8138 LP  0  0  0  0  0  0  0  0  0  0  0  0  # atno 17394 bound_to 11000
  141.2160  133.6776  156.6967 LP  0  0  0  0  0  0  0  0  0  0  0  0  # atno 17395 bound_to 11000

$$$$
