AV-unprocessed.smi:1530|AV-procd|sdf|6155|dock3
  -GOLD-   22720 6303D 1   1.00000     0.00000
 Structure written by MMmdl.
 42 43  0  0  0  0  0  0  0  0  1 V2000
  151.7374  138.5526  154.5529 C   0  0  0  0  0  0  0  0  0  0  0  0
  150.4038  138.2384  154.1668 O   0  0  0  0  0  0  0  0  0  0  0  0
  149.4667  139.2542  154.1420 C   0  0  0  0  0  0  0  0  0  0  0  0
  149.8665  140.5069  154.4763 N   0  0  0  0  0  0  0  0  0  0  0  0
  148.9565  141.5014  154.4484 C   0  0  0  0  0  0  0  0  0  0  0  0
  147.6126  141.3040  154.0839 C   0  0  0  0  0  0  0  0  0  0  0  0
  147.1950  140.0061  153.7358 C   0  0  0  0  0  0  0  0  0  0  0  0
  148.1360  138.9471  153.7714 C   0  0  0  0  0  0  0  0  0  0  0  0
  147.8382  137.5959  153.4347 N   0  0  0  0  0  0  0  0  0  0  0  0
  146.6753  136.9276  153.5227 C   0  0  0  0  0  0  0  0  0  0  0  0
  145.6097  137.3930  153.9246 O   0  0  0  0  0  0  0  0  0  0  0  0
  146.8204  135.6600  153.1116 N   0  0  0  0  0  0  0  0  0  0  0  0
  145.7582  134.6543  153.0438 C   0  0  0  0  0  0  0  0  0  0  0  0
  145.1101  134.5068  151.6328 C   0  0  0  0  0  0  0  0  0  0  0  0
  144.6036  135.9000  151.1674 C   0  0  0  0  0  0  0  0  0  0  0  0
  144.9558  136.3365  149.9533 N   0  0  0  0  0  0  0  0  0  0  0  0
  143.9036  136.5914  151.9065 O   0  0  0  0  0  0  0  0  0  0  0  0
  146.1487  133.9356  150.6253 C   0  0  0  0  0  0  0  0  0  0  0  0
  146.4564  132.4438  150.8534 C   0  0  0  0  0  0  0  0  0  0  0  0
  145.2566  131.6844  150.8140 O   0  0  0  0  0  0  0  0  0  0  0  0
  144.3427  132.0550  151.8367 C   0  0  0  0  0  0  0  0  0  0  0  0
  143.9100  133.5185  151.6441 C   0  0  0  0  0  0  0  0  0  0  0  0
  152.3449  137.6485  154.5160 H   0  0  0  0  0  0  0  0  0  0  0  0
  151.7783  138.9370  155.5730 H   0  0  0  0  0  0  0  0  0  0  0  0
  152.1874  139.2810  153.8767 H   0  0  0  0  0  0  0  0  0  0  0  0
  149.3110  142.4846  154.7198 H   0  0  0  0  0  0  0  0  0  0  0  0
  146.9179  142.1306  154.0679 H   0  0  0  0  0  0  0  0  0  0  0  0
  146.1681  139.8618  153.4421 H   0  0  0  0  0  0  0  0  0  0  0  0
  148.6301  137.0546  153.1189 H   0  0  0  0  0  0  0  0  0  0  0  0
  147.7349  135.3691  152.7976 H   0  0  0  0  0  0  0  0  0  0  0  0
  146.2025  133.7031  153.3393 H   0  0  0  0  0  0  0  0  0  0  0  0
  145.0026  134.8575  153.8021 H   0  0  0  0  0  0  0  0  0  0  0  0
  144.6433  137.2413  149.6320 H   0  0  0  0  0  0  0  0  0  0  0  0
  145.5391  135.7607  149.3636 H   0  0  0  0  0  0  0  0  0  0  0  0
  145.7769  134.0452  149.6050 H   0  0  0  0  0  0  0  0  0  0  0  0
  147.0814  134.4997  150.6733 H   0  0  0  0  0  0  0  0  0  0  0  0
  147.1211  132.0809  150.0695 H   0  0  0  0  0  0  0  0  0  0  0  0
  146.9754  132.2790  151.7977 H   0  0  0  0  0  0  0  0  0  0  0  0
  143.4724  131.4014  151.7774 H   0  0  0  0  0  0  0  0  0  0  0  0
  144.7876  131.8939  152.8191 H   0  0  0  0  0  0  0  0  0  0  0  0
  143.1851  133.7829  152.4145 H   0  0  0  0  0  0  0  0  0  0  0  0
  143.3706  133.5861  150.6976 H   0  0  0  0  0  0  0  0  0  0  0  0
  1  2  1  0  0  0  0
  1 23  1  0  0  0  0
  1 24  1  0  0  0  0
  1 25  1  0  0  0  0
  2  3  1  0  0  0  0
  3  8  1  0  0  0  0
  3  4  2  0  0  0  0
  4  5  1  0  0  0  0
  5  6  2  0  0  0  0
  5 26  1  0  0  0  0
  6  7  1  0  0  0  0
  6 27  1  0  0  0  0
  7  8  2  0  0  0  0
  7 28  1  0  0  0  0
  8  9  1  0  0  0  0
  9 10  1  0  0  0  0
  9 29  1  0  0  0  0
 10 11  2  0  0  0  0
 10 12  1  0  0  0  0
 12 13  1  0  0  0  0
 12 30  1  0  0  0  0
 13 14  1  0  0  0  0
 13 31  1  0  0  0  0
 13 32  1  0  0  0  0
 14 22  1  0  0  0  0
 14 15  1  0  0  0  0
 14 18  1  0  0  0  0
 15 16  1  0  0  0  0
 15 17  2  0  0  0  0
 16 33  1  0  0  0  0
 16 34  1  0  0  0  0
 18 19  1  0  0  0  0
 18 35  1  0  0  0  0
 18 36  1  0  0  0  0
 19 20  1  0  0  0  0
 19 37  1  0  0  0  0
 19 38  1  0  0  0  0
 20 21  1  0  0  0  0
 21 22  1  0  0  0  0
 21 39  1  0  0  0  0
 21 40  1  0  0  0  0
 22 41  1  0  0  0  0
 22 42  1  0  0  0  0
M  END
> <s_m_source_file>
AV-unprocessed.smi

> <i_m_source_file_index>
1530

> <i_lp_mmshare_version>
43012

> <i_f3d_flags>
0

> <s_epik_input>
W0NIM11PYzFuW2NIXVtjSF1bY0hdYzFbTkhdQyg9TylbTkhdW0NIMl1DMihDKD1PKVtOSDJdKVtDSDJdW0NIMl1PW0NIMl1bQ0gyXTI=

> <s_epik_cmdline>
J2VwaWtfcHl0aG9uJywgJy1waCcsICc3LjAnLCAnLXRuJywgJzgnLCAnLW1hJywgJzIwMCcsICctbWV0YWxfYmluZGluZycsICctaW1hZScsICc8aW5maWxlLm1hZT4nLCAnLW9tYWUnLCAnPG91dGZpbGUubWFlPic=

> <r_lp_tautomer_probability>
1

> <r_epik_Ionization_Penalty>
8.83779e-05

> <r_epik_Ionization_Penalty_Charging>
0

> <r_epik_Ionization_Penalty_Neutral>
8.83779e-05

> <r_epik_State_Penalty>
-0

> <r_epik_Charging_Adjusted_Penalty>
0

> <i_epik_Tot_Q>
0

> <i_epik_Tot_abs_Q>
0

> <r_epik_Metal_State_Penalty>
-0

> <b_epik_Metal_Only>
0

> <s_lp_Force_Field>
OPLS_2005

> <r_lp_Energy>
14.5365

> <b_lp_Chiralities_Consistent>
1

> <s_lp_Variant>
AV-unprocessed.smi:1530-1

> <Gold.Version>
5.8.1

> <Gold.Id.Protein>
6NUR|6NUR_protein|mol2

> <Gold.PLP.Fitness>
44.3049

> <Gold.PLP.PLP>
-30.1274

> <Gold.PLP.part.hbond>
-4.1527

> <Gold.PLP.part.metal>
0.0000

> <Gold.PLP.part.buried>
0.4059

> <Gold.PLP.part.nonpolar>
-27.6485

> <Gold.PLP.part.repulsive>
2.5973

> <Gold.PLP.ligand.clash>
0.0000

> <Gold.PLP.ligand.torsion>
0.6333

> <Gold.PLP.Chemscore.Hbond>
4.1417

> <Gold.PLP.Chemscore.CHOScore>
1.0000

> <Gold.PLP.Chemscore.Metal>
0.0000

> <Gold.Chemscore.Hbonds>
donor molecule, donor type, donor heavy atom, donor atom, acceptor molecule, acceptor atom, score
      L1  H     9    29       P1  7948  0.71
      L1  H    12    30       P1  7948  0.64
      L1  H    16    33       P1 10171  1.00
      L1  H    16    34       P1  7921  0.96
      P1  H  7989  7998       L1     4  0.81
      L1  C     5    26       P1  8028  1.00

> <Gold.PLP.Chemscore.Internal.Correction>
0.0191

> <Gold.Rescore>
     Score         DG    S(hbond)    S(metal)    S(lipo)     H(rot)  DE(clash)    DE(int)     intcor
     17.63     -19.46       3.75        0.00      61.14       2.23       0.54       1.29       ----

> <Gold.Chemscore.Fitness>
17.6269

> <Gold.Chemscore.DG>
-19.4598

> <Gold.Chemscore.ZeroCoef>
-5.4800

> <Gold.Chemscore.Hbond>
3.7527

> <Gold.Chemscore.Metal>
0.0000

> <Gold.Chemscore.Lipo>
61.1377

> <Gold.Chemscore.Internal_Hbond>
0.0000

> <Gold.Chemscore.DEClash>
0.5403

> <Gold.Chemscore.DEInternal>
1.2926

> <Gold.Chemscore.Rot>
2.2294

> <Gold.Chemscore.Internal.Correction>
   9.000000E+99

> <Gold.Chemscore.Hbonds>
donor molecule, donor type, donor heavy atom, donor atom, acceptor molecule, acceptor atom, score
      L1  H     9    29       P1  7948  0.66
      L1  H    12    30       P1  7948  0.64
      L1  H    16    33       P1 10171  0.91
      L1  H    16    34       P1  7921  0.90
      P1  H  7989  7998       L1     4  0.44

> <Gold.Chemscore.Hbond.Weighted>
-12.5340

> <Gold.Chemscore.Metal.Weighted>
-0.0000

> <Gold.Chemscore.Lipo.Weighted>
-7.1531

> <Gold.Chemscore.Internal_Hbond.Weighted>
0.0000

> <Gold.Chemscore.DEClash.Weighted>
0.5403

> <Gold.Chemscore.DEInternal.Weighted>
1.2926

> <Gold.Chemscore.Rot.Weighted>
5.7073

> <Gold.Chemscore.Internal.Correction.Weighted>
   9.000000E+99

> <Gold.Protein.RotatedTorsions>
[ 6907 6896 6895 6894 ] final  123.88 input  -60.11 | X-H torsion
[ 7974 7965 7964 7962 ] final  159.09 input  175.53 | X-H torsion
[ 8008 7997 7996 7995 ] final -178.26 input   59.86 | X-H torsion
[ 10167 10162 10161 10158 ] final  -40.42 input  -65.29 | X-H torsion
[ 10718 10713 10712 10709 ] final  133.72 input   66.30 | X-H torsion
[ 10763 10752 10751 10750 ] final  -54.52 input  -60.55 | X-H torsion
[ 11005 11000 10999 10996 ] final -164.59 input  -57.11 | X-H torsion

> <Gold.Protein.ActiveResidues>
 VAL166  LYS551  ARG553  GLY616  TRP617  ASP618  TYR619  PRO620  LYS621  CYS622 
 ASP623  PHE694  ASN695  SER759  ASP760  ASP761  ALA762  ILE779  LEU786  VAL792 
 PHE793  MET794  SER795  GLU796  ALA797  LYS798  CYS799  TRP800  GLU811  SER814 

> <Gold.Protein.RotatedAtoms>
  152.4125  133.6985  159.6409 H   0  0  0  0  0  0  0  0  0  0  0  0  # atno 6907 bound_to 6896
  150.8004  133.8599  159.3237 H   0  0  0  0  0  0  0  0  0  0  0  0  # atno 6908 bound_to 6896
  151.6338  135.1022  160.0178 H   0  0  0  0  0  0  0  0  0  0  0  0  # atno 6909 bound_to 6896
  144.7809  139.7568  143.6260 H   0  0  0  0  0  0  0  0  0  0  0  0  # atno 7974 bound_to 7965
  156.0167  140.1252  157.0399 H   0  0  0  0  0  0  0  0  0  0  0  0  # atno 8008 bound_to 7997
  154.4296  140.1077  156.5975 H   0  0  0  0  0  0  0  0  0  0  0  0  # atno 8009 bound_to 7997
  155.6003  140.3470  155.4594 H   0  0  0  0  0  0  0  0  0  0  0  0  # atno 8010 bound_to 7997
  140.7034  143.3154  151.2922 H   0  0  0  0  0  0  0  0  0  0  0  0  # atno 10167 bound_to 10162
  157.4745  131.1082  150.9761 H   0  0  0  0  0  0  0  0  0  0  0  0  # atno 10718 bound_to 10713
  154.1761  135.6451  153.5022 H   0  0  0  0  0  0  0  0  0  0  0  0  # atno 10763 bound_to 10752
  153.0071  135.5395  154.6562 H   0  0  0  0  0  0  0  0  0  0  0  0  # atno 10764 bound_to 10752
  154.5914  135.2934  155.0604 H   0  0  0  0  0  0  0  0  0  0  0  0  # atno 10765 bound_to 10752
  140.5852  134.5101  157.5184 H   0  0  0  0  0  0  0  0  0  0  0  0  # atno 11005 bound_to 11000
  146.2017  139.5316  142.9739 LP  0  0  0  0  0  0  0  0  0  0  0  0  # atno 17320 bound_to 7965
  145.6052  141.0349  143.1996 LP  0  0  0  0  0  0  0  0  0  0  0  0  # atno 17321 bound_to 7965
  139.6591  144.0222  152.2680 LP  0  0  0  0  0  0  0  0  0  0  0  0  # atno 17342 bound_to 10162
  139.9783  144.6446  150.7924 LP  0  0  0  0  0  0  0  0  0  0  0  0  # atno 17343 bound_to 10162
  157.0515  130.5789  149.5371 LP  0  0  0  0  0  0  0  0  0  0  0  0  # atno 17370 bound_to 10713
  156.0090  130.5179  150.7925 LP  0  0  0  0  0  0  0  0  0  0  0  0  # atno 17371 bound_to 10713
  139.9299  134.7983  156.0960 LP  0  0  0  0  0  0  0  0  0  0  0  0  # atno 17394 bound_to 11000
  141.0971  133.6691  156.2669 LP  0  0  0  0  0  0  0  0  0  0  0  0  # atno 17395 bound_to 11000

$$$$
