AV-unprocessed.smi:1709|AV-procd|sdf|6896|dock8
  -GOLD-   22720 8103D 1   1.00000     0.00000
 Structure written by MMmdl.
 43 45  0  0  0  0  0  0  0  0  2 V2000
  150.3417  138.3867  154.3717 C   0  0  0  0  0  0  0  0  0  0  0  0
  149.3585  139.5465  154.3810 C   0  0  0  0  0  0  0  0  0  0  0  0
  149.7871  140.8060  154.8515 C   0  0  0  0  0  0  0  0  0  0  0  0
  148.8816  141.8799  154.8602 C   0  0  0  0  0  0  0  0  0  0  0  0
  147.5771  141.6470  154.3948 C   0  0  0  0  0  0  0  0  0  0  0  0
  147.1597  140.4467  153.9427 N   0  0  0  0  0  0  0  0  0  0  0  0
  148.0201  139.3959  153.9271 C   0  0  0  0  0  0  0  0  0  0  0  0
  147.6653  138.0910  153.4622 N   0  0  0  0  0  0  0  0  0  0  0  0
  146.5275  137.3723  153.5726 C   0  0  0  0  0  0  0  0  0  0  0  0
  145.5491  137.8212  154.1674 O   0  0  0  0  0  0  0  0  0  0  0  0
  146.5339  136.1544  153.0075 N   0  0  0  0  0  0  0  0  0  0  0  0
  145.4342  135.1967  153.0346 C   0  0  1  0  0  0  0  0  0  0  0  0
  144.0539  135.8698  152.9343 C   0  0  0  0  0  0  0  0  0  0  0  0
  143.2083  134.9393  152.0426 C   0  0  0  0  0  0  0  0  0  0  0  0
  144.0662  133.7695  151.7740 N   0  3  1  0  0  0  0  0  0  0  0  0
  143.7758  132.9872  150.5527 C   0  0  0  0  0  0  0  0  0  0  0  0
  144.7193  131.7691  150.4926 C   0  0  0  0  0  0  0  0  0  0  0  0
  146.1991  132.1844  150.6222 C   0  0  0  0  0  0  0  0  0  0  0  0
  146.4212  133.0738  151.8607 C   0  0  0  0  0  0  0  0  0  0  0  0
  145.4498  134.2656  151.8199 C   0  0  2  0  0  0  0  0  0  0  0  0
  151.3205  138.6926  154.7425 H   0  0  0  0  0  0  0  0  0  0  0  0
  150.4727  138.0038  153.3591 H   0  0  0  0  0  0  0  0  0  0  0  0
  149.9818  137.5760  155.0061 H   0  0  0  0  0  0  0  0  0  0  0  0
  150.7985  140.9513  155.2019 H   0  0  0  0  0  0  0  0  0  0  0  0
  149.1798  142.8558  155.2138 H   0  0  0  0  0  0  0  0  0  0  0  0
  146.8487  142.4444  154.3834 H   0  0  0  0  0  0  0  0  0  0  0  0
  148.3891  137.6362  152.9249 H   0  0  0  0  0  0  0  0  0  0  0  0
  147.3796  135.8664  152.5347 H   0  0  0  0  0  0  0  0  0  0  0  0
  145.4617  134.6030  153.9509 H   0  0  0  0  0  0  0  0  0  0  0  0
  143.6091  136.0006  153.9213 H   0  0  0  0  0  0  0  0  0  0  0  0
  144.1233  136.8571  152.4742 H   0  0  0  0  0  0  0  0  0  0  0  0
  142.2780  134.6346  152.5224 H   0  0  0  0  0  0  0  0  0  0  0  0
  142.9586  135.4439  151.1079 H   0  0  0  0  0  0  0  0  0  0  0  0
  142.7363  132.6580  150.5669 H   0  0  0  0  0  0  0  0  0  0  0  0
  143.9047  133.6146  149.6693 H   0  0  0  0  0  0  0  0  0  0  0  0
  144.4686  131.0794  151.2998 H   0  0  0  0  0  0  0  0  0  0  0  0
  144.5648  131.2219  149.5622 H   0  0  0  0  0  0  0  0  0  0  0  0
  146.8350  131.3002  150.6755 H   0  0  0  0  0  0  0  0  0  0  0  0
  146.5021  132.7285  149.7268 H   0  0  0  0  0  0  0  0  0  0  0  0
  146.2659  132.4920  152.7704 H   0  0  0  0  0  0  0  0  0  0  0  0
  147.4532  133.4240  151.8847 H   0  0  0  0  0  0  0  0  0  0  0  0
  145.6374  134.8556  150.9194 H   0  0  0  0  0  0  0  0  0  0  0  0
  143.9605  133.1483  152.5634 H   0  0  0  0  0  0  0  0  0  0  0  0
  1  2  1  0  0  0  0
  1 21  1  0  0  0  0
  1 22  1  0  0  0  0
  1 23  1  0  0  0  0
  2  7  1  0  0  0  0
  2  3  2  0  0  0  0
  3  4  1  0  0  0  0
  3 24  1  0  0  0  0
  4  5  2  0  0  0  0
  4 25  1  0  0  0  0
  5  6  1  0  0  0  0
  5 26  1  0  0  0  0
  6  7  2  0  0  0  0
  7  8  1  0  0  0  0
  8  9  1  0  0  0  0
  8 27  1  0  0  0  0
  9 10  2  0  0  0  0
  9 11  1  0  0  0  0
 11 12  1  0  0  0  0
 11 28  1  0  0  0  0
 12 20  1  0  0  0  0
 12 13  1  0  0  0  0
 12 29  1  0  0  0  0
 13 14  1  0  0  0  0
 13 30  1  0  0  0  0
 13 31  1  0  0  0  0
 14 15  1  0  0  0  0
 14 32  1  0  0  0  0
 14 33  1  0  0  0  0
 15 20  1  0  0  0  0
 15 16  1  0  0  0  0
 15 43  1  0  0  0  0
 16 17  1  0  0  0  0
 16 34  1  0  0  0  0
 16 35  1  0  0  0  0
 17 18  1  0  0  0  0
 17 36  1  0  0  0  0
 17 37  1  0  0  0  0
 18 19  1  0  0  0  0
 18 38  1  0  0  0  0
 18 39  1  0  0  0  0
 19 20  1  0  0  0  0
 19 40  1  0  0  0  0
 19 41  1  0  0  0  0
 20 42  1  0  0  0  0
M  CHG  1  15   1
M  END
> <s_m_source_file>
AV-unprocessed.smi

> <i_m_source_file_index>
1709

> <i_lp_mmshare_version>
43012

> <i_f3d_flags>
0

> <s_epik_input>
W0NIM11jMVtjSF1bY0hdW2NIXW5jMVtOSF1DKD1PKVtOSF1bQ0BIXShbQ0gyXVtDSDJdMilbQ0BASF0oTjIzKVtDSDJdW0NIMl1bQ0gyXVtDSDJdMw==

> <s_epik_cmdline>
J2VwaWtfcHl0aG9uJywgJy1waCcsICc3LjAnLCAnLXRuJywgJzgnLCAnLW1hJywgJzIwMCcsICctbWV0YWxfYmluZGluZycsICctaW1hZScsICc8aW5maWxlLm1hZT4nLCAnLW9tYWUnLCAnPG91dGZpbGUubWFlPic=

> <r_epik_Ionization_Penalty>
0.00101524

> <r_epik_Ionization_Penalty_Charging>
0.000974069

> <r_epik_Ionization_Penalty_Neutral>
4.11757e-05

> <r_epik_State_Penalty>
0.000633842

> <r_epik_Charging_Adjusted_Penalty>
0.00160791

> <i_epik_Tot_Q>
1

> <i_epik_Tot_abs_Q>
1

> <r_epik_Metal_State_Penalty>
-0

> <b_epik_Metal_Only>
0

> <s_lp_Force_Field>
OPLS_2005

> <r_lp_Energy>
38.4546

> <b_lp_Chiralities_Consistent>
1

> <s_lp_Variant>
AV-unprocessed.smi:1709-6

> <Gold.Version>
5.8.1

> <Gold.Id.Protein>
6NUR|6NUR_protein|mol2

> <Gold.PLP.Fitness>
36.9849

> <Gold.PLP.PLP>
-32.2259

> <Gold.PLP.part.hbond>
-2.0000

> <Gold.PLP.part.metal>
0.0000

> <Gold.PLP.part.buried>
0.1732

> <Gold.PLP.part.nonpolar>
-30.1913

> <Gold.PLP.part.repulsive>
0.2833

> <Gold.PLP.ligand.clash>
0.0000

> <Gold.PLP.ligand.torsion>
0.6253

> <Gold.PLP.Chemscore.Hbond>
2.0000

> <Gold.PLP.Chemscore.CHOScore>
0.0000

> <Gold.PLP.Chemscore.Metal>
0.0000

> <Gold.Chemscore.Hbonds>
donor molecule, donor type, donor heavy atom, donor atom, acceptor molecule, acceptor atom, score
      L1  H     8    27       P1  7948  1.00
      L1  H    11    28       P1  7948  1.00

> <Gold.PLP.Chemscore.Internal.Correction>
0.0096

> <Gold.Rescore>
     Score         DG    S(hbond)    S(metal)    S(lipo)     H(rot)  DE(clash)    DE(int)     intcor
     17.00     -19.33       1.92        0.00      85.45       1.00       0.28       2.05       ----

> <Gold.Chemscore.Fitness>
16.9979

> <Gold.Chemscore.DG>
-19.3293

> <Gold.Chemscore.ZeroCoef>
-5.4800

> <Gold.Chemscore.Hbond>
1.9198

> <Gold.Chemscore.Metal>
0.0000

> <Gold.Chemscore.Lipo>
85.4465

> <Gold.Chemscore.Internal_Hbond>
0.0000

> <Gold.Chemscore.DEClash>
0.2798

> <Gold.Chemscore.DEInternal>
2.0515

> <Gold.Chemscore.Rot>
1.0000

> <Gold.Chemscore.Internal.Correction>
   9.000000E+99

> <Gold.Chemscore.Hbonds>
donor molecule, donor type, donor heavy atom, donor atom, acceptor molecule, acceptor atom, score
      L1  H     8    27       P1  7948  0.95
      L1  H    11    28       P1  7948  0.96

> <Gold.Chemscore.Hbond.Weighted>
-6.4121

> <Gold.Chemscore.Metal.Weighted>
-0.0000

> <Gold.Chemscore.Lipo.Weighted>
-9.9972

> <Gold.Chemscore.Internal_Hbond.Weighted>
0.0000

> <Gold.Chemscore.DEClash.Weighted>
0.2798

> <Gold.Chemscore.DEInternal.Weighted>
2.0515

> <Gold.Chemscore.Rot.Weighted>
2.5600

> <Gold.Chemscore.Internal.Correction.Weighted>
   9.000000E+99

> <Gold.Protein.RotatedTorsions>
[ 6907 6896 6895 6894 ] final  -52.71 input  -60.11 | X-H torsion
[ 7974 7965 7964 7962 ] final  146.73 input  175.53 | X-H torsion
[ 8008 7997 7996 7995 ] final  -84.62 input   59.86 | X-H torsion
[ 10167 10162 10161 10158 ] final -173.62 input  -65.29 | X-H torsion
[ 10718 10713 10712 10709 ] final   49.22 input   66.30 | X-H torsion
[ 10763 10752 10751 10750 ] final  149.18 input  -60.55 | X-H torsion
[ 11005 11000 10999 10996 ] final -177.28 input  -57.11 | X-H torsion

> <Gold.Protein.ActiveResidues>
 VAL166  LYS551  ARG553  GLY616  TRP617  ASP618  TYR619  PRO620  LYS621  CYS622 
 ASP623  PHE694  ASN695  SER759  ASP760  ASP761  ALA762  ILE779  LEU786  VAL792 
 PHE793  MET794  SER795  GLU796  ALA797  LYS798  CYS799  TRP800  GLU811  SER814 

> <Gold.Protein.RotatedAtoms>
  150.8493  134.7812  159.6995 H   0  0  0  0  0  0  0  0  0  0  0  0  # atno 6907 bound_to 6896
  152.4562  134.5283  159.9813 H   0  0  0  0  0  0  0  0  0  0  0  0  # atno 6908 bound_to 6896
  151.5408  133.3395  159.2970 H   0  0  0  0  0  0  0  0  0  0  0  0  # atno 6909 bound_to 6896
  144.8647  139.5942  143.5914 H   0  0  0  0  0  0  0  0  0  0  0  0  # atno 7974 bound_to 7965
  154.6318  140.0602  156.9741 H   0  0  0  0  0  0  0  0  0  0  0  0  # atno 8008 bound_to 7997
  155.1654  140.3286  155.4384 H   0  0  0  0  0  0  0  0  0  0  0  0  # atno 8009 bound_to 7997
  156.2486  140.1923  156.6759 H   0  0  0  0  0  0  0  0  0  0  0  0  # atno 8010 bound_to 7997
  139.5678  144.1713  152.1339 H   0  0  0  0  0  0  0  0  0  0  0  0  # atno 10167 bound_to 10162
  157.4765  130.8288  149.8045 H   0  0  0  0  0  0  0  0  0  0  0  0  # atno 10718 bound_to 10713
  154.0669  135.2869  155.3315 H   0  0  0  0  0  0  0  0  0  0  0  0  # atno 10763 bound_to 10752
  154.6772  135.5277  153.8218 H   0  0  0  0  0  0  0  0  0  0  0  0  # atno 10764 bound_to 10752
  153.0500  135.6572  154.0853 H   0  0  0  0  0  0  0  0  0  0  0  0  # atno 10765 bound_to 10752
  140.4427  134.6416  157.4765 H   0  0  0  0  0  0  0  0  0  0  0  0  # atno 11005 bound_to 11000
  146.2887  139.7077  142.9177 LP  0  0  0  0  0  0  0  0  0  0  0  0  # atno 17320 bound_to 7965
  145.4244  141.0409  143.2946 LP  0  0  0  0  0  0  0  0  0  0  0  0  # atno 17321 bound_to 7965
  140.1240  144.5348  150.6845 LP  0  0  0  0  0  0  0  0  0  0  0  0  # atno 17342 bound_to 10162
  140.6962  143.2405  151.4993 LP  0  0  0  0  0  0  0  0  0  0  0  0  # atno 17343 bound_to 10162
  156.0099  130.3838  150.2299 LP  0  0  0  0  0  0  0  0  0  0  0  0  # atno 17370 bound_to 10713
  157.0484  131.0055  151.3261 LP  0  0  0  0  0  0  0  0  0  0  0  0  # atno 17371 bound_to 10713
  140.0059  134.6764  155.9456 LP  0  0  0  0  0  0  0  0  0  0  0  0  # atno 17394 bound_to 11000
  141.1698  133.6537  156.4612 LP  0  0  0  0  0  0  0  0  0  0  0  0  # atno 17395 bound_to 11000

$$$$
