AV-unprocessed.smi:1721|AV-procd|sdf|6938|dock3
  -GOLD-   22720 8143D 1   1.00000     0.00000
 Structure written by MMmdl.
 44 46  0  0  0  0  0  0  0  0  2 V2000
  151.9336  138.4675  154.3447 C   0  0  0  0  0  0  0  0  0  0  0  0
  150.5385  138.3184  154.1042 O   0  0  0  0  0  0  0  0  0  0  0  0
  149.7304  139.4352  154.2006 C   0  0  0  0  0  0  0  0  0  0  0  0
  150.2990  140.6160  154.5518 N   0  0  0  0  0  0  0  0  0  0  0  0
  149.5107  141.7073  154.6435 C   0  0  0  0  0  0  0  0  0  0  0  0
  148.1272  141.6824  154.3883 C   0  0  0  0  0  0  0  0  0  0  0  0
  147.5352  140.4588  154.0254 C   0  0  0  0  0  0  0  0  0  0  0  0
  148.3472  139.3029  153.9383 C   0  0  0  0  0  0  0  0  0  0  0  0
  147.8452  138.0304  153.5549 N   0  0  0  0  0  0  0  0  0  0  0  0
  146.6623  137.4833  153.8788 C   0  0  0  0  0  0  0  0  0  0  0  0
  145.8174  138.0030  154.6077 O   0  0  0  0  0  0  0  0  0  0  0  0
  146.5226  136.2663  153.3339 N   0  0  0  0  0  0  0  0  0  0  0  0
  145.3696  135.3872  153.5215 C   0  0  1  0  0  0  0  0  0  0  0  0
  144.0353  136.0442  153.1191 C   0  0  0  0  0  0  0  0  0  0  0  0
  143.2535  134.9290  152.4166 C   0  0  0  0  0  0  0  0  0  0  0  0
  144.3117  134.1573  151.7552 N   0  3  2  0  0  0  0  0  0  0  0  0
  143.9701  132.8487  151.1625 C   0  0  0  0  0  0  0  0  0  0  0  0
  145.1932  132.3422  150.3682 C   0  0  0  0  0  0  0  0  0  0  0  0
  146.4852  132.3428  151.2173 C   0  0  0  0  0  0  0  0  0  0  0  0
  146.7125  133.6993  151.9199 C   0  0  0  0  0  0  0  0  0  0  0  0
  145.4403  134.0790  152.6986 C   0  0  1  0  0  0  0  0  0  0  0  0
  152.4238  137.5001  154.2370 H   0  0  0  0  0  0  0  0  0  0  0  0
  152.1270  138.8248  155.3574 H   0  0  0  0  0  0  0  0  0  0  0  0
  152.3918  139.1519  153.6292 H   0  0  0  0  0  0  0  0  0  0  0  0
  149.9988  142.6297  154.9221 H   0  0  0  0  0  0  0  0  0  0  0  0
  147.5352  142.5826  154.4632 H   0  0  0  0  0  0  0  0  0  0  0  0
  146.4789  140.4289  153.8052 H   0  0  0  0  0  0  0  0  0  0  0  0
  148.4904  137.4444  153.0453 H   0  0  0  0  0  0  0  0  0  0  0  0
  147.2712  135.9207  152.7512 H   0  0  0  0  0  0  0  0  0  0  0  0
  145.2976  135.1188  154.5776 H   0  0  0  0  0  0  0  0  0  0  0  0
  143.4960  136.4572  153.9720 H   0  0  0  0  0  0  0  0  0  0  0  0
  144.2109  136.8589  152.4146 H   0  0  0  0  0  0  0  0  0  0  0  0
  142.7388  134.3007  153.1456 H   0  0  0  0  0  0  0  0  0  0  0  0
  142.5200  135.3106  151.7059 H   0  0  0  0  0  0  0  0  0  0  0  0
  143.6922  132.1414  151.9455 H   0  0  0  0  0  0  0  0  0  0  0  0
  143.1098  132.9563  150.5011 H   0  0  0  0  0  0  0  0  0  0  0  0
  144.9997  131.3411  149.9820 H   0  0  0  0  0  0  0  0  0  0  0  0
  145.3417  132.9818  149.4970 H   0  0  0  0  0  0  0  0  0  0  0  0
  146.4190  131.5558  151.9696 H   0  0  0  0  0  0  0  0  0  0  0  0
  147.3440  132.0964  150.5923 H   0  0  0  0  0  0  0  0  0  0  0  0
  147.5673  133.6266  152.5930 H   0  0  0  0  0  0  0  0  0  0  0  0
  146.9513  134.4671  151.1825 H   0  0  0  0  0  0  0  0  0  0  0  0
  145.2259  133.2685  153.3985 H   0  0  0  0  0  0  0  0  0  0  0  0
  144.6284  134.7403  150.9937 H   0  0  0  0  0  0  0  0  0  0  0  0
  1  2  1  0  0  0  0
  1 22  1  0  0  0  0
  1 23  1  0  0  0  0
  1 24  1  0  0  0  0
  2  3  1  0  0  0  0
  3  8  1  0  0  0  0
  3  4  2  0  0  0  0
  4  5  1  0  0  0  0
  5  6  2  0  0  0  0
  5 25  1  0  0  0  0
  6  7  1  0  0  0  0
  6 26  1  0  0  0  0
  7  8  2  0  0  0  0
  7 27  1  0  0  0  0
  8  9  1  0  0  0  0
  9 10  1  0  0  0  0
  9 28  1  0  0  0  0
 10 11  2  0  0  0  0
 10 12  1  0  0  0  0
 12 13  1  0  0  0  0
 12 29  1  0  0  0  0
 13 21  1  0  0  0  0
 13 14  1  0  0  0  0
 13 30  1  0  0  0  0
 14 15  1  0  0  0  0
 14 31  1  0  0  0  0
 14 32  1  0  0  0  0
 15 16  1  0  0  0  0
 15 33  1  0  0  0  0
 15 34  1  0  0  0  0
 16 21  1  0  0  0  0
 16 17  1  0  0  0  0
 16 44  1  0  0  0  0
 17 18  1  0  0  0  0
 17 35  1  0  0  0  0
 17 36  1  0  0  0  0
 18 19  1  0  0  0  0
 18 37  1  0  0  0  0
 18 38  1  0  0  0  0
 19 20  1  0  0  0  0
 19 39  1  0  0  0  0
 19 40  1  0  0  0  0
 20 21  1  0  0  0  0
 20 41  1  0  0  0  0
 20 42  1  0  0  0  0
 21 43  1  0  0  0  0
M  CHG  1  16   1
M  END
> <s_m_source_file>
AV-unprocessed.smi

> <i_m_source_file_index>
1721

> <i_lp_mmshare_version>
43012

> <i_f3d_flags>
0

> <s_epik_input>
W0NIM11PYzFuW2NIXVtjSF1bY0hdYzFbTkhdQyg9TylbTkhdW0NASF0oW0NIMl1bQ0gyXTIpW0NAQEhdKE4yMylbQ0gyXVtDSDJdW0NIMl1bQ0gyXTM=

> <s_epik_cmdline>
J2VwaWtfcHl0aG9uJywgJy1waCcsICc3LjAnLCAnLXRuJywgJzgnLCAnLW1hJywgJzIwMCcsICctbWV0YWxfYmluZGluZycsICctaW1hZScsICc8aW5maWxlLm1hZT4nLCAnLW9tYWUnLCAnPG91dGZpbGUubWFlPic=

> <r_lp_tautomer_probability>
1

> <r_epik_Ionization_Penalty>
0.00104793

> <r_epik_Ionization_Penalty_Charging>
0.000974069

> <r_epik_Ionization_Penalty_Neutral>
7.38649e-05

> <r_epik_State_Penalty>
0.000633842

> <r_epik_Charging_Adjusted_Penalty>
0.00160791

> <i_epik_Tot_Q>
1

> <i_epik_Tot_abs_Q>
1

> <r_epik_Metal_State_Penalty>
-0

> <b_epik_Metal_Only>
0

> <s_lp_Force_Field>
OPLS_2005

> <r_lp_Energy>
43.8881

> <b_lp_Chiralities_Consistent>
1

> <s_lp_Variant>
AV-unprocessed.smi:1721-4

> <Gold.Version>
5.8.1

> <Gold.Id.Protein>
6NUR|6NUR_protein|mol2

> <Gold.PLP.Fitness>
45.3212

> <Gold.PLP.PLP>
-34.2944

> <Gold.PLP.part.hbond>
-3.0000

> <Gold.PLP.part.metal>
0.0000

> <Gold.PLP.part.buried>
-2.8978

> <Gold.PLP.part.nonpolar>
-27.7604

> <Gold.PLP.part.repulsive>
0.4370

> <Gold.PLP.ligand.clash>
0.0000

> <Gold.PLP.ligand.torsion>
0.2889

> <Gold.PLP.Chemscore.Hbond>
2.9440

> <Gold.PLP.Chemscore.CHOScore>
0.9232

> <Gold.PLP.Chemscore.Metal>
0.0000

> <Gold.Chemscore.Hbonds>
donor molecule, donor type, donor heavy atom, donor atom, acceptor molecule, acceptor atom, score
      L1  H     9    28       P1  7948  1.00
      L1  H    12    29       P1  7948  1.00
      P1  H  7989  7998       L1     4  0.88
      L1  C     5    25       P1  8028  0.93

> <Gold.PLP.Chemscore.Internal.Correction>
0.0029

> <Gold.Rescore>
     Score         DG    S(hbond)    S(metal)    S(lipo)     H(rot)  DE(clash)    DE(int)     intcor
     18.08     -19.46       2.28        0.00      81.61       1.25       0.23       1.15       ----

> <Gold.Chemscore.Fitness>
18.0809

> <Gold.Chemscore.DG>
-19.4575

> <Gold.Chemscore.ZeroCoef>
-5.4800

> <Gold.Chemscore.Hbond>
2.2823

> <Gold.Chemscore.Metal>
0.0000

> <Gold.Chemscore.Lipo>
81.6083

> <Gold.Chemscore.Internal_Hbond>
0.0000

> <Gold.Chemscore.DEClash>
0.2285

> <Gold.Chemscore.DEInternal>
1.1480

> <Gold.Chemscore.Rot>
1.2474

> <Gold.Chemscore.Internal.Correction>
   9.000000E+99

> <Gold.Chemscore.Hbonds>
donor molecule, donor type, donor heavy atom, donor atom, acceptor molecule, acceptor atom, score
      L1  H     9    28       P1  7948  0.99
      L1  H    12    29       P1  7948  0.94
      P1  H  7989  7998       L1     4  0.44

> <Gold.Chemscore.Hbond.Weighted>
-7.6228

> <Gold.Chemscore.Metal.Weighted>
-0.0000

> <Gold.Chemscore.Lipo.Weighted>
-9.5482

> <Gold.Chemscore.Internal_Hbond.Weighted>
0.0000

> <Gold.Chemscore.DEClash.Weighted>
0.2285

> <Gold.Chemscore.DEInternal.Weighted>
1.1480

> <Gold.Chemscore.Rot.Weighted>
3.1934

> <Gold.Chemscore.Internal.Correction.Weighted>
   9.000000E+99

> <Gold.Protein.RotatedTorsions>
[ 6907 6896 6895 6894 ] final -168.82 input  -60.11 | X-H torsion
[ 7974 7965 7964 7962 ] final  143.32 input  175.53 | X-H torsion
[ 8008 7997 7996 7995 ] final  170.08 input   59.86 | X-H torsion
[ 10167 10162 10161 10158 ] final  125.69 input  -65.29 | X-H torsion
[ 10718 10713 10712 10709 ] final -138.86 input   66.30 | X-H torsion
[ 10763 10752 10751 10750 ] final  151.60 input  -60.55 | X-H torsion
[ 11005 11000 10999 10996 ] final   51.47 input  -57.11 | X-H torsion

> <Gold.Protein.ActiveResidues>
 VAL166  LYS551  ARG553  GLY616  TRP617  ASP618  TYR619  PRO620  LYS621  CYS622 
 ASP623  PHE694  ASN695  SER759  ASP760  ASP761  ALA762  ILE779  LEU786  VAL792 
 PHE793  MET794  SER795  GLU796  ALA797  LYS798  CYS799  TRP800  GLU811  SER814 

> <Gold.Protein.RotatedAtoms>
  151.4817  133.3545  159.2838 H   0  0  0  0  0  0  0  0  0  0  0  0  # atno 6907 bound_to 6896
  150.8893  134.8297  159.7293 H   0  0  0  0  0  0  0  0  0  0  0  0  # atno 6908 bound_to 6896
  152.4813  134.4724  159.9691 H   0  0  0  0  0  0  0  0  0  0  0  0  # atno 6909 bound_to 6896
  144.8931  139.5530  143.5789 H   0  0  0  0  0  0  0  0  0  0  0  0  # atno 7974 bound_to 7965
  156.1398  140.1547  156.8938 H   0  0  0  0  0  0  0  0  0  0  0  0  # atno 8008 bound_to 7997
  154.4978  140.0833  156.7772 H   0  0  0  0  0  0  0  0  0  0  0  0  # atno 8009 bound_to 7997
  155.4099  140.3418  155.4265 H   0  0  0  0  0  0  0  0  0  0  0  0  # atno 8010 bound_to 7997
  139.5672  144.6918  151.3879 H   0  0  0  0  0  0  0  0  0  0  0  0  # atno 10167 bound_to 10162
  156.3041  130.7445  151.1504 H   0  0  0  0  0  0  0  0  0  0  0  0  # atno 10718 bound_to 10713
  154.1064  135.2842  155.3240 H   0  0  0  0  0  0  0  0  0  0  0  0  # atno 10763 bound_to 10752
  154.6520  135.5365  153.7916 H   0  0  0  0  0  0  0  0  0  0  0  0  # atno 10764 bound_to 10752
  153.0361  135.6512  154.1225 H   0  0  0  0  0  0  0  0  0  0  0  0  # atno 10765 bound_to 10752
  140.0930  134.5183  155.8834 H   0  0  0  0  0  0  0  0  0  0  0  0  # atno 11005 bound_to 11000
  146.3065  139.7598  142.9052 LP  0  0  0  0  0  0  0  0  0  0  0  0  # atno 17320 bound_to 7965
  145.3748  141.0349  143.3210 LP  0  0  0  0  0  0  0  0  0  0  0  0  # atno 17321 bound_to 7965
  140.6955  143.7758  150.7320 LP  0  0  0  0  0  0  0  0  0  0  0  0  # atno 17342 bound_to 10162
  140.1254  143.4574  152.2287 LP  0  0  0  0  0  0  0  0  0  0  0  0  # atno 17343 bound_to 10162
  157.7375  131.0551  150.5350 LP  0  0  0  0  0  0  0  0  0  0  0  0  # atno 17370 bound_to 10713
  156.5481  130.4225  149.6121 LP  0  0  0  0  0  0  0  0  0  0  0  0  # atno 17371 bound_to 10713
  141.2084  133.6673  156.6366 LP  0  0  0  0  0  0  0  0  0  0  0  0  # atno 17394 bound_to 11000
  140.3325  134.7917  157.4337 LP  0  0  0  0  0  0  0  0  0  0  0  0  # atno 17395 bound_to 11000

$$$$
