AV-unprocessed.smi:298|AV-procd|sdf|2264|dock5
  -GOLD-   2262022153D 1   1.00000     0.00000
 Structure written by MMmdl.
 39 41  0  0  0  0  0  0  0  0  2 V2000
  153.4690  142.2700  161.6271 C   0  0  0  0  0  0  0  0  0  0  0  0
  152.8453  142.0374  160.2614 C   0  0  0  0  0  0  0  0  0  0  0  0
  153.0478  140.7887  159.6311 C   0  0  0  0  0  0  0  0  0  0  0  0
  152.4631  140.6053  158.3836 C   0  0  0  0  0  0  0  0  0  0  0  0
  152.4720  139.5069  157.5208 N   0  3  0  0  0  0  0  0  0  0  0  0
  151.7516  139.8001  156.4029 C   0  0  0  0  0  0  0  0  0  0  0  0
  151.2828  141.0701  156.5390 N   0  0  0  0  0  0  0  0  0  0  0  0
  150.4613  141.8750  155.6243 C   0  0  0  0  0  0  0  0  0  0  0  0
  149.1089  141.2107  155.2814 C   0  0  1  0  0  0  0  0  0  0  0  0
  148.2475  142.1424  154.6553 O   0  0  0  0  0  0  0  0  0  0  0  0
  149.2505  139.9568  154.3895 C   0  0  0  0  0  0  0  0  0  0  0  0
  149.4778  138.7286  155.1351 N   0  0  0  0  0  0  0  0  0  0  0  0
  149.9135  137.5335  154.7226 C   0  0  0  0  0  0  0  0  0  0  0  0
  149.9872  136.6232  155.6857 N   0  0  0  0  0  0  0  0  0  0  0  0
  149.5614  137.3883  156.7324 C   0  0  0  0  0  0  0  0  0  0  0  0
  149.4396  136.8425  158.0733 C   0  0  0  0  0  0  0  0  0  0  0  0
  149.3416  136.4071  159.1409 N   0  0  0  0  0  0  0  0  0  0  0  0
  149.2498  138.6551  156.4692 N   0  0  0  0  0  0  0  0  0  0  0  0
  151.7008  141.6120  157.7606 C   0  0  0  0  0  0  0  0  0  0  0  0
  151.4895  142.8475  158.3690 C   0  0  0  0  0  0  0  0  0  0  0  0
  152.0753  143.0536  159.6381 C   0  0  0  0  0  0  0  0  0  0  0  0
  151.8596  144.3914  160.3251 C   0  0  0  0  0  0  0  0  0  0  0  0
  154.0114  141.3898  161.9733 H   0  0  0  0  0  0  0  0  0  0  0  0
  152.7005  142.4990  162.3658 H   0  0  0  0  0  0  0  0  0  0  0  0
  154.1732  143.1016  161.5894 H   0  0  0  0  0  0  0  0  0  0  0  0
  153.6311  140.0100  160.1006 H   0  0  0  0  0  0  0  0  0  0  0  0
  151.5842  139.1441  155.5605 H   0  0  0  0  0  0  0  0  0  0  0  0
  150.3285  142.8655  156.0588 H   0  0  0  0  0  0  0  0  0  0  0  0
  151.0409  142.0225  154.7123 H   0  0  0  0  0  0  0  0  0  0  0  0
  148.6207  140.9148  156.2106 H   0  0  0  0  0  0  0  0  0  0  0  0
  148.4866  143.0111  154.9396 H   0  0  0  0  0  0  0  0  0  0  0  0
  148.3403  139.8267  153.8026 H   0  0  0  0  0  0  0  0  0  0  0  0
  150.0617  140.0850  153.6711 H   0  0  0  0  0  0  0  0  0  0  0  0
  150.1716  137.3223  153.6950 H   0  0  0  0  0  0  0  0  0  0  0  0
  150.8968  143.6195  157.9000 H   0  0  0  0  0  0  0  0  0  0  0  0
  151.2823  145.0726  159.6990 H   0  0  0  0  0  0  0  0  0  0  0  0
  152.8145  144.8703  160.5432 H   0  0  0  0  0  0  0  0  0  0  0  0
  151.3163  144.2572  161.2606 H   0  0  0  0  0  0  0  0  0  0  0  0
  152.9353  138.6213  157.6806 H   0  0  0  0  0  0  0  0  0  0  0  0
  1  2  1  0  0  0  0
  1 23  1  0  0  0  0
  1 24  1  0  0  0  0
  1 25  1  0  0  0  0
  2 21  1  0  0  0  0
  2  3  2  0  0  0  0
  3  4  1  0  0  0  0
  3 26  1  0  0  0  0
  4 19  2  0  0  0  0
  4  5  1  0  0  0  0
  5  6  2  0  0  0  0
  5 39  1  0  0  0  0
  6  7  1  0  0  0  0
  6 27  1  0  0  0  0
  7  8  1  0  0  0  0
  7 19  1  0  0  0  0
  8  9  1  0  0  0  0
  8 28  1  0  0  0  0
  8 29  1  0  0  0  0
  9 10  1  0  0  0  0
  9 11  1  0  0  0  0
  9 30  1  0  0  0  0
 10 31  1  0  0  0  0
 11 12  1  0  0  0  0
 11 32  1  0  0  0  0
 11 33  1  0  0  0  0
 12 18  1  0  0  0  0
 12 13  1  0  0  0  0
 13 14  2  0  0  0  0
 13 34  1  0  0  0  0
 14 15  1  0  0  0  0
 15 16  1  0  0  0  0
 15 18  2  0  0  0  0
 16 17  3  0  0  0  0
 19 20  1  0  0  0  0
 20 21  2  0  0  0  0
 20 35  1  0  0  0  0
 21 22  1  0  0  0  0
 22 36  1  0  0  0  0
 22 37  1  0  0  0  0
 22 38  1  0  0  0  0
M  CHG  1   5   1
M  END
> <s_m_source_file>
AV-unprocessed.smi

> <i_m_source_file_index>
298

> <i_lp_mmshare_version>
43012

> <i_f3d_flags>
0

> <s_epik_input>
W0NIM11jKFtjSF0xKWMoW0NIM10pW2NIXWMoYzEyKW4oW2NIXW4yKVtDSDJdW0NASF0oW09IXSlbQ0gyXW4zW2NIXW5jKG4zKUMjTg==

> <s_epik_cmdline>
J2VwaWtfcHl0aG9uJywgJy1waCcsICc3LjAnLCAnLXRuJywgJzgnLCAnLW1hJywgJzIwMCcsICctbWV0YWxfYmluZGluZycsICctaW1hZScsICc8aW5maWxlLm1hZT4nLCAnLW9tYWUnLCAnPG91dGZpbGUubWFlPic=

> <r_epik_Ionization_Penalty>
1.12076

> <r_epik_Ionization_Penalty_Charging>
1.12075

> <r_epik_Ionization_Penalty_Neutral>
1.54565e-06

> <r_epik_State_Penalty>
1.17957

> <r_epik_Charging_Adjusted_Penalty>
2.30033

> <i_epik_Tot_Q>
1

> <i_epik_Tot_abs_Q>
1

> <r_epik_Metal_State_Penalty>
1.26402

> <b_epik_Metal_Only>
0

> <s_lp_Force_Field>
OPLS_2005

> <r_lp_Energy>
17.1818

> <b_lp_Chiralities_Consistent>
1

> <s_lp_Variant>
AV-unprocessed.smi:298-4

> <Gold.Version>
5.8.1

> <Gold.Id.Protein>
6NUR|6NUR_protein|mol2

> <Gold.PLP.Fitness>
48.4112

> <Gold.PLP.PLP>
-40.3673

> <Gold.PLP.part.hbond>
-2.0000

> <Gold.PLP.part.metal>
0.0000

> <Gold.PLP.part.buried>
-5.4648

> <Gold.PLP.part.nonpolar>
-33.1526

> <Gold.PLP.part.repulsive>
0.4400

> <Gold.PLP.ligand.clash>
0.0000

> <Gold.PLP.ligand.torsion>
0.6155

> <Gold.PLP.Chemscore.Hbond>
2.0000

> <Gold.PLP.Chemscore.CHOScore>
1.0827

> <Gold.PLP.Chemscore.Metal>
0.0000

> <Gold.Chemscore.Hbonds>
donor molecule, donor type, donor heavy atom, donor atom, acceptor molecule, acceptor atom, score
      L1  H    10    31       P1  8028  1.00
      P1  H  6896  6909       L1    17  0.50
      L1  C    13    34       P1  7948  1.00
      L1  C    13    34       P1  7949  0.10

> <Gold.PLP.Chemscore.Internal.Correction>
0.0266

> <Gold.Rescore>
     Score         DG    S(hbond)    S(metal)    S(lipo)     H(rot)  DE(clash)    DE(int)     intcor
     12.19     -15.73       1.98        0.00      98.56       3.09       0.11       3.43       ----

> <Gold.Chemscore.Fitness>
12.1861

> <Gold.Chemscore.DG>
-15.7280

> <Gold.Chemscore.ZeroCoef>
-5.4800

> <Gold.Chemscore.Hbond>
1.9834

> <Gold.Chemscore.Metal>
0.0000

> <Gold.Chemscore.Lipo>
98.5632

> <Gold.Chemscore.Internal_Hbond>
0.0000

> <Gold.Chemscore.DEClash>
0.1110

> <Gold.Chemscore.DEInternal>
3.4309

> <Gold.Chemscore.Rot>
3.0892

> <Gold.Chemscore.Internal.Correction>
   9.000000E+99

> <Gold.Chemscore.Hbonds>
donor molecule, donor type, donor heavy atom, donor atom, acceptor molecule, acceptor atom, score
      L1  H    10    31       P1  8028  1.00
      P1  H  6896  6909       L1    17  0.48

> <Gold.Chemscore.Hbond.Weighted>
-6.6245

> <Gold.Chemscore.Metal.Weighted>
-0.0000

> <Gold.Chemscore.Lipo.Weighted>
-11.5319

> <Gold.Chemscore.Internal_Hbond.Weighted>
0.0000

> <Gold.Chemscore.DEClash.Weighted>
0.1110

> <Gold.Chemscore.DEInternal.Weighted>
3.4309

> <Gold.Chemscore.Rot.Weighted>
7.9084

> <Gold.Chemscore.Internal.Correction.Weighted>
   9.000000E+99

> <Gold.Protein.RotatedTorsions>
[ 6907 6896 6895 6894 ] final   61.86 input  -60.11 | X-H torsion
[ 7974 7965 7964 7962 ] final   46.17 input  175.53 | X-H torsion
[ 8008 7997 7996 7995 ] final   72.79 input   59.86 | X-H torsion
[ 10167 10162 10161 10158 ] final  -88.20 input  -65.29 | X-H torsion
[ 10718 10713 10712 10709 ] final  -73.80 input   66.30 | X-H torsion
[ 10763 10752 10751 10750 ] final -164.10 input  -60.55 | X-H torsion
[ 11005 11000 10999 10996 ] final -115.95 input  -57.11 | X-H torsion

> <Gold.Protein.ActiveResidues>
 VAL166  LYS551  ARG553  GLY616  TRP617  ASP618  TYR619  PRO620  LYS621  CYS622 
 ASP623  PHE694  ASN695  SER759  ASP760  ASP761  ALA762  ILE779  LEU786  VAL792 
 PHE793  MET794  SER795  GLU796  ALA797  LYS798  CYS799  TRP800  GLU811  SER814 

> <Gold.Protein.RotatedAtoms>
  152.4124  134.6100  160.0022 H   0  0  0  0  0  0  0  0  0  0  0  0  # atno 6907 bound_to 6896
  151.6274  133.3329  159.3109 H   0  0  0  0  0  0  0  0  0  0  0  0  # atno 6908 bound_to 6896
  150.8014  134.7151  159.6671 H   0  0  0  0  0  0  0  0  0  0  0  0  # atno 6909 bound_to 6896
  146.0414  139.4885  142.9776 H   0  0  0  0  0  0  0  0  0  0  0  0  # atno 7974 bound_to 7965
  155.7741  140.3483  155.5262 H   0  0  0  0  0  0  0  0  0  0  0  0  # atno 8008 bound_to 7997
  155.8793  140.0999  157.1517 H   0  0  0  0  0  0  0  0  0  0  0  0  # atno 8009 bound_to 7997
  154.4023  140.1325  156.4164 H   0  0  0  0  0  0  0  0  0  0  0  0  # atno 8010 bound_to 7997
  140.3770  143.2767  151.9431 H   0  0  0  0  0  0  0  0  0  0  0  0  # atno 10167 bound_to 10162
  156.0266  130.4402  150.2797 H   0  0  0  0  0  0  0  0  0  0  0  0  # atno 10718 bound_to 10713
  154.7060  135.2997  154.9269 H   0  0  0  0  0  0  0  0  0  0  0  0  # atno 10763 bound_to 10752
  154.0186  135.6685  153.4775 H   0  0  0  0  0  0  0  0  0  0  0  0  # atno 10764 bound_to 10752
  153.0718  135.5057  154.8231 H   0  0  0  0  0  0  0  0  0  0  0  0  # atno 10765 bound_to 10752
  141.0454  133.9770  157.2926 H   0  0  0  0  0  0  0  0  0  0  0  0  # atno 11005 bound_to 11000
  145.6878  141.0173  143.1572 LP  0  0  0  0  0  0  0  0  0  0  0  0  # atno 17320 bound_to 7965
  144.7076  139.8497  143.7425 LP  0  0  0  0  0  0  0  0  0  0  0  0  # atno 17321 bound_to 7965
  139.4798  144.5854  151.7862 LP  0  0  0  0  0  0  0  0  0  0  0  0  # atno 17342 bound_to 10162
  140.4976  144.1217  150.5964 LP  0  0  0  0  0  0  0  0  0  0  0  0  # atno 17343 bound_to 10162
  157.0901  131.0167  151.3125 LP  0  0  0  0  0  0  0  0  0  0  0  0  # atno 17370 bound_to 10713
  157.4861  130.7794  149.7461 LP  0  0  0  0  0  0  0  0  0  0  0  0  # atno 17371 bound_to 10713
  139.9308  135.0200  156.8393 LP  0  0  0  0  0  0  0  0  0  0  0  0  # atno 17394 bound_to 11000
  140.6156  134.0042  155.7596 LP  0  0  0  0  0  0  0  0  0  0  0  0  # atno 17395 bound_to 11000

$$$$
