AV-unprocessed.smi:2441|AV-procd|sdf|9621|dock6
  -GOLD-   2272013253D 1   1.00000     0.00000
 Structure written by MMmdl.
 40 41  0  0  0  0  0  0  0  0  1 V2000
  148.9824  140.4453  154.3797 C   0  0  0  0  0  0  0  0  0  0  0  0
  147.5760  141.0375  154.5749 C   0  0  2  0  0  0  0  0  0  0  0  0
  147.3418  142.2583  153.6610 C   0  0  0  0  0  0  0  0  0  0  0  0
  145.9192  142.8192  153.8182 C   0  0  0  0  0  0  0  0  0  0  0  0
  145.6108  143.1656  155.2825 C   0  0  0  0  0  0  0  0  0  0  0  0
  145.8415  141.9543  156.2026 C   0  0  0  0  0  0  0  0  0  0  0  0
  147.2616  141.3713  156.0554 C   0  0  2  0  0  0  0  0  0  0  0  0
  148.2426  142.3016  156.6188 N   0  0  0  0  0  0  0  0  0  0  0  0
  149.0321  142.0775  157.6793 C   0  0  0  0  0  0  0  0  0  0  0  0
  149.0305  141.0254  158.3176 O   0  0  0  0  0  0  0  0  0  0  0  0
  149.7924  143.1569  157.9406 N   0  0  0  0  0  0  0  0  0  0  0  0
  150.7597  143.3492  158.9427 C   0  0  0  0  0  0  0  0  0  0  0  0
  150.8809  144.4733  159.6929 C   0  0  0  0  0  0  0  0  0  0  0  0
  151.9012  144.5810  160.7074 C   0  0  0  0  0  0  0  0  0  0  0  0
  152.7203  143.5380  160.8988 C   0  0  0  0  0  0  0  0  0  0  0  0
  152.6070  142.3593  160.1443 N   0  0  0  0  0  0  0  0  0  0  0  0
  153.5716  141.3030  160.4648 C   0  0  0  0  0  0  0  0  0  0  0  0
  151.6634  142.2028  159.1664 C   0  0  0  0  0  0  0  0  0  0  0  0
  151.5798  141.1608  158.5121 O   0  0  0  0  0  0  0  0  0  0  0  0
  149.7628  141.1717  154.6072 H   0  0  0  0  0  0  0  0  0  0  0  0
  149.1287  140.1176  153.3502 H   0  0  0  0  0  0  0  0  0  0  0  0
  149.1352  139.5792  155.0241 H   0  0  0  0  0  0  0  0  0  0  0  0
  146.8686  140.2659  154.2665 H   0  0  0  0  0  0  0  0  0  0  0  0
  148.0696  143.0387  153.8870 H   0  0  0  0  0  0  0  0  0  0  0  0
  147.5070  141.9793  152.6197 H   0  0  0  0  0  0  0  0  0  0  0  0
  145.7982  143.7050  153.1940 H   0  0  0  0  0  0  0  0  0  0  0  0
  145.1968  142.0856  153.4579 H   0  0  0  0  0  0  0  0  0  0  0  0
  146.2373  143.9990  155.6025 H   0  0  0  0  0  0  0  0  0  0  0  0
  144.5790  143.5065  155.3725 H   0  0  0  0  0  0  0  0  0  0  0  0
  145.6531  142.2319  157.2407 H   0  0  0  0  0  0  0  0  0  0  0  0
  145.1115  141.1809  155.9600 H   0  0  0  0  0  0  0  0  0  0  0  0
  147.2849  140.4365  156.6182 H   0  0  0  0  0  0  0  0  0  0  0  0
  148.3184  143.1980  156.1609 H   0  0  0  0  0  0  0  0  0  0  0  0
  149.6280  143.9675  157.3613 H   0  0  0  0  0  0  0  0  0  0  0  0
  150.2181  145.3144  159.5723 H   0  0  0  0  0  0  0  0  0  0  0  0
  152.0025  145.4803  161.2968 H   0  0  0  0  0  0  0  0  0  0  0  0
  153.5114  143.5346  161.6353 H   0  0  0  0  0  0  0  0  0  0  0  0
  153.4052  140.3662  159.9319 H   0  0  0  0  0  0  0  0  0  0  0  0
  153.5363  141.0743  161.5308 H   0  0  0  0  0  0  0  0  0  0  0  0
  154.5819  141.6383  160.2281 H   0  0  0  0  0  0  0  0  0  0  0  0
  1  2  1  0  0  0  0
  1 20  1  0  0  0  0
  1 21  1  0  0  0  0
  1 22  1  0  0  0  0
  2  7  1  0  0  0  0
  2  3  1  0  0  0  0
  2 23  1  0  0  0  0
  3  4  1  0  0  0  0
  3 24  1  0  0  0  0
  3 25  1  0  0  0  0
  4  5  1  0  0  0  0
  4 26  1  0  0  0  0
  4 27  1  0  0  0  0
  5  6  1  0  0  0  0
  5 28  1  0  0  0  0
  5 29  1  0  0  0  0
  6  7  1  0  0  0  0
  6 30  1  0  0  0  0
  6 31  1  0  0  0  0
  7  8  1  0  0  0  0
  7 32  1  0  0  0  0
  8  9  1  0  0  0  0
  8 33  1  0  0  0  0
  9 10  2  0  0  0  0
  9 11  1  0  0  0  0
 11 12  1  0  0  0  0
 11 34  1  0  0  0  0
 12 18  1  0  0  0  0
 12 13  2  0  0  0  0
 13 14  1  0  0  0  0
 13 35  1  0  0  0  0
 14 15  2  0  0  0  0
 14 36  1  0  0  0  0
 15 16  1  0  0  0  0
 15 37  1  0  0  0  0
 16 17  1  0  0  0  0
 16 18  1  0  0  0  0
 17 38  1  0  0  0  0
 17 39  1  0  0  0  0
 17 40  1  0  0  0  0
 18 19  2  0  0  0  0
M  END
> <s_m_source_file>
AV-unprocessed.smi

> <i_m_source_file_index>
2441

> <i_lp_mmshare_version>
43012

> <i_f3d_flags>
0

> <s_epik_input>
W0NIM11bQ0BASF0xW0NIMl1bQ0gyXVtDSDJdW0NIMl1bQ0BIXTFbTkhdQyg9TylbTkhdYzJbY0hdW2NIXVtjSF1uKFtDSDNdKWMyPU8=

> <s_epik_cmdline>
J2VwaWtfcHl0aG9uJywgJy1waCcsICc3LjAnLCAnLXRuJywgJzgnLCAnLW1hJywgJzIwMCcsICctbWV0YWxfYmluZGluZycsICctaW1hZScsICc8aW5maWxlLm1hZT4nLCAnLW9tYWUnLCAnPG91dGZpbGUubWFlPic=

> <r_lp_tautomer_probability>
1

> <r_epik_Ionization_Penalty>
2.64999e-05

> <r_epik_Ionization_Penalty_Charging>
5.09663e-06

> <r_epik_Ionization_Penalty_Neutral>
2.14032e-05

> <r_epik_State_Penalty>
-0

> <r_epik_Charging_Adjusted_Penalty>
5.09663e-06

> <i_epik_Tot_Q>
0

> <i_epik_Tot_abs_Q>
0

> <r_epik_Metal_State_Penalty>
-0

> <b_epik_Metal_Only>
0

> <s_lp_Force_Field>
OPLS_2005

> <r_lp_Energy>
23.2252

> <b_lp_Chiralities_Consistent>
1

> <s_lp_Variant>
AV-unprocessed.smi:2441-3

> <Gold.Version>
5.8.1

> <Gold.Id.Protein>
6NUR|6NUR_protein|mol2

> <Gold.PLP.Fitness>
44.9269

> <Gold.PLP.PLP>
-39.7049

> <Gold.PLP.part.hbond>
-2.3309

> <Gold.PLP.part.metal>
0.0000

> <Gold.PLP.part.buried>
-6.7533

> <Gold.PLP.part.nonpolar>
-30.7957

> <Gold.PLP.part.repulsive>
0.0714

> <Gold.PLP.ligand.clash>
0.0000

> <Gold.PLP.ligand.torsion>
0.3566

> <Gold.PLP.Chemscore.Hbond>
1.9760

> <Gold.PLP.Chemscore.CHOScore>
0.0000

> <Gold.PLP.Chemscore.Metal>
0.0000

> <Gold.Chemscore.Hbonds>
donor molecule, donor type, donor heavy atom, donor atom, acceptor molecule, acceptor atom, score
      L1  H     8    33       P1  8028  1.00
      L1  H    11    34       P1  8028  0.99

> <Gold.PLP.Chemscore.Internal.Correction>
0.0072

> <Gold.Rescore>
     Score         DG    S(hbond)    S(metal)    S(lipo)     H(rot)  DE(clash)    DE(int)     intcor
     15.48     -19.64       1.83        0.00      90.60       1.00       1.15       3.01       ----

> <Gold.Chemscore.Fitness>
15.4765

> <Gold.Chemscore.DG>
-19.6397

> <Gold.Chemscore.ZeroCoef>
-5.4800

> <Gold.Chemscore.Hbond>
1.8320

> <Gold.Chemscore.Metal>
0.0000

> <Gold.Chemscore.Lipo>
90.6047

> <Gold.Chemscore.Internal_Hbond>
0.0000

> <Gold.Chemscore.DEClash>
1.1512

> <Gold.Chemscore.DEInternal>
3.0119

> <Gold.Chemscore.Rot>
1.0000

> <Gold.Chemscore.Internal.Correction>
   9.000000E+99

> <Gold.Chemscore.Hbonds>
donor molecule, donor type, donor heavy atom, donor atom, acceptor molecule, acceptor atom, score
      L1  H     8    33       P1  8028  0.74
      L1  H    11    34       P1  8028  0.45

> <Gold.Chemscore.Hbond.Weighted>
-6.1189

> <Gold.Chemscore.Metal.Weighted>
-0.0000

> <Gold.Chemscore.Lipo.Weighted>
-10.6007

> <Gold.Chemscore.Internal_Hbond.Weighted>
0.0000

> <Gold.Chemscore.DEClash.Weighted>
1.1512

> <Gold.Chemscore.DEInternal.Weighted>
3.0119

> <Gold.Chemscore.Rot.Weighted>
2.5600

> <Gold.Chemscore.Internal.Correction.Weighted>
   9.000000E+99

> <Gold.Protein.RotatedTorsions>
[ 6907 6896 6895 6894 ] final -162.69 input  -60.11 | X-H torsion
[ 7974 7965 7964 7962 ] final   17.99 input  175.53 | X-H torsion
[ 8008 7997 7996 7995 ] final  -30.71 input   59.86 | X-H torsion
[ 10167 10162 10161 10158 ] final -136.70 input  -65.29 | X-H torsion
[ 10718 10713 10712 10709 ] final   36.53 input   66.30 | X-H torsion
[ 10763 10752 10751 10750 ] final   29.50 input  -60.55 | X-H torsion
[ 11005 11000 10999 10996 ] final  146.60 input  -57.11 | X-H torsion

> <Gold.Protein.ActiveResidues>
 VAL166  LYS551  ARG553  GLY616  TRP617  ASP618  TYR619  PRO620  LYS621  CYS622 
 ASP623  PHE694  ASN695  SER759  ASP760  ASP761  ALA762  ILE779  LEU786  VAL792 
 PHE793  MET794  SER795  GLU796  ALA797  LYS798  CYS799  TRP800  GLU811  SER814 

> <Gold.Protein.RotatedAtoms>
  151.3843  133.3810  159.2713 H   0  0  0  0  0  0  0  0  0  0  0  0  # atno 6907 bound_to 6896
  150.9553  134.8949  159.7708 H   0  0  0  0  0  0  0  0  0  0  0  0  # atno 6908 bound_to 6896
  152.5128  134.3800  159.9400 H   0  0  0  0  0  0  0  0  0  0  0  0  # atno 6909 bound_to 6896
  146.2200  139.8523  142.8620 H   0  0  0  0  0  0  0  0  0  0  0  0  # atno 7974 bound_to 7965
  154.4240  140.1784  156.1450 H   0  0  0  0  0  0  0  0  0  0  0  0  # atno 8008 bound_to 7997
  155.9961  140.3364  155.6775 H   0  0  0  0  0  0  0  0  0  0  0  0  # atno 8009 bound_to 7997
  155.6307  140.0669  157.2640 H   0  0  0  0  0  0  0  0  0  0  0  0  # atno 8010 bound_to 7997
  139.8651  143.7028  152.2646 H   0  0  0  0  0  0  0  0  0  0  0  0  # atno 10167 bound_to 10162
  157.3360  130.7522  149.6879 H   0  0  0  0  0  0  0  0  0  0  0  0  # atno 10718 bound_to 10713
  153.0426  135.6487  154.0901 H   0  0  0  0  0  0  0  0  0  0  0  0  # atno 10763 bound_to 10752
  154.0605  135.2888  155.3327 H   0  0  0  0  0  0  0  0  0  0  0  0  # atno 10764 bound_to 10752
  154.6661  135.5373  153.8144 H   0  0  0  0  0  0  0  0  0  0  0  0  # atno 10765 bound_to 10752
  140.0807  134.9099  157.1495 H   0  0  0  0  0  0  0  0  0  0  0  0  # atno 11005 bound_to 11000
  145.2789  141.0132  143.3729 LP  0  0  0  0  0  0  0  0  0  0  0  0  # atno 17320 bound_to 7965
  144.9165  139.4464  143.6562 LP  0  0  0  0  0  0  0  0  0  0  0  0  # atno 17321 bound_to 7965
  139.7337  144.7576  151.0762 LP  0  0  0  0  0  0  0  0  0  0  0  0  # atno 17342 bound_to 10162
  140.7769  143.5057  150.9715 LP  0  0  0  0  0  0  0  0  0  0  0  0  # atno 17343 bound_to 10162
  155.9701  130.4181  150.4313 LP  0  0  0  0  0  0  0  0  0  0  0  0  # atno 17370 bound_to 10713
  157.2353  131.0513  151.2468 LP  0  0  0  0  0  0  0  0  0  0  0  0  # atno 17371 bound_to 10713
  140.3492  134.2617  155.7201 LP  0  0  0  0  0  0  0  0  0  0  0  0  # atno 17394 bound_to 11000
  141.2045  133.7883  157.0281 LP  0  0  0  0  0  0  0  0  0  0  0  0  # atno 17395 bound_to 11000

$$$$
