AV-unprocessed.smi:2583|AV-procd|sdf|10139|dock2
  -GOLD-   2272014153D 1   1.00000     0.00000
 Structure written by MMmdl.
 54 56  0  0  0  0  0  0  0  0  2 V2000
  153.6308  141.0180  160.3320 C   0  0  0  0  0  0  0  0  0  0  0  0
  152.8166  142.2090  159.8718 C   0  0  0  0  0  0  0  0  0  0  0  0
  152.8578  143.4336  160.5692 C   0  0  0  0  0  0  0  0  0  0  0  0
  152.1539  144.5224  160.1948 N   0  0  0  0  0  0  0  0  0  0  0  0
  151.3660  144.4256  159.1022 C   0  0  0  0  0  0  0  0  0  0  0  0
  151.2397  143.2405  158.3361 C   0  0  0  0  0  0  0  0  0  0  0  0
  150.4337  143.1267  157.1722 N   0  0  0  0  0  0  0  0  0  0  0  0
  149.8400  142.0285  156.6748 C   0  0  0  0  0  0  0  0  0  0  0  0
  149.9340  140.8944  157.1438 O   0  0  0  0  0  0  0  0  0  0  0  0
  149.1348  142.3174  155.5719 N   0  0  0  0  0  0  0  0  0  0  0  0
  148.3871  141.3497  154.7748 C   0  0  0  0  0  0  0  0  0  0  0  0
  147.0413  141.0507  155.4393 C   0  0  0  0  0  0  0  0  0  0  0  0
  146.2794  139.9484  154.6829 C   0  0  0  0  0  0  0  0  0  0  0  0
  147.0456  138.6915  154.6153 N   0  0  0  0  0  0  0  0  0  0  0  0
  146.2792  137.6209  153.9372 C   0  0  2  0  0  0  0  0  0  0  0  0
  146.9210  136.2226  154.1536 C   0  0  0  0  0  0  0  0  0  0  0  0
  146.2127  135.1125  153.3609 C   0  0  0  0  0  0  0  0  0  0  0  0
  146.1813  135.4246  151.9151 N   0  3  1  0  0  0  0  0  0  0  0  0
  145.6208  134.3181  151.1097 C   0  0  0  0  0  0  0  0  0  0  0  0
  145.4960  136.7111  151.6612 C   0  0  0  0  0  0  0  0  0  0  0  0
  146.1877  137.8643  152.4054 C   0  0  0  0  0  0  0  0  0  0  0  0
  148.3108  138.9699  153.9133 C   0  0  0  0  0  0  0  0  0  0  0  0
  149.1542  140.0290  154.6431 C   0  0  0  0  0  0  0  0  0  0  0  0
  151.9953  142.1179  158.7310 C   0  0  0  0  0  0  0  0  0  0  0  0
  154.1529  141.2312  161.2652 H   0  0  0  0  0  0  0  0  0  0  0  0
  154.3719  140.7528  159.5777 H   0  0  0  0  0  0  0  0  0  0  0  0
  152.9822  140.1569  160.4942 H   0  0  0  0  0  0  0  0  0  0  0  0
  153.4749  143.5473  161.4484 H   0  0  0  0  0  0  0  0  0  0  0  0
  150.8491  145.3345  158.8369 H   0  0  0  0  0  0  0  0  0  0  0  0
  150.3425  143.9690  156.6234 H   0  0  0  0  0  0  0  0  0  0  0  0
  149.1160  143.2766  155.2574 H   0  0  0  0  0  0  0  0  0  0  0  0
  148.2029  141.7652  153.7820 H   0  0  0  0  0  0  0  0  0  0  0  0
  147.1945  140.7385  156.4737 H   0  0  0  0  0  0  0  0  0  0  0  0
  146.4348  141.9564  155.4761 H   0  0  0  0  0  0  0  0  0  0  0  0
  145.3455  139.8084  155.2220 H   0  0  0  0  0  0  0  0  0  0  0  0
  146.0240  140.2852  153.6770 H   0  0  0  0  0  0  0  0  0  0  0  0
  145.2685  137.6050  154.3484 H   0  0  0  0  0  0  0  0  0  0  0  0
  147.9759  136.2515  153.8757 H   0  0  0  0  0  0  0  0  0  0  0  0
  146.8790  135.9223  155.1991 H   0  0  0  0  0  0  0  0  0  0  0  0
  146.7334  134.1669  153.5185 H   0  0  0  0  0  0  0  0  0  0  0  0
  145.1947  134.9788  153.7307 H   0  0  0  0  0  0  0  0  0  0  0  0
  144.5786  134.1315  151.3715 H   0  0  0  0  0  0  0  0  0  0  0  0
  146.1844  133.3988  151.2725 H   0  0  0  0  0  0  0  0  0  0  0  0
  145.6696  134.5530  150.0459 H   0  0  0  0  0  0  0  0  0  0  0  0
  145.4961  136.9189  150.5904 H   0  0  0  0  0  0  0  0  0  0  0  0
  144.4519  136.6384  151.9698 H   0  0  0  0  0  0  0  0  0  0  0  0
  145.6149  138.7606  152.1746 H   0  0  0  0  0  0  0  0  0  0  0  0
  147.1868  138.0152  151.9932 H   0  0  0  0  0  0  0  0  0  0  0  0
  148.9328  138.0804  153.8545 H   0  0  0  0  0  0  0  0  0  0  0  0
  148.1080  139.2878  152.8892 H   0  0  0  0  0  0  0  0  0  0  0  0
  150.0868  140.1877  154.1005 H   0  0  0  0  0  0  0  0  0  0  0  0
  149.4314  139.6559  155.6305 H   0  0  0  0  0  0  0  0  0  0  0  0
  151.9419  141.1959  158.1703 H   0  0  0  0  0  0  0  0  0  0  0  0
  147.1404  135.5403  151.6196 H   0  0  0  0  0  0  0  0  0  0  0  0
  1  2  1  0  0  0  0
  1 25  1  0  0  0  0
  1 26  1  0  0  0  0
  1 27  1  0  0  0  0
  2 24  1  0  0  0  0
  2  3  2  0  0  0  0
  3  4  1  0  0  0  0
  3 28  1  0  0  0  0
  4  5  2  0  0  0  0
  5  6  1  0  0  0  0
  5 29  1  0  0  0  0
  6  7  1  0  0  0  0
  6 24  2  0  0  0  0
  7  8  1  0  0  0  0
  7 30  1  0  0  0  0
  8  9  2  0  0  0  0
  8 10  1  0  0  0  0
 10 11  1  0  0  0  0
 10 31  1  0  0  0  0
 11 23  1  0  0  0  0
 11 12  1  0  0  0  0
 11 32  1  0  0  0  0
 12 13  1  0  0  0  0
 12 33  1  0  0  0  0
 12 34  1  0  0  0  0
 13 14  1  0  0  0  0
 13 35  1  0  0  0  0
 13 36  1  0  0  0  0
 14 15  1  0  0  0  0
 14 22  1  0  0  0  0
 15 21  1  0  0  0  0
 15 16  1  0  0  0  0
 15 37  1  0  0  0  0
 16 17  1  0  0  0  0
 16 38  1  0  0  0  0
 16 39  1  0  0  0  0
 17 18  1  0  0  0  0
 17 40  1  0  0  0  0
 17 41  1  0  0  0  0
 18 19  1  0  0  0  0
 18 20  1  0  0  0  0
 18 54  1  0  0  0  0
 19 42  1  0  0  0  0
 19 43  1  0  0  0  0
 19 44  1  0  0  0  0
 20 21  1  0  0  0  0
 20 45  1  0  0  0  0
 20 46  1  0  0  0  0
 21 47  1  0  0  0  0
 21 48  1  0  0  0  0
 22 23  1  0  0  0  0
 22 49  1  0  0  0  0
 22 50  1  0  0  0  0
 23 51  1  0  0  0  0
 23 52  1  0  0  0  0
 24 53  1  0  0  0  0
M  CHG  1  18   1
M  END
> <s_m_source_file>
AV-unprocessed.smi

> <i_m_source_file_index>
2583

> <i_lp_mmshare_version>
43012

> <i_f3d_flags>
0

> <s_epik_input>
W0NIM11jMVtjSF1uW2NIXWMoW2NIXTEpW05IXUMoPU8pW05IXVtDSF0yW0NIMl1bQ0gyXU4oW0NIMl1bQ0gyXTIpW0NIXTNbQ0gyXVtDSDJdTihbQ0gzXSlbQ0gyXVtDSDJdMw==

> <s_epik_cmdline>
J2VwaWtfcHl0aG9uJywgJy1waCcsICc3LjAnLCAnLXRuJywgJzgnLCAnLW1hJywgJzIwMCcsICctbWV0YWxfYmluZGluZycsICctaW1hZScsICc8aW5maWxlLm1hZT4nLCAnLW9tYWUnLCAnPG91dGZpbGUubWFlPic=

> <r_epik_Ionization_Penalty>
1.01912

> <r_epik_Ionization_Penalty_Charging>
0.000974969

> <r_epik_Ionization_Penalty_Neutral>
1.01814

> <r_epik_State_Penalty>
1.10721

> <r_epik_Charging_Adjusted_Penalty>
1.10819

> <i_epik_Tot_Q>
1

> <i_epik_Tot_abs_Q>
1

> <r_epik_Metal_State_Penalty>
1.10135

> <b_epik_Metal_Only>
0

> <s_lp_Force_Field>
OPLS_2005

> <r_lp_Energy>
33.522

> <b_lp_Chiralities_Consistent>
1

> <s_lp_Variant>
AV-unprocessed.smi:2583-5

> <Gold.Version>
5.8.1

> <Gold.Id.Protein>
6NUR|6NUR_protein|mol2

> <Gold.PLP.Fitness>
48.3033

> <Gold.PLP.PLP>
-38.8897

> <Gold.PLP.part.hbond>
-2.6979

> <Gold.PLP.part.metal>
0.0000

> <Gold.PLP.part.buried>
-3.2503

> <Gold.PLP.part.nonpolar>
-33.7258

> <Gold.PLP.part.repulsive>
0.4072

> <Gold.PLP.ligand.clash>
0.0000

> <Gold.PLP.ligand.torsion>
0.6218

> <Gold.PLP.Chemscore.Hbond>
3.5520

> <Gold.PLP.Chemscore.CHOScore>
0.0000

> <Gold.PLP.Chemscore.Metal>
0.0000

> <Gold.Chemscore.Hbonds>
donor molecule, donor type, donor heavy atom, donor atom, acceptor molecule, acceptor atom, score
      L1  H     7    30       P1  8028  0.67
      L1  H    10    31       P1  8028  0.87
      L1  H    18    54       P1  7948  2.00

> <Gold.PLP.Chemscore.Internal.Correction>
0.0011

> <Gold.Rescore>
     Score         DG    S(hbond)    S(metal)    S(lipo)     H(rot)  DE(clash)    DE(int)     intcor
     20.60     -23.95       2.63        0.00     109.14       1.20       0.05       3.30       ----

> <Gold.Chemscore.Fitness>
20.5997

> <Gold.Chemscore.DG>
-23.9537

> <Gold.Chemscore.ZeroCoef>
-5.4800

> <Gold.Chemscore.Hbond>
2.6257

> <Gold.Chemscore.Metal>
0.0000

> <Gold.Chemscore.Lipo>
109.1365

> <Gold.Chemscore.Internal_Hbond>
0.0000

> <Gold.Chemscore.DEClash>
0.0518

> <Gold.Chemscore.DEInternal>
3.3022

> <Gold.Chemscore.Rot>
1.1974

> <Gold.Chemscore.Internal.Correction>
   9.000000E+99

> <Gold.Chemscore.Hbonds>
donor molecule, donor type, donor heavy atom, donor atom, acceptor molecule, acceptor atom, score
      L1  H     7    30       P1  8028  0.68
      L1  H    10    31       P1  8028  0.82
      L1  H    18    54       P1  7948  0.97

> <Gold.Chemscore.Hbond.Weighted>
-8.7699

> <Gold.Chemscore.Metal.Weighted>
-0.0000

> <Gold.Chemscore.Lipo.Weighted>
-12.7690

> <Gold.Chemscore.Internal_Hbond.Weighted>
0.0000

> <Gold.Chemscore.DEClash.Weighted>
0.0518

> <Gold.Chemscore.DEInternal.Weighted>
3.3022

> <Gold.Chemscore.Rot.Weighted>
3.0652

> <Gold.Chemscore.Internal.Correction.Weighted>
   9.000000E+99

> <Gold.Protein.RotatedTorsions>
[ 6907 6896 6895 6894 ] final -125.72 input  -60.11 | X-H torsion
[ 7974 7965 7964 7962 ] final  -14.21 input  175.53 | X-H torsion
[ 8008 7997 7996 7995 ] final   61.36 input   59.86 | X-H torsion
[ 10167 10162 10161 10158 ] final  138.96 input  -65.29 | X-H torsion
[ 10718 10713 10712 10709 ] final  -49.78 input   66.30 | X-H torsion
[ 10763 10752 10751 10750 ] final   92.59 input  -60.55 | X-H torsion
[ 11005 11000 10999 10996 ] final -131.89 input  -57.11 | X-H torsion

> <Gold.Protein.ActiveResidues>
 VAL166  LYS551  ARG553  GLY616  TRP617  ASP618  TYR619  PRO620  LYS621  CYS622 
 ASP623  PHE694  ASN695  SER759  ASP760  ASP761  ALA762  ILE779  LEU786  VAL792 
 PHE793  MET794  SER795  GLU796  ALA797  LYS798  CYS799  TRP800  GLU811  SER814 

> <Gold.Protein.RotatedAtoms>
  150.8896  133.7261  159.2908 H   0  0  0  0  0  0  0  0  0  0  0  0  # atno 6907 bound_to 6896
  151.4816  135.1051  159.9789 H   0  0  0  0  0  0  0  0  0  0  0  0  # atno 6908 bound_to 6896
  152.4811  133.8211  159.7109 H   0  0  0  0  0  0  0  0  0  0  0  0  # atno 6909 bound_to 6896
  146.2083  140.3315  142.8399 H   0  0  0  0  0  0  0  0  0  0  0  0  # atno 7974 bound_to 7965
  155.5971  140.3493  155.4583 H   0  0  0  0  0  0  0  0  0  0  0  0  # atno 8008 bound_to 7997
  156.0257  140.1263  157.0336 H   0  0  0  0  0  0  0  0  0  0  0  0  # atno 8009 bound_to 7997
  154.4332  140.1053  156.6013 H   0  0  0  0  0  0  0  0  0  0  0  0  # atno 8010 bound_to 7997
  139.5094  144.6323  151.5787 H   0  0  0  0  0  0  0  0  0  0  0  0  # atno 10167 bound_to 10162
  156.1861  130.4151  149.9437 H   0  0  0  0  0  0  0  0  0  0  0  0  # atno 10718 bound_to 10713
  153.2208  135.4356  155.0487 H   0  0  0  0  0  0  0  0  0  0  0  0  # atno 10763 bound_to 10752
  154.8249  135.3356  154.6929 H   0  0  0  0  0  0  0  0  0  0  0  0  # atno 10764 bound_to 10752
  153.7361  135.7008  153.5034 H   0  0  0  0  0  0  0  0  0  0  0  0  # atno 10765 bound_to 10752
  140.9218  134.1434  157.4307 H   0  0  0  0  0  0  0  0  0  0  0  0  # atno 11005 bound_to 11000
  144.8849  140.7448  143.5963 LP  0  0  0  0  0  0  0  0  0  0  0  0  # atno 17320 bound_to 7965
  145.3236  139.1781  143.4574 LP  0  0  0  0  0  0  0  0  0  0  0  0  # atno 17321 bound_to 7965
  140.6059  143.9524  150.6418 LP  0  0  0  0  0  0  0  0  0  0  0  0  # atno 17342 bound_to 10162
  140.2751  143.3428  152.1202 LP  0  0  0  0  0  0  0  0  0  0  0  0  # atno 17343 bound_to 10162
  156.7192  130.9000  151.3616 LP  0  0  0  0  0  0  0  0  0  0  0  0  # atno 17370 bound_to 10713
  157.6900  130.9223  150.0487 LP  0  0  0  0  0  0  0  0  0  0  0  0  # atno 17371 bound_to 10713
  139.8777  134.9974  156.5845 LP  0  0  0  0  0  0  0  0  0  0  0  0  # atno 17394 bound_to 11000
  140.7977  133.8530  155.8700 LP  0  0  0  0  0  0  0  0  0  0  0  0  # atno 17395 bound_to 11000

$$$$
