AV-unprocessed.smi:2163|AV-procd|sdf|8806|dock3
  -GOLD-   2272011593D 1   1.00000     0.00000
 Structure written by MMmdl.
 44 46  0  0  0  0  0  0  0  0  2 V2000
  150.0276  141.3081  155.6709 C   0  0  0  0  0  0  0  0  0  0  0  0
  150.6645  141.9643  156.8494 C   0  0  0  0  0  0  0  0  0  0  0  0
  150.7022  143.3036  157.0978 N   0  3  0  0  0  0  0  0  0  0  0  0
  151.3800  143.5430  158.2937 C   0  0  0  0  0  0  0  0  0  0  0  0
  151.6675  144.7335  158.9540 C   0  0  0  0  0  0  0  0  0  0  0  0
  152.3786  144.6284  160.1672 C   0  0  0  0  0  0  0  0  0  0  0  0
  152.7760  143.3762  160.6790 C   0  0  0  0  0  0  0  0  0  0  0  0
  152.4804  142.1759  159.9995 C   0  0  0  0  0  0  0  0  0  0  0  0
  151.7765  142.2879  158.8003 C   0  0  0  0  0  0  0  0  0  0  0  0
  151.3135  141.3437  157.8755 N   0  0  0  0  0  0  0  0  0  0  0  0
  151.5584  139.9116  158.1068 C   0  0  0  0  0  0  0  0  0  0  0  0
  152.9872  139.4832  157.7145 C   0  0  2  0  0  0  0  0  0  0  0  0
  153.0965  139.2218  156.3298 O   0  0  0  0  0  0  0  0  0  0  0  0
  153.5057  138.2691  158.5018 C   0  0  0  0  0  0  0  0  0  0  0  0
  153.8425  138.6586  159.8279 O   0  0  0  0  0  0  0  0  0  0  0  0
  154.1032  137.6703  160.7529 C   0  0  0  0  0  0  0  0  0  0  0  0
  154.1028  136.2830  160.4597 C   0  0  0  0  0  0  0  0  0  0  0  0
  154.3809  135.3403  161.4687 C   0  0  0  0  0  0  0  0  0  0  0  0
  154.6629  135.7668  162.7812 C   0  0  0  0  0  0  0  0  0  0  0  0
  154.9636  134.7517  163.8645 C   0  0  0  0  0  0  0  0  0  0  0  0
  154.9127  133.3717  163.3582 C   0  0  0  0  0  0  0  0  0  0  0  0
  154.8725  132.2862  162.9597 N   0  0  0  0  0  0  0  0  0  0  0  0
  154.6657  137.1434  163.0795 C   0  0  0  0  0  0  0  0  0  0  0  0
  154.3870  138.0852  162.0704 C   0  0  0  0  0  0  0  0  0  0  0  0
  149.5745  142.0526  155.0158 H   0  0  0  0  0  0  0  0  0  0  0  0
  149.2513  140.6166  155.9984 H   0  0  0  0  0  0  0  0  0  0  0  0
  150.7727  140.7524  155.1012 H   0  0  0  0  0  0  0  0  0  0  0  0
  151.3630  145.6938  158.5644 H   0  0  0  0  0  0  0  0  0  0  0  0
  152.6230  145.5260  160.7168 H   0  0  0  0  0  0  0  0  0  0  0  0
  153.3180  143.3348  161.6127 H   0  0  0  0  0  0  0  0  0  0  0  0
  152.7874  141.2229  160.4039 H   0  0  0  0  0  0  0  0  0  0  0  0
  151.3956  139.7238  159.1685 H   0  0  0  0  0  0  0  0  0  0  0  0
  150.8033  139.3289  157.5791 H   0  0  0  0  0  0  0  0  0  0  0  0
  153.6624  140.3161  157.9138 H   0  0  0  0  0  0  0  0  0  0  0  0
  153.3908  138.3309  156.2159 H   0  0  0  0  0  0  0  0  0  0  0  0
  152.7609  137.4711  158.5027 H   0  0  0  0  0  0  0  0  0  0  0  0
  154.3999  137.8880  158.0058 H   0  0  0  0  0  0  0  0  0  0  0  0
  153.8918  135.9143  159.4675 H   0  0  0  0  0  0  0  0  0  0  0  0
  154.3781  134.2867  161.2307 H   0  0  0  0  0  0  0  0  0  0  0  0
  155.9555  134.9307  164.2801 H   0  0  0  0  0  0  0  0  0  0  0  0
  154.2452  134.8466  164.6791 H   0  0  0  0  0  0  0  0  0  0  0  0
  154.8827  137.4805  164.0825 H   0  0  0  0  0  0  0  0  0  0  0  0
  154.3924  139.1384  162.3099 H   0  0  0  0  0  0  0  0  0  0  0  0
  150.2908  144.0016  156.4916 H   0  0  0  0  0  0  0  0  0  0  0  0
  1  2  1  0  0  0  0
  1 25  1  0  0  0  0
  1 26  1  0  0  0  0
  1 27  1  0  0  0  0
  2 10  1  0  0  0  0
  2  3  2  0  0  0  0
  3  4  1  0  0  0  0
  3 44  1  0  0  0  0
  4  9  2  0  0  0  0
  4  5  1  0  0  0  0
  5  6  2  0  0  0  0
  5 28  1  0  0  0  0
  6  7  1  0  0  0  0
  6 29  1  0  0  0  0
  7  8  2  0  0  0  0
  7 30  1  0  0  0  0
  8  9  1  0  0  0  0
  8 31  1  0  0  0  0
  9 10  1  0  0  0  0
 10 11  1  0  0  0  0
 11 12  1  0  0  0  0
 11 32  1  0  0  0  0
 11 33  1  0  0  0  0
 12 13  1  0  0  0  0
 12 14  1  0  0  0  0
 12 34  1  0  0  0  0
 13 35  1  0  0  0  0
 14 15  1  0  0  0  0
 14 36  1  0  0  0  0
 14 37  1  0  0  0  0
 15 16  1  0  0  0  0
 16 24  1  0  0  0  0
 16 17  2  0  0  0  0
 17 18  1  0  0  0  0
 17 38  1  0  0  0  0
 18 19  2  0  0  0  0
 18 39  1  0  0  0  0
 19 20  1  0  0  0  0
 19 23  1  0  0  0  0
 20 21  1  0  0  0  0
 20 40  1  0  0  0  0
 20 41  1  0  0  0  0
 21 22  3  0  0  0  0
 23 24  2  0  0  0  0
 23 42  1  0  0  0  0
 24 43  1  0  0  0  0
M  CHG  1   3   1
M  END
> <s_m_source_file>
AV-unprocessed.smi

> <i_m_source_file_index>
2163

> <i_lp_mmshare_version>
43012

> <i_f3d_flags>
0

> <s_epik_input>
W2NIXTFbY0hdW2NIXVtjSF1jKGMxMiluKGMobjIpW0NIM10pW0NIMl1bQ0BIXShbT0hdKVtDSDJdT2MzW2NIXVtjSF1jKFtDSDJdQyNOKVtjSF1bY0hdMw==

> <s_epik_cmdline>
J2VwaWtfcHl0aG9uJywgJy1waCcsICc3LjAnLCAnLXRuJywgJzgnLCAnLW1hJywgJzIwMCcsICctbWV0YWxfYmluZGluZycsICctaW1hZScsICc8aW5maWxlLm1hZT4nLCAnLW9tYWUnLCAnPG91dGZpbGUubWFlPic=

> <r_lp_tautomer_probability>
1

> <r_epik_Ionization_Penalty>
1.03158

> <r_epik_Ionization_Penalty_Charging>
1.03158

> <r_epik_Ionization_Penalty_Neutral>
2.3994e-06

> <r_epik_State_Penalty>
1.08278

> <r_epik_Charging_Adjusted_Penalty>
2.11436

> <i_epik_Tot_Q>
1

> <i_epik_Tot_abs_Q>
1

> <r_epik_Metal_State_Penalty>
5.07177

> <b_epik_Metal_Only>
0

> <s_lp_Force_Field>
OPLS_2005

> <r_lp_Energy>
21.0912

> <b_lp_Chiralities_Consistent>
1

> <s_lp_Variant>
AV-unprocessed.smi:2163-3

> <Gold.Version>
5.8.1

> <Gold.Id.Protein>
6NUR|6NUR_protein|mol2

> <Gold.PLP.Fitness>
54.3325

> <Gold.PLP.PLP>
-47.3223

> <Gold.PLP.part.hbond>
-1.9144

> <Gold.PLP.part.metal>
0.0000

> <Gold.PLP.part.buried>
-3.9674

> <Gold.PLP.part.nonpolar>
-41.7392

> <Gold.PLP.part.repulsive>
0.0295

> <Gold.PLP.ligand.clash>
0.0000

> <Gold.PLP.ligand.torsion>
0.7361

> <Gold.PLP.Chemscore.Hbond>
2.7840

> <Gold.PLP.Chemscore.CHOScore>
0.0000

> <Gold.PLP.Chemscore.Metal>
0.0000

> <Gold.Chemscore.Hbonds>
donor molecule, donor type, donor heavy atom, donor atom, acceptor molecule, acceptor atom, score
      L1  H     3    44       P1  8028  2.00
      P1  H  7997  8010       L1    13  0.78

> <Gold.PLP.Chemscore.Internal.Correction>
0.1304

> <Gold.Rescore>
     Score         DG    S(hbond)    S(metal)    S(lipo)     H(rot)  DE(clash)    DE(int)     intcor
     17.77     -18.86       1.19        0.00     137.43       2.60       0.42       0.67       ----

> <Gold.Chemscore.Fitness>
17.7747

> <Gold.Chemscore.DG>
-18.8642

> <Gold.Chemscore.ZeroCoef>
-5.4800

> <Gold.Chemscore.Hbond>
1.1892

> <Gold.Chemscore.Metal>
0.0000

> <Gold.Chemscore.Lipo>
137.4258

> <Gold.Chemscore.Internal_Hbond>
0.0000

> <Gold.Chemscore.DEClash>
0.4237

> <Gold.Chemscore.DEInternal>
0.6658

> <Gold.Chemscore.Rot>
2.6041

> <Gold.Chemscore.Internal.Correction>
   9.000000E+99

> <Gold.Chemscore.Hbonds>
donor molecule, donor type, donor heavy atom, donor atom, acceptor molecule, acceptor atom, score
      L1  H     3    44       P1  8028  0.96
      P1  H  7997  8010       L1    13  0.08

> <Gold.Chemscore.Hbond.Weighted>
-3.9719

> <Gold.Chemscore.Metal.Weighted>
-0.0000

> <Gold.Chemscore.Lipo.Weighted>
-16.0788

> <Gold.Chemscore.Internal_Hbond.Weighted>
0.0000

> <Gold.Chemscore.DEClash.Weighted>
0.4237

> <Gold.Chemscore.DEInternal.Weighted>
0.6658

> <Gold.Chemscore.Rot.Weighted>
6.6665

> <Gold.Chemscore.Internal.Correction.Weighted>
   9.000000E+99

> <Gold.Protein.RotatedTorsions>
[ 6907 6896 6895 6894 ] final  176.13 input  -60.11 | X-H torsion
[ 7974 7965 7964 7962 ] final   65.58 input  175.53 | X-H torsion
[ 8008 7997 7996 7995 ] final   97.76 input   59.86 | X-H torsion
[ 10167 10162 10161 10158 ] final  162.19 input  -65.29 | X-H torsion
[ 10718 10713 10712 10709 ] final  126.10 input   66.30 | X-H torsion
[ 10763 10752 10751 10750 ] final   14.52 input  -60.55 | X-H torsion
[ 11005 11000 10999 10996 ] final  107.65 input  -57.11 | X-H torsion

> <Gold.Protein.ActiveResidues>
 VAL166  LYS551  ARG553  GLY616  TRP617  ASP618  TYR619  PRO620  LYS621  CYS622 
 ASP623  PHE694  ASN695  SER759  ASP760  ASP761  ALA762  ILE779  LEU786  VAL792 
 PHE793  MET794  SER795  GLU796  ALA797  LYS798  CYS799  TRP800  GLU811  SER814 

> <Gold.Protein.RotatedAtoms>
  151.7251  133.3315  159.3325 H   0  0  0  0  0  0  0  0  0  0  0  0  # atno 6907 bound_to 6896
  150.7636  134.6414  159.6248 H   0  0  0  0  0  0  0  0  0  0  0  0  # atno 6908 bound_to 6896
  152.3627  134.6851  160.0253 H   0  0  0  0  0  0  0  0  0  0  0  0  # atno 6909 bound_to 6896
  145.8368  139.3171  143.0955 H   0  0  0  0  0  0  0  0  0  0  0  0  # atno 7974 bound_to 7965
  156.0935  140.3253  155.7846 H   0  0  0  0  0  0  0  0  0  0  0  0  # atno 8008 bound_to 7997
  155.4957  140.0565  157.2964 H   0  0  0  0  0  0  0  0  0  0  0  0  # atno 8009 bound_to 7997
  154.4652  140.1985  156.0154 H   0  0  0  0  0  0  0  0  0  0  0  0  # atno 8010 bound_to 7997
  139.4858  144.4462  151.8889 H   0  0  0  0  0  0  0  0  0  0  0  0  # atno 10167 bound_to 10162
  157.5448  131.1096  150.8800 H   0  0  0  0  0  0  0  0  0  0  0  0  # atno 10718 bound_to 10713
  153.1614  135.6796  153.8737 H   0  0  0  0  0  0  0  0  0  0  0  0  # atno 10763 bound_to 10752
  153.8131  135.3140  155.3404 H   0  0  0  0  0  0  0  0  0  0  0  0  # atno 10764 bound_to 10752
  154.7935  135.4821  154.0196 H   0  0  0  0  0  0  0  0  0  0  0  0  # atno 10765 bound_to 10752
  139.8831  134.9407  156.5851 H   0  0  0  0  0  0  0  0  0  0  0  0  # atno 11005 bound_to 11000
  145.9510  140.8908  143.0259 LP  0  0  0  0  0  0  0  0  0  0  0  0  # atno 17320 bound_to 7965
  144.6736  140.1680  143.7417 LP  0  0  0  0  0  0  0  0  0  0  0  0  # atno 17321 bound_to 7965
  140.3916  144.2608  150.5899 LP  0  0  0  0  0  0  0  0  0  0  0  0  # atno 17342 bound_to 10162
  140.5141  143.2283  151.8491 LP  0  0  0  0  0  0  0  0  0  0  0  0  # atno 17343 bound_to 10162
  156.9342  130.5361  149.5279 LP  0  0  0  0  0  0  0  0  0  0  0  0  # atno 17370 bound_to 10713
  156.0526  130.5593  150.9023 LP  0  0  0  0  0  0  0  0  0  0  0  0  # atno 17371 bound_to 10713
  140.7997  133.8515  155.8716 LP  0  0  0  0  0  0  0  0  0  0  0  0  # atno 17394 bound_to 11000
  140.9603  134.1664  157.4659 LP  0  0  0  0  0  0  0  0  0  0  0  0  # atno 17395 bound_to 11000

$$$$
