AV-unprocessed.smi:1851|AV-procd|sdf|7523|dock6
  -GOLD-   22720 9233D 1   1.00000     0.00000
 Structure written by MMmdl.
 39 41  0  0  0  0  0  0  0  0  1 V2000
  151.1706  136.5921  154.4624 O   0  0  0  0  0  0  0  0  0  0  0  0
  150.8263  136.8089  155.6230 C   0  0  0  0  0  0  0  0  0  0  0  0
  150.8929  138.0052  156.2248 N   0  0  0  0  0  0  0  0  0  0  0  0
  151.3882  139.2297  155.6044 C   0  0  0  0  0  0  0  0  0  0  0  0
  151.6842  140.2397  156.6746 C   0  0  0  0  0  0  0  0  0  0  0  0
  152.5825  140.0103  157.6334 N   0  0  0  0  0  0  0  0  0  0  0  0
  152.5410  141.1746  158.3751 C   0  0  0  0  0  0  0  0  0  0  0  0
  153.2636  141.5556  159.5284 C   0  0  0  0  0  0  0  0  0  0  0  0
  153.0537  142.8204  160.1166 C   0  0  0  0  0  0  0  0  0  0  0  0
  152.1200  143.7197  159.5620 C   0  0  0  0  0  0  0  0  0  0  0  0
  151.3879  143.3588  158.4145 C   0  0  0  0  0  0  0  0  0  0  0  0
  151.6008  142.0951  157.8318 C   0  0  0  0  0  0  0  0  0  0  0  0
  151.0625  141.4449  156.7263 N   0  0  0  0  0  0  0  0  0  0  0  0
  150.0538  141.9789  155.8253 C   0  0  0  0  0  0  0  0  0  0  0  0
  148.6711  141.3829  156.1140 C   0  0  0  0  0  0  0  0  0  0  0  0
  147.8558  141.5480  154.9626 O   0  0  0  0  0  0  0  0  0  0  0  0
  146.8010  142.4329  155.0323 C   0  0  0  0  0  0  0  0  0  0  0  0
  146.4038  143.0515  153.8285 C   0  0  0  0  0  0  0  0  0  0  0  0
  145.3367  143.9700  153.8072 C   0  0  0  0  0  0  0  0  0  0  0  0
  144.6518  144.2802  154.9968 C   0  0  0  0  0  0  0  0  0  0  0  0
  143.3444  145.4060  154.9740 Cl  0  0  0  0  0  0  0  0  0  0  0  0
  145.0364  143.6697  156.2051 C   0  0  0  0  0  0  0  0  0  0  0  0
  146.1043  142.7511  156.2260 C   0  0  0  0  0  0  0  0  0  0  0  0
  150.4213  136.0480  156.3076 H   0  0  0  0  0  0  0  0  0  0  0  0
  150.5843  138.0715  157.1839 H   0  0  0  0  0  0  0  0  0  0  0  0
  152.2872  139.0373  155.0159 H   0  0  0  0  0  0  0  0  0  0  0  0
  150.6401  139.6203  154.9150 H   0  0  0  0  0  0  0  0  0  0  0  0
  153.9817  140.8743  159.9602 H   0  0  0  0  0  0  0  0  0  0  0  0
  153.6125  143.1023  160.9969 H   0  0  0  0  0  0  0  0  0  0  0  0
  151.9660  144.6867  160.0179 H   0  0  0  0  0  0  0  0  0  0  0  0
  150.6723  144.0451  157.9871 H   0  0  0  0  0  0  0  0  0  0  0  0
  150.0292  143.0653  155.9082 H   0  0  0  0  0  0  0  0  0  0  0  0
  150.3511  141.7575  154.7997 H   0  0  0  0  0  0  0  0  0  0  0  0
  148.7707  140.3237  156.3574 H   0  0  0  0  0  0  0  0  0  0  0  0
  148.2212  141.8890  156.9696 H   0  0  0  0  0  0  0  0  0  0  0  0
  146.9239  142.8199  152.9106 H   0  0  0  0  0  0  0  0  0  0  0  0
  145.0449  144.4356  152.8772 H   0  0  0  0  0  0  0  0  0  0  0  0
  144.5129  143.9049  157.1201 H   0  0  0  0  0  0  0  0  0  0  0  0
  146.3689  142.3041  157.1720 H   0  0  0  0  0  0  0  0  0  0  0  0
  1  2  2  0  0  0  0
  2  3  1  0  0  0  0
  2 24  1  0  0  0  0
  3  4  1  0  0  0  0
  3 25  1  0  0  0  0
  4  5  1  0  0  0  0
  4 26  1  0  0  0  0
  4 27  1  0  0  0  0
  5 13  1  0  0  0  0
  5  6  2  0  0  0  0
  6  7  1  0  0  0  0
  7 12  2  0  0  0  0
  7  8  1  0  0  0  0
  8  9  2  0  0  0  0
  8 28  1  0  0  0  0
  9 10  1  0  0  0  0
  9 29  1  0  0  0  0
 10 11  2  0  0  0  0
 10 30  1  0  0  0  0
 11 12  1  0  0  0  0
 11 31  1  0  0  0  0
 12 13  1  0  0  0  0
 13 14  1  0  0  0  0
 14 15  1  0  0  0  0
 14 32  1  0  0  0  0
 14 33  1  0  0  0  0
 15 16  1  0  0  0  0
 15 34  1  0  0  0  0
 15 35  1  0  0  0  0
 16 17  1  0  0  0  0
 17 23  1  0  0  0  0
 17 18  2  0  0  0  0
 18 19  1  0  0  0  0
 18 36  1  0  0  0  0
 19 20  2  0  0  0  0
 19 37  1  0  0  0  0
 20 21  1  0  0  0  0
 20 22  1  0  0  0  0
 22 23  2  0  0  0  0
 22 38  1  0  0  0  0
 23 39  1  0  0  0  0
M  END
> <s_m_source_file>
AV-unprocessed.smi

> <i_m_source_file_index>
1851

> <i_lp_mmshare_version>
43012

> <i_f3d_flags>
0

> <s_epik_input>
Tz1bQ0hdW05IXVtDSDJdYyhuMSluKGMoYzEyKVtjSF1bY0hdW2NIXVtjSF0yKVtDSDJdW0NIMl1PYzNbY0hdW2NIXWMoQ2wpW2NIXVtjSF0z

> <s_epik_cmdline>
J2VwaWtfcHl0aG9uJywgJy1waCcsICc3LjAnLCAnLXRuJywgJzgnLCAnLW1hJywgJzIwMCcsICctbWV0YWxfYmluZGluZycsICctaW1hZScsICc8aW5maWxlLm1hZT4nLCAnLW9tYWUnLCAnPG91dGZpbGUubWFlPic=

> <r_lp_tautomer_probability>
1

> <r_epik_Ionization_Penalty>
0.0670201

> <r_epik_Ionization_Penalty_Charging>
0

> <r_epik_Ionization_Penalty_Neutral>
0.0670201

> <r_epik_State_Penalty>
0.0585513

> <r_epik_Charging_Adjusted_Penalty>
0.0585513

> <i_epik_Tot_Q>
0

> <i_epik_Tot_abs_Q>
0

> <r_epik_Metal_State_Penalty>
0.0525581

> <b_epik_Metal_Only>
0

> <s_lp_Force_Field>
OPLS_2005

> <r_lp_Energy>
12.626

> <b_lp_Chiralities_Consistent>
1

> <s_lp_Variant>
AV-unprocessed.smi:1851-1

> <Gold.Version>
5.8.1

> <Gold.Id.Protein>
6NUR|6NUR_protein|mol2

> <Gold.PLP.Fitness>
48.8061

> <Gold.PLP.PLP>
-45.0515

> <Gold.PLP.part.hbond>
-2.0000

> <Gold.PLP.part.metal>
0.0000

> <Gold.PLP.part.buried>
-6.0268

> <Gold.PLP.part.nonpolar>
-37.6249

> <Gold.PLP.part.repulsive>
0.3080

> <Gold.PLP.ligand.clash>
0.0000

> <Gold.PLP.ligand.torsion>
1.1699

> <Gold.PLP.Chemscore.Hbond>
2.0000

> <Gold.PLP.Chemscore.CHOScore>
0.0000

> <Gold.PLP.Chemscore.Metal>
0.0000

> <Gold.Chemscore.Hbonds>
donor molecule, donor type, donor heavy atom, donor atom, acceptor molecule, acceptor atom, score
      P1  H  7997  8009       L1     6  0.99
      P1  H 10752 10763       L1     1  1.00

> <Gold.PLP.Chemscore.Internal.Correction>
0.0944

> <Gold.Rescore>
     Score         DG    S(hbond)    S(metal)    S(lipo)     H(rot)  DE(clash)    DE(int)     intcor
     16.48     -17.69       1.36        0.00     118.51       2.42       0.05       1.16       ----

> <Gold.Chemscore.Fitness>
16.4790

> <Gold.Chemscore.DG>
-17.6913

> <Gold.Chemscore.ZeroCoef>
-5.4800

> <Gold.Chemscore.Hbond>
1.3598

> <Gold.Chemscore.Metal>
0.0000

> <Gold.Chemscore.Lipo>
118.5136

> <Gold.Chemscore.Internal_Hbond>
0.0000

> <Gold.Chemscore.DEClash>
0.0499

> <Gold.Chemscore.DEInternal>
1.1624

> <Gold.Chemscore.Rot>
2.4205

> <Gold.Chemscore.Internal.Correction>
   9.000000E+99

> <Gold.Chemscore.Hbonds>
donor molecule, donor type, donor heavy atom, donor atom, acceptor molecule, acceptor atom, score
      P1  H  7997  8009       L1     6  0.22
      P1  H 10752 10763       L1     1  0.56

> <Gold.Chemscore.Hbond.Weighted>
-4.5417

> <Gold.Chemscore.Metal.Weighted>
-0.0000

> <Gold.Chemscore.Lipo.Weighted>
-13.8661

> <Gold.Chemscore.Internal_Hbond.Weighted>
0.0000

> <Gold.Chemscore.DEClash.Weighted>
0.0499

> <Gold.Chemscore.DEInternal.Weighted>
1.1624

> <Gold.Chemscore.Rot.Weighted>
6.1965

> <Gold.Chemscore.Internal.Correction.Weighted>
   9.000000E+99

> <Gold.Protein.RotatedTorsions>
[ 6907 6896 6895 6894 ] final  167.36 input  -60.11 | X-H torsion
[ 7974 7965 7964 7962 ] final  148.95 input  175.53 | X-H torsion
[ 8008 7997 7996 7995 ] final  168.03 input   59.86 | X-H torsion
[ 10167 10162 10161 10158 ] final  171.15 input  -65.29 | X-H torsion
[ 10718 10713 10712 10709 ] final  150.47 input   66.30 | X-H torsion
[ 10763 10752 10751 10750 ] final   58.92 input  -60.55 | X-H torsion
[ 11005 11000 10999 10996 ] final  119.91 input  -57.11 | X-H torsion

> <Gold.Protein.ActiveResidues>
 VAL166  LYS551  ARG553  GLY616  TRP617  ASP618  TYR619  PRO620  LYS621  CYS622 
 ASP623  PHE694  ASN695  SER759  ASP760  ASP761  ALA762  ILE779  LEU786  VAL792 
 PHE793  MET794  SER795  GLU796  ALA797  LYS798  CYS799  TRP800  GLU811  SER814 

> <Gold.Protein.RotatedAtoms>
  151.8645  133.3463  159.3714 H   0  0  0  0  0  0  0  0  0  0  0  0  # atno 6907 bound_to 6896
  150.7170  134.5173  159.5646 H   0  0  0  0  0  0  0  0  0  0  0  0  # atno 6908 bound_to 6896
  152.2693  134.7950  160.0468 H   0  0  0  0  0  0  0  0  0  0  0  0  # atno 6909 bound_to 6896
  144.8475  139.6218  143.5989 H   0  0  0  0  0  0  0  0  0  0  0  0  # atno 7974 bound_to 7965
  156.1582  140.1601  156.8656 H   0  0  0  0  0  0  0  0  0  0  0  0  # atno 8008 bound_to 7997
  154.5135  140.0795  156.8073 H   0  0  0  0  0  0  0  0  0  0  0  0  # atno 8009 bound_to 7997
  155.3760  140.3402  155.4247 H   0  0  0  0  0  0  0  0  0  0  0  0  # atno 8010 bound_to 7997
  139.5038  144.3518  151.9915 H   0  0  0  0  0  0  0  0  0  0  0  0  # atno 10167 bound_to 10162
  157.2831  131.0839  151.1517 H   0  0  0  0  0  0  0  0  0  0  0  0  # atno 10718 bound_to 10713
  152.9882  135.5590  154.5629 H   0  0  0  0  0  0  0  0  0  0  0  0  # atno 10763 bound_to 10752
  154.5045  135.2799  155.1396 H   0  0  0  0  0  0  0  0  0  0  0  0  # atno 10764 bound_to 10752
  154.2813  135.6344  153.5401 H   0  0  0  0  0  0  0  0  0  0  0  0  # atno 10765 bound_to 10752
  139.9164  134.9631  156.7727 H   0  0  0  0  0  0  0  0  0  0  0  0  # atno 11005 bound_to 11000
  146.2757  139.6746  142.9265 LP  0  0  0  0  0  0  0  0  0  0  0  0  # atno 17320 bound_to 7965
  145.4567  141.0431  143.2774 LP  0  0  0  0  0  0  0  0  0  0  0  0  # atno 17321 bound_to 7965
  140.2955  144.3706  150.6076 LP  0  0  0  0  0  0  0  0  0  0  0  0  # atno 17342 bound_to 10162
  140.5914  143.2168  151.7246 LP  0  0  0  0  0  0  0  0  0  0  0  0  # atno 17343 bound_to 10162
  157.2943  130.6811  149.6130 LP  0  0  0  0  0  0  0  0  0  0  0  0  # atno 17370 bound_to 10713
  155.9665  130.4411  150.5327 LP  0  0  0  0  0  0  0  0  0  0  0  0  # atno 17371 bound_to 10713
  140.6608  133.9647  155.7804 LP  0  0  0  0  0  0  0  0  0  0  0  0  # atno 17394 bound_to 11000
  141.0645  134.0298  157.3613 LP  0  0  0  0  0  0  0  0  0  0  0  0  # atno 17395 bound_to 11000

$$$$
