AV-unprocessed.smi:1942|AV-procd|sdf|7850|dock5
  -GOLD-   22720 9593D 1   1.00000     0.00000
 Structure written by MMmdl.
 36 38  0  0  0  0  0  0  0  0  2 V2000
  148.3548  138.8434  155.7530 O   0  0  0  0  0  0  0  0  0  0  0  0
  147.7175  139.8138  155.3435 C   0  0  0  0  0  0  0  0  0  0  0  0
  146.2505  139.8453  155.3551 C   0  0  0  0  0  0  0  0  0  0  0  0
  145.5640  140.9255  154.9323 C   0  0  0  0  0  0  0  0  0  0  0  0
  146.2646  142.0932  154.4524 C   0  0  0  0  0  0  0  0  0  0  0  0
  147.6064  142.0632  154.4299 C   0  0  0  0  0  0  0  0  0  0  0  0
  148.3328  140.9355  154.8588 N   0  0  0  0  0  0  0  0  0  0  0  0
  149.7979  141.0198  154.7815 C   0  0  0  0  0  0  0  0  0  0  0  0
  150.4547  141.3689  156.0845 C   0  0  0  0  0  0  0  0  0  0  0  0
  150.3077  142.5293  156.7875 N   0  3  0  0  0  0  0  0  0  0  0  0
  151.0707  142.4789  157.9538 C   0  0  0  0  0  0  0  0  0  0  0  0
  151.2413  143.4124  158.9711 C   0  0  0  0  0  0  0  0  0  0  0  0
  152.0961  143.0460  160.0315 C   0  0  0  0  0  0  0  0  0  0  0  0
  152.3551  144.1522  161.3295 Cl  0  0  0  0  0  0  0  0  0  0  0  0
  152.7427  141.7928  160.0500 C   0  0  0  0  0  0  0  0  0  0  0  0
  152.5624  140.8548  159.0123 C   0  0  0  0  0  0  0  0  0  0  0  0
  151.7138  141.2248  157.9690 C   0  0  0  0  0  0  0  0  0  0  0  0
  151.3033  140.5742  156.7987 N   0  0  0  0  0  0  0  0  0  0  0  0
  151.7977  139.2185  156.5085 C   0  0  0  0  0  0  0  0  0  0  0  0
  152.1471  139.0161  155.0243 C   0  0  0  0  0  0  0  0  0  0  0  0
  153.3978  139.5908  154.7091 O   0  0  0  0  0  0  0  0  0  0  0  0
  145.7093  138.9807  155.7107 H   0  0  0  0  0  0  0  0  0  0  0  0
  144.4840  140.9180  154.9518 H   0  0  0  0  0  0  0  0  0  0  0  0
  145.7228  142.9673  154.1217 H   0  0  0  0  0  0  0  0  0  0  0  0
  148.2068  142.8948  154.0894 H   0  0  0  0  0  0  0  0  0  0  0  0
  150.2259  140.0847  154.4170 H   0  0  0  0  0  0  0  0  0  0  0  0
  150.0782  141.7636  154.0348 H   0  0  0  0  0  0  0  0  0  0  0  0
  150.7468  144.3727  158.9560 H   0  0  0  0  0  0  0  0  0  0  0  0
  153.3923  141.5441  160.8767 H   0  0  0  0  0  0  0  0  0  0  0  0
  153.0688  139.9014  159.0355 H   0  0  0  0  0  0  0  0  0  0  0  0
  152.6525  138.9990  157.1481 H   0  0  0  0  0  0  0  0  0  0  0  0
  151.0157  138.5171  156.8011 H   0  0  0  0  0  0  0  0  0  0  0  0
  152.1805  137.9522  154.7889 H   0  0  0  0  0  0  0  0  0  0  0  0
  151.3834  139.4615  154.3862 H   0  0  0  0  0  0  0  0  0  0  0  0
  153.6695  139.2729  153.8615 H   0  0  0  0  0  0  0  0  0  0  0  0
  149.7234  143.2992  156.4875 H   0  0  0  0  0  0  0  0  0  0  0  0
  1  2  2  0  0  0  0
  2  7  1  0  0  0  0
  2  3  1  0  0  0  0
  3  4  2  0  0  0  0
  3 22  1  0  0  0  0
  4  5  1  0  0  0  0
  4 23  1  0  0  0  0
  5  6  2  0  0  0  0
  5 24  1  0  0  0  0
  6  7  1  0  0  0  0
  6 25  1  0  0  0  0
  7  8  1  0  0  0  0
  8  9  1  0  0  0  0
  8 26  1  0  0  0  0
  8 27  1  0  0  0  0
  9 18  1  0  0  0  0
  9 10  2  0  0  0  0
 10 11  1  0  0  0  0
 10 36  1  0  0  0  0
 11 17  2  0  0  0  0
 11 12  1  0  0  0  0
 12 13  2  0  0  0  0
 12 28  1  0  0  0  0
 13 14  1  0  0  0  0
 13 15  1  0  0  0  0
 15 16  2  0  0  0  0
 15 29  1  0  0  0  0
 16 17  1  0  0  0  0
 16 30  1  0  0  0  0
 17 18  1  0  0  0  0
 18 19  1  0  0  0  0
 19 20  1  0  0  0  0
 19 31  1  0  0  0  0
 19 32  1  0  0  0  0
 20 21  1  0  0  0  0
 20 33  1  0  0  0  0
 20 34  1  0  0  0  0
 21 35  1  0  0  0  0
M  CHG  1  10   1
M  END
> <s_m_source_file>
AV-unprocessed.smi

> <i_m_source_file_index>
1942

> <i_lp_mmshare_version>
43012

> <i_f3d_flags>
0

> <s_epik_input>
Tz1jMVtjSF1bY0hdW2NIXVtjSF1uMVtDSDJdYyhuMiluKFtDSDJdW0NIMl1bT0hdKWMoYzIzKVtjSF1bY0hdYyhDbClbY0hdMw==

> <s_epik_cmdline>
J2VwaWtfcHl0aG9uJywgJy1waCcsICc3LjAnLCAnLXRuJywgJzgnLCAnLW1hJywgJzIwMCcsICctbWV0YWxfYmluZGluZycsICctaW1hZScsICc8aW5maWxlLm1hZT4nLCAnLW9tYWUnLCAnPG91dGZpbGUubWFlPic=

> <r_lp_tautomer_probability>
1

> <r_epik_Ionization_Penalty>
1.62531

> <r_epik_Ionization_Penalty_Charging>
1.62531

> <r_epik_Ionization_Penalty_Neutral>
5.76694e-08

> <r_epik_State_Penalty>
1.72539

> <r_epik_Charging_Adjusted_Penalty>
3.3507

> <i_epik_Tot_Q>
1

> <i_epik_Tot_abs_Q>
1

> <r_epik_Metal_State_Penalty>
5.78505

> <b_epik_Metal_Only>
0

> <s_lp_Force_Field>
OPLS_2005

> <r_lp_Energy>
19.9382

> <b_lp_Chiralities_Consistent>
1

> <s_lp_Variant>
AV-unprocessed.smi:1942-2

> <Gold.Version>
5.8.1

> <Gold.Id.Protein>
6NUR|6NUR_protein|mol2

> <Gold.PLP.Fitness>
52.0519

> <Gold.PLP.PLP>
-41.8689

> <Gold.PLP.part.hbond>
-3.0000

> <Gold.PLP.part.metal>
0.0000

> <Gold.PLP.part.buried>
-1.6858

> <Gold.PLP.part.nonpolar>
-36.8207

> <Gold.PLP.part.repulsive>
0.0547

> <Gold.PLP.ligand.clash>
0.0000

> <Gold.PLP.ligand.torsion>
0.6630

> <Gold.PLP.Chemscore.Hbond>
3.0000

> <Gold.PLP.Chemscore.CHOScore>
0.8334

> <Gold.PLP.Chemscore.Metal>
0.0000

> <Gold.Chemscore.Hbonds>
donor molecule, donor type, donor heavy atom, donor atom, acceptor molecule, acceptor atom, score
      L1  H    10    36       P1  8028  2.00
      P1  H  7997  8009       L1    21  1.00
      L1  C     6    25       P1  8028  0.83

> <Gold.PLP.Chemscore.Internal.Correction>
0.0087

> <Gold.Rescore>
     Score         DG    S(hbond)    S(metal)    S(lipo)     H(rot)  DE(clash)    DE(int)     intcor
     17.26     -18.57       1.99        0.00     106.07       2.33       0.68       0.63       ----

> <Gold.Chemscore.Fitness>
17.2569

> <Gold.Chemscore.DG>
-18.5671

> <Gold.Chemscore.ZeroCoef>
-5.4800

> <Gold.Chemscore.Hbond>
1.9905

> <Gold.Chemscore.Metal>
0.0000

> <Gold.Chemscore.Lipo>
106.0695

> <Gold.Chemscore.Internal_Hbond>
0.0000

> <Gold.Chemscore.DEClash>
0.6817

> <Gold.Chemscore.DEInternal>
0.6285

> <Gold.Chemscore.Rot>
2.3326

> <Gold.Chemscore.Internal.Correction>
   9.000000E+99

> <Gold.Chemscore.Hbonds>
donor molecule, donor type, donor heavy atom, donor atom, acceptor molecule, acceptor atom, score
      L1  H    10    36       P1  8028  1.00
      P1  H  7997  8009       L1    21  0.99

> <Gold.Chemscore.Hbond.Weighted>
-6.6484

> <Gold.Chemscore.Metal.Weighted>
-0.0000

> <Gold.Chemscore.Lipo.Weighted>
-12.4101

> <Gold.Chemscore.Internal_Hbond.Weighted>
0.0000

> <Gold.Chemscore.DEClash.Weighted>
0.6817

> <Gold.Chemscore.DEInternal.Weighted>
0.6285

> <Gold.Chemscore.Rot.Weighted>
5.9714

> <Gold.Chemscore.Internal.Correction.Weighted>
   9.000000E+99

> <Gold.Protein.RotatedTorsions>
[ 6907 6896 6895 6894 ] final  -73.47 input  -60.11 | X-H torsion
[ 7974 7965 7964 7962 ] final  136.15 input  175.53 | X-H torsion
[ 8008 7997 7996 7995 ] final -132.14 input   59.86 | X-H torsion
[ 10167 10162 10161 10158 ] final -122.43 input  -65.29 | X-H torsion
[ 10718 10713 10712 10709 ] final   77.97 input   66.30 | X-H torsion
[ 10763 10752 10751 10750 ] final  100.01 input  -60.55 | X-H torsion
[ 11005 11000 10999 10996 ] final  153.79 input  -57.11 | X-H torsion

> <Gold.Protein.ActiveResidues>
 VAL166  LYS551  ARG553  GLY616  TRP617  ASP618  TYR619  PRO620  LYS621  CYS622 
 ASP623  PHE694  ASN695  SER759  ASP760  ASP761  ALA762  ILE779  LEU786  VAL792 
 PHE793  MET794  SER795  GLU796  ALA797  LYS798  CYS799  TRP800  GLU811  SER814 

> <Gold.Protein.RotatedAtoms>
  150.7129  134.5011  159.5561 H   0  0  0  0  0  0  0  0  0  0  0  0  # atno 6907 bound_to 6896
  152.2608  134.8033  160.0440 H   0  0  0  0  0  0  0  0  0  0  0  0  # atno 6908 bound_to 6896
  151.8747  133.3447  159.3783 H   0  0  0  0  0  0  0  0  0  0  0  0  # atno 6909 bound_to 6896
  144.9593  139.4728  143.5487 H   0  0  0  0  0  0  0  0  0  0  0  0  # atno 7974 bound_to 7965
  155.3240  140.0463  157.3040 H   0  0  0  0  0  0  0  0  0  0  0  0  # atno 8008 bound_to 7997
  154.5364  140.2274  155.8681 H   0  0  0  0  0  0  0  0  0  0  0  0  # atno 8009 bound_to 7997
  156.1839  140.3067  155.9207 H   0  0  0  0  0  0  0  0  0  0  0  0  # atno 8010 bound_to 7997
  140.0143  143.5409  152.2249 H   0  0  0  0  0  0  0  0  0  0  0  0  # atno 10167 bound_to 10162
  157.6729  130.9846  150.1718 H   0  0  0  0  0  0  0  0  0  0  0  0  # atno 10718 bound_to 10713
  153.3086  135.4093  155.1316 H   0  0  0  0  0  0  0  0  0  0  0  0  # atno 10763 bound_to 10752
  154.8569  135.3559  154.5754 H   0  0  0  0  0  0  0  0  0  0  0  0  # atno 10764 bound_to 10752
  153.6182  135.7065  153.5379 H   0  0  0  0  0  0  0  0  0  0  0  0  # atno 10765 bound_to 10752
  140.1429  134.8726  157.2355 H   0  0  0  0  0  0  0  0  0  0  0  0  # atno 11005 bound_to 11000
  146.3348  139.8732  142.8836 LP  0  0  0  0  0  0  0  0  0  0  0  0  # atno 17320 bound_to 7965
  145.2724  141.0113  143.3764 LP  0  0  0  0  0  0  0  0  0  0  0  0  # atno 17321 bound_to 7965
  139.6183  144.7624  151.2797 LP  0  0  0  0  0  0  0  0  0  0  0  0  # atno 17342 bound_to 10162
  140.7368  143.6695  150.8094 LP  0  0  0  0  0  0  0  0  0  0  0  0  # atno 17343 bound_to 10162
  156.2471  130.3696  149.8273 LP  0  0  0  0  0  0  0  0  0  0  0  0  # atno 17370 bound_to 10713
  156.6057  130.8565  151.3442 LP  0  0  0  0  0  0  0  0  0  0  0  0  # atno 17371 bound_to 10713
  140.2699  134.3472  155.7377 LP  0  0  0  0  0  0  0  0  0  0  0  0  # atno 17394 bound_to 11000
  141.2188  133.7417  156.9207 LP  0  0  0  0  0  0  0  0  0  0  0  0  # atno 17395 bound_to 11000

$$$$
