AV-unprocessed.smi:101|AV-procd|sdf|939|dock7
  -GOLD-   2262017463D 1   1.00000     0.00000
 Structure written by MMmdl.
 43 45  0  0  0  0  0  0  0  0  2 V2000
  149.1962  131.5531  153.9243 C   0  0  0  0  0  0  0  0  0  0  0  0
  149.6387  132.6921  154.8260 C   0  0  0  0  0  0  0  0  0  0  0  0
  149.7987  133.9537  154.3686 C   0  0  0  0  0  0  0  0  0  0  0  0
  150.2007  134.9873  155.1963 N   0  0  0  0  0  0  0  0  0  0  0  0
  150.3771  136.3895  154.6548 C   0  0  2  0  0  0  0  0  0  0  0  0
  151.5814  136.9047  155.1251 O   0  0  0  0  0  0  0  0  0  0  0  0
  151.4711  138.3156  155.1784 C   0  0  2  0  0  0  0  0  0  0  0  0
  152.5459  138.8736  156.1191 C   0  0  0  0  0  0  0  0  0  0  0  0
  152.0362  140.0032  156.8089 O   0  0  0  0  0  0  0  0  0  0  0  0
  152.5285  140.3321  158.0187 C   0  0  0  0  0  0  0  0  0  0  0  0
  153.3612  139.6534  158.6237 O   0  0  0  0  0  0  0  0  0  0  0  0
  151.9640  141.6068  158.5493 C   0  0  0  0  0  0  0  0  0  0  0  0
  152.5127  142.1707  159.7249 C   0  0  0  0  0  0  0  0  0  0  0  0
  152.0036  143.3750  160.2484 C   0  0  0  0  0  0  0  0  0  0  0  0
  150.9386  144.0300  159.6031 C   0  0  0  0  0  0  0  0  0  0  0  0
  150.3828  143.4786  158.4338 C   0  0  0  0  0  0  0  0  0  0  0  0
  150.8907  142.2742  157.9086 C   0  0  0  0  0  0  0  0  0  0  0  0
  150.0315  138.5541  155.6500 C   0  0  1  0  0  0  0  0  0  0  0  0
  149.5400  139.7685  155.1167 O   0  0  0  0  0  0  0  0  0  0  0  0
  149.2563  137.3643  155.0838 C   0  0  2  0  0  0  0  0  0  0  0  0
  148.3727  136.8405  156.0592 O   0  0  0  0  0  0  0  0  0  0  0  0
  150.4890  134.7256  156.5600 C   0  0  0  0  0  0  0  0  0  0  0  0
  150.8892  135.6597  157.2552 O   0  0  0  0  0  0  0  0  0  0  0  0
  150.3234  133.4575  157.0329 N   0  5  0  0  0  0  0  0  0  0  0  0
  149.9080  132.4242  156.2444 C   0  0  0  0  0  0  0  0  0  0  0  0
  149.7576  131.2853  156.6852 O   0  0  0  0  0  0  0  0  0  0  0  0
  149.0364  131.8962  152.9019 H   0  0  0  0  0  0  0  0  0  0  0  0
  148.2615  131.1234  154.2862 H   0  0  0  0  0  0  0  0  0  0  0  0
  149.9521  130.7676  153.9033 H   0  0  0  0  0  0  0  0  0  0  0  0
  149.6126  134.1546  153.3239 H   0  0  0  0  0  0  0  0  0  0  0  0
  150.4641  136.2963  153.5707 H   0  0  0  0  0  0  0  0  0  0  0  0
  151.6165  138.6912  154.1632 H   0  0  0  0  0  0  0  0  0  0  0  0
  152.8703  138.1051  156.8225 H   0  0  0  0  0  0  0  0  0  0  0  0
  153.4201  139.1782  155.5427 H   0  0  0  0  0  0  0  0  0  0  0  0
  153.3311  141.6862  160.2376 H   0  0  0  0  0  0  0  0  0  0  0  0
  152.4316  143.7962  161.1462 H   0  0  0  0  0  0  0  0  0  0  0  0
  150.5486  144.9539  160.0045 H   0  0  0  0  0  0  0  0  0  0  0  0
  149.5650  143.9802  157.9381 H   0  0  0  0  0  0  0  0  0  0  0  0
  150.4406  141.8777  157.0102 H   0  0  0  0  0  0  0  0  0  0  0  0
  149.9864  138.5699  156.7403 H   0  0  0  0  0  0  0  0  0  0  0  0
  149.0965  140.2399  155.8052 H   0  0  0  0  0  0  0  0  0  0  0  0
  148.6870  137.6281  154.1914 H   0  0  0  0  0  0  0  0  0  0  0  0
  147.5282  137.2498  155.9436 H   0  0  0  0  0  0  0  0  0  0  0  0
  1  2  1  0  0  0  0
  1 27  1  0  0  0  0
  1 28  1  0  0  0  0
  1 29  1  0  0  0  0
  2 25  1  0  0  0  0
  2  3  2  0  0  0  0
  3  4  1  0  0  0  0
  3 30  1  0  0  0  0
  4  5  1  0  0  0  0
  4 22  1  0  0  0  0
  5 20  1  0  0  0  0
  5  6  1  0  0  0  0
  5 31  1  0  0  0  0
  6  7  1  0  0  0  0
  7  8  1  0  0  0  0
  7 18  1  0  0  0  0
  7 32  1  0  0  0  0
  8  9  1  0  0  0  0
  8 33  1  0  0  0  0
  8 34  1  0  0  0  0
  9 10  1  0  0  0  0
 10 11  2  0  0  0  0
 10 12  1  0  0  0  0
 12 17  1  0  0  0  0
 12 13  2  0  0  0  0
 13 14  1  0  0  0  0
 13 35  1  0  0  0  0
 14 15  2  0  0  0  0
 14 36  1  0  0  0  0
 15 16  1  0  0  0  0
 15 37  1  0  0  0  0
 16 17  2  0  0  0  0
 16 38  1  0  0  0  0
 17 39  1  0  0  0  0
 18 19  1  0  0  0  0
 18 20  1  0  0  0  0
 18 40  1  0  0  0  0
 19 41  1  0  0  0  0
 20 21  1  0  0  0  0
 20 42  1  0  0  0  0
 21 43  1  0  0  0  0
 22 23  2  0  0  0  0
 22 24  1  0  0  0  0
 24 25  1  0  0  0  0
 25 26  2  0  0  0  0
M  CHG  1  24  -1
M  END
> <s_m_source_file>
AV-unprocessed.smi

> <i_m_source_file_index>
101

> <i_lp_mmshare_version>
43012

> <i_f3d_flags>
0

> <s_epik_input>
Tz1jMVtuSF1jKD1PKW4oW2NIXWMxW0NIM10pW0NAQEhdMk9bQ0BIXShbQ0BASF0oW09IXSlbQ0BIXTJbT0hdKVtDSDJdT0MoPU8pYzNbY0hdW2NIXVtjSF1bY0hdW2NIXTM=

> <s_epik_cmdline>
J2VwaWtfcHl0aG9uJywgJy1waCcsICc3LjAnLCAnLXRuJywgJzgnLCAnLW1hJywgJzIwMCcsICctbWV0YWxfYmluZGluZycsICctaW1hZScsICc8aW5maWxlLm1hZT4nLCAnLW9tYWUnLCAnPG91dGZpbGUubWFlPic=

> <r_lp_tautomer_probability>
0.999537

> <r_epik_Ionization_Penalty>
3.21006

> <r_epik_Ionization_Penalty_Charging>
5.75142e-08

> <r_epik_Ionization_Penalty_Neutral>
3.21006

> <r_epik_State_Penalty>
3.20925

> <r_epik_Charging_Adjusted_Penalty>
3.20925

> <i_epik_Tot_Q>
-1

> <i_epik_Tot_abs_Q>
1

> <r_epik_Metal_State_Penalty>
0.119957

> <b_epik_Metal_Only>
1

> <s_epik_Chemistry_Notes>
This compound has an ester and may undergo hydrolysis at high or low pH. This compound contains an acetal/aminal-like group ( X-CH(R)-Y where X, Y are N, S, or O) that may be acid/base labile, releasing an aldehyde.

> <s_lp_Force_Field>
OPLS_2005

> <r_lp_Energy>
44.2535

> <b_lp_Chiralities_Consistent>
1

> <s_lp_Variant>
AV-unprocessed.smi:101-27

> <Gold.Version>
5.8.1

> <Gold.Id.Protein>
6NUR|6NUR_protein|mol2

> <Gold.PLP.Fitness>
47.4371

> <Gold.PLP.PLP>
-37.8151

> <Gold.PLP.part.hbond>
-4.3639

> <Gold.PLP.part.metal>
0.0000

> <Gold.PLP.part.buried>
-2.6935

> <Gold.PLP.part.nonpolar>
-31.4550

> <Gold.PLP.part.repulsive>
0.0996

> <Gold.PLP.ligand.clash>
0.0000

> <Gold.PLP.ligand.torsion>
1.0048

> <Gold.PLP.Chemscore.Hbond>
3.7040

> <Gold.PLP.Chemscore.CHOScore>
0.0897

> <Gold.PLP.Chemscore.Metal>
0.0000

> <Gold.Chemscore.Hbonds>
donor molecule, donor type, donor heavy atom, donor atom, acceptor molecule, acceptor atom, score
      P1  H  6896  6909       L1    24  0.74
      P1  H  7997  8008       L1    11  0.55
      P1  H 10752 10764       L1     6  1.00
      L1  C     3    30       P1  7948  0.02

> <Gold.PLP.Chemscore.Internal.Correction>
0.2507

> <Gold.Rescore>
     Score         DG    S(hbond)    S(metal)    S(lipo)     H(rot)  DE(clash)    DE(int)     intcor
      8.44     -14.04       1.58        0.00      99.56       3.27       1.66       3.94       ----

> <Gold.Chemscore.Fitness>
8.4419

> <Gold.Chemscore.DG>
-14.0414

> <Gold.Chemscore.ZeroCoef>
-5.4800

> <Gold.Chemscore.Hbond>
1.5787

> <Gold.Chemscore.Metal>
0.0000

> <Gold.Chemscore.Lipo>
99.5589

> <Gold.Chemscore.Internal_Hbond>
0.0000

> <Gold.Chemscore.DEClash>
1.6642

> <Gold.Chemscore.DEInternal>
3.9354

> <Gold.Chemscore.Rot>
3.2656

> <Gold.Chemscore.Internal.Correction>
   9.000000E+99

> <Gold.Chemscore.Hbonds>
donor molecule, donor type, donor heavy atom, donor atom, acceptor molecule, acceptor atom, score
      P1  H  6896  6909       L1    24  0.16
      P1  H  7997  8008       L1    11  0.08
      P1  H 10752 10764       L1     6  0.54

> <Gold.Chemscore.Hbond.Weighted>
-5.2729

> <Gold.Chemscore.Metal.Weighted>
-0.0000

> <Gold.Chemscore.Lipo.Weighted>
-11.6484

> <Gold.Chemscore.Internal_Hbond.Weighted>
0.0000

> <Gold.Chemscore.DEClash.Weighted>
1.6642

> <Gold.Chemscore.DEInternal.Weighted>
3.9354

> <Gold.Chemscore.Rot.Weighted>
8.3598

> <Gold.Chemscore.Internal.Correction.Weighted>
   9.000000E+99

> <Gold.Protein.RotatedTorsions>
[ 6907 6896 6895 6894 ] final  -17.34 input  -60.11 | X-H torsion
[ 7974 7965 7964 7962 ] final  176.92 input  175.53 | X-H torsion
[ 8008 7997 7996 7995 ] final -114.26 input   59.86 | X-H torsion
[ 10167 10162 10161 10158 ] final  131.34 input  -65.29 | X-H torsion
[ 10718 10713 10712 10709 ] final  161.24 input   66.30 | X-H torsion
[ 10763 10752 10751 10750 ] final  -58.11 input  -60.55 | X-H torsion
[ 11005 11000 10999 10996 ] final  -32.30 input  -57.11 | X-H torsion

> <Gold.Protein.ActiveResidues>
 VAL166  LYS551  ARG553  GLY616  TRP617  ASP618  TYR619  PRO620  LYS621  CYS622 
 ASP623  PHE694  ASN695  SER759  ASP760  ASP761  ALA762  ILE779  LEU786  VAL792 
 PHE793  MET794  SER795  GLU796  ALA797  LYS798  CYS799  TRP800  GLU811  SER814 

> <Gold.Protein.RotatedAtoms>
  151.2949  135.0752  159.9217 H   0  0  0  0  0  0  0  0  0  0  0  0  # atno 6907 bound_to 6896
  152.5309  133.9893  159.7854 H   0  0  0  0  0  0  0  0  0  0  0  0  # atno 6908 bound_to 6896
  151.0170  133.5861  159.2706 H   0  0  0  0  0  0  0  0  0  0  0  0  # atno 6909 bound_to 6896
  144.7177  140.0169  143.6440 H   0  0  0  0  0  0  0  0  0  0  0  0  # atno 7974 bound_to 7965
  155.0335  140.0393  157.2483 H   0  0  0  0  0  0  0  0  0  0  0  0  # atno 8008 bound_to 7997
  154.7277  140.2724  155.6461 H   0  0  0  0  0  0  0  0  0  0  0  0  # atno 8009 bound_to 7997
  156.2833  140.2690  156.1967 H   0  0  0  0  0  0  0  0  0  0  0  0  # atno 8010 bound_to 7997
  139.5388  144.6710  151.4694 H   0  0  0  0  0  0  0  0  0  0  0  0  # atno 10167 bound_to 10162
  157.1393  131.0536  151.2334 H   0  0  0  0  0  0  0  0  0  0  0  0  # atno 10718 bound_to 10713
  154.2330  135.6357  153.5181 H   0  0  0  0  0  0  0  0  0  0  0  0  # atno 10763 bound_to 10752
  152.9945  135.5524  154.5992 H   0  0  0  0  0  0  0  0  0  0  0  0  # atno 10764 bound_to 10752
  154.5480  135.2899  155.1009 H   0  0  0  0  0  0  0  0  0  0  0  0  # atno 10765 bound_to 10752
  140.9541  133.7203  156.1265 H   0  0  0  0  0  0  0  0  0  0  0  0  # atno 11005 bound_to 11000
  146.0212  139.3253  143.0811 LP  0  0  0  0  0  0  0  0  0  0  0  0  # atno 17320 bound_to 7965
  145.8566  140.9499  143.0722 LP  0  0  0  0  0  0  0  0  0  0  0  0  # atno 17321 bound_to 7965
  140.6608  143.8502  150.6886 LP  0  0  0  0  0  0  0  0  0  0  0  0  # atno 17342 bound_to 10162
  140.1896  143.4047  152.1873 LP  0  0  0  0  0  0  0  0  0  0  0  0  # atno 17343 bound_to 10162
  157.4321  130.7496  149.6999 LP  0  0  0  0  0  0  0  0  0  0  0  0  # atno 17370 bound_to 10713
  155.9792  130.4043  150.3604 LP  0  0  0  0  0  0  0  0  0  0  0  0  # atno 17371 bound_to 10713
  140.7561  134.3991  157.5533 LP  0  0  0  0  0  0  0  0  0  0  0  0  # atno 17394 bound_to 11000
  139.8856  134.8931  156.2631 LP  0  0  0  0  0  0  0  0  0  0  0  0  # atno 17395 bound_to 11000

$$$$
