AV-unprocessed.smi:1006|AV-procd|sdf|4393|dock6
  -GOLD-   22720 2323D 1   1.00000     0.00000
 Structure written by MMmdl.
 46 48  0  0  0  0  0  0  0  0  2 V2000
  142.3956  137.3446  153.6335 C   0  0  0  0  0  0  0  0  0  0  0  0
  143.8778  137.2456  153.9262 C   0  0  0  0  0  0  0  0  0  0  0  0
  144.4530  136.0767  154.4661 C   0  0  0  0  0  0  0  0  0  0  0  0
  145.8393  136.1011  154.6978 C   0  0  0  0  0  0  0  0  0  0  0  0
  146.5002  134.9943  155.2244 N   0  0  0  0  0  0  0  0  0  0  0  0
  146.5784  137.1915  154.4195 N   0  0  0  0  0  0  0  0  0  0  0  0
  145.9701  138.2710  153.9093 C   0  0  0  0  0  0  0  0  0  0  0  0
  146.9332  139.7266  153.5291 S   0  0  0  0  0  0  0  0  0  0  0  0
  148.0139  139.8528  154.9864 C   0  0  0  0  0  0  0  0  0  0  0  0
  149.3988  140.4448  154.6658 C   0  0  1  0  0  0  0  0  0  0  0  0
  149.3696  141.0348  153.3823 O   0  0  0  0  0  0  0  0  0  0  0  0
  149.8502  141.5247  155.6715 C   0  0  0  0  0  0  0  0  0  0  0  0
  150.8960  141.0598  156.5660 N   0  0  0  0  0  0  0  0  0  0  0  0
  151.5961  139.9137  156.4657 C   0  0  0  0  0  0  0  0  0  0  0  0
  152.5024  139.6693  157.4079 N   0  0  0  0  0  0  0  0  0  0  0  0
  152.3767  140.7879  158.2137 C   0  0  0  0  0  0  0  0  0  0  0  0
  153.0504  141.1425  159.4031 C   0  0  0  0  0  0  0  0  0  0  0  0
  152.7472  142.3470  160.0772 C   0  0  0  0  0  0  0  0  0  0  0  0
  153.4918  142.6847  161.3567 C   0  0  0  0  0  0  0  0  0  0  0  0
  151.7580  143.2213  159.5596 C   0  0  0  0  0  0  0  0  0  0  0  0
  151.4102  144.5178  160.2691 C   0  0  0  0  0  0  0  0  0  0  0  0
  151.0817  142.8866  158.3681 C   0  0  0  0  0  0  0  0  0  0  0  0
  151.3865  141.6813  157.7106 C   0  0  0  0  0  0  0  0  0  0  0  0
  144.6544  138.3258  153.6581 N   0  3  0  0  0  0  0  0  0  0  0  0
  141.9832  136.3646  153.3921 H   0  0  0  0  0  0  0  0  0  0  0  0
  142.2071  138.0082  152.7886 H   0  0  0  0  0  0  0  0  0  0  0  0
  141.8659  137.7355  154.5026 H   0  0  0  0  0  0  0  0  0  0  0  0
  143.8557  135.2040  154.6892 H   0  0  0  0  0  0  0  0  0  0  0  0
  146.0090  134.1427  155.4558 H   0  0  0  0  0  0  0  0  0  0  0  0
  147.5017  134.9946  155.3572 H   0  0  0  0  0  0  0  0  0  0  0  0
  147.5174  140.4551  155.7481 H   0  0  0  0  0  0  0  0  0  0  0  0
  148.1279  138.8464  155.3880 H   0  0  0  0  0  0  0  0  0  0  0  0
  150.1369  139.6420  154.6495 H   0  0  0  0  0  0  0  0  0  0  0  0
  149.2174  140.3555  152.7428 H   0  0  0  0  0  0  0  0  0  0  0  0
  150.2177  142.4045  155.1413 H   0  0  0  0  0  0  0  0  0  0  0  0
  149.0059  141.8582  156.2764 H   0  0  0  0  0  0  0  0  0  0  0  0
  151.4259  139.2162  155.6584 H   0  0  0  0  0  0  0  0  0  0  0  0
  153.8022  140.4752  159.7981 H   0  0  0  0  0  0  0  0  0  0  0  0
  153.9987  143.6454  161.2631 H   0  0  0  0  0  0  0  0  0  0  0  0
  154.2456  141.9318  161.5899 H   0  0  0  0  0  0  0  0  0  0  0  0
  152.8001  142.7374  162.1977 H   0  0  0  0  0  0  0  0  0  0  0  0
  150.5913  145.0370  159.7700 H   0  0  0  0  0  0  0  0  0  0  0  0
  152.2716  145.1857  160.2850 H   0  0  0  0  0  0  0  0  0  0  0  0
  151.1037  144.3227  161.2970 H   0  0  0  0  0  0  0  0  0  0  0  0
  150.3260  143.5435  157.9635 H   0  0  0  0  0  0  0  0  0  0  0  0
  144.2339  139.1694  153.2680 H   0  0  0  0  0  0  0  0  0  0  0  0
  1  2  1  0  0  0  0
  1 25  1  0  0  0  0
  1 26  1  0  0  0  0
  1 27  1  0  0  0  0
  2 24  1  0  0  0  0
  2  3  2  0  0  0  0
  3  4  1  0  0  0  0
  3 28  1  0  0  0  0
  4  5  1  0  0  0  0
  4  6  2  0  0  0  0
  5 29  1  0  0  0  0
  5 30  1  0  0  0  0
  6  7  1  0  0  0  0
  7  8  1  0  0  0  0
  7 24  2  0  0  0  0
  8  9  1  0  0  0  0
  9 10  1  0  0  0  0
  9 31  1  0  0  0  0
  9 32  1  0  0  0  0
 10 11  1  0  0  0  0
 10 12  1  0  0  0  0
 10 33  1  0  0  0  0
 11 34  1  0  0  0  0
 12 13  1  0  0  0  0
 12 35  1  0  0  0  0
 12 36  1  0  0  0  0
 13 23  1  0  0  0  0
 13 14  1  0  0  0  0
 14 15  2  0  0  0  0
 14 37  1  0  0  0  0
 15 16  1  0  0  0  0
 16 23  2  0  0  0  0
 16 17  1  0  0  0  0
 17 18  2  0  0  0  0
 17 38  1  0  0  0  0
 18 19  1  0  0  0  0
 18 20  1  0  0  0  0
 19 39  1  0  0  0  0
 19 40  1  0  0  0  0
 19 41  1  0  0  0  0
 20 21  1  0  0  0  0
 20 22  2  0  0  0  0
 21 42  1  0  0  0  0
 21 43  1  0  0  0  0
 21 44  1  0  0  0  0
 22 23  1  0  0  0  0
 22 45  1  0  0  0  0
 24 46  1  0  0  0  0
M  CHG  1  24   1
M  END
> <s_m_source_file>
AV-unprocessed.smi

> <i_m_source_file_index>
1006

> <i_lp_mmshare_version>
43012

> <i_f3d_flags>
0

> <s_epik_input>
W0NIM11jMVtjSF1jKFtOSDJdKW5jKG4xKVNbQ0gyXVtDQEhdKFtPSF0pW0NIMl1uKFtjSF1uMiljKGMyMylbY0hdYyhbQ0gzXSljKFtjSF0zKVtDSDNd

> <s_epik_cmdline>
J2VwaWtfcHl0aG9uJywgJy1waCcsICc3LjAnLCAnLXRuJywgJzgnLCAnLW1hJywgJzIwMCcsICctbWV0YWxfYmluZGluZycsICctaW1hZScsICc8aW5maWxlLm1hZT4nLCAnLW9tYWUnLCAnPG91dGZpbGUubWFlPic=

> <r_lp_tautomer_probability>
0.999762

> <r_epik_Ionization_Penalty>
0.549885

> <r_epik_Ionization_Penalty_Charging>
0.440405

> <r_epik_Ionization_Penalty_Neutral>
0.10948

> <r_epik_State_Penalty>
0.546419

> <r_epik_Charging_Adjusted_Penalty>
0.986823

> <i_epik_Tot_Q>
1

> <i_epik_Tot_abs_Q>
1

> <r_epik_Metal_State_Penalty>
0.699827

> <b_epik_Metal_Only>
0

> <s_lp_Force_Field>
OPLS_2005

> <r_lp_Energy>
7.78967

> <b_lp_Chiralities_Consistent>
1

> <s_lp_Variant>
AV-unprocessed.smi:1006-4

> <Gold.Version>
5.8.1

> <Gold.Id.Protein>
6NUR|6NUR_protein|mol2

> <Gold.PLP.Fitness>
54.8097

> <Gold.PLP.PLP>
-43.6764

> <Gold.PLP.part.hbond>
-4.4455

> <Gold.PLP.part.metal>
0.0000

> <Gold.PLP.part.buried>
-5.5600

> <Gold.PLP.part.nonpolar>
-34.0091

> <Gold.PLP.part.repulsive>
0.1002

> <Gold.PLP.ligand.clash>
0.0000

> <Gold.PLP.ligand.torsion>
1.8567

> <Gold.PLP.Chemscore.Hbond>
4.9326

> <Gold.PLP.Chemscore.CHOScore>
0.0000

> <Gold.PLP.Chemscore.Metal>
0.0000

> <Gold.Chemscore.Hbonds>
donor molecule, donor type, donor heavy atom, donor atom, acceptor molecule, acceptor atom, score
      L1  H    11    34       P1  7957  0.75
      L1  H    24    46       P1 10175  2.00
      P1  H  7989  7998       L1    11  0.03
      P1  H  7997  8010       L1    15  0.77
      P1  H  8011  8017       L1    11  1.00

> <Gold.PLP.Chemscore.Internal.Correction>
0.0488

> <Gold.Rescore>
     Score         DG    S(hbond)    S(metal)    S(lipo)     H(rot)  DE(clash)    DE(int)     intcor
     19.28     -20.96       3.08        0.00     107.54       2.89       0.10       1.58       ----

> <Gold.Chemscore.Fitness>
19.2791

> <Gold.Chemscore.DG>
-20.9581

> <Gold.Chemscore.ZeroCoef>
-5.4800

> <Gold.Chemscore.Hbond>
3.0823

> <Gold.Chemscore.Metal>
0.0000

> <Gold.Chemscore.Lipo>
107.5375

> <Gold.Chemscore.Internal_Hbond>
0.0000

> <Gold.Chemscore.DEClash>
0.0989

> <Gold.Chemscore.DEInternal>
1.5802

> <Gold.Chemscore.Rot>
2.8901

> <Gold.Chemscore.Internal.Correction>
   9.000000E+99

> <Gold.Chemscore.Hbonds>
donor molecule, donor type, donor heavy atom, donor atom, acceptor molecule, acceptor atom, score
      L1  H    11    34       P1  7957  0.76
      L1  H    24    46       P1 10175  0.99
      P1  H  7997  8010       L1    15  0.09
      P1  H  8011  8017       L1    11  0.30

> <Gold.Chemscore.Hbond.Weighted>
-10.2949

> <Gold.Chemscore.Metal.Weighted>
-0.0000

> <Gold.Chemscore.Lipo.Weighted>
-12.5819

> <Gold.Chemscore.Internal_Hbond.Weighted>
0.0000

> <Gold.Chemscore.DEClash.Weighted>
0.0989

> <Gold.Chemscore.DEInternal.Weighted>
1.5802

> <Gold.Chemscore.Rot.Weighted>
7.3986

> <Gold.Chemscore.Internal.Correction.Weighted>
   9.000000E+99

> <Gold.Protein.RotatedTorsions>
[ 6907 6896 6895 6894 ] final   -1.06 input  -60.11 | X-H torsion
[ 7974 7965 7964 7962 ] final   57.70 input  175.53 | X-H torsion
[ 8008 7997 7996 7995 ] final   59.20 input   59.86 | X-H torsion
[ 10167 10162 10161 10158 ] final   42.77 input  -65.29 | X-H torsion
[ 10718 10713 10712 10709 ] final  -24.17 input   66.30 | X-H torsion
[ 10763 10752 10751 10750 ] final -171.90 input  -60.55 | X-H torsion
[ 11005 11000 10999 10996 ] final -173.28 input  -57.11 | X-H torsion

> <Gold.Protein.ActiveResidues>
 VAL166  LYS551  ARG553  GLY616  TRP617  ASP618  TYR619  PRO620  LYS621  CYS622 
 ASP623  PHE694  ASN695  SER759  ASP760  ASP761  ALA762  ILE779  LEU786  VAL792 
 PHE793  MET794  SER795  GLU796  ALA797  LYS798  CYS799  TRP800  GLU811  SER814 

> <Gold.Protein.RotatedAtoms>
  151.5522  135.1067  159.9952 H   0  0  0  0  0  0  0  0  0  0  0  0  # atno 6907 bound_to 6896
  152.4486  133.7580  159.6741 H   0  0  0  0  0  0  0  0  0  0  0  0  # atno 6908 bound_to 6896
  150.8408  133.7872  159.3086 H   0  0  0  0  0  0  0  0  0  0  0  0  # atno 6909 bound_to 6896
  145.9262  139.3770  143.0448 H   0  0  0  0  0  0  0  0  0  0  0  0  # atno 7974 bound_to 7965
  155.5624  140.3488  155.4494 H   0  0  0  0  0  0  0  0  0  0  0  0  # atno 8008 bound_to 7997
  156.0504  140.1316  157.0082 H   0  0  0  0  0  0  0  0  0  0  0  0  # atno 8009 bound_to 7997
  154.4432  140.1006  156.6353 H   0  0  0  0  0  0  0  0  0  0  0  0  # atno 8010 bound_to 7997
  140.3511  144.2349  150.6145 H   0  0  0  0  0  0  0  0  0  0  0  0  # atno 10167 bound_to 10162
  156.4812  130.4545  149.6810 H   0  0  0  0  0  0  0  0  0  0  0  0  # atno 10718 bound_to 10713
  154.6253  135.2880  155.0279 H   0  0  0  0  0  0  0  0  0  0  0  0  # atno 10763 bound_to 10752
  154.1459  135.6511  153.4956 H   0  0  0  0  0  0  0  0  0  0  0  0  # atno 10764 bound_to 10752
  153.0254  135.5344  154.7059 H   0  0  0  0  0  0  0  0  0  0  0  0  # atno 10765 bound_to 10752
  140.4875  134.6016  157.4942 H   0  0  0  0  0  0  0  0  0  0  0  0  # atno 11005 bound_to 11000
  145.8485  140.9541  143.0762 LP  0  0  0  0  0  0  0  0  0  0  0  0  # atno 17320 bound_to 7965
  144.6759  140.0377  143.7481 LP  0  0  0  0  0  0  0  0  0  0  0  0  # atno 17321 bound_to 7965
  140.5218  143.2264  151.8376 LP  0  0  0  0  0  0  0  0  0  0  0  0  # atno 17342 bound_to 10162
  139.4826  144.4827  151.9286 LP  0  0  0  0  0  0  0  0  0  0  0  0  # atno 17343 bound_to 10162
  156.3520  130.7437  151.2397 LP  0  0  0  0  0  0  0  0  0  0  0  0  # atno 17370 bound_to 10713
  157.7483  131.0374  150.4456 LP  0  0  0  0  0  0  0  0  0  0  0  0  # atno 17371 bound_to 10713
  139.9789  134.7169  155.9897 LP  0  0  0  0  0  0  0  0  0  0  0  0  # atno 17394 bound_to 11000
  141.1501  133.6550  156.3986 LP  0  0  0  0  0  0  0  0  0  0  0  0  # atno 17395 bound_to 11000

$$$$
