AV-unprocessed.smi:1535|AV-procd|sdf|6178|dock2
  -GOLD-   22720 6333D 1   1.00000     0.00000
 Structure written by MMmdl.
 47 48  0  0  0  0  0  0  0  0  2 V2000
  153.2016  142.9284  161.6492 C   0  0  0  0  0  0  0  0  0  0  0  0
  152.6034  142.5741  160.2990 C   0  0  0  0  0  0  0  0  0  0  0  0
  153.0095  141.3813  159.6600 C   0  0  0  0  0  0  0  0  0  0  0  0
  152.4767  141.0145  158.4050 C   0  0  0  0  0  0  0  0  0  0  0  0
  152.7297  139.9098  157.6107 N   0  0  0  0  0  0  0  0  0  0  0  0
  151.9300  140.1363  156.5733 C   0  0  0  0  0  0  0  0  0  0  0  0
  151.1969  141.2665  156.5943 N   0  0  0  0  0  0  0  0  0  0  0  0
  150.2679  141.7230  155.5752 C   0  0  0  0  0  0  0  0  0  0  0  0
  149.5462  140.5624  154.8615 C   0  0  2  0  0  0  0  0  0  0  0  0
  150.4461  139.9915  153.9341 O   0  0  0  0  0  0  0  0  0  0  0  0
  148.2667  140.9905  154.1076 C   0  0  0  0  0  0  0  0  0  0  0  0
  147.8081  139.9399  153.1656 N   0  3  2  0  0  0  0  0  0  0  0  0
  146.7462  140.4269  152.2565 C   0  0  0  0  0  0  0  0  0  0  0  0
  147.4373  138.6683  153.8407 C   0  0  0  0  0  0  0  0  0  0  0  0
  146.1201  138.7998  154.6247 C   0  0  2  0  0  0  0  0  0  0  0  0
  146.3180  139.5788  155.9310 C   0  0  0  0  0  0  0  0  0  0  0  0
  145.5290  137.4782  154.8913 C   0  0  0  0  0  0  0  0  0  0  0  0
  145.0687  136.4387  155.1030 N   0  0  0  0  0  0  0  0  0  0  0  0
  151.5176  141.8799  157.8015 C   0  0  0  0  0  0  0  0  0  0  0  0
  151.1018  143.0668  158.4307 C   0  0  0  0  0  0  0  0  0  0  0  0
  151.6475  143.4205  159.6823 C   0  0  0  0  0  0  0  0  0  0  0  0
  151.1944  144.7062  160.3512 C   0  0  0  0  0  0  0  0  0  0  0  0
  153.8932  142.1586  161.9933 H   0  0  0  0  0  0  0  0  0  0  0  0
  152.4172  143.0318  162.3991 H   0  0  0  0  0  0  0  0  0  0  0  0
  153.7506  143.8685  161.5898 H   0  0  0  0  0  0  0  0  0  0  0  0
  153.7360  140.7350  160.1306 H   0  0  0  0  0  0  0  0  0  0  0  0
  151.8815  139.4442  155.7452 H   0  0  0  0  0  0  0  0  0  0  0  0
  149.5400  142.3863  156.0454 H   0  0  0  0  0  0  0  0  0  0  0  0
  150.8220  142.3267  154.8552 H   0  0  0  0  0  0  0  0  0  0  0  0
  149.3113  139.7953  155.5979 H   0  0  0  0  0  0  0  0  0  0  0  0
  149.9937  139.8600  153.1141 H   0  0  0  0  0  0  0  0  0  0  0  0
  147.4498  141.2160  154.7942 H   0  0  0  0  0  0  0  0  0  0  0  0
  148.4736  141.9181  153.5708 H   0  0  0  0  0  0  0  0  0  0  0  0
  145.8555  140.7161  152.8158 H   0  0  0  0  0  0  0  0  0  0  0  0
  146.4634  139.6591  151.5365 H   0  0  0  0  0  0  0  0  0  0  0  0
  147.0913  141.2934  151.6916 H   0  0  0  0  0  0  0  0  0  0  0  0
  147.3201  137.8676  153.1096 H   0  0  0  0  0  0  0  0  0  0  0  0
  148.2490  138.3505  154.4968 H   0  0  0  0  0  0  0  0  0  0  0  0
  145.3932  139.3411  154.0192 H   0  0  0  0  0  0  0  0  0  0  0  0
  145.3738  139.6909  156.4648 H   0  0  0  0  0  0  0  0  0  0  0  0
  146.7093  140.5782  155.7387 H   0  0  0  0  0  0  0  0  0  0  0  0
  147.0161  139.0673  156.5945 H   0  0  0  0  0  0  0  0  0  0  0  0
  150.3674  143.7008  157.9570 H   0  0  0  0  0  0  0  0  0  0  0  0
  150.5058  145.2643  159.7163 H   0  0  0  0  0  0  0  0  0  0  0  0
  152.0478  145.3503  160.5633 H   0  0  0  0  0  0  0  0  0  0  0  0
  150.6834  144.4876  161.2892 H   0  0  0  0  0  0  0  0  0  0  0  0
  148.6092  139.7394  152.5833 H   0  0  0  0  0  0  0  0  0  0  0  0
  1  2  1  0  0  0  0
  1 23  1  0  0  0  0
  1 24  1  0  0  0  0
  1 25  1  0  0  0  0
  2 21  1  0  0  0  0
  2  3  2  0  0  0  0
  3  4  1  0  0  0  0
  3 26  1  0  0  0  0
  4 19  2  0  0  0  0
  4  5  1  0  0  0  0
  5  6  2  0  0  0  0
  6  7  1  0  0  0  0
  6 27  1  0  0  0  0
  7  8  1  0  0  0  0
  7 19  1  0  0  0  0
  8  9  1  0  0  0  0
  8 28  1  0  0  0  0
  8 29  1  0  0  0  0
  9 10  1  0  0  0  0
  9 11  1  0  0  0  0
  9 30  1  0  0  0  0
 10 31  1  0  0  0  0
 11 12  1  0  0  0  0
 11 32  1  0  0  0  0
 11 33  1  0  0  0  0
 12 13  1  0  0  0  0
 12 14  1  0  0  0  0
 12 47  1  0  0  0  0
 13 34  1  0  0  0  0
 13 35  1  0  0  0  0
 13 36  1  0  0  0  0
 14 15  1  0  0  0  0
 14 37  1  0  0  0  0
 14 38  1  0  0  0  0
 15 16  1  0  0  0  0
 15 17  1  0  0  0  0
 15 39  1  0  0  0  0
 16 40  1  0  0  0  0
 16 41  1  0  0  0  0
 16 42  1  0  0  0  0
 17 18  3  0  0  0  0
 19 20  1  0  0  0  0
 20 21  2  0  0  0  0
 20 43  1  0  0  0  0
 21 22  1  0  0  0  0
 22 44  1  0  0  0  0
 22 45  1  0  0  0  0
 22 46  1  0  0  0  0
M  CHG  1  12   1
M  END
> <s_m_source_file>
AV-unprocessed.smi

> <i_m_source_file_index>
1535

> <i_lp_mmshare_version>
43012

> <i_f3d_flags>
0

> <s_epik_input>
W0NIM11jKFtjSF0xKWMoW0NIM10pW2NIXWMoYzEyKW4oW2NIXW4yKVtDSDJdW0NASF0oW09IXSlbQ0gyXU4oW0NIM10pW0NIMl1bQ0BIXShbQ0gzXSlDI04=

> <s_epik_cmdline>
J2VwaWtfcHl0aG9uJywgJy1waCcsICc3LjAnLCAnLXRuJywgJzgnLCAnLW1hJywgJzIwMCcsICctbWV0YWxfYmluZGluZycsICctaW1hZScsICc8aW5maWxlLm1hZT4nLCAnLW9tYWUnLCAnPG91dGZpbGUubWFlPic=

> <r_epik_Ionization_Penalty>
2.21058

> <r_epik_Ionization_Penalty_Charging>
2.12381

> <r_epik_Ionization_Penalty_Neutral>
0.0867699

> <r_epik_State_Penalty>
2.36208

> <r_epik_Charging_Adjusted_Penalty>
4.48589

> <i_epik_Tot_Q>
1

> <i_epik_Tot_abs_Q>
1

> <r_epik_Metal_State_Penalty>
2.2818

> <b_epik_Metal_Only>
0

> <s_lp_Force_Field>
OPLS_2005

> <r_lp_Energy>
15.029

> <b_lp_Chiralities_Consistent>
1

> <s_lp_Variant>
AV-unprocessed.smi:1535-9

> <Gold.Version>
5.8.1

> <Gold.Id.Protein>
6NUR|6NUR_protein|mol2

> <Gold.PLP.Fitness>
51.3119

> <Gold.PLP.PLP>
-40.8354

> <Gold.PLP.part.hbond>
-3.8906

> <Gold.PLP.part.metal>
0.0000

> <Gold.PLP.part.buried>
-2.6532

> <Gold.PLP.part.nonpolar>
-33.4415

> <Gold.PLP.part.repulsive>
0.0782

> <Gold.PLP.ligand.clash>
0.0000

> <Gold.PLP.ligand.torsion>
0.8352

> <Gold.PLP.Chemscore.Hbond>
4.0000

> <Gold.PLP.Chemscore.CHOScore>
0.0000

> <Gold.PLP.Chemscore.Metal>
0.0000

> <Gold.Chemscore.Hbonds>
donor molecule, donor type, donor heavy atom, donor atom, acceptor molecule, acceptor atom, score
      L1  H    10    31       P1  7957  1.00
      L1  H    12    47       P1  7957  1.00
      P1  H  7989  7998       L1    10  0.99
      P1  H  7997  8008       L1     5  1.00

> <Gold.PLP.Chemscore.Internal.Correction>
0.1468

> <Gold.Rescore>
     Score         DG    S(hbond)    S(metal)    S(lipo)     H(rot)  DE(clash)    DE(int)     intcor
     19.94     -23.07       3.31        0.00     112.85       2.60       1.44       1.69       ----

> <Gold.Chemscore.Fitness>
19.9374

> <Gold.Chemscore.DG>
-23.0685

> <Gold.Chemscore.ZeroCoef>
-5.4800

> <Gold.Chemscore.Hbond>
3.3080

> <Gold.Chemscore.Metal>
0.0000

> <Gold.Chemscore.Lipo>
112.8522

> <Gold.Chemscore.Internal_Hbond>
0.0000

> <Gold.Chemscore.DEClash>
1.4446

> <Gold.Chemscore.DEInternal>
1.6865

> <Gold.Chemscore.Rot>
2.6031

> <Gold.Chemscore.Internal.Correction>
   9.000000E+99

> <Gold.Chemscore.Hbonds>
donor molecule, donor type, donor heavy atom, donor atom, acceptor molecule, acceptor atom, score
      L1  H    10    31       P1  7957  0.96
      L1  H    12    47       P1  7957  0.95
      P1  H  7989  7998       L1    10  0.21
      P1  H  7997  8008       L1     5  0.35

> <Gold.Chemscore.Hbond.Weighted>
-11.0488

> <Gold.Chemscore.Metal.Weighted>
-0.0000

> <Gold.Chemscore.Lipo.Weighted>
-13.2037

> <Gold.Chemscore.Internal_Hbond.Weighted>
0.0000

> <Gold.Chemscore.DEClash.Weighted>
1.4446

> <Gold.Chemscore.DEInternal.Weighted>
1.6865

> <Gold.Chemscore.Rot.Weighted>
6.6640

> <Gold.Chemscore.Internal.Correction.Weighted>
   9.000000E+99

> <Gold.Protein.RotatedTorsions>
[ 6907 6896 6895 6894 ] final  153.20 input  -60.11 | X-H torsion
[ 7974 7965 7964 7962 ] final  -86.04 input  175.53 | X-H torsion
[ 8008 7997 7996 7995 ] final  -81.22 input   59.86 | X-H torsion
[ 10167 10162 10161 10158 ] final -111.97 input  -65.29 | X-H torsion
[ 10718 10713 10712 10709 ] final  -27.99 input   66.30 | X-H torsion
[ 10763 10752 10751 10750 ] final  -41.66 input  -60.55 | X-H torsion
[ 11005 11000 10999 10996 ] final  -70.37 input  -57.11 | X-H torsion

> <Gold.Protein.ActiveResidues>
 VAL166  LYS551  ARG553  GLY616  TRP617  ASP618  TYR619  PRO620  LYS621  CYS622 
 ASP623  PHE694  ASN695  SER759  ASP760  ASP761  ALA762  ILE779  LEU786  VAL792 
 PHE793  MET794  SER795  GLU796  ALA797  LYS798  CYS799  TRP800  GLU811  SER814 

> <Gold.Protein.RotatedAtoms>
  152.0761  133.4130  159.4480 H   0  0  0  0  0  0  0  0  0  0  0  0  # atno 6907 bound_to 6896
  150.6863  134.3036  159.4726 H   0  0  0  0  0  0  0  0  0  0  0  0  # atno 6908 bound_to 6896
  152.0873  134.9430  160.0623 H   0  0  0  0  0  0  0  0  0  0  0  0  # atno 6909 bound_to 6896
  145.4852  140.9555  143.1842 H   0  0  0  0  0  0  0  0  0  0  0  0  # atno 7974 bound_to 7965
  154.5961  140.0651  156.9305 H   0  0  0  0  0  0  0  0  0  0  0  0  # atno 8008 bound_to 7997
  155.2211  140.3330  155.4297 H   0  0  0  0  0  0  0  0  0  0  0  0  # atno 8009 bound_to 7997
  156.2288  140.1831  156.7279 H   0  0  0  0  0  0  0  0  0  0  0  0  # atno 8010 bound_to 7997
  140.1279  143.4386  152.1647 H   0  0  0  0  0  0  0  0  0  0  0  0  # atno 10167 bound_to 10162
  156.4311  130.4445  149.7117 H   0  0  0  0  0  0  0  0  0  0  0  0  # atno 10718 bound_to 10713
  153.9662  135.6734  153.4746 H   0  0  0  0  0  0  0  0  0  0  0  0  # atno 10763 bound_to 10752
  153.0814  135.4921  154.8508 H   0  0  0  0  0  0  0  0  0  0  0  0  # atno 10764 bound_to 10752
  154.7245  135.3124  154.8954 H   0  0  0  0  0  0  0  0  0  0  0  0  # atno 10765 bound_to 10752
  141.1573  133.6788  156.6742 H   0  0  0  0  0  0  0  0  0  0  0  0  # atno 11005 bound_to 11000
  144.7865  139.6415  143.7132 LP  0  0  0  0  0  0  0  0  0  0  0  0  # atno 17320 bound_to 7965
  146.2317  139.5826  142.9551 LP  0  0  0  0  0  0  0  0  0  0  0  0  # atno 17321 bound_to 7965
  139.5535  144.7355  151.4364 LP  0  0  0  0  0  0  0  0  0  0  0  0  # atno 17342 bound_to 10162
  140.6834  143.8029  150.7153 LP  0  0  0  0  0  0  0  0  0  0  0  0  # atno 17343 bound_to 10162
  156.4019  130.7679  151.2687 LP  0  0  0  0  0  0  0  0  0  0  0  0  # atno 17370 bound_to 10713
  157.7508  131.0237  150.3845 LP  0  0  0  0  0  0  0  0  0  0  0  0  # atno 17371 bound_to 10713
  140.3152  134.8053  157.4208 LP  0  0  0  0  0  0  0  0  0  0  0  0  # atno 17394 bound_to 11000
  140.1144  134.5302  155.8237 LP  0  0  0  0  0  0  0  0  0  0  0  0  # atno 17395 bound_to 11000

$$$$
