AV-unprocessed.smi:287|AV-procd|sdf|2181|dock6
  -GOLD-   2262021553D 1   1.00000     0.00000
 Structure written by MMmdl.
 55 58  0  0  0  0  0  0  0  0  1 V2000
  151.2433  145.3660  159.6197 C   0  0  0  0  0  0  0  0  0  0  0  0
  151.3021  143.8839  159.4747 C   0  0  0  0  0  0  0  0  0  0  0  0
  150.7591  142.9996  158.5888 C   0  0  0  0  0  0  0  0  0  0  0  0
  151.1797  141.6930  158.9785 C   0  0  0  0  0  0  0  0  0  0  0  0
  150.8069  140.3937  158.2772 C   0  0  1  0  0  0  0  0  0  0  0  0
  151.3740  140.3878  156.8472 C   0  0  0  0  0  0  0  0  0  0  0  0
  151.3606  139.2504  158.8997 O   0  0  0  0  0  0  0  0  0  0  0  0
  149.2785  140.1697  158.2439 C   0  0  0  0  0  0  0  0  0  0  0  0
  148.8975  138.9673  157.5138 N   0  0  0  0  0  0  0  0  0  0  0  0
  148.3497  139.0442  156.2828 C   0  0  0  0  0  0  0  0  0  0  0  0
  148.8182  140.0446  155.4988 N   0  0  0  0  0  0  0  0  0  0  0  0
  148.3432  140.2076  154.2609 C   0  0  0  0  0  0  0  0  0  0  0  0
  147.4165  139.4914  153.6219 N   0  0  0  0  0  0  0  0  0  0  0  0
  146.9404  138.4808  154.4049 C   0  0  0  0  0  0  0  0  0  0  0  0
  147.3453  138.1888  155.7389 C   0  0  0  0  0  0  0  0  0  0  0  0
  146.6262  137.0917  156.2022 N   0  0  0  0  0  0  0  0  0  0  0  0
  145.8514  136.7629  155.2044 C   0  0  0  0  0  0  0  0  0  0  0  0
  145.9886  137.5408  154.0750 N   0  0  0  0  0  0  0  0  0  0  0  0
  145.2668  137.4580  152.7650 C   0  0  2  0  0  0  0  0  0  0  0  0
  144.3863  136.3755  152.8181 O   0  0  0  0  0  0  0  0  0  0  0  0
  145.0046  135.2324  152.2359 C   0  0  1  0  0  0  0  0  0  0  0  0
  143.9690  134.1481  151.8902 C   0  0  0  0  0  0  0  0  0  0  0  0
  143.3130  133.7148  153.0630 O   0  0  0  0  0  0  0  0  0  0  0  0
  145.7433  135.8519  151.0436 C   0  0  1  0  0  0  0  0  0  0  0  0
  144.8533  136.0564  149.9578 O   0  0  0  0  0  0  0  0  0  0  0  0
  146.2676  137.1623  151.6308 C   0  0  1  0  0  0  0  0  0  0  0  0
  146.3516  138.1998  150.6717 O   0  0  0  0  0  0  0  0  0  0  0  0
  151.9648  141.8940  160.0890 C   0  0  0  0  0  0  0  0  0  0  0  0
  152.7243  140.9896  161.0028 C   0  0  0  0  0  0  0  0  0  0  0  0
  152.0435  143.2190  160.3957 O   0  0  0  0  0  0  0  0  0  0  0  0
  144.7331  138.4053  152.6774 H   0  0  0  0  0  0  0  0  0  0  0  0
  145.7477  134.8310  152.9277 H   0  0  0  0  0  0  0  0  0  0  0  0
  146.5581  135.2149  150.6976 H   0  0  0  0  0  0  0  0  0  0  0  0
  147.2591  136.9937  152.0545 H   0  0  0  0  0  0  0  0  0  0  0  0
  150.4416  145.7849  159.0112 H   0  0  0  0  0  0  0  0  0  0  0  0
  152.1817  145.8218  159.3038 H   0  0  0  0  0  0  0  0  0  0  0  0
  151.0618  145.6476  160.6572 H   0  0  0  0  0  0  0  0  0  0  0  0
  150.1252  143.2592  157.7541 H   0  0  0  0  0  0  0  0  0  0  0  0
  150.9712  141.2117  156.2570 H   0  0  0  0  0  0  0  0  0  0  0  0
  151.1302  139.4626  156.3232 H   0  0  0  0  0  0  0  0  0  0  0  0
  152.4603  140.4887  156.8514 H   0  0  0  0  0  0  0  0  0  0  0  0
  152.0127  138.8821  158.3234 H   0  0  0  0  0  0  0  0  0  0  0  0
  148.9274  140.0464  159.2692 H   0  0  0  0  0  0  0  0  0  0  0  0
  148.7671  141.0422  157.8346 H   0  0  0  0  0  0  0  0  0  0  0  0
  149.0589  138.0944  157.9957 H   0  0  0  0  0  0  0  0  0  0  0  0
  148.7662  141.0302  153.7033 H   0  0  0  0  0  0  0  0  0  0  0  0
  145.1584  135.9368  155.2723 H   0  0  0  0  0  0  0  0  0  0  0  0
  143.2412  134.5081  151.1621 H   0  0  0  0  0  0  0  0  0  0  0  0
  144.4657  133.2807  151.4545 H   0  0  0  0  0  0  0  0  0  0  0  0
  142.7965  132.9516  152.8530 H   0  0  0  0  0  0  0  0  0  0  0  0
  144.8033  136.9850  149.7874 H   0  0  0  0  0  0  0  0  0  0  0  0
  145.4834  138.3647  150.3362 H   0  0  0  0  0  0  0  0  0  0  0  0
  153.4609  140.4089  160.4475 H   0  0  0  0  0  0  0  0  0  0  0  0
  152.0507  140.2945  161.5044 H   0  0  0  0  0  0  0  0  0  0  0  0
  153.2534  141.5559  161.7699 H   0  0  0  0  0  0  0  0  0  0  0  0
  1  2  1  0  0  0  0
  1 35  1  0  0  0  0
  1 36  1  0  0  0  0
  1 37  1  0  0  0  0
  2 30  1  0  0  0  0
  2  3  2  0  0  0  0
  3  4  1  0  0  0  0
  3 38  1  0  0  0  0
  4  5  1  0  0  0  0
  4 28  2  0  0  0  0
  5  6  1  0  0  0  0
  5  7  1  0  0  0  0
  5  8  1  0  0  0  0
  6 39  1  0  0  0  0
  6 40  1  0  0  0  0
  6 41  1  0  0  0  0
  7 42  1  0  0  0  0
  8  9  1  0  0  0  0
  8 43  1  0  0  0  0
  8 44  1  0  0  0  0
  9 10  1  0  0  0  0
  9 45  1  0  0  0  0
 10 15  1  0  0  0  0
 10 11  2  0  0  0  0
 11 12  1  0  0  0  0
 12 13  2  0  0  0  0
 12 46  1  0  0  0  0
 13 14  1  0  0  0  0
 14 18  1  0  0  0  0
 14 15  2  0  0  0  0
 15 16  1  0  0  0  0
 16 17  2  0  0  0  0
 17 18  1  0  0  0  0
 17 47  1  0  0  0  0
 18 19  1  0  0  0  0
 19 31  1  0  0  0  0
 19 26  1  0  0  0  0
 19 20  1  0  0  0  0
 20 21  1  0  0  0  0
 21 32  1  0  0  0  0
 21 22  1  0  0  0  0
 21 24  1  0  0  0  0
 22 23  1  0  0  0  0
 22 48  1  0  0  0  0
 22 49  1  0  0  0  0
 23 50  1  0  0  0  0
 24 33  1  0  0  0  0
 24 25  1  0  0  0  0
 24 26  1  0  0  0  0
 25 51  1  0  0  0  0
 26 34  1  0  0  0  0
 26 27  1  0  0  0  0
 27 52  1  0  0  0  0
 28 29  1  0  0  0  0
 28 30  1  0  0  0  0
 29 53  1  0  0  0  0
 29 54  1  0  0  0  0
 29 55  1  0  0  0  0
M  END
> <s_m_source_file>
AV-unprocessed.smi

> <i_m_source_file_index>
287

> <i_lp_mmshare_version>
43012

> <i_f3d_flags>
0

> <s_epik_input>
W0NIM11jMVtjSF1jKGMobzEpW0NIM10pW0NAQF0oW0NIM10pKFtPSF0pW0NIMl1bTkhdYyhuW2NIXW4yKWMoYzIzKW5bY0hdbjNbQ0BASF00T1tDQEhdKFtDSDJdW09IXSlbQ0BASF0oW09IXSlbQ0BIXTRbT0hd

> <s_epik_cmdline>
J2VwaWtfcHl0aG9uJywgJy1waCcsICc3LjAnLCAnLXRuJywgJzgnLCAnLW1hJywgJzIwMCcsICctbWV0YWxfYmluZGluZycsICctaW1hZScsICc8aW5maWxlLm1hZT4nLCAnLW9tYWUnLCAnPG91dGZpbGUubWFlPic=

> <r_lp_tautomer_probability>
1

> <r_epik_Ionization_Penalty>
0.000992612

> <r_epik_Ionization_Penalty_Charging>
0

> <r_epik_Ionization_Penalty_Neutral>
0.000992612

> <r_epik_State_Penalty>
-0

> <r_epik_Charging_Adjusted_Penalty>
0

> <i_epik_Tot_Q>
0

> <i_epik_Tot_abs_Q>
0

> <r_epik_Metal_State_Penalty>
-0

> <b_epik_Metal_Only>
0

> <s_epik_Chemistry_Notes>
This compound contains an acetal/aminal-like group ( X-CH(R)-Y where X, Y are N, S, or O) that may be acid/base labile, releasing an aldehyde.

> <s_lp_Force_Field>
OPLS_2005

> <r_lp_Energy>
45.0467

> <b_lp_Chiralities_Consistent>
1

> <s_lp_Variant>
AV-unprocessed.smi:287-5

> <Gold.Version>
5.8.1

> <Gold.Id.Protein>
6NUR|6NUR_protein|mol2

> <Gold.PLP.Fitness>
54.4889

> <Gold.PLP.PLP>
-44.0522

> <Gold.PLP.part.hbond>
-5.0000

> <Gold.PLP.part.metal>
0.0000

> <Gold.PLP.part.buried>
-5.7643

> <Gold.PLP.part.nonpolar>
-35.2084

> <Gold.PLP.part.repulsive>
1.3881

> <Gold.PLP.ligand.clash>
0.0000

> <Gold.PLP.ligand.torsion>
0.3766

> <Gold.PLP.Chemscore.Hbond>
3.0624

> <Gold.PLP.Chemscore.CHOScore>
0.6239

> <Gold.PLP.Chemscore.Metal>
0.0000

> <Gold.Chemscore.Hbonds>
donor molecule, donor type, donor heavy atom, donor atom, acceptor molecule, acceptor atom, score
      L1  H    23    50       P1 10957  0.06
      L1  H    25    51       P1 10171  1.00
      L1  H    27    52       P1 10171  1.00
      P1  H  7954  7966       L1    27  0.94
      L1  C    12    46       P1  7957  0.11

> <Gold.PLP.Chemscore.Internal.Correction>
0.1312

> <Gold.Rescore>
     Score         DG    S(hbond)    S(metal)    S(lipo)     H(rot)  DE(clash)    DE(int)     intcor
      9.08     -12.61       2.74        0.00      97.96       5.27       1.77       1.76       ----

> <Gold.Chemscore.Fitness>
9.0762

> <Gold.Chemscore.DG>
-12.6082

> <Gold.Chemscore.ZeroCoef>
-5.4800

> <Gold.Chemscore.Hbond>
2.7398

> <Gold.Chemscore.Metal>
0.0000

> <Gold.Chemscore.Lipo>
97.9594

> <Gold.Chemscore.Internal_Hbond>
0.0000

> <Gold.Chemscore.DEClash>
1.7689

> <Gold.Chemscore.DEInternal>
1.7631

> <Gold.Chemscore.Rot>
5.2672

> <Gold.Chemscore.Internal.Correction>
   9.000000E+99

> <Gold.Chemscore.Hbonds>
donor molecule, donor type, donor heavy atom, donor atom, acceptor molecule, acceptor atom, score
      L1  H    23    50       P1 10957  0.02
      L1  H    25    51       P1 10171  0.95
      L1  H    27    52       P1 10171  1.00
      P1  H  7954  7966       L1    27  0.31

> <Gold.Chemscore.Hbond.Weighted>
-9.1509

> <Gold.Chemscore.Metal.Weighted>
-0.0000

> <Gold.Chemscore.Lipo.Weighted>
-11.4612

> <Gold.Chemscore.Internal_Hbond.Weighted>
0.0000

> <Gold.Chemscore.DEClash.Weighted>
1.7689

> <Gold.Chemscore.DEInternal.Weighted>
1.7631

> <Gold.Chemscore.Rot.Weighted>
13.4839

> <Gold.Chemscore.Internal.Correction.Weighted>
   9.000000E+99

> <Gold.Protein.RotatedTorsions>
[ 6907 6896 6895 6894 ] final  -90.96 input  -60.11 | X-H torsion
[ 7974 7965 7964 7962 ] final -104.78 input  175.53 | X-H torsion
[ 8008 7997 7996 7995 ] final   39.26 input   59.86 | X-H torsion
[ 10167 10162 10161 10158 ] final -174.79 input  -65.29 | X-H torsion
[ 10718 10713 10712 10709 ] final  163.04 input   66.30 | X-H torsion
[ 10763 10752 10751 10750 ] final  177.13 input  -60.55 | X-H torsion
[ 11005 11000 10999 10996 ] final  -41.45 input  -57.11 | X-H torsion

> <Gold.Protein.ActiveResidues>
 VAL166  LYS551  ARG553  GLY616  TRP617  ASP618  TYR619  PRO620  LYS621  CYS622 
 ASP623  PHE694  ASN695  SER759  ASP760  ASP761  ALA762  ILE779  LEU786  VAL792 
 PHE793  MET794  SER795  GLU796  ALA797  LYS798  CYS799  TRP800  GLU811  SER814 

> <Gold.Protein.RotatedAtoms>
  150.6887  134.2351  159.4449 H   0  0  0  0  0  0  0  0  0  0  0  0  # atno 6907 bound_to 6896
  152.0299  134.9771  160.0581 H   0  0  0  0  0  0  0  0  0  0  0  0  # atno 6908 bound_to 6896
  152.1315  133.4376  159.4760 H   0  0  0  0  0  0  0  0  0  0  0  0  # atno 6909 bound_to 6896
  145.2387  140.9197  143.3162 H   0  0  0  0  0  0  0  0  0  0  0  0  # atno 7974 bound_to 7965
  155.2336  140.3340  155.4300 H   0  0  0  0  0  0  0  0  0  0  0  0  # atno 8008 bound_to 7997
  156.2285  140.1840  156.7349 H   0  0  0  0  0  0  0  0  0  0  0  0  # atno 8009 bound_to 7997
  154.5938  140.0634  156.9260 H   0  0  0  0  0  0  0  0  0  0  0  0  # atno 8010 bound_to 7997
  139.5615  144.1858  152.1246 H   0  0  0  0  0  0  0  0  0  0  0  0  # atno 10167 bound_to 10162
  157.1141  131.0475  151.2444 H   0  0  0  0  0  0  0  0  0  0  0  0  # atno 10718 bound_to 10713
  154.4904  135.2779  155.1501 H   0  0  0  0  0  0  0  0  0  0  0  0  # atno 10763 bound_to 10752
  154.3175  135.6216  153.5496 H   0  0  0  0  0  0  0  0  0  0  0  0  # atno 10764 bound_to 10752
  152.9887  135.5734  154.5324 H   0  0  0  0  0  0  0  0  0  0  0  0  # atno 10765 bound_to 10752
  141.0247  133.6847  156.2459 H   0  0  0  0  0  0  0  0  0  0  0  0  # atno 11005 bound_to 11000
  144.9609  139.3981  143.6356 LP  0  0  0  0  0  0  0  0  0  0  0  0  # atno 17320 bound_to 7965
  146.3334  139.8661  142.8848 LP  0  0  0  0  0  0  0  0  0  0  0  0  # atno 17321 bound_to 7965
  140.1372  144.5234  150.6766 LP  0  0  0  0  0  0  0  0  0  0  0  0  # atno 17342 bound_to 10162
  140.6895  143.2368  151.5169 LP  0  0  0  0  0  0  0  0  0  0  0  0  # atno 17343 bound_to 10162
  157.4533  130.7611  149.7171 LP  0  0  0  0  0  0  0  0  0  0  0  0  # atno 17370 bound_to 10713
  155.9843  130.3992  150.3316 LP  0  0  0  0  0  0  0  0  0  0  0  0  # atno 17371 bound_to 10713
  140.6512  134.5065  157.5577 LP  0  0  0  0  0  0  0  0  0  0  0  0  # atno 17394 bound_to 11000
  139.9168  134.8230  156.1340 LP  0  0  0  0  0  0  0  0  0  0  0  0  # atno 17395 bound_to 11000

$$$$
