AV-unprocessed.smi:2532|AV-procd|sdf|9968|dock6
  -GOLD-   2272014 13D 1   1.00000     0.00000
 Structure written by MMmdl.
 36 38  0  0  0  0  0  0  0  0  1 V2000
  149.2377  141.0943  153.4836 O   0  0  0  0  0  0  0  0  0  0  0  0
  149.5842  140.5974  154.7620 C   0  0  2  0  0  0  0  0  0  0  0  0
  148.3287  139.9873  155.4054 C   0  0  0  0  0  0  0  0  0  0  0  0
  147.4243  141.0266  155.7406 O   0  0  0  0  0  0  0  0  0  0  0  0
  146.0991  140.7587  155.3111 C   0  0  0  0  0  0  0  0  0  0  0  0
  145.4331  142.0697  155.0393 C   0  0  0  0  0  0  0  0  0  0  0  0
  144.3908  142.6257  155.7369 C   0  0  0  0  0  0  0  0  0  0  0  0
  143.9944  143.9010  155.2373 C   0  0  0  0  0  0  0  0  0  0  0  0
  144.7453  144.3089  154.1674 C   0  0  0  0  0  0  0  0  0  0  0  0
  145.9599  143.1307  153.7525 S   0  0  0  0  0  0  0  0  0  0  0  0
  150.1581  141.7497  155.6091 C   0  0  0  0  0  0  0  0  0  0  0  0
  151.1153  141.2926  156.6014 N   0  0  0  0  0  0  0  0  0  0  0  0
  151.7541  140.1070  156.6229 C   0  0  0  0  0  0  0  0  0  0  0  0
  152.5930  139.8846  157.6306 N   0  0  0  0  0  0  0  0  0  0  0  0
  152.4862  141.0636  158.3485 C   0  0  0  0  0  0  0  0  0  0  0  0
  153.1249  141.4722  159.5414 C   0  0  0  0  0  0  0  0  0  0  0  0
  152.8570  142.7408  160.0969 C   0  0  0  0  0  0  0  0  0  0  0  0
  151.9496  143.6191  159.4694 C   0  0  0  0  0  0  0  0  0  0  0  0
  151.3009  143.2341  158.2804 C   0  0  0  0  0  0  0  0  0  0  0  0
  151.5695  141.9668  157.7303 C   0  0  0  0  0  0  0  0  0  0  0  0
  149.2030  140.3682  152.8795 H   0  0  0  0  0  0  0  0  0  0  0  0
  150.3481  139.8269  154.6475 H   0  0  0  0  0  0  0  0  0  0  0  0
  147.8351  139.3262  154.6910 H   0  0  0  0  0  0  0  0  0  0  0  0
  148.5858  139.3840  156.2780 H   0  0  0  0  0  0  0  0  0  0  0  0
  146.1082  140.1447  154.4093 H   0  0  0  0  0  0  0  0  0  0  0  0
  145.5508  140.2154  156.0819 H   0  0  0  0  0  0  0  0  0  0  0  0
  143.9016  142.1634  156.5816 H   0  0  0  0  0  0  0  0  0  0  0  0
  143.1855  144.4670  155.6756 H   0  0  0  0  0  0  0  0  0  0  0  0
  144.6624  145.2257  153.6024 H   0  0  0  0  0  0  0  0  0  0  0  0
  150.6415  142.4902  154.9703 H   0  0  0  0  0  0  0  0  0  0  0  0
  149.3533  142.2693  156.1308 H   0  0  0  0  0  0  0  0  0  0  0  0
  151.5941  139.3650  155.8542 H   0  0  0  0  0  0  0  0  0  0  0  0
  153.8223  140.8080  160.0301 H   0  0  0  0  0  0  0  0  0  0  0  0
  153.3512  143.0420  161.0090 H   0  0  0  0  0  0  0  0  0  0  0  0
  151.7519  144.5893  159.9012 H   0  0  0  0  0  0  0  0  0  0  0  0
  150.6071  143.9055  157.7962 H   0  0  0  0  0  0  0  0  0  0  0  0
  1  2  1  0  0  0  0
  1 21  1  0  0  0  0
  2  3  1  0  0  0  0
  2 11  1  0  0  0  0
  2 22  1  0  0  0  0
  3  4  1  0  0  0  0
  3 23  1  0  0  0  0
  3 24  1  0  0  0  0
  4  5  1  0  0  0  0
  5  6  1  0  0  0  0
  5 25  1  0  0  0  0
  5 26  1  0  0  0  0
  6 10  1  0  0  0  0
  6  7  2  0  0  0  0
  7  8  1  0  0  0  0
  7 27  1  0  0  0  0
  8  9  2  0  0  0  0
  8 28  1  0  0  0  0
  9 10  1  0  0  0  0
  9 29  1  0  0  0  0
 11 12  1  0  0  0  0
 11 30  1  0  0  0  0
 11 31  1  0  0  0  0
 12 20  1  0  0  0  0
 12 13  1  0  0  0  0
 13 14  2  0  0  0  0
 13 32  1  0  0  0  0
 14 15  1  0  0  0  0
 15 20  2  0  0  0  0
 15 16  1  0  0  0  0
 16 17  2  0  0  0  0
 16 33  1  0  0  0  0
 17 18  1  0  0  0  0
 17 34  1  0  0  0  0
 18 19  2  0  0  0  0
 18 35  1  0  0  0  0
 19 20  1  0  0  0  0
 19 36  1  0  0  0  0
M  END
> <s_m_source_file>
AV-unprocessed.smi

> <i_m_source_file_index>
2532

> <i_lp_mmshare_version>
43012

> <i_f3d_flags>
0

> <s_epik_input>
W2NIXTFbY0hdW2NIXVtjSF1jKGMxMiluKFtjSF1uMilbQ0gyXVtDQEhdKFtPSF0pW0NIMl1PW0NIMl1jM1tjSF1bY0hdW2NIXXMz

> <s_epik_cmdline>
J2VwaWtfcHl0aG9uJywgJy1waCcsICc3LjAnLCAnLXRuJywgJzgnLCAnLW1hJywgJzIwMCcsICctbWV0YWxfYmluZGluZycsICctaW1hZScsICc8aW5maWxlLm1hZT4nLCAnLW9tYWUnLCAnPG91dGZpbGUubWFlPic=

> <r_epik_Ionization_Penalty>
0.0678455

> <r_epik_Ionization_Penalty_Charging>
0

> <r_epik_Ionization_Penalty_Neutral>
0.0678455

> <r_epik_State_Penalty>
0.0593261

> <r_epik_Charging_Adjusted_Penalty>
0.0593261

> <i_epik_Tot_Q>
0

> <i_epik_Tot_abs_Q>
0

> <r_epik_Metal_State_Penalty>
6.23947e-05

> <b_epik_Metal_Only>
0

> <s_lp_Force_Field>
OPLS_2005

> <r_lp_Energy>
9.71279

> <b_lp_Chiralities_Consistent>
1

> <s_lp_Variant>
AV-unprocessed.smi:2532-1

> <Gold.Version>
5.8.1

> <Gold.Id.Protein>
6NUR|6NUR_protein|mol2

> <Gold.PLP.Fitness>
48.3036

> <Gold.PLP.PLP>
-42.2197

> <Gold.PLP.part.hbond>
-4.0000

> <Gold.PLP.part.metal>
0.0000

> <Gold.PLP.part.buried>
-5.8530

> <Gold.PLP.part.nonpolar>
-32.2339

> <Gold.PLP.part.repulsive>
0.0555

> <Gold.PLP.ligand.clash>
0.0000

> <Gold.PLP.ligand.torsion>
1.1950

> <Gold.PLP.Chemscore.Hbond>
2.7520

> <Gold.PLP.Chemscore.CHOScore>
0.0000

> <Gold.PLP.Chemscore.Metal>
0.0000

> <Gold.Chemscore.Hbonds>
donor molecule, donor type, donor heavy atom, donor atom, acceptor molecule, acceptor atom, score
      L1  H     1    21       P1  7957  0.75
      P1  H  7997  8009       L1    14  0.99
      P1  H  8011  8017       L1     1  0.95

> <Gold.PLP.Chemscore.Internal.Correction>
0.2180

> <Gold.Rescore>
     Score         DG    S(hbond)    S(metal)    S(lipo)     H(rot)  DE(clash)    DE(int)     intcor
     15.91     -17.46       1.59        0.00     108.79       2.36       0.20       1.35       ----

> <Gold.Chemscore.Fitness>
15.9120

> <Gold.Chemscore.DG>
-17.4627

> <Gold.Chemscore.ZeroCoef>
-5.4800

> <Gold.Chemscore.Hbond>
1.5869

> <Gold.Chemscore.Metal>
0.0000

> <Gold.Chemscore.Lipo>
108.7950

> <Gold.Chemscore.Internal_Hbond>
0.0000

> <Gold.Chemscore.DEClash>
0.2016

> <Gold.Chemscore.DEInternal>
1.3490

> <Gold.Chemscore.Rot>
2.3620

> <Gold.Chemscore.Internal.Correction>
   9.000000E+99

> <Gold.Chemscore.Hbonds>
donor molecule, donor type, donor heavy atom, donor atom, acceptor molecule, acceptor atom, score
      L1  H     1    21       P1  7957  0.76
      P1  H  7997  8009       L1    14  0.15
      P1  H  8011  8017       L1     1  0.21

> <Gold.Chemscore.Hbond.Weighted>
-5.3004

> <Gold.Chemscore.Metal.Weighted>
-0.0000

> <Gold.Chemscore.Lipo.Weighted>
-12.7290

> <Gold.Chemscore.Internal_Hbond.Weighted>
0.0000

> <Gold.Chemscore.DEClash.Weighted>
0.2016

> <Gold.Chemscore.DEInternal.Weighted>
1.3490

> <Gold.Chemscore.Rot.Weighted>
6.0468

> <Gold.Chemscore.Internal.Correction.Weighted>
   9.000000E+99

> <Gold.Protein.RotatedTorsions>
[ 6907 6896 6895 6894 ] final  142.22 input  -60.11 | X-H torsion
[ 7974 7965 7964 7962 ] final  179.32 input  175.53 | X-H torsion
[ 8008 7997 7996 7995 ] final  165.76 input   59.86 | X-H torsion
[ 10167 10162 10161 10158 ] final  -48.31 input  -65.29 | X-H torsion
[ 10718 10713 10712 10709 ] final  106.24 input   66.30 | X-H torsion
[ 10763 10752 10751 10750 ] final  -64.42 input  -60.55 | X-H torsion
[ 11005 11000 10999 10996 ] final   79.51 input  -57.11 | X-H torsion

> <Gold.Protein.ActiveResidues>
 VAL166  LYS551  ARG553  GLY616  TRP617  ASP618  TYR619  PRO620  LYS621  CYS622 
 ASP623  PHE694  ASN695  SER759  ASP760  ASP761  ALA762  ILE779  LEU786  VAL792 
 PHE793  MET794  SER795  GLU796  ALA797  LYS798  CYS799  TRP800  GLU811  SER814 

> <Gold.Protein.RotatedAtoms>
  152.2214  133.4987  159.5164 H   0  0  0  0  0  0  0  0  0  0  0  0  # atno 6907 bound_to 6896
  150.7014  134.1337  159.4088 H   0  0  0  0  0  0  0  0  0  0  0  0  # atno 6908 bound_to 6896
  151.9258  135.0278  160.0576 H   0  0  0  0  0  0  0  0  0  0  0  0  # atno 6909 bound_to 6896
  144.7147  140.0530  143.6435 H   0  0  0  0  0  0  0  0  0  0  0  0  # atno 7974 bound_to 7965
  156.1774  140.1661  156.8337 H   0  0  0  0  0  0  0  0  0  0  0  0  # atno 8008 bound_to 7997
  154.5322  140.0754  156.8399 H   0  0  0  0  0  0  0  0  0  0  0  0  # atno 8009 bound_to 7997
  155.3383  140.3383  155.4241 H   0  0  0  0  0  0  0  0  0  0  0  0  # atno 8010 bound_to 7997
  140.6736  143.2745  151.4052 H   0  0  0  0  0  0  0  0  0  0  0  0  # atno 10167 bound_to 10162
  157.6675  131.0846  150.5977 H   0  0  0  0  0  0  0  0  0  0  0  0  # atno 10718 bound_to 10713
  154.3298  135.6179  153.5546 H   0  0  0  0  0  0  0  0  0  0  0  0  # atno 10763 bound_to 10752
  152.9812  135.5744  154.4975 H   0  0  0  0  0  0  0  0  0  0  0  0  # atno 10764 bound_to 10752
  154.4659  135.2857  155.1655 H   0  0  0  0  0  0  0  0  0  0  0  0  # atno 10765 bound_to 10752
  139.9170  134.7848  156.1787 H   0  0  0  0  0  0  0  0  0  0  0  0  # atno 11005 bound_to 11000
  145.9928  139.3028  143.0974 LP  0  0  0  0  0  0  0  0  0  0  0  0  # atno 17320 bound_to 7965
  145.8883  140.9320  143.0565 LP  0  0  0  0  0  0  0  0  0  0  0  0  # atno 17321 bound_to 7965
  139.6017  144.1281  152.2205 LP  0  0  0  0  0  0  0  0  0  0  0  0  # atno 17342 bound_to 10162
  140.0667  144.5812  150.7222 LP  0  0  0  0  0  0  0  0  0  0  0  0  # atno 17343 bound_to 10162
  156.6278  130.4423  149.5798 LP  0  0  0  0  0  0  0  0  0  0  0  0  # atno 17370 bound_to 10713
  156.2305  130.6792  151.1459 LP  0  0  0  0  0  0  0  0  0  0  0  0  # atno 17371 bound_to 10713
  141.0655  133.6821  156.2037 LP  0  0  0  0  0  0  0  0  0  0  0  0  # atno 17394 bound_to 11000
  140.6592  134.4986  157.5582 LP  0  0  0  0  0  0  0  0  0  0  0  0  # atno 17395 bound_to 11000

$$$$
