AV-unprocessed.smi:2600|AV-procd|sdf|10181|dock3
  -GOLD-   2272014193D 1   1.00000     0.00000
 Structure written by MMmdl.
 44 45  0  0  0  0  0  0  0  0  1 V2000
  146.4513  138.6838  152.0047 C   0  0  0  0  0  0  0  0  0  0  0  0
  147.1014  140.0173  152.4087 C   0  0  0  0  0  0  0  0  0  0  0  0
  147.6324  140.0878  153.8604 C   0  0  1  0  0  0  0  0  0  0  0  0
  148.1688  138.6895  154.2467 C   0  0  0  0  0  0  0  0  0  0  0  0
  148.7203  141.1833  154.0222 C   0  0  0  0  0  0  0  0  0  0  0  0
  149.0492  141.3457  155.4458 N   0  0  0  0  0  0  0  0  0  0  0  0
  150.2099  141.0085  156.0610 C   0  0  0  0  0  0  0  0  0  0  0  0
  151.1292  140.4182  155.4918 O   0  0  0  0  0  0  0  0  0  0  0  0
  150.2848  141.3704  157.3530 N   0  0  0  0  0  0  0  0  0  0  0  0
  151.4399  141.1638  158.2178 C   0  0  0  0  0  0  0  0  0  0  0  0
  152.1426  142.4930  158.5412 C   0  0  0  0  0  0  0  0  0  0  0  0
  152.3177  142.7275  160.0080 C   0  0  0  0  0  0  0  0  0  0  0  0
  152.8308  141.9043  160.9709 C   0  0  0  0  0  0  0  0  0  0  0  0
  152.7457  142.6718  162.1648 C   0  0  0  0  0  0  0  0  0  0  0  0
  152.2248  143.8695  161.9619 N   0  0  0  0  0  0  0  0  0  0  0  0
  151.9577  143.9065  160.6389 N   0  0  0  0  0  0  0  0  0  0  0  0
  151.3706  145.1079  160.0756 C   0  0  0  0  0  0  0  0  0  0  0  0
  147.8625  141.7856  156.1811 C   0  0  0  0  0  0  0  0  0  0  0  0
  146.7893  140.6911  156.0622 C   0  0  0  0  0  0  0  0  0  0  0  0
  146.5076  140.4160  154.6878 O   0  0  0  0  0  0  0  0  0  0  0  0
  146.2020  138.6884  150.9435 H   0  0  0  0  0  0  0  0  0  0  0  0
  145.5255  138.5004  152.5487 H   0  0  0  0  0  0  0  0  0  0  0  0
  147.1208  137.8415  152.1799 H   0  0  0  0  0  0  0  0  0  0  0  0
  147.9269  140.2087  151.7216 H   0  0  0  0  0  0  0  0  0  0  0  0
  146.3834  140.8215  152.2421 H   0  0  0  0  0  0  0  0  0  0  0  0
  148.9796  138.3868  153.5835 H   0  0  0  0  0  0  0  0  0  0  0  0
  147.3855  137.9349  154.1729 H   0  0  0  0  0  0  0  0  0  0  0  0
  148.5601  138.6492  155.2625 H   0  0  0  0  0  0  0  0  0  0  0  0
  149.5787  140.9494  153.3923 H   0  0  0  0  0  0  0  0  0  0  0  0
  148.3588  142.1464  153.6626 H   0  0  0  0  0  0  0  0  0  0  0  0
  149.4899  141.8432  157.7578 H   0  0  0  0  0  0  0  0  0  0  0  0
  151.0943  140.6935  159.1388 H   0  0  0  0  0  0  0  0  0  0  0  0
  152.1314  140.4606  157.7519 H   0  0  0  0  0  0  0  0  0  0  0  0
  153.1153  142.5324  158.0501 H   0  0  0  0  0  0  0  0  0  0  0  0
  151.5664  143.3154  158.1158 H   0  0  0  0  0  0  0  0  0  0  0  0
  153.2118  140.9021  160.8405 H   0  0  0  0  0  0  0  0  0  0  0  0
  153.0451  142.3963  163.1651 H   0  0  0  0  0  0  0  0  0  0  0  0
  150.6736  144.8505  159.2783 H   0  0  0  0  0  0  0  0  0  0  0  0
  152.1579  145.7437  159.6700 H   0  0  0  0  0  0  0  0  0  0  0  0
  150.8284  145.6619  160.8430 H   0  0  0  0  0  0  0  0  0  0  0  0
  148.0664  141.9936  157.2323 H   0  0  0  0  0  0  0  0  0  0  0  0
  147.4951  142.7209  155.7560 H   0  0  0  0  0  0  0  0  0  0  0  0
  147.1017  139.7836  156.5790 H   0  0  0  0  0  0  0  0  0  0  0  0
  145.8681  141.0181  156.5444 H   0  0  0  0  0  0  0  0  0  0  0  0
  1  2  1  0  0  0  0
  1 21  1  0  0  0  0
  1 22  1  0  0  0  0
  1 23  1  0  0  0  0
  2  3  1  0  0  0  0
  2 24  1  0  0  0  0
  2 25  1  0  0  0  0
  3 20  1  0  0  0  0
  3  4  1  0  0  0  0
  3  5  1  0  0  0  0
  4 26  1  0  0  0  0
  4 27  1  0  0  0  0
  4 28  1  0  0  0  0
  5  6  1  0  0  0  0
  5 29  1  0  0  0  0
  5 30  1  0  0  0  0
  6  7  1  0  0  0  0
  6 18  1  0  0  0  0
  7  8  2  0  0  0  0
  7  9  1  0  0  0  0
  9 10  1  0  0  0  0
  9 31  1  0  0  0  0
 10 11  1  0  0  0  0
 10 32  1  0  0  0  0
 10 33  1  0  0  0  0
 11 12  1  0  0  0  0
 11 34  1  0  0  0  0
 11 35  1  0  0  0  0
 12 16  1  0  0  0  0
 12 13  2  0  0  0  0
 13 14  1  0  0  0  0
 13 36  1  0  0  0  0
 14 15  2  0  0  0  0
 14 37  1  0  0  0  0
 15 16  1  0  0  0  0
 16 17  1  0  0  0  0
 17 38  1  0  0  0  0
 17 39  1  0  0  0  0
 17 40  1  0  0  0  0
 18 19  1  0  0  0  0
 18 41  1  0  0  0  0
 18 42  1  0  0  0  0
 19 20  1  0  0  0  0
 19 43  1  0  0  0  0
 19 44  1  0  0  0  0
M  END
> <s_m_source_file>
AV-unprocessed.smi

> <i_m_source_file_index>
2600

> <i_lp_mmshare_version>
43012

> <i_f3d_flags>
0

> <s_epik_input>
W0NIM11bQ0gyXVtDQEBdMShbQ0gzXSlbQ0gyXU4oW0NIMl1bQ0gyXU8xKUMoPU8pW05IXVtDSDJdW0NIMl1jMltjSF1bY0hdbm4yW0NIM10=

> <s_epik_cmdline>
J2VwaWtfcHl0aG9uJywgJy1waCcsICc3LjAnLCAnLXRuJywgJzgnLCAnLW1hJywgJzIwMCcsICctbWV0YWxfYmluZGluZycsICctaW1hZScsICc8aW5maWxlLm1hZT4nLCAnLW9tYWUnLCAnPG91dGZpbGUubWFlPic=

> <r_lp_tautomer_probability>
1

> <r_epik_Ionization_Penalty>
0.00252014

> <r_epik_Ionization_Penalty_Charging>
0

> <r_epik_Ionization_Penalty_Neutral>
0.00252014

> <r_epik_State_Penalty>
0.00172506

> <r_epik_Charging_Adjusted_Penalty>
0.00172506

> <i_epik_Tot_Q>
0

> <i_epik_Tot_abs_Q>
0

> <r_epik_Metal_State_Penalty>
-0

> <b_epik_Metal_Only>
0

> <s_lp_Force_Field>
OPLS_2005

> <r_lp_Energy>
28.913

> <b_lp_Chiralities_Consistent>
1

> <s_lp_Variant>
AV-unprocessed.smi:2600-1

> <Gold.Version>
5.8.1

> <Gold.Id.Protein>
6NUR|6NUR_protein|mol2

> <Gold.PLP.Fitness>
42.9617

> <Gold.PLP.PLP>
-43.0139

> <Gold.PLP.part.hbond>
-1.0000

> <Gold.PLP.part.metal>
0.0000

> <Gold.PLP.part.buried>
-1.5136

> <Gold.PLP.part.nonpolar>
-40.4167

> <Gold.PLP.part.repulsive>
0.3022

> <Gold.PLP.ligand.clash>
0.9865

> <Gold.PLP.ligand.torsion>
0.9398

> <Gold.PLP.Chemscore.Hbond>
0.9120

> <Gold.PLP.Chemscore.CHOScore>
0.0000

> <Gold.PLP.Chemscore.Metal>
0.0000

> <Gold.Chemscore.Hbonds>
donor molecule, donor type, donor heavy atom, donor atom, acceptor molecule, acceptor atom, score
      P1  H  7989  7998       L1     8  0.80

> <Gold.PLP.Chemscore.Internal.Correction>
0.0778

> <Gold.Rescore>
     Score         DG    S(hbond)    S(metal)    S(lipo)     H(rot)  DE(clash)    DE(int)     intcor
     15.52     -16.71       0.95        0.00     101.18       1.47       0.28       0.91       ----

> <Gold.Chemscore.Fitness>
15.5245

> <Gold.Chemscore.DG>
-16.7118

> <Gold.Chemscore.ZeroCoef>
-5.4800

> <Gold.Chemscore.Hbond>
0.9477

> <Gold.Chemscore.Metal>
0.0000

> <Gold.Chemscore.Lipo>
101.1839

> <Gold.Chemscore.Internal_Hbond>
0.0000

> <Gold.Chemscore.DEClash>
0.2773

> <Gold.Chemscore.DEInternal>
0.9100

> <Gold.Chemscore.Rot>
1.4735

> <Gold.Chemscore.Internal.Correction>
   9.000000E+99

> <Gold.Chemscore.Hbonds>
donor molecule, donor type, donor heavy atom, donor atom, acceptor molecule, acceptor atom, score
      P1  H  7989  7998       L1     8  0.75

> <Gold.Chemscore.Hbond.Weighted>
-3.1654

> <Gold.Chemscore.Metal.Weighted>
-0.0000

> <Gold.Chemscore.Lipo.Weighted>
-11.8385

> <Gold.Chemscore.Internal_Hbond.Weighted>
0.0000

> <Gold.Chemscore.DEClash.Weighted>
0.2773

> <Gold.Chemscore.DEInternal.Weighted>
0.9100

> <Gold.Chemscore.Rot.Weighted>
3.7721

> <Gold.Chemscore.Internal.Correction.Weighted>
   9.000000E+99

> <Gold.Protein.RotatedTorsions>
[ 6907 6896 6895 6894 ] final  -87.24 input  -60.11 | X-H torsion
[ 7974 7965 7964 7962 ] final  151.05 input  175.53 | X-H torsion
[ 8008 7997 7996 7995 ] final   23.88 input   59.86 | X-H torsion
[ 10167 10162 10161 10158 ] final -153.42 input  -65.29 | X-H torsion
[ 10718 10713 10712 10709 ] final  -33.96 input   66.30 | X-H torsion
[ 10763 10752 10751 10750 ] final  -84.94 input  -60.55 | X-H torsion
[ 11005 11000 10999 10996 ] final -149.73 input  -57.11 | X-H torsion

> <Gold.Protein.ActiveResidues>
 VAL166  LYS551  ARG553  GLY616  TRP617  ASP618  TYR619  PRO620  LYS621  CYS622 
 ASP623  PHE694  ASN695  SER759  ASP760  ASP761  ALA762  ILE779  LEU786  VAL792 
 PHE793  MET794  SER795  GLU796  ALA797  LYS798  CYS799  TRP800  GLU811  SER814 

> <Gold.Protein.RotatedAtoms>
  150.6866  134.2926  159.4672 H   0  0  0  0  0  0  0  0  0  0  0  0  # atno 6907 bound_to 6896
  152.0830  134.9456  160.0582 H   0  0  0  0  0  0  0  0  0  0  0  0  # atno 6908 bound_to 6896
  152.0801  133.4114  159.4534 H   0  0  0  0  0  0  0  0  0  0  0  0  # atno 6909 bound_to 6896
  144.8320  139.6487  143.6054 H   0  0  0  0  0  0  0  0  0  0  0  0  # atno 7974 bound_to 7965
  154.9878  140.3110  155.4919 H   0  0  0  0  0  0  0  0  0  0  0  0  # atno 8008 bound_to 7997
  156.2944  140.2255  156.4920 H   0  0  0  0  0  0  0  0  0  0  0  0  # atno 8009 bound_to 7997
  154.7731  140.0451  157.1055 H   0  0  0  0  0  0  0  0  0  0  0  0  # atno 8010 bound_to 7997
  139.7098  143.9127  152.2463 H   0  0  0  0  0  0  0  0  0  0  0  0  # atno 10167 bound_to 10162
  156.3563  130.4316  149.7661 H   0  0  0  0  0  0  0  0  0  0  0  0  # atno 10718 bound_to 10713
  154.6053  135.5503  153.7416 H   0  0  0  0  0  0  0  0  0  0  0  0  # atno 10763 bound_to 10752
  153.0172  135.6376  154.1656 H   0  0  0  0  0  0  0  0  0  0  0  0  # atno 10764 bound_to 10752
  154.1595  135.2898  155.3092 H   0  0  0  0  0  0  0  0  0  0  0  0  # atno 10765 bound_to 10752
  140.7477  134.3443  157.5133 H   0  0  0  0  0  0  0  0  0  0  0  0  # atno 11005 bound_to 11000
  146.2622  139.6437  142.9354 LP  0  0  0  0  0  0  0  0  0  0  0  0  # atno 17320 bound_to 7965
  145.4875  141.0438  143.2611 LP  0  0  0  0  0  0  0  0  0  0  0  0  # atno 17321 bound_to 7965
  139.8993  144.6921  150.8683 LP  0  0  0  0  0  0  0  0  0  0  0  0  # atno 17342 bound_to 10162
  140.7730  143.3526  151.1984 LP  0  0  0  0  0  0  0  0  0  0  0  0  # atno 17343 bound_to 10162
  156.4842  130.8055  151.3068 LP  0  0  0  0  0  0  0  0  0  0  0  0  # atno 17370 bound_to 10713
  157.7468  130.9996  150.2895 LP  0  0  0  0  0  0  0  0  0  0  0  0  # atno 17371 bound_to 10713
  139.8793  134.9121  156.3053 LP  0  0  0  0  0  0  0  0  0  0  0  0  # atno 17394 bound_to 11000
  140.9780  133.7285  156.0630 LP  0  0  0  0  0  0  0  0  0  0  0  0  # atno 17395 bound_to 11000

$$$$
