AV-unprocessed.smi:3316|AV-procd|sdf|12755|dock3
  -GOLD-   2272019 93D 1   1.00000     0.00000
 Structure written by MMmdl.
 41 43  0  0  0  0  0  0  0  0  2 V2000
  147.9839  139.6728  156.1930 C   0  0  0  0  0  0  0  0  0  0  0  0
  148.1489  140.6512  155.0197 C   0  0  2  0  0  0  0  0  0  0  0  0
  149.5071  141.3778  155.0780 C   0  0  0  0  0  0  0  0  0  0  0  0
  149.6425  142.1792  156.3120 N   0  3  0  0  0  0  0  0  0  0  0  0
  150.9788  142.1089  156.9349 C   0  0  0  0  0  0  0  0  0  0  0  0
  150.9845  142.7731  158.3321 C   0  0  1  0  0  0  0  0  0  0  0  0
  152.2637  142.4666  159.1792 C   0  0  0  0  0  0  0  0  0  0  0  0
  152.8121  143.8722  159.5144 C   0  0  2  0  0  0  0  0  0  0  0  0
  151.8100  144.5651  160.4123 C   0  0  0  0  0  0  0  0  0  0  0  0
  150.7362  144.8392  159.6701 C   0  0  0  0  0  0  0  0  0  0  0  0
  151.0112  144.3239  158.2723 C   0  0  1  0  0  0  0  0  0  0  0  0
  152.5211  144.5808  158.1888 C   0  0  0  0  0  0  0  0  0  0  0  0
  146.9797  141.6267  154.9475 C   0  0  0  0  0  0  0  0  0  0  0  0
  146.8661  142.5318  153.8709 C   0  0  0  0  0  0  0  0  0  0  0  0
  145.7742  143.4228  153.8502 C   0  0  0  0  0  0  0  0  0  0  0  0
  144.8287  143.4588  154.8132 N   0  0  0  0  0  0  0  0  0  0  0  0
  144.9397  142.5901  155.8402 C   0  0  0  0  0  0  0  0  0  0  0  0
  145.9910  141.6586  155.9551 C   0  0  0  0  0  0  0  0  0  0  0  0
  147.0463  139.1216  156.1137 H   0  0  0  0  0  0  0  0  0  0  0  0
  147.9848  140.1910  157.1524 H   0  0  0  0  0  0  0  0  0  0  0  0
  148.7929  138.9419  156.2118 H   0  0  0  0  0  0  0  0  0  0  0  0
  148.1378  140.0545  154.1062 H   0  0  0  0  0  0  0  0  0  0  0  0
  150.3250  140.6584  155.0227 H   0  0  0  0  0  0  0  0  0  0  0  0
  149.6109  142.0406  154.2179 H   0  0  0  0  0  0  0  0  0  0  0  0
  149.4368  143.1443  156.0959 H   0  0  0  0  0  0  0  0  0  0  0  0
  151.2773  141.0620  156.9930 H   0  0  0  0  0  0  0  0  0  0  0  0
  151.6983  142.5953  156.2748 H   0  0  0  0  0  0  0  0  0  0  0  0
  150.0997  142.4558  158.8883 H   0  0  0  0  0  0  0  0  0  0  0  0
  152.0306  141.8972  160.0799 H   0  0  0  0  0  0  0  0  0  0  0  0
  153.0082  141.8991  158.6199 H   0  0  0  0  0  0  0  0  0  0  0  0
  153.8462  143.9203  159.8563 H   0  0  0  0  0  0  0  0  0  0  0  0
  151.9549  144.7591  161.4649 H   0  0  0  0  0  0  0  0  0  0  0  0
  149.8140  145.3036  159.9867 H   0  0  0  0  0  0  0  0  0  0  0  0
  150.4093  144.7946  157.4944 H   0  0  0  0  0  0  0  0  0  0  0  0
  152.7750  145.6429  158.2093 H   0  0  0  0  0  0  0  0  0  0  0  0
  153.0055  144.1209  157.3252 H   0  0  0  0  0  0  0  0  0  0  0  0
  147.5950  142.5478  153.0737 H   0  0  0  0  0  0  0  0  0  0  0  0
  145.6591  144.1270  153.0398 H   0  0  0  0  0  0  0  0  0  0  0  0
  144.1694  142.6398  156.5955 H   0  0  0  0  0  0  0  0  0  0  0  0
  146.0303  140.9864  156.7996 H   0  0  0  0  0  0  0  0  0  0  0  0
  148.9627  141.8471  156.9815 H   0  0  0  0  0  0  0  0  0  0  0  0
  1  2  1  0  0  0  0
  1 19  1  0  0  0  0
  1 20  1  0  0  0  0
  1 21  1  0  0  0  0
  2  3  1  0  0  0  0
  2 13  1  0  0  0  0
  2 22  1  0  0  0  0
  3  4  1  0  0  0  0
  3 23  1  0  0  0  0
  3 24  1  0  0  0  0
  4  5  1  0  0  0  0
  4 25  1  0  0  0  0
  4 41  1  0  0  0  0
  5  6  1  0  0  0  0
  5 26  1  0  0  0  0
  5 27  1  0  0  0  0
  6 11  1  0  0  0  0
  6  7  1  0  0  0  0
  6 28  1  0  0  0  0
  7  8  1  0  0  0  0
  7 29  1  0  0  0  0
  7 30  1  0  0  0  0
  8 12  1  0  0  0  0
  8  9  1  0  0  0  0
  8 31  1  0  0  0  0
  9 10  2  0  0  0  0
  9 32  1  0  0  0  0
 10 11  1  0  0  0  0
 10 33  1  0  0  0  0
 11 12  1  0  0  0  0
 11 34  1  0  0  0  0
 12 35  1  0  0  0  0
 12 36  1  0  0  0  0
 13 18  1  0  0  0  0
 13 14  2  0  0  0  0
 14 15  1  0  0  0  0
 14 37  1  0  0  0  0
 15 16  2  0  0  0  0
 15 38  1  0  0  0  0
 16 17  1  0  0  0  0
 17 18  2  0  0  0  0
 17 39  1  0  0  0  0
 18 40  1  0  0  0  0
M  CHG  1   4   1
M  END
> <s_m_source_file>
AV-unprocessed.smi

> <i_m_source_file_index>
3316

> <i_lp_mmshare_version>
43012

> <i_f3d_flags>
0

> <s_epik_input>
W2NIXTFbY0hdbltjSF1bY0hdYzFbQ0BIXShbQ0gzXSlbQ0gyXVtOSF1bQ0gyXVtDQEhdKFtDSDJdW0NASF0yMylbQ0BIXShbQ0gyXTMpW0NIXT1bQ0hdMg==

> <s_epik_cmdline>
J2VwaWtfcHl0aG9uJywgJy1waCcsICc3LjAnLCAnLXRuJywgJzgnLCAnLW1hJywgJzIwMCcsICctbWV0YWxfYmluZGluZycsICctaW1hZScsICc8aW5maWxlLm1hZT4nLCAnLW9tYWUnLCAnPG91dGZpbGUubWFlPic=

> <r_lp_tautomer_probability>
1

> <r_epik_Ionization_Penalty>
0.00280406

> <r_epik_Ionization_Penalty_Charging>
0.000446589

> <r_epik_Ionization_Penalty_Neutral>
0.00235747

> <r_epik_State_Penalty>
-0

> <r_epik_Charging_Adjusted_Penalty>
0.000446589

> <i_epik_Tot_Q>
1

> <i_epik_Tot_abs_Q>
1

> <r_epik_Metal_State_Penalty>
-0

> <b_epik_Metal_Only>
0

> <s_lp_Force_Field>
OPLS_2005

> <r_lp_Energy>
68.7939

> <b_lp_Chiralities_Consistent>
1

> <s_lp_Variant>
AV-unprocessed.smi:3316-3

> <Gold.Version>
5.8.1

> <Gold.Id.Protein>
6NUR|6NUR_protein|mol2

> <Gold.PLP.Fitness>
49.7611

> <Gold.PLP.PLP>
-44.5982

> <Gold.PLP.part.hbond>
-1.0000

> <Gold.PLP.part.metal>
0.0000

> <Gold.PLP.part.buried>
-7.5072

> <Gold.PLP.part.nonpolar>
-37.6353

> <Gold.PLP.part.repulsive>
0.2745

> <Gold.PLP.ligand.clash>
0.0000

> <Gold.PLP.ligand.torsion>
0.4639

> <Gold.PLP.Chemscore.Hbond>
2.0000

> <Gold.PLP.Chemscore.CHOScore>
0.0000

> <Gold.PLP.Chemscore.Metal>
0.0000

> <Gold.Chemscore.Hbonds>
donor molecule, donor type, donor heavy atom, donor atom, acceptor molecule, acceptor atom, score
      L1  H     4    25       P1  8028  2.00

> <Gold.PLP.Chemscore.Internal.Correction>
0.0908

> <Gold.Rescore>
     Score         DG    S(hbond)    S(metal)    S(lipo)     H(rot)  DE(clash)    DE(int)     intcor
     20.21     -20.71       1.00        0.00     131.54       1.36       0.07       0.43       ----

> <Gold.Chemscore.Fitness>
20.2080

> <Gold.Chemscore.DG>
-20.7129

> <Gold.Chemscore.ZeroCoef>
-5.4800

> <Gold.Chemscore.Hbond>
0.9984

> <Gold.Chemscore.Metal>
0.0000

> <Gold.Chemscore.Lipo>
131.5397

> <Gold.Chemscore.Internal_Hbond>
0.0000

> <Gold.Chemscore.DEClash>
0.0726

> <Gold.Chemscore.DEInternal>
0.4323

> <Gold.Chemscore.Rot>
1.3640

> <Gold.Chemscore.Internal.Correction>
   9.000000E+99

> <Gold.Chemscore.Hbonds>
donor molecule, donor type, donor heavy atom, donor atom, acceptor molecule, acceptor atom, score
      L1  H     4    25       P1  8028  1.00

> <Gold.Chemscore.Hbond.Weighted>
-3.3347

> <Gold.Chemscore.Metal.Weighted>
-0.0000

> <Gold.Chemscore.Lipo.Weighted>
-15.3901

> <Gold.Chemscore.Internal_Hbond.Weighted>
0.0000

> <Gold.Chemscore.DEClash.Weighted>
0.0726

> <Gold.Chemscore.DEInternal.Weighted>
0.4323

> <Gold.Chemscore.Rot.Weighted>
3.4919

> <Gold.Chemscore.Internal.Correction.Weighted>
   9.000000E+99

> <Gold.Protein.RotatedTorsions>
[ 6907 6896 6895 6894 ] final -178.78 input  -60.11 | X-H torsion
[ 7974 7965 7964 7962 ] final -166.11 input  175.53 | X-H torsion
[ 8008 7997 7996 7995 ] final -156.19 input   59.86 | X-H torsion
[ 10167 10162 10161 10158 ] final   32.81 input  -65.29 | X-H torsion
[ 10718 10713 10712 10709 ] final   51.95 input   66.30 | X-H torsion
[ 10763 10752 10751 10750 ] final  -96.69 input  -60.55 | X-H torsion
[ 11005 11000 10999 10996 ] final  167.56 input  -57.11 | X-H torsion

> <Gold.Protein.ActiveResidues>
 VAL166  LYS551  ARG553  GLY616  TRP617  ASP618  TYR619  PRO620  LYS621  CYS622 
 ASP623  PHE694  ASN695  SER759  ASP760  ASP761  ALA762  ILE779  LEU786  VAL792 
 PHE793  MET794  SER795  GLU796  ALA797  LYS798  CYS799  TRP800  GLU811  SER814 

> <Gold.Protein.RotatedAtoms>
  151.6428  133.3325  159.3133 H   0  0  0  0  0  0  0  0  0  0  0  0  # atno 6907 bound_to 6896
  150.7999  134.7089  159.6602 H   0  0  0  0  0  0  0  0  0  0  0  0  # atno 6908 bound_to 6896
  152.4090  134.6161  160.0090 H   0  0  0  0  0  0  0  0  0  0  0  0  # atno 6909 bound_to 6896
  144.7253  140.2715  143.6250 H   0  0  0  0  0  0  0  0  0  0  0  0  # atno 7974 bound_to 7965
  155.7134  140.0781  157.2361 H   0  0  0  0  0  0  0  0  0  0  0  0  # atno 8008 bound_to 7997
  154.4055  140.1626  156.2376 H   0  0  0  0  0  0  0  0  0  0  0  0  # atno 8009 bound_to 7997
  155.9262  140.3394  155.6215 H   0  0  0  0  0  0  0  0  0  0  0  0  # atno 8010 bound_to 7997
  140.4465  144.1112  150.6183 H   0  0  0  0  0  0  0  0  0  0  0  0  # atno 10167 bound_to 10162
  157.5029  130.8449  149.8338 H   0  0  0  0  0  0  0  0  0  0  0  0  # atno 10718 bound_to 10713
  154.7262  135.5074  153.8890 H   0  0  0  0  0  0  0  0  0  0  0  0  # atno 10763 bound_to 10752
  153.0907  135.6658  153.9869 H   0  0  0  0  0  0  0  0  0  0  0  0  # atno 10764 bound_to 10752
  153.9680  135.3041  155.3408 H   0  0  0  0  0  0  0  0  0  0  0  0  # atno 10765 bound_to 10752
  140.2780  134.7773  157.3734 H   0  0  0  0  0  0  0  0  0  0  0  0  # atno 11005 bound_to 11000
  145.8038  139.1975  143.2032 LP  0  0  0  0  0  0  0  0  0  0  0  0  # atno 17320 bound_to 7965
  146.0654  140.7926  142.9714 LP  0  0  0  0  0  0  0  0  0  0  0  0  # atno 17321 bound_to 7965
  140.4258  143.2590  151.9658 LP  0  0  0  0  0  0  0  0  0  0  0  0  # atno 17342 bound_to 10162
  139.4793  144.5789  151.7965 LP  0  0  0  0  0  0  0  0  0  0  0  0  # atno 17343 bound_to 10162
  156.0240  130.3786  150.1878 LP  0  0  0  0  0  0  0  0  0  0  0  0  # atno 17370 bound_to 10713
  157.0067  130.9939  151.3376 LP  0  0  0  0  0  0  0  0  0  0  0  0  # atno 17371 bound_to 10713
  140.1310  134.5095  155.8106 LP  0  0  0  0  0  0  0  0  0  0  0  0  # atno 17394 bound_to 11000
  141.2167  133.6790  156.7039 LP  0  0  0  0  0  0  0  0  0  0  0  0  # atno 17395 bound_to 11000

$$$$
