AV-unprocessed.smi:2567|AV-procd|sdf|10079|dock4
  -GOLD-   2272014103D 1   1.00000     0.00000
 Structure written by MMmdl.
 34 35  0  0  0  0  0  0  0  0  2 V2000
  152.6660  138.6265  154.3854 C   0  0  0  0  0  0  0  0  0  0  0  0
  151.5905  138.7528  155.4793 C   0  0  0  0  0  0  0  0  0  0  0  0
  151.3658  137.3777  156.1458 C   0  0  0  0  0  0  0  0  0  0  0  0
  152.0804  139.7095  156.5891 C   0  0  0  0  0  0  0  0  0  0  0  0
  150.3041  139.2570  154.8675 C   0  0  0  0  0  0  0  0  0  0  0  0
  150.2612  140.4042  154.1852 N   0  0  0  0  0  0  0  0  0  0  0  0
  149.0031  140.4087  153.6994 N   0  0  0  0  0  0  0  0  0  0  0  0
  148.3908  139.2787  154.0535 C   0  0  0  0  0  0  0  0  0  0  0  0
  146.9882  138.9645  153.6392 C   0  0  1  0  0  0  0  0  0  0  0  0
  146.8239  138.9199  152.1076 C   0  0  0  0  0  0  0  0  0  0  0  0
  145.4513  138.5035  151.7597 N   0  3  0  0  0  0  0  0  0  0  0  0
  145.0966  137.2214  152.4003 C   0  0  0  0  0  0  0  0  0  0  0  0
  145.3180  137.3096  153.9203 C   0  0  0  0  0  0  0  0  0  0  0  0
  146.6637  137.6895  154.1886 O   0  0  0  0  0  0  0  0  0  0  0  0
  149.1774  138.4828  154.7696 N   0  0  0  0  0  0  0  0  0  0  0  0
  148.6326  141.1619  153.1374 H   0  0  0  0  0  0  0  0  0  0  0  0
  153.6090  138.2634  154.7949 H   0  0  0  0  0  0  0  0  0  0  0  0
  152.8623  139.5882  153.9102 H   0  0  0  0  0  0  0  0  0  0  0  0
  152.3563  137.9312  153.6042 H   0  0  0  0  0  0  0  0  0  0  0  0
  151.0620  136.6214  155.4211 H   0  0  0  0  0  0  0  0  0  0  0  0
  150.5929  137.4285  156.9138 H   0  0  0  0  0  0  0  0  0  0  0  0
  152.2770  137.0136  156.6213 H   0  0  0  0  0  0  0  0  0  0  0  0
  152.9848  139.3317  157.0673 H   0  0  0  0  0  0  0  0  0  0  0  0
  151.3266  139.8364  157.3674 H   0  0  0  0  0  0  0  0  0  0  0  0
  152.3187  140.6988  156.1965 H   0  0  0  0  0  0  0  0  0  0  0  0
  146.3238  139.7185  154.0661 H   0  0  0  0  0  0  0  0  0  0  0  0
  147.0279  139.8967  151.6684 H   0  0  0  0  0  0  0  0  0  0  0  0
  147.5305  138.2148  151.6671 H   0  0  0  0  0  0  0  0  0  0  0  0
  144.8066  139.2132  152.0777 H   0  0  0  0  0  0  0  0  0  0  0  0
  144.0575  136.9793  152.1761 H   0  0  0  0  0  0  0  0  0  0  0  0
  145.7114  136.4261  151.9767 H   0  0  0  0  0  0  0  0  0  0  0  0
  144.6300  138.0249  154.3737 H   0  0  0  0  0  0  0  0  0  0  0  0
  145.1241  136.3429  154.3851 H   0  0  0  0  0  0  0  0  0  0  0  0
  145.3711  138.4110  150.7568 H   0  0  0  0  0  0  0  0  0  0  0  0
  1  2  1  0  0  0  0
  1 17  1  0  0  0  0
  1 18  1  0  0  0  0
  1 19  1  0  0  0  0
  2  3  1  0  0  0  0
  2  4  1  0  0  0  0
  2  5  1  0  0  0  0
  3 20  1  0  0  0  0
  3 21  1  0  0  0  0
  3 22  1  0  0  0  0
  4 23  1  0  0  0  0
  4 24  1  0  0  0  0
  4 25  1  0  0  0  0
  5 15  1  0  0  0  0
  5  6  2  0  0  0  0
  6  7  1  0  0  0  0
  7 16  1  0  0  0  0
  7  8  1  0  0  0  0
  8  9  1  0  0  0  0
  8 15  2  0  0  0  0
  9 14  1  0  0  0  0
  9 10  1  0  0  0  0
  9 26  1  0  0  0  0
 10 11  1  0  0  0  0
 10 27  1  0  0  0  0
 10 28  1  0  0  0  0
 11 12  1  0  0  0  0
 11 29  1  0  0  0  0
 11 34  1  0  0  0  0
 12 13  1  0  0  0  0
 12 30  1  0  0  0  0
 12 31  1  0  0  0  0
 13 14  1  0  0  0  0
 13 32  1  0  0  0  0
 13 33  1  0  0  0  0
M  CHG  1  11   1
M  END
> <s_m_source_file>
AV-unprocessed.smi

> <i_m_source_file_index>
2567

> <i_lp_mmshare_version>
43012

> <i_f3d_flags>
0

> <s_epik_input>
W0NIM11DKFtDSDNdKShbQ0gzXSljMW5bbkhdYyhuMSlbQ0BASF0yW0NIMl1bTkhdW0NIMl1bQ0gyXU8y

> <s_epik_cmdline>
J2VwaWtfcHl0aG9uJywgJy1waCcsICc3LjAnLCAnLXRuJywgJzgnLCAnLW1hJywgJzIwMCcsICctbWV0YWxfYmluZGluZycsICctaW1hZScsICc8aW5maWxlLm1hZT4nLCAnLW9tYWUnLCAnPG91dGZpbGUubWFlPic=

> <r_epik_Ionization_Penalty>
0.162344

> <r_epik_Ionization_Penalty_Charging>
0.125708

> <r_epik_Ionization_Penalty_Neutral>
0.0366363

> <r_epik_State_Penalty>
1.18286

> <r_epik_Charging_Adjusted_Penalty>
1.30856

> <i_epik_Tot_Q>
1

> <i_epik_Tot_abs_Q>
1

> <r_epik_Metal_State_Penalty>
1.49333

> <b_epik_Metal_Only>
0

> <s_lp_Force_Field>
OPLS_2005

> <r_lp_Energy>
12.4711

> <b_lp_Chiralities_Consistent>
1

> <s_lp_Variant>
AV-unprocessed.smi:2567-4

> <Gold.Version>
5.8.1

> <Gold.Id.Protein>
6NUR|6NUR_protein|mol2

> <Gold.PLP.Fitness>
33.8227

> <Gold.PLP.PLP>
-23.5238

> <Gold.PLP.part.hbond>
-3.7836

> <Gold.PLP.part.metal>
0.0000

> <Gold.PLP.part.buried>
-2.7311

> <Gold.PLP.part.nonpolar>
-17.4408

> <Gold.PLP.part.repulsive>
0.7191

> <Gold.PLP.ligand.clash>
0.0000

> <Gold.PLP.ligand.torsion>
0.1141

> <Gold.PLP.Chemscore.Hbond>
3.4400

> <Gold.PLP.Chemscore.CHOScore>
0.0000

> <Gold.PLP.Chemscore.Metal>
0.0000

> <Gold.Chemscore.Hbonds>
donor molecule, donor type, donor heavy atom, donor atom, acceptor molecule, acceptor atom, score
      L1  H    11    29       P1 10175  2.00
      L1  H    11    34       P1 10171  0.53
      P1  H  7989  7998       L1     6  0.91

> <Gold.PLP.Chemscore.Internal.Correction>
0.2070

> <Gold.Rescore>
     Score         DG    S(hbond)    S(metal)    S(lipo)     H(rot)  DE(clash)    DE(int)     intcor
     16.75     -16.86       2.84        0.00      43.77       1.26       0.00       0.11       ----

> <Gold.Chemscore.Fitness>
16.7530

> <Gold.Chemscore.DG>
-16.8623

> <Gold.Chemscore.ZeroCoef>
-5.4800

> <Gold.Chemscore.Hbond>
2.8439

> <Gold.Chemscore.Metal>
0.0000

> <Gold.Chemscore.Lipo>
43.7721

> <Gold.Chemscore.Internal_Hbond>
0.0000

> <Gold.Chemscore.DEClash>
0.0004

> <Gold.Chemscore.DEInternal>
0.1089

> <Gold.Chemscore.Rot>
1.2647

> <Gold.Chemscore.Internal.Correction>
   9.000000E+99

> <Gold.Chemscore.Hbonds>
donor molecule, donor type, donor heavy atom, donor atom, acceptor molecule, acceptor atom, score
      L1  H    11    29       P1 10175  1.00
      L1  H    11    34       P1 10171  0.52
      P1  H  7989  7998       L1     6  0.82

> <Gold.Chemscore.Hbond.Weighted>
-9.4985

> <Gold.Chemscore.Metal.Weighted>
-0.0000

> <Gold.Chemscore.Lipo.Weighted>
-5.1213

> <Gold.Chemscore.Internal_Hbond.Weighted>
0.0000

> <Gold.Chemscore.DEClash.Weighted>
0.0004

> <Gold.Chemscore.DEInternal.Weighted>
0.1089

> <Gold.Chemscore.Rot.Weighted>
3.2375

> <Gold.Chemscore.Internal.Correction.Weighted>
   9.000000E+99

> <Gold.Protein.RotatedTorsions>
[ 6907 6896 6895 6894 ] final  115.30 input  -60.11 | X-H torsion
[ 7974 7965 7964 7962 ] final  140.82 input  175.53 | X-H torsion
[ 8008 7997 7996 7995 ] final   53.34 input   59.86 | X-H torsion
[ 10167 10162 10161 10158 ] final  -45.26 input  -65.29 | X-H torsion
[ 10718 10713 10712 10709 ] final  -98.77 input   66.30 | X-H torsion
[ 10763 10752 10751 10750 ] final   34.50 input  -60.55 | X-H torsion
[ 11005 11000 10999 10996 ] final -174.86 input  -57.11 | X-H torsion

> <Gold.Protein.ActiveResidues>
 VAL166  LYS551  ARG553  GLY616  TRP617  ASP618  TYR619  PRO620  LYS621  CYS622 
 ASP623  PHE694  ASN695  SER759  ASP760  ASP761  ALA762  ILE779  LEU786  VAL792 
 PHE793  MET794  SER795  GLU796  ALA797  LYS798  CYS799  TRP800  GLU811  SER814 

> <Gold.Protein.RotatedAtoms>
  152.4750  133.8118  159.7006 H   0  0  0  0  0  0  0  0  0  0  0  0  # atno 6907 bound_to 6896
  150.8762  133.7426  159.2952 H   0  0  0  0  0  0  0  0  0  0  0  0  # atno 6908 bound_to 6896
  151.4945  135.1062  159.9864 H   0  0  0  0  0  0  0  0  0  0  0  0  # atno 6909 bound_to 6896
  144.9152  139.5240  143.5689 H   0  0  0  0  0  0  0  0  0  0  0  0  # atno 7974 bound_to 7965
  155.4667  140.3463  155.4320 H   0  0  0  0  0  0  0  0  0  0  0  0  # atno 8008 bound_to 7997
  156.1126  140.1465  156.9346 H   0  0  0  0  0  0  0  0  0  0  0  0  # atno 8009 bound_to 7997
  154.4767  140.0883  156.7258 H   0  0  0  0  0  0  0  0  0  0  0  0  # atno 8010 bound_to 7997
  140.6865  143.2888  151.3614 H   0  0  0  0  0  0  0  0  0  0  0  0  # atno 10167 bound_to 10162
  156.0116  130.5253  150.6572 H   0  0  0  0  0  0  0  0  0  0  0  0  # atno 10718 bound_to 10713
  153.0161  135.6359  154.1678 H   0  0  0  0  0  0  0  0  0  0  0  0  # atno 10763 bound_to 10752
  154.1417  135.2834  155.3160 H   0  0  0  0  0  0  0  0  0  0  0  0  # atno 10764 bound_to 10752
  154.6119  135.5553  153.7544 H   0  0  0  0  0  0  0  0  0  0  0  0  # atno 10765 bound_to 10752
  140.4698  134.6176  157.4877 H   0  0  0  0  0  0  0  0  0  0  0  0  # atno 11005 bound_to 11000
  146.3178  139.7989  142.8969 LP  0  0  0  0  0  0  0  0  0  0  0  0  # atno 17320 bound_to 7965
  145.3387  141.0283  143.3405 LP  0  0  0  0  0  0  0  0  0  0  0  0  # atno 17321 bound_to 7965
  139.6228  144.0874  152.2406 LP  0  0  0  0  0  0  0  0  0  0  0  0  # atno 17342 bound_to 10162
  140.0323  144.6071  150.7477 LP  0  0  0  0  0  0  0  0  0  0  0  0  # atno 17343 bound_to 10162
  157.4322  131.0850  151.1027 LP  0  0  0  0  0  0  0  0  0  0  0  0  # atno 17370 bound_to 10713
  157.1597  130.6220  149.5607 LP  0  0  0  0  0  0  0  0  0  0  0  0  # atno 17371 bound_to 10713
  139.9892  134.7012  155.9719 LP  0  0  0  0  0  0  0  0  0  0  0  0  # atno 17394 bound_to 11000
  141.1582  133.6541  156.4231 LP  0  0  0  0  0  0  0  0  0  0  0  0  # atno 17395 bound_to 11000

$$$$
