AV-unprocessed.smi:2446|AV-procd|sdf|9646|dock6
  -GOLD-   2272013283D 1   1.00000     0.00000
 Structure written by MMmdl.
 40 41  0  0  0  0  0  0  0  0  2 V2000
  148.2054  137.4205  154.8319 C   0  0  0  0  0  0  0  0  0  0  0  0
  147.8217  138.7719  154.2532 C   0  0  0  0  0  0  0  0  0  0  0  0
  146.8127  138.8452  153.2682 C   0  0  0  0  0  0  0  0  0  0  0  0
  146.4634  140.0382  152.7429 N   0  3  0  0  0  0  0  0  0  0  0  0
  147.0462  141.1972  153.1133 C   0  0  0  0  0  0  0  0  0  0  0  0
  148.0605  141.1930  154.0912 C   0  0  0  0  0  0  0  0  0  0  0  0
  148.4529  139.9664  154.6865 C   0  0  0  0  0  0  0  0  0  0  0  0
  149.4780  139.8688  155.6691 N   0  0  0  0  0  0  0  0  0  0  0  0
  149.7555  140.6936  156.6979 C   0  0  0  0  0  0  0  0  0  0  0  0
  149.1505  141.7343  156.9446 O   0  0  0  0  0  0  0  0  0  0  0  0
  150.7705  140.2776  157.4779 N   0  0  0  0  0  0  0  0  0  0  0  0
  151.3290  140.9243  158.6680 C   0  0  1  0  0  0  0  0  0  0  0  0
  152.7776  140.4489  158.8784 C   0  0  0  0  0  0  0  0  0  0  0  0
  153.4249  141.1482  160.0835 C   0  0  0  0  0  0  0  0  0  0  0  0
  153.3631  142.6773  159.9423 C   0  0  0  0  0  0  0  0  0  0  0  0
  151.9147  143.1707  159.7422 C   0  0  1  0  0  0  0  0  0  0  0  0
  151.8352  144.7063  159.6190 C   0  0  0  0  0  0  0  0  0  0  0  0
  152.5434  145.1364  158.5743 F   0  0  0  0  0  0  0  0  0  0  0  0
  150.5662  145.0848  159.4652 F   0  0  0  0  0  0  0  0  0  0  0  0
  152.3084  145.2784  160.7261 F   0  0  0  0  0  0  0  0  0  0  0  0
  151.2777  142.4609  158.5289 C   0  0  0  0  0  0  0  0  0  0  0  0
  147.6382  136.6146  154.3653 H   0  0  0  0  0  0  0  0  0  0  0  0
  148.0072  137.3948  155.9038 H   0  0  0  0  0  0  0  0  0  0  0  0
  149.2656  137.2219  154.6718 H   0  0  0  0  0  0  0  0  0  0  0  0
  146.2769  137.9890  152.8846 H   0  0  0  0  0  0  0  0  0  0  0  0
  146.6906  142.0876  152.6154 H   0  0  0  0  0  0  0  0  0  0  0  0
  148.5249  142.1308  154.3540 H   0  0  0  0  0  0  0  0  0  0  0  0
  150.0214  139.0187  155.6376 H   0  0  0  0  0  0  0  0  0  0  0  0
  151.2159  139.4131  157.2048 H   0  0  0  0  0  0  0  0  0  0  0  0
  150.7554  140.6257  159.5475 H   0  0  0  0  0  0  0  0  0  0  0  0
  152.7994  139.3686  159.0267 H   0  0  0  0  0  0  0  0  0  0  0  0
  153.3689  140.6504  157.9838 H   0  0  0  0  0  0  0  0  0  0  0  0
  152.9162  140.8446  160.9991 H   0  0  0  0  0  0  0  0  0  0  0  0
  154.4619  140.8268  160.1854 H   0  0  0  0  0  0  0  0  0  0  0  0
  153.7985  143.1392  160.8288 H   0  0  0  0  0  0  0  0  0  0  0  0
  153.9808  142.9886  159.0989 H   0  0  0  0  0  0  0  0  0  0  0  0
  151.3436  142.8875  160.6281 H   0  0  0  0  0  0  0  0  0  0  0  0
  151.7939  142.7630  157.6164 H   0  0  0  0  0  0  0  0  0  0  0  0
  150.2446  142.7891  158.4158 H   0  0  0  0  0  0  0  0  0  0  0  0
  145.7320  140.0644  152.0320 H   0  0  0  0  0  0  0  0  0  0  0  0
  1  2  1  0  0  0  0
  1 22  1  0  0  0  0
  1 23  1  0  0  0  0
  1 24  1  0  0  0  0
  2  7  1  0  0  0  0
  2  3  2  0  0  0  0
  3  4  1  0  0  0  0
  3 25  1  0  0  0  0
  4  5  2  0  0  0  0
  4 40  1  0  0  0  0
  5  6  1  0  0  0  0
  5 26  1  0  0  0  0
  6  7  2  0  0  0  0
  6 27  1  0  0  0  0
  7  8  1  0  0  0  0
  8  9  1  0  0  0  0
  8 28  1  0  0  0  0
  9 10  2  0  0  0  0
  9 11  1  0  0  0  0
 11 12  1  0  0  0  0
 11 29  1  0  0  0  0
 12 21  1  0  0  0  0
 12 13  1  0  0  0  0
 12 30  1  0  0  0  0
 13 14  1  0  0  0  0
 13 31  1  0  0  0  0
 13 32  1  0  0  0  0
 14 15  1  0  0  0  0
 14 33  1  0  0  0  0
 14 34  1  0  0  0  0
 15 16  1  0  0  0  0
 15 35  1  0  0  0  0
 15 36  1  0  0  0  0
 16 17  1  0  0  0  0
 16 21  1  0  0  0  0
 16 37  1  0  0  0  0
 17 18  1  0  0  0  0
 17 19  1  0  0  0  0
 17 20  1  0  0  0  0
 21 38  1  0  0  0  0
 21 39  1  0  0  0  0
M  CHG  1   4   1
M  END
> <s_m_source_file>
AV-unprocessed.smi

> <i_m_source_file_index>
2446

> <i_lp_mmshare_version>
43012

> <i_f3d_flags>
0

> <s_epik_input>
W0NIM11jMVtjSF1uW2NIXVtjSF1jMVtOSF1DKD1PKVtOSF1bQ0BASF0yW0NIMl1bQ0gyXVtDSDJdW0NAQEhdKEMoRikoRilGKVtDSDJdMg==

> <s_epik_cmdline>
J2VwaWtfcHl0aG9uJywgJy1waCcsICc3LjAnLCAnLXRuJywgJzgnLCAnLW1hJywgJzIwMCcsICctbWV0YWxfYmluZGluZycsICctaW1hZScsICc8aW5maWxlLm1hZT4nLCAnLW9tYWUnLCAnPG91dGZpbGUubWFlPic=

> <r_epik_Ionization_Penalty>
0.736582

> <r_epik_Ionization_Penalty_Charging>
0.736562

> <r_epik_Ionization_Penalty_Neutral>
1.98379e-05

> <r_epik_State_Penalty>
0.762314

> <r_epik_Charging_Adjusted_Penalty>
1.49888

> <i_epik_Tot_Q>
1

> <i_epik_Tot_abs_Q>
1

> <r_epik_Metal_State_Penalty>
0.914579

> <b_epik_Metal_Only>
0

> <s_lp_Force_Field>
OPLS_2005

> <r_lp_Energy>
31.4788

> <b_lp_Chiralities_Consistent>
1

> <s_lp_Variant>
AV-unprocessed.smi:2446-6

> <Gold.Version>
5.8.1

> <Gold.Id.Protein>
6NUR|6NUR_protein|mol2

> <Gold.PLP.Fitness>
41.8428

> <Gold.PLP.PLP>
-39.9787

> <Gold.PLP.part.hbond>
-1.0000

> <Gold.PLP.part.metal>
0.0000

> <Gold.PLP.part.buried>
-7.7489

> <Gold.PLP.part.nonpolar>
-32.3094

> <Gold.PLP.part.repulsive>
0.2144

> <Gold.PLP.ligand.clash>
0.0000

> <Gold.PLP.ligand.torsion>
0.6476

> <Gold.PLP.Chemscore.Hbond>
1.0468

> <Gold.PLP.Chemscore.CHOScore>
0.0000

> <Gold.PLP.Chemscore.Metal>
0.0000

> <Gold.Chemscore.Hbonds>
donor molecule, donor type, donor heavy atom, donor atom, acceptor molecule, acceptor atom, score
      L1  H     4    40       P1 10175  0.75

> <Gold.PLP.Chemscore.Internal.Correction>
0.0190

> <Gold.Rescore>
     Score         DG    S(hbond)    S(metal)    S(lipo)     H(rot)  DE(clash)    DE(int)     intcor
     13.94     -16.74       0.82        0.00      94.79       1.00       0.74       2.06       ----

> <Gold.Chemscore.Fitness>
13.9404

> <Gold.Chemscore.DG>
-16.7436

> <Gold.Chemscore.ZeroCoef>
-5.4800

> <Gold.Chemscore.Hbond>
0.8182

> <Gold.Chemscore.Metal>
0.0000

> <Gold.Chemscore.Lipo>
94.7924

> <Gold.Chemscore.Internal_Hbond>
0.0000

> <Gold.Chemscore.DEClash>
0.7414

> <Gold.Chemscore.DEInternal>
2.0618

> <Gold.Chemscore.Rot>
1.0000

> <Gold.Chemscore.Internal.Correction>
   9.000000E+99

> <Gold.Chemscore.Hbonds>
donor molecule, donor type, donor heavy atom, donor atom, acceptor molecule, acceptor atom, score
      L1  H     4    40       P1 10175  0.20

> <Gold.Chemscore.Hbond.Weighted>
-2.7329

> <Gold.Chemscore.Metal.Weighted>
-0.0000

> <Gold.Chemscore.Lipo.Weighted>
-11.0907

> <Gold.Chemscore.Internal_Hbond.Weighted>
0.0000

> <Gold.Chemscore.DEClash.Weighted>
0.7414

> <Gold.Chemscore.DEInternal.Weighted>
2.0618

> <Gold.Chemscore.Rot.Weighted>
2.5600

> <Gold.Chemscore.Internal.Correction.Weighted>
   9.000000E+99

> <Gold.Protein.RotatedTorsions>
[ 6907 6896 6895 6894 ] final -109.30 input  -60.11 | X-H torsion
[ 7974 7965 7964 7962 ] final -113.00 input  175.53 | X-H torsion
[ 8008 7997 7996 7995 ] final  -80.06 input   59.86 | X-H torsion
[ 10167 10162 10161 10158 ] final  -44.68 input  -65.29 | X-H torsion
[ 10718 10713 10712 10709 ] final  103.38 input   66.30 | X-H torsion
[ 10763 10752 10751 10750 ] final  134.31 input  -60.55 | X-H torsion
[ 11005 11000 10999 10996 ] final -174.21 input  -57.11 | X-H torsion

> <Gold.Protein.ActiveResidues>
 VAL166  LYS551  ARG553  GLY616  TRP617  ASP618  TYR619  PRO620  LYS621  CYS622 
 ASP623  PHE694  ASN695  SER759  ASP760  ASP761  ALA762  ILE779  LEU786  VAL792 
 PHE793  MET794  SER795  GLU796  ALA797  LYS798  CYS799  TRP800  GLU811  SER814 

> <Gold.Protein.RotatedAtoms>
  150.7553  133.9550  159.3497 H   0  0  0  0  0  0  0  0  0  0  0  0  # atno 6907 bound_to 6896
  151.7471  135.0839  160.0334 H   0  0  0  0  0  0  0  0  0  0  0  0  # atno 6908 bound_to 6896
  152.3491  133.6120  159.5967 H   0  0  0  0  0  0  0  0  0  0  0  0  # atno 6909 bound_to 6896
  145.1373  140.8758  143.3723 H   0  0  0  0  0  0  0  0  0  0  0  0  # atno 7974 bound_to 7965
  154.5846  140.0668  156.9153 H   0  0  0  0  0  0  0  0  0  0  0  0  # atno 8008 bound_to 7997
  155.2402  140.3344  155.4275 H   0  0  0  0  0  0  0  0  0  0  0  0  # atno 8009 bound_to 7997
  156.2213  140.1800  156.7453 H   0  0  0  0  0  0  0  0  0  0  0  0  # atno 8010 bound_to 7997
  140.6887  143.2918  151.3530 H   0  0  0  0  0  0  0  0  0  0  0  0  # atno 10167 bound_to 10162
  157.6774  131.0777  150.5547 H   0  0  0  0  0  0  0  0  0  0  0  0  # atno 10718 bound_to 10713
  153.8215  135.3115  155.3410 H   0  0  0  0  0  0  0  0  0  0  0  0  # atno 10763 bound_to 10752
  154.8011  135.4726  154.0280 H   0  0  0  0  0  0  0  0  0  0  0  0  # atno 10764 bound_to 10752
  153.1690  135.6874  153.8724 H   0  0  0  0  0  0  0  0  0  0  0  0  # atno 10765 bound_to 10752
  140.4770  134.6111  157.4905 H   0  0  0  0  0  0  0  0  0  0  0  0  # atno 11005 bound_to 11000
  145.0571  139.3135  143.5899 LP  0  0  0  0  0  0  0  0  0  0  0  0  # atno 17320 bound_to 7965
  146.3508  139.9999  142.8677 LP  0  0  0  0  0  0  0  0  0  0  0  0  # atno 17321 bound_to 7965
  139.6270  144.0795  152.2443 LP  0  0  0  0  0  0  0  0  0  0  0  0  # atno 17342 bound_to 10162
  140.0258  144.6119  150.7529 LP  0  0  0  0  0  0  0  0  0  0  0  0  # atno 17343 bound_to 10162
  156.5851  130.4314  149.5960 LP  0  0  0  0  0  0  0  0  0  0  0  0  # atno 17370 bound_to 10713
  156.2629  130.6973  151.1747 LP  0  0  0  0  0  0  0  0  0  0  0  0  # atno 17371 bound_to 10713
  139.9849  134.7077  155.9791 LP  0  0  0  0  0  0  0  0  0  0  0  0  # atno 17394 bound_to 11000
  141.1549  133.6544  156.4131 LP  0  0  0  0  0  0  0  0  0  0  0  0  # atno 17395 bound_to 11000

$$$$
