AV-unprocessed.smi:2321|AV-procd|sdf|9281|dock1
  -GOLD-   2272012503D 1   1.00000     0.00000
 Structure written by MMmdl.
 36 37  0  0  0  0  0  0  0  0  1 V2000
  150.6651  140.5583  156.0785 O   0  0  0  0  0  0  0  0  0  0  0  0
  150.2312  141.7081  156.0673 C   0  0  0  0  0  0  0  0  0  0  0  0
  150.5702  142.6671  156.9510 N   0  0  0  0  0  0  0  0  0  0  0  0
  151.4754  142.5982  158.0439 C   0  0  0  0  0  0  0  0  0  0  0  0
  151.9446  141.3900  158.6137 C   0  0  0  0  0  0  0  0  0  0  0  0
  152.8280  141.4604  159.7097 C   0  0  0  0  0  0  0  0  0  0  0  0
  153.2487  142.6222  160.2534 N   0  0  0  0  0  0  0  0  0  0  0  0
  152.7885  143.7716  159.7155 C   0  0  0  0  0  0  0  0  0  0  0  0
  151.9020  143.8130  158.6210 C   0  0  0  0  0  0  0  0  0  0  0  0
  151.4739  145.0022  158.1322 F   0  0  0  0  0  0  0  0  0  0  0  0
  149.3698  142.1147  155.1165 N   0  0  0  0  0  0  0  0  0  0  0  0
  148.7966  141.3419  154.0088 C   0  0  2  0  0  0  0  0  0  0  0  0
  147.4971  142.0065  153.5152 C   0  0  0  0  0  0  0  0  0  0  0  0
  146.3468  141.8559  154.5248 C   0  0  0  0  0  0  0  0  0  0  0  0
  146.1107  140.3820  154.8886 C   0  0  0  0  0  0  0  0  0  0  0  0
  147.3934  139.7166  155.4301 C   0  0  1  0  0  0  0  0  0  0  0  0
  147.1609  138.2414  155.8167 C   0  0  0  0  0  0  0  0  0  0  0  0
  146.1907  138.1358  156.7252 F   0  0  0  0  0  0  0  0  0  0  0  0
  146.8200  137.5363  154.7381 F   0  0  0  0  0  0  0  0  0  0  0  0
  148.2798  137.7187  156.3184 F   0  0  0  0  0  0  0  0  0  0  0  0
  148.5424  139.8703  154.4079 C   0  0  0  0  0  0  0  0  0  0  0  0
  150.1890  143.5840  156.7693 H   0  0  0  0  0  0  0  0  0  0  0  0
  151.6399  140.4225  158.2462 H   0  0  0  0  0  0  0  0  0  0  0  0
  153.2028  140.5565  160.1663 H   0  0  0  0  0  0  0  0  0  0  0  0
  153.1357  144.6864  160.1725 H   0  0  0  0  0  0  0  0  0  0  0  0
  149.0909  143.0845  155.1568 H   0  0  0  0  0  0  0  0  0  0  0  0
  149.5019  141.3618  153.1762 H   0  0  0  0  0  0  0  0  0  0  0  0
  147.6693  143.0615  153.2980 H   0  0  0  0  0  0  0  0  0  0  0  0
  147.2000  141.5486  152.5708 H   0  0  0  0  0  0  0  0  0  0  0  0
  146.5693  142.4245  155.4284 H   0  0  0  0  0  0  0  0  0  0  0  0
  145.4341  142.2849  154.1104 H   0  0  0  0  0  0  0  0  0  0  0  0
  145.3130  140.3176  155.6291 H   0  0  0  0  0  0  0  0  0  0  0  0
  145.7571  139.8433  154.0087 H   0  0  0  0  0  0  0  0  0  0  0  0
  147.6811  140.2455  156.3400 H   0  0  0  0  0  0  0  0  0  0  0  0
  148.2987  139.3023  153.5094 H   0  0  0  0  0  0  0  0  0  0  0  0
  149.4553  139.4226  154.8009 H   0  0  0  0  0  0  0  0  0  0  0  0
  1  2  2  0  0  0  0
  2  3  1  0  0  0  0
  2 11  1  0  0  0  0
  3  4  1  0  0  0  0
  3 22  1  0  0  0  0
  4  9  1  0  0  0  0
  4  5  2  0  0  0  0
  5  6  1  0  0  0  0
  5 23  1  0  0  0  0
  6  7  2  0  0  0  0
  6 24  1  0  0  0  0
  7  8  1  0  0  0  0
  8  9  2  0  0  0  0
  8 25  1  0  0  0  0
  9 10  1  0  0  0  0
 11 12  1  0  0  0  0
 11 26  1  0  0  0  0
 12 21  1  0  0  0  0
 12 13  1  0  0  0  0
 12 27  1  0  0  0  0
 13 14  1  0  0  0  0
 13 28  1  0  0  0  0
 13 29  1  0  0  0  0
 14 15  1  0  0  0  0
 14 30  1  0  0  0  0
 14 31  1  0  0  0  0
 15 16  1  0  0  0  0
 15 32  1  0  0  0  0
 15 33  1  0  0  0  0
 16 17  1  0  0  0  0
 16 21  1  0  0  0  0
 16 34  1  0  0  0  0
 17 18  1  0  0  0  0
 17 19  1  0  0  0  0
 17 20  1  0  0  0  0
 21 35  1  0  0  0  0
 21 36  1  0  0  0  0
M  END
> <s_m_source_file>
AV-unprocessed.smi

> <i_m_source_file_index>
2321

> <i_lp_mmshare_version>
43012

> <i_f3d_flags>
0

> <s_epik_input>
RkMoRikoRilbQ0BASF0oW0NIMl0xKVtDSDJdW0NIMl1bQ0gyXVtDQEhdMVtOSF1DKD1PKVtOSF1jMltjSF1bY0hdbltjSF1jMkY=

> <s_epik_cmdline>
J2VwaWtfcHl0aG9uJywgJy1waCcsICc3LjAnLCAnLXRuJywgJzgnLCAnLW1hJywgJzIwMCcsICctbWV0YWxfYmluZGluZycsICctaW1hZScsICc8aW5maWxlLm1hZT4nLCAnLW9tYWUnLCAnPG91dGZpbGUubWFlPic=

> <r_epik_Ionization_Penalty>
0.00319438

> <r_epik_Ionization_Penalty_Charging>
0

> <r_epik_Ionization_Penalty_Neutral>
0.00319438

> <r_epik_State_Penalty>
0.00222511

> <r_epik_Charging_Adjusted_Penalty>
0.00222511

> <i_epik_Tot_Q>
0

> <i_epik_Tot_abs_Q>
0

> <r_epik_Metal_State_Penalty>
-0

> <b_epik_Metal_Only>
0

> <s_lp_Force_Field>
OPLS_2005

> <r_lp_Energy>
25.9848

> <b_lp_Chiralities_Consistent>
1

> <s_lp_Variant>
AV-unprocessed.smi:2321-1

> <Gold.Version>
5.8.1

> <Gold.Id.Protein>
6NUR|6NUR_protein|mol2

> <Gold.PLP.Fitness>
40.6045

> <Gold.PLP.PLP>
-35.6933

> <Gold.PLP.part.hbond>
-2.0000

> <Gold.PLP.part.metal>
0.0000

> <Gold.PLP.part.buried>
-6.3763

> <Gold.PLP.part.nonpolar>
-27.2624

> <Gold.PLP.part.repulsive>
0.2388

> <Gold.PLP.ligand.clash>
0.0000

> <Gold.PLP.ligand.torsion>
0.3933

> <Gold.PLP.Chemscore.Hbond>
1.8892

> <Gold.PLP.Chemscore.CHOScore>
0.0000

> <Gold.PLP.Chemscore.Metal>
0.0000

> <Gold.Chemscore.Hbonds>
donor molecule, donor type, donor heavy atom, donor atom, acceptor molecule, acceptor atom, score
      L1  H     3    22       P1  8028  0.92
      L1  H    11    26       P1  8028  1.00

> <Gold.PLP.Chemscore.Internal.Correction>
0.0302

> <Gold.Rescore>
     Score         DG    S(hbond)    S(metal)    S(lipo)     H(rot)  DE(clash)    DE(int)     intcor
     15.70     -18.92       1.95        0.00      80.94       1.00       0.23       2.99       ----

> <Gold.Chemscore.Fitness>
15.7003

> <Gold.Chemscore.DG>
-18.9188

> <Gold.Chemscore.ZeroCoef>
-5.4800

> <Gold.Chemscore.Hbond>
1.9547

> <Gold.Chemscore.Metal>
0.0000

> <Gold.Chemscore.Lipo>
80.9416

> <Gold.Chemscore.Internal_Hbond>
0.0000

> <Gold.Chemscore.DEClash>
0.2290

> <Gold.Chemscore.DEInternal>
2.9895

> <Gold.Chemscore.Rot>
1.0000

> <Gold.Chemscore.Internal.Correction>
   9.000000E+99

> <Gold.Chemscore.Hbonds>
donor molecule, donor type, donor heavy atom, donor atom, acceptor molecule, acceptor atom, score
      L1  H     3    22       P1  8028  0.84
      L1  H    11    26       P1  8028  1.00

> <Gold.Chemscore.Hbond.Weighted>
-6.5286

> <Gold.Chemscore.Metal.Weighted>
-0.0000

> <Gold.Chemscore.Lipo.Weighted>
-9.4702

> <Gold.Chemscore.Internal_Hbond.Weighted>
0.0000

> <Gold.Chemscore.DEClash.Weighted>
0.2290

> <Gold.Chemscore.DEInternal.Weighted>
2.9895

> <Gold.Chemscore.Rot.Weighted>
2.5600

> <Gold.Chemscore.Internal.Correction.Weighted>
   9.000000E+99

> <Gold.Protein.RotatedTorsions>
[ 6907 6896 6895 6894 ] final -148.00 input  -60.11 | X-H torsion
[ 7974 7965 7964 7962 ] final  136.75 input  175.53 | X-H torsion
[ 8008 7997 7996 7995 ] final -106.48 input   59.86 | X-H torsion
[ 10167 10162 10161 10158 ] final   78.45 input  -65.29 | X-H torsion
[ 10718 10713 10712 10709 ] final  -99.68 input   66.30 | X-H torsion
[ 10763 10752 10751 10750 ] final  141.07 input  -60.55 | X-H torsion
[ 11005 11000 10999 10996 ] final    6.04 input  -57.11 | X-H torsion

> <Gold.Protein.ActiveResidues>
 VAL166  LYS551  ARG553  GLY616  TRP617  ASP618  TYR619  PRO620  LYS621  CYS622 
 ASP623  PHE694  ASN695  SER759  ASP760  ASP761  ALA762  ILE779  LEU786  VAL792 
 PHE793  MET794  SER795  GLU796  ALA797  LYS798  CYS799  TRP800  GLU811  SER814 

> <Gold.Protein.RotatedAtoms>
  151.1636  133.4829  159.2593 H   0  0  0  0  0  0  0  0  0  0  0  0  # atno 6907 bound_to 6896
  151.1429  135.0188  159.8643 H   0  0  0  0  0  0  0  0  0  0  0  0  # atno 6908 bound_to 6896
  152.5462  134.1528  159.8578 H   0  0  0  0  0  0  0  0  0  0  0  0  # atno 6909 bound_to 6896
  144.9534  139.4792  143.5514 H   0  0  0  0  0  0  0  0  0  0  0  0  # atno 7974 bound_to 7965
  154.9152  140.0409  157.1968 H   0  0  0  0  0  0  0  0  0  0  0  0  # atno 8008 bound_to 7997
  154.8308  140.2899  155.5702 H   0  0  0  0  0  0  0  0  0  0  0  0  # atno 8009 bound_to 7997
  156.2986  140.2501  156.3233 H   0  0  0  0  0  0  0  0  0  0  0  0  # atno 8010 bound_to 7997
  139.9708  144.5895  150.7987 H   0  0  0  0  0  0  0  0  0  0  0  0  # atno 10167 bound_to 10162
  156.0141  130.5293  150.6706 H   0  0  0  0  0  0  0  0  0  0  0  0  # atno 10718 bound_to 10713
  153.9331  135.2988  155.3445 H   0  0  0  0  0  0  0  0  0  0  0  0  # atno 10763 bound_to 10752
  154.7516  135.4977  153.9302 H   0  0  0  0  0  0  0  0  0  0  0  0  # atno 10764 bound_to 10752
  153.1081  135.6752  153.9655 H   0  0  0  0  0  0  0  0  0  0  0  0  # atno 10765 bound_to 10752
  140.5639  134.0166  155.7982 H   0  0  0  0  0  0  0  0  0  0  0  0  # atno 11005 bound_to 11000
  146.3329  139.8635  142.8852 LP  0  0  0  0  0  0  0  0  0  0  0  0  # atno 17320 bound_to 7965
  145.2809  141.0138  143.3718 LP  0  0  0  0  0  0  0  0  0  0  0  0  # atno 17321 bound_to 7965
  140.7522  143.2987  151.3138 LP  0  0  0  0  0  0  0  0  0  0  0  0  # atno 17342 bound_to 10162
  139.6482  144.0411  152.2607 LP  0  0  0  0  0  0  0  0  0  0  0  0  # atno 17343 bound_to 10162
  157.4430  131.0863  151.0925 LP  0  0  0  0  0  0  0  0  0  0  0  0  # atno 17370 bound_to 10713
  157.1463  130.6165  149.5569 LP  0  0  0  0  0  0  0  0  0  0  0  0  # atno 17371 bound_to 10713
  141.1097  133.9636  157.2932 LP  0  0  0  0  0  0  0  0  0  0  0  0  # atno 17394 bound_to 11000
  139.9394  135.0193  156.8660 LP  0  0  0  0  0  0  0  0  0  0  0  0  # atno 17395 bound_to 11000

$$$$
