AV-unprocessed.smi:3331|AV-procd|sdf|12827|dock1
  -GOLD-   2272019203D 1   1.00000     0.00000
 Structure written by MMmdl.
 46 47  0  0  0  0  0  0  0  0  1 V2000
  154.3604  141.0519  160.6768 C   0  0  0  0  0  0  0  0  0  0  0  0
  153.4689  141.6467  159.5781 C   0  0  2  0  0  0  0  0  0  0  0  0
  153.3727  143.1851  159.6947 C   0  0  0  0  0  0  0  0  0  0  0  0
  152.3762  143.7951  158.6819 C   0  0  2  0  0  0  0  0  0  0  0  0
  152.1993  145.3035  158.9032 C   0  0  0  0  0  0  0  0  0  0  0  0
  151.0268  143.0477  158.7415 C   0  0  0  0  0  0  0  0  0  0  0  0
  151.2775  141.6213  158.5006 N   0  0  0  0  0  0  0  0  0  0  0  0
  150.9525  141.0151  157.3309 C   0  0  0  0  0  0  0  0  0  0  0  0
  151.3032  139.8601  157.0793 O   0  0  0  0  0  0  0  0  0  0  0  0
  150.1043  141.7642  156.2751 C   0  0  1  0  0  0  0  0  0  0  0  0
  149.7968  140.8328  155.0918 C   0  0  0  0  0  0  0  0  0  0  0  0
  148.8428  142.2870  156.8276 N   0  0  0  0  0  0  0  0  0  0  0  0
  147.8285  141.2551  157.0265 C   0  0  0  0  0  0  0  0  0  0  0  0
  146.4453  141.9046  157.1873 C   0  0  0  0  0  0  0  0  0  0  0  0
  145.9669  142.4666  155.9367 N   0  0  0  0  0  0  0  0  0  0  0  0
  146.6847  142.7570  154.7955 C   0  0  0  0  0  0  0  0  0  0  0  0
  145.8030  143.2464  153.8748 C   0  0  0  0  0  0  0  0  0  0  0  0
  144.5534  143.2165  154.5549 C   0  0  0  0  0  0  0  0  0  0  0  0
  144.6548  142.7509  155.7893 N   0  0  0  0  0  0  0  0  0  0  0  0
  152.0547  141.0328  159.5979 C   0  0  0  0  0  0  0  0  0  0  0  0
  153.9536  141.2500  161.6690 H   0  0  0  0  0  0  0  0  0  0  0  0
  155.3650  141.4740  160.6380 H   0  0  0  0  0  0  0  0  0  0  0  0
  154.4523  139.9714  160.5641 H   0  0  0  0  0  0  0  0  0  0  0  0
  153.9275  141.4077  158.6172 H   0  0  0  0  0  0  0  0  0  0  0  0
  153.0558  143.4459  160.7057 H   0  0  0  0  0  0  0  0  0  0  0  0
  154.3592  143.6301  159.5595 H   0  0  0  0  0  0  0  0  0  0  0  0
  152.7892  143.6573  157.6812 H   0  0  0  0  0  0  0  0  0  0  0  0
  151.7873  145.5143  159.8906 H   0  0  0  0  0  0  0  0  0  0  0  0
  151.5238  145.7320  158.1622 H   0  0  0  0  0  0  0  0  0  0  0  0
  153.1528  145.8263  158.8210 H   0  0  0  0  0  0  0  0  0  0  0  0
  150.5612  143.1783  159.7195 H   0  0  0  0  0  0  0  0  0  0  0  0
  150.3274  143.4799  158.0245 H   0  0  0  0  0  0  0  0  0  0  0  0
  150.6512  142.6273  155.8975 H   0  0  0  0  0  0  0  0  0  0  0  0
  150.7093  140.4375  154.6444 H   0  0  0  0  0  0  0  0  0  0  0  0
  149.2549  141.3633  154.3082 H   0  0  0  0  0  0  0  0  0  0  0  0
  149.1850  139.9838  155.4001 H   0  0  0  0  0  0  0  0  0  0  0  0
  148.9871  142.7912  157.6904 H   0  0  0  0  0  0  0  0  0  0  0  0
  147.7978  140.5437  156.2006 H   0  0  0  0  0  0  0  0  0  0  0  0
  148.0823  140.6860  157.9213 H   0  0  0  0  0  0  0  0  0  0  0  0
  145.7235  141.1604  157.5269 H   0  0  0  0  0  0  0  0  0  0  0  0
  146.4663  142.6883  157.9458 H   0  0  0  0  0  0  0  0  0  0  0  0
  147.7495  142.5868  154.7328 H   0  0  0  0  0  0  0  0  0  0  0  0
  146.0173  143.5724  152.8679 H   0  0  0  0  0  0  0  0  0  0  0  0
  143.5820  143.5172  154.1910 H   0  0  0  0  0  0  0  0  0  0  0  0
  152.0965  139.9458  159.5696 H   0  0  0  0  0  0  0  0  0  0  0  0
  151.5649  141.2634  160.5453 H   0  0  0  0  0  0  0  0  0  0  0  0
  1  2  1  0  0  0  0
  1 21  1  0  0  0  0
  1 22  1  0  0  0  0
  1 23  1  0  0  0  0
  2 20  1  0  0  0  0
  2  3  1  0  0  0  0
  2 24  1  0  0  0  0
  3  4  1  0  0  0  0
  3 25  1  0  0  0  0
  3 26  1  0  0  0  0
  4  5  1  0  0  0  0
  4  6  1  0  0  0  0
  4 27  1  0  0  0  0
  5 28  1  0  0  0  0
  5 29  1  0  0  0  0
  5 30  1  0  0  0  0
  6  7  1  0  0  0  0
  6 31  1  0  0  0  0
  6 32  1  0  0  0  0
  7  8  1  0  0  0  0
  7 20  1  0  0  0  0
  8  9  2  0  0  0  0
  8 10  1  0  0  0  0
 10 11  1  0  0  0  0
 10 12  1  0  0  0  0
 10 33  1  0  0  0  0
 11 34  1  0  0  0  0
 11 35  1  0  0  0  0
 11 36  1  0  0  0  0
 12 13  1  0  0  0  0
 12 37  1  0  0  0  0
 13 14  1  0  0  0  0
 13 38  1  0  0  0  0
 13 39  1  0  0  0  0
 14 15  1  0  0  0  0
 14 40  1  0  0  0  0
 14 41  1  0  0  0  0
 15 19  1  0  0  0  0
 15 16  1  0  0  0  0
 16 17  2  0  0  0  0
 16 42  1  0  0  0  0
 17 18  1  0  0  0  0
 17 43  1  0  0  0  0
 18 19  2  0  0  0  0
 18 44  1  0  0  0  0
 20 45  1  0  0  0  0
 20 46  1  0  0  0  0
M  END
> <s_m_source_file>
AV-unprocessed.smi

> <i_m_source_file_index>
3331

> <i_lp_mmshare_version>
43012

> <i_f3d_flags>
0

> <s_epik_input>
W0NIM11bQ0BASF0xW0NIMl1bQ0BASF0oW0NIM10pW0NIMl1OKFtDSDJdMSlDKD1PKVtDQEhdKFtDSDNdKVtOSF1bQ0gyXVtDSDJdbjJbY0hdW2NIXVtjSF1uMg==

> <s_epik_cmdline>
J2VwaWtfcHl0aG9uJywgJy1waCcsICc3LjAnLCAnLXRuJywgJzgnLCAnLW1hJywgJzIwMCcsICctbWV0YWxfYmluZGluZycsICctaW1hZScsICc8aW5maWxlLm1hZT4nLCAnLW9tYWUnLCAnPG91dGZpbGUubWFlPic=

> <r_lp_tautomer_probability>
1

> <r_epik_Ionization_Penalty>
0.767994

> <r_epik_Ionization_Penalty_Charging>
0

> <r_epik_Ionization_Penalty_Neutral>
0.767994

> <r_epik_State_Penalty>
0.795453

> <r_epik_Charging_Adjusted_Penalty>
0.795453

> <i_epik_Tot_Q>
0

> <i_epik_Tot_abs_Q>
0

> <r_epik_Metal_State_Penalty>
0.794784

> <b_epik_Metal_Only>
0

> <s_lp_Force_Field>
OPLS_2005

> <r_lp_Energy>
28.4318

> <b_lp_Chiralities_Consistent>
1

> <s_lp_Variant>
AV-unprocessed.smi:3331-11

> <Gold.Version>
5.8.1

> <Gold.Id.Protein>
6NUR|6NUR_protein|mol2

> <Gold.PLP.Fitness>
45.8949

> <Gold.PLP.PLP>
-42.9333

> <Gold.PLP.part.hbond>
-1.0000

> <Gold.PLP.part.metal>
0.0000

> <Gold.PLP.part.buried>
-3.0316

> <Gold.PLP.part.nonpolar>
-39.2435

> <Gold.PLP.part.repulsive>
0.1191

> <Gold.PLP.ligand.clash>
0.0000

> <Gold.PLP.ligand.torsion>
0.4968

> <Gold.PLP.Chemscore.Hbond>
0.0000

> <Gold.PLP.Chemscore.CHOScore>
1.2709

> <Gold.PLP.Chemscore.Metal>
0.0000

> <Gold.Chemscore.Hbonds>
donor molecule, donor type, donor heavy atom, donor atom, acceptor molecule, acceptor atom, score
      L1  C    16    42       P1  8028  0.48
      L1  C    18    44       P1 10174  0.80

> <Gold.PLP.Chemscore.Internal.Correction>
0.1424

> <Gold.Rescore>
     Score         DG    S(hbond)    S(metal)    S(lipo)     H(rot)  DE(clash)    DE(int)     intcor
     14.12     -14.50       0.00        0.00     113.52       1.66       0.06       0.32       ----

> <Gold.Chemscore.Fitness>
14.1171

> <Gold.Chemscore.DG>
-14.4997

> <Gold.Chemscore.ZeroCoef>
-5.4800

> <Gold.Chemscore.Hbond>
0.0000

> <Gold.Chemscore.Metal>
0.0000

> <Gold.Chemscore.Lipo>
113.5191

> <Gold.Chemscore.Internal_Hbond>
0.0000

> <Gold.Chemscore.DEClash>
0.0576

> <Gold.Chemscore.DEInternal>
0.3250

> <Gold.Chemscore.Rot>
1.6649

> <Gold.Chemscore.Internal.Correction>
   9.000000E+99

> <Gold.Chemscore.Hbond.Weighted>
-0.0000

> <Gold.Chemscore.Metal.Weighted>
-0.0000

> <Gold.Chemscore.Lipo.Weighted>
-13.2817

> <Gold.Chemscore.Internal_Hbond.Weighted>
0.0000

> <Gold.Chemscore.DEClash.Weighted>
0.0576

> <Gold.Chemscore.DEInternal.Weighted>
0.3250

> <Gold.Chemscore.Rot.Weighted>
4.2621

> <Gold.Chemscore.Internal.Correction.Weighted>
   9.000000E+99

> <Gold.Protein.RotatedTorsions>
[ 6907 6896 6895 6894 ] final  -57.30 input  -60.11 | X-H torsion
[ 7974 7965 7964 7962 ] final   82.05 input  175.53 | X-H torsion
[ 8008 7997 7996 7995 ] final  122.54 input   59.86 | X-H torsion
[ 10167 10162 10161 10158 ] final -130.85 input  -65.29 | X-H torsion
[ 10718 10713 10712 10709 ] final  -46.10 input   66.30 | X-H torsion
[ 10763 10752 10751 10750 ] final   68.98 input  -60.55 | X-H torsion
[ 11005 11000 10999 10996 ] final -178.80 input  -57.11 | X-H torsion

> <Gold.Protein.ActiveResidues>
 VAL166  LYS551  ARG553  GLY616  TRP617  ASP618  TYR619  PRO620  LYS621  CYS622 
 ASP623  PHE694  ASN695  SER759  ASP760  ASP761  ALA762  ILE779  LEU786  VAL792 
 PHE793  MET794  SER795  GLU796  ALA797  LYS798  CYS799  TRP800  GLU811  SER814 

> <Gold.Protein.RotatedAtoms>
  150.8097  134.7245  159.6676 H   0  0  0  0  0  0  0  0  0  0  0  0  # atno 6907 bound_to 6896
  152.4217  134.5939  159.9991 H   0  0  0  0  0  0  0  0  0  0  0  0  # atno 6908 bound_to 6896
  151.6153  133.3306  159.3112 H   0  0  0  0  0  0  0  0  0  0  0  0  # atno 6909 bound_to 6896
  145.6301  139.2403  143.2089 H   0  0  0  0  0  0  0  0  0  0  0  0  # atno 7974 bound_to 7965
  156.2731  140.2783  156.1483 H   0  0  0  0  0  0  0  0  0  0  0  0  # atno 8008 bound_to 7997
  155.0880  140.0388  157.2677 H   0  0  0  0  0  0  0  0  0  0  0  0  # atno 8009 bound_to 7997
  154.6911  140.2629  155.6817 H   0  0  0  0  0  0  0  0  0  0  0  0  # atno 8010 bound_to 7997
  139.9250  143.6338  152.2544 H   0  0  0  0  0  0  0  0  0  0  0  0  # atno 10167 bound_to 10162
  156.2217  130.4166  149.8985 H   0  0  0  0  0  0  0  0  0  0  0  0  # atno 10718 bound_to 10713
  153.0263  135.5227  154.7218 H   0  0  0  0  0  0  0  0  0  0  0  0  # atno 10763 bound_to 10752
  154.6271  135.2896  155.0261 H   0  0  0  0  0  0  0  0  0  0  0  0  # atno 10764 bound_to 10752
  154.1227  135.6605  153.4958 H   0  0  0  0  0  0  0  0  0  0  0  0  # atno 10765 bound_to 10752
  140.4257  134.6565  157.4686 H   0  0  0  0  0  0  0  0  0  0  0  0  # atno 11005 bound_to 11000
  146.1363  140.7118  142.9388 LP  0  0  0  0  0  0  0  0  0  0  0  0  # atno 17320 bound_to 7965
  144.7197  140.4331  143.7017 LP  0  0  0  0  0  0  0  0  0  0  0  0  # atno 17321 bound_to 7965
  139.6829  144.7654  151.1575 LP  0  0  0  0  0  0  0  0  0  0  0  0  # atno 17342 bound_to 10162
  140.7652  143.5698  150.9008 LP  0  0  0  0  0  0  0  0  0  0  0  0  # atno 17343 bound_to 10162
  156.6629  130.8789  151.3550 LP  0  0  0  0  0  0  0  0  0  0  0  0  # atno 17370 bound_to 10713
  157.7090  130.9418  150.1027 LP  0  0  0  0  0  0  0  0  0  0  0  0  # atno 17371 bound_to 10713
  140.0169  134.6605  155.9296 LP  0  0  0  0  0  0  0  0  0  0  0  0  # atno 17394 bound_to 11000
  141.1766  133.6541  156.4853 LP  0  0  0  0  0  0  0  0  0  0  0  0  # atno 17395 bound_to 11000

$$$$
