AV-unprocessed.smi:1034|AV-procd|sdf|4514|dock4
  -GOLD-   22720 2523D 1   1.00000     0.00000
 Structure written by MMmdl.
 39 40  0  0  0  0  0  0  0  0  1 V2000
  148.1468  132.6688  154.5505 O   0  0  0  0  0  0  0  0  0  0  0  0
  148.3064  133.5960  153.7562 C   0  0  0  0  0  0  0  0  0  0  0  0
  149.2040  134.5755  153.9356 N   0  0  0  0  0  0  0  0  0  0  0  0
  150.1181  134.6776  155.0669 C   0  0  0  0  0  0  0  0  0  0  0  0
  150.1451  136.1013  155.6469 C   0  0  0  0  0  0  0  0  0  0  0  0
  151.2976  136.2336  157.0858 S   0  0  0  0  0  0  0  0  0  0  0  0
  150.4931  136.2655  158.3168 O   0  0  0  0  0  0  0  0  0  0  0  0
  152.3623  135.2291  156.9350 O   0  0  0  0  0  0  0  0  0  0  0  0
  152.0315  137.8038  156.9009 N   0  0  0  0  0  0  0  0  0  0  0  0
  151.8465  138.8503  157.9288 C   0  0  0  0  0  0  0  0  0  0  0  0
  150.7697  139.8795  157.5484 C   0  0  0  0  0  0  0  0  0  0  0  0
  151.1750  140.7247  155.9994 S   0  0  0  0  0  0  0  0  0  0  0  0
  151.3727  139.2514  154.9676 C   0  0  0  0  0  0  0  0  0  0  0  0
  152.4129  138.2847  155.5586 C   0  0  0  0  0  0  0  0  0  0  0  0
  147.6225  133.7683  152.6112 N   0  0  0  0  0  0  0  0  0  0  0  0
  146.6049  132.9428  152.0632 C   0  0  0  0  0  0  0  0  0  0  0  0
  146.6518  131.5891  152.4668 C   0  0  0  0  0  0  0  0  0  0  0  0
  145.6840  130.6880  151.9825 C   0  0  0  0  0  0  0  0  0  0  0  0
  144.6941  131.1635  151.1043 C   0  0  0  0  0  0  0  0  0  0  0  0
  144.7201  132.5253  150.7508 C   0  0  0  0  0  0  0  0  0  0  0  0
  145.6459  133.3911  151.2149 N   0  0  0  0  0  0  0  0  0  0  0  0
  149.2678  135.2974  153.2327 H   0  0  0  0  0  0  0  0  0  0  0  0
  149.8449  133.9552  155.8381 H   0  0  0  0  0  0  0  0  0  0  0  0
  151.1105  134.3941  154.7180 H   0  0  0  0  0  0  0  0  0  0  0  0
  150.4193  136.8397  154.8983 H   0  0  0  0  0  0  0  0  0  0  0  0
  149.1497  136.3661  156.0042 H   0  0  0  0  0  0  0  0  0  0  0  0
  151.6025  138.3969  158.8885 H   0  0  0  0  0  0  0  0  0  0  0  0
  152.7990  139.3612  158.0743 H   0  0  0  0  0  0  0  0  0  0  0  0
  149.7914  139.4111  157.4608 H   0  0  0  0  0  0  0  0  0  0  0  0
  150.6827  140.6303  158.3339 H   0  0  0  0  0  0  0  0  0  0  0  0
  150.4039  138.7671  154.8573 H   0  0  0  0  0  0  0  0  0  0  0  0
  151.6811  139.5669  153.9709 H   0  0  0  0  0  0  0  0  0  0  0  0
  153.3801  138.7838  155.6282 H   0  0  0  0  0  0  0  0  0  0  0  0
  152.5559  137.4372  154.8887 H   0  0  0  0  0  0  0  0  0  0  0  0
  147.8647  134.5798  152.0623 H   0  0  0  0  0  0  0  0  0  0  0  0
  147.4187  131.2399  153.1430 H   0  0  0  0  0  0  0  0  0  0  0  0
  145.7012  129.6503  152.2808 H   0  0  0  0  0  0  0  0  0  0  0  0
  143.9349  130.5032  150.7120 H   0  0  0  0  0  0  0  0  0  0  0  0
  143.9780  132.9304  150.0789 H   0  0  0  0  0  0  0  0  0  0  0  0
  1  2  2  0  0  0  0
  2  3  1  0  0  0  0
  2 15  1  0  0  0  0
  3  4  1  0  0  0  0
  3 22  1  0  0  0  0
  4  5  1  0  0  0  0
  4 23  1  0  0  0  0
  4 24  1  0  0  0  0
  5  6  1  0  0  0  0
  5 25  1  0  0  0  0
  5 26  1  0  0  0  0
  6  7  2  0  0  0  0
  6  8  2  0  0  0  0
  6  9  1  0  0  0  0
  9 14  1  0  0  0  0
  9 10  1  0  0  0  0
 10 11  1  0  0  0  0
 10 27  1  0  0  0  0
 10 28  1  0  0  0  0
 11 12  1  0  0  0  0
 11 29  1  0  0  0  0
 11 30  1  0  0  0  0
 12 13  1  0  0  0  0
 13 14  1  0  0  0  0
 13 31  1  0  0  0  0
 13 32  1  0  0  0  0
 14 33  1  0  0  0  0
 14 34  1  0  0  0  0
 15 16  1  0  0  0  0
 15 35  1  0  0  0  0
 16 21  1  0  0  0  0
 16 17  2  0  0  0  0
 17 18  1  0  0  0  0
 17 36  1  0  0  0  0
 18 19  2  0  0  0  0
 18 37  1  0  0  0  0
 19 20  1  0  0  0  0
 19 38  1  0  0  0  0
 20 21  2  0  0  0  0
 20 39  1  0  0  0  0
M  END
> <s_m_source_file>
AV-unprocessed.smi

> <i_m_source_file_index>
1034

> <i_lp_mmshare_version>
43012

> <i_f3d_flags>
0

> <s_epik_input>
bjFbY0hdW2NIXVtjSF1bY0hdYzFbTkhdQyg9TylbTkhdW0NIMl1bQ0gyXVMoPU8pKD1PKU4yW0NIMl1bQ0gyXVNbQ0gyXVtDSDJdMg==

> <s_epik_cmdline>
J2VwaWtfcHl0aG9uJywgJy1waCcsICc3LjAnLCAnLXRuJywgJzgnLCAnLW1hJywgJzIwMCcsICctbWV0YWxfYmluZGluZycsICctaW1hZScsICc8aW5maWxlLm1hZT4nLCAnLW9tYWUnLCAnPG91dGZpbGUubWFlPic=

> <r_lp_tautomer_probability>
1

> <r_epik_Ionization_Penalty>
3.90463e-05

> <r_epik_Ionization_Penalty_Charging>
0

> <r_epik_Ionization_Penalty_Neutral>
3.90463e-05

> <r_epik_State_Penalty>
-0

> <r_epik_Charging_Adjusted_Penalty>
0

> <i_epik_Tot_Q>
0

> <i_epik_Tot_abs_Q>
0

> <r_epik_Metal_State_Penalty>
-0

> <b_epik_Metal_Only>
0

> <s_lp_Force_Field>
OPLS_2005

> <r_lp_Energy>
-0.604615

> <b_lp_Chiralities_Consistent>
1

> <s_lp_Variant>
AV-unprocessed.smi:1034-1

> <Gold.Version>
5.8.1

> <Gold.Id.Protein>
6NUR|6NUR_protein|mol2

> <Gold.PLP.Fitness>
44.6467

> <Gold.PLP.PLP>
-34.9096

> <Gold.PLP.part.hbond>
-4.2729

> <Gold.PLP.part.metal>
0.0000

> <Gold.PLP.part.buried>
-4.0762

> <Gold.PLP.part.nonpolar>
-26.6708

> <Gold.PLP.part.repulsive>
0.1857

> <Gold.PLP.ligand.clash>
0.0000

> <Gold.PLP.ligand.torsion>
1.7763

> <Gold.PLP.Chemscore.Hbond>
3.7220

> <Gold.PLP.Chemscore.CHOScore>
0.0000

> <Gold.PLP.Chemscore.Metal>
0.0000

> <Gold.Chemscore.Hbonds>
donor molecule, donor type, donor heavy atom, donor atom, acceptor molecule, acceptor atom, score
      L1  H     3    22       P1  7948  0.80
      L1  H    15    35       P1  7948  0.99
      P1  H  6896  6908       L1     7  0.85
      P1  H 10752 10765       L1     8  1.00

> <Gold.PLP.Chemscore.Internal.Correction>
2.1237

> <Gold.Rescore>
     Score         DG    S(hbond)    S(metal)    S(lipo)     H(rot)  DE(clash)    DE(int)     intcor
     16.79     -20.08       3.48        0.00      61.25       1.63       0.05       3.24       ----

> <Gold.Chemscore.Fitness>
16.7899

> <Gold.Chemscore.DG>
-20.0770

> <Gold.Chemscore.ZeroCoef>
-5.4800

> <Gold.Chemscore.Hbond>
3.4751

> <Gold.Chemscore.Metal>
0.0000

> <Gold.Chemscore.Lipo>
61.2491

> <Gold.Chemscore.Internal_Hbond>
0.0000

> <Gold.Chemscore.DEClash>
0.0477

> <Gold.Chemscore.DEInternal>
3.2393

> <Gold.Chemscore.Rot>
1.6313

> <Gold.Chemscore.Internal.Correction>
   9.000000E+99

> <Gold.Chemscore.Hbonds>
donor molecule, donor type, donor heavy atom, donor atom, acceptor molecule, acceptor atom, score
      L1  H     3    22       P1  7948  0.12
      L1  H    15    35       P1  7948  0.32
      P1  H  6896  6908       L1     7  0.76
      P1  H 10752 10765       L1     8  0.80

> <Gold.Chemscore.Hbond.Weighted>
-11.6070

> <Gold.Chemscore.Metal.Weighted>
-0.0000

> <Gold.Chemscore.Lipo.Weighted>
-7.1661

> <Gold.Chemscore.Internal_Hbond.Weighted>
0.0000

> <Gold.Chemscore.DEClash.Weighted>
0.0477

> <Gold.Chemscore.DEInternal.Weighted>
3.2393

> <Gold.Chemscore.Rot.Weighted>
4.1761

> <Gold.Chemscore.Internal.Correction.Weighted>
   9.000000E+99

> <Gold.Protein.RotatedTorsions>
[ 6907 6896 6895 6894 ] final -169.04 input  -60.11 | X-H torsion
[ 7974 7965 7964 7962 ] final   91.32 input  175.53 | X-H torsion
[ 8008 7997 7996 7995 ] final  176.30 input   59.86 | X-H torsion
[ 10167 10162 10161 10158 ] final  -53.38 input  -65.29 | X-H torsion
[ 10718 10713 10712 10709 ] final  160.17 input   66.30 | X-H torsion
[ 10763 10752 10751 10750 ] final -138.46 input  -60.55 | X-H torsion
[ 11005 11000 10999 10996 ] final   95.10 input  -57.11 | X-H torsion

> <Gold.Protein.ActiveResidues>
 VAL166  LYS551  ARG553  GLY616  TRP617  ASP618  TYR619  PRO620  LYS621  CYS622 
 ASP623  PHE694  ASN695  SER759  ASP760  ASP761  ALA762  ILE779  LEU786  VAL792 
 PHE793  MET794  SER795  GLU796  ALA797  LYS798  CYS799  TRP800  GLU811  SER814 

> <Gold.Protein.RotatedAtoms>
  151.4853  133.3537  159.2844 H   0  0  0  0  0  0  0  0  0  0  0  0  # atno 6907 bound_to 6896
  150.8870  134.8271  159.7277 H   0  0  0  0  0  0  0  0  0  0  0  0  # atno 6908 bound_to 6896
  152.4799  134.4758  159.9702 H   0  0  0  0  0  0  0  0  0  0  0  0  # atno 6909 bound_to 6896
  145.5072  139.2276  143.2744 H   0  0  0  0  0  0  0  0  0  0  0  0  # atno 7974 bound_to 7965
  156.0779  140.1387  156.9749 H   0  0  0  0  0  0  0  0  0  0  0  0  # atno 8008 bound_to 7997
  154.4568  140.0958  156.6830 H   0  0  0  0  0  0  0  0  0  0  0  0  # atno 8009 bound_to 7997
  155.5123  140.3454  155.4393 H   0  0  0  0  0  0  0  0  0  0  0  0  # atno 8010 bound_to 7997
  140.6488  143.2552  151.4784 H   0  0  0  0  0  0  0  0  0  0  0  0  # atno 10167 bound_to 10162
  157.1541  131.0571  151.2265 H   0  0  0  0  0  0  0  0  0  0  0  0  # atno 10718 bound_to 10713
  154.8636  135.3611  154.5388 H   0  0  0  0  0  0  0  0  0  0  0  0  # atno 10763 bound_to 10752
  153.6010  135.7012  153.5389 H   0  0  0  0  0  0  0  0  0  0  0  0  # atno 10764 bound_to 10752
  153.3291  135.4129  155.1441 H   0  0  0  0  0  0  0  0  0  0  0  0  # atno 10765 bound_to 10752
  139.8792  134.8881  156.3962 H   0  0  0  0  0  0  0  0  0  0  0  0  # atno 11005 bound_to 11000
  146.2189  140.5877  142.9026 LP  0  0  0  0  0  0  0  0  0  0  0  0  # atno 17320 bound_to 7965
  144.7747  140.5714  143.6646 LP  0  0  0  0  0  0  0  0  0  0  0  0  # atno 17321 bound_to 7965
  139.5700  144.1950  152.1823 LP  0  0  0  0  0  0  0  0  0  0  0  0  # atno 17342 bound_to 10162
  140.1243  144.5345  150.6842 LP  0  0  0  0  0  0  0  0  0  0  0  0  # atno 17343 bound_to 10162
  157.4193  130.7428  149.6900 LP  0  0  0  0  0  0  0  0  0  0  0  0  # atno 17370 bound_to 10713
  155.9765  130.4074  150.3774 LP  0  0  0  0  0  0  0  0  0  0  0  0  # atno 17371 bound_to 10713
  140.9299  133.7587  156.0011 LP  0  0  0  0  0  0  0  0  0  0  0  0  # atno 17394 bound_to 11000
  140.8343  134.3142  157.5337 LP  0  0  0  0  0  0  0  0  0  0  0  0  # atno 17395 bound_to 11000

$$$$
