AV-unprocessed.smi:3283|AV-procd|sdf|12569|dock3
  -GOLD-   2272018493D 1   1.00000     0.00000
 Structure written by MMmdl.
 44 45  0  0  0  0  0  0  0  0  2 V2000
  151.6349  145.7403  160.0656 C   0  0  0  0  0  0  0  0  0  0  0  0
  151.9648  144.2855  160.3558 C   0  0  0  0  0  0  0  0  0  0  0  0
  152.4958  143.9463  161.5460 C   0  0  0  0  0  0  0  0  0  0  0  0
  152.9336  142.5483  161.9164 C   0  0  0  0  0  0  0  0  0  0  0  0
  153.1785  141.7010  160.6656 C   0  0  0  0  0  0  0  0  0  0  0  0
  151.9941  141.7856  159.6891 C   0  0  2  0  0  0  0  0  0  0  0  0
  152.2485  140.8466  158.4935 C   0  0  0  0  0  0  0  0  0  0  0  0
  151.6953  143.2507  159.2436 C   0  0  1  0  0  0  0  0  0  0  0  0
  150.2575  143.3487  158.6679 C   0  0  0  0  0  0  0  0  0  0  0  0
  150.2028  143.0843  157.2161 N   0  3  0  0  0  0  0  0  0  0  0  0
  149.8001  141.7087  156.8634 C   0  0  0  0  0  0  0  0  0  0  0  0
  150.1303  141.3778  155.4000 C   0  0  0  0  0  0  0  0  0  0  0  0
  148.9467  140.9130  154.6073 C   0  0  0  0  0  0  0  0  0  0  0  0
  147.8855  141.6305  154.1306 C   0  0  0  0  0  0  0  0  0  0  0  0
  147.0755  140.6623  153.4764 C   0  0  0  0  0  0  0  0  0  0  0  0
  147.5881  139.4463  153.5434 N   0  0  0  0  0  0  0  0  0  0  0  0
  148.7402  139.5955  154.2308 N   0  0  0  0  0  0  0  0  0  0  0  0
  149.5626  138.4257  154.4788 C   0  0  0  0  0  0  0  0  0  0  0  0
  152.0847  146.0522  159.1234 H   0  0  0  0  0  0  0  0  0  0  0  0
  152.0207  146.3967  160.8464 H   0  0  0  0  0  0  0  0  0  0  0  0
  150.5574  145.8952  160.0155 H   0  0  0  0  0  0  0  0  0  0  0  0
  152.6470  144.7010  162.3043 H   0  0  0  0  0  0  0  0  0  0  0  0
  153.8478  142.6045  162.5079 H   0  0  0  0  0  0  0  0  0  0  0  0
  152.1683  142.0979  162.5491 H   0  0  0  0  0  0  0  0  0  0  0  0
  154.0874  142.0425  160.1673 H   0  0  0  0  0  0  0  0  0  0  0  0
  153.3588  140.6665  160.9601 H   0  0  0  0  0  0  0  0  0  0  0  0
  151.1196  141.4109  160.2238 H   0  0  0  0  0  0  0  0  0  0  0  0
  153.1091  141.1755  157.9098 H   0  0  0  0  0  0  0  0  0  0  0  0
  151.3958  140.7879  157.8190 H   0  0  0  0  0  0  0  0  0  0  0  0
  152.4526  139.8305  158.8328 H   0  0  0  0  0  0  0  0  0  0  0  0
  152.3996  143.4936  158.4463 H   0  0  0  0  0  0  0  0  0  0  0  0
  149.5929  142.6304  159.1452 H   0  0  0  0  0  0  0  0  0  0  0  0
  149.8422  144.3355  158.8783 H   0  0  0  0  0  0  0  0  0  0  0  0
  149.5433  143.7271  156.8009 H   0  0  0  0  0  0  0  0  0  0  0  0
  150.3002  141.0021  157.5272 H   0  0  0  0  0  0  0  0  0  0  0  0
  148.7276  141.6003  157.0296 H   0  0  0  0  0  0  0  0  0  0  0  0
  150.5398  142.2697  154.9246 H   0  0  0  0  0  0  0  0  0  0  0  0
  150.9302  140.6384  155.3626 H   0  0  0  0  0  0  0  0  0  0  0  0
  147.7117  142.6913  154.2353 H   0  0  0  0  0  0  0  0  0  0  0  0
  146.1369  140.8054  152.9614 H   0  0  0  0  0  0  0  0  0  0  0  0
  150.6070  138.6480  154.2597 H   0  0  0  0  0  0  0  0  0  0  0  0
  149.2476  137.5951  153.8450 H   0  0  0  0  0  0  0  0  0  0  0  0
  149.4680  138.1248  155.5214 H   0  0  0  0  0  0  0  0  0  0  0  0
  151.1166  143.2621  156.8238 H   0  0  0  0  0  0  0  0  0  0  0  0
  1  2  1  0  0  0  0
  1 19  1  0  0  0  0
  1 20  1  0  0  0  0
  1 21  1  0  0  0  0
  2  8  1  0  0  0  0
  2  3  2  0  0  0  0
  3  4  1  0  0  0  0
  3 22  1  0  0  0  0
  4  5  1  0  0  0  0
  4 23  1  0  0  0  0
  4 24  1  0  0  0  0
  5  6  1  0  0  0  0
  5 25  1  0  0  0  0
  5 26  1  0  0  0  0
  6  7  1  0  0  0  0
  6  8  1  0  0  0  0
  6 27  1  0  0  0  0
  7 28  1  0  0  0  0
  7 29  1  0  0  0  0
  7 30  1  0  0  0  0
  8  9  1  0  0  0  0
  8 31  1  0  0  0  0
  9 10  1  0  0  0  0
  9 32  1  0  0  0  0
  9 33  1  0  0  0  0
 10 11  1  0  0  0  0
 10 34  1  0  0  0  0
 10 44  1  0  0  0  0
 11 12  1  0  0  0  0
 11 35  1  0  0  0  0
 11 36  1  0  0  0  0
 12 13  1  0  0  0  0
 12 37  1  0  0  0  0
 12 38  1  0  0  0  0
 13 17  1  0  0  0  0
 13 14  2  0  0  0  0
 14 15  1  0  0  0  0
 14 39  1  0  0  0  0
 15 16  2  0  0  0  0
 15 40  1  0  0  0  0
 16 17  1  0  0  0  0
 17 18  1  0  0  0  0
 18 41  1  0  0  0  0
 18 42  1  0  0  0  0
 18 43  1  0  0  0  0
M  CHG  1  10   1
M  END
> <s_m_source_file>
AV-unprocessed.smi

> <i_m_source_file_index>
3283

> <i_lp_mmshare_version>
43012

> <i_f3d_flags>
0

> <s_epik_input>
W0NIM11DMT1bQ0hdW0NIMl1bQ0gyXVtDQEBIXShbQ0gzXSlbQ0BIXTFbQ0gyXVtOSF1bQ0gyXVtDSDJdYzJbY0hdW2NIXW5uMltDSDNd

> <s_epik_cmdline>
J2VwaWtfcHl0aG9uJywgJy1waCcsICc3LjAnLCAnLXRuJywgJzgnLCAnLW1hJywgJzIwMCcsICctbWV0YWxfYmluZGluZycsICctaW1hZScsICc8aW5maWxlLm1hZT4nLCAnLW9tYWUnLCAnPG91dGZpbGUubWFlPic=

> <r_lp_tautomer_probability>
1

> <r_epik_Ionization_Penalty>
0.000866911

> <r_epik_Ionization_Penalty_Charging>
0.000836385

> <r_epik_Ionization_Penalty_Neutral>
3.05258e-05

> <r_epik_State_Penalty>
-0

> <r_epik_Charging_Adjusted_Penalty>
0.000836385

> <i_epik_Tot_Q>
1

> <i_epik_Tot_abs_Q>
1

> <r_epik_Metal_State_Penalty>
-0

> <b_epik_Metal_Only>
0

> <s_lp_Force_Field>
OPLS_2005

> <r_lp_Energy>
14.6109

> <b_lp_Chiralities_Consistent>
1

> <s_lp_Variant>
AV-unprocessed.smi:3283-2

> <Gold.Version>
5.8.1

> <Gold.Id.Protein>
6NUR|6NUR_protein|mol2

> <Gold.PLP.Fitness>
53.1665

> <Gold.PLP.PLP>
-46.5920

> <Gold.PLP.part.hbond>
-1.0000

> <Gold.PLP.part.metal>
0.0000

> <Gold.PLP.part.buried>
-5.2604

> <Gold.PLP.part.nonpolar>
-41.3601

> <Gold.PLP.part.repulsive>
0.3685

> <Gold.PLP.ligand.clash>
0.0000

> <Gold.PLP.ligand.torsion>
1.2860

> <Gold.PLP.Chemscore.Hbond>
2.0000

> <Gold.PLP.Chemscore.CHOScore>
1.0000

> <Gold.PLP.Chemscore.Metal>
0.0000

> <Gold.Chemscore.Hbonds>
donor molecule, donor type, donor heavy atom, donor atom, acceptor molecule, acceptor atom, score
      L1  H    10    34       P1  8028  2.00
      L1  C    15    40       P1 10175  1.00

> <Gold.PLP.Chemscore.Internal.Correction>
0.1464

> <Gold.Rescore>
     Score         DG    S(hbond)    S(metal)    S(lipo)     H(rot)  DE(clash)    DE(int)     intcor
     19.25     -20.63       0.98        0.00     133.97       1.48       0.12       1.27       ----

> <Gold.Chemscore.Fitness>
19.2500

> <Gold.Chemscore.DG>
-20.6322

> <Gold.Chemscore.ZeroCoef>
-5.4800

> <Gold.Chemscore.Hbond>
0.9815

> <Gold.Chemscore.Metal>
0.0000

> <Gold.Chemscore.Lipo>
133.9719

> <Gold.Chemscore.Internal_Hbond>
0.0000

> <Gold.Chemscore.DEClash>
0.1164

> <Gold.Chemscore.DEInternal>
1.2658

> <Gold.Chemscore.Rot>
1.4847

> <Gold.Chemscore.Internal.Correction>
   9.000000E+99

> <Gold.Chemscore.Hbonds>
donor molecule, donor type, donor heavy atom, donor atom, acceptor molecule, acceptor atom, score
      L1  H    10    34       P1  8028  0.96

> <Gold.Chemscore.Hbond.Weighted>
-3.2783

> <Gold.Chemscore.Metal.Weighted>
-0.0000

> <Gold.Chemscore.Lipo.Weighted>
-15.6747

> <Gold.Chemscore.Internal_Hbond.Weighted>
0.0000

> <Gold.Chemscore.DEClash.Weighted>
0.1164

> <Gold.Chemscore.DEInternal.Weighted>
1.2658

> <Gold.Chemscore.Rot.Weighted>
3.8008

> <Gold.Chemscore.Internal.Correction.Weighted>
   9.000000E+99

> <Gold.Protein.RotatedTorsions>
[ 6907 6896 6895 6894 ] final   -0.37 input  -60.11 | X-H torsion
[ 7974 7965 7964 7962 ] final  110.91 input  175.53 | X-H torsion
[ 8008 7997 7996 7995 ] final  -61.89 input   59.86 | X-H torsion
[ 10167 10162 10161 10158 ] final   71.27 input  -65.29 | X-H torsion
[ 10718 10713 10712 10709 ] final -101.24 input   66.30 | X-H torsion
[ 10763 10752 10751 10750 ] final  151.09 input  -60.55 | X-H torsion
[ 11005 11000 10999 10996 ] final  152.45 input  -57.11 | X-H torsion

> <Gold.Protein.ActiveResidues>
 VAL166  LYS551  ARG553  GLY616  TRP617  ASP618  TYR619  PRO620  LYS621  CYS622 
 ASP623  PHE694  ASN695  SER759  ASP760  ASP761  ALA762  ILE779  LEU786  VAL792 
 PHE793  MET794  SER795  GLU796  ALA797  LYS798  CYS799  TRP800  GLU811  SER814 

> <Gold.Protein.RotatedAtoms>
  151.5633  135.1065  159.9977 H   0  0  0  0  0  0  0  0  0  0  0  0  # atno 6907 bound_to 6896
  152.4436  133.7490  159.6694 H   0  0  0  0  0  0  0  0  0  0  0  0  # atno 6908 bound_to 6896
  150.8347  133.7965  159.3108 H   0  0  0  0  0  0  0  0  0  0  0  0  # atno 6909 bound_to 6896
  145.2489  139.2748  143.4078 H   0  0  0  0  0  0  0  0  0  0  0  0  # atno 7974 bound_to 7965
  154.4471  140.1008  156.6502 H   0  0  0  0  0  0  0  0  0  0  0  0  # atno 8008 bound_to 7997
  155.5406  140.3483  155.4427 H   0  0  0  0  0  0  0  0  0  0  0  0  # atno 8009 bound_to 7997
  156.0600  140.1324  156.9941 H   0  0  0  0  0  0  0  0  0  0  0  0  # atno 8010 bound_to 7997
  140.0479  144.5336  150.7385 H   0  0  0  0  0  0  0  0  0  0  0  0  # atno 10167 bound_to 10162
  156.0188  130.5364  150.6934 H   0  0  0  0  0  0  0  0  0  0  0  0  # atno 10718 bound_to 10713
  154.0981  135.2847  155.3257 H   0  0  0  0  0  0  0  0  0  0  0  0  # atno 10763 bound_to 10752
  154.6574  135.5347  153.7979 H   0  0  0  0  0  0  0  0  0  0  0  0  # atno 10764 bound_to 10752
  153.0389  135.6525  154.1146 H   0  0  0  0  0  0  0  0  0  0  0  0  # atno 10765 bound_to 10752
  140.1309  134.8803  157.2202 H   0  0  0  0  0  0  0  0  0  0  0  0  # atno 11005 bound_to 11000
  146.3308  140.2874  142.8613 LP  0  0  0  0  0  0  0  0  0  0  0  0  # atno 17320 bound_to 7965
  144.9521  140.8189  143.5565 LP  0  0  0  0  0  0  0  0  0  0  0  0  # atno 17321 bound_to 7965
  140.7230  143.2607  151.4215 LP  0  0  0  0  0  0  0  0  0  0  0  0  # atno 17342 bound_to 10162
  139.5971  144.1373  152.2157 LP  0  0  0  0  0  0  0  0  0  0  0  0  # atno 17343 bound_to 10162
  157.4610  131.0883  151.0745 LP  0  0  0  0  0  0  0  0  0  0  0  0  # atno 17370 bound_to 10713
  157.1233  130.6071  149.5510 LP  0  0  0  0  0  0  0  0  0  0  0  0  # atno 17371 bound_to 10713
  140.2844  134.3313  155.7333 LP  0  0  0  0  0  0  0  0  0  0  0  0  # atno 17394 bound_to 11000
  141.2170  133.7497  156.9411 LP  0  0  0  0  0  0  0  0  0  0  0  0  # atno 17395 bound_to 11000

$$$$
