AV-unprocessed.smi:3346|AV-procd|sdf|12910|dock6
  -GOLD-   2272019323D 1   1.00000     0.00000
 Structure written by MMmdl.
 47 48  0  0  0  0  0  0  0  0  1 V2000
  152.8211  143.1426  160.0918 C   0  0  0  0  0  0  0  0  0  0  0  0
  152.3097  143.7810  158.7891 C   0  0  0  0  0  0  0  0  0  0  0  0
  151.9406  145.2531  159.0270 C   0  0  0  0  0  0  0  0  0  0  0  0
  151.1131  143.0138  158.1830 C   0  0  0  0  0  0  0  0  0  0  0  0
  151.4111  141.5665  157.7351 C   0  0  1  0  0  0  0  0  0  0  0  0
  151.6333  140.6397  158.9387 C   0  0  0  0  0  0  0  0  0  0  0  0
  150.2769  141.0390  156.9869 N   0  0  0  0  0  0  0  0  0  0  0  0
  150.1800  141.6601  155.6758 C   0  0  0  0  0  0  0  0  0  0  0  0
  149.0072  141.1241  154.8731 C   0  0  0  0  0  0  0  0  0  0  0  0
  148.0050  142.0120  154.4305 C   0  0  0  0  0  0  0  0  0  0  0  0
  146.9264  141.5083  153.6806 C   0  0  0  0  0  0  0  0  0  0  0  0
  146.8936  140.1292  153.4028 C   0  0  0  0  0  0  0  0  0  0  0  0
  147.8428  139.2671  153.8231 N   0  0  0  0  0  0  0  0  0  0  0  0
  148.8831  139.7492  154.5460 C   0  0  0  0  0  0  0  0  0  0  0  0
  149.8448  138.8280  154.9932 N   0  0  0  0  0  0  0  0  0  0  0  0
  149.4379  137.4417  154.8045 C   0  0  0  0  0  0  0  0  0  0  0  0
  150.4499  136.5007  155.4807 C   0  0  0  0  0  0  0  0  0  0  0  0
  151.7587  136.7626  154.9810 O   0  0  0  0  0  0  0  0  0  0  0  0
  152.1721  138.1024  155.2367 C   0  0  0  0  0  0  0  0  0  0  0  0
  151.2080  139.0778  154.5408 C   0  0  0  0  0  0  0  0  0  0  0  0
  152.0354  143.0993  160.8466 H   0  0  0  0  0  0  0  0  0  0  0  0
  153.6490  143.7168  160.5089 H   0  0  0  0  0  0  0  0  0  0  0  0
  153.1860  142.1287  159.9308 H   0  0  0  0  0  0  0  0  0  0  0  0
  153.1272  143.7739  158.0677 H   0  0  0  0  0  0  0  0  0  0  0  0
  151.1232  145.3458  159.7430 H   0  0  0  0  0  0  0  0  0  0  0  0
  151.6278  145.7353  158.1005 H   0  0  0  0  0  0  0  0  0  0  0  0
  152.7903  145.8142  159.4168 H   0  0  0  0  0  0  0  0  0  0  0  0
  150.3075  142.9988  158.9185 H   0  0  0  0  0  0  0  0  0  0  0  0
  150.7195  143.5710  157.3312 H   0  0  0  0  0  0  0  0  0  0  0  0
  152.3211  141.5426  157.1349 H   0  0  0  0  0  0  0  0  0  0  0  0
  152.4800  140.9749  159.5384 H   0  0  0  0  0  0  0  0  0  0  0  0
  151.8468  139.6201  158.6160 H   0  0  0  0  0  0  0  0  0  0  0  0
  150.7582  140.6080  159.5890 H   0  0  0  0  0  0  0  0  0  0  0  0
  150.4087  140.0458  156.8614 H   0  0  0  0  0  0  0  0  0  0  0  0
  150.0657  142.7386  155.7895 H   0  0  0  0  0  0  0  0  0  0  0  0
  151.1055  141.4999  155.1214 H   0  0  0  0  0  0  0  0  0  0  0  0
  148.0614  143.0659  154.6613 H   0  0  0  0  0  0  0  0  0  0  0  0
  146.1436  142.1629  153.3272 H   0  0  0  0  0  0  0  0  0  0  0  0
  146.0821  139.7059  152.8296 H   0  0  0  0  0  0  0  0  0  0  0  0
  148.4422  137.2807  155.2191 H   0  0  0  0  0  0  0  0  0  0  0  0
  149.3804  137.2222  153.7375 H   0  0  0  0  0  0  0  0  0  0  0  0
  150.4336  136.6260  156.5641 H   0  0  0  0  0  0  0  0  0  0  0  0
  150.1915  135.4618  155.2761 H   0  0  0  0  0  0  0  0  0  0  0  0
  152.2025  138.2858  156.3122 H   0  0  0  0  0  0  0  0  0  0  0  0
  153.1856  138.2419  154.8605 H   0  0  0  0  0  0  0  0  0  0  0  0
  151.2718  138.9490  153.4594 H   0  0  0  0  0  0  0  0  0  0  0  0
  151.4886  140.1079  154.7630 H   0  0  0  0  0  0  0  0  0  0  0  0
  1  2  1  0  0  0  0
  1 21  1  0  0  0  0
  1 22  1  0  0  0  0
  1 23  1  0  0  0  0
  2  3  1  0  0  0  0
  2  4  1  0  0  0  0
  2 24  1  0  0  0  0
  3 25  1  0  0  0  0
  3 26  1  0  0  0  0
  3 27  1  0  0  0  0
  4  5  1  0  0  0  0
  4 28  1  0  0  0  0
  4 29  1  0  0  0  0
  5  6  1  0  0  0  0
  5  7  1  0  0  0  0
  5 30  1  0  0  0  0
  6 31  1  0  0  0  0
  6 32  1  0  0  0  0
  6 33  1  0  0  0  0
  7  8  1  0  0  0  0
  7 34  1  0  0  0  0
  8  9  1  0  0  0  0
  8 35  1  0  0  0  0
  8 36  1  0  0  0  0
  9 14  1  0  0  0  0
  9 10  2  0  0  0  0
 10 11  1  0  0  0  0
 10 37  1  0  0  0  0
 11 12  2  0  0  0  0
 11 38  1  0  0  0  0
 12 13  1  0  0  0  0
 12 39  1  0  0  0  0
 13 14  2  0  0  0  0
 14 15  1  0  0  0  0
 15 20  1  0  0  0  0
 15 16  1  0  0  0  0
 16 17  1  0  0  0  0
 16 40  1  0  0  0  0
 16 41  1  0  0  0  0
 17 18  1  0  0  0  0
 17 42  1  0  0  0  0
 17 43  1  0  0  0  0
 18 19  1  0  0  0  0
 19 20  1  0  0  0  0
 19 44  1  0  0  0  0
 19 45  1  0  0  0  0
 20 46  1  0  0  0  0
 20 47  1  0  0  0  0
M  END
> <s_m_source_file>
AV-unprocessed.smi

> <i_m_source_file_index>
3346

> <i_lp_mmshare_version>
43012

> <i_f3d_flags>
0

> <s_epik_input>
W0NIM11bQ0hdKFtDSDNdKVtDSDJdW0NASF0oW0NIM10pW05IXVtDSDJdYzFbY0hdW2NIXVtjSF1uYzFOMltDSDJdW0NIMl1PW0NIMl1bQ0gyXTI=

> <s_epik_cmdline>
J2VwaWtfcHl0aG9uJywgJy1waCcsICc3LjAnLCAnLXRuJywgJzgnLCAnLW1hJywgJzIwMCcsICctbWV0YWxfYmluZGluZycsICctaW1hZScsICc8aW5maWxlLm1hZT4nLCAnLW9tYWUnLCAnPG91dGZpbGUubWFlPic=

> <r_lp_tautomer_probability>
1

> <r_epik_Ionization_Penalty>
2.09752

> <r_epik_Ionization_Penalty_Charging>
0

> <r_epik_Ionization_Penalty_Neutral>
2.09752

> <r_epik_State_Penalty>
2.22589

> <r_epik_Charging_Adjusted_Penalty>
2.22589

> <i_epik_Tot_Q>
0

> <i_epik_Tot_abs_Q>
0

> <r_epik_Metal_State_Penalty>
2.21996

> <b_epik_Metal_Only>
0

> <s_lp_Force_Field>
OPLS_2005

> <r_lp_Energy>
27.6792

> <b_lp_Chiralities_Consistent>
1

> <s_lp_Variant>
AV-unprocessed.smi:3346-4

> <Gold.Version>
5.8.1

> <Gold.Id.Protein>
6NUR|6NUR_protein|mol2

> <Gold.PLP.Fitness>
47.7656

> <Gold.PLP.PLP>
-42.0892

> <Gold.PLP.part.hbond>
-1.0000

> <Gold.PLP.part.metal>
0.0000

> <Gold.PLP.part.buried>
-3.5964

> <Gold.PLP.part.nonpolar>
-37.9644

> <Gold.PLP.part.repulsive>
0.4073

> <Gold.PLP.ligand.clash>
0.0000

> <Gold.PLP.ligand.torsion>
0.2604

> <Gold.PLP.Chemscore.Hbond>
1.0000

> <Gold.PLP.Chemscore.CHOScore>
0.9976

> <Gold.PLP.Chemscore.Metal>
0.0000

> <Gold.Chemscore.Hbonds>
donor molecule, donor type, donor heavy atom, donor atom, acceptor molecule, acceptor atom, score
      P1  H 10752 10763       L1    18  1.00
      L1  C    12    39       P1 10175  0.97

> <Gold.PLP.Chemscore.Internal.Correction>
0.2043

> <Gold.Rescore>
     Score         DG    S(hbond)    S(metal)    S(lipo)     H(rot)  DE(clash)    DE(int)     intcor
     18.20     -18.82       0.90        0.00     122.33       1.55       0.02       0.59       ----

> <Gold.Chemscore.Fitness>
18.1982

> <Gold.Chemscore.DG>
-18.8151

> <Gold.Chemscore.ZeroCoef>
-5.4800

> <Gold.Chemscore.Hbond>
0.8965

> <Gold.Chemscore.Metal>
0.0000

> <Gold.Chemscore.Lipo>
122.3291

> <Gold.Chemscore.Internal_Hbond>
0.0000

> <Gold.Chemscore.DEClash>
0.0247

> <Gold.Chemscore.DEInternal>
0.5922

> <Gold.Chemscore.Rot>
1.5514

> <Gold.Chemscore.Internal.Correction>
   9.000000E+99

> <Gold.Chemscore.Hbonds>
donor molecule, donor type, donor heavy atom, donor atom, acceptor molecule, acceptor atom, score
      P1  H 10752 10763       L1    18  0.96

> <Gold.Chemscore.Hbond.Weighted>
-2.9942

> <Gold.Chemscore.Metal.Weighted>
-0.0000

> <Gold.Chemscore.Lipo.Weighted>
-14.3125

> <Gold.Chemscore.Internal_Hbond.Weighted>
0.0000

> <Gold.Chemscore.DEClash.Weighted>
0.0247

> <Gold.Chemscore.DEInternal.Weighted>
0.5922

> <Gold.Chemscore.Rot.Weighted>
3.9715

> <Gold.Chemscore.Internal.Correction.Weighted>
   9.000000E+99

> <Gold.Protein.RotatedTorsions>
[ 6907 6896 6895 6894 ] final   -4.31 input  -60.11 | X-H torsion
[ 7974 7965 7964 7962 ] final -113.81 input  175.53 | X-H torsion
[ 8008 7997 7996 7995 ] final -118.06 input   59.86 | X-H torsion
[ 10167 10162 10161 10158 ] final -110.25 input  -65.29 | X-H torsion
[ 10718 10713 10712 10709 ] final  -61.89 input   66.30 | X-H torsion
[ 10763 10752 10751 10750 ] final   60.08 input  -60.55 | X-H torsion
[ 11005 11000 10999 10996 ] final   58.00 input  -57.11 | X-H torsion

> <Gold.Protein.ActiveResidues>
 VAL166  LYS551  ARG553  GLY616  TRP617  ASP618  TYR619  PRO620  LYS621  CYS622 
 ASP623  PHE694  ASN695  SER759  ASP760  ASP761  ALA762  ILE779  LEU786  VAL792 
 PHE793  MET794  SER795  GLU796  ALA797  LYS798  CYS799  TRP800  GLU811  SER814 

> <Gold.Protein.RotatedAtoms>
  151.4998  135.1061  159.9825 H   0  0  0  0  0  0  0  0  0  0  0  0  # atno 6907 bound_to 6896
  152.4707  133.8018  159.6967 H   0  0  0  0  0  0  0  0  0  0  0  0  # atno 6908 bound_to 6896
  150.8714  133.7437  159.2986 H   0  0  0  0  0  0  0  0  0  0  0  0  # atno 6909 bound_to 6896
  145.1276  140.8706  143.3776 H   0  0  0  0  0  0  0  0  0  0  0  0  # atno 7974 bound_to 7965
  155.0937  140.0395  157.2676 H   0  0  0  0  0  0  0  0  0  0  0  0  # atno 8008 bound_to 7997
  154.6812  140.2633  155.6882 H   0  0  0  0  0  0  0  0  0  0  0  0  # atno 8009 bound_to 7997
  156.2695  140.2778  156.1356 H   0  0  0  0  0  0  0  0  0  0  0  0  # atno 8010 bound_to 7997
  140.1465  143.4235  152.1525 H   0  0  0  0  0  0  0  0  0  0  0  0  # atno 10167 bound_to 10162
  156.0891  130.4203  150.1057 H   0  0  0  0  0  0  0  0  0  0  0  0  # atno 10718 bound_to 10713
  152.9911  135.5549  154.5816 H   0  0  0  0  0  0  0  0  0  0  0  0  # atno 10763 bound_to 10752
  154.5196  135.2807  155.1276 H   0  0  0  0  0  0  0  0  0  0  0  0  # atno 10764 bound_to 10752
  154.2634  135.6376  153.5336 H   0  0  0  0  0  0  0  0  0  0  0  0  # atno 10765 bound_to 10752
  140.0410  134.5873  155.9381 H   0  0  0  0  0  0  0  0  0  0  0  0  # atno 11005 bound_to 11000
  145.0670  139.3060  143.5851 LP  0  0  0  0  0  0  0  0  0  0  0  0  # atno 17320 bound_to 7965
  146.3516  140.0132  142.8665 LP  0  0  0  0  0  0  0  0  0  0  0  0  # atno 17321 bound_to 7965
  139.5446  144.7287  151.4623 LP  0  0  0  0  0  0  0  0  0  0  0  0  # atno 17342 bound_to 10162
  140.6729  143.8255  150.7021 LP  0  0  0  0  0  0  0  0  0  0  0  0  # atno 17343 bound_to 10162
  156.9071  130.9639  151.3568 LP  0  0  0  0  0  0  0  0  0  0  0  0  # atno 17370 bound_to 10713
  157.6035  130.8530  149.8839 LP  0  0  0  0  0  0  0  0  0  0  0  0  # atno 17371 bound_to 10713
  141.1883  133.6562  156.5319 LP  0  0  0  0  0  0  0  0  0  0  0  0  # atno 17394 bound_to 11000
  140.4068  134.7307  157.4813 LP  0  0  0  0  0  0  0  0  0  0  0  0  # atno 17395 bound_to 11000

$$$$
