AV-unprocessed.smi:1570|AV-procd|sdf|6319|dock1
  -GOLD-   22720 6523D 1   1.00000     0.00000
 Structure written by MMmdl.
 52 54  0  0  0  0  0  0  0  0  2 V2000
  146.8139  128.5408  151.5603 C   0  0  0  0  0  0  0  0  0  0  0  0
  146.8833  129.0938  152.9895 C   0  0  0  0  0  0  0  0  0  0  0  0
  147.1337  130.5328  152.9864 N   0  0  0  0  0  0  0  0  0  0  0  0
  148.1710  131.1724  153.5751 C   0  0  0  0  0  0  0  0  0  0  0  0
  149.0722  130.6450  154.2275 O   0  0  0  0  0  0  0  0  0  0  0  0
  148.0585  132.4949  153.3060 N   0  0  0  0  0  0  0  0  0  0  0  0
  148.9710  133.5496  153.7463 C   0  0  0  0  0  0  0  0  0  0  0  0
  148.2788  134.5464  154.6987 C   0  0  1  0  0  0  0  0  0  0  0  0
  147.5382  133.8068  155.6499 O   0  0  0  0  0  0  0  0  0  0  0  0
  149.3014  135.4066  155.4687 C   0  0  0  0  0  0  0  0  0  0  0  0
  149.7155  136.6117  154.7053 N   0  3  1  0  0  0  0  0  0  0  0  0
  148.8192  137.7689  154.9366 C   0  0  0  0  0  0  0  0  0  0  0  0
  149.2522  138.9687  154.0727 C   0  0  1  0  0  0  0  0  0  0  0  0
  148.3985  140.2127  154.3417 C   0  0  0  0  0  0  0  0  0  0  0  0
  150.6075  139.2888  154.3678 O   0  0  0  0  0  0  0  0  0  0  0  0
  151.5003  138.2207  154.0711 C   0  0  1  0  0  0  0  0  0  0  0  0
  152.9301  138.7043  154.3385 C   0  0  0  0  0  0  0  0  0  0  0  0
  151.1288  137.0015  154.9354 C   0  0  0  0  0  0  0  0  0  0  0  0
  146.9239  132.7056  152.5084 C   0  0  0  0  0  0  0  0  0  0  0  0
  146.3861  133.8795  151.9517 C   0  0  0  0  0  0  0  0  0  0  0  0
  145.2129  133.7473  151.1723 C   0  0  0  0  0  0  0  0  0  0  0  0
  144.6149  132.4768  150.9676 C   0  0  0  0  0  0  0  0  0  0  0  0
  145.1780  131.3108  151.5369 C   0  0  0  0  0  0  0  0  0  0  0  0
  146.3427  131.4704  152.3077 C   0  0  0  0  0  0  0  0  0  0  0  0
  146.6261  127.4670  151.5686 H   0  0  0  0  0  0  0  0  0  0  0  0
  147.7487  128.7104  151.0254 H   0  0  0  0  0  0  0  0  0  0  0  0
  146.0118  129.0133  150.9923 H   0  0  0  0  0  0  0  0  0  0  0  0
  145.9523  128.8857  153.5172 H   0  0  0  0  0  0  0  0  0  0  0  0
  147.6679  128.5806  153.5477 H   0  0  0  0  0  0  0  0  0  0  0  0
  149.8728  133.1330  154.1958 H   0  0  0  0  0  0  0  0  0  0  0  0
  149.3093  134.0739  152.8510 H   0  0  0  0  0  0  0  0  0  0  0  0
  147.5986  135.1854  154.1371 H   0  0  0  0  0  0  0  0  0  0  0  0
  147.2832  134.3857  156.3523 H   0  0  0  0  0  0  0  0  0  0  0  0
  148.8641  135.7002  156.4244 H   0  0  0  0  0  0  0  0  0  0  0  0
  150.1901  134.8221  155.7119 H   0  0  0  0  0  0  0  0  0  0  0  0
  147.7925  137.4933  154.6923 H   0  0  0  0  0  0  0  0  0  0  0  0
  148.8373  138.0371  155.9945 H   0  0  0  0  0  0  0  0  0  0  0  0
  149.1665  138.7109  153.0154 H   0  0  0  0  0  0  0  0  0  0  0  0
  147.3486  140.0253  154.1152 H   0  0  0  0  0  0  0  0  0  0  0  0
  148.7264  141.0509  153.7261 H   0  0  0  0  0  0  0  0  0  0  0  0
  148.4666  140.5203  155.3856 H   0  0  0  0  0  0  0  0  0  0  0  0
  151.4137  137.9626  153.0141 H   0  0  0  0  0  0  0  0  0  0  0  0
  153.6575  137.9228  154.1173 H   0  0  0  0  0  0  0  0  0  0  0  0
  153.0599  138.9976  155.3807 H   0  0  0  0  0  0  0  0  0  0  0  0
  153.1722  139.5673  153.7177 H   0  0  0  0  0  0  0  0  0  0  0  0
  151.2745  137.2334  155.9919 H   0  0  0  0  0  0  0  0  0  0  0  0
  151.7964  136.1740  154.6977 H   0  0  0  0  0  0  0  0  0  0  0  0
  146.8456  134.8443  152.1051 H   0  0  0  0  0  0  0  0  0  0  0  0
  144.7679  134.6243  150.7259 H   0  0  0  0  0  0  0  0  0  0  0  0
  143.7201  132.3987  150.3679 H   0  0  0  0  0  0  0  0  0  0  0  0
  144.7295  130.3409  151.3809 H   0  0  0  0  0  0  0  0  0  0  0  0
  149.6255  136.3744  153.7271 H   0  0  0  0  0  0  0  0  0  0  0  0
  1  2  1  0  0  0  0
  1 25  1  0  0  0  0
  1 26  1  0  0  0  0
  1 27  1  0  0  0  0
  2  3  1  0  0  0  0
  2 28  1  0  0  0  0
  2 29  1  0  0  0  0
  3 24  1  0  0  0  0
  3  4  1  0  0  0  0
  4  5  2  0  0  0  0
  4  6  1  0  0  0  0
  6  7  1  0  0  0  0
  6 19  1  0  0  0  0
  7  8  1  0  0  0  0
  7 30  1  0  0  0  0
  7 31  1  0  0  0  0
  8  9  1  0  0  0  0
  8 10  1  0  0  0  0
  8 32  1  0  0  0  0
  9 33  1  0  0  0  0
 10 11  1  0  0  0  0
 10 34  1  0  0  0  0
 10 35  1  0  0  0  0
 11 18  1  0  0  0  0
 11 12  1  0  0  0  0
 11 52  1  0  0  0  0
 12 13  1  0  0  0  0
 12 36  1  0  0  0  0
 12 37  1  0  0  0  0
 13 14  1  0  0  0  0
 13 15  1  0  0  0  0
 13 38  1  0  0  0  0
 14 39  1  0  0  0  0
 14 40  1  0  0  0  0
 14 41  1  0  0  0  0
 15 16  1  0  0  0  0
 16 17  1  0  0  0  0
 16 18  1  0  0  0  0
 16 42  1  0  0  0  0
 17 43  1  0  0  0  0
 17 44  1  0  0  0  0
 17 45  1  0  0  0  0
 18 46  1  0  0  0  0
 18 47  1  0  0  0  0
 19 24  2  0  0  0  0
 19 20  1  0  0  0  0
 20 21  2  0  0  0  0
 20 48  1  0  0  0  0
 21 22  1  0  0  0  0
 21 49  1  0  0  0  0
 22 23  2  0  0  0  0
 22 50  1  0  0  0  0
 23 24  1  0  0  0  0
 23 51  1  0  0  0  0
M  CHG  1  11   1
M  END
> <s_m_source_file>
AV-unprocessed.smi

> <i_m_source_file_index>
1570

> <i_lp_mmshare_version>
43012

> <i_f3d_flags>
0

> <s_epik_input>
W2NIXTFbY0hdW2NIXVtjSF1jKGMxMiluKFtDSDJdW0NIM10pYyg9TyluMltDSDJdW0NASF0oW09IXSlbQ0gyXU4zW0NIMl1bQ0BASF0oW0NIM10pT1tDQEBIXShbQ0gzXSlbQ0gyXTM=

> <s_epik_cmdline>
J2VwaWtfcHl0aG9uJywgJy1waCcsICc3LjAnLCAnLXRuJywgJzgnLCAnLW1hJywgJzIwMCcsICctbWV0YWxfYmluZGluZycsICctaW1hZScsICc8aW5maWxlLm1hZT4nLCAnLW9tYWUnLCAnPG91dGZpbGUubWFlPic=

> <r_epik_Ionization_Penalty>
0.706332

> <r_epik_Ionization_Penalty_Charging>
0.706318

> <r_epik_Ionization_Penalty_Neutral>
1.42224e-05

> <r_epik_State_Penalty>
0.729493

> <r_epik_Charging_Adjusted_Penalty>
1.43581

> <i_epik_Tot_Q>
1

> <i_epik_Tot_abs_Q>
1

> <r_epik_Metal_State_Penalty>
0.729493

> <b_epik_Metal_Only>
0

> <s_lp_Force_Field>
OPLS_2005

> <r_lp_Energy>
52.3817

> <b_lp_Chiralities_Consistent>
1

> <s_lp_Variant>
AV-unprocessed.smi:1570-8

> <Gold.Version>
5.8.1

> <Gold.Id.Protein>
6NUR|6NUR_protein|mol2

> <Gold.PLP.Fitness>
52.1673

> <Gold.PLP.PLP>
-44.7216

> <Gold.PLP.part.hbond>
-1.9952

> <Gold.PLP.part.metal>
0.0000

> <Gold.PLP.part.buried>
-2.1371

> <Gold.PLP.part.nonpolar>
-39.6975

> <Gold.PLP.part.repulsive>
0.2157

> <Gold.PLP.ligand.clash>
0.0000

> <Gold.PLP.ligand.torsion>
0.8226

> <Gold.PLP.Chemscore.Hbond>
2.9913

> <Gold.PLP.Chemscore.CHOScore>
0.0000

> <Gold.PLP.Chemscore.Metal>
0.0000

> <Gold.Chemscore.Hbonds>
donor molecule, donor type, donor heavy atom, donor atom, acceptor molecule, acceptor atom, score
      L1  H    11    52       P1  7948  2.00
      P1  H  7989  7998       L1    15  0.91

> <Gold.PLP.Chemscore.Internal.Correction>
0.1172

> <Gold.Rescore>
     Score         DG    S(hbond)    S(metal)    S(lipo)     H(rot)  DE(clash)    DE(int)     intcor
     16.84     -17.98       1.46        0.00     111.73       2.13       0.06       1.08       ----

> <Gold.Chemscore.Fitness>
16.8370

> <Gold.Chemscore.DG>
-17.9801

> <Gold.Chemscore.ZeroCoef>
-5.4800

> <Gold.Chemscore.Hbond>
1.4614

> <Gold.Chemscore.Metal>
0.0000

> <Gold.Chemscore.Lipo>
111.7305

> <Gold.Chemscore.Internal_Hbond>
0.0000

> <Gold.Chemscore.DEClash>
0.0616

> <Gold.Chemscore.DEInternal>
1.0816

> <Gold.Chemscore.Rot>
2.1303

> <Gold.Chemscore.Internal.Correction>
   9.000000E+99

> <Gold.Chemscore.Hbonds>
donor molecule, donor type, donor heavy atom, donor atom, acceptor molecule, acceptor atom, score
      L1  H    11    52       P1  7948  0.54
      P1  H  7989  7998       L1    15  0.22

> <Gold.Chemscore.Hbond.Weighted>
-4.8812

> <Gold.Chemscore.Metal.Weighted>
-0.0000

> <Gold.Chemscore.Lipo.Weighted>
-13.0725

> <Gold.Chemscore.Internal_Hbond.Weighted>
0.0000

> <Gold.Chemscore.DEClash.Weighted>
0.0616

> <Gold.Chemscore.DEInternal.Weighted>
1.0816

> <Gold.Chemscore.Rot.Weighted>
5.4535

> <Gold.Chemscore.Internal.Correction.Weighted>
   9.000000E+99

> <Gold.Protein.RotatedTorsions>
[ 6907 6896 6895 6894 ] final    2.06 input  -60.11 | X-H torsion
[ 7974 7965 7964 7962 ] final -132.11 input  175.53 | X-H torsion
[ 8008 7997 7996 7995 ] final  112.45 input   59.86 | X-H torsion
[ 10167 10162 10161 10158 ] final  163.37 input  -65.29 | X-H torsion
[ 10718 10713 10712 10709 ] final  -52.94 input   66.30 | X-H torsion
[ 10763 10752 10751 10750 ] final  104.91 input  -60.55 | X-H torsion
[ 11005 11000 10999 10996 ] final  167.66 input  -57.11 | X-H torsion

> <Gold.Protein.ActiveResidues>
 VAL166  LYS551  ARG553  GLY616  TRP617  ASP618  TYR619  PRO620  LYS621  CYS622 
 ASP623  PHE694  ASN695  SER759  ASP760  ASP761  ALA762  ILE779  LEU786  VAL792 
 PHE793  MET794  SER795  GLU796  ALA797  LYS798  CYS799  TRP800  GLU811  SER814 

> <Gold.Protein.RotatedAtoms>
  151.6028  135.1046  160.0063 H   0  0  0  0  0  0  0  0  0  0  0  0  # atno 6907 bound_to 6896
  152.4249  133.7174  159.6524 H   0  0  0  0  0  0  0  0  0  0  0  0  # atno 6908 bound_to 6896
  150.8137  133.8302  159.3192 H   0  0  0  0  0  0  0  0  0  0  0  0  # atno 6909 bound_to 6896
  144.9316  140.7135  143.4902 H   0  0  0  0  0  0  0  0  0  0  0  0  # atno 7974 bound_to 7965
  156.2193  140.2999  155.9913 H   0  0  0  0  0  0  0  0  0  0  0  0  # atno 8008 bound_to 7997
  155.2524  140.0426  157.3005 H   0  0  0  0  0  0  0  0  0  0  0  0  # atno 8009 bound_to 7997
  154.5815  140.2376  155.8055 H   0  0  0  0  0  0  0  0  0  0  0  0  # atno 8010 bound_to 7997
  139.4873  144.4344  151.9030 H   0  0  0  0  0  0  0  0  0  0  0  0  # atno 10167 bound_to 10162
  156.1578  130.4150  149.9841 H   0  0  0  0  0  0  0  0  0  0  0  0  # atno 10718 bound_to 10713
  153.3723  135.3927  155.1797 H   0  0  0  0  0  0  0  0  0  0  0  0  # atno 10763 bound_to 10752
  154.8696  135.3705  154.4962 H   0  0  0  0  0  0  0  0  0  0  0  0  # atno 10764 bound_to 10752
  153.5431  135.7084  153.5687 H   0  0  0  0  0  0  0  0  0  0  0  0  # atno 10765 bound_to 10752
  140.2791  134.7765  157.3742 H   0  0  0  0  0  0  0  0  0  0  0  0  # atno 11005 bound_to 11000
  145.3132  139.1812  143.4627 LP  0  0  0  0  0  0  0  0  0  0  0  0  # atno 17320 bound_to 7965
  146.3249  140.3140  142.8628 LP  0  0  0  0  0  0  0  0  0  0  0  0  # atno 17321 bound_to 7965
  140.3793  144.2756  150.5910 LP  0  0  0  0  0  0  0  0  0  0  0  0  # atno 17342 bound_to 10162
  140.5248  143.2257  151.8332 LP  0  0  0  0  0  0  0  0  0  0  0  0  # atno 17343 bound_to 10162
  156.7680  130.9175  151.3643 LP  0  0  0  0  0  0  0  0  0  0  0  0  # atno 17370 bound_to 10713
  157.6708  130.9050  150.0037 LP  0  0  0  0  0  0  0  0  0  0  0  0  # atno 17371 bound_to 10713
  140.1301  134.5107  155.8113 LP  0  0  0  0  0  0  0  0  0  0  0  0  # atno 17394 bound_to 11000
  141.2165  133.6786  156.7023 LP  0  0  0  0  0  0  0  0  0  0  0  0  # atno 17395 bound_to 11000

$$$$
