AV-unprocessed.smi:890|AV-procd|sdf|4060|dock1
  -GOLD-   22720 1543D 1   1.00000     0.00000
 Structure written by MMmdl.
 53 56  0  0  0  0  0  0  0  0  3 V2000
  151.0937  134.8606  155.6503 O   0  0  0  0  0  0  0  0  0  0  0  0
  150.2557  135.2792  154.8537 C   0  0  0  0  0  0  0  0  0  0  0  0
  149.3656  134.5288  154.1812 N   0  0  0  0  0  0  0  0  0  0  0  0
  149.1340  133.1205  154.2198 C   0  0  0  0  0  0  0  0  0  0  0  0
  150.0340  132.1853  154.7965 C   0  0  0  0  0  0  0  0  0  0  0  0
  149.7165  130.8124  154.7926 C   0  0  0  0  0  0  0  0  0  0  0  0
  148.5055  130.3895  154.2166 C   0  0  0  0  0  0  0  0  0  0  0  0
  147.6683  131.3005  153.6798 N   0  3  0  0  0  0  0  0  0  0  0  0
  147.9253  132.6314  153.6576 C   0  0  0  0  0  0  0  0  0  0  0  0
  146.9817  133.4927  153.0706 N   0  0  0  0  0  0  0  0  0  0  0  0
  145.6713  133.5120  153.6990 C   0  0  0  0  0  0  0  0  0  0  0  0
  144.7529  134.2075  152.6927 C   0  0  0  0  0  0  0  0  0  0  0  0
  145.4348  134.0025  151.3344 C   0  0  0  0  0  0  0  0  0  0  0  0
  146.7453  133.2754  151.6528 C   0  0  0  0  0  0  0  0  0  0  0  0
  150.1228  136.5769  154.5431 N   0  0  0  0  0  0  0  0  0  0  0  0
  150.9091  137.6637  155.1207 C   0  0  2  0  0  0  0  0  0  0  0  0
  150.9674  137.5111  156.6496 C   0  0  0  0  0  0  0  0  0  0  0  0
  151.7246  138.6844  157.2944 C   0  0  0  0  0  0  0  0  0  0  0  0
  151.1092  139.9832  156.9244 N   0  3  1  0  0  0  0  0  0  0  0  0
  151.7488  141.1203  157.6214 C   0  0  0  0  0  0  0  0  0  0  0  0
  151.0002  141.5754  158.8527 C   0  0  0  0  0  0  0  0  0  0  0  0
  150.9360  142.3936  157.5823 C   0  0  0  0  0  0  0  0  0  0  0  0
  151.0749  140.1756  155.4531 C   0  0  0  0  0  0  0  0  0  0  0  0
  150.3068  139.0357  154.7626 C   0  0  0  0  0  0  0  0  0  0  0  0
  148.7635  135.0367  153.5498 H   0  0  0  0  0  0  0  0  0  0  0  0
  150.9658  132.4796  155.2504 H   0  0  0  0  0  0  0  0  0  0  0  0
  150.3953  130.0939  155.2287 H   0  0  0  0  0  0  0  0  0  0  0  0
  148.1822  129.3597  154.1709 H   0  0  0  0  0  0  0  0  0  0  0  0
  145.3190  132.4969  153.8872 H   0  0  0  0  0  0  0  0  0  0  0  0
  145.6978  134.0426  154.6512 H   0  0  0  0  0  0  0  0  0  0  0  0
  143.7415  133.8013  152.7190 H   0  0  0  0  0  0  0  0  0  0  0  0
  144.6885  135.2732  152.9162 H   0  0  0  0  0  0  0  0  0  0  0  0
  144.8175  133.4223  150.6479 H   0  0  0  0  0  0  0  0  0  0  0  0
  145.6339  134.9675  150.8667 H   0  0  0  0  0  0  0  0  0  0  0  0
  147.5717  133.6609  151.0551 H   0  0  0  0  0  0  0  0  0  0  0  0
  146.6445  132.2101  151.4398 H   0  0  0  0  0  0  0  0  0  0  0  0
  149.4127  136.8356  153.8734 H   0  0  0  0  0  0  0  0  0  0  0  0
  151.9288  137.6101  154.7333 H   0  0  0  0  0  0  0  0  0  0  0  0
  149.9566  137.4649  157.0582 H   0  0  0  0  0  0  0  0  0  0  0  0
  151.4516  136.5703  156.9146 H   0  0  0  0  0  0  0  0  0  0  0  0
  151.7161  138.5705  158.3791 H   0  0  0  0  0  0  0  0  0  0  0  0
  152.7704  138.6743  156.9829 H   0  0  0  0  0  0  0  0  0  0  0  0
  152.8362  141.1571  157.5921 H   0  0  0  0  0  0  0  0  0  0  0  0
  150.1035  141.0308  159.1436 H   0  0  0  0  0  0  0  0  0  0  0  0
  151.5864  141.9785  159.6760 H   0  0  0  0  0  0  0  0  0  0  0  0
  151.4794  143.3363  157.5694 H   0  0  0  0  0  0  0  0  0  0  0  0
  149.9978  142.3906  157.0306 H   0  0  0  0  0  0  0  0  0  0  0  0
  150.5982  141.1284  155.2201 H   0  0  0  0  0  0  0  0  0  0  0  0
  152.0943  140.2290  155.0672 H   0  0  0  0  0  0  0  0  0  0  0  0
  150.3235  139.1870  153.6826 H   0  0  0  0  0  0  0  0  0  0  0  0
  149.2584  139.0719  155.0631 H   0  0  0  0  0  0  0  0  0  0  0  0
  150.1499  139.9538  157.2389 H   0  0  0  0  0  0  0  0  0  0  0  0
  146.7953  130.9691  153.2689 H   0  0  0  0  0  0  0  0  0  0  0  0
  1  2  2  0  0  0  0
  2  3  1  0  0  0  0
  2 15  1  0  0  0  0
  3  4  1  0  0  0  0
  3 25  1  0  0  0  0
  4  9  1  0  0  0  0
  4  5  2  0  0  0  0
  5  6  1  0  0  0  0
  5 26  1  0  0  0  0
  6  7  2  0  0  0  0
  6 27  1  0  0  0  0
  7  8  1  0  0  0  0
  7 28  1  0  0  0  0
  8  9  2  0  0  0  0
  8 53  1  0  0  0  0
  9 10  1  0  0  0  0
 10 14  1  0  0  0  0
 10 11  1  0  0  0  0
 11 12  1  0  0  0  0
 11 29  1  0  0  0  0
 11 30  1  0  0  0  0
 12 13  1  0  0  0  0
 12 31  1  0  0  0  0
 12 32  1  0  0  0  0
 13 14  1  0  0  0  0
 13 33  1  0  0  0  0
 13 34  1  0  0  0  0
 14 35  1  0  0  0  0
 14 36  1  0  0  0  0
 15 16  1  0  0  0  0
 15 37  1  0  0  0  0
 16 24  1  0  0  0  0
 16 17  1  0  0  0  0
 16 38  1  0  0  0  0
 17 18  1  0  0  0  0
 17 39  1  0  0  0  0
 17 40  1  0  0  0  0
 18 19  1  0  0  0  0
 18 41  1  0  0  0  0
 18 42  1  0  0  0  0
 19 20  1  0  0  0  0
 19 23  1  0  0  0  0
 19 52  1  0  0  0  0
 20 22  1  0  0  0  0
 20 21  1  0  0  0  0
 20 43  1  0  0  0  0
 21 22  1  0  0  0  0
 21 44  1  0  0  0  0
 21 45  1  0  0  0  0
 22 46  1  0  0  0  0
 22 47  1  0  0  0  0
 23 24  1  0  0  0  0
 23 48  1  0  0  0  0
 23 49  1  0  0  0  0
 24 50  1  0  0  0  0
 24 51  1  0  0  0  0
M  CHG  1   8   1
M  CHG  1  19   1
M  END
> <s_m_source_file>
AV-unprocessed.smi

> <i_m_source_file_index>
890

> <i_lp_mmshare_version>
43012

> <i_f3d_flags>
0

> <s_epik_input>
W0NIMl0xW0NIMl1bQ0hdMU4oW0NIMl1bQ0gyXTIpW0NIMl1bQ0gyXVtDSF0yW05IXUMoPU8pW05IXWMzW2NIXVtjSF1bY0hdbmMzTjRbQ0gyXVtDSDJdW0NIMl1bQ0gyXTQ=

> <s_epik_cmdline>
J2VwaWtfcHl0aG9uJywgJy1waCcsICc3LjAnLCAnLXRuJywgJzgnLCAnLW1hJywgJzIwMCcsICctbWV0YWxfYmluZGluZycsICctaW1hZScsICc8aW5maWxlLm1hZT4nLCAnLW9tYWUnLCAnPG91dGZpbGUubWFlPic=

> <r_lp_tautomer_probability>
0.999994

> <r_epik_Ionization_Penalty>
1.36901

> <r_epik_Ionization_Penalty_Charging>
1.36899

> <r_epik_Ionization_Penalty_Neutral>
1.88098e-05

> <r_epik_State_Penalty>
1.38441

> <r_epik_Charging_Adjusted_Penalty>
2.7534

> <i_epik_Tot_Q>
2

> <i_epik_Tot_abs_Q>
2

> <r_epik_Metal_State_Penalty>
1.45718

> <b_epik_Metal_Only>
0

> <s_lp_Force_Field>
OPLS_2005

> <r_lp_Energy>
65.7128

> <b_lp_Chiralities_Consistent>
1

> <s_lp_Variant>
AV-unprocessed.smi:890-4

> <Gold.Version>
5.8.1

> <Gold.Id.Protein>
6NUR|6NUR_protein|mol2

> <Gold.PLP.Fitness>
45.3231

> <Gold.PLP.PLP>
-37.9324

> <Gold.PLP.part.hbond>
-3.9419

> <Gold.PLP.part.metal>
0.0000

> <Gold.PLP.part.buried>
-1.7436

> <Gold.PLP.part.nonpolar>
-31.0337

> <Gold.PLP.part.repulsive>
0.3966

> <Gold.PLP.ligand.clash>
0.0000

> <Gold.PLP.ligand.torsion>
0.8579

> <Gold.PLP.Chemscore.Hbond>
2.6054

> <Gold.PLP.Chemscore.CHOScore>
0.0000

> <Gold.PLP.Chemscore.Metal>
0.0000

> <Gold.Chemscore.Hbonds>
donor molecule, donor type, donor heavy atom, donor atom, acceptor molecule, acceptor atom, score
      L1  H     3    25       P1  7948  0.71
      L1  H    15    37       P1  7948  0.51
      P1  H 10752 10764       L1     1  0.58

> <Gold.PLP.Chemscore.Internal.Correction>
1.2902

> <Gold.Rescore>
     Score         DG    S(hbond)    S(metal)    S(lipo)     H(rot)  DE(clash)    DE(int)     intcor
     13.80     -17.95       1.62        0.00      89.74       1.35       0.41       3.73       ----

> <Gold.Chemscore.Fitness>
13.8026

> <Gold.Chemscore.DG>
-17.9455

> <Gold.Chemscore.ZeroCoef>
-5.4800

> <Gold.Chemscore.Hbond>
1.6227

> <Gold.Chemscore.Metal>
0.0000

> <Gold.Chemscore.Lipo>
89.7358

> <Gold.Chemscore.Internal_Hbond>
0.0000

> <Gold.Chemscore.DEClash>
0.4111

> <Gold.Chemscore.DEInternal>
3.7318

> <Gold.Chemscore.Rot>
1.3489

> <Gold.Chemscore.Internal.Correction>
   9.000000E+99

> <Gold.Chemscore.Hbonds>
donor molecule, donor type, donor heavy atom, donor atom, acceptor molecule, acceptor atom, score
      L1  H     3    25       P1  7948  0.44
      L1  H    15    37       P1  7948  0.46
      P1  H 10752 10764       L1     1  0.34

> <Gold.Chemscore.Hbond.Weighted>
-5.4197

> <Gold.Chemscore.Metal.Weighted>
-0.0000

> <Gold.Chemscore.Lipo.Weighted>
-10.4991

> <Gold.Chemscore.Internal_Hbond.Weighted>
0.0000

> <Gold.Chemscore.DEClash.Weighted>
0.4111

> <Gold.Chemscore.DEInternal.Weighted>
3.7318

> <Gold.Chemscore.Rot.Weighted>
3.4532

> <Gold.Chemscore.Internal.Correction.Weighted>
   9.000000E+99

> <Gold.Protein.RotatedTorsions>
[ 6907 6896 6895 6894 ] final  133.29 input  -60.11 | X-H torsion
[ 7974 7965 7964 7962 ] final  114.26 input  175.53 | X-H torsion
[ 8008 7997 7996 7995 ] final   28.02 input   59.86 | X-H torsion
[ 10167 10162 10161 10158 ] final   45.27 input  -65.29 | X-H torsion
[ 10718 10713 10712 10709 ] final  -14.34 input   66.30 | X-H torsion
[ 10763 10752 10751 10750 ] final  -39.61 input  -60.55 | X-H torsion
[ 11005 11000 10999 10996 ] final  165.95 input  -57.11 | X-H torsion

> <Gold.Protein.ActiveResidues>
 VAL166  LYS551  ARG553  GLY616  TRP617  ASP618  TYR619  PRO620  LYS621  CYS622 
 ASP623  PHE694  ASN695  SER759  ASP760  ASP761  ALA762  ILE779  LEU786  VAL792 
 PHE793  MET794  SER795  GLU796  ALA797  LYS798  CYS799  TRP800  GLU811  SER814 

> <Gold.Protein.RotatedAtoms>
  152.3235  133.5880  159.5760 H   0  0  0  0  0  0  0  0  0  0  0  0  # atno 6907 bound_to 6896
  150.7384  133.9975  159.3636 H   0  0  0  0  0  0  0  0  0  0  0  0  # atno 6908 bound_to 6896
  151.7857  135.0750  160.0431 H   0  0  0  0  0  0  0  0  0  0  0  0  # atno 6909 bound_to 6896
  145.2067  139.2926  143.4290 H   0  0  0  0  0  0  0  0  0  0  0  0  # atno 7974 bound_to 7965
  155.0520  140.3181  155.4689 H   0  0  0  0  0  0  0  0  0  0  0  0  # atno 8008 bound_to 7997
  156.2832  140.2144  156.5590 H   0  0  0  0  0  0  0  0  0  0  0  0  # atno 8009 bound_to 7997
  154.7202  140.0490  157.0620 H   0  0  0  0  0  0  0  0  0  0  0  0  # atno 8010 bound_to 7997
  140.3258  144.2649  150.6175 H   0  0  0  0  0  0  0  0  0  0  0  0  # atno 10167 bound_to 10162
  156.6174  130.4866  149.6178 H   0  0  0  0  0  0  0  0  0  0  0  0  # atno 10718 bound_to 10713
  153.9322  135.6770  153.4745 H   0  0  0  0  0  0  0  0  0  0  0  0  # atno 10763 bound_to 10752
  153.0974  135.4845  154.8800 H   0  0  0  0  0  0  0  0  0  0  0  0  # atno 10764 bound_to 10752
  154.7422  135.3163  154.8666 H   0  0  0  0  0  0  0  0  0  0  0  0  # atno 10765 bound_to 10752
  140.2614  134.7899  157.3593 H   0  0  0  0  0  0  0  0  0  0  0  0  # atno 11005 bound_to 11000
  146.3406  140.2329  142.8593 LP  0  0  0  0  0  0  0  0  0  0  0  0  # atno 17320 bound_to 7965
  144.9895  140.8534  143.5348 LP  0  0  0  0  0  0  0  0  0  0  0  0  # atno 17321 bound_to 7965
  140.5442  143.2218  151.8034 LP  0  0  0  0  0  0  0  0  0  0  0  0  # atno 17342 bound_to 10162
  139.4865  144.4561  151.9597 LP  0  0  0  0  0  0  0  0  0  0  0  0  # atno 17343 bound_to 10162
  156.2340  130.6811  151.1491 LP  0  0  0  0  0  0  0  0  0  0  0  0  # atno 17370 bound_to 10713
  157.7237  131.0664  150.6025 LP  0  0  0  0  0  0  0  0  0  0  0  0  # atno 17371 bound_to 10713
  140.1461  134.4910  155.7995 LP  0  0  0  0  0  0  0  0  0  0  0  0  # atno 17394 bound_to 11000
  141.2190  133.6844  156.7296 LP  0  0  0  0  0  0  0  0  0  0  0  0  # atno 17395 bound_to 11000

$$$$
