AV-unprocessed.smi:1236|AV-procd|sdf|5179|dock5
  -GOLD-   22720 4263D 1   1.00000     0.00000
 Structure written by MMmdl.
 39 40  0  0  0  0  0  0  0  0  1 V2000
  147.0480  139.7259  151.9104 C   0  0  0  0  0  0  0  0  0  0  0  0
  146.5012  138.7059  152.9180 C   0  0  2  0  0  0  0  0  0  0  0  0
  147.1997  138.8440  154.2880 C   0  0  0  0  0  0  0  0  0  0  0  0
  148.5385  139.4351  154.2607 N   0  0  0  0  0  0  0  0  0  0  0  0
  149.5985  138.4445  154.4351 C   0  0  0  0  0  0  0  0  0  0  0  0
  150.9937  139.0918  154.4112 C   0  0  0  0  0  0  0  0  0  0  0  0
  151.0709  140.0995  155.4144 O   0  0  0  0  0  0  0  0  0  0  0  0
  150.0786  141.1084  155.2569 C   0  0  0  0  0  0  0  0  0  0  0  0
  148.6814  140.4654  155.2832 C   0  0  0  0  0  0  0  0  0  0  0  0
  146.6949  137.3575  152.3857 N   0  0  0  0  0  0  0  0  0  0  0  0
  145.7215  136.4886  152.0737 C   0  0  0  0  0  0  0  0  0  0  0  0
  144.5208  136.7437  152.1725 O   0  0  0  0  0  0  0  0  0  0  0  0
  146.2339  135.3192  151.6520 N   0  0  0  0  0  0  0  0  0  0  0  0
  145.5367  134.1510  151.2436 C   0  0  0  0  0  0  0  0  0  0  0  0
  146.3576  133.0500  150.9102 C   0  0  0  0  0  0  0  0  0  0  0  0
  145.7630  131.8433  150.4934 C   0  0  0  0  0  0  0  0  0  0  0  0
  144.3607  131.7687  150.4196 C   0  0  0  0  0  0  0  0  0  0  0  0
  143.6169  132.9111  150.7683 C   0  0  0  0  0  0  0  0  0  0  0  0
  144.1847  134.0681  151.1684 N   0  0  0  0  0  0  0  0  0  0  0  0
  146.9034  140.7455  152.2684 H   0  0  0  0  0  0  0  0  0  0  0  0
  146.5392  139.6401  150.9496 H   0  0  0  0  0  0  0  0  0  0  0  0
  148.1150  139.5827  151.7369 H   0  0  0  0  0  0  0  0  0  0  0  0
  145.4381  138.9202  153.0317 H   0  0  0  0  0  0  0  0  0  0  0  0
  146.5598  139.4566  154.9247 H   0  0  0  0  0  0  0  0  0  0  0  0
  147.2457  137.8661  154.7696 H   0  0  0  0  0  0  0  0  0  0  0  0
  149.4609  137.9166  155.3797 H   0  0  0  0  0  0  0  0  0  0  0  0
  149.5525  137.6932  153.6484 H   0  0  0  0  0  0  0  0  0  0  0  0
  151.7632  138.3426  154.5974 H   0  0  0  0  0  0  0  0  0  0  0  0
  151.1994  139.5260  153.4317 H   0  0  0  0  0  0  0  0  0  0  0  0
  150.1777  141.8355  156.0629 H   0  0  0  0  0  0  0  0  0  0  0  0
  150.2395  141.6434  154.3199 H   0  0  0  0  0  0  0  0  0  0  0  0
  147.9274  141.2397  155.1369 H   0  0  0  0  0  0  0  0  0  0  0  0
  148.5005  140.0360  156.2698 H   0  0  0  0  0  0  0  0  0  0  0  0
  147.6505  137.0540  152.2718 H   0  0  0  0  0  0  0  0  0  0  0  0
  147.2407  135.2539  151.6277 H   0  0  0  0  0  0  0  0  0  0  0  0
  147.4335  133.1248  150.9724 H   0  0  0  0  0  0  0  0  0  0  0  0
  146.3730  130.9905  150.2350 H   0  0  0  0  0  0  0  0  0  0  0  0
  143.8679  130.8611  150.1038 H   0  0  0  0  0  0  0  0  0  0  0  0
  142.5379  132.8960  150.7245 H   0  0  0  0  0  0  0  0  0  0  0  0
  1  2  1  0  0  0  0
  1 20  1  0  0  0  0
  1 21  1  0  0  0  0
  1 22  1  0  0  0  0
  2  3  1  0  0  0  0
  2 10  1  0  0  0  0
  2 23  1  0  0  0  0
  3  4  1  0  0  0  0
  3 24  1  0  0  0  0
  3 25  1  0  0  0  0
  4  9  1  0  0  0  0
  4  5  1  0  0  0  0
  5  6  1  0  0  0  0
  5 26  1  0  0  0  0
  5 27  1  0  0  0  0
  6  7  1  0  0  0  0
  6 28  1  0  0  0  0
  6 29  1  0  0  0  0
  7  8  1  0  0  0  0
  8  9  1  0  0  0  0
  8 30  1  0  0  0  0
  8 31  1  0  0  0  0
  9 32  1  0  0  0  0
  9 33  1  0  0  0  0
 10 11  1  0  0  0  0
 10 34  1  0  0  0  0
 11 12  2  0  0  0  0
 11 13  1  0  0  0  0
 13 14  1  0  0  0  0
 13 35  1  0  0  0  0
 14 19  1  0  0  0  0
 14 15  2  0  0  0  0
 15 16  1  0  0  0  0
 15 36  1  0  0  0  0
 16 17  2  0  0  0  0
 16 37  1  0  0  0  0
 17 18  1  0  0  0  0
 17 38  1  0  0  0  0
 18 19  2  0  0  0  0
 18 39  1  0  0  0  0
M  END
> <s_m_source_file>
AV-unprocessed.smi

> <i_m_source_file_index>
1236

> <i_lp_mmshare_version>
43012

> <i_f3d_flags>
0

> <s_epik_input>
W0NIMl0xW0NIMl1PW0NIMl1bQ0gyXU4xW0NIMl1bQ0BASF0oW0NIM10pW05IXUMoPU8pW05IXWMyW2NIXVtjSF1bY0hdW2NIXW4y

> <s_epik_cmdline>
J2VwaWtfcHl0aG9uJywgJy1waCcsICc3LjAnLCAnLXRuJywgJzgnLCAnLW1hJywgJzIwMCcsICctbWV0YWxfYmluZGluZycsICctaW1hZScsICc8aW5maWxlLm1hZT4nLCAnLW9tYWUnLCAnPG91dGZpbGUubWFlPic=

> <r_epik_Ionization_Penalty>
0.26604

> <r_epik_Ionization_Penalty_Charging>
0

> <r_epik_Ionization_Penalty_Neutral>
0.26604

> <r_epik_State_Penalty>
0.257924

> <r_epik_Charging_Adjusted_Penalty>
0.257924

> <i_epik_Tot_Q>
0

> <i_epik_Tot_abs_Q>
0

> <r_epik_Metal_State_Penalty>
0.257923

> <b_epik_Metal_Only>
0

> <s_lp_Force_Field>
OPLS_2005

> <r_lp_Energy>
27.6221

> <b_lp_Chiralities_Consistent>
1

> <s_lp_Variant>
AV-unprocessed.smi:1236-1

> <Gold.Version>
5.8.1

> <Gold.Id.Protein>
6NUR|6NUR_protein|mol2

> <Gold.PLP.Fitness>
38.3568

> <Gold.PLP.PLP>
-31.8143

> <Gold.PLP.part.hbond>
-2.8419

> <Gold.PLP.part.metal>
0.0000

> <Gold.PLP.part.buried>
-0.9134

> <Gold.PLP.part.nonpolar>
-29.0803

> <Gold.PLP.part.repulsive>
1.0557

> <Gold.PLP.ligand.clash>
0.0000

> <Gold.PLP.ligand.torsion>
1.1446

> <Gold.PLP.Chemscore.Hbond>
1.9440

> <Gold.PLP.Chemscore.CHOScore>
0.9965

> <Gold.PLP.Chemscore.Metal>
0.0000

> <Gold.Chemscore.Hbonds>
donor molecule, donor type, donor heavy atom, donor atom, acceptor molecule, acceptor atom, score
      L1  H    10    34       P1  7948  1.00
      L1  H    13    35       P1  7948  0.94
      L1  C    18    39       P1 10186  1.00

> <Gold.PLP.Chemscore.Internal.Correction>
0.0103

> <Gold.Rescore>
     Score         DG    S(hbond)    S(metal)    S(lipo)     H(rot)  DE(clash)    DE(int)     intcor
     13.87     -17.44       1.91        0.00      80.63       1.51       1.39       2.19       ----

> <Gold.Chemscore.Fitness>
13.8653

> <Gold.Chemscore.DG>
-17.4420

> <Gold.Chemscore.ZeroCoef>
-5.4800

> <Gold.Chemscore.Hbond>
1.9146

> <Gold.Chemscore.Metal>
0.0000

> <Gold.Chemscore.Lipo>
80.6293

> <Gold.Chemscore.Internal_Hbond>
0.0000

> <Gold.Chemscore.DEClash>
1.3915

> <Gold.Chemscore.DEInternal>
2.1852

> <Gold.Chemscore.Rot>
1.5104

> <Gold.Chemscore.Internal.Correction>
   9.000000E+99

> <Gold.Chemscore.Hbonds>
donor molecule, donor type, donor heavy atom, donor atom, acceptor molecule, acceptor atom, score
      L1  H    10    34       P1  7948  0.98
      L1  H    13    35       P1  7948  0.85

> <Gold.Chemscore.Hbond.Weighted>
-6.3949

> <Gold.Chemscore.Metal.Weighted>
-0.0000

> <Gold.Chemscore.Lipo.Weighted>
-9.4336

> <Gold.Chemscore.Internal_Hbond.Weighted>
0.0000

> <Gold.Chemscore.DEClash.Weighted>
1.3915

> <Gold.Chemscore.DEInternal.Weighted>
2.1852

> <Gold.Chemscore.Rot.Weighted>
3.8665

> <Gold.Chemscore.Internal.Correction.Weighted>
   9.000000E+99

> <Gold.Protein.RotatedTorsions>
[ 6907 6896 6895 6894 ] final  -51.66 input  -60.11 | X-H torsion
[ 7974 7965 7964 7962 ] final  -13.15 input  175.53 | X-H torsion
[ 8008 7997 7996 7995 ] final  -33.29 input   59.86 | X-H torsion
[ 10167 10162 10161 10158 ] final -117.24 input  -65.29 | X-H torsion
[ 10718 10713 10712 10709 ] final -173.46 input   66.30 | X-H torsion
[ 10763 10752 10751 10750 ] final  -93.34 input  -60.55 | X-H torsion
[ 11005 11000 10999 10996 ] final  129.85 input  -57.11 | X-H torsion

> <Gold.Protein.ActiveResidues>
 VAL166  LYS551  ARG553  GLY616  TRP617  ASP618  TYR619  PRO620  LYS621  CYS622 
 ASP623  PHE694  ASN695  SER759  ASP760  ASP761  ALA762  ILE779  LEU786  VAL792 
 PHE793  MET794  SER795  GLU796  ALA797  LYS798  CYS799  TRP800  GLU811  SER814 

> <Gold.Protein.RotatedAtoms>
  150.8590  134.7937  159.7067 H   0  0  0  0  0  0  0  0  0  0  0  0  # atno 6907 bound_to 6896
  152.4633  134.5130  159.9769 H   0  0  0  0  0  0  0  0  0  0  0  0  # atno 6908 bound_to 6896
  151.5238  133.3423  159.2941 H   0  0  0  0  0  0  0  0  0  0  0  0  # atno 6909 bound_to 6896
  146.2125  140.3162  142.8386 H   0  0  0  0  0  0  0  0  0  0  0  0  # atno 7974 bound_to 7965
  154.4153  140.1714  156.1865 H   0  0  0  0  0  0  0  0  0  0  0  0  # atno 8008 bound_to 7997
  155.9639  140.3391  155.6491 H   0  0  0  0  0  0  0  0  0  0  0  0  # atno 8009 bound_to 7997
  155.6713  140.0712  157.2509 H   0  0  0  0  0  0  0  0  0  0  0  0  # atno 8010 bound_to 7997
  140.0705  143.4882  152.1982 H   0  0  0  0  0  0  0  0  0  0  0  0  # atno 10167 bound_to 10162
  156.7706  130.9447  151.3120 H   0  0  0  0  0  0  0  0  0  0  0  0  # atno 10718 bound_to 10713
  154.6949  135.5198  153.8445 H   0  0  0  0  0  0  0  0  0  0  0  0  # atno 10763 bound_to 10752
  153.0660  135.6585  154.0363 H   0  0  0  0  0  0  0  0  0  0  0  0  # atno 10764 bound_to 10752
  154.0231  135.2992  155.3358 H   0  0  0  0  0  0  0  0  0  0  0  0  # atno 10765 bound_to 10752
  139.9638  134.9595  156.9208 H   0  0  0  0  0  0  0  0  0  0  0  0  # atno 11005 bound_to 11000
  144.8953  140.7575  143.5901 LP  0  0  0  0  0  0  0  0  0  0  0  0  # atno 17320 bound_to 7965
  145.3086  139.1826  143.4651 LP  0  0  0  0  0  0  0  0  0  0  0  0  # atno 17321 bound_to 7965
  139.5839  144.7522  151.3570 LP  0  0  0  0  0  0  0  0  0  0  0  0  # atno 17342 bound_to 10162
  140.7128  143.7346  150.7598 LP  0  0  0  0  0  0  0  0  0  0  0  0  # atno 17343 bound_to 10162
  157.6693  130.9036  150.0003 LP  0  0  0  0  0  0  0  0  0  0  0  0  # atno 17370 bound_to 10713
  156.1280  130.3644  149.9777 LP  0  0  0  0  0  0  0  0  0  0  0  0  # atno 17371 bound_to 10713
  140.5440  134.0692  155.7350 LP  0  0  0  0  0  0  0  0  0  0  0  0  # atno 17394 bound_to 11000
  141.1317  133.9290  157.2521 LP  0  0  0  0  0  0  0  0  0  0  0  0  # atno 17395 bound_to 11000

$$$$
