AV-unprocessed.smi:189|AV-procd|sdf|1483|dock10
  -GOLD-   2262019303D 1   1.00000     0.00000
 Structure written by MMmdl.
 53 57  0  0  0  0  0  0  0  0  1 V2000
  153.7514  139.7830  159.8178 C   0  0  0  0  0  0  0  0  0  0  0  0
  153.4825  141.1987  159.2787 C   0  0  2  0  0  0  0  0  0  0  0  0
  153.5605  142.2676  160.3862 C   0  0  0  0  0  0  0  0  0  0  0  0
  152.1071  142.7038  160.5869 C   0  0  1  0  0  0  0  0  0  0  0  0
  151.8854  144.0913  161.2227 C   0  0  0  0  0  0  0  0  0  0  0  0
  152.1766  145.2510  160.2581 C   0  0  0  0  0  0  0  0  0  0  0  0
  151.4097  145.0748  158.9407 C   0  0  0  0  0  0  0  0  0  0  0  0
  151.7898  143.7484  158.2709 C   0  0  0  0  0  0  0  0  0  0  0  0
  151.4994  142.5344  159.1875 C   0  0  1  0  0  0  0  0  0  0  0  0
  152.1383  141.3159  158.7015 N   0  0  0  0  0  0  0  0  0  0  0  0
  151.8359  140.8111  157.4723 C   0  0  0  0  0  0  0  0  0  0  0  0
  152.6250  139.8349  156.9488 N   0  0  0  0  0  0  0  0  0  0  0  0
  152.3638  139.3147  155.7471 C   0  0  0  0  0  0  0  0  0  0  0  0
  151.3759  139.6182  154.9057 N   0  0  0  0  0  0  0  0  0  0  0  0
  150.5748  140.5950  155.4181 C   0  0  0  0  0  0  0  0  0  0  0  0
  150.7269  141.2380  156.6813 C   0  0  0  0  0  0  0  0  0  0  0  0
  149.7043  142.1648  156.8539 N   0  0  0  0  0  0  0  0  0  0  0  0
  149.0003  142.0820  155.7591 C   0  0  0  0  0  0  0  0  0  0  0  0
  149.4562  141.1677  154.8379 N   0  0  0  0  0  0  0  0  0  0  0  0
  148.8624  140.8645  153.5440 C   0  0  0  0  0  0  0  0  0  0  0  0
  147.3294  140.6552  153.5940 C   0  0  2  0  0  0  0  0  0  0  0  0
  146.9050  140.0887  152.3673 O   0  0  0  0  0  0  0  0  0  0  0  0
  146.5716  141.9642  153.8277 C   0  0  0  0  0  0  0  0  0  0  0  0
  146.0534  141.8291  155.2543 C   0  0  0  0  0  0  0  0  0  0  0  0
  145.7706  140.4448  155.3499 O   0  0  0  0  0  0  0  0  0  0  0  0
  146.8614  139.7558  154.7563 C   0  0  0  0  0  0  0  0  0  0  0  0
  154.7434  139.7195  160.2651 H   0  0  0  0  0  0  0  0  0  0  0  0
  153.7020  139.0326  159.0293 H   0  0  0  0  0  0  0  0  0  0  0  0
  153.0236  139.5084  160.5822 H   0  0  0  0  0  0  0  0  0  0  0  0
  154.2312  141.4364  158.5218 H   0  0  0  0  0  0  0  0  0  0  0  0
  154.0136  141.9020  161.3083 H   0  0  0  0  0  0  0  0  0  0  0  0
  154.1660  143.1045  160.0381 H   0  0  0  0  0  0  0  0  0  0  0  0
  151.6446  141.9635  161.2423 H   0  0  0  0  0  0  0  0  0  0  0  0
  150.8457  144.1632  161.5445 H   0  0  0  0  0  0  0  0  0  0  0  0
  152.4888  144.1911  162.1253 H   0  0  0  0  0  0  0  0  0  0  0  0
  151.9010  146.1969  160.7250 H   0  0  0  0  0  0  0  0  0  0  0  0
  153.2466  145.3092  160.0562 H   0  0  0  0  0  0  0  0  0  0  0  0
  150.3355  145.1016  159.1280 H   0  0  0  0  0  0  0  0  0  0  0  0
  151.6305  145.9053  158.2698 H   0  0  0  0  0  0  0  0  0  0  0  0
  151.2457  143.6467  157.3318 H   0  0  0  0  0  0  0  0  0  0  0  0
  152.8475  143.7776  158.0053 H   0  0  0  0  0  0  0  0  0  0  0  0
  150.4244  142.3995  159.2977 H   0  0  0  0  0  0  0  0  0  0  0  0
  153.0445  138.5463  155.4121 H   0  0  0  0  0  0  0  0  0  0  0  0
  148.1228  142.6898  155.5920 H   0  0  0  0  0  0  0  0  0  0  0  0
  149.1049  141.6762  152.8568 H   0  0  0  0  0  0  0  0  0  0  0  0
  149.3522  139.9745  153.1464 H   0  0  0  0  0  0  0  0  0  0  0  0
  147.6667  139.9438  151.8267 H   0  0  0  0  0  0  0  0  0  0  0  0
  147.1881  142.8541  153.6951 H   0  0  0  0  0  0  0  0  0  0  0  0
  145.7218  142.0529  153.1488 H   0  0  0  0  0  0  0  0  0  0  0  0
  146.8229  142.1000  155.9790 H   0  0  0  0  0  0  0  0  0  0  0  0
  145.1687  142.4378  155.4423 H   0  0  0  0  0  0  0  0  0  0  0  0
  146.5764  138.7498  154.4455 H   0  0  0  0  0  0  0  0  0  0  0  0
  147.6365  139.6578  155.5162 H   0  0  0  0  0  0  0  0  0  0  0  0
  1  2  1  0  0  0  0
  1 27  1  0  0  0  0
  1 28  1  0  0  0  0
  1 29  1  0  0  0  0
  2 10  1  0  0  0  0
  2  3  1  0  0  0  0
  2 30  1  0  0  0  0
  3  4  1  0  0  0  0
  3 31  1  0  0  0  0
  3 32  1  0  0  0  0
  4  9  1  0  0  0  0
  4  5  1  0  0  0  0
  4 33  1  0  0  0  0
  5  6  1  0  0  0  0
  5 34  1  0  0  0  0
  5 35  1  0  0  0  0
  6  7  1  0  0  0  0
  6 36  1  0  0  0  0
  6 37  1  0  0  0  0
  7  8  1  0  0  0  0
  7 38  1  0  0  0  0
  7 39  1  0  0  0  0
  8  9  1  0  0  0  0
  8 40  1  0  0  0  0
  8 41  1  0  0  0  0
  9 10  1  0  0  0  0
  9 42  1  0  0  0  0
 10 11  1  0  0  0  0
 11 16  1  0  0  0  0
 11 12  2  0  0  0  0
 12 13  1  0  0  0  0
 13 14  2  0  0  0  0
 13 43  1  0  0  0  0
 14 15  1  0  0  0  0
 15 19  1  0  0  0  0
 15 16  2  0  0  0  0
 16 17  1  0  0  0  0
 17 18  2  0  0  0  0
 18 19  1  0  0  0  0
 18 44  1  0  0  0  0
 19 20  1  0  0  0  0
 20 21  1  0  0  0  0
 20 45  1  0  0  0  0
 20 46  1  0  0  0  0
 21 26  1  0  0  0  0
 21 22  1  0  0  0  0
 21 23  1  0  0  0  0
 22 47  1  0  0  0  0
 23 24  1  0  0  0  0
 23 48  1  0  0  0  0
 23 49  1  0  0  0  0
 24 25  1  0  0  0  0
 24 50  1  0  0  0  0
 24 51  1  0  0  0  0
 25 26  1  0  0  0  0
 26 52  1  0  0  0  0
 26 53  1  0  0  0  0
M  END
> <s_m_source_file>
AV-unprocessed.smi

> <i_m_source_file_index>
189

> <i_lp_mmshare_version>
43012

> <i_f3d_flags>
0

> <s_epik_input>
W0NIMl0xW0NIMl1bQ0gyXVtDSDJdW0NASF0oW0NASF0xMilOKFtDQEhdKFtDSDNdKVtDSDJdMiljKG5bY0hdbjMpYyhjMzQpbltjSF1uNFtDSDJdW0NAQF01KFtPSF0pW0NIMl1bQ0gyXU9bQ0gyXTU=

> <s_epik_cmdline>
J2VwaWtfcHl0aG9uJywgJy1waCcsICc3LjAnLCAnLXRuJywgJzgnLCAnLW1hJywgJzIwMCcsICctbWV0YWxfYmluZGluZycsICctaW1hZScsICc8aW5maWxlLm1hZT4nLCAnLW9tYWUnLCAnPG91dGZpbGUubWFlPic=

> <r_lp_tautomer_probability>
1

> <r_epik_Ionization_Penalty>
0.00594261

> <r_epik_Ionization_Penalty_Charging>
0

> <r_epik_Ionization_Penalty_Neutral>
0.00594261

> <r_epik_State_Penalty>
0.00429776

> <r_epik_Charging_Adjusted_Penalty>
0.00429776

> <i_epik_Tot_Q>
0

> <i_epik_Tot_abs_Q>
0

> <r_epik_Metal_State_Penalty>
-0

> <b_epik_Metal_Only>
0

> <s_lp_Force_Field>
OPLS_2005

> <r_lp_Energy>
57.6623

> <b_lp_Chiralities_Consistent>
1

> <s_lp_Variant>
AV-unprocessed.smi:189-9

> <Gold.Version>
5.8.1

> <Gold.Id.Protein>
6NUR|6NUR_protein|mol2

> <Gold.PLP.Fitness>
60.0112

> <Gold.PLP.PLP>
-52.4254

> <Gold.PLP.part.hbond>
-3.3109

> <Gold.PLP.part.metal>
0.0000

> <Gold.PLP.part.buried>
1.7810

> <Gold.PLP.part.nonpolar>
-51.2979

> <Gold.PLP.part.repulsive>
1.4843

> <Gold.PLP.ligand.clash>
0.0000

> <Gold.PLP.ligand.torsion>
0.3955

> <Gold.PLP.Chemscore.Hbond>
2.2000

> <Gold.PLP.Chemscore.CHOScore>
0.5073

> <Gold.PLP.Chemscore.Metal>
0.0000

> <Gold.Chemscore.Hbonds>
donor molecule, donor type, donor heavy atom, donor atom, acceptor molecule, acceptor atom, score
      L1  H    22    47       P1  7957  1.00
      P1  H  7989  7998       L1    14  0.20
      P1  H  7997  8009       L1    12  1.00
      L1  C    18    44       P1  8028  0.50

> <Gold.PLP.Chemscore.Internal.Correction>
0.2549

> <Gold.Rescore>
     Score         DG    S(hbond)    S(metal)    S(lipo)     H(rot)  DE(clash)    DE(int)     intcor
     14.33     -21.29       1.38        0.00     134.00       1.74       4.67       2.30       ----

> <Gold.Chemscore.Fitness>
14.3261

> <Gold.Chemscore.DG>
-21.2921

> <Gold.Chemscore.ZeroCoef>
-5.4800

> <Gold.Chemscore.Hbond>
1.3751

> <Gold.Chemscore.Metal>
0.0000

> <Gold.Chemscore.Lipo>
134.0049

> <Gold.Chemscore.Internal_Hbond>
0.0000

> <Gold.Chemscore.DEClash>
4.6677

> <Gold.Chemscore.DEInternal>
2.2982

> <Gold.Chemscore.Rot>
1.7420

> <Gold.Chemscore.Internal.Correction>
   9.000000E+99

> <Gold.Chemscore.Hbonds>
donor molecule, donor type, donor heavy atom, donor atom, acceptor molecule, acceptor atom, score
      L1  H    22    47       P1  7957  0.94
      P1  H  7997  8009       L1    12  0.28

> <Gold.Chemscore.Hbond.Weighted>
-4.5930

> <Gold.Chemscore.Metal.Weighted>
-0.0000

> <Gold.Chemscore.Lipo.Weighted>
-15.6786

> <Gold.Chemscore.Internal_Hbond.Weighted>
0.0000

> <Gold.Chemscore.DEClash.Weighted>
4.6677

> <Gold.Chemscore.DEInternal.Weighted>
2.2982

> <Gold.Chemscore.Rot.Weighted>
4.4594

> <Gold.Chemscore.Internal.Correction.Weighted>
   9.000000E+99

> <Gold.Protein.RotatedTorsions>
[ 6907 6896 6895 6894 ] final  169.57 input  -60.11 | X-H torsion
[ 7974 7965 7964 7962 ] final   22.42 input  175.53 | X-H torsion
[ 8008 7997 7996 7995 ] final  166.60 input   59.86 | X-H torsion
[ 10167 10162 10161 10158 ] final  110.53 input  -65.29 | X-H torsion
[ 10718 10713 10712 10709 ] final   72.28 input   66.30 | X-H torsion
[ 10763 10752 10751 10750 ] final   74.02 input  -60.55 | X-H torsion
[ 11005 11000 10999 10996 ] final  -15.12 input  -57.11 | X-H torsion

> <Gold.Protein.ActiveResidues>
 VAL166  LYS551  ARG553  GLY616  TRP617  ASP618  TYR619  PRO620  LYS621  CYS622 
 ASP623  PHE694  ASN695  SER759  ASP760  ASP761  ALA762  ILE779  LEU786  VAL792 
 PHE793  MET794  SER795  GLU796  ALA797  LYS798  CYS799  TRP800  GLU811  SER814 

> <Gold.Protein.RotatedAtoms>
  151.8298  133.3407  159.3609 H   0  0  0  0  0  0  0  0  0  0  0  0  # atno 6907 bound_to 6896
  150.7268  134.5494  159.5796 H   0  0  0  0  0  0  0  0  0  0  0  0  # atno 6908 bound_to 6896
  152.2944  134.7684  160.0422 H   0  0  0  0  0  0  0  0  0  0  0  0  # atno 6909 bound_to 6896
  146.2029  139.7888  142.8747 H   0  0  0  0  0  0  0  0  0  0  0  0  # atno 7974 bound_to 7965
  156.1704  140.1639  156.8457 H   0  0  0  0  0  0  0  0  0  0  0  0  # atno 8008 bound_to 7997
  154.5251  140.0769  156.8278 H   0  0  0  0  0  0  0  0  0  0  0  0  # atno 8009 bound_to 7997
  155.3524  140.3390  155.4242 H   0  0  0  0  0  0  0  0  0  0  0  0  # atno 8010 bound_to 7997
  139.6681  144.7126  151.1739 H   0  0  0  0  0  0  0  0  0  0  0  0  # atno 10167 bound_to 10162
  157.6493  130.9571  150.0907 H   0  0  0  0  0  0  0  0  0  0  0  0  # atno 10718 bound_to 10713
  153.0559  135.5041  154.7980 H   0  0  0  0  0  0  0  0  0  0  0  0  # atno 10763 bound_to 10752
  154.6806  135.2967  154.9620 H   0  0  0  0  0  0  0  0  0  0  0  0  # atno 10764 bound_to 10752
  154.0408  135.6717  153.4842 H   0  0  0  0  0  0  0  0  0  0  0  0  # atno 10765 bound_to 10752
  140.7934  133.8270  155.9401 H   0  0  0  0  0  0  0  0  0  0  0  0  # atno 11005 bound_to 11000
  145.3420  141.0289  143.3387 LP  0  0  0  0  0  0  0  0  0  0  0  0  # atno 17320 bound_to 7965
  144.8725  139.5017  143.6761 LP  0  0  0  0  0  0  0  0  0  0  0  0  # atno 17321 bound_to 7965
  140.7607  143.5887  150.8819 LP  0  0  0  0  0  0  0  0  0  0  0  0  # atno 17342 bound_to 10162
  139.9550  143.6228  152.3018 LP  0  0  0  0  0  0  0  0  0  0  0  0  # atno 17343 bound_to 10162
  156.1857  130.3652  149.8976 LP  0  0  0  0  0  0  0  0  0  0  0  0  # atno 17370 bound_to 10713
  156.6917  130.8898  151.3589 LP  0  0  0  0  0  0  0  0  0  0  0  0  # atno 17371 bound_to 10713
  140.9367  134.1953  157.4826 LP  0  0  0  0  0  0  0  0  0  0  0  0  # atno 17394 bound_to 11000
  139.8729  134.9855  156.5285 LP  0  0  0  0  0  0  0  0  0  0  0  0  # atno 17395 bound_to 11000

$$$$
