AV-unprocessed.smi:48|AV-procd|sdf|450|dock8
  -GOLD-   2262016323D 1   1.00000     0.00000
 Structure written by MMmdl.
 30 32  0  0  0  0  0  0  0  0  1 V2000
  149.9078  138.4947  153.3028 O   0  0  0  0  0  0  0  0  0  0  0  0
  148.7467  138.9267  153.9799 C   0  0  0  0  0  0  0  0  0  0  0  0
  148.9698  140.3246  154.5840 C   0  0  2  0  0  0  0  0  0  0  0  0
  150.3149  140.4837  155.0143 O   0  0  0  0  0  0  0  0  0  0  0  0
  150.3870  141.5660  155.8891 C   0  0  2  0  0  0  0  0  0  0  0  0
  151.3941  141.2494  156.9510 N   0  0  0  0  0  0  0  0  0  0  0  0
  152.0507  140.0849  157.1297 C   0  0  0  0  0  0  0  0  0  0  0  0
  152.9137  140.0148  158.1425 N   0  0  0  0  0  0  0  0  0  0  0  0
  152.8048  141.2841  158.6857 C   0  0  0  0  0  0  0  0  0  0  0  0
  153.4356  141.9131  159.7865 C   0  0  0  0  0  0  0  0  0  0  0  0
  154.5954  141.0702  160.7471 Cl  0  0  0  0  0  0  0  0  0  0  0  0
  153.1083  143.1960  160.0713 N   0  0  0  0  0  0  0  0  0  0  0  0
  152.2044  143.8259  159.3108 C   0  0  0  0  0  0  0  0  0  0  0  0
  151.5312  143.3652  158.2508 N   0  0  0  0  0  0  0  0  0  0  0  0
  151.8636  142.0719  157.9631 C   0  0  0  0  0  0  0  0  0  0  0  0
  148.9690  141.8144  156.4494 C   0  0  2  0  0  0  0  0  0  0  0  0
  148.8660  141.8729  157.8619 O   0  0  0  0  0  0  0  0  0  0  0  0
  148.1411  140.6926  155.8243 C   0  0  2  0  0  0  0  0  0  0  0  0
  147.9845  139.5809  156.6897 O   0  0  0  0  0  0  0  0  0  0  0  0
  148.7945  141.0770  153.8127 H   0  0  0  0  0  0  0  0  0  0  0  0
  150.7929  142.4385  155.3750 H   0  0  0  0  0  0  0  0  0  0  0  0
  148.6339  142.7707  156.0456 H   0  0  0  0  0  0  0  0  0  0  0  0
  147.1451  141.0404  155.5480 H   0  0  0  0  0  0  0  0  0  0  0  0
  149.6532  137.8773  152.6338 H   0  0  0  0  0  0  0  0  0  0  0  0
  147.8947  138.9125  153.2996 H   0  0  0  0  0  0  0  0  0  0  0  0
  148.5277  138.2122  154.7737 H   0  0  0  0  0  0  0  0  0  0  0  0
  151.8882  139.2403  156.4763 H   0  0  0  0  0  0  0  0  0  0  0  0
  151.9886  144.8460  159.5919 H   0  0  0  0  0  0  0  0  0  0  0  0
  148.0344  141.4979  158.1106 H   0  0  0  0  0  0  0  0  0  0  0  0
  147.4406  138.9408  156.2566 H   0  0  0  0  0  0  0  0  0  0  0  0
  1  2  1  0  0  0  0
  1 24  1  0  0  0  0
  2  3  1  0  0  0  0
  2 25  1  0  0  0  0
  2 26  1  0  0  0  0
  3 20  1  0  0  0  0
  3 18  1  0  0  0  0
  3  4  1  0  0  0  0
  4  5  1  0  0  0  0
  5 21  1  0  0  0  0
  5  6  1  0  0  0  0
  5 16  1  0  0  0  0
  6 15  1  0  0  0  0
  6  7  1  0  0  0  0
  7  8  2  0  0  0  0
  7 27  1  0  0  0  0
  8  9  1  0  0  0  0
  9 15  2  0  0  0  0
  9 10  1  0  0  0  0
 10 11  1  0  0  0  0
 10 12  2  0  0  0  0
 12 13  1  0  0  0  0
 13 14  2  0  0  0  0
 13 28  1  0  0  0  0
 14 15  1  0  0  0  0
 16 22  1  0  0  0  0
 16 17  1  0  0  0  0
 16 18  1  0  0  0  0
 17 29  1  0  0  0  0
 18 23  1  0  0  0  0
 18 19  1  0  0  0  0
 19 30  1  0  0  0  0
M  END
> <s_m_source_file>
AV-unprocessed.smi

> <i_m_source_file_index>
48

> <i_lp_mmshare_version>
43012

> <i_f3d_flags>
0

> <s_epik_input>
W09IXVtDSDJdW0NASF0xT1tDQEhdKFtDQEhdKFtPSF0pW0NAQEhdMVtPSF0pbihbY0hdbjIpYyhjMjMpbltjSF1uYzNDbA==

> <s_epik_cmdline>
J2VwaWtfcHl0aG9uJywgJy1waCcsICc3LjAnLCAnLXRuJywgJzgnLCAnLW1hJywgJzIwMCcsICctbWV0YWxfYmluZGluZycsICctaW1hZScsICc8aW5maWxlLm1hZT4nLCAnLW9tYWUnLCAnPG91dGZpbGUubWFlPic=

> <r_lp_tautomer_probability>
1

> <r_epik_Ionization_Penalty>
3.45505e-06

> <r_epik_Ionization_Penalty_Charging>
0

> <r_epik_Ionization_Penalty_Neutral>
3.45505e-06

> <r_epik_State_Penalty>
-0

> <r_epik_Charging_Adjusted_Penalty>
0

> <i_epik_Tot_Q>
0

> <i_epik_Tot_abs_Q>
0

> <r_epik_Metal_State_Penalty>
-0

> <b_epik_Metal_Only>
0

> <s_epik_Chemistry_Notes>
This compound contains an acetal/aminal-like group ( X-CH(R)-Y where X, Y are N, S, or O) that may be acid/base labile, releasing an aldehyde.

> <s_lp_Force_Field>
OPLS_2005

> <r_lp_Energy>
43.6519

> <b_lp_Chiralities_Consistent>
1

> <s_lp_Variant>
AV-unprocessed.smi:48-4

> <Gold.Version>
5.8.1

> <Gold.Id.Protein>
6NUR|6NUR_protein|mol2

> <Gold.PLP.Fitness>
38.5345

> <Gold.PLP.PLP>
-30.3635

> <Gold.PLP.part.hbond>
-4.0000

> <Gold.PLP.part.metal>
0.0000

> <Gold.PLP.part.buried>
-2.0512

> <Gold.PLP.part.nonpolar>
-22.4617

> <Gold.PLP.part.repulsive>
0.1629

> <Gold.PLP.ligand.clash>
0.0000

> <Gold.PLP.ligand.torsion>
0.3659

> <Gold.PLP.Chemscore.Hbond>
2.9675

> <Gold.PLP.Chemscore.CHOScore>
0.0000

> <Gold.PLP.Chemscore.Metal>
0.0000

> <Gold.Chemscore.Hbonds>
donor molecule, donor type, donor heavy atom, donor atom, acceptor molecule, acceptor atom, score
      L1  H     1    24       P1  7948  1.00
      P1  H  7989  7998       L1     4  0.97
      P1  H  7997  8008       L1     8  0.90

> <Gold.PLP.Chemscore.Internal.Correction>
0.0006

> <Gold.Rescore>
     Score         DG    S(hbond)    S(metal)    S(lipo)     H(rot)  DE(clash)    DE(int)     intcor
      4.42      -7.36       1.73        0.00      50.01       3.80       1.53       1.41       ----

> <Gold.Chemscore.Fitness>
4.4226

> <Gold.Chemscore.DG>
-7.3607

> <Gold.Chemscore.ZeroCoef>
-5.4800

> <Gold.Chemscore.Hbond>
1.7251

> <Gold.Chemscore.Metal>
0.0000

> <Gold.Chemscore.Lipo>
50.0099

> <Gold.Chemscore.Internal_Hbond>
0.0000

> <Gold.Chemscore.DEClash>
1.5291

> <Gold.Chemscore.DEInternal>
1.4089

> <Gold.Chemscore.Rot>
3.8017

> <Gold.Chemscore.Internal.Correction>
   9.000000E+99

> <Gold.Chemscore.Hbonds>
donor molecule, donor type, donor heavy atom, donor atom, acceptor molecule, acceptor atom, score
      L1  H     1    24       P1  7948  0.50
      P1  H  7989  7998       L1     4  0.42
      P1  H  7997  8008       L1     8  0.08

> <Gold.Chemscore.Hbond.Weighted>
-5.7619

> <Gold.Chemscore.Metal.Weighted>
-0.0000

> <Gold.Chemscore.Lipo.Weighted>
-5.8512

> <Gold.Chemscore.Internal_Hbond.Weighted>
0.0000

> <Gold.Chemscore.DEClash.Weighted>
1.5291

> <Gold.Chemscore.DEInternal.Weighted>
1.4089

> <Gold.Chemscore.Rot.Weighted>
9.7324

> <Gold.Chemscore.Internal.Correction.Weighted>
   9.000000E+99

> <Gold.Protein.RotatedTorsions>
[ 6907 6896 6895 6894 ] final  119.44 input  -60.11 | X-H torsion
[ 7974 7965 7964 7962 ] final   13.34 input  175.53 | X-H torsion
[ 8008 7997 7996 7995 ] final  -88.17 input   59.86 | X-H torsion
[ 10167 10162 10161 10158 ] final  -91.03 input  -65.29 | X-H torsion
[ 10718 10713 10712 10709 ] final -104.22 input   66.30 | X-H torsion
[ 10763 10752 10751 10750 ] final  107.90 input  -60.55 | X-H torsion
[ 11005 11000 10999 10996 ] final   43.22 input  -57.11 | X-H torsion

> <Gold.Protein.ActiveResidues>
 VAL166  LYS551  ARG553  GLY616  TRP617  ASP618  TYR619  PRO620  LYS621  CYS622 
 ASP623  PHE694  ASN695  SER759  ASP760  ASP761  ALA762  ILE779  LEU786  VAL792 
 PHE793  MET794  SER795  GLU796  ALA797  LYS798  CYS799  TRP800  GLU811  SER814 

> <Gold.Protein.RotatedAtoms>
  152.4471  133.7557  159.6718 H   0  0  0  0  0  0  0  0  0  0  0  0  # atno 6907 bound_to 6896
  150.8374  133.7981  159.3080 H   0  0  0  0  0  0  0  0  0  0  0  0  # atno 6908 bound_to 6896
  151.5617  135.1068  160.0026 H   0  0  0  0  0  0  0  0  0  0  0  0  # atno 6909 bound_to 6896
  146.2331  139.9203  142.8511 H   0  0  0  0  0  0  0  0  0  0  0  0  # atno 7974 bound_to 7965
  154.6717  140.0557  157.0173 H   0  0  0  0  0  0  0  0  0  0  0  0  # atno 8008 bound_to 7997
  155.1078  140.3235  155.4511 H   0  0  0  0  0  0  0  0  0  0  0  0  # atno 8009 bound_to 7997
  156.2660  140.2019  156.6203 H   0  0  0  0  0  0  0  0  0  0  0  0  # atno 8010 bound_to 7997
  140.3490  143.2901  151.9748 H   0  0  0  0  0  0  0  0  0  0  0  0  # atno 10167 bound_to 10162
  156.0296  130.5505  150.7365 H   0  0  0  0  0  0  0  0  0  0  0  0  # atno 10718 bound_to 10713
  153.4132  135.3829  155.2064 H   0  0  0  0  0  0  0  0  0  0  0  0  # atno 10763 bound_to 10752
  154.8739  135.3799  154.4475 H   0  0  0  0  0  0  0  0  0  0  0  0  # atno 10764 bound_to 10752
  153.4986  135.7088  153.5906 H   0  0  0  0  0  0  0  0  0  0  0  0  # atno 10765 bound_to 10752
  140.1665  134.4275  155.8284 H   0  0  0  0  0  0  0  0  0  0  0  0  # atno 11005 bound_to 11000
  145.2143  140.9908  143.4082 LP  0  0  0  0  0  0  0  0  0  0  0  0  # atno 17320 bound_to 7965
  144.9665  139.3925  143.6330 LP  0  0  0  0  0  0  0  0  0  0  0  0  # atno 17321 bound_to 7965
  139.4829  144.6093  151.7464 LP  0  0  0  0  0  0  0  0  0  0  0  0  # atno 17342 bound_to 10162
  140.5237  144.0838  150.6031 LP  0  0  0  0  0  0  0  0  0  0  0  0  # atno 17343 bound_to 10162
  157.4945  131.0913  151.0388 LP  0  0  0  0  0  0  0  0  0  0  0  0  # atno 17370 bound_to 10713
  157.0786  130.5893  149.5416 LP  0  0  0  0  0  0  0  0  0  0  0  0  # atno 17371 bound_to 10713
  141.2214  133.6937  156.7687 LP  0  0  0  0  0  0  0  0  0  0  0  0  # atno 17394 bound_to 11000
  140.2428  134.8601  157.3590 LP  0  0  0  0  0  0  0  0  0  0  0  0  # atno 17395 bound_to 11000

$$$$
