AV-unprocessed.smi:1495|AV-procd|sdf|6053|dock4
  -GOLD-   22720 6173D 1   1.00000     0.00000
 Structure written by MMmdl.
 40 41  0  0  0  0  0  0  0  0  1 V2000
  153.8600  136.7211  164.0644 C   0  0  0  0  0  0  0  0  0  0  0  0
  154.2960  136.7465  162.5944 C   0  0  0  0  0  0  0  0  0  0  0  0
  153.7450  137.9578  161.8267 C   0  0  2  0  0  0  0  0  0  0  0  0
  153.7874  137.7444  160.2992 C   0  0  0  0  0  0  0  0  0  0  0  0
  153.2762  138.9602  159.6498 N   0  0  0  0  0  0  0  0  0  0  0  0
  152.0825  139.1030  159.0219 C   0  0  0  0  0  0  0  0  0  0  0  0
  151.1568  138.2989  159.1395 O   0  0  0  0  0  0  0  0  0  0  0  0
  151.9692  140.2156  158.2794 N   0  0  0  0  0  0  0  0  0  0  0  0
  150.7833  140.5903  157.5224 C   0  0  0  0  0  0  0  0  0  0  0  0
  150.9311  142.0094  156.9570 C   0  0  0  0  0  0  0  0  0  0  0  0
  151.3721  142.9907  157.9998 C   0  0  0  0  0  0  0  0  0  0  0  0
  151.4390  144.3556  157.8700 C   0  0  0  0  0  0  0  0  0  0  0  0
  151.9980  145.1205  159.3321 S   0  0  0  0  0  0  0  0  0  0  0  0
  152.1206  143.5319  160.0791 C   0  0  0  0  0  0  0  0  0  0  0  0
  152.5807  143.3175  161.4801 C   0  0  0  0  0  0  0  0  0  0  0  0
  151.7635  142.5370  159.2632 N   0  0  0  0  0  0  0  0  0  0  0  0
  154.1323  140.1019  159.9805 C   0  0  0  0  0  0  0  0  0  0  0  0
  154.1036  140.2974  161.5065 C   0  0  0  0  0  0  0  0  0  0  0  0
  154.5375  139.1010  162.1499 O   0  0  0  0  0  0  0  0  0  0  0  0
  154.2549  135.8402  164.5705 H   0  0  0  0  0  0  0  0  0  0  0  0
  152.7735  136.6965  164.1530 H   0  0  0  0  0  0  0  0  0  0  0  0
  154.2203  137.6000  164.5994 H   0  0  0  0  0  0  0  0  0  0  0  0
  155.3851  136.7368  162.5361 H   0  0  0  0  0  0  0  0  0  0  0  0
  153.9551  135.8288  162.1143 H   0  0  0  0  0  0  0  0  0  0  0  0
  152.7139  138.1352  162.1387 H   0  0  0  0  0  0  0  0  0  0  0  0
  154.8133  137.5685  159.9720 H   0  0  0  0  0  0  0  0  0  0  0  0
  153.2385  136.8403  160.0363 H   0  0  0  0  0  0  0  0  0  0  0  0
  152.7595  140.8423  158.2369 H   0  0  0  0  0  0  0  0  0  0  0  0
  150.6312  139.8788  156.7086 H   0  0  0  0  0  0  0  0  0  0  0  0
  149.9086  140.5310  158.1723 H   0  0  0  0  0  0  0  0  0  0  0  0
  151.6455  142.0008  156.1324 H   0  0  0  0  0  0  0  0  0  0  0  0
  149.9815  142.3293  156.5259 H   0  0  0  0  0  0  0  0  0  0  0  0
  151.1924  144.9554  157.0065 H   0  0  0  0  0  0  0  0  0  0  0  0
  151.9346  142.5978  161.9836 H   0  0  0  0  0  0  0  0  0  0  0  0
  152.5561  144.2555  162.0350 H   0  0  0  0  0  0  0  0  0  0  0  0
  153.6017  142.9356  161.4825 H   0  0  0  0  0  0  0  0  0  0  0  0
  155.1510  139.9024  159.6451 H   0  0  0  0  0  0  0  0  0  0  0  0
  153.8258  141.0214  159.4800 H   0  0  0  0  0  0  0  0  0  0  0  0
  154.7650  141.1141  161.7958 H   0  0  0  0  0  0  0  0  0  0  0  0
  153.1008  140.5609  161.8464 H   0  0  0  0  0  0  0  0  0  0  0  0
  1  2  1  0  0  0  0
  1 20  1  0  0  0  0
  1 21  1  0  0  0  0
  1 22  1  0  0  0  0
  2  3  1  0  0  0  0
  2 23  1  0  0  0  0
  2 24  1  0  0  0  0
  3 19  1  0  0  0  0
  3  4  1  0  0  0  0
  3 25  1  0  0  0  0
  4  5  1  0  0  0  0
  4 26  1  0  0  0  0
  4 27  1  0  0  0  0
  5  6  1  0  0  0  0
  5 17  1  0  0  0  0
  6  7  2  0  0  0  0
  6  8  1  0  0  0  0
  8  9  1  0  0  0  0
  8 28  1  0  0  0  0
  9 10  1  0  0  0  0
  9 29  1  0  0  0  0
  9 30  1  0  0  0  0
 10 11  1  0  0  0  0
 10 31  1  0  0  0  0
 10 32  1  0  0  0  0
 11 16  1  0  0  0  0
 11 12  2  0  0  0  0
 12 13  1  0  0  0  0
 12 33  1  0  0  0  0
 13 14  1  0  0  0  0
 14 15  1  0  0  0  0
 14 16  2  0  0  0  0
 15 34  1  0  0  0  0
 15 35  1  0  0  0  0
 15 36  1  0  0  0  0
 17 18  1  0  0  0  0
 17 37  1  0  0  0  0
 17 38  1  0  0  0  0
 18 19  1  0  0  0  0
 18 39  1  0  0  0  0
 18 40  1  0  0  0  0
M  END
> <s_m_source_file>
AV-unprocessed.smi

> <i_m_source_file_index>
1495

> <i_lp_mmshare_version>
43012

> <i_f3d_flags>
0

> <s_epik_input>
W0NIM11bQ0gyXVtDQEBIXTFbQ0gyXU4oW0NIMl1bQ0gyXU8xKUMoPU8pW05IXVtDSDJdW0NIMl1jMltjSF1zYyhuMilbQ0gzXQ==

> <s_epik_cmdline>
J2VwaWtfcHl0aG9uJywgJy1waCcsICc3LjAnLCAnLXRuJywgJzgnLCAnLW1hJywgJzIwMCcsICctbWV0YWxfYmluZGluZycsICctaW1hZScsICc8aW5maWxlLm1hZT4nLCAnLW9tYWUnLCAnPG91dGZpbGUubWFlPic=

> <r_epik_Ionization_Penalty>
0.00206013

> <r_epik_Ionization_Penalty_Charging>
0

> <r_epik_Ionization_Penalty_Neutral>
0.00206013

> <r_epik_State_Penalty>
0.00138662

> <r_epik_Charging_Adjusted_Penalty>
0.00138662

> <i_epik_Tot_Q>
0

> <i_epik_Tot_abs_Q>
0

> <r_epik_Metal_State_Penalty>
-0

> <b_epik_Metal_Only>
0

> <s_lp_Force_Field>
OPLS_2005

> <r_lp_Energy>
21.6891

> <b_lp_Chiralities_Consistent>
1

> <s_lp_Variant>
AV-unprocessed.smi:1495-1

> <Gold.Version>
5.8.1

> <Gold.Id.Protein>
6NUR|6NUR_protein|mol2

> <Gold.PLP.Fitness>
44.0821

> <Gold.PLP.PLP>
-42.1943

> <Gold.PLP.part.hbond>
0.0000

> <Gold.PLP.part.metal>
0.0000

> <Gold.PLP.part.buried>
-6.0438

> <Gold.PLP.part.nonpolar>
-36.6031

> <Gold.PLP.part.repulsive>
0.0992

> <Gold.PLP.ligand.clash>
0.0000

> <Gold.PLP.ligand.torsion>
0.4792

> <Gold.PLP.Chemscore.Hbond>
0.0000

> <Gold.PLP.Chemscore.CHOScore>
0.9310

> <Gold.PLP.Chemscore.Metal>
0.0000

> <Gold.Chemscore.Hbonds>
donor molecule, donor type, donor heavy atom, donor atom, acceptor molecule, acceptor atom, score
      L1  C    12    33       P1  8028  0.66

> <Gold.PLP.Chemscore.Internal.Correction>
0.0533

> <Gold.Rescore>
     Score         DG    S(hbond)    S(metal)    S(lipo)     H(rot)  DE(clash)    DE(int)     intcor
     14.12     -16.24       0.00        0.00     123.08       1.42       0.07       2.05       ----

> <Gold.Chemscore.Fitness>
14.1216

> <Gold.Chemscore.DG>
-16.2411

> <Gold.Chemscore.ZeroCoef>
-5.4800

> <Gold.Chemscore.Hbond>
0.0000

> <Gold.Chemscore.Metal>
0.0000

> <Gold.Chemscore.Lipo>
123.0763

> <Gold.Chemscore.Internal_Hbond>
0.0000

> <Gold.Chemscore.DEClash>
0.0733

> <Gold.Chemscore.DEInternal>
2.0462

> <Gold.Chemscore.Rot>
1.4214

> <Gold.Chemscore.Internal.Correction>
   9.000000E+99

> <Gold.Chemscore.Hbond.Weighted>
-0.0000

> <Gold.Chemscore.Metal.Weighted>
-0.0000

> <Gold.Chemscore.Lipo.Weighted>
-14.3999

> <Gold.Chemscore.Internal_Hbond.Weighted>
0.0000

> <Gold.Chemscore.DEClash.Weighted>
0.0733

> <Gold.Chemscore.DEInternal.Weighted>
2.0462

> <Gold.Chemscore.Rot.Weighted>
3.6388

> <Gold.Chemscore.Internal.Correction.Weighted>
   9.000000E+99

> <Gold.Protein.RotatedTorsions>
[ 6907 6896 6895 6894 ] final -117.81 input  -60.11 | X-H torsion
[ 7974 7965 7964 7962 ] final   94.40 input  175.53 | X-H torsion
[ 8008 7997 7996 7995 ] final  -59.13 input   59.86 | X-H torsion
[ 10167 10162 10161 10158 ] final  115.89 input  -65.29 | X-H torsion
[ 10718 10713 10712 10709 ] final  117.22 input   66.30 | X-H torsion
[ 10763 10752 10751 10750 ] final  -52.08 input  -60.55 | X-H torsion
[ 11005 11000 10999 10996 ] final  -36.25 input  -57.11 | X-H torsion

> <Gold.Protein.ActiveResidues>
 VAL166  LYS551  ARG553  GLY616  TRP617  ASP618  TYR619  PRO620  LYS621  CYS622 
 ASP623  PHE694  ASN695  SER759  ASP760  ASP761  ALA762  ILE779  LEU786  VAL792 
 PHE793  MET794  SER795  GLU796  ALA797  LYS798  CYS799  TRP800  GLU811  SER814 

> <Gold.Protein.RotatedAtoms>
  150.8167  133.8324  159.3156 H   0  0  0  0  0  0  0  0  0  0  0  0  # atno 6907 bound_to 6896
  151.6094  135.1039  160.0087 H   0  0  0  0  0  0  0  0  0  0  0  0  # atno 6908 bound_to 6896
  152.4258  133.7153  159.6559 H   0  0  0  0  0  0  0  0  0  0  0  0  # atno 6909 bound_to 6896
  145.4661  139.2284  143.2960 H   0  0  0  0  0  0  0  0  0  0  0  0  # atno 7974 bound_to 7965
  154.4339  140.1068  156.6066 H   0  0  0  0  0  0  0  0  0  0  0  0  # atno 8008 bound_to 7997
  155.5854  140.3491  155.4533 H   0  0  0  0  0  0  0  0  0  0  0  0  # atno 8009 bound_to 7997
  156.0287  140.1256  157.0270 H   0  0  0  0  0  0  0  0  0  0  0  0  # atno 8010 bound_to 7997
  139.6286  144.7112  151.2481 H   0  0  0  0  0  0  0  0  0  0  0  0  # atno 10167 bound_to 10162
  157.6111  131.1034  150.7583 H   0  0  0  0  0  0  0  0  0  0  0  0  # atno 10718 bound_to 10713
  154.1369  135.6511  153.4934 H   0  0  0  0  0  0  0  0  0  0  0  0  # atno 10763 bound_to 10752
  153.0178  135.5306  154.6944 H   0  0  0  0  0  0  0  0  0  0  0  0  # atno 10764 bound_to 10752
  154.6195  135.2963  155.0313 H   0  0  0  0  0  0  0  0  0  0  0  0  # atno 10765 bound_to 10752
  140.9860  133.7030  156.1766 H   0  0  0  0  0  0  0  0  0  0  0  0  # atno 11005 bound_to 11000
  146.2423  140.5435  142.8928 LP  0  0  0  0  0  0  0  0  0  0  0  0  # atno 17320 bound_to 7965
  144.7973  140.6147  143.6501 LP  0  0  0  0  0  0  0  0  0  0  0  0  # atno 17321 bound_to 7965
  140.7425  143.6522  150.8238 LP  0  0  0  0  0  0  0  0  0  0  0  0  # atno 17342 bound_to 10162
  140.0144  143.5608  152.2826 LP  0  0  0  0  0  0  0  0  0  0  0  0  # atno 17343 bound_to 10162
  156.7961  130.4906  149.5377 LP  0  0  0  0  0  0  0  0  0  0  0  0  # atno 17370 bound_to 10713
  156.1214  130.6112  151.0199 LP  0  0  0  0  0  0  0  0  0  0  0  0  # atno 17371 bound_to 10713
  140.7114  134.4458  157.5581 LP  0  0  0  0  0  0  0  0  0  0  0  0  # atno 17394 bound_to 11000
  139.8971  134.8645  156.2060 LP  0  0  0  0  0  0  0  0  0  0  0  0  # atno 17395 bound_to 11000

$$$$
