AV-unprocessed.smi:3175|AV-procd|sdf|12123|dock7
  -GOLD-   2272017563D 1   1.00000     0.00000
 Structure written by MMmdl.
 38 39  0  0  0  0  0  0  0  0  2 V2000
  152.9378  139.9531  158.0004 O   0  0  0  0  0  0  0  0  0  0  0  0
  152.0520  140.7761  157.7703 C   0  0  0  0  0  0  0  0  0  0  0  0
  152.0891  142.1574  158.4314 C   0  0  0  0  0  0  0  0  0  0  0  0
  152.1441  142.0934  159.9717 C   0  0  0  0  0  0  0  0  0  0  0  0
  152.1980  143.4704  160.6362 C   0  0  0  0  0  0  0  0  0  0  0  0
  152.6957  143.1957  162.0578 C   0  0  0  0  0  0  0  0  0  0  0  0
  153.5277  141.9068  161.9763 C   0  0  0  0  0  0  0  0  0  0  0  0
  153.3797  141.3848  160.5413 C   0  0  0  0  0  0  0  0  0  0  0  0
  151.0118  140.5292  156.9597 N   0  0  0  0  0  0  0  0  0  0  0  0
  150.7900  139.2814  156.2345 C   0  0  0  0  0  0  0  0  0  0  0  0
  150.5347  139.4952  154.7292 C   0  0  0  0  0  0  0  0  0  0  0  0
  149.2926  140.3183  154.4347 C   0  0  0  0  0  0  0  0  0  0  0  0
  148.1865  139.7377  153.7760 C   0  0  0  0  0  0  0  0  0  0  0  0
  147.0479  140.5265  153.5099 C   0  0  0  0  0  0  0  0  0  0  0  0
  147.0410  141.8788  153.9088 C   0  0  0  0  0  0  0  0  0  0  0  0
  148.1176  142.4000  154.5374 N   0  3  0  0  0  0  0  0  0  0  0  0
  149.2260  141.6777  154.8115 C   0  0  0  0  0  0  0  0  0  0  0  0
  152.9409  142.7252  158.0534 H   0  0  0  0  0  0  0  0  0  0  0  0
  151.1962  142.7007  158.1205 H   0  0  0  0  0  0  0  0  0  0  0  0
  151.2544  141.5821  160.3443 H   0  0  0  0  0  0  0  0  0  0  0  0
  152.9152  144.1081  160.1172 H   0  0  0  0  0  0  0  0  0  0  0  0
  151.2336  143.9792  160.6244 H   0  0  0  0  0  0  0  0  0  0  0  0
  153.2705  144.0334  162.4538 H   0  0  0  0  0  0  0  0  0  0  0  0
  151.8453  143.0395  162.7229 H   0  0  0  0  0  0  0  0  0  0  0  0
  154.5754  142.0890  162.2174 H   0  0  0  0  0  0  0  0  0  0  0  0
  153.1522  141.1743  162.6916 H   0  0  0  0  0  0  0  0  0  0  0  0
  153.2914  140.2984  160.5052 H   0  0  0  0  0  0  0  0  0  0  0  0
  154.2642  141.6609  159.9651 H   0  0  0  0  0  0  0  0  0  0  0  0
  150.3317  141.2632  156.8243 H   0  0  0  0  0  0  0  0  0  0  0  0
  151.6798  138.6657  156.3678 H   0  0  0  0  0  0  0  0  0  0  0  0
  149.9642  138.7280  156.6844 H   0  0  0  0  0  0  0  0  0  0  0  0
  151.3980  139.9862  154.2783 H   0  0  0  0  0  0  0  0  0  0  0  0
  150.4459  138.5302  154.2285 H   0  0  0  0  0  0  0  0  0  0  0  0
  148.2102  138.7000  153.4760 H   0  0  0  0  0  0  0  0  0  0  0  0
  146.1925  140.0998  153.0069 H   0  0  0  0  0  0  0  0  0  0  0  0
  146.2136  142.5538  153.7455 H   0  0  0  0  0  0  0  0  0  0  0  0
  150.0223  142.2069  155.3149 H   0  0  0  0  0  0  0  0  0  0  0  0
  148.0926  143.3808  154.8176 H   0  0  0  0  0  0  0  0  0  0  0  0
  1  2  2  0  0  0  0
  2  3  1  0  0  0  0
  2  9  1  0  0  0  0
  3  4  1  0  0  0  0
  3 18  1  0  0  0  0
  3 19  1  0  0  0  0
  4  8  1  0  0  0  0
  4  5  1  0  0  0  0
  4 20  1  0  0  0  0
  5  6  1  0  0  0  0
  5 21  1  0  0  0  0
  5 22  1  0  0  0  0
  6  7  1  0  0  0  0
  6 23  1  0  0  0  0
  6 24  1  0  0  0  0
  7  8  1  0  0  0  0
  7 25  1  0  0  0  0
  7 26  1  0  0  0  0
  8 27  1  0  0  0  0
  8 28  1  0  0  0  0
  9 10  1  0  0  0  0
  9 29  1  0  0  0  0
 10 11  1  0  0  0  0
 10 30  1  0  0  0  0
 10 31  1  0  0  0  0
 11 12  1  0  0  0  0
 11 32  1  0  0  0  0
 11 33  1  0  0  0  0
 12 17  1  0  0  0  0
 12 13  2  0  0  0  0
 13 14  1  0  0  0  0
 13 34  1  0  0  0  0
 14 15  2  0  0  0  0
 14 35  1  0  0  0  0
 15 16  1  0  0  0  0
 15 36  1  0  0  0  0
 16 17  2  0  0  0  0
 16 38  1  0  0  0  0
 17 37  1  0  0  0  0
M  CHG  1  16   1
M  END
> <s_m_source_file>
AV-unprocessed.smi

> <i_m_source_file_index>
3175

> <i_lp_mmshare_version>
43012

> <i_f3d_flags>
0

> <s_epik_input>
W0NIMl0xW0NIMl1bQ0gyXVtDSDJdW0NIXTFbQ0gyXUMoPU8pW05IXVtDSDJdW0NIMl1jMltjSF1bY0hdW2NIXW5bY0hdMg==

> <s_epik_cmdline>
J2VwaWtfcHl0aG9uJywgJy1waCcsICc3LjAnLCAnLXRuJywgJzgnLCAnLW1hJywgJzIwMCcsICctbWV0YWxfYmluZGluZycsICctaW1hZScsICc8aW5maWxlLm1hZT4nLCAnLW9tYWUnLCAnPG91dGZpbGUubWFlPic=

> <r_epik_Ionization_Penalty>
2.25127

> <r_epik_Ionization_Penalty_Charging>
2.25127

> <r_epik_Ionization_Penalty_Neutral>
2.03742e-08

> <r_epik_State_Penalty>
2.39841

> <r_epik_Charging_Adjusted_Penalty>
4.64968

> <i_epik_Tot_Q>
1

> <i_epik_Tot_abs_Q>
1

> <r_epik_Metal_State_Penalty>
2.41158

> <b_epik_Metal_Only>
0

> <s_lp_Force_Field>
OPLS_2005

> <r_lp_Energy>
27.035

> <b_lp_Chiralities_Consistent>
1

> <s_lp_Variant>
AV-unprocessed.smi:3175-2

> <Gold.Version>
5.8.1

> <Gold.Id.Protein>
6NUR|6NUR_protein|mol2

> <Gold.PLP.Fitness>
49.7854

> <Gold.PLP.PLP>
-40.9316

> <Gold.PLP.part.hbond>
-2.0000

> <Gold.PLP.part.metal>
0.0000

> <Gold.PLP.part.buried>
-0.9004

> <Gold.PLP.part.nonpolar>
-35.6123

> <Gold.PLP.part.repulsive>
0.4224

> <Gold.PLP.ligand.clash>
0.0000

> <Gold.PLP.ligand.torsion>
0.0789

> <Gold.PLP.Chemscore.Hbond>
3.0000

> <Gold.PLP.Chemscore.CHOScore>
0.0000

> <Gold.PLP.Chemscore.Metal>
0.0000

> <Gold.Chemscore.Hbonds>
donor molecule, donor type, donor heavy atom, donor atom, acceptor molecule, acceptor atom, score
      L1  H    16    38       P1  8028  1.98
      P1  H  7997  8009       L1     1  1.00

> <Gold.PLP.Chemscore.Internal.Correction>
0.0117

> <Gold.Rescore>
     Score         DG    S(hbond)    S(metal)    S(lipo)     H(rot)  DE(clash)    DE(int)     intcor
     18.77     -20.86       1.88        0.00     112.74       1.59       0.01       2.09       ----

> <Gold.Chemscore.Fitness>
18.7664

> <Gold.Chemscore.DG>
-20.8606

> <Gold.Chemscore.ZeroCoef>
-5.4800

> <Gold.Chemscore.Hbond>
1.8768

> <Gold.Chemscore.Metal>
0.0000

> <Gold.Chemscore.Lipo>
112.7432

> <Gold.Chemscore.Internal_Hbond>
0.0000

> <Gold.Chemscore.DEClash>
0.0073

> <Gold.Chemscore.DEInternal>
2.0869

> <Gold.Chemscore.Rot>
1.5933

> <Gold.Chemscore.Internal.Correction>
   9.000000E+99

> <Gold.Chemscore.Hbonds>
donor molecule, donor type, donor heavy atom, donor atom, acceptor molecule, acceptor atom, score
      L1  H    16    38       P1  8028  0.83
      P1  H  7997  8009       L1     1  0.93

> <Gold.Chemscore.Hbond.Weighted>
-6.2686

> <Gold.Chemscore.Metal.Weighted>
-0.0000

> <Gold.Chemscore.Lipo.Weighted>
-13.1909

> <Gold.Chemscore.Internal_Hbond.Weighted>
0.0000

> <Gold.Chemscore.DEClash.Weighted>
0.0073

> <Gold.Chemscore.DEInternal.Weighted>
2.0869

> <Gold.Chemscore.Rot.Weighted>
4.0789

> <Gold.Chemscore.Internal.Correction.Weighted>
   9.000000E+99

> <Gold.Protein.RotatedTorsions>
[ 6907 6896 6895 6894 ] final   59.41 input  -60.11 | X-H torsion
[ 7974 7965 7964 7962 ] final   81.43 input  175.53 | X-H torsion
[ 8008 7997 7996 7995 ] final  161.24 input   59.86 | X-H torsion
[ 10167 10162 10161 10158 ] final  -51.63 input  -65.29 | X-H torsion
[ 10718 10713 10712 10709 ] final  118.67 input   66.30 | X-H torsion
[ 10763 10752 10751 10750 ] final    0.22 input  -60.55 | X-H torsion
[ 11005 11000 10999 10996 ] final  112.13 input  -57.11 | X-H torsion

> <Gold.Protein.ActiveResidues>
 VAL166  LYS551  ARG553  GLY616  TRP617  ASP618  TYR619  PRO620  LYS621  CYS622 
 ASP623  PHE694  ASN695  SER759  ASP760  ASP761  ALA762  ILE779  LEU786  VAL792 
 PHE793  MET794  SER795  GLU796  ALA797  LYS798  CYS799  TRP800  GLU811  SER814 

> <Gold.Protein.RotatedAtoms>
  152.3912  134.6438  160.0106 H   0  0  0  0  0  0  0  0  0  0  0  0  # atno 6907 bound_to 6896
  151.6672  133.3309  159.3196 H   0  0  0  0  0  0  0  0  0  0  0  0  # atno 6908 bound_to 6896
  150.7828  134.6830  159.6499 H   0  0  0  0  0  0  0  0  0  0  0  0  # atno 6909 bound_to 6896
  145.6383  139.2419  143.2045 H   0  0  0  0  0  0  0  0  0  0  0  0  # atno 7974 bound_to 7965
  156.2117  140.1782  156.7680 H   0  0  0  0  0  0  0  0  0  0  0  0  # atno 8008 bound_to 7997
  154.5732  140.0679  156.9024 H   0  0  0  0  0  0  0  0  0  0  0  0  # atno 8009 bound_to 7997
  155.2635  140.3337  155.4273 H   0  0  0  0  0  0  0  0  0  0  0  0  # atno 8010 bound_to 7997
  140.6579  143.2613  151.4531 H   0  0  0  0  0  0  0  0  0  0  0  0  # atno 10167 bound_to 10162
  157.6014  131.1050  150.7789 H   0  0  0  0  0  0  0  0  0  0  0  0  # atno 10718 bound_to 10713
  153.3234  135.6970  153.7010 H   0  0  0  0  0  0  0  0  0  0  0  0  # atno 10763 bound_to 10752
  153.5842  135.3492  155.2887 H   0  0  0  0  0  0  0  0  0  0  0  0  # atno 10764 bound_to 10752
  154.8602  135.4302  154.2404 H   0  0  0  0  0  0  0  0  0  0  0  0  # atno 10765 bound_to 10752
  139.8920  134.9523  156.6538 H   0  0  0  0  0  0  0  0  0  0  0  0  # atno 11005 bound_to 11000
  146.1302  140.7196  142.9416 LP  0  0  0  0  0  0  0  0  0  0  0  0  # atno 17320 bound_to 7965
  144.7167  140.4234  143.7039 LP  0  0  0  0  0  0  0  0  0  0  0  0  # atno 17321 bound_to 7965
  139.5805  144.1720  152.1962 LP  0  0  0  0  0  0  0  0  0  0  0  0  # atno 17342 bound_to 10162
  140.1044  144.5512  150.6967 LP  0  0  0  0  0  0  0  0  0  0  0  0  # atno 17343 bound_to 10162
  156.8187  130.4977  149.5346 LP  0  0  0  0  0  0  0  0  0  0  0  0  # atno 17370 bound_to 10713
  156.1088  130.6025  151.0014 LP  0  0  0  0  0  0  0  0  0  0  0  0  # atno 17371 bound_to 10713
  140.7500  133.8905  155.8340 LP  0  0  0  0  0  0  0  0  0  0  0  0  # atno 17394 bound_to 11000
  141.0008  134.1152  157.4319 LP  0  0  0  0  0  0  0  0  0  0  0  0  # atno 17395 bound_to 11000

$$$$
