AV-unprocessed.smi:3185|AV-procd|sdf|12170|dock7
  -GOLD-   2272018 03D 1   1.00000     0.00000
 Structure written by MMmdl.
 37 38  0  0  0  0  0  0  0  0  1 V2000
  153.1201  142.4802  160.8756 N   0  0  0  0  0  0  0  0  0  0  0  0
  152.7988  143.3762  160.2180 C   0  0  0  0  0  0  0  0  0  0  0  0
  152.3903  144.5154  159.3825 C   0  0  0  0  0  0  0  0  0  0  0  0
  151.6094  144.0862  158.1359 C   0  0  0  0  0  0  0  0  0  0  0  0
  150.3069  143.3614  158.4953 C   0  0  0  0  0  0  0  0  0  0  0  0
  149.6552  142.9034  157.2771 N   0  0  0  0  0  0  0  0  0  0  0  0
  150.1770  141.6191  156.8144 C   0  0  1  0  0  0  0  0  0  0  0  0
  149.7476  140.4537  157.7362 C   0  0  0  0  0  0  0  0  0  0  0  0
  150.2920  139.1117  157.2203 C   0  0  0  0  0  0  0  0  0  0  0  0
  149.8686  138.8406  155.7688 C   0  0  0  0  0  0  0  0  0  0  0  0
  150.2666  140.0020  154.8388 C   0  0  0  0  0  0  0  0  0  0  0  0
  149.7791  141.3854  155.3294 C   0  0  1  0  0  0  0  0  0  0  0  0
  148.3632  141.6220  155.0308 N   0  0  0  0  0  0  0  0  0  0  0  0
  147.7542  141.5834  153.7921 C   0  0  0  0  0  0  0  0  0  0  0  0
  146.4298  141.8634  153.9697 C   0  0  0  0  0  0  0  0  0  0  0  0
  146.3151  142.0641  155.3722 C   0  0  0  0  0  0  0  0  0  0  0  0
  147.4690  141.9195  156.0009 N   0  0  0  0  0  0  0  0  0  0  0  0
  151.7868  145.1812  159.9995 H   0  0  0  0  0  0  0  0  0  0  0  0
  153.2904  145.0616  159.0996 H   0  0  0  0  0  0  0  0  0  0  0  0
  151.3868  144.9657  157.5299 H   0  0  0  0  0  0  0  0  0  0  0  0
  152.2367  143.4368  157.5238 H   0  0  0  0  0  0  0  0  0  0  0  0
  150.5245  142.5093  159.1406 H   0  0  0  0  0  0  0  0  0  0  0  0
  149.6533  144.0354  159.0481 H   0  0  0  0  0  0  0  0  0  0  0  0
  149.7954  143.5948  156.5546 H   0  0  0  0  0  0  0  0  0  0  0  0
  151.2665  141.6766  156.8362 H   0  0  0  0  0  0  0  0  0  0  0  0
  150.1204  140.6065  158.7485 H   0  0  0  0  0  0  0  0  0  0  0  0
  148.6625  140.4060  157.8221 H   0  0  0  0  0  0  0  0  0  0  0  0
  151.3808  139.1155  157.2839 H   0  0  0  0  0  0  0  0  0  0  0  0
  149.9493  138.3006  157.8632 H   0  0  0  0  0  0  0  0  0  0  0  0
  150.3336  137.9186  155.4190 H   0  0  0  0  0  0  0  0  0  0  0  0
  148.7946  138.6648  155.7244 H   0  0  0  0  0  0  0  0  0  0  0  0
  151.3546  140.0240  154.7665 H   0  0  0  0  0  0  0  0  0  0  0  0
  149.9043  139.8117  153.8279 H   0  0  0  0  0  0  0  0  0  0  0  0
  150.3261  142.1245  154.7419 H   0  0  0  0  0  0  0  0  0  0  0  0
  148.3094  141.3619  152.8925 H   0  0  0  0  0  0  0  0  0  0  0  0
  145.6611  141.9168  153.2133 H   0  0  0  0  0  0  0  0  0  0  0  0
  145.4349  142.3082  155.9483 H   0  0  0  0  0  0  0  0  0  0  0  0
  1  2  3  0  0  0  0
  2  3  1  0  0  0  0
  3  4  1  0  0  0  0
  3 18  1  0  0  0  0
  3 19  1  0  0  0  0
  4  5  1  0  0  0  0
  4 20  1  0  0  0  0
  4 21  1  0  0  0  0
  5  6  1  0  0  0  0
  5 22  1  0  0  0  0
  5 23  1  0  0  0  0
  6  7  1  0  0  0  0
  6 24  1  0  0  0  0
  7 12  1  0  0  0  0
  7  8  1  0  0  0  0
  7 25  1  0  0  0  0
  8  9  1  0  0  0  0
  8 26  1  0  0  0  0
  8 27  1  0  0  0  0
  9 10  1  0  0  0  0
  9 28  1  0  0  0  0
  9 29  1  0  0  0  0
 10 11  1  0  0  0  0
 10 30  1  0  0  0  0
 10 31  1  0  0  0  0
 11 12  1  0  0  0  0
 11 32  1  0  0  0  0
 11 33  1  0  0  0  0
 12 13  1  0  0  0  0
 12 34  1  0  0  0  0
 13 17  1  0  0  0  0
 13 14  1  0  0  0  0
 14 15  2  0  0  0  0
 14 35  1  0  0  0  0
 15 16  1  0  0  0  0
 15 36  1  0  0  0  0
 16 17  2  0  0  0  0
 16 37  1  0  0  0  0
M  END
> <s_m_source_file>
AV-unprocessed.smi

> <i_m_source_file_index>
3185

> <i_lp_mmshare_version>
43012

> <i_f3d_flags>
0

> <s_epik_input>
TiNDW0NIMl1bQ0gyXVtDSDJdW05IXVtDQEBIXTFbQ0gyXVtDSDJdW0NIMl1bQ0gyXVtDQEhdMW4yW2NIXVtjSF1bY0hdbjI=

> <s_epik_cmdline>
J2VwaWtfcHl0aG9uJywgJy1waCcsICc3LjAnLCAnLXRuJywgJzgnLCAnLW1hJywgJzIwMCcsICctbWV0YWxfYmluZGluZycsICctaW1hZScsICc8aW5maWxlLm1hZT4nLCAnLW9tYWUnLCAnPG91dGZpbGUubWFlPic=

> <r_lp_tautomer_probability>
1

> <r_epik_Ionization_Penalty>
2.21326

> <r_epik_Ionization_Penalty_Charging>
0

> <r_epik_Ionization_Penalty_Neutral>
2.21326

> <r_epik_State_Penalty>
2.35651

> <r_epik_Charging_Adjusted_Penalty>
2.35651

> <i_epik_Tot_Q>
0

> <i_epik_Tot_abs_Q>
0

> <r_epik_Metal_State_Penalty>
2.3555

> <b_epik_Metal_Only>
0

> <s_lp_Force_Field>
OPLS_2005

> <r_lp_Energy>
19.4285

> <b_lp_Chiralities_Consistent>
1

> <s_lp_Variant>
AV-unprocessed.smi:3185-6

> <Gold.Version>
5.8.1

> <Gold.Id.Protein>
6NUR|6NUR_protein|mol2

> <Gold.PLP.Fitness>
40.0100

> <Gold.PLP.PLP>
-35.2087

> <Gold.PLP.part.hbond>
-1.0000

> <Gold.PLP.part.metal>
0.0000

> <Gold.PLP.part.buried>
-4.2941

> <Gold.PLP.part.nonpolar>
-30.9929

> <Gold.PLP.part.repulsive>
0.2291

> <Gold.PLP.ligand.clash>
0.0000

> <Gold.PLP.ligand.torsion>
0.2691

> <Gold.PLP.Chemscore.Hbond>
0.7520

> <Gold.PLP.Chemscore.CHOScore>
1.0000

> <Gold.PLP.Chemscore.Metal>
0.0000

> <Gold.Chemscore.Hbonds>
donor molecule, donor type, donor heavy atom, donor atom, acceptor molecule, acceptor atom, score
      L1  H     6    24       P1  8028  0.78
      L1  C    14    35       P1  7957  1.00

> <Gold.PLP.Chemscore.Internal.Correction>
0.0835

> <Gold.Rescore>
     Score         DG    S(hbond)    S(metal)    S(lipo)     H(rot)  DE(clash)    DE(int)     intcor
     11.30     -13.01       0.72        0.00      83.46       1.81       0.05       1.65       ----

> <Gold.Chemscore.Fitness>
11.3026

> <Gold.Chemscore.DG>
-13.0061

> <Gold.Chemscore.ZeroCoef>
-5.4800

> <Gold.Chemscore.Hbond>
0.7178

> <Gold.Chemscore.Metal>
0.0000

> <Gold.Chemscore.Lipo>
83.4589

> <Gold.Chemscore.Internal_Hbond>
0.0000

> <Gold.Chemscore.DEClash>
0.0529

> <Gold.Chemscore.DEInternal>
1.6506

> <Gold.Chemscore.Rot>
1.8110

> <Gold.Chemscore.Internal.Correction>
   9.000000E+99

> <Gold.Chemscore.Hbonds>
donor molecule, donor type, donor heavy atom, donor atom, acceptor molecule, acceptor atom, score
      L1  H     6    24       P1  8028  0.78

> <Gold.Chemscore.Hbond.Weighted>
-2.3976

> <Gold.Chemscore.Metal.Weighted>
-0.0000

> <Gold.Chemscore.Lipo.Weighted>
-9.7647

> <Gold.Chemscore.Internal_Hbond.Weighted>
0.0000

> <Gold.Chemscore.DEClash.Weighted>
0.0529

> <Gold.Chemscore.DEInternal.Weighted>
1.6506

> <Gold.Chemscore.Rot.Weighted>
4.6362

> <Gold.Chemscore.Internal.Correction.Weighted>
   9.000000E+99

> <Gold.Protein.RotatedTorsions>
[ 6907 6896 6895 6894 ] final  -51.52 input  -60.11 | X-H torsion
[ 7974 7965 7964 7962 ] final   96.67 input  175.53 | X-H torsion
[ 8008 7997 7996 7995 ] final   33.15 input   59.86 | X-H torsion
[ 10167 10162 10161 10158 ] final  -97.51 input  -65.29 | X-H torsion
[ 10718 10713 10712 10709 ] final   11.98 input   66.30 | X-H torsion
[ 10763 10752 10751 10750 ] final -104.94 input  -60.55 | X-H torsion
[ 11005 11000 10999 10996 ] final  135.55 input  -57.11 | X-H torsion

> <Gold.Protein.ActiveResidues>
 VAL166  LYS551  ARG553  GLY616  TRP617  ASP618  TYR619  PRO620  LYS621  CYS622 
 ASP623  PHE694  ASN695  SER759  ASP760  ASP761  ALA762  ILE779  LEU786  VAL792 
 PHE793  MET794  SER795  GLU796  ALA797  LYS798  CYS799  TRP800  GLU811  SER814 

> <Gold.Protein.RotatedAtoms>
  150.8604  134.7954  159.7077 H   0  0  0  0  0  0  0  0  0  0  0  0  # atno 6907 bound_to 6896
  152.4642  134.5110  159.9763 H   0  0  0  0  0  0  0  0  0  0  0  0  # atno 6908 bound_to 6896
  151.5215  133.3427  159.2938 H   0  0  0  0  0  0  0  0  0  0  0  0  # atno 6909 bound_to 6896
  145.4357  139.2306  143.3120 H   0  0  0  0  0  0  0  0  0  0  0  0  # atno 7974 bound_to 7965
  155.1340  140.3260  155.4467 H   0  0  0  0  0  0  0  0  0  0  0  0  # atno 8008 bound_to 7997
  156.2625  140.2005  156.6407 H   0  0  0  0  0  0  0  0  0  0  0  0  # atno 8009 bound_to 7997
  154.6592  140.0549  157.0029 H   0  0  0  0  0  0  0  0  0  0  0  0  # atno 8010 bound_to 7997
  140.2826  143.3272  152.0426 H   0  0  0  0  0  0  0  0  0  0  0  0  # atno 10167 bound_to 10162
  157.0035  130.6089  149.5699 H   0  0  0  0  0  0  0  0  0  0  0  0  # atno 10718 bound_to 10713
  154.7913  135.4767  154.0058 H   0  0  0  0  0  0  0  0  0  0  0  0  # atno 10763 bound_to 10752
  153.1635  135.6813  153.8716 H   0  0  0  0  0  0  0  0  0  0  0  0  # atno 10764 bound_to 10752
  153.8322  135.3190  155.3397 H   0  0  0  0  0  0  0  0  0  0  0  0  # atno 10765 bound_to 10752
  139.9987  134.9487  157.0024 H   0  0  0  0  0  0  0  0  0  0  0  0  # atno 11005 bound_to 11000
  146.2583  140.5099  142.8864 LP  0  0  0  0  0  0  0  0  0  0  0  0  # atno 17320 bound_to 7965
  144.8154  140.6458  143.6388 LP  0  0  0  0  0  0  0  0  0  0  0  0  # atno 17321 bound_to 7965
  139.4958  144.6581  151.6527 LP  0  0  0  0  0  0  0  0  0  0  0  0  # atno 17342 bound_to 10162
  140.5799  143.9964  150.6262 LP  0  0  0  0  0  0  0  0  0  0  0  0  # atno 17343 bound_to 10162
  156.0162  130.5256  150.8142 LP  0  0  0  0  0  0  0  0  0  0  0  0  # atno 17370 bound_to 10713
  157.5373  131.0939  150.9875 LP  0  0  0  0  0  0  0  0  0  0  0  0  # atno 17371 bound_to 10713
  140.4768  134.1330  155.7211 LP  0  0  0  0  0  0  0  0  0  0  0  0  # atno 17394 bound_to 11000
  141.1625  133.8766  157.1808 LP  0  0  0  0  0  0  0  0  0  0  0  0  # atno 17395 bound_to 11000

$$$$
