AV-unprocessed.smi:517|AV-procd|sdf|2790|dock6
  -GOLD-   2262023263D 1   1.00000     0.00000
 Structure written by MMmdl.
 36 37  0  0  0  0  0  0  0  0  2 V2000
  153.4244  136.5894  157.8281 C   0  0  0  0  0  0  0  0  0  0  0  0
  153.7633  137.9909  158.3409 C   0  0  0  0  0  0  0  0  0  0  0  0
  153.6970  138.8983  157.2553 O   0  0  0  0  0  0  0  0  0  0  0  0
  152.3885  139.0337  156.7242 C   0  0  0  0  0  0  0  0  0  0  0  0
  151.4845  139.7024  157.7693 C   0  0  0  0  0  0  0  0  0  0  0  0
  151.2348  141.1172  157.4577 N   0  0  0  0  0  0  0  0  0  0  0  0
  150.5257  141.6888  156.4408 C   0  0  0  0  0  0  0  0  0  0  0  0
  149.8103  140.9835  155.3300 C   0  0  2  0  0  0  0  0  0  0  0  0
  148.7296  140.0467  155.8847 C   0  0  0  0  0  0  0  0  0  0  0  0
  150.6930  140.2335  154.5221 O   0  0  0  0  0  0  0  0  0  0  0  0
  150.6019  143.0402  156.6098 N   0  3  0  0  0  0  0  0  0  0  0  0
  151.3523  143.3345  157.7484 C   0  0  0  0  0  0  0  0  0  0  0  0
  151.6971  144.5540  158.3234 C   0  0  0  0  0  0  0  0  0  0  0  0
  152.4782  144.5020  159.4966 C   0  0  0  0  0  0  0  0  0  0  0  0
  152.8833  143.2722  160.0551 C   0  0  0  0  0  0  0  0  0  0  0  0
  152.5272  142.0424  159.4631 C   0  0  0  0  0  0  0  0  0  0  0  0
  151.7586  142.1030  158.3009 C   0  0  0  0  0  0  0  0  0  0  0  0
  153.4645  135.8583  158.6358 H   0  0  0  0  0  0  0  0  0  0  0  0
  154.1277  136.2749  157.0566 H   0  0  0  0  0  0  0  0  0  0  0  0
  152.4221  136.5616  157.4001 H   0  0  0  0  0  0  0  0  0  0  0  0
  153.0582  138.2827  159.1205 H   0  0  0  0  0  0  0  0  0  0  0  0
  154.7629  137.9978  158.7777 H   0  0  0  0  0  0  0  0  0  0  0  0
  152.4164  139.6349  155.8142 H   0  0  0  0  0  0  0  0  0  0  0  0
  151.9871  138.0550  156.4576 H   0  0  0  0  0  0  0  0  0  0  0  0
  150.5308  139.1811  157.8564 H   0  0  0  0  0  0  0  0  0  0  0  0
  151.9490  139.6541  158.7544 H   0  0  0  0  0  0  0  0  0  0  0  0
  149.3393  141.7238  154.6836 H   0  0  0  0  0  0  0  0  0  0  0  0
  148.0005  140.5997  156.4779 H   0  0  0  0  0  0  0  0  0  0  0  0
  149.1596  139.2734  156.5223 H   0  0  0  0  0  0  0  0  0  0  0  0
  148.1883  139.5505  155.0784 H   0  0  0  0  0  0  0  0  0  0  0  0
  150.4353  139.3249  154.5610 H   0  0  0  0  0  0  0  0  0  0  0  0
  151.3856  145.4972  157.8986 H   0  0  0  0  0  0  0  0  0  0  0  0
  152.7714  145.4234  159.9787 H   0  0  0  0  0  0  0  0  0  0  0  0
  153.4795  143.2717  160.9561 H   0  0  0  0  0  0  0  0  0  0  0  0
  152.8410  141.1062  159.9003 H   0  0  0  0  0  0  0  0  0  0  0  0
  150.1640  143.7081  155.9883 H   0  0  0  0  0  0  0  0  0  0  0  0
  1  2  1  0  0  0  0
  1 18  1  0  0  0  0
  1 19  1  0  0  0  0
  1 20  1  0  0  0  0
  2  3  1  0  0  0  0
  2 21  1  0  0  0  0
  2 22  1  0  0  0  0
  3  4  1  0  0  0  0
  4  5  1  0  0  0  0
  4 23  1  0  0  0  0
  4 24  1  0  0  0  0
  5  6  1  0  0  0  0
  5 25  1  0  0  0  0
  5 26  1  0  0  0  0
  6 17  1  0  0  0  0
  6  7  1  0  0  0  0
  7  8  1  0  0  0  0
  7 11  2  0  0  0  0
  8  9  1  0  0  0  0
  8 10  1  0  0  0  0
  8 27  1  0  0  0  0
  9 28  1  0  0  0  0
  9 29  1  0  0  0  0
  9 30  1  0  0  0  0
 10 31  1  0  0  0  0
 11 12  1  0  0  0  0
 11 36  1  0  0  0  0
 12 17  2  0  0  0  0
 12 13  1  0  0  0  0
 13 14  2  0  0  0  0
 13 32  1  0  0  0  0
 14 15  1  0  0  0  0
 14 33  1  0  0  0  0
 15 16  2  0  0  0  0
 15 34  1  0  0  0  0
 16 17  1  0  0  0  0
 16 35  1  0  0  0  0
M  CHG  1  11   1
M  END
> <s_m_source_file>
AV-unprocessed.smi

> <i_m_source_file_index>
517

> <i_lp_mmshare_version>
43012

> <i_f3d_flags>
0

> <s_epik_input>
W0NIM11bQ0gyXU9bQ0gyXVtDSDJdbihjKG4xKVtDQEhdKFtDSDNdKVtPSF0pYyhjMTIpW2NIXVtjSF1bY0hdW2NIXTI=

> <s_epik_cmdline>
J2VwaWtfcHl0aG9uJywgJy1waCcsICc3LjAnLCAnLXRuJywgJzgnLCAnLW1hJywgJzIwMCcsICctbWV0YWxfYmluZGluZycsICctaW1hZScsICc8aW5maWxlLm1hZT4nLCAnLW9tYWUnLCAnPG91dGZpbGUubWFlPic=

> <r_epik_Ionization_Penalty>
1.46962

> <r_epik_Ionization_Penalty_Charging>
1.46959

> <r_epik_Ionization_Penalty_Neutral>
2.92192e-05

> <r_epik_State_Penalty>
1.55729

> <r_epik_Charging_Adjusted_Penalty>
3.02688

> <i_epik_Tot_Q>
1

> <i_epik_Tot_abs_Q>
1

> <r_epik_Metal_State_Penalty>
5.60569

> <b_epik_Metal_Only>
0

> <s_lp_Force_Field>
OPLS_2005

> <r_lp_Energy>
10.0589

> <b_lp_Chiralities_Consistent>
1

> <s_lp_Variant>
AV-unprocessed.smi:517-3

> <Gold.Version>
5.8.1

> <Gold.Id.Protein>
6NUR|6NUR_protein|mol2

> <Gold.PLP.Fitness>
47.2793

> <Gold.PLP.PLP>
-36.1256

> <Gold.PLP.part.hbond>
-2.8384

> <Gold.PLP.part.metal>
0.0000

> <Gold.PLP.part.buried>
-6.1228

> <Gold.PLP.part.nonpolar>
-28.5569

> <Gold.PLP.part.repulsive>
0.0571

> <Gold.PLP.ligand.clash>
0.0000

> <Gold.PLP.ligand.torsion>
0.3932

> <Gold.PLP.Chemscore.Hbond>
3.9753

> <Gold.PLP.Chemscore.CHOScore>
0.0000

> <Gold.PLP.Chemscore.Metal>
0.0000

> <Gold.Chemscore.Hbonds>
donor molecule, donor type, donor heavy atom, donor atom, acceptor molecule, acceptor atom, score
      L1  H    11    36       P1  8028  1.98
      P1  H  7989  7998       L1    10  0.99
      P1  H  7997  8008       L1     3  0.76

> <Gold.PLP.Chemscore.Internal.Correction>
0.0145

> <Gold.Rescore>
     Score         DG    S(hbond)    S(metal)    S(lipo)     H(rot)  DE(clash)    DE(int)     intcor
     20.03     -20.48       2.90        0.00      93.12       2.18       0.00       0.45       ----

> <Gold.Chemscore.Fitness>
20.0306

> <Gold.Chemscore.DG>
-20.4794

> <Gold.Chemscore.ZeroCoef>
-5.4800

> <Gold.Chemscore.Hbond>
2.8995

> <Gold.Chemscore.Metal>
0.0000

> <Gold.Chemscore.Lipo>
93.1205

> <Gold.Chemscore.Internal_Hbond>
0.0000

> <Gold.Chemscore.DEClash>
0.0000

> <Gold.Chemscore.DEInternal>
0.4488

> <Gold.Chemscore.Rot>
2.1797

> <Gold.Chemscore.Internal.Correction>
   9.000000E+99

> <Gold.Chemscore.Hbonds>
donor molecule, donor type, donor heavy atom, donor atom, acceptor molecule, acceptor atom, score
      L1  H    11    36       P1  8028  0.94
      P1  H  7989  7998       L1    10  0.91
      P1  H  7997  8008       L1     3  0.51

> <Gold.Chemscore.Hbond.Weighted>
-9.6845

> <Gold.Chemscore.Metal.Weighted>
-0.0000

> <Gold.Chemscore.Lipo.Weighted>
-10.8951

> <Gold.Chemscore.Internal_Hbond.Weighted>
0.0000

> <Gold.Chemscore.DEClash.Weighted>
0.0000

> <Gold.Chemscore.DEInternal.Weighted>
0.4488

> <Gold.Chemscore.Rot.Weighted>
5.5801

> <Gold.Chemscore.Internal.Correction.Weighted>
   9.000000E+99

> <Gold.Protein.RotatedTorsions>
[ 6907 6896 6895 6894 ] final  157.19 input  -60.11 | X-H torsion
[ 7974 7965 7964 7962 ] final  170.41 input  175.53 | X-H torsion
[ 8008 7997 7996 7995 ] final  -74.21 input   59.86 | X-H torsion
[ 10167 10162 10161 10158 ] final -165.95 input  -65.29 | X-H torsion
[ 10718 10713 10712 10709 ] final   88.56 input   66.30 | X-H torsion
[ 10763 10752 10751 10750 ] final  120.09 input  -60.55 | X-H torsion
[ 11005 11000 10999 10996 ] final  -71.77 input  -57.11 | X-H torsion

> <Gold.Protein.ActiveResidues>
 VAL166  LYS551  ARG553  GLY616  TRP617  ASP618  TYR619  PRO620  LYS621  CYS622 
 ASP623  PHE694  ASN695  SER759  ASP760  ASP761  ALA762  ILE779  LEU786  VAL792 
 PHE793  MET794  SER795  GLU796  ALA797  LYS798  CYS799  TRP800  GLU811  SER814 

> <Gold.Protein.RotatedAtoms>
  152.0187  133.3890  159.4248 H   0  0  0  0  0  0  0  0  0  0  0  0  # atno 6907 bound_to 6896
  150.6892  134.3650  159.4976 H   0  0  0  0  0  0  0  0  0  0  0  0  # atno 6908 bound_to 6896
  152.1421  134.9054  160.0604 H   0  0  0  0  0  0  0  0  0  0  0  0  # atno 6909 bound_to 6896
  144.7325  139.9198  143.6419 H   0  0  0  0  0  0  0  0  0  0  0  0  # atno 7974 bound_to 7965
  154.5312  140.0765  156.8347 H   0  0  0  0  0  0  0  0  0  0  0  0  # atno 8008 bound_to 7997
  155.3372  140.3405  155.4221 H   0  0  0  0  0  0  0  0  0  0  0  0  # atno 8009 bound_to 7997
  156.1782  140.1643  156.8309 H   0  0  0  0  0  0  0  0  0  0  0  0  # atno 8010 bound_to 7997
  139.6148  144.0743  152.1877 H   0  0  0  0  0  0  0  0  0  0  0  0  # atno 10167 bound_to 10162
  157.6950  131.0299  150.3293 H   0  0  0  0  0  0  0  0  0  0  0  0  # atno 10718 bound_to 10713
  153.5931  135.3462  155.2918 H   0  0  0  0  0  0  0  0  0  0  0  0  # atno 10763 bound_to 10752
  154.8649  135.4209  154.2495 H   0  0  0  0  0  0  0  0  0  0  0  0  # atno 10764 bound_to 10752
  153.3306  135.7044  153.7022 H   0  0  0  0  0  0  0  0  0  0  0  0  # atno 10765 bound_to 10752
  141.1598  133.6827  156.6957 H   0  0  0  0  0  0  0  0  0  0  0  0  # atno 11005 bound_to 11000
  146.0938  139.3929  143.0389 LP  0  0  0  0  0  0  0  0  0  0  0  0  # atno 17320 bound_to 7965
  145.7674  140.9910  143.1167 LP  0  0  0  0  0  0  0  0  0  0  0  0  # atno 17321 bound_to 7965
  140.0370  144.6037  150.7442 LP  0  0  0  0  0  0  0  0  0  0  0  0  # atno 17342 bound_to 10162
  140.7343  143.2727  151.3837 LP  0  0  0  0  0  0  0  0  0  0  0  0  # atno 17343 bound_to 10162
  156.3769  130.3873  149.7132 LP  0  0  0  0  0  0  0  0  0  0  0  0  # atno 17370 bound_to 10713
  156.4527  130.7914  151.2935 LP  0  0  0  0  0  0  0  0  0  0  0  0  # atno 17371 bound_to 10713
  140.2997  134.8174  157.4087 LP  0  0  0  0  0  0  0  0  0  0  0  0  # atno 17394 bound_to 11000
  140.1273  134.5141  155.8134 LP  0  0  0  0  0  0  0  0  0  0  0  0  # atno 17395 bound_to 11000

$$$$
