AV-unprocessed.smi:2063|AV-procd|sdf|8409|dock5
  -GOLD-   2272011103D 1   1.00000     0.00000
 Structure written by MMmdl.
 39 40  0  0  0  0  0  0  0  0  1 V2000
  152.4603  140.2798  158.2705 C   0  0  0  0  0  0  0  0  0  0  0  0
  151.5524  140.8521  157.1723 C   0  0  0  0  0  0  0  0  0  0  0  0
  150.3238  141.5738  157.7443 C   0  0  0  0  0  0  0  0  0  0  0  0
  151.1692  139.8121  156.1648 C   0  0  0  0  0  0  0  0  0  0  0  0
  151.4112  139.9547  154.8553 N   0  0  0  0  0  0  0  0  0  0  0  0
  150.9655  138.8699  154.1134 N   0  0  0  0  0  0  0  0  0  0  0  0
  150.3969  137.9349  154.8864 C   0  0  0  0  0  0  0  0  0  0  0  0
  149.8557  136.7203  154.3880 N   0  0  0  0  0  0  0  0  0  0  0  0
  149.6287  135.5734  155.0523 C   0  0  0  0  0  0  0  0  0  0  0  0
  149.8726  135.3813  156.2437 O   0  0  0  0  0  0  0  0  0  0  0  0
  149.0969  134.6448  154.2438 N   0  0  0  0  0  0  0  0  0  0  0  0
  148.7400  133.2813  154.6302 C   0  0  1  0  0  0  0  0  0  0  0  0
  147.7080  133.3511  155.7664 C   0  0  0  0  0  0  0  0  0  0  0  0
  148.2082  132.5123  153.4031 C   0  0  2  0  0  0  0  0  0  0  0  0
  147.1478  133.2558  152.5909 C   0  0  0  0  0  0  0  0  0  0  0  0
  146.3997  132.1400  151.8804 C   0  0  0  0  0  0  0  0  0  0  0  0
  146.7612  130.8838  152.6781 C   0  0  0  0  0  0  0  0  0  0  0  0
  147.4979  131.3493  153.8006 O   0  0  0  0  0  0  0  0  0  0  0  0
  150.3620  138.3069  156.6010 S   0  0  0  0  0  0  0  0  0  0  0  0
  153.3587  139.8336  157.8429 H   0  0  0  0  0  0  0  0  0  0  0  0
  151.9495  139.5105  158.8504 H   0  0  0  0  0  0  0  0  0  0  0  0
  152.7777  141.0598  158.9628 H   0  0  0  0  0  0  0  0  0  0  0  0
  152.1387  141.6058  156.6443 H   0  0  0  0  0  0  0  0  0  0  0  0
  149.7314  142.0285  156.9496 H   0  0  0  0  0  0  0  0  0  0  0  0
  150.6195  142.3681  158.4303 H   0  0  0  0  0  0  0  0  0  0  0  0
  149.6765  140.8878  158.2915 H   0  0  0  0  0  0  0  0  0  0  0  0
  149.6129  136.7250  153.4085 H   0  0  0  0  0  0  0  0  0  0  0  0
  148.9360  134.8950  153.2794 H   0  0  0  0  0  0  0  0  0  0  0  0
  149.6203  132.7636  155.0153 H   0  0  0  0  0  0  0  0  0  0  0  0
  147.4526  132.3571  156.1337 H   0  0  0  0  0  0  0  0  0  0  0  0
  146.7860  133.8315  155.4372 H   0  0  0  0  0  0  0  0  0  0  0  0
  148.0957  133.9185  156.6132 H   0  0  0  0  0  0  0  0  0  0  0  0
  149.0328  132.2154  152.7517 H   0  0  0  0  0  0  0  0  0  0  0  0
  146.4656  133.7850  153.2578 H   0  0  0  0  0  0  0  0  0  0  0  0
  147.5758  133.9823  151.8999 H   0  0  0  0  0  0  0  0  0  0  0  0
  145.3253  132.3265  151.8752 H   0  0  0  0  0  0  0  0  0  0  0  0
  146.7290  132.0405  150.8456 H   0  0  0  0  0  0  0  0  0  0  0  0
  145.8820  130.3233  152.9962 H   0  0  0  0  0  0  0  0  0  0  0  0
  147.3913  130.2206  152.0838 H   0  0  0  0  0  0  0  0  0  0  0  0
  1  2  1  0  0  0  0
  1 20  1  0  0  0  0
  1 21  1  0  0  0  0
  1 22  1  0  0  0  0
  2  3  1  0  0  0  0
  2  4  1  0  0  0  0
  2 23  1  0  0  0  0
  3 24  1  0  0  0  0
  3 25  1  0  0  0  0
  3 26  1  0  0  0  0
  4 19  1  0  0  0  0
  4  5  2  0  0  0  0
  5  6  1  0  0  0  0
  6  7  2  0  0  0  0
  7  8  1  0  0  0  0
  7 19  1  0  0  0  0
  8  9  1  0  0  0  0
  8 27  1  0  0  0  0
  9 10  2  0  0  0  0
  9 11  1  0  0  0  0
 11 12  1  0  0  0  0
 11 28  1  0  0  0  0
 12 13  1  0  0  0  0
 12 14  1  0  0  0  0
 12 29  1  0  0  0  0
 13 30  1  0  0  0  0
 13 31  1  0  0  0  0
 13 32  1  0  0  0  0
 14 18  1  0  0  0  0
 14 15  1  0  0  0  0
 14 33  1  0  0  0  0
 15 16  1  0  0  0  0
 15 34  1  0  0  0  0
 15 35  1  0  0  0  0
 16 17  1  0  0  0  0
 16 36  1  0  0  0  0
 16 37  1  0  0  0  0
 17 18  1  0  0  0  0
 17 38  1  0  0  0  0
 17 39  1  0  0  0  0
M  END
> <s_m_source_file>
AV-unprocessed.smi

> <i_m_source_file_index>
2063

> <i_lp_mmshare_version>
43012

> <i_f3d_flags>
0

> <s_epik_input>
W0NIM11bQ0hdKFtDSDNdKWMxbm5jKHMxKVtOSF1DKD1PKVtOSF1bQ0BIXShbQ0gzXSlbQ0BASF0yW0NIMl1bQ0gyXVtDSDJdTzI=

> <s_epik_cmdline>
J2VwaWtfcHl0aG9uJywgJy1waCcsICc3LjAnLCAnLXRuJywgJzgnLCAnLW1hJywgJzIwMCcsICctbWV0YWxfYmluZGluZycsICctaW1hZScsICc8aW5maWxlLm1hZT4nLCAnLW9tYWUnLCAnPG91dGZpbGUubWFlPic=

> <r_lp_tautomer_probability>
1

> <r_epik_Ionization_Penalty>
0.00050567

> <r_epik_Ionization_Penalty_Charging>
0

> <r_epik_Ionization_Penalty_Neutral>
0.00050567

> <r_epik_State_Penalty>
-0

> <r_epik_Charging_Adjusted_Penalty>
0

> <i_epik_Tot_Q>
0

> <i_epik_Tot_abs_Q>
0

> <r_epik_Metal_State_Penalty>
0.219912

> <b_epik_Metal_Only>
0

> <s_lp_Force_Field>
OPLS_2005

> <r_lp_Energy>
10.6095

> <b_lp_Chiralities_Consistent>
1

> <s_lp_Variant>
AV-unprocessed.smi:2063-2

> <Gold.Version>
5.8.1

> <Gold.Id.Protein>
6NUR|6NUR_protein|mol2

> <Gold.PLP.Fitness>
32.9557

> <Gold.PLP.PLP>
-25.7917

> <Gold.PLP.part.hbond>
-4.0465

> <Gold.PLP.part.metal>
0.0000

> <Gold.PLP.part.buried>
-3.0095

> <Gold.PLP.part.nonpolar>
-19.7606

> <Gold.PLP.part.repulsive>
0.4099

> <Gold.PLP.ligand.clash>
0.0000

> <Gold.PLP.ligand.torsion>
0.4332

> <Gold.PLP.Chemscore.Hbond>
2.6500

> <Gold.PLP.Chemscore.CHOScore>
0.0000

> <Gold.PLP.Chemscore.Metal>
0.0000

> <Gold.Chemscore.Hbonds>
donor molecule, donor type, donor heavy atom, donor atom, acceptor molecule, acceptor atom, score
      L1  H     8    27       P1  7948  1.00
      L1  H    11    28       P1  7948  1.00
      P1  H  7989  7998       L1     5  0.60

> <Gold.PLP.Chemscore.Internal.Correction>
0.0803

> <Gold.Rescore>
     Score         DG    S(hbond)    S(metal)    S(lipo)     H(rot)  DE(clash)    DE(int)     intcor
     13.36     -13.91       1.73        0.00      53.49       1.42       0.01       0.55       ----

> <Gold.Chemscore.Fitness>
13.3567

> <Gold.Chemscore.DG>
-13.9090

> <Gold.Chemscore.ZeroCoef>
-5.4800

> <Gold.Chemscore.Hbond>
1.7347

> <Gold.Chemscore.Metal>
0.0000

> <Gold.Chemscore.Lipo>
53.4867

> <Gold.Chemscore.Internal_Hbond>
0.0000

> <Gold.Chemscore.DEClash>
0.0062

> <Gold.Chemscore.DEInternal>
0.5461

> <Gold.Chemscore.Rot>
1.4152

> <Gold.Chemscore.Internal.Correction>
   9.000000E+99

> <Gold.Chemscore.Hbonds>
donor molecule, donor type, donor heavy atom, donor atom, acceptor molecule, acceptor atom, score
      L1  H     8    27       P1  7948  0.60
      L1  H    11    28       P1  7948  0.24
      P1  H  7989  7998       L1     5  0.04

> <Gold.Chemscore.Hbond.Weighted>
-5.7939

> <Gold.Chemscore.Metal.Weighted>
-0.0000

> <Gold.Chemscore.Lipo.Weighted>
-6.2579

> <Gold.Chemscore.Internal_Hbond.Weighted>
0.0000

> <Gold.Chemscore.DEClash.Weighted>
0.0062

> <Gold.Chemscore.DEInternal.Weighted>
0.5461

> <Gold.Chemscore.Rot.Weighted>
3.6229

> <Gold.Chemscore.Internal.Correction.Weighted>
   9.000000E+99

> <Gold.Protein.RotatedTorsions>
[ 6907 6896 6895 6894 ] final  161.27 input  -60.11 | X-H torsion
[ 7974 7965 7964 7962 ] final -166.90 input  175.53 | X-H torsion
[ 8008 7997 7996 7995 ] final  -69.11 input   59.86 | X-H torsion
[ 10167 10162 10161 10158 ] final  155.96 input  -65.29 | X-H torsion
[ 10718 10713 10712 10709 ] final  168.41 input   66.30 | X-H torsion
[ 10763 10752 10751 10750 ] final  -38.15 input  -60.55 | X-H torsion
[ 11005 11000 10999 10996 ] final  -52.89 input  -57.11 | X-H torsion

> <Gold.Protein.ActiveResidues>
 VAL166  LYS551  ARG553  GLY616  TRP617  ASP618  TYR619  PRO620  LYS621  CYS622 
 ASP623  PHE694  ASN695  SER759  ASP760  ASP761  ALA762  ILE779  LEU786  VAL792 
 PHE793  MET794  SER795  GLU796  ALA797  LYS798  CYS799  TRP800  GLU811  SER814 

> <Gold.Protein.RotatedAtoms>
  151.9582  133.3687  159.4024 H   0  0  0  0  0  0  0  0  0  0  0  0  # atno 6907 bound_to 6896
  150.6969  134.4269  159.5240 H   0  0  0  0  0  0  0  0  0  0  0  0  # atno 6908 bound_to 6896
  152.1953  134.8636  160.0564 H   0  0  0  0  0  0  0  0  0  0  0  0  # atno 6909 bound_to 6896
  144.7235  140.2598  143.6266 H   0  0  0  0  0  0  0  0  0  0  0  0  # atno 7974 bound_to 7965
  154.4915  140.0860  156.7605 H   0  0  0  0  0  0  0  0  0  0  0  0  # atno 8008 bound_to 7997
  155.4218  140.3446  155.4254 H   0  0  0  0  0  0  0  0  0  0  0  0  # atno 8009 bound_to 7997
  156.1337  140.1508  156.9015 H   0  0  0  0  0  0  0  0  0  0  0  0  # atno 8010 bound_to 7997
  139.4821  144.5052  151.8109 H   0  0  0  0  0  0  0  0  0  0  0  0  # atno 10167 bound_to 10162
  157.0376  131.0277  151.2724 H   0  0  0  0  0  0  0  0  0  0  0  0  # atno 10718 bound_to 10713
  153.9081  135.6795  153.4752 H   0  0  0  0  0  0  0  0  0  0  0  0  # atno 10763 bound_to 10752
  153.1093  135.4790  154.9004 H   0  0  0  0  0  0  0  0  0  0  0  0  # atno 10764 bound_to 10752
  154.7541  135.3192  154.8458 H   0  0  0  0  0  0  0  0  0  0  0  0  # atno 10765 bound_to 10752
  141.0948  133.6626  156.4091 H   0  0  0  0  0  0  0  0  0  0  0  0  # atno 11005 bound_to 11000
  145.8147  139.2018  143.1973 LP  0  0  0  0  0  0  0  0  0  0  0  0  # atno 17320 bound_to 7965
  146.0566  140.8014  142.9755 LP  0  0  0  0  0  0  0  0  0  0  0  0  # atno 17321 bound_to 7965
  140.4549  144.1803  150.5900 LP  0  0  0  0  0  0  0  0  0  0  0  0  # atno 17342 bound_to 10162
  140.4546  143.2473  151.9302 LP  0  0  0  0  0  0  0  0  0  0  0  0  # atno 17343 bound_to 10162
  157.5130  130.7950  149.7725 LP  0  0  0  0  0  0  0  0  0  0  0  0  # atno 17370 bound_to 10713
  156.0049  130.3861  150.2469 LP  0  0  0  0  0  0  0  0  0  0  0  0  # atno 17371 bound_to 10713
  140.5167  134.6344  157.5303 LP  0  0  0  0  0  0  0  0  0  0  0  0  # atno 17394 bound_to 11000
  139.9782  134.7181  155.9910 LP  0  0  0  0  0  0  0  0  0  0  0  0  # atno 17395 bound_to 11000

$$$$
