AV-unprocessed.smi:2177|AV-procd|sdf|8851|dock3
  -GOLD-   2272012 43D 1   1.00000     0.00000
 Structure written by MMmdl.
 42 43  0  0  0  0  0  0  0  0  1 V2000
  149.6780  135.4848  155.9708 C   0  0  0  0  0  0  0  0  0  0  0  0
  150.0109  134.0204  155.9978 C   0  0  0  0  0  0  0  0  0  0  0  0
  150.4524  133.4762  157.1193 N   0  0  0  0  0  0  0  0  0  0  0  0
  150.6712  132.1820  156.8112 N   0  0  0  0  0  0  0  0  0  0  0  0
  151.1744  131.2828  157.8312 C   0  0  0  0  0  0  0  0  0  0  0  0
  150.3647  131.9075  155.4930 C   0  0  0  0  0  0  0  0  0  0  0  0
  150.5314  130.5445  154.9032 C   0  0  0  0  0  0  0  0  0  0  0  0
  149.9353  133.0792  154.9288 C   0  0  0  0  0  0  0  0  0  0  0  0
  149.5077  133.3381  153.5042 C   0  0  0  0  0  0  0  0  0  0  0  0
  147.9827  133.2738  153.4106 C   0  0  0  0  0  0  0  0  0  0  0  0
  147.3750  132.3110  153.8771 O   0  0  0  0  0  0  0  0  0  0  0  0
  147.3862  134.2981  152.7816 N   0  0  0  0  0  0  0  0  0  0  0  0
  145.9750  134.3801  152.4206 C   0  0  1  0  0  0  0  0  0  0  0  0
  145.7046  135.6974  151.6791 C   0  0  0  0  0  0  0  0  0  0  0  0
  145.5974  133.1476  151.5768 C   0  0  1  0  0  0  0  0  0  0  0  0
  144.2004  133.2043  150.9514 C   0  0  0  0  0  0  0  0  0  0  0  0
  144.3178  132.3177  149.7211 C   0  0  0  0  0  0  0  0  0  0  0  0
  145.8249  132.1013  149.5570 C   0  0  0  0  0  0  0  0  0  0  0  0
  146.4316  133.0390  150.4345 O   0  0  0  0  0  0  0  0  0  0  0  0
  150.3806  136.0308  155.3410 H   0  0  0  0  0  0  0  0  0  0  0  0
  149.7133  135.9270  156.9670 H   0  0  0  0  0  0  0  0  0  0  0  0
  148.6771  135.6496  155.5726 H   0  0  0  0  0  0  0  0  0  0  0  0
  150.4122  130.5421  158.0736 H   0  0  0  0  0  0  0  0  0  0  0  0
  151.4338  131.8332  158.7368 H   0  0  0  0  0  0  0  0  0  0  0  0
  152.0649  130.7720  157.4639 H   0  0  0  0  0  0  0  0  0  0  0  0
  150.1623  130.5087  153.8783 H   0  0  0  0  0  0  0  0  0  0  0  0
  149.9830  129.8005  155.4812 H   0  0  0  0  0  0  0  0  0  0  0  0
  151.5827  130.2569  154.8891 H   0  0  0  0  0  0  0  0  0  0  0  0
  149.8507  134.3139  153.1584 H   0  0  0  0  0  0  0  0  0  0  0  0
  149.9320  132.6064  152.8162 H   0  0  0  0  0  0  0  0  0  0  0  0
  147.9778  135.0443  152.4462 H   0  0  0  0  0  0  0  0  0  0  0  0
  145.3657  134.3638  153.3263 H   0  0  0  0  0  0  0  0  0  0  0  0
  144.6514  135.7882  151.4124 H   0  0  0  0  0  0  0  0  0  0  0  0
  146.2876  135.7635  150.7599 H   0  0  0  0  0  0  0  0  0  0  0  0
  145.9606  136.5567  152.3000 H   0  0  0  0  0  0  0  0  0  0  0  0
  145.6942  132.2368  152.1714 H   0  0  0  0  0  0  0  0  0  0  0  0
  143.4191  132.8747  151.6373 H   0  0  0  0  0  0  0  0  0  0  0  0
  143.9650  134.2244  150.6438 H   0  0  0  0  0  0  0  0  0  0  0  0
  143.8034  131.3662  149.8596 H   0  0  0  0  0  0  0  0  0  0  0  0
  143.8852  132.8091  148.8488 H   0  0  0  0  0  0  0  0  0  0  0  0
  146.1023  131.0922  149.8649 H   0  0  0  0  0  0  0  0  0  0  0  0
  146.1607  132.2481  148.5301 H   0  0  0  0  0  0  0  0  0  0  0  0
  1  2  1  0  0  0  0
  1 20  1  0  0  0  0
  1 21  1  0  0  0  0
  1 22  1  0  0  0  0
  2  8  1  0  0  0  0
  2  3  2  0  0  0  0
  3  4  1  0  0  0  0
  4  5  1  0  0  0  0
  4  6  1  0  0  0  0
  5 23  1  0  0  0  0
  5 24  1  0  0  0  0
  5 25  1  0  0  0  0
  6  7  1  0  0  0  0
  6  8  2  0  0  0  0
  7 26  1  0  0  0  0
  7 27  1  0  0  0  0
  7 28  1  0  0  0  0
  8  9  1  0  0  0  0
  9 10  1  0  0  0  0
  9 29  1  0  0  0  0
  9 30  1  0  0  0  0
 10 11  2  0  0  0  0
 10 12  1  0  0  0  0
 12 13  1  0  0  0  0
 12 31  1  0  0  0  0
 13 14  1  0  0  0  0
 13 15  1  0  0  0  0
 13 32  1  0  0  0  0
 14 33  1  0  0  0  0
 14 34  1  0  0  0  0
 14 35  1  0  0  0  0
 15 19  1  0  0  0  0
 15 16  1  0  0  0  0
 15 36  1  0  0  0  0
 16 17  1  0  0  0  0
 16 37  1  0  0  0  0
 16 38  1  0  0  0  0
 17 18  1  0  0  0  0
 17 39  1  0  0  0  0
 17 40  1  0  0  0  0
 18 19  1  0  0  0  0
 18 41  1  0  0  0  0
 18 42  1  0  0  0  0
M  END
> <s_m_source_file>
AV-unprocessed.smi

> <i_m_source_file_index>
2177

> <i_lp_mmshare_version>
43012

> <i_f3d_flags>
0

> <s_epik_input>
W0NIM11jMW5uKFtDSDNdKWMoW0NIM10pYzFbQ0gyXUMoPU8pW05IXVtDQEhdKFtDSDNdKVtDQEBIXTJbQ0gyXVtDSDJdW0NIMl1PMg==

> <s_epik_cmdline>
J2VwaWtfcHl0aG9uJywgJy1waCcsICc3LjAnLCAnLXRuJywgJzgnLCAnLW1hJywgJzIwMCcsICctbWV0YWxfYmluZGluZycsICctaW1hZScsICc8aW5maWxlLm1hZT4nLCAnLW9tYWUnLCAnPG91dGZpbGUubWFlPic=

> <r_lp_tautomer_probability>
1

> <r_epik_Ionization_Penalty>
0.00310467

> <r_epik_Ionization_Penalty_Charging>
0

> <r_epik_Ionization_Penalty_Neutral>
0.00310467

> <r_epik_State_Penalty>
0.00218493

> <r_epik_Charging_Adjusted_Penalty>
0.00218493

> <i_epik_Tot_Q>
0

> <i_epik_Tot_abs_Q>
0

> <r_epik_Metal_State_Penalty>
-0

> <b_epik_Metal_Only>
0

> <s_lp_Force_Field>
OPLS_2005

> <r_lp_Energy>
11.3681

> <b_lp_Chiralities_Consistent>
1

> <s_lp_Variant>
AV-unprocessed.smi:2177-4

> <Gold.Version>
5.8.1

> <Gold.Id.Protein>
6NUR|6NUR_protein|mol2

> <Gold.PLP.Fitness>
38.7985

> <Gold.PLP.PLP>
-34.6686

> <Gold.PLP.part.hbond>
-2.0000

> <Gold.PLP.part.metal>
0.0000

> <Gold.PLP.part.buried>
-5.6158

> <Gold.PLP.part.nonpolar>
-27.2474

> <Gold.PLP.part.repulsive>
0.2802

> <Gold.PLP.ligand.clash>
0.0000

> <Gold.PLP.ligand.torsion>
0.4996

> <Gold.PLP.Chemscore.Hbond>
1.6937

> <Gold.PLP.Chemscore.CHOScore>
0.0000

> <Gold.PLP.Chemscore.Metal>
0.0000

> <Gold.Chemscore.Hbonds>
donor molecule, donor type, donor heavy atom, donor atom, acceptor molecule, acceptor atom, score
      L1  H    12    31       P1  7948  1.00
      P1  H  6896  6907       L1     3  0.65

> <Gold.PLP.Chemscore.Internal.Correction>
0.0480

> <Gold.Rescore>
     Score         DG    S(hbond)    S(metal)    S(lipo)     H(rot)  DE(clash)    DE(int)     intcor
     16.06     -17.12       1.93        0.00      76.43       1.46       0.00       1.06       ----

> <Gold.Chemscore.Fitness>
16.0618

> <Gold.Chemscore.DG>
-17.1191

> <Gold.Chemscore.ZeroCoef>
-5.4800

> <Gold.Chemscore.Hbond>
1.9286

> <Gold.Chemscore.Metal>
0.0000

> <Gold.Chemscore.Lipo>
76.4262

> <Gold.Chemscore.Internal_Hbond>
0.0000

> <Gold.Chemscore.DEClash>
0.0000

> <Gold.Chemscore.DEInternal>
1.0573

> <Gold.Chemscore.Rot>
1.4627

> <Gold.Chemscore.Internal.Correction>
   9.000000E+99

> <Gold.Chemscore.Hbonds>
donor molecule, donor type, donor heavy atom, donor atom, acceptor molecule, acceptor atom, score
      L1  H    12    31       P1  7948  0.87
      P1  H  6896  6907       L1     3  0.31

> <Gold.Chemscore.Hbond.Weighted>
-6.4416

> <Gold.Chemscore.Metal.Weighted>
-0.0000

> <Gold.Chemscore.Lipo.Weighted>
-8.9419

> <Gold.Chemscore.Internal_Hbond.Weighted>
0.0000

> <Gold.Chemscore.DEClash.Weighted>
0.0000

> <Gold.Chemscore.DEInternal.Weighted>
1.0573

> <Gold.Chemscore.Rot.Weighted>
3.7445

> <Gold.Chemscore.Internal.Correction.Weighted>
   9.000000E+99

> <Gold.Protein.RotatedTorsions>
[ 6907 6896 6895 6894 ] final -132.05 input  -60.11 | X-H torsion
[ 7974 7965 7964 7962 ] final -117.44 input  175.53 | X-H torsion
[ 8008 7997 7996 7995 ] final   12.62 input   59.86 | X-H torsion
[ 10167 10162 10161 10158 ] final   70.27 input  -65.29 | X-H torsion
[ 10718 10713 10712 10709 ] final  115.07 input   66.30 | X-H torsion
[ 10763 10752 10751 10750 ] final  -46.72 input  -60.55 | X-H torsion
[ 11005 11000 10999 10996 ] final  -94.18 input  -57.11 | X-H torsion

> <Gold.Protein.ActiveResidues>
 VAL166  LYS551  ARG553  GLY616  TRP617  ASP618  TYR619  PRO620  LYS621  CYS622 
 ASP623  PHE694  ASN695  SER759  ASP760  ASP761  ALA762  ILE779  LEU786  VAL792 
 PHE793  MET794  SER795  GLU796  ALA797  LYS798  CYS799  TRP800  GLU811  SER814 

> <Gold.Protein.RotatedAtoms>
  150.9579  133.6477  159.2759 H   0  0  0  0  0  0  0  0  0  0  0  0  # atno 6907 bound_to 6896
  151.3810  135.0938  159.9506 H   0  0  0  0  0  0  0  0  0  0  0  0  # atno 6908 bound_to 6896
  152.5136  133.9113  159.7544 H   0  0  0  0  0  0  0  0  0  0  0  0  # atno 6909 bound_to 6896
  145.0852  140.8453  143.4015 H   0  0  0  0  0  0  0  0  0  0  0  0  # atno 7974 bound_to 7965
  154.8232  140.2887  155.5772 H   0  0  0  0  0  0  0  0  0  0  0  0  # atno 8008 bound_to 7997
  156.2999  140.2546  156.3074 H   0  0  0  0  0  0  0  0  0  0  0  0  # atno 8009 bound_to 7997
  154.9315  140.0383  157.2040 H   0  0  0  0  0  0  0  0  0  0  0  0  # atno 8010 bound_to 7997
  140.0588  144.5250  150.7309 H   0  0  0  0  0  0  0  0  0  0  0  0  # atno 10167 bound_to 10162
  157.6244  131.1007  150.7277 H   0  0  0  0  0  0  0  0  0  0  0  0  # atno 10718 bound_to 10713
  154.0496  135.6633  153.4799 H   0  0  0  0  0  0  0  0  0  0  0  0  # atno 10763 bound_to 10752
  153.0469  135.5109  154.7763 H   0  0  0  0  0  0  0  0  0  0  0  0  # atno 10764 bound_to 10752
  154.6765  135.3038  154.9637 H   0  0  0  0  0  0  0  0  0  0  0  0  # atno 10765 bound_to 10752
  141.1477  133.7938  157.0262 H   0  0  0  0  0  0  0  0  0  0  0  0  # atno 11005 bound_to 11000
  145.1130  139.2744  143.5627 LP  0  0  0  0  0  0  0  0  0  0  0  0  # atno 17320 bound_to 7965
  146.3531  140.0732  142.8622 LP  0  0  0  0  0  0  0  0  0  0  0  0  # atno 17321 bound_to 7965
  140.7182  143.2564  151.4366 LP  0  0  0  0  0  0  0  0  0  0  0  0  # atno 17342 bound_to 10162
  139.5907  144.1506  152.2084 LP  0  0  0  0  0  0  0  0  0  0  0  0  # atno 17343 bound_to 10162
  156.7628  130.4804  149.5433 LP  0  0  0  0  0  0  0  0  0  0  0  0  # atno 17370 bound_to 10713
  156.1407  130.6242  151.0463 LP  0  0  0  0  0  0  0  0  0  0  0  0  # atno 17371 bound_to 10713
  140.0783  134.9663  157.1582 LP  0  0  0  0  0  0  0  0  0  0  0  0  # atno 17394 bound_to 11000
  140.3612  134.2492  155.7187 LP  0  0  0  0  0  0  0  0  0  0  0  0  # atno 17395 bound_to 11000

$$$$
