AV-unprocessed.smi:1964|AV-procd|sdf|7929|dock2
  -GOLD-   2272010103D 1   1.00000     0.00000
 Structure written by MMmdl.
 46 48  0  0  0  0  0  0  0  0  1 V2000
  144.4573  135.7310  162.6476 C   0  0  0  0  0  0  0  0  0  0  0  0
  145.3408  134.4736  162.5685 C   0  0  1  0  0  0  0  0  0  0  0  0
  144.6962  133.3880  161.6797 C   0  0  0  0  0  0  0  0  0  0  0  0
  145.5551  132.1137  161.6299 C   0  0  0  0  0  0  0  0  0  0  0  0
  146.9898  132.4188  161.1721 C   0  0  0  0  0  0  0  0  0  0  0  0
  147.6379  133.5010  162.0545 C   0  0  0  0  0  0  0  0  0  0  0  0
  146.7870  134.7866  162.1106 C   0  0  1  0  0  0  0  0  0  0  0  0
  146.7736  135.4360  160.8042 N   0  0  0  0  0  0  0  0  0  0  0  0
  147.4054  136.5666  160.4512 C   0  0  0  0  0  0  0  0  0  0  0  0
  148.1018  137.2178  161.2283 O   0  0  0  0  0  0  0  0  0  0  0  0
  147.2405  137.0442  158.9965 C   0  0  0  0  0  0  0  0  0  0  0  0
  148.4979  137.5119  158.3645 N   0  0  0  0  0  0  0  0  0  0  0  0
  149.5272  136.5662  158.1213 C   0  0  0  0  0  0  0  0  0  0  0  0
  149.3947  135.3856  158.4474 O   0  0  0  0  0  0  0  0  0  0  0  0
  150.7190  137.0897  157.4583 C   0  0  0  0  0  0  0  0  0  0  0  0
  151.7930  136.1793  157.2354 C   0  0  0  0  0  0  0  0  0  0  0  0
  152.6486  135.4211  157.0547 N   0  0  0  0  0  0  0  0  0  0  0  0
  150.7884  138.3798  157.0705 C   0  0  0  0  0  0  0  0  0  0  0  0
  149.7521  139.2671  157.2625 N   0  0  0  0  0  0  0  0  0  0  0  0
  149.8861  140.6596  156.9403 C   0  0  0  0  0  0  0  0  0  0  0  0
  151.1232  141.4263  157.3678 C   0  0  0  0  0  0  0  0  0  0  0  0
  149.8046  141.6803  158.0547 C   0  0  0  0  0  0  0  0  0  0  0  0
  148.5972  138.8688  157.9695 C   0  0  0  0  0  0  0  0  0  0  0  0
  147.6940  139.6702  158.2210 O   0  0  0  0  0  0  0  0  0  0  0  0
  144.3058  136.1823  161.6666 H   0  0  0  0  0  0  0  0  0  0  0  0
  144.9059  136.4850  163.2945 H   0  0  0  0  0  0  0  0  0  0  0  0
  143.4743  135.4922  163.0536 H   0  0  0  0  0  0  0  0  0  0  0  0
  145.4040  134.0693  163.5802 H   0  0  0  0  0  0  0  0  0  0  0  0
  143.7036  133.1404  162.0573 H   0  0  0  0  0  0  0  0  0  0  0  0
  144.5498  133.7696  160.6678 H   0  0  0  0  0  0  0  0  0  0  0  0
  145.5792  131.6524  162.6180 H   0  0  0  0  0  0  0  0  0  0  0  0
  145.0987  131.3846  160.9599 H   0  0  0  0  0  0  0  0  0  0  0  0
  147.5898  131.5090  161.2018 H   0  0  0  0  0  0  0  0  0  0  0  0
  146.9806  132.7452  160.1311 H   0  0  0  0  0  0  0  0  0  0  0  0
  147.7640  133.1104  163.0652 H   0  0  0  0  0  0  0  0  0  0  0  0
  148.6411  133.7267  161.6908 H   0  0  0  0  0  0  0  0  0  0  0  0
  147.2347  135.4661  162.8381 H   0  0  0  0  0  0  0  0  0  0  0  0
  146.2256  134.9769  160.0915 H   0  0  0  0  0  0  0  0  0  0  0  0
  146.7962  136.2307  158.4215 H   0  0  0  0  0  0  0  0  0  0  0  0
  146.4775  137.8238  158.9775 H   0  0  0  0  0  0  0  0  0  0  0  0
  151.6849  138.7308  156.5797 H   0  0  0  0  0  0  0  0  0  0  0  0
  149.4477  140.9602  155.9905 H   0  0  0  0  0  0  0  0  0  0  0  0
  151.8851  140.9008  157.9403 H   0  0  0  0  0  0  0  0  0  0  0  0
  151.4954  142.1933  156.6919 H   0  0  0  0  0  0  0  0  0  0  0  0
  149.2983  142.6189  157.8388 H   0  0  0  0  0  0  0  0  0  0  0  0
  149.6992  141.3189  159.0760 H   0  0  0  0  0  0  0  0  0  0  0  0
  1  2  1  0  0  0  0
  1 25  1  0  0  0  0
  1 26  1  0  0  0  0
  1 27  1  0  0  0  0
  2  7  1  0  0  0  0
  2  3  1  0  0  0  0
  2 28  1  0  0  0  0
  3  4  1  0  0  0  0
  3 29  1  0  0  0  0
  3 30  1  0  0  0  0
  4  5  1  0  0  0  0
  4 31  1  0  0  0  0
  4 32  1  0  0  0  0
  5  6  1  0  0  0  0
  5 33  1  0  0  0  0
  5 34  1  0  0  0  0
  6  7  1  0  0  0  0
  6 35  1  0  0  0  0
  6 36  1  0  0  0  0
  7  8  1  0  0  0  0
  7 37  1  0  0  0  0
  8  9  1  0  0  0  0
  8 38  1  0  0  0  0
  9 10  2  0  0  0  0
  9 11  1  0  0  0  0
 11 12  1  0  0  0  0
 11 39  1  0  0  0  0
 11 40  1  0  0  0  0
 12 23  1  0  0  0  0
 12 13  1  0  0  0  0
 13 14  2  0  0  0  0
 13 15  1  0  0  0  0
 15 16  1  0  0  0  0
 15 18  2  0  0  0  0
 16 17  3  0  0  0  0
 18 19  1  0  0  0  0
 18 41  1  0  0  0  0
 19 20  1  0  0  0  0
 19 23  1  0  0  0  0
 20 22  1  0  0  0  0
 20 21  1  0  0  0  0
 20 42  1  0  0  0  0
 21 22  1  0  0  0  0
 21 43  1  0  0  0  0
 21 44  1  0  0  0  0
 22 45  1  0  0  0  0
 22 46  1  0  0  0  0
 23 24  2  0  0  0  0
M  END
> <s_m_source_file>
AV-unprocessed.smi

> <i_m_source_file_index>
1964

> <i_lp_mmshare_version>
43012

> <i_f3d_flags>
0

> <s_epik_input>
W0NIM11bQ0BASF0xW0NIMl1bQ0gyXVtDSDJdW0NIMl1bQ0BIXTFbTkhdQyg9TylbQ0gyXW4yYyg9TyljKEMjTilbY0hdbihjMj1PKVtDSF0zW0NIMl1bQ0gyXTM=

> <s_epik_cmdline>
J2VwaWtfcHl0aG9uJywgJy1waCcsICc3LjAnLCAnLXRuJywgJzgnLCAnLW1hJywgJzIwMCcsICctbWV0YWxfYmluZGluZycsICctaW1hZScsICc8aW5maWxlLm1hZT4nLCAnLW9tYWUnLCAnPG91dGZpbGUubWFlPic=

> <r_lp_tautomer_probability>
1

> <r_epik_Ionization_Penalty>
1.91372e-08

> <r_epik_Ionization_Penalty_Charging>
9.0283e-11

> <r_epik_Ionization_Penalty_Neutral>
1.90469e-08

> <r_epik_State_Penalty>
-0

> <r_epik_Charging_Adjusted_Penalty>
9.0283e-11

> <i_epik_Tot_Q>
0

> <i_epik_Tot_abs_Q>
0

> <r_epik_Metal_State_Penalty>
-0

> <b_epik_Metal_Only>
0

> <s_lp_Force_Field>
OPLS_2005

> <r_lp_Energy>
33.6562

> <b_lp_Chiralities_Consistent>
1

> <s_lp_Variant>
AV-unprocessed.smi:1964-2

> <Gold.Version>
5.8.1

> <Gold.Id.Protein>
6NUR|6NUR_protein|mol2

> <Gold.PLP.Fitness>
43.8031

> <Gold.PLP.PLP>
-33.5005

> <Gold.PLP.part.hbond>
-5.0413

> <Gold.PLP.part.metal>
0.0000

> <Gold.PLP.part.buried>
-4.9654

> <Gold.PLP.part.nonpolar>
-23.3994

> <Gold.PLP.part.repulsive>
0.0227

> <Gold.PLP.ligand.clash>
0.0000

> <Gold.PLP.ligand.torsion>
0.4809

> <Gold.PLP.Chemscore.Hbond>
3.6880

> <Gold.PLP.Chemscore.CHOScore>
0.0000

> <Gold.PLP.Chemscore.Metal>
0.0000

> <Gold.Chemscore.Hbonds>
donor molecule, donor type, donor heavy atom, donor atom, acceptor molecule, acceptor atom, score
      P1  H  6896  6907       L1    14  1.00
      P1  H  6931  6943       L1    10  1.00
      P1  H  6934  6947       L1    10  0.56
      P1  H 10752 10763       L1    17  1.00

> <Gold.PLP.Chemscore.Internal.Correction>
0.2003

> <Gold.Rescore>
     Score         DG    S(hbond)    S(metal)    S(lipo)     H(rot)  DE(clash)    DE(int)     intcor
     20.58     -21.25       3.72        0.00      65.74       1.70       0.01       0.66       ----

> <Gold.Chemscore.Fitness>
20.5756

> <Gold.Chemscore.DG>
-21.2473

> <Gold.Chemscore.ZeroCoef>
-5.4800

> <Gold.Chemscore.Hbond>
3.7239

> <Gold.Chemscore.Metal>
0.0000

> <Gold.Chemscore.Lipo>
65.7365

> <Gold.Chemscore.Internal_Hbond>
0.0000

> <Gold.Chemscore.DEClash>
0.0095

> <Gold.Chemscore.DEInternal>
0.6622

> <Gold.Chemscore.Rot>
1.7038

> <Gold.Chemscore.Internal.Correction>
   9.000000E+99

> <Gold.Chemscore.Hbonds>
donor molecule, donor type, donor heavy atom, donor atom, acceptor molecule, acceptor atom, score
      P1  H  6896  6907       L1    14  0.98
      P1  H  6931  6943       L1    10  0.91
      P1  H  6934  6947       L1    10  0.11
      P1  H 10752 10763       L1    17  0.95

> <Gold.Chemscore.Hbond.Weighted>
-12.4379

> <Gold.Chemscore.Metal.Weighted>
-0.0000

> <Gold.Chemscore.Lipo.Weighted>
-7.6912

> <Gold.Chemscore.Internal_Hbond.Weighted>
0.0000

> <Gold.Chemscore.DEClash.Weighted>
0.0095

> <Gold.Chemscore.DEInternal.Weighted>
0.6622

> <Gold.Chemscore.Rot.Weighted>
4.3618

> <Gold.Chemscore.Internal.Correction.Weighted>
   9.000000E+99

> <Gold.Protein.RotatedTorsions>
[ 6907 6896 6895 6894 ] final  -87.49 input  -60.11 | X-H torsion
[ 7974 7965 7964 7962 ] final  -41.30 input  175.53 | X-H torsion
[ 8008 7997 7996 7995 ] final  -29.18 input   59.86 | X-H torsion
[ 10167 10162 10161 10158 ] final  -13.77 input  -65.29 | X-H torsion
[ 10718 10713 10712 10709 ] final  142.67 input   66.30 | X-H torsion
[ 10763 10752 10751 10750 ] final  112.61 input  -60.55 | X-H torsion
[ 11005 11000 10999 10996 ] final -135.92 input  -57.11 | X-H torsion

> <Gold.Protein.ActiveResidues>
 VAL166  LYS551  ARG553  GLY616  TRP617  ASP618  TYR619  PRO620  LYS621  CYS622 
 ASP623  PHE694  ASN695  SER759  ASP760  ASP761  ALA762  ILE779  LEU786  VAL792 
 PHE793  MET794  SER795  GLU796  ALA797  LYS798  CYS799  TRP800  GLU811  SER814 

> <Gold.Protein.RotatedAtoms>
  150.6866  134.2887  159.4657 H   0  0  0  0  0  0  0  0  0  0  0  0  # atno 6907 bound_to 6896
  152.0795  134.9478  160.0583 H   0  0  0  0  0  0  0  0  0  0  0  0  # atno 6908 bound_to 6896
  152.0837  133.4130  159.4549 H   0  0  0  0  0  0  0  0  0  0  0  0  # atno 6909 bound_to 6896
  146.0224  140.6833  142.9172 H   0  0  0  0  0  0  0  0  0  0  0  0  # atno 7974 bound_to 7965
  154.4301  140.1825  156.1206 H   0  0  0  0  0  0  0  0  0  0  0  0  # atno 8008 bound_to 7997
  156.0146  140.3347  155.6950 H   0  0  0  0  0  0  0  0  0  0  0  0  # atno 8009 bound_to 7997
  155.6063  140.0645  157.2709 H   0  0  0  0  0  0  0  0  0  0  0  0  # atno 8010 bound_to 7997
  140.7188  143.5392  150.9429 H   0  0  0  0  0  0  0  0  0  0  0  0  # atno 10167 bound_to 10162
  157.3779  131.0988  151.0767 H   0  0  0  0  0  0  0  0  0  0  0  0  # atno 10718 bound_to 10713
  153.4803  135.3681  155.2438 H   0  0  0  0  0  0  0  0  0  0  0  0  # atno 10763 bound_to 10752
  154.8755  135.3953  154.3707 H   0  0  0  0  0  0  0  0  0  0  0  0  # atno 10764 bound_to 10752
  153.4310  135.7082  153.6296 H   0  0  0  0  0  0  0  0  0  0  0  0  # atno 10765 bound_to 10752
  140.8853  134.1880  157.4564 H   0  0  0  0  0  0  0  0  0  0  0  0  # atno 11005 bound_to 11000
  144.6995  140.3590  143.7167 LP  0  0  0  0  0  0  0  0  0  0  0  0  # atno 17320 bound_to 7965
  145.7172  139.1700  143.2505 LP  0  0  0  0  0  0  0  0  0  0  0  0  # atno 17321 bound_to 7965
  139.9114  143.6716  152.3114 LP  0  0  0  0  0  0  0  0  0  0  0  0  # atno 17342 bound_to 10162
  139.7100  144.7622  151.1128 LP  0  0  0  0  0  0  0  0  0  0  0  0  # atno 17343 bound_to 10162
  157.1847  130.6325  149.5684 LP  0  0  0  0  0  0  0  0  0  0  0  0  # atno 17370 bound_to 10713
  155.9769  130.4742  150.6559 LP  0  0  0  0  0  0  0  0  0  0  0  0  # atno 17371 bound_to 10713
  139.8724  134.9835  156.5201 LP  0  0  0  0  0  0  0  0  0  0  0  0  # atno 17394 bound_to 11000
  140.8412  133.8204  155.9077 LP  0  0  0  0  0  0  0  0  0  0  0  0  # atno 17395 bound_to 11000

$$$$
