AV-unprocessed.smi:1576|AV-procd|sdf|6344|dock1
  -GOLD-   22720 6563D 1   1.00000     0.00000
 Structure written by MMmdl.
 45 47  0  0  0  0  0  0  0  0  1 V2000
  146.6767  139.4061  154.1049 O   0  0  0  0  0  0  0  0  0  0  0  0
  147.4692  138.7139  153.4670 C   0  0  0  0  0  0  0  0  0  0  0  0
  148.8039  138.7084  153.6258 N   0  0  0  0  0  0  0  0  0  0  0  0
  149.5975  139.4816  154.5165 C   0  0  0  0  0  0  0  0  0  0  0  0
  150.8902  139.1180  154.9603 C   0  0  0  0  0  0  0  0  0  0  0  0
  151.5666  139.9660  155.8583 C   0  0  0  0  0  0  0  0  0  0  0  0
  150.9361  141.1528  156.3001 C   0  0  0  0  0  0  0  0  0  0  0  0
  151.5989  142.0160  157.1994 N   0  0  0  0  0  0  0  0  0  0  0  0
  151.8102  141.4779  158.5447 C   0  0  0  0  0  0  0  0  0  0  0  0
  152.8708  142.2900  159.3079 C   0  0  0  0  0  0  0  0  0  0  0  0
  152.5210  143.7855  159.3181 C   0  0  0  0  0  0  0  0  0  0  0  0
  152.3196  144.2874  157.8809 C   0  0  0  0  0  0  0  0  0  0  0  0
  151.2678  143.4422  157.1425 C   0  0  0  0  0  0  0  0  0  0  0  0
  149.6936  141.4936  155.8787 N   0  0  0  0  0  0  0  0  0  0  0  0
  149.0485  140.6776  155.0197 C   0  0  0  0  0  0  0  0  0  0  0  0
  147.0913  137.8428  152.5205 N   0  0  0  0  0  0  0  0  0  0  0  0
  145.7108  137.5880  152.1191 C   0  0  1  0  0  0  0  0  0  0  0  0
  145.5807  136.3289  151.2372 C   0  0  0  0  0  0  0  0  0  0  0  0
  144.1029  135.9237  151.1743 C   0  0  0  0  0  0  0  0  0  0  0  0
  143.3679  136.4303  152.7748 S   0  0  0  0  0  0  0  0  0  0  0  0
  142.2416  137.3400  152.5160 O   0  0  0  0  0  0  0  0  0  0  0  0
  143.2054  135.2509  153.6384 O   0  0  0  0  0  0  0  0  0  0  0  0
  144.8144  137.3970  153.3509 C   0  0  0  0  0  0  0  0  0  0  0  0
  149.3113  138.0287  153.0784 H   0  0  0  0  0  0  0  0  0  0  0  0
  151.3733  138.2076  154.6426 H   0  0  0  0  0  0  0  0  0  0  0  0
  152.5609  139.7036  156.1881 H   0  0  0  0  0  0  0  0  0  0  0  0
  150.8620  141.5096  159.0829 H   0  0  0  0  0  0  0  0  0  0  0  0
  152.1173  140.4332  158.5184 H   0  0  0  0  0  0  0  0  0  0  0  0
  152.9596  141.9196  160.3294 H   0  0  0  0  0  0  0  0  0  0  0  0
  153.8458  142.1462  158.8403 H   0  0  0  0  0  0  0  0  0  0  0  0
  151.6104  143.9471  159.8962 H   0  0  0  0  0  0  0  0  0  0  0  0
  153.3106  144.3545  159.8096 H   0  0  0  0  0  0  0  0  0  0  0  0
  152.0182  145.3351  157.8879 H   0  0  0  0  0  0  0  0  0  0  0  0
  153.2671  144.2408  157.3425 H   0  0  0  0  0  0  0  0  0  0  0  0
  151.2100  143.7745  156.1051 H   0  0  0  0  0  0  0  0  0  0  0  0
  150.2840  143.5989  157.5872 H   0  0  0  0  0  0  0  0  0  0  0  0
  148.0602  140.9956  154.7208 H   0  0  0  0  0  0  0  0  0  0  0  0
  147.8088  137.3117  152.0492 H   0  0  0  0  0  0  0  0  0  0  0  0
  145.3316  138.4441  151.5574 H   0  0  0  0  0  0  0  0  0  0  0  0
  145.9921  136.4846  150.2394 H   0  0  0  0  0  0  0  0  0  0  0  0
  146.1466  135.5137  151.6903 H   0  0  0  0  0  0  0  0  0  0  0  0
  143.5876  136.4670  150.3820 H   0  0  0  0  0  0  0  0  0  0  0  0
  143.9601  134.8550  151.0135 H   0  0  0  0  0  0  0  0  0  0  0  0
  145.3167  136.8104  154.1207 H   0  0  0  0  0  0  0  0  0  0  0  0
  144.4858  138.3393  153.7900 H   0  0  0  0  0  0  0  0  0  0  0  0
  1  2  2  0  0  0  0
  2  3  1  0  0  0  0
  2 16  1  0  0  0  0
  3  4  1  0  0  0  0
  3 24  1  0  0  0  0
  4 15  1  0  0  0  0
  4  5  2  0  0  0  0
  5  6  1  0  0  0  0
  5 25  1  0  0  0  0
  6  7  2  0  0  0  0
  6 26  1  0  0  0  0
  7  8  1  0  0  0  0
  7 14  1  0  0  0  0
  8 13  1  0  0  0  0
  8  9  1  0  0  0  0
  9 10  1  0  0  0  0
  9 27  1  0  0  0  0
  9 28  1  0  0  0  0
 10 11  1  0  0  0  0
 10 29  1  0  0  0  0
 10 30  1  0  0  0  0
 11 12  1  0  0  0  0
 11 31  1  0  0  0  0
 11 32  1  0  0  0  0
 12 13  1  0  0  0  0
 12 33  1  0  0  0  0
 12 34  1  0  0  0  0
 13 35  1  0  0  0  0
 13 36  1  0  0  0  0
 14 15  2  0  0  0  0
 15 37  1  0  0  0  0
 16 17  1  0  0  0  0
 16 38  1  0  0  0  0
 17 23  1  0  0  0  0
 17 18  1  0  0  0  0
 17 39  1  0  0  0  0
 18 19  1  0  0  0  0
 18 40  1  0  0  0  0
 18 41  1  0  0  0  0
 19 20  1  0  0  0  0
 19 42  1  0  0  0  0
 19 43  1  0  0  0  0
 20 21  2  0  0  0  0
 20 22  2  0  0  0  0
 20 23  1  0  0  0  0
 23 44  1  0  0  0  0
 23 45  1  0  0  0  0
M  END
> <s_m_source_file>
AV-unprocessed.smi

> <i_m_source_file_index>
1576

> <i_lp_mmshare_version>
43012

> <i_f3d_flags>
0

> <s_epik_input>
Tz1TMSg9TylbQ0gyXVtDSDJdW0NASF0oW0NIMl0xKVtOSF1DKD1PKVtOSF1jMltjSF1bY0hdYyhuW2NIXTIpTjNbQ0gyXVtDSDJdW0NIMl1bQ0gyXVtDSDJdMw==

> <s_epik_cmdline>
J2VwaWtfcHl0aG9uJywgJy1waCcsICc3LjAnLCAnLXRuJywgJzgnLCAnLW1hJywgJzIwMCcsICctbWV0YWxfYmluZGluZycsICctaW1hZScsICc8aW5maWxlLm1hZT4nLCAnLW9tYWUnLCAnPG91dGZpbGUubWFlPic=

> <r_lp_tautomer_probability>
1

> <r_epik_Ionization_Penalty>
0.0900267

> <r_epik_Ionization_Penalty_Charging>
0

> <r_epik_Ionization_Penalty_Neutral>
0.0900267

> <r_epik_State_Penalty>
0.0748882

> <r_epik_Charging_Adjusted_Penalty>
0.0748882

> <i_epik_Tot_Q>
0

> <i_epik_Tot_abs_Q>
0

> <r_epik_Metal_State_Penalty>
0.0662821

> <b_epik_Metal_Only>
0

> <s_lp_Force_Field>
OPLS_2005

> <r_lp_Energy>
22.1821

> <b_lp_Chiralities_Consistent>
1

> <s_lp_Variant>
AV-unprocessed.smi:1576-2

> <Gold.Version>
5.8.1

> <Gold.Id.Protein>
6NUR|6NUR_protein|mol2

> <Gold.PLP.Fitness>
44.6628

> <Gold.PLP.PLP>
-41.1799

> <Gold.PLP.part.hbond>
-2.9625

> <Gold.PLP.part.metal>
0.0000

> <Gold.PLP.part.buried>
-1.5495

> <Gold.PLP.part.nonpolar>
-38.4418

> <Gold.PLP.part.repulsive>
0.6775

> <Gold.PLP.ligand.clash>
0.0000

> <Gold.PLP.ligand.torsion>
0.6768

> <Gold.PLP.Chemscore.Hbond>
1.4714

> <Gold.PLP.Chemscore.CHOScore>
0.0000

> <Gold.PLP.Chemscore.Metal>
0.0000

> <Gold.Chemscore.Hbonds>
donor molecule, donor type, donor heavy atom, donor atom, acceptor molecule, acceptor atom, score
      L1  H     3    24       P1  7948  0.55
      L1  H    16    38       P1  7948  1.00

> <Gold.PLP.Chemscore.Internal.Correction>
0.4224

> <Gold.Rescore>
     Score         DG    S(hbond)    S(metal)    S(lipo)     H(rot)  DE(clash)    DE(int)     intcor
     16.44     -20.00       1.80        0.00      99.89       1.24       0.34       3.22       ----

> <Gold.Chemscore.Fitness>
16.4413

> <Gold.Chemscore.DG>
-20.0048

> <Gold.Chemscore.ZeroCoef>
-5.4800

> <Gold.Chemscore.Hbond>
1.7973

> <Gold.Chemscore.Metal>
0.0000

> <Gold.Chemscore.Lipo>
99.8942

> <Gold.Chemscore.Internal_Hbond>
0.0000

> <Gold.Chemscore.DEClash>
0.3441

> <Gold.Chemscore.DEInternal>
3.2194

> <Gold.Chemscore.Rot>
1.2366

> <Gold.Chemscore.Internal.Correction>
   9.000000E+99

> <Gold.Chemscore.Hbonds>
donor molecule, donor type, donor heavy atom, donor atom, acceptor molecule, acceptor atom, score
      L1  H     3    24       P1  7948  0.54
      L1  H    16    38       P1  7948  0.96

> <Gold.Chemscore.Hbond.Weighted>
-6.0029

> <Gold.Chemscore.Metal.Weighted>
-0.0000

> <Gold.Chemscore.Lipo.Weighted>
-11.6876

> <Gold.Chemscore.Internal_Hbond.Weighted>
0.0000

> <Gold.Chemscore.DEClash.Weighted>
0.3441

> <Gold.Chemscore.DEInternal.Weighted>
3.2194

> <Gold.Chemscore.Rot.Weighted>
3.1657

> <Gold.Chemscore.Internal.Correction.Weighted>
   9.000000E+99

> <Gold.Protein.RotatedTorsions>
[ 6907 6896 6895 6894 ] final  130.02 input  -60.11 | X-H torsion
[ 7974 7965 7964 7962 ] final   -0.67 input  175.53 | X-H torsion
[ 8008 7997 7996 7995 ] final   17.07 input   59.86 | X-H torsion
[ 10167 10162 10161 10158 ] final  -77.07 input  -65.29 | X-H torsion
[ 10718 10713 10712 10709 ] final  -16.67 input   66.30 | X-H torsion
[ 10763 10752 10751 10750 ] final   49.02 input  -60.55 | X-H torsion
[ 11005 11000 10999 10996 ] final   37.54 input  -57.11 | X-H torsion

> <Gold.Protein.ActiveResidues>
 VAL166  LYS551  ARG553  GLY616  TRP617  ASP618  TYR619  PRO620  LYS621  CYS622 
 ASP623  PHE694  ASN695  SER759  ASP760  ASP761  ALA762  ILE779  LEU786  VAL792 
 PHE793  MET794  SER795  GLU796  ALA797  LYS798  CYS799  TRP800  GLU811  SER814 

> <Gold.Protein.RotatedAtoms>
  152.3567  133.6246  159.5984 H   0  0  0  0  0  0  0  0  0  0  0  0  # atno 6907 bound_to 6896
  150.7573  133.9488  159.3488 H   0  0  0  0  0  0  0  0  0  0  0  0  # atno 6908 bound_to 6896
  151.7332  135.0871  160.0355 H   0  0  0  0  0  0  0  0  0  0  0  0  # atno 6909 bound_to 6896
  146.2425  140.1304  142.8338 H   0  0  0  0  0  0  0  0  0  0  0  0  # atno 7974 bound_to 7965
  154.8861  140.2980  155.5397 H   0  0  0  0  0  0  0  0  0  0  0  0  # atno 8008 bound_to 7997
  156.3021  140.2433  156.3804 H   0  0  0  0  0  0  0  0  0  0  0  0  # atno 8009 bound_to 7997
  154.8667  140.0403  157.1688 H   0  0  0  0  0  0  0  0  0  0  0  0  # atno 8010 bound_to 7997
  140.4802  143.2404  151.8069 H   0  0  0  0  0  0  0  0  0  0  0  0  # atno 10167 bound_to 10162
  156.5843  130.4782  149.6306 H   0  0  0  0  0  0  0  0  0  0  0  0  # atno 10718 bound_to 10713
  152.9788  135.5925  154.4021 H   0  0  0  0  0  0  0  0  0  0  0  0  # atno 10763 bound_to 10752
  154.3666  135.2767  155.2292 H   0  0  0  0  0  0  0  0  0  0  0  0  # atno 10764 bound_to 10752
  154.4266  135.6046  153.6097 H   0  0  0  0  0  0  0  0  0  0  0  0  # atno 10765 bound_to 10752
  140.2215  134.3635  155.8003 H   0  0  0  0  0  0  0  0  0  0  0  0  # atno 11005 bound_to 11000
  145.0331  140.8886  143.5098 LP  0  0  0  0  0  0  0  0  0  0  0  0  # atno 17320 bound_to 7965
  145.1372  139.2595  143.5509 LP  0  0  0  0  0  0  0  0  0  0  0  0  # atno 17321 bound_to 7965
  139.4832  144.4782  151.9341 LP  0  0  0  0  0  0  0  0  0  0  0  0  # atno 17342 bound_to 10162
  140.3867  144.2668  150.5903 LP  0  0  0  0  0  0  0  0  0  0  0  0  # atno 17343 bound_to 10162
  156.2604  130.6959  151.1726 LP  0  0  0  0  0  0  0  0  0  0  0  0  # atno 17370 bound_to 10713
  157.7319  131.0604  150.5655 LP  0  0  0  0  0  0  0  0  0  0  0  0  # atno 17371 bound_to 10713
  141.2223  133.7196  156.8583 LP  0  0  0  0  0  0  0  0  0  0  0  0  # atno 17394 bound_to 11000
  140.1845  134.9010  157.2988 LP  0  0  0  0  0  0  0  0  0  0  0  0  # atno 17395 bound_to 11000

$$$$
