AV-unprocessed.smi:2635|AV-procd|sdf|10256|dock3
  -GOLD-   2272014263D 1   1.00000     0.00000
 Structure written by MMmdl.
 31 32  0  0  0  0  0  0  0  0  2 V2000
  147.6525  141.3191  153.9804 C   0  0  0  0  0  0  0  0  0  0  0  0
  148.9617  140.8660  154.6004 C   0  0  0  0  0  0  0  0  0  0  0  0
  149.7466  141.6878  155.3276 C   0  0  0  0  0  0  0  0  0  0  0  0
  150.9567  141.2576  155.8964 N   0  0  0  0  0  0  0  0  0  0  0  0
  151.7645  142.2171  156.6298 C   0  0  0  0  0  0  0  0  0  0  0  0
  150.9527  142.8973  157.5305 O   0  0  0  0  0  0  0  0  0  0  0  0
  151.6374  143.9292  158.2214 C   0  0  0  0  0  0  0  0  0  0  0  0
  152.2334  143.4307  159.5230 C   0  0  0  0  0  0  0  0  0  0  0  0
  151.9400  144.0947  160.7328 C   0  0  0  0  0  0  0  0  0  0  0  0
  152.5032  143.6439  161.9427 C   0  0  0  0  0  0  0  0  0  0  0  0
  153.3645  142.5296  161.9470 C   0  0  0  0  0  0  0  0  0  0  0  0
  153.6644  141.8677  160.7405 C   0  0  0  0  0  0  0  0  0  0  0  0
  153.1025  142.3189  159.5301 C   0  0  0  0  0  0  0  0  0  0  0  0
  151.4006  139.9821  155.6899 C   0  0  0  0  0  0  0  0  0  0  0  0
  152.4835  139.6367  156.1654 O   0  0  0  0  0  0  0  0  0  0  0  0
  150.6164  139.1285  154.9629 N   0  5  0  0  0  0  0  0  0  0  0  0
  149.4208  139.4876  154.4097 C   0  0  0  0  0  0  0  0  0  0  0  0
  148.7300  138.6994  153.7647 O   0  0  0  0  0  0  0  0  0  0  0  0
  147.4399  142.3598  154.2267 H   0  0  0  0  0  0  0  0  0  0  0  0
  146.8258  140.7090  154.3455 H   0  0  0  0  0  0  0  0  0  0  0  0
  147.6947  141.2293  152.8945 H   0  0  0  0  0  0  0  0  0  0  0  0
  149.4973  142.7222  155.5133 H   0  0  0  0  0  0  0  0  0  0  0  0
  152.5606  141.6934  157.1611 H   0  0  0  0  0  0  0  0  0  0  0  0
  152.2253  142.9059  155.9183 H   0  0  0  0  0  0  0  0  0  0  0  0
  152.4256  144.3379  157.5871 H   0  0  0  0  0  0  0  0  0  0  0  0
  150.9490  144.7440  158.4508 H   0  0  0  0  0  0  0  0  0  0  0  0
  151.2813  144.9512  160.7339 H   0  0  0  0  0  0  0  0  0  0  0  0
  152.2753  144.1532  162.8673 H   0  0  0  0  0  0  0  0  0  0  0  0
  153.7961  142.1840  162.8747 H   0  0  0  0  0  0  0  0  0  0  0  0
  154.3262  141.0145  160.7427 H   0  0  0  0  0  0  0  0  0  0  0  0
  153.3398  141.8068  158.6093 H   0  0  0  0  0  0  0  0  0  0  0  0
  1  2  1  0  0  0  0
  1 19  1  0  0  0  0
  1 20  1  0  0  0  0
  1 21  1  0  0  0  0
  2 17  1  0  0  0  0
  2  3  2  0  0  0  0
  3  4  1  0  0  0  0
  3 22  1  0  0  0  0
  4  5  1  0  0  0  0
  4 14  1  0  0  0  0
  5  6  1  0  0  0  0
  5 23  1  0  0  0  0
  5 24  1  0  0  0  0
  6  7  1  0  0  0  0
  7  8  1  0  0  0  0
  7 25  1  0  0  0  0
  7 26  1  0  0  0  0
  8 13  1  0  0  0  0
  8  9  2  0  0  0  0
  9 10  1  0  0  0  0
  9 27  1  0  0  0  0
 10 11  2  0  0  0  0
 10 28  1  0  0  0  0
 11 12  1  0  0  0  0
 11 29  1  0  0  0  0
 12 13  2  0  0  0  0
 12 30  1  0  0  0  0
 13 31  1  0  0  0  0
 14 15  2  0  0  0  0
 14 16  1  0  0  0  0
 16 17  1  0  0  0  0
 17 18  2  0  0  0  0
M  CHG  1  16  -1
M  END
> <s_m_source_file>
AV-unprocessed.smi

> <i_m_source_file_index>
2635

> <i_lp_mmshare_version>
43012

> <i_f3d_flags>
0

> <s_epik_input>
Tz1jMVtuSF1jKD1PKW4oW2NIXWMxW0NIM10pW0NIMl1PW0NIMl1jMltjSF1bY0hdW2NIXVtjSF1bY0hdMg==

> <s_epik_cmdline>
J2VwaWtfcHl0aG9uJywgJy1waCcsICc3LjAnLCAnLXRuJywgJzgnLCAnLW1hJywgJzIwMCcsICctbWV0YWxfYmluZGluZycsICctaW1hZScsICc8aW5maWxlLm1hZT4nLCAnLW9tYWUnLCAnPG91dGZpbGUubWFlPic=

> <r_lp_tautomer_probability>
0.999537

> <r_epik_Ionization_Penalty>
3.41553

> <r_epik_Ionization_Penalty_Charging>
6.94296e-08

> <r_epik_Ionization_Penalty_Neutral>
3.41553

> <r_epik_State_Penalty>
3.41493

> <r_epik_Charging_Adjusted_Penalty>
3.41493

> <i_epik_Tot_Q>
-1

> <i_epik_Tot_abs_Q>
1

> <r_epik_Metal_State_Penalty>
0.16353

> <b_epik_Metal_Only>
1

> <s_epik_Chemistry_Notes>
This compound contains an acetal/aminal-like group ( X-CH(R)-Y where X, Y are N, S, or O) that may be acid/base labile, releasing an aldehyde.

> <s_lp_Force_Field>
OPLS_2005

> <r_lp_Energy>
15.2245

> <b_lp_Chiralities_Consistent>
1

> <s_lp_Variant>
AV-unprocessed.smi:2635-2

> <Gold.Version>
5.8.1

> <Gold.Id.Protein>
6NUR|6NUR_protein|mol2

> <Gold.PLP.Fitness>
50.1512

> <Gold.PLP.PLP>
-44.9223

> <Gold.PLP.part.hbond>
-1.0000

> <Gold.PLP.part.metal>
0.0000

> <Gold.PLP.part.buried>
-5.7861

> <Gold.PLP.part.nonpolar>
-36.3804

> <Gold.PLP.part.repulsive>
0.8139

> <Gold.PLP.ligand.clash>
0.0000

> <Gold.PLP.ligand.torsion>
0.3955

> <Gold.PLP.Chemscore.Hbond>
1.0000

> <Gold.PLP.Chemscore.CHOScore>
1.0000

> <Gold.PLP.Chemscore.Metal>
0.0000

> <Gold.Chemscore.Hbonds>
donor molecule, donor type, donor heavy atom, donor atom, acceptor molecule, acceptor atom, score
      P1  H  7997  8010       L1    15  1.00
      L1  C     3    22       P1  8028  1.00

> <Gold.PLP.Chemscore.Internal.Correction>
0.0199

> <Gold.Rescore>
     Score         DG    S(hbond)    S(metal)    S(lipo)     H(rot)  DE(clash)    DE(int)     intcor
     14.34     -16.27       1.00        0.00     105.28       1.90       1.60       0.33       ----

> <Gold.Chemscore.Fitness>
14.3417

> <Gold.Chemscore.DG>
-16.2690

> <Gold.Chemscore.ZeroCoef>
-5.4800

> <Gold.Chemscore.Hbond>
0.9988

> <Gold.Chemscore.Metal>
0.0000

> <Gold.Chemscore.Lipo>
105.2827

> <Gold.Chemscore.Internal_Hbond>
0.0000

> <Gold.Chemscore.DEClash>
1.5971

> <Gold.Chemscore.DEInternal>
0.3302

> <Gold.Chemscore.Rot>
1.9004

> <Gold.Chemscore.Internal.Correction>
   9.000000E+99

> <Gold.Chemscore.Hbonds>
donor molecule, donor type, donor heavy atom, donor atom, acceptor molecule, acceptor atom, score
      P1  H  7997  8010       L1    15  0.99

> <Gold.Chemscore.Hbond.Weighted>
-3.3361

> <Gold.Chemscore.Metal.Weighted>
-0.0000

> <Gold.Chemscore.Lipo.Weighted>
-12.3181

> <Gold.Chemscore.Internal_Hbond.Weighted>
0.0000

> <Gold.Chemscore.DEClash.Weighted>
1.5971

> <Gold.Chemscore.DEInternal.Weighted>
0.3302

> <Gold.Chemscore.Rot.Weighted>
4.8651

> <Gold.Chemscore.Internal.Correction.Weighted>
   9.000000E+99

> <Gold.Protein.RotatedTorsions>
[ 6907 6896 6895 6894 ] final   87.47 input  -60.11 | X-H torsion
[ 7974 7965 7964 7962 ] final  143.85 input  175.53 | X-H torsion
[ 8008 7997 7996 7995 ] final   85.24 input   59.86 | X-H torsion
[ 10167 10162 10161 10158 ] final   34.36 input  -65.29 | X-H torsion
[ 10718 10713 10712 10709 ] final  -24.95 input   66.30 | X-H torsion
[ 10763 10752 10751 10750 ] final -141.34 input  -60.55 | X-H torsion
[ 11005 11000 10999 10996 ] final -108.41 input  -57.11 | X-H torsion

> <Gold.Protein.ActiveResidues>
 VAL166  LYS551  ARG553  GLY616  TRP617  ASP618  TYR619  PRO620  LYS621  CYS622 
 ASP623  PHE694  ASN695  SER759  ASP760  ASP761  ALA762  ILE779  LEU786  VAL792 
 PHE793  MET794  SER795  GLU796  ALA797  LYS798  CYS799  TRP800  GLU811  SER814 

> <Gold.Protein.RotatedAtoms>
  152.5411  134.2272  159.8810 H   0  0  0  0  0  0  0  0  0  0  0  0  # atno 6907 bound_to 6896
  151.2245  133.4477  159.2609 H   0  0  0  0  0  0  0  0  0  0  0  0  # atno 6908 bound_to 6896
  151.0773  134.9849  159.8394 H   0  0  0  0  0  0  0  0  0  0  0  0  # atno 6909 bound_to 6896
  144.8886  139.5592  143.5809 H   0  0  0  0  0  0  0  0  0  0  0  0  # atno 7974 bound_to 7965
  155.9475  140.3403  155.6379 H   0  0  0  0  0  0  0  0  0  0  0  0  # atno 8008 bound_to 7997
  155.6962  140.0755  157.2447 H   0  0  0  0  0  0  0  0  0  0  0  0  # atno 8009 bound_to 7997
  154.4115  140.1648  156.2128 H   0  0  0  0  0  0  0  0  0  0  0  0  # atno 8010 bound_to 7997
  140.4322  144.1308  150.6161 H   0  0  0  0  0  0  0  0  0  0  0  0  # atno 10167 bound_to 10162
  156.4708  130.4524  149.6870 H   0  0  0  0  0  0  0  0  0  0  0  0  # atno 10718 bound_to 10713
  154.8548  135.3527  154.5852 H   0  0  0  0  0  0  0  0  0  0  0  0  # atno 10763 bound_to 10752
  153.6462  135.6996  153.5229 H   0  0  0  0  0  0  0  0  0  0  0  0  # atno 10764 bound_to 10752
  153.2930  135.4229  155.1143 H   0  0  0  0  0  0  0  0  0  0  0  0  # atno 10765 bound_to 10752
  141.0903  133.9066  157.2091 H   0  0  0  0  0  0  0  0  0  0  0  0  # atno 11005 bound_to 11000
  146.3039  139.7517  142.9070 LP  0  0  0  0  0  0  0  0  0  0  0  0  # atno 17320 bound_to 7965
  145.3825  141.0360  143.3170 LP  0  0  0  0  0  0  0  0  0  0  0  0  # atno 17321 bound_to 7965
  140.4414  143.2525  151.9468 LP  0  0  0  0  0  0  0  0  0  0  0  0  # atno 17342 bound_to 10162
  139.4785  144.5650  151.8178 LP  0  0  0  0  0  0  0  0  0  0  0  0  # atno 17343 bound_to 10162
  156.3620  130.7486  151.2459 LP  0  0  0  0  0  0  0  0  0  0  0  0  # atno 17370 bound_to 10713
  157.7491  131.0347  150.4331 LP  0  0  0  0  0  0  0  0  0  0  0  0  # atno 17371 bound_to 10713
  139.9728  135.0123  156.9555 LP  0  0  0  0  0  0  0  0  0  0  0  0  # atno 17394 bound_to 11000
  140.5267  134.0853  155.7305 LP  0  0  0  0  0  0  0  0  0  0  0  0  # atno 17395 bound_to 11000

$$$$
