AV-unprocessed.smi:1923|AV-procd|sdf|7790|dock1
  -GOLD-   22720 9533D 1   1.00000     0.00000
 Structure written by MMmdl.
 55 57  0  0  0  0  0  0  0  0  2 V2000
  145.1186  131.9793  152.2120 C   0  0  0  0  0  0  0  0  0  0  0  0
  146.3747  132.7298  151.7361 C   0  0  2  0  0  0  0  0  0  0  0  0
  147.1575  133.3751  152.8938 C   0  0  0  0  0  0  0  0  0  0  0  0
  146.4532  134.6271  153.4470 C   0  0  0  0  0  0  0  0  0  0  0  0
  146.1995  135.6222  152.3732 N   0  3  2  0  0  0  0  0  0  0  0  0
  145.6464  136.8935  152.9047 C   0  0  0  0  0  0  0  0  0  0  0  0
  146.0265  138.1075  152.0345 C   0  0  0  0  0  0  0  0  0  0  0  0
  147.3273  138.6525  152.4063 N   0  0  0  0  0  0  0  0  0  0  0  0
  147.6301  139.1682  153.6062 C   0  0  0  0  0  0  0  0  0  0  0  0
  146.8324  139.2105  154.5424 O   0  0  0  0  0  0  0  0  0  0  0  0
  148.9016  139.6034  153.6405 N   0  0  0  0  0  0  0  0  0  0  0  0
  149.6051  140.2289  154.7064 C   0  0  0  0  0  0  0  0  0  0  0  0
  150.9452  139.9481  155.0613 C   0  0  0  0  0  0  0  0  0  0  0  0
  151.5190  140.6274  156.1532 C   0  0  0  0  0  0  0  0  0  0  0  0
  150.7432  141.5672  156.8720 C   0  0  0  0  0  0  0  0  0  0  0  0
  151.3001  142.2593  157.9699 N   0  0  0  0  0  0  0  0  0  0  0  0
  152.3789  141.6102  158.7135 C   0  0  0  0  0  0  0  0  0  0  0  0
  152.6603  142.3665  160.0229 C   0  0  0  0  0  0  0  0  0  0  0  0
  152.9357  143.7337  159.7371 O   0  0  0  0  0  0  0  0  0  0  0  0
  151.8290  144.3767  159.1140 C   0  0  0  0  0  0  0  0  0  0  0  0
  151.5136  143.6912  157.7731 C   0  0  0  0  0  0  0  0  0  0  0  0
  149.4578  141.8301  156.5313 N   0  0  0  0  0  0  0  0  0  0  0  0
  148.9106  141.1748  155.4866 C   0  0  0  0  0  0  0  0  0  0  0  0
  145.3838  135.0419  151.2732 C   0  0  0  0  0  0  0  0  0  0  0  0
  146.0634  133.7979  150.6721 C   0  0  0  0  0  0  0  0  0  0  0  0
  144.4005  132.6413  152.6950 H   0  0  0  0  0  0  0  0  0  0  0  0
  145.3786  131.1982  152.9268 H   0  0  0  0  0  0  0  0  0  0  0  0
  144.6117  131.4988  151.3748 H   0  0  0  0  0  0  0  0  0  0  0  0
  147.0228  131.9833  151.2750 H   0  0  0  0  0  0  0  0  0  0  0  0
  147.3171  132.6506  153.6930 H   0  0  0  0  0  0  0  0  0  0  0  0
  148.1504  133.6562  152.5397 H   0  0  0  0  0  0  0  0  0  0  0  0
  145.5122  134.3574  153.9285 H   0  0  0  0  0  0  0  0  0  0  0  0
  147.0828  135.0723  154.2184 H   0  0  0  0  0  0  0  0  0  0  0  0
  144.5639  136.8044  153.0091 H   0  0  0  0  0  0  0  0  0  0  0  0
  146.0377  137.0656  153.9085 H   0  0  0  0  0  0  0  0  0  0  0  0
  146.0726  137.8113  150.9864 H   0  0  0  0  0  0  0  0  0  0  0  0
  145.2788  138.8982  152.1000 H   0  0  0  0  0  0  0  0  0  0  0  0
  148.0434  138.6528  151.6943 H   0  0  0  0  0  0  0  0  0  0  0  0
  149.4490  139.4339  152.8094 H   0  0  0  0  0  0  0  0  0  0  0  0
  151.5431  139.2239  154.5315 H   0  0  0  0  0  0  0  0  0  0  0  0
  152.5469  140.4275  156.4165 H   0  0  0  0  0  0  0  0  0  0  0  0
  152.1110  140.5782  158.9439 H   0  0  0  0  0  0  0  0  0  0  0  0
  153.2787  141.5852  158.0973 H   0  0  0  0  0  0  0  0  0  0  0  0
  151.8136  142.2894  160.7070 H   0  0  0  0  0  0  0  0  0  0  0  0
  153.5201  141.9294  160.5307 H   0  0  0  0  0  0  0  0  0  0  0  0
  150.9617  144.3543  159.7760 H   0  0  0  0  0  0  0  0  0  0  0  0
  152.0758  145.4257  158.9493 H   0  0  0  0  0  0  0  0  0  0  0  0
  152.3439  143.8300  157.0796 H   0  0  0  0  0  0  0  0  0  0  0  0
  150.6449  144.1723  157.3264 H   0  0  0  0  0  0  0  0  0  0  0  0
  147.8818  141.4187  155.2650 H   0  0  0  0  0  0  0  0  0  0  0  0
  144.3898  134.7911  151.6456 H   0  0  0  0  0  0  0  0  0  0  0  0
  145.2405  135.7757  150.4810 H   0  0  0  0  0  0  0  0  0  0  0  0
  146.9934  134.1023  150.1898 H   0  0  0  0  0  0  0  0  0  0  0  0
  145.4398  133.3749  149.8837 H   0  0  0  0  0  0  0  0  0  0  0  0
  147.1035  135.8460  151.9821 H   0  0  0  0  0  0  0  0  0  0  0  0
  1  2  1  0  0  0  0
  1 26  1  0  0  0  0
  1 27  1  0  0  0  0
  1 28  1  0  0  0  0
  2 25  1  0  0  0  0
  2  3  1  0  0  0  0
  2 29  1  0  0  0  0
  3  4  1  0  0  0  0
  3 30  1  0  0  0  0
  3 31  1  0  0  0  0
  4  5  1  0  0  0  0
  4 32  1  0  0  0  0
  4 33  1  0  0  0  0
  5  6  1  0  0  0  0
  5 24  1  0  0  0  0
  5 55  1  0  0  0  0
  6  7  1  0  0  0  0
  6 34  1  0  0  0  0
  6 35  1  0  0  0  0
  7  8  1  0  0  0  0
  7 36  1  0  0  0  0
  7 37  1  0  0  0  0
  8  9  1  0  0  0  0
  8 38  1  0  0  0  0
  9 10  2  0  0  0  0
  9 11  1  0  0  0  0
 11 12  1  0  0  0  0
 11 39  1  0  0  0  0
 12 23  1  0  0  0  0
 12 13  2  0  0  0  0
 13 14  1  0  0  0  0
 13 40  1  0  0  0  0
 14 15  2  0  0  0  0
 14 41  1  0  0  0  0
 15 16  1  0  0  0  0
 15 22  1  0  0  0  0
 16 21  1  0  0  0  0
 16 17  1  0  0  0  0
 17 18  1  0  0  0  0
 17 42  1  0  0  0  0
 17 43  1  0  0  0  0
 18 19  1  0  0  0  0
 18 44  1  0  0  0  0
 18 45  1  0  0  0  0
 19 20  1  0  0  0  0
 20 21  1  0  0  0  0
 20 46  1  0  0  0  0
 20 47  1  0  0  0  0
 21 48  1  0  0  0  0
 21 49  1  0  0  0  0
 22 23  2  0  0  0  0
 23 50  1  0  0  0  0
 24 25  1  0  0  0  0
 24 51  1  0  0  0  0
 24 52  1  0  0  0  0
 25 53  1  0  0  0  0
 25 54  1  0  0  0  0
M  CHG  1   5   1
M  END
> <s_m_source_file>
AV-unprocessed.smi

> <i_m_source_file_index>
1923

> <i_lp_mmshare_version>
43012

> <i_f3d_flags>
0

> <s_epik_input>
W0NIM11bQ0hdMVtDSDJdW0NIMl1OKFtDSDJdW0NIMl0xKVtDSDJdW0NIMl1bTkhdQyg9TylbTkhdYzJbY0hdW2NIXWMobltjSF0yKU4zW0NIMl1bQ0gyXU9bQ0gyXVtDSDJdMw==

> <s_epik_cmdline>
J2VwaWtfcHl0aG9uJywgJy1waCcsICc3LjAnLCAnLXRuJywgJzgnLCAnLW1hJywgJzIwMCcsICctbWV0YWxfYmluZGluZycsICctaW1hZScsICc8aW5maWxlLm1hZT4nLCAnLW9tYWUnLCAnPG91dGZpbGUubWFlPic=

> <r_lp_tautomer_probability>
1

> <r_epik_Ionization_Penalty>
0.00307683

> <r_epik_Ionization_Penalty_Charging>
0.00139388

> <r_epik_Ionization_Penalty_Neutral>
0.00168296

> <r_epik_State_Penalty>
-0

> <r_epik_Charging_Adjusted_Penalty>
0.00139388

> <i_epik_Tot_Q>
1

> <i_epik_Tot_abs_Q>
1

> <r_epik_Metal_State_Penalty>
-0

> <b_epik_Metal_Only>
0

> <s_lp_Force_Field>
OPLS_2005

> <r_lp_Energy>
36.3694

> <b_lp_Chiralities_Consistent>
1

> <s_lp_Variant>
AV-unprocessed.smi:1923-2

> <Gold.Version>
5.8.1

> <Gold.Id.Protein>
6NUR|6NUR_protein|mol2

> <Gold.PLP.Fitness>
56.0273

> <Gold.PLP.PLP>
-48.0588

> <Gold.PLP.part.hbond>
-4.0000

> <Gold.PLP.part.metal>
0.0000

> <Gold.PLP.part.buried>
-3.2274

> <Gold.PLP.part.nonpolar>
-41.4885

> <Gold.PLP.part.repulsive>
0.7435

> <Gold.PLP.ligand.clash>
0.0000

> <Gold.PLP.ligand.torsion>
1.1880

> <Gold.PLP.Chemscore.Hbond>
3.3120

> <Gold.PLP.Chemscore.CHOScore>
0.0000

> <Gold.PLP.Chemscore.Metal>
0.0000

> <Gold.Chemscore.Hbonds>
donor molecule, donor type, donor heavy atom, donor atom, acceptor molecule, acceptor atom, score
      L1  H     5    55       P1  7948  2.00
      L1  H     8    38       P1  7957  0.55
      L1  H    11    39       P1  7957  0.80

> <Gold.PLP.Chemscore.Internal.Correction>
0.4085

> <Gold.Rescore>
     Score         DG    S(hbond)    S(metal)    S(lipo)     H(rot)  DE(clash)    DE(int)     intcor
     20.04     -23.44       2.70        0.00     111.33       1.60       0.53       2.87       ----

> <Gold.Chemscore.Fitness>
20.0357

> <Gold.Chemscore.DG>
-23.4371

> <Gold.Chemscore.ZeroCoef>
-5.4800

> <Gold.Chemscore.Hbond>
2.7010

> <Gold.Chemscore.Metal>
0.0000

> <Gold.Chemscore.Lipo>
111.3313

> <Gold.Chemscore.Internal_Hbond>
0.0000

> <Gold.Chemscore.DEClash>
0.5343

> <Gold.Chemscore.DEInternal>
2.8670

> <Gold.Chemscore.Rot>
1.5976

> <Gold.Chemscore.Internal.Correction>
   9.000000E+99

> <Gold.Chemscore.Hbonds>
donor molecule, donor type, donor heavy atom, donor atom, acceptor molecule, acceptor atom, score
      L1  H     5    55       P1  7948  1.00
      L1  H     8    38       P1  7957  0.38
      L1  H    11    39       P1  7957  0.80

> <Gold.Chemscore.Hbond.Weighted>
-9.0213

> <Gold.Chemscore.Metal.Weighted>
-0.0000

> <Gold.Chemscore.Lipo.Weighted>
-13.0258

> <Gold.Chemscore.Internal_Hbond.Weighted>
0.0000

> <Gold.Chemscore.DEClash.Weighted>
0.5343

> <Gold.Chemscore.DEInternal.Weighted>
2.8670

> <Gold.Chemscore.Rot.Weighted>
4.0899

> <Gold.Chemscore.Internal.Correction.Weighted>
   9.000000E+99

> <Gold.Protein.RotatedTorsions>
[ 6907 6896 6895 6894 ] final  170.81 input  -60.11 | X-H torsion
[ 7974 7965 7964 7962 ] final   88.86 input  175.53 | X-H torsion
[ 8008 7997 7996 7995 ] final  -83.58 input   59.86 | X-H torsion
[ 10167 10162 10161 10158 ] final -154.27 input  -65.29 | X-H torsion
[ 10718 10713 10712 10709 ] final  -36.68 input   66.30 | X-H torsion
[ 10763 10752 10751 10750 ] final   41.04 input  -60.55 | X-H torsion
[ 11005 11000 10999 10996 ] final -176.87 input  -57.11 | X-H torsion

> <Gold.Protein.ActiveResidues>
 VAL166  LYS551  ARG553  GLY616  TRP617  ASP618  TYR619  PRO620  LYS621  CYS622 
 ASP623  PHE694  ASN695  SER759  ASP760  ASP761  ALA762  ILE779  LEU786  VAL792 
 PHE793  MET794  SER795  GLU796  ALA797  LYS798  CYS799  TRP800  GLU811  SER814 

> <Gold.Protein.RotatedAtoms>
  151.8102  133.3381  159.3552 H   0  0  0  0  0  0  0  0  0  0  0  0  # atno 6907 bound_to 6896
  150.7329  134.5671  159.5881 H   0  0  0  0  0  0  0  0  0  0  0  0  # atno 6908 bound_to 6896
  152.3080  134.7532  160.0394 H   0  0  0  0  0  0  0  0  0  0  0  0  # atno 6909 bound_to 6896
  145.5401  139.2288  143.2571 H   0  0  0  0  0  0  0  0  0  0  0  0  # atno 7974 bound_to 7965
  154.6206  140.0617  156.9610 H   0  0  0  0  0  0  0  0  0  0  0  0  # atno 8008 bound_to 7997
  155.1823  140.3300  155.4354 H   0  0  0  0  0  0  0  0  0  0  0  0  # atno 8009 bound_to 7997
  156.2429  140.1895  156.6919 H   0  0  0  0  0  0  0  0  0  0  0  0  # atno 8010 bound_to 7997
  139.7027  143.9236  152.2435 H   0  0  0  0  0  0  0  0  0  0  0  0  # atno 10167 bound_to 10162
  156.3240  130.4269  149.7934 H   0  0  0  0  0  0  0  0  0  0  0  0  # atno 10718 bound_to 10713
  152.9919  135.6173  154.2724 H   0  0  0  0  0  0  0  0  0  0  0  0  # atno 10763 bound_to 10752
  154.2456  135.2787  155.2838 H   0  0  0  0  0  0  0  0  0  0  0  0  # atno 10764 bound_to 10752
  154.5332  135.5782  153.6834 H   0  0  0  0  0  0  0  0  0  0  0  0  # atno 10765 bound_to 10752
  140.4473  134.6376  157.4785 H   0  0  0  0  0  0  0  0  0  0  0  0  # atno 11005 bound_to 11000
  146.1987  140.6220  142.9112 LP  0  0  0  0  0  0  0  0  0  0  0  0  # atno 17320 bound_to 7965
  144.7581  140.5357  143.6754 LP  0  0  0  0  0  0  0  0  0  0  0  0  # atno 17321 bound_to 7965
  139.9083  144.6871  150.8589 LP  0  0  0  0  0  0  0  0  0  0  0  0  # atno 17342 bound_to 10162
  140.7714  143.3462  151.2107 LP  0  0  0  0  0  0  0  0  0  0  0  0  # atno 17343 bound_to 10162
  156.5231  130.8224  151.3211 LP  0  0  0  0  0  0  0  0  0  0  0  0  # atno 17370 bound_to 10713
  157.7417  130.9876  150.2467 LP  0  0  0  0  0  0  0  0  0  0  0  0  # atno 17371 bound_to 10713
  140.0030  134.6807  155.9499 LP  0  0  0  0  0  0  0  0  0  0  0  0  # atno 17394 bound_to 11000
  141.1680  133.6537  156.4547 LP  0  0  0  0  0  0  0  0  0  0  0  0  # atno 17395 bound_to 11000

$$$$
