AV-unprocessed.smi:213|AV-procd|sdf|1644|dock8
  -GOLD-   2262020 13D 1   1.00000     0.00000
 Structure written by MMmdl.
 58 61  0  0  0  0  0  0  0  0  1 V2000
  152.7998  140.5829  158.7370 C   0  0  0  0  0  0  0  0  0  0  0  0
  153.7703  141.1493  159.7931 C   0  0  1  0  0  0  0  0  0  0  0  0
  153.0901  142.1628  160.7452 C   0  0  0  0  0  0  0  0  0  0  0  0
  152.2420  143.1711  160.1067 N   0  0  0  0  0  0  0  0  0  0  0  0
  153.0109  143.9643  159.1536 C   0  0  0  0  0  0  0  0  0  0  0  0
  152.1447  145.0222  158.4496 C   0  0  0  0  0  0  0  0  0  0  0  0
  151.5371  145.8615  159.4255 O   0  0  0  0  0  0  0  0  0  0  0  0
  150.7319  145.1331  160.3460 C   0  0  0  0  0  0  0  0  0  0  0  0
  151.5835  144.0649  161.0549 C   0  0  0  0  0  0  0  0  0  0  0  0
  154.3754  140.0489  160.5488 N   0  0  0  0  0  0  0  0  0  0  0  0
  154.5065  140.1157  162.0028 C   0  0  0  0  0  0  0  0  0  0  0  0
  154.9837  139.0158  159.9075 C   0  0  0  0  0  0  0  0  0  0  0  0
  155.5997  139.2813  158.7249 N   0  0  0  0  0  0  0  0  0  0  0  0
  156.2256  138.3125  158.0512 C   0  0  0  0  0  0  0  0  0  0  0  0
  156.3514  137.0237  158.3686 N   0  0  0  0  0  0  0  0  0  0  0  0
  155.7229  136.7425  159.5449 C   0  0  0  0  0  0  0  0  0  0  0  0
  155.0217  137.6665  160.3728 C   0  0  0  0  0  0  0  0  0  0  0  0
  154.5036  136.9964  161.4764 N   0  0  0  0  0  0  0  0  0  0  0  0
  154.8829  135.7592  161.3168 C   0  0  0  0  0  0  0  0  0  0  0  0
  155.6150  135.5170  160.1782 N   0  0  0  0  0  0  0  0  0  0  0  0
  156.1514  134.2399  159.7438 C   0  0  0  0  0  0  0  0  0  0  0  0
  156.7185  133.3926  160.9030 C   0  0  1  0  0  0  0  0  0  0  0  0
  157.6869  134.1816  161.5647 O   0  0  0  0  0  0  0  0  0  0  0  0
  155.6633  132.9226  161.9293 C   0  0  2  0  0  0  0  0  0  0  0  0
  156.2291  132.0904  163.0827 C   0  0  0  0  0  0  0  0  0  0  0  0
  155.0441  131.2594  163.5495 C   0  0  0  0  0  0  0  0  0  0  0  0
  154.0354  131.3777  162.4051 C   0  0  0  0  0  0  0  0  0  0  0  0
  154.7521  132.0005  161.3501 O   0  0  0  0  0  0  0  0  0  0  0  0
  152.3952  141.3593  158.0908 H   0  0  0  0  0  0  0  0  0  0  0  0
  151.9517  140.0746  159.1959 H   0  0  0  0  0  0  0  0  0  0  0  0
  153.3065  139.8633  158.0929 H   0  0  0  0  0  0  0  0  0  0  0  0
  154.5594  141.6574  159.2393 H   0  0  0  0  0  0  0  0  0  0  0  0
  152.5301  141.6326  161.5169 H   0  0  0  0  0  0  0  0  0  0  0  0
  153.8784  142.6952  161.2800 H   0  0  0  0  0  0  0  0  0  0  0  0
  153.8363  144.4599  159.6670 H   0  0  0  0  0  0  0  0  0  0  0  0
  153.4579  143.3109  158.4037 H   0  0  0  0  0  0  0  0  0  0  0  0
  152.7565  145.6321  157.7849 H   0  0  0  0  0  0  0  0  0  0  0  0
  151.3775  144.5480  157.8357 H   0  0  0  0  0  0  0  0  0  0  0  0
  150.3076  145.8242  161.0744 H   0  0  0  0  0  0  0  0  0  0  0  0
  149.8956  144.6708  159.8192 H   0  0  0  0  0  0  0  0  0  0  0  0
  150.9279  143.4947  161.7107 H   0  0  0  0  0  0  0  0  0  0  0  0
  152.3278  144.5510  161.6871 H   0  0  0  0  0  0  0  0  0  0  0  0
  155.4970  139.7886  162.3219 H   0  0  0  0  0  0  0  0  0  0  0  0
  153.7615  139.4788  162.4801 H   0  0  0  0  0  0  0  0  0  0  0  0
  154.3655  141.1337  162.3659 H   0  0  0  0  0  0  0  0  0  0  0  0
  156.6924  138.6138  157.1251 H   0  0  0  0  0  0  0  0  0  0  0  0
  154.6265  134.9841  162.0242 H   0  0  0  0  0  0  0  0  0  0  0  0
  155.3557  133.6961  159.2326 H   0  0  0  0  0  0  0  0  0  0  0  0
  156.9274  134.4286  159.0004 H   0  0  0  0  0  0  0  0  0  0  0  0
  157.2330  132.5212  160.4964 H   0  0  0  0  0  0  0  0  0  0  0  0
  158.4199  134.3082  160.9822 H   0  0  0  0  0  0  0  0  0  0  0  0
  155.1077  133.7757  162.3237 H   0  0  0  0  0  0  0  0  0  0  0  0
  157.0153  131.4284  162.7167 H   0  0  0  0  0  0  0  0  0  0  0  0
  156.6525  132.7053  163.8774 H   0  0  0  0  0  0  0  0  0  0  0  0
  155.3395  130.2242  163.7234 H   0  0  0  0  0  0  0  0  0  0  0  0
  154.6218  131.6494  164.4759 H   0  0  0  0  0  0  0  0  0  0  0  0
  153.6388  130.4116  162.0923 H   0  0  0  0  0  0  0  0  0  0  0  0
  153.1972  132.0136  162.6943 H   0  0  0  0  0  0  0  0  0  0  0  0
  1  2  1  0  0  0  0
  1 29  1  0  0  0  0
  1 30  1  0  0  0  0
  1 31  1  0  0  0  0
  2  3  1  0  0  0  0
  2 10  1  0  0  0  0
  2 32  1  0  0  0  0
  3  4  1  0  0  0  0
  3 33  1  0  0  0  0
  3 34  1  0  0  0  0
  4  9  1  0  0  0  0
  4  5  1  0  0  0  0
  5  6  1  0  0  0  0
  5 35  1  0  0  0  0
  5 36  1  0  0  0  0
  6  7  1  0  0  0  0
  6 37  1  0  0  0  0
  6 38  1  0  0  0  0
  7  8  1  0  0  0  0
  8  9  1  0  0  0  0
  8 39  1  0  0  0  0
  8 40  1  0  0  0  0
  9 41  1  0  0  0  0
  9 42  1  0  0  0  0
 10 11  1  0  0  0  0
 10 12  1  0  0  0  0
 11 43  1  0  0  0  0
 11 44  1  0  0  0  0
 11 45  1  0  0  0  0
 12 17  1  0  0  0  0
 12 13  2  0  0  0  0
 13 14  1  0  0  0  0
 14 15  2  0  0  0  0
 14 46  1  0  0  0  0
 15 16  1  0  0  0  0
 16 20  1  0  0  0  0
 16 17  2  0  0  0  0
 17 18  1  0  0  0  0
 18 19  2  0  0  0  0
 19 20  1  0  0  0  0
 19 47  1  0  0  0  0
 20 21  1  0  0  0  0
 21 22  1  0  0  0  0
 21 48  1  0  0  0  0
 21 49  1  0  0  0  0
 22 23  1  0  0  0  0
 22 24  1  0  0  0  0
 22 50  1  0  0  0  0
 23 51  1  0  0  0  0
 24 28  1  0  0  0  0
 24 25  1  0  0  0  0
 24 52  1  0  0  0  0
 25 26  1  0  0  0  0
 25 53  1  0  0  0  0
 25 54  1  0  0  0  0
 26 27  1  0  0  0  0
 26 55  1  0  0  0  0
 26 56  1  0  0  0  0
 27 28  1  0  0  0  0
 27 57  1  0  0  0  0
 27 58  1  0  0  0  0
M  END
> <s_m_source_file>
AV-unprocessed.smi

> <i_m_source_file_index>
213

> <i_lp_mmshare_version>
43012

> <i_f3d_flags>
0

> <s_epik_input>
W0NIMl0xW0NIMl1PW0NIMl1bQ0gyXU4xW0NIMl1bQ0BASF0oW0NIM10pTihbQ0gzXSljKG5bY0hdbjIpYyhjMjMpbltjSF1uM1tDSDJdW0NASF0oW09IXSlbQ0BASF00W0NIMl1bQ0gyXVtDSDJdTzQ=

> <s_epik_cmdline>
J2VwaWtfcHl0aG9uJywgJy1waCcsICc3LjAnLCAnLXRuJywgJzgnLCAnLW1hJywgJzIwMCcsICctbWV0YWxfYmluZGluZycsICctaW1hZScsICc8aW5maWxlLm1hZT4nLCAnLW9tYWUnLCAnPG91dGZpbGUubWFlPic=

> <r_lp_tautomer_probability>
1

> <r_epik_Ionization_Penalty>
0.423322

> <r_epik_Ionization_Penalty_Charging>
0

> <r_epik_Ionization_Penalty_Neutral>
0.423322

> <r_epik_State_Penalty>
0.569486

> <r_epik_Charging_Adjusted_Penalty>
0.569486

> <i_epik_Tot_Q>
0

> <i_epik_Tot_abs_Q>
0

> <r_epik_Metal_State_Penalty>
0.568671

> <b_epik_Metal_Only>
0

> <s_lp_Force_Field>
OPLS_2005

> <r_lp_Energy>
52.699

> <b_lp_Chiralities_Consistent>
1

> <s_lp_Variant>
AV-unprocessed.smi:213-12

> <Gold.Version>
5.8.1

> <Gold.Id.Protein>
6NUR|6NUR_protein|mol2

> <Gold.PLP.Fitness>
48.9050

> <Gold.PLP.PLP>
-47.9560

> <Gold.PLP.part.hbond>
-1.9719

> <Gold.PLP.part.metal>
0.0000

> <Gold.PLP.part.buried>
-5.1069

> <Gold.PLP.part.nonpolar>
-39.4347

> <Gold.PLP.part.repulsive>
0.1148

> <Gold.PLP.ligand.clash>
0.0000

> <Gold.PLP.ligand.torsion>
1.1156

> <Gold.PLP.Chemscore.Hbond>
0.9750

> <Gold.PLP.Chemscore.CHOScore>
0.0000

> <Gold.PLP.Chemscore.Metal>
0.0000

> <Gold.Chemscore.Hbonds>
donor molecule, donor type, donor heavy atom, donor atom, acceptor molecule, acceptor atom, score
      P1  H  7997  8010       L1    13  0.50

> <Gold.PLP.Chemscore.Internal.Correction>
0.2553

> <Gold.Rescore>
     Score         DG    S(hbond)    S(metal)    S(lipo)     H(rot)  DE(clash)    DE(int)     intcor
     12.13     -14.76       0.77        0.00     117.37       2.74       0.44       2.19       ----

> <Gold.Chemscore.Fitness>
12.1268

> <Gold.Chemscore.DG>
-14.7602

> <Gold.Chemscore.ZeroCoef>
-5.4800

> <Gold.Chemscore.Hbond>
0.7656

> <Gold.Chemscore.Metal>
0.0000

> <Gold.Chemscore.Lipo>
117.3660

> <Gold.Chemscore.Internal_Hbond>
0.0000

> <Gold.Chemscore.DEClash>
0.4429

> <Gold.Chemscore.DEInternal>
2.1905

> <Gold.Chemscore.Rot>
2.7378

> <Gold.Chemscore.Internal.Correction>
   9.000000E+99

> <Gold.Chemscore.Hbonds>
donor molecule, donor type, donor heavy atom, donor atom, acceptor molecule, acceptor atom, score
      P1  H  7997  8010       L1    13  0.02

> <Gold.Chemscore.Hbond.Weighted>
-2.5571

> <Gold.Chemscore.Metal.Weighted>
-0.0000

> <Gold.Chemscore.Lipo.Weighted>
-13.7318

> <Gold.Chemscore.Internal_Hbond.Weighted>
0.0000

> <Gold.Chemscore.DEClash.Weighted>
0.4429

> <Gold.Chemscore.DEInternal.Weighted>
2.1905

> <Gold.Chemscore.Rot.Weighted>
7.0087

> <Gold.Chemscore.Internal.Correction.Weighted>
   9.000000E+99

> <Gold.Protein.RotatedTorsions>
[ 6907 6896 6895 6894 ] final  112.01 input  -60.11 | X-H torsion
[ 7974 7965 7964 7962 ] final   78.02 input  175.53 | X-H torsion
[ 8008 7997 7996 7995 ] final   -6.31 input   59.86 | X-H torsion
[ 10167 10162 10161 10158 ] final -122.10 input  -65.29 | X-H torsion
[ 10718 10713 10712 10709 ] final  -68.56 input   66.30 | X-H torsion
[ 10763 10752 10751 10750 ] final   44.59 input  -60.55 | X-H torsion
[ 11005 11000 10999 10996 ] final  151.77 input  -57.11 | X-H torsion

> <Gold.Protein.ActiveResidues>
 VAL166  LYS551  ARG553  GLY616  TRP617  ASP618  TYR619  PRO620  LYS621  CYS622 
 ASP623  PHE694  ASN695  SER759  ASP760  ASP761  ALA762  ILE779  LEU786  VAL792 
 PHE793  MET794  SER795  GLU796  ALA797  LYS798  CYS799  TRP800  GLU811  SER814 

> <Gold.Protein.RotatedAtoms>
  152.4939  133.8577  159.7233 H   0  0  0  0  0  0  0  0  0  0  0  0  # atno 6907 bound_to 6896
  150.9097  133.7004  159.2864 H   0  0  0  0  0  0  0  0  0  0  0  0  # atno 6908 bound_to 6896
  151.4418  135.1025  159.9725 H   0  0  0  0  0  0  0  0  0  0  0  0  # atno 6909 bound_to 6896
  145.6825  139.2528  143.1806 H   0  0  0  0  0  0  0  0  0  0  0  0  # atno 7974 bound_to 7965
  154.5950  140.2436  155.7869 H   0  0  0  0  0  0  0  0  0  0  0  0  # atno 8008 bound_to 7997
  156.2273  140.2978  156.0053 H   0  0  0  0  0  0  0  0  0  0  0  0  # atno 8009 bound_to 7997
  155.2308  140.0403  157.2952 H   0  0  0  0  0  0  0  0  0  0  0  0  # atno 8010 bound_to 7997
  140.0179  143.5374  152.2234 H   0  0  0  0  0  0  0  0  0  0  0  0  # atno 10167 bound_to 10162
  156.0499  130.4297  150.2019 H   0  0  0  0  0  0  0  0  0  0  0  0  # atno 10718 bound_to 10713
  152.9838  135.6066  154.3298 H   0  0  0  0  0  0  0  0  0  0  0  0  # atno 10763 bound_to 10752
  154.3002  135.2773  155.2616 H   0  0  0  0  0  0  0  0  0  0  0  0  # atno 10764 bound_to 10752
  154.4872  135.5902  153.6488 H   0  0  0  0  0  0  0  0  0  0  0  0  # atno 10765 bound_to 10752
  140.1248  134.8840  157.2122 H   0  0  0  0  0  0  0  0  0  0  0  0  # atno 11005 bound_to 11000
  146.0952  140.7609  142.9576 LP  0  0  0  0  0  0  0  0  0  0  0  0  # atno 17320 bound_to 7965
  144.7022  140.3700  143.7147 LP  0  0  0  0  0  0  0  0  0  0  0  0  # atno 17321 bound_to 7965
  139.6160  144.7619  151.2846 LP  0  0  0  0  0  0  0  0  0  0  0  0  # atno 17342 bound_to 10162
  140.7354  143.6736  150.8060 LP  0  0  0  0  0  0  0  0  0  0  0  0  # atno 17343 bound_to 10162
  157.0103  130.9949  151.3367 LP  0  0  0  0  0  0  0  0  0  0  0  0  # atno 17370 bound_to 10713
  157.5414  130.8122  149.8034 LP  0  0  0  0  0  0  0  0  0  0  0  0  # atno 17371 bound_to 10713
  140.2918  134.3232  155.7313 LP  0  0  0  0  0  0  0  0  0  0  0  0  # atno 17394 bound_to 11000
  141.2159  133.7539  156.9514 LP  0  0  0  0  0  0  0  0  0  0  0  0  # atno 17395 bound_to 11000

$$$$
