AV-unprocessed.smi:2806|AV-procd|sdf|10815|dock9
  -GOLD-   2272015253D 1   1.00000     0.00000
 Structure written by MMmdl.
 47 48  0  0  0  0  0  0  0  0  1 V2000
  151.1210  144.7779  160.1446 C   0  0  0  0  0  0  0  0  0  0  0  0
  151.7875  143.7893  159.1727 C   0  0  0  0  0  0  0  0  0  0  0  0
  152.7447  144.5710  158.2559 C   0  0  0  0  0  0  0  0  0  0  0  0
  152.5700  142.7432  159.9876 C   0  0  0  0  0  0  0  0  0  0  0  0
  150.4575  142.9796  158.2120 S   0  0  0  0  0  0  0  0  0  0  0  0
  151.3020  141.9625  156.9572 C   0  0  0  0  0  0  0  0  0  0  0  0
  150.3690  141.3879  155.8902 C   0  0  0  0  0  0  0  0  0  0  0  0
  150.7337  140.4467  155.1852 O   0  0  0  0  0  0  0  0  0  0  0  0
  149.1578  141.9560  155.7907 N   0  0  0  0  0  0  0  0  0  0  0  0
  148.1032  141.5060  154.8906 C   0  0  0  0  0  0  0  0  0  0  0  0
  146.8123  142.2871  155.0642 C   0  0  0  0  0  0  0  0  0  0  0  0
  146.1432  142.8259  153.9484 C   0  0  0  0  0  0  0  0  0  0  0  0
  144.9500  143.5384  154.1667 C   0  0  0  0  0  0  0  0  0  0  0  0
  144.4169  143.7319  155.3913 N   0  0  0  0  0  0  0  0  0  0  0  0
  145.0505  143.2148  156.4731 C   0  0  0  0  0  0  0  0  0  0  0  0
  144.4821  143.4304  157.7474 N   0  0  0  0  0  0  0  0  0  0  0  0
  145.0485  142.7076  158.8848 C   0  0  0  0  0  0  0  0  0  0  0  0
  144.1242  142.8267  160.1082 C   0  0  0  0  0  0  0  0  0  0  0  0
  143.8804  144.2000  160.3944 O   0  0  0  0  0  0  0  0  0  0  0  0
  143.2304  144.8596  159.3131 C   0  0  0  0  0  0  0  0  0  0  0  0
  144.1236  144.8107  158.0619 C   0  0  0  0  0  0  0  0  0  0  0  0
  146.2577  142.4868  156.3460 C   0  0  0  0  0  0  0  0  0  0  0  0
  151.8592  145.2937  160.7599 H   0  0  0  0  0  0  0  0  0  0  0  0
  150.4315  144.2681  160.8186 H   0  0  0  0  0  0  0  0  0  0  0  0
  150.5530  145.5384  159.6074 H   0  0  0  0  0  0  0  0  0  0  0  0
  152.2026  145.2409  157.5874 H   0  0  0  0  0  0  0  0  0  0  0  0
  153.3527  143.9057  157.6448 H   0  0  0  0  0  0  0  0  0  0  0  0
  153.4347  145.1796  158.8403 H   0  0  0  0  0  0  0  0  0  0  0  0
  153.2977  143.2214  160.6442 H   0  0  0  0  0  0  0  0  0  0  0  0
  153.1226  142.0555  159.3491 H   0  0  0  0  0  0  0  0  0  0  0  0
  151.9031  142.1499  160.6142 H   0  0  0  0  0  0  0  0  0  0  0  0
  152.1186  142.5211  156.5022 H   0  0  0  0  0  0  0  0  0  0  0  0
  151.7590  141.1184  157.4740 H   0  0  0  0  0  0  0  0  0  0  0  0
  148.9383  142.7258  156.4060 H   0  0  0  0  0  0  0  0  0  0  0  0
  148.4499  141.6353  153.8651 H   0  0  0  0  0  0  0  0  0  0  0  0
  147.9245  140.4375  155.0232 H   0  0  0  0  0  0  0  0  0  0  0  0
  146.5291  142.6957  152.9482 H   0  0  0  0  0  0  0  0  0  0  0  0
  144.4092  143.9663  153.3356 H   0  0  0  0  0  0  0  0  0  0  0  0
  145.1828  141.6542  158.6357 H   0  0  0  0  0  0  0  0  0  0  0  0
  146.0325  143.1166  159.1188 H   0  0  0  0  0  0  0  0  0  0  0  0
  143.1804  142.3071  159.9345 H   0  0  0  0  0  0  0  0  0  0  0  0
  144.5892  142.3597  160.9765 H   0  0  0  0  0  0  0  0  0  0  0  0
  142.2620  144.3955  159.1179 H   0  0  0  0  0  0  0  0  0  0  0  0
  143.0362  145.8947  159.5945 H   0  0  0  0  0  0  0  0  0  0  0  0
  145.0392  145.3755  158.2406 H   0  0  0  0  0  0  0  0  0  0  0  0
  143.6063  145.2953  157.2354 H   0  0  0  0  0  0  0  0  0  0  0  0
  146.7673  142.0948  157.2135 H   0  0  0  0  0  0  0  0  0  0  0  0
  1  2  1  0  0  0  0
  1 23  1  0  0  0  0
  1 24  1  0  0  0  0
  1 25  1  0  0  0  0
  2  3  1  0  0  0  0
  2  4  1  0  0  0  0
  2  5  1  0  0  0  0
  3 26  1  0  0  0  0
  3 27  1  0  0  0  0
  3 28  1  0  0  0  0
  4 29  1  0  0  0  0
  4 30  1  0  0  0  0
  4 31  1  0  0  0  0
  5  6  1  0  0  0  0
  6  7  1  0  0  0  0
  6 32  1  0  0  0  0
  6 33  1  0  0  0  0
  7  8  2  0  0  0  0
  7  9  1  0  0  0  0
  9 10  1  0  0  0  0
  9 34  1  0  0  0  0
 10 11  1  0  0  0  0
 10 35  1  0  0  0  0
 10 36  1  0  0  0  0
 11 22  1  0  0  0  0
 11 12  2  0  0  0  0
 12 13  1  0  0  0  0
 12 37  1  0  0  0  0
 13 14  2  0  0  0  0
 13 38  1  0  0  0  0
 14 15  1  0  0  0  0
 15 16  1  0  0  0  0
 15 22  2  0  0  0  0
 16 21  1  0  0  0  0
 16 17  1  0  0  0  0
 17 18  1  0  0  0  0
 17 39  1  0  0  0  0
 17 40  1  0  0  0  0
 18 19  1  0  0  0  0
 18 41  1  0  0  0  0
 18 42  1  0  0  0  0
 19 20  1  0  0  0  0
 20 21  1  0  0  0  0
 20 43  1  0  0  0  0
 20 44  1  0  0  0  0
 21 45  1  0  0  0  0
 21 46  1  0  0  0  0
 22 47  1  0  0  0  0
M  END
> <s_m_source_file>
AV-unprocessed.smi

> <i_m_source_file_index>
2806

> <i_lp_mmshare_version>
43012

> <i_f3d_flags>
0

> <s_epik_input>
W0NIM11DKFtDSDNdKShbQ0gzXSlTW0NIMl1DKD1PKVtOSF1bQ0gyXWMxW2NIXVtjSF1uYyhbY0hdMSlOMltDSDJdW0NIMl1PW0NIMl1bQ0gyXTI=

> <s_epik_cmdline>
J2VwaWtfcHl0aG9uJywgJy1waCcsICc3LjAnLCAnLXRuJywgJzgnLCAnLW1hJywgJzIwMCcsICctbWV0YWxfYmluZGluZycsICctaW1hZScsICc8aW5maWxlLm1hZT4nLCAnLW9tYWUnLCAnPG91dGZpbGUubWFlPic=

> <r_lp_tautomer_probability>
1

> <r_epik_Ionization_Penalty>
0.00423361

> <r_epik_Ionization_Penalty_Charging>
0

> <r_epik_Ionization_Penalty_Neutral>
0.00423361

> <r_epik_State_Penalty>
0.00304279

> <r_epik_Charging_Adjusted_Penalty>
0.00304279

> <i_epik_Tot_Q>
0

> <i_epik_Tot_abs_Q>
0

> <r_epik_Metal_State_Penalty>
-0

> <b_epik_Metal_Only>
0

> <s_lp_Force_Field>
OPLS_2005

> <r_lp_Energy>
13.38

> <b_lp_Chiralities_Consistent>
1

> <s_lp_Variant>
AV-unprocessed.smi:2806-1

> <Gold.Version>
5.8.1

> <Gold.Id.Protein>
6NUR|6NUR_protein|mol2

> <Gold.PLP.Fitness>
48.0756

> <Gold.PLP.PLP>
-41.8773

> <Gold.PLP.part.hbond>
-2.0000

> <Gold.PLP.part.metal>
0.0000

> <Gold.PLP.part.buried>
-6.3866

> <Gold.PLP.part.nonpolar>
-34.4414

> <Gold.PLP.part.repulsive>
0.4496

> <Gold.PLP.ligand.clash>
0.0000

> <Gold.PLP.ligand.torsion>
0.5720

> <Gold.PLP.Chemscore.Hbond>
1.5120

> <Gold.PLP.Chemscore.CHOScore>
0.8050

> <Gold.PLP.Chemscore.Metal>
0.0000

> <Gold.Chemscore.Hbonds>
donor molecule, donor type, donor heavy atom, donor atom, acceptor molecule, acceptor atom, score
      L1  H     9    34       P1  8028  0.32
      P1  H  7989  7998       L1     8  1.00
      L1  C    13    38       P1 10174  0.70

> <Gold.PLP.Chemscore.Internal.Correction>
0.3915

> <Gold.Rescore>
     Score         DG    S(hbond)    S(metal)    S(lipo)     H(rot)  DE(clash)    DE(int)     intcor
     17.23     -18.02       1.42        0.00     104.57       1.73       0.20       0.60       ----

> <Gold.Chemscore.Fitness>
17.2252

> <Gold.Chemscore.DG>
-18.0210

> <Gold.Chemscore.ZeroCoef>
-5.4800

> <Gold.Chemscore.Hbond>
1.4183

> <Gold.Chemscore.Metal>
0.0000

> <Gold.Chemscore.Lipo>
104.5709

> <Gold.Chemscore.Internal_Hbond>
0.0000

> <Gold.Chemscore.DEClash>
0.1972

> <Gold.Chemscore.DEInternal>
0.5985

> <Gold.Chemscore.Rot>
1.7308

> <Gold.Chemscore.Internal.Correction>
   9.000000E+99

> <Gold.Chemscore.Hbonds>
donor molecule, donor type, donor heavy atom, donor atom, acceptor molecule, acceptor atom, score
      L1  H     9    34       P1  8028  0.31
      P1  H  7989  7998       L1     8  0.90

> <Gold.Chemscore.Hbond.Weighted>
-4.7371

> <Gold.Chemscore.Metal.Weighted>
-0.0000

> <Gold.Chemscore.Lipo.Weighted>
-12.2348

> <Gold.Chemscore.Internal_Hbond.Weighted>
0.0000

> <Gold.Chemscore.DEClash.Weighted>
0.1972

> <Gold.Chemscore.DEInternal.Weighted>
0.5985

> <Gold.Chemscore.Rot.Weighted>
4.4309

> <Gold.Chemscore.Internal.Correction.Weighted>
   9.000000E+99

> <Gold.Protein.RotatedTorsions>
[ 6907 6896 6895 6894 ] final   65.56 input  -60.11 | X-H torsion
[ 7974 7965 7964 7962 ] final   21.51 input  175.53 | X-H torsion
[ 8008 7997 7996 7995 ] final -160.92 input   59.86 | X-H torsion
[ 10167 10162 10161 10158 ] final  -16.58 input  -65.29 | X-H torsion
[ 10718 10713 10712 10709 ] final  141.42 input   66.30 | X-H torsion
[ 10763 10752 10751 10750 ] final -113.26 input  -60.55 | X-H torsion
[ 11005 11000 10999 10996 ] final  155.67 input  -57.11 | X-H torsion

> <Gold.Protein.ActiveResidues>
 VAL166  LYS551  ARG553  GLY616  TRP617  ASP618  TYR619  PRO620  LYS621  CYS622 
 ASP623  PHE694  ASN695  SER759  ASP760  ASP761  ALA762  ILE779  LEU786  VAL792 
 PHE793  MET794  SER795  GLU796  ALA797  LYS798  CYS799  TRP800  GLU811  SER814 

> <Gold.Protein.RotatedAtoms>
  152.4416  134.5578  159.9885 H   0  0  0  0  0  0  0  0  0  0  0  0  # atno 6907 bound_to 6896
  151.5674  133.3389  159.2991 H   0  0  0  0  0  0  0  0  0  0  0  0  # atno 6908 bound_to 6896
  150.8324  134.7616  159.6928 H   0  0  0  0  0  0  0  0  0  0  0  0  # atno 6909 bound_to 6896
  146.2068  139.8016  142.8720 H   0  0  0  0  0  0  0  0  0  0  0  0  # atno 7974 bound_to 7965
  155.7846  140.0870  157.2041 H   0  0  0  0  0  0  0  0  0  0  0  0  # atno 8008 bound_to 7997
  154.3988  140.1501  156.3150 H   0  0  0  0  0  0  0  0  0  0  0  0  # atno 8009 bound_to 7997
  155.8619  140.3430  155.5765 H   0  0  0  0  0  0  0  0  0  0  0  0  # atno 8010 bound_to 7997
  140.7235  143.5102  150.9760 H   0  0  0  0  0  0  0  0  0  0  0  0  # atno 10167 bound_to 10162
  157.3922  131.1006  151.0635 H   0  0  0  0  0  0  0  0  0  0  0  0  # atno 10718 bound_to 10713
  154.8388  135.4460  154.1322 H   0  0  0  0  0  0  0  0  0  0  0  0  # atno 10763 bound_to 10752
  153.2530  135.6928  153.7665 H   0  0  0  0  0  0  0  0  0  0  0  0  # atno 10764 bound_to 10752
  153.6971  135.3378  155.3191 H   0  0  0  0  0  0  0  0  0  0  0  0  # atno 10765 bound_to 10752
  140.1603  134.8614  157.2565 H   0  0  0  0  0  0  0  0  0  0  0  0  # atno 11005 bound_to 11000
  145.3290  141.0262  143.3457 LP  0  0  0  0  0  0  0  0  0  0  0  0  # atno 17320 bound_to 7965
  144.8812  139.4901  143.6722 LP  0  0  0  0  0  0  0  0  0  0  0  0  # atno 17321 bound_to 7965
  139.8815  143.7066  152.3156 LP  0  0  0  0  0  0  0  0  0  0  0  0  # atno 17342 bound_to 10162
  139.7350  144.7573  151.0742 LP  0  0  0  0  0  0  0  0  0  0  0  0  # atno 17343 bound_to 10162
  157.1664  130.6248  149.5627 LP  0  0  0  0  0  0  0  0  0  0  0  0  # atno 17370 bound_to 10713
  155.9801  130.4800  150.6755 LP  0  0  0  0  0  0  0  0  0  0  0  0  # atno 17371 bound_to 10713
  140.2498  134.3696  155.7447 LP  0  0  0  0  0  0  0  0  0  0  0  0  # atno 17394 bound_to 11000
  141.2208  133.7310  156.8918 LP  0  0  0  0  0  0  0  0  0  0  0  0  # atno 17395 bound_to 11000

$$$$
