AV-unprocessed.smi:1360|AV-procd|sdf|5553|dock4
  -GOLD-   22720 5143D 1   1.00000     0.00000
 Structure written by MMmdl.
 36 37  0  0  0  0  0  0  0  0  1 V2000
  150.6497  137.7391  156.8075 C   0  0  0  0  0  0  0  0  0  0  0  0
  149.8019  138.9951  156.5463 C   0  0  2  0  0  0  0  0  0  0  0  0
  149.9603  139.5496  155.1131 C   0  0  0  0  0  0  0  0  0  0  0  0
  148.7626  140.2082  154.6234 N   0  0  0  0  0  0  0  0  0  0  0  0
  148.4710  141.5561  154.6073 C   0  0  0  0  0  0  0  0  0  0  0  0
  147.2295  141.6965  154.0564 C   0  0  0  0  0  0  0  0  0  0  0  0
  146.8343  140.3600  153.7692 C   0  0  0  0  0  0  0  0  0  0  0  0
  147.7530  139.4715  154.1118 N   0  0  0  0  0  0  0  0  0  0  0  0
  150.1551  140.0211  157.5233 N   0  0  0  0  0  0  0  0  0  0  0  0
  151.3873  140.5145  157.7242 C   0  0  0  0  0  0  0  0  0  0  0  0
  152.3763  140.1369  157.0951 O   0  0  0  0  0  0  0  0  0  0  0  0
  151.5230  141.6021  158.7985 C   0  0  1  0  0  0  0  0  0  0  0  0
  152.5921  141.2239  159.8503 C   0  0  0  0  0  0  0  0  0  0  0  0
  152.9310  142.3859  160.7674 C   0  0  0  0  0  0  0  0  0  0  0  0
  152.6085  143.6619  160.4943 C   0  0  0  0  0  0  0  0  0  0  0  0
  151.8723  144.0863  159.2359 C   0  0  0  0  0  0  0  0  0  0  0  0
  151.8459  142.9729  158.1713 C   0  0  0  0  0  0  0  0  0  0  0  0
  150.3517  136.9133  156.1611 H   0  0  0  0  0  0  0  0  0  0  0  0
  150.5366  137.3974  157.8368 H   0  0  0  0  0  0  0  0  0  0  0  0
  151.7088  137.9325  156.6346 H   0  0  0  0  0  0  0  0  0  0  0  0
  148.7573  138.7164  156.6978 H   0  0  0  0  0  0  0  0  0  0  0  0
  150.7839  140.2639  155.0681 H   0  0  0  0  0  0  0  0  0  0  0  0
  150.2120  138.7424  154.4239 H   0  0  0  0  0  0  0  0  0  0  0  0
  149.1647  142.2949  154.9815 H   0  0  0  0  0  0  0  0  0  0  0  0
  146.6859  142.6137  153.8857 H   0  0  0  0  0  0  0  0  0  0  0  0
  145.9134  140.0114  153.3257 H   0  0  0  0  0  0  0  0  0  0  0  0
  149.4028  140.3889  158.0871 H   0  0  0  0  0  0  0  0  0  0  0  0
  150.5640  141.6938  159.3125 H   0  0  0  0  0  0  0  0  0  0  0  0
  152.2321  140.3943  160.4597 H   0  0  0  0  0  0  0  0  0  0  0  0
  153.5169  140.8914  159.3769 H   0  0  0  0  0  0  0  0  0  0  0  0
  153.4701  142.1505  161.6734 H   0  0  0  0  0  0  0  0  0  0  0  0
  152.8663  144.4427  161.1947 H   0  0  0  0  0  0  0  0  0  0  0  0
  150.8559  144.3621  159.5179 H   0  0  0  0  0  0  0  0  0  0  0  0
  152.3423  144.9808  158.8267 H   0  0  0  0  0  0  0  0  0  0  0  0
  152.8184  142.9274  157.6784 H   0  0  0  0  0  0  0  0  0  0  0  0
  151.1205  143.2251  157.3965 H   0  0  0  0  0  0  0  0  0  0  0  0
  1  2  1  0  0  0  0
  1 18  1  0  0  0  0
  1 19  1  0  0  0  0
  1 20  1  0  0  0  0
  2  3  1  0  0  0  0
  2  9  1  0  0  0  0
  2 21  1  0  0  0  0
  3  4  1  0  0  0  0
  3 22  1  0  0  0  0
  3 23  1  0  0  0  0
  4  8  1  0  0  0  0
  4  5  1  0  0  0  0
  5  6  2  0  0  0  0
  5 24  1  0  0  0  0
  6  7  1  0  0  0  0
  6 25  1  0  0  0  0
  7  8  2  0  0  0  0
  7 26  1  0  0  0  0
  9 10  1  0  0  0  0
  9 27  1  0  0  0  0
 10 11  2  0  0  0  0
 10 12  1  0  0  0  0
 12 17  1  0  0  0  0
 12 13  1  0  0  0  0
 12 28  1  0  0  0  0
 13 14  1  0  0  0  0
 13 29  1  0  0  0  0
 13 30  1  0  0  0  0
 14 15  2  0  0  0  0
 14 31  1  0  0  0  0
 15 16  1  0  0  0  0
 15 32  1  0  0  0  0
 16 17  1  0  0  0  0
 16 33  1  0  0  0  0
 16 34  1  0  0  0  0
 17 35  1  0  0  0  0
 17 36  1  0  0  0  0
M  END
> <s_m_source_file>
AV-unprocessed.smi

> <i_m_source_file_index>
1360

> <i_lp_mmshare_version>
43012

> <i_f3d_flags>
0

> <s_epik_input>
bjFbY0hdW2NIXVtjSF1uMVtDSDJdW0NAQEhdKFtDSDNdKVtOSF1DKD1PKVtDQEBIXTJbQ0gyXVtDSF09W0NIXVtDSDJdW0NIMl0y

> <s_epik_cmdline>
J2VwaWtfcHl0aG9uJywgJy1waCcsICc3LjAnLCAnLXRuJywgJzgnLCAnLW1hJywgJzIwMCcsICctbWV0YWxfYmluZGluZycsICctaW1hZScsICc8aW5maWxlLm1hZT4nLCAnLW9tYWUnLCAnPG91dGZpbGUubWFlPic=

> <r_lp_tautomer_probability>
1

> <r_epik_Ionization_Penalty>
0.000315076

> <r_epik_Ionization_Penalty_Charging>
0

> <r_epik_Ionization_Penalty_Neutral>
0.000315076

> <r_epik_State_Penalty>
-0

> <r_epik_Charging_Adjusted_Penalty>
0

> <i_epik_Tot_Q>
0

> <i_epik_Tot_abs_Q>
0

> <r_epik_Metal_State_Penalty>
-0

> <b_epik_Metal_Only>
0

> <s_lp_Force_Field>
OPLS_2005

> <r_lp_Energy>
8.32294

> <b_lp_Chiralities_Consistent>
1

> <s_lp_Variant>
AV-unprocessed.smi:1360-3

> <Gold.Version>
5.8.1

> <Gold.Id.Protein>
6NUR|6NUR_protein|mol2

> <Gold.PLP.Fitness>
43.0067

> <Gold.PLP.PLP>
-35.6081

> <Gold.PLP.part.hbond>
-1.0000

> <Gold.PLP.part.metal>
0.0000

> <Gold.PLP.part.buried>
-2.4616

> <Gold.PLP.part.nonpolar>
-31.0067

> <Gold.PLP.part.repulsive>
0.2072

> <Gold.PLP.ligand.clash>
0.0000

> <Gold.PLP.ligand.torsion>
0.8187

> <Gold.PLP.Chemscore.Hbond>
1.0000

> <Gold.PLP.Chemscore.CHOScore>
1.9978

> <Gold.PLP.Chemscore.Metal>
0.0000

> <Gold.Chemscore.Hbonds>
donor molecule, donor type, donor heavy atom, donor atom, acceptor molecule, acceptor atom, score
      P1  H  7997  8009       L1    11  0.91
      L1  C     5    24       P1  8028  1.00
      L1  C     7    26       P1 10175  1.00

> <Gold.PLP.Chemscore.Internal.Correction>
0.0426

> <Gold.Rescore>
     Score         DG    S(hbond)    S(metal)    S(lipo)     H(rot)  DE(clash)    DE(int)     intcor
     14.42     -16.54       0.98        0.00      99.67       1.51       0.09       2.03       ----

> <Gold.Chemscore.Fitness>
14.4196

> <Gold.Chemscore.DG>
-16.5431

> <Gold.Chemscore.ZeroCoef>
-5.4800

> <Gold.Chemscore.Hbond>
0.9750

> <Gold.Chemscore.Metal>
0.0000

> <Gold.Chemscore.Lipo>
99.6682

> <Gold.Chemscore.Internal_Hbond>
0.0000

> <Gold.Chemscore.DEClash>
0.0938

> <Gold.Chemscore.DEInternal>
2.0298

> <Gold.Chemscore.Rot>
1.5057

> <Gold.Chemscore.Internal.Correction>
   9.000000E+99

> <Gold.Chemscore.Hbonds>
donor molecule, donor type, donor heavy atom, donor atom, acceptor molecule, acceptor atom, score
      P1  H  7997  8009       L1    11  0.84

> <Gold.Chemscore.Hbond.Weighted>
-3.2565

> <Gold.Chemscore.Metal.Weighted>
-0.0000

> <Gold.Chemscore.Lipo.Weighted>
-11.6612

> <Gold.Chemscore.Internal_Hbond.Weighted>
0.0000

> <Gold.Chemscore.DEClash.Weighted>
0.0938

> <Gold.Chemscore.DEInternal.Weighted>
2.0298

> <Gold.Chemscore.Rot.Weighted>
3.8546

> <Gold.Chemscore.Internal.Correction.Weighted>
   9.000000E+99

> <Gold.Protein.RotatedTorsions>
[ 6907 6896 6895 6894 ] final  -58.30 input  -60.11 | X-H torsion
[ 7974 7965 7964 7962 ] final  -17.24 input  175.53 | X-H torsion
[ 8008 7997 7996 7995 ] final -167.17 input   59.86 | X-H torsion
[ 10167 10162 10161 10158 ] final -162.76 input  -65.29 | X-H torsion
[ 10718 10713 10712 10709 ] final  -48.64 input   66.30 | X-H torsion
[ 10763 10752 10751 10750 ] final    1.65 input  -60.55 | X-H torsion
[ 11005 11000 10999 10996 ] final  -22.29 input  -57.11 | X-H torsion

> <Gold.Protein.ActiveResidues>
 VAL166  LYS551  ARG553  GLY616  TRP617  ASP618  TYR619  PRO620  LYS621  CYS622 
 ASP623  PHE694  ASN695  SER759  ASP760  ASP761  ALA762  ILE779  LEU786  VAL792 
 PHE793  MET794  SER795  GLU796  ALA797  LYS798  CYS799  TRP800  GLU811  SER814 

> <Gold.Protein.RotatedAtoms>
  150.8018  134.7117  159.6607 H   0  0  0  0  0  0  0  0  0  0  0  0  # atno 6907 bound_to 6896
  152.4135  134.6079  160.0027 H   0  0  0  0  0  0  0  0  0  0  0  0  # atno 6908 bound_to 6896
  151.6315  133.3295  159.3146 H   0  0  0  0  0  0  0  0  0  0  0  0  # atno 6909 bound_to 6896
  146.1950  140.3752  142.8444 H   0  0  0  0  0  0  0  0  0  0  0  0  # atno 7974 bound_to 7965
  155.8740  140.0998  157.1531 H   0  0  0  0  0  0  0  0  0  0  0  0  # atno 8008 bound_to 7997
  154.3999  140.1341  156.4176 H   0  0  0  0  0  0  0  0  0  0  0  0  # atno 8009 bound_to 7997
  155.7718  140.3460  155.5253 H   0  0  0  0  0  0  0  0  0  0  0  0  # atno 8010 bound_to 7997
  139.6369  144.0332  152.2061 H   0  0  0  0  0  0  0  0  0  0  0  0  # atno 10167 bound_to 10162
  156.1969  130.4154  149.9295 H   0  0  0  0  0  0  0  0  0  0  0  0  # atno 10718 bound_to 10713
  153.3054  135.6959  153.7164 H   0  0  0  0  0  0  0  0  0  0  0  0  # atno 10763 bound_to 10752
  153.6062  135.3453  155.2963 H   0  0  0  0  0  0  0  0  0  0  0  0  # atno 10764 bound_to 10752
  154.8561  135.4352  154.2177 H   0  0  0  0  0  0  0  0  0  0  0  0  # atno 10765 bound_to 10752
  140.8642  133.7766  156.0110 H   0  0  0  0  0  0  0  0  0  0  0  0  # atno 11005 bound_to 11000
  144.8562  140.7073  143.6136 LP  0  0  0  0  0  0  0  0  0  0  0  0  # atno 17320 bound_to 7965
  145.3672  139.1667  143.4351 LP  0  0  0  0  0  0  0  0  0  0  0  0  # atno 17321 bound_to 7965
  140.0012  144.6292  150.7728 LP  0  0  0  0  0  0  0  0  0  0  0  0  # atno 17342 bound_to 10162
  140.7470  143.2900  151.3358 LP  0  0  0  0  0  0  0  0  0  0  0  0  # atno 17343 bound_to 10162
  156.7017  130.8935  151.3600 LP  0  0  0  0  0  0  0  0  0  0  0  0  # atno 17370 bound_to 10713
  157.6962  130.9285  150.0653 LP  0  0  0  0  0  0  0  0  0  0  0  0  # atno 17371 bound_to 10713
  140.8648  134.2798  157.5218 LP  0  0  0  0  0  0  0  0  0  0  0  0  # atno 17394 bound_to 11000
  139.8708  134.9536  156.4152 LP  0  0  0  0  0  0  0  0  0  0  0  0  # atno 17395 bound_to 11000

$$$$
