AV-unprocessed.smi:113|AV-procd|sdf|1103|dock10
  -GOLD-   2262018213D 1   1.00000     0.00000
 Structure written by MMmdl.
 53 56  0  0  0  0  0  0  0  0  2 V2000
  154.4549  139.4658  160.4391 C   0  0  0  0  0  0  0  0  0  0  0  0
  153.6179  140.6367  159.9696 C   0  0  0  0  0  0  0  0  0  0  0  0
  152.9312  140.6261  158.7399 C   0  0  0  0  0  0  0  0  0  0  0  0
  152.1621  141.7503  158.3494 C   0  0  0  0  0  0  0  0  0  0  0  0
  151.4085  141.7693  157.0151 C   0  0  0  0  0  0  0  0  0  0  0  0
  150.7266  140.5432  156.6252 N   0  0  0  0  0  0  0  0  0  0  0  0
  151.3224  139.7507  155.6141 C   0  0  0  0  0  0  0  0  0  0  0  0
  152.3832  140.0804  155.0793 O   0  0  0  0  0  0  0  0  0  0  0  0
  150.6014  138.5196  155.2826 C   0  0  0  0  0  0  0  0  0  0  0  0
  151.1861  137.6127  154.2114 C   0  0  0  0  0  0  0  0  0  0  0  0
  149.4519  138.2177  155.9331 C   0  0  0  0  0  0  0  0  0  0  0  0
  148.8862  139.0143  156.9132 N   0  0  0  0  0  0  0  0  0  0  0  0
  147.6275  138.5528  157.6157 C   0  0  2  0  0  0  0  0  0  0  0  0
  147.1001  137.2005  157.1063 C   0  0  0  0  0  0  0  0  0  0  0  0
  145.7022  137.5399  156.6093 C   0  0  1  0  0  0  0  0  0  0  0  0
  144.7938  136.5055  156.9277 O   0  0  0  0  0  0  0  0  0  0  0  0
  145.3756  138.8457  157.3426 C   0  0  2  0  0  0  0  0  0  0  0  0
  144.3656  139.7524  156.6226 C   0  0  0  0  0  0  0  0  0  0  0  0
  144.8551  140.1308  155.3535 O   0  0  0  0  0  0  0  0  0  0  0  0
  146.6320  139.5057  157.4098 O   0  0  0  0  0  0  0  0  0  0  0  0
  149.5409  140.1999  157.3127 C   0  0  0  0  0  0  0  0  0  0  0  0
  149.1047  140.8927  158.2343 O   0  0  0  0  0  0  0  0  0  0  0  0
  152.1048  142.8662  159.2290 C   0  0  0  0  0  0  0  0  0  0  0  0
  151.3574  144.0293  158.9247 C   0  0  0  0  0  0  0  0  0  0  0  0
  151.3272  145.1155  159.8216 C   0  0  0  0  0  0  0  0  0  0  0  0
  152.0409  145.0560  161.0329 C   0  0  0  0  0  0  0  0  0  0  0  0
  152.7885  143.9074  161.3519 C   0  0  0  0  0  0  0  0  0  0  0  0
  152.8196  142.8195  160.4565 C   0  0  0  0  0  0  0  0  0  0  0  0
  153.5365  141.7194  160.7691 N   0  3  0  0  0  0  0  0  0  0  0  0
  154.5091  138.6896  159.6753 H   0  0  0  0  0  0  0  0  0  0  0  0
  154.0230  139.0286  161.3397 H   0  0  0  0  0  0  0  0  0  0  0  0
  155.4707  139.7905  160.6662 H   0  0  0  0  0  0  0  0  0  0  0  0
  153.0040  139.7523  158.1095 H   0  0  0  0  0  0  0  0  0  0  0  0
  150.6681  142.5708  157.0142 H   0  0  0  0  0  0  0  0  0  0  0  0
  152.0877  142.0308  156.2023 H   0  0  0  0  0  0  0  0  0  0  0  0
  150.5601  136.7381  154.0335 H   0  0  0  0  0  0  0  0  0  0  0  0
  152.1748  137.2607  154.5081 H   0  0  0  0  0  0  0  0  0  0  0  0
  151.2825  138.1504  153.2672 H   0  0  0  0  0  0  0  0  0  0  0  0
  148.9496  137.2983  155.6675 H   0  0  0  0  0  0  0  0  0  0  0  0
  147.8663  138.5138  158.6789 H   0  0  0  0  0  0  0  0  0  0  0  0
  147.7342  136.7677  156.3320 H   0  0  0  0  0  0  0  0  0  0  0  0
  147.0739  136.5103  157.9509 H   0  0  0  0  0  0  0  0  0  0  0  0
  145.7165  137.6978  155.5307 H   0  0  0  0  0  0  0  0  0  0  0  0
  143.9651  136.6982  156.5149 H   0  0  0  0  0  0  0  0  0  0  0  0
  145.0529  138.6420  158.3657 H   0  0  0  0  0  0  0  0  0  0  0  0
  143.4234  139.2227  156.4810 H   0  0  0  0  0  0  0  0  0  0  0  0
  144.1486  140.6429  157.2133 H   0  0  0  0  0  0  0  0  0  0  0  0
  144.1294  140.1621  154.7486 H   0  0  0  0  0  0  0  0  0  0  0  0
  150.7966  144.1117  158.0060 H   0  0  0  0  0  0  0  0  0  0  0  0
  150.7538  145.9983  159.5784 H   0  0  0  0  0  0  0  0  0  0  0  0
  152.0140  145.8917  161.7169 H   0  0  0  0  0  0  0  0  0  0  0  0
  153.3345  143.8672  162.2835 H   0  0  0  0  0  0  0  0  0  0  0  0
  154.0417  141.7059  161.6550 H   0  0  0  0  0  0  0  0  0  0  0  0
  1  2  1  0  0  0  0
  1 30  1  0  0  0  0
  1 31  1  0  0  0  0
  1 32  1  0  0  0  0
  2 29  1  0  0  0  0
  2  3  2  0  0  0  0
  3  4  1  0  0  0  0
  3 33  1  0  0  0  0
  4  5  1  0  0  0  0
  4 23  2  0  0  0  0
  5  6  1  0  0  0  0
  5 34  1  0  0  0  0
  5 35  1  0  0  0  0
  6 21  1  0  0  0  0
  6  7  1  0  0  0  0
  7  8  2  0  0  0  0
  7  9  1  0  0  0  0
  9 10  1  0  0  0  0
  9 11  2  0  0  0  0
 10 36  1  0  0  0  0
 10 37  1  0  0  0  0
 10 38  1  0  0  0  0
 11 12  1  0  0  0  0
 11 39  1  0  0  0  0
 12 13  1  0  0  0  0
 12 21  1  0  0  0  0
 13 20  1  0  0  0  0
 13 14  1  0  0  0  0
 13 40  1  0  0  0  0
 14 15  1  0  0  0  0
 14 41  1  0  0  0  0
 14 42  1  0  0  0  0
 15 16  1  0  0  0  0
 15 17  1  0  0  0  0
 15 43  1  0  0  0  0
 16 44  1  0  0  0  0
 17 18  1  0  0  0  0
 17 20  1  0  0  0  0
 17 45  1  0  0  0  0
 18 19  1  0  0  0  0
 18 46  1  0  0  0  0
 18 47  1  0  0  0  0
 19 48  1  0  0  0  0
 21 22  2  0  0  0  0
 23 28  1  0  0  0  0
 23 24  1  0  0  0  0
 24 25  2  0  0  0  0
 24 49  1  0  0  0  0
 25 26  1  0  0  0  0
 25 50  1  0  0  0  0
 26 27  2  0  0  0  0
 26 51  1  0  0  0  0
 27 28  1  0  0  0  0
 27 52  1  0  0  0  0
 28 29  2  0  0  0  0
 29 53  1  0  0  0  0
M  CHG  1  29   1
M  END
> <s_m_source_file>
AV-unprocessed.smi

> <i_m_source_file_index>
113

> <i_lp_mmshare_version>
43012

> <i_f3d_flags>
0

> <s_epik_input>
W2NIXTFbY0hdW2NIXVtjSF1jKGMxMiluYyhbQ0gzXSlbY0hdYzJbQ0gyXW4zYyg9TyljKFtDSDNdKVtjSF1uKGMzPU8pW0NAQEhdNFtDSDJdW0NAQEhdKFtPSF0pW0NASF0oTzQpW0NIMl1bT0hd

> <s_epik_cmdline>
J2VwaWtfcHl0aG9uJywgJy1waCcsICc3LjAnLCAnLXRuJywgJzgnLCAnLW1hJywgJzIwMCcsICctbWV0YWxfYmluZGluZycsICctaW1hZScsICc8aW5maWxlLm1hZT4nLCAnLW9tYWUnLCAnPG91dGZpbGUubWFlPic=

> <r_lp_tautomer_probability>
1

> <r_epik_Ionization_Penalty>
0.705471

> <r_epik_Ionization_Penalty_Charging>
0.70547

> <r_epik_Ionization_Penalty_Neutral>
1.19947e-07

> <r_epik_State_Penalty>
0.728574

> <r_epik_Charging_Adjusted_Penalty>
1.43404

> <i_epik_Tot_Q>
1

> <i_epik_Tot_abs_Q>
1

> <r_epik_Metal_State_Penalty>
4.61665

> <b_epik_Metal_Only>
0

> <s_epik_Chemistry_Notes>
This compound contains an acetal/aminal-like group ( X-CH(R)-Y where X, Y are N, S, or O) that may be acid/base labile, releasing an aldehyde.

> <s_lp_Force_Field>
OPLS_2005

> <r_lp_Energy>
37.5737

> <b_lp_Chiralities_Consistent>
1

> <s_lp_Variant>
AV-unprocessed.smi:113-13

> <Gold.Version>
5.8.1

> <Gold.Id.Protein>
6NUR|6NUR_protein|mol2

> <Gold.PLP.Fitness>
49.4916

> <Gold.PLP.PLP>
-43.5990

> <Gold.PLP.part.hbond>
-2.9314

> <Gold.PLP.part.metal>
0.0000

> <Gold.PLP.part.buried>
-5.1621

> <Gold.PLP.part.nonpolar>
-35.1987

> <Gold.PLP.part.repulsive>
0.0935

> <Gold.PLP.ligand.clash>
0.0000

> <Gold.PLP.ligand.torsion>
0.4561

> <Gold.PLP.Chemscore.Hbond>
2.2582

> <Gold.PLP.Chemscore.CHOScore>
0.0000

> <Gold.PLP.Chemscore.Metal>
0.0000

> <Gold.Chemscore.Hbonds>
donor molecule, donor type, donor heavy atom, donor atom, acceptor molecule, acceptor atom, score
      L1  H    19    48       P1 10175  0.24
      P1  H  7989  7998       L1     8  0.58
      P1  H  7997  8010       L1     8  0.54

> <Gold.PLP.Chemscore.Internal.Correction>
0.0301

> <Gold.Rescore>
     Score         DG    S(hbond)    S(metal)    S(lipo)     H(rot)  DE(clash)    DE(int)     intcor
     17.36     -18.46       1.89        0.00     122.81       3.01       0.31       0.79       ----

> <Gold.Chemscore.Fitness>
17.3644

> <Gold.Chemscore.DG>
-18.4604

> <Gold.Chemscore.ZeroCoef>
-5.4800

> <Gold.Chemscore.Hbond>
1.8929

> <Gold.Chemscore.Metal>
0.0000

> <Gold.Chemscore.Lipo>
122.8098

> <Gold.Chemscore.Internal_Hbond>
0.0000

> <Gold.Chemscore.DEClash>
0.3100

> <Gold.Chemscore.DEInternal>
0.7859

> <Gold.Chemscore.Rot>
3.0120

> <Gold.Chemscore.Internal.Correction>
   9.000000E+99

> <Gold.Chemscore.Hbonds>
donor molecule, donor type, donor heavy atom, donor atom, acceptor molecule, acceptor atom, score
      L1  H    19    48       P1 10175  0.24
      P1  H  7989  7998       L1     8  0.13
      P1  H  7997  8010       L1     8  0.54

> <Gold.Chemscore.Hbond.Weighted>
-6.3224

> <Gold.Chemscore.Metal.Weighted>
-0.0000

> <Gold.Chemscore.Lipo.Weighted>
-14.3687

> <Gold.Chemscore.Internal_Hbond.Weighted>
0.0000

> <Gold.Chemscore.DEClash.Weighted>
0.3100

> <Gold.Chemscore.DEInternal.Weighted>
0.7859

> <Gold.Chemscore.Rot.Weighted>
7.7108

> <Gold.Chemscore.Internal.Correction.Weighted>
   9.000000E+99

> <Gold.Protein.RotatedTorsions>
[ 6907 6896 6895 6894 ] final  -55.69 input  -60.11 | X-H torsion
[ 7974 7965 7964 7962 ] final  148.76 input  175.53 | X-H torsion
[ 8008 7997 7996 7995 ] final   97.08 input   59.86 | X-H torsion
[ 10167 10162 10161 10158 ] final  125.72 input  -65.29 | X-H torsion
[ 10718 10713 10712 10709 ] final  119.50 input   66.30 | X-H torsion
[ 10763 10752 10751 10750 ] final -128.95 input  -60.55 | X-H torsion
[ 11005 11000 10999 10996 ] final -133.58 input  -57.11 | X-H torsion

> <Gold.Protein.ActiveResidues>
 VAL166  LYS551  ARG553  GLY616  TRP617  ASP618  TYR619  PRO620  LYS621  CYS622 
 ASP623  PHE694  ASN695  SER759  ASP760  ASP761  ALA762  ILE779  LEU786  VAL792 
 PHE793  MET794  SER795  GLU796  ALA797  LYS798  CYS799  TRP800  GLU811  SER814 

> <Gold.Protein.RotatedAtoms>
  150.8230  134.7447  159.6788 H   0  0  0  0  0  0  0  0  0  0  0  0  # atno 6907 bound_to 6896
  152.4344  134.5712  159.9931 H   0  0  0  0  0  0  0  0  0  0  0  0  # atno 6908 bound_to 6896
  151.5891  133.3331  159.3060 H   0  0  0  0  0  0  0  0  0  0  0  0  # atno 6909 bound_to 6896
  144.8489  139.6195  143.5983 H   0  0  0  0  0  0  0  0  0  0  0  0  # atno 7974 bound_to 7965
  156.0864  140.3263  155.7759 H   0  0  0  0  0  0  0  0  0  0  0  0  # atno 8008 bound_to 7997
  155.5068  140.0574  157.2947 H   0  0  0  0  0  0  0  0  0  0  0  0  # atno 8009 bound_to 7997
  154.4612  140.1967  156.0257 H   0  0  0  0  0  0  0  0  0  0  0  0  # atno 8010 bound_to 7997
  139.5670  144.6917  151.3883 H   0  0  0  0  0  0  0  0  0  0  0  0  # atno 10167 bound_to 10162
  157.5957  131.1058  150.7904 H   0  0  0  0  0  0  0  0  0  0  0  0  # atno 10718 bound_to 10713
  154.8757  135.3911  154.3840 H   0  0  0  0  0  0  0  0  0  0  0  0  # atno 10763 bound_to 10752
  153.4584  135.7029  153.6070 H   0  0  0  0  0  0  0  0  0  0  0  0  # atno 10764 bound_to 10752
  153.4580  135.3818  155.2290 H   0  0  0  0  0  0  0  0  0  0  0  0  # atno 10765 bound_to 10752
  140.9068  134.1619  157.4419 H   0  0  0  0  0  0  0  0  0  0  0  0  # atno 11005 bound_to 11000
  146.2768  139.6773  142.9257 LP  0  0  0  0  0  0  0  0  0  0  0  0  # atno 17320 bound_to 7965
  145.4541  141.0430  143.2788 LP  0  0  0  0  0  0  0  0  0  0  0  0  # atno 17321 bound_to 7965
  140.6954  143.7763  150.7318 LP  0  0  0  0  0  0  0  0  0  0  0  0  # atno 17342 bound_to 10162
  140.1257  143.4571  152.2285 LP  0  0  0  0  0  0  0  0  0  0  0  0  # atno 17343 bound_to 10162
  156.8315  130.5017  149.5331 LP  0  0  0  0  0  0  0  0  0  0  0  0  # atno 17370 bound_to 10713
  156.1020  130.5976  150.9909 LP  0  0  0  0  0  0  0  0  0  0  0  0  # atno 17371 bound_to 10713
  139.8751  134.9920  156.5575 LP  0  0  0  0  0  0  0  0  0  0  0  0  # atno 17394 bound_to 11000
  140.8161  133.8391  155.8853 LP  0  0  0  0  0  0  0  0  0  0  0  0  # atno 17395 bound_to 11000

$$$$
