AV-unprocessed.smi:286|AV-procd|sdf|2176|dock7
  -GOLD-   2262021543D 1   1.00000     0.00000
 Structure written by MMmdl.
 46 48  0  0  0  0  0  0  0  0  1 V2000
  154.9219  140.6041  163.1521 O   0  0  0  0  0  0  0  0  0  0  0  0
  154.1937  141.3614  162.5084 C   0  0  0  0  0  0  0  0  0  0  0  0
  154.0645  141.3037  161.0561 C   0  0  0  0  0  0  0  0  0  0  0  0
  154.7845  140.4075  160.3601 F   0  0  0  0  0  0  0  0  0  0  0  0
  153.2353  142.1400  160.3952 C   0  0  0  0  0  0  0  0  0  0  0  0
  152.4556  143.0904  161.0326 N   0  0  0  0  0  0  0  0  0  0  0  0
  151.5401  144.0047  160.2503 C   0  0  1  0  0  0  0  0  0  0  0  0
  152.3637  145.0082  159.4343 C   0  0  0  0  0  0  0  0  0  0  0  0
  152.4142  144.3432  158.0756 C   0  0  0  0  0  0  0  0  0  0  0  0
  151.0509  143.6648  158.0166 C   0  0  0  0  0  0  0  0  0  0  0  0
  150.7911  143.2383  159.3508 O   0  0  0  0  0  0  0  0  0  0  0  0
  152.5305  143.2315  162.4353 C   0  0  0  0  0  0  0  0  0  0  0  0
  151.8541  144.0785  163.0242 O   0  0  0  0  0  0  0  0  0  0  0  0
  153.4066  142.3629  163.1289 N   0  0  0  0  0  0  0  0  0  0  0  0
  153.4698  142.4828  164.5764 C   0  0  0  0  0  0  0  0  0  0  0  0
  154.9104  142.6410  165.1163 C   0  0  1  0  0  0  0  0  0  0  0  0
  155.2571  144.0127  165.1061 O   0  0  0  0  0  0  0  0  0  0  0  0
  155.0734  142.0822  166.5512 C   0  0  0  0  0  0  0  0  0  0  0  0
  154.7880  140.5660  166.6678 C   0  0  0  0  0  0  0  0  0  0  0  0
  155.0173  140.0566  168.1002 C   0  0  0  0  0  0  0  0  0  0  0  0
  154.1817  140.8495  169.1167 C   0  0  0  0  0  0  0  0  0  0  0  0
  154.4650  142.3559  169.0118 C   0  0  0  0  0  0  0  0  0  0  0  0
  154.2326  142.8687  167.5810 C   0  0  0  0  0  0  0  0  0  0  0  0
  153.1889  142.0535  159.3198 H   0  0  0  0  0  0  0  0  0  0  0  0
  150.8712  144.4690  160.9765 H   0  0  0  0  0  0  0  0  0  0  0  0
  151.8119  145.9474  159.3795 H   0  0  0  0  0  0  0  0  0  0  0  0
  153.3437  145.1991  159.8735 H   0  0  0  0  0  0  0  0  0  0  0  0
  152.5763  145.0476  157.2594 H   0  0  0  0  0  0  0  0  0  0  0  0
  153.2102  143.5979  158.0478 H   0  0  0  0  0  0  0  0  0  0  0  0
  150.2829  144.3812  157.7216 H   0  0  0  0  0  0  0  0  0  0  0  0
  151.0253  142.8295  157.3164 H   0  0  0  0  0  0  0  0  0  0  0  0
  152.8108  143.2921  164.8952 H   0  0  0  0  0  0  0  0  0  0  0  0
  152.9959  141.5838  164.9745 H   0  0  0  0  0  0  0  0  0  0  0  0
  155.6064  142.1117  164.4641 H   0  0  0  0  0  0  0  0  0  0  0  0
  154.4657  144.5228  165.1852 H   0  0  0  0  0  0  0  0  0  0  0  0
  156.1187  142.2342  166.8258 H   0  0  0  0  0  0  0  0  0  0  0  0
  153.7595  140.3536  166.3734 H   0  0  0  0  0  0  0  0  0  0  0  0
  155.4252  140.0043  165.9846 H   0  0  0  0  0  0  0  0  0  0  0  0
  154.7682  138.9969  168.1609 H   0  0  0  0  0  0  0  0  0  0  0  0
  156.0753  140.1399  168.3524 H   0  0  0  0  0  0  0  0  0  0  0  0
  153.1210  140.6639  168.9425 H   0  0  0  0  0  0  0  0  0  0  0  0
  154.3956  140.4999  170.1273 H   0  0  0  0  0  0  0  0  0  0  0  0
  153.8304  142.9025  169.7099 H   0  0  0  0  0  0  0  0  0  0  0  0
  155.4953  142.5560  169.3094 H   0  0  0  0  0  0  0  0  0  0  0  0
  154.4787  143.9300  167.5325 H   0  0  0  0  0  0  0  0  0  0  0  0
  153.1723  142.7872  167.3392 H   0  0  0  0  0  0  0  0  0  0  0  0
  1  2  2  0  0  0  0
  2 14  1  0  0  0  0
  2  3  1  0  0  0  0
  3  4  1  0  0  0  0
  3  5  2  0  0  0  0
  5  6  1  0  0  0  0
  5 24  1  0  0  0  0
  6  7  1  0  0  0  0
  6 12  1  0  0  0  0
  7 11  1  0  0  0  0
  7  8  1  0  0  0  0
  7 25  1  0  0  0  0
  8  9  1  0  0  0  0
  8 26  1  0  0  0  0
  8 27  1  0  0  0  0
  9 10  1  0  0  0  0
  9 28  1  0  0  0  0
  9 29  1  0  0  0  0
 10 11  1  0  0  0  0
 10 30  1  0  0  0  0
 10 31  1  0  0  0  0
 12 13  2  0  0  0  0
 12 14  1  0  0  0  0
 14 15  1  0  0  0  0
 15 16  1  0  0  0  0
 15 32  1  0  0  0  0
 15 33  1  0  0  0  0
 16 17  1  0  0  0  0
 16 18  1  0  0  0  0
 16 34  1  0  0  0  0
 17 35  1  0  0  0  0
 18 23  1  0  0  0  0
 18 19  1  0  0  0  0
 18 36  1  0  0  0  0
 19 20  1  0  0  0  0
 19 37  1  0  0  0  0
 19 38  1  0  0  0  0
 20 21  1  0  0  0  0
 20 39  1  0  0  0  0
 20 40  1  0  0  0  0
 21 22  1  0  0  0  0
 21 41  1  0  0  0  0
 21 42  1  0  0  0  0
 22 23  1  0  0  0  0
 22 43  1  0  0  0  0
 22 44  1  0  0  0  0
 23 45  1  0  0  0  0
 23 46  1  0  0  0  0
M  END
> <s_m_source_file>
AV-unprocessed.smi

> <i_m_source_file_index>
286

> <i_lp_mmshare_version>
43012

> <i_f3d_flags>
0

> <s_epik_input>
TzFbQ0gyXVtDSDJdW0NIMl1bQ0BIXTFuKFtjSF1jKEYpYzI9TyljKD1PKW4yW0NIMl1bQ0BIXShbT0hdKVtDSF0zW0NIMl1bQ0gyXVtDSDJdW0NIMl1bQ0gyXTM=

> <s_epik_cmdline>
J2VwaWtfcHl0aG9uJywgJy1waCcsICc3LjAnLCAnLXRuJywgJzgnLCAnLW1hJywgJzIwMCcsICctbWV0YWxfYmluZGluZycsICctaW1hZScsICc8aW5maWxlLm1hZT4nLCAnLW9tYWUnLCAnPG91dGZpbGUubWFlPic=

> <r_lp_tautomer_probability>
1

> <r_epik_Ionization_Penalty>
3.15564e-07

> <r_epik_Ionization_Penalty_Charging>
2.06416e-08

> <r_epik_Ionization_Penalty_Neutral>
2.94923e-07

> <r_epik_State_Penalty>
-0

> <r_epik_Charging_Adjusted_Penalty>
2.06416e-08

> <i_epik_Tot_Q>
0

> <i_epik_Tot_abs_Q>
0

> <r_epik_Metal_State_Penalty>
-0

> <b_epik_Metal_Only>
0

> <s_epik_Chemistry_Notes>
This compound contains an acetal/aminal-like group ( X-CH(R)-Y where X, Y are N, S, or O) that may be acid/base labile, releasing an aldehyde.

> <s_lp_Force_Field>
OPLS_2005

> <r_lp_Energy>
42.0749

> <b_lp_Chiralities_Consistent>
1

> <s_lp_Variant>
AV-unprocessed.smi:286-4

> <Gold.Version>
5.8.1

> <Gold.Id.Protein>
6NUR|6NUR_protein|mol2

> <Gold.PLP.Fitness>
49.7607

> <Gold.PLP.PLP>
-50.9600

> <Gold.PLP.part.hbond>
-3.6410

> <Gold.PLP.part.metal>
0.0000

> <Gold.PLP.part.buried>
1.4709

> <Gold.PLP.part.nonpolar>
-53.0329

> <Gold.PLP.part.repulsive>
5.5612

> <Gold.PLP.ligand.clash>
0.0000

> <Gold.PLP.ligand.torsion>
0.6310

> <Gold.PLP.Chemscore.Hbond>
0.0000

> <Gold.PLP.Chemscore.CHOScore>
0.0000

> <Gold.PLP.Chemscore.Metal>
0.0000

> <Gold.PLP.Chemscore.Internal.Correction>
0.0628

> <Gold.Rescore>
     Score         DG    S(hbond)    S(metal)    S(lipo)     H(rot)  DE(clash)    DE(int)     intcor
      6.41     -13.45       0.00        0.00     117.91       2.28       6.00       1.04       ----

> <Gold.Chemscore.Fitness>
6.4073

> <Gold.Chemscore.DG>
-13.4504

> <Gold.Chemscore.ZeroCoef>
-5.4800

> <Gold.Chemscore.Hbond>
0.0000

> <Gold.Chemscore.Metal>
0.0000

> <Gold.Chemscore.Lipo>
117.9128

> <Gold.Chemscore.Internal_Hbond>
0.0000

> <Gold.Chemscore.DEClash>
6.0043

> <Gold.Chemscore.DEInternal>
1.0388

> <Gold.Chemscore.Rot>
2.2756

> <Gold.Chemscore.Internal.Correction>
   9.000000E+99

> <Gold.Chemscore.Hbond.Weighted>
-0.0000

> <Gold.Chemscore.Metal.Weighted>
-0.0000

> <Gold.Chemscore.Lipo.Weighted>
-13.7958

> <Gold.Chemscore.Internal_Hbond.Weighted>
0.0000

> <Gold.Chemscore.DEClash.Weighted>
6.0043

> <Gold.Chemscore.DEInternal.Weighted>
1.0388

> <Gold.Chemscore.Rot.Weighted>
5.8254

> <Gold.Chemscore.Internal.Correction.Weighted>
   9.000000E+99

> <Gold.Protein.RotatedTorsions>
[ 6907 6896 6895 6894 ] final   20.95 input  -60.11 | X-H torsion
[ 7974 7965 7964 7962 ] final  -17.50 input  175.53 | X-H torsion
[ 8008 7997 7996 7995 ] final   16.22 input   59.86 | X-H torsion
[ 10167 10162 10161 10158 ] final -105.32 input  -65.29 | X-H torsion
[ 10718 10713 10712 10709 ] final   88.46 input   66.30 | X-H torsion
[ 10763 10752 10751 10750 ] final -136.23 input  -60.55 | X-H torsion
[ 11005 11000 10999 10996 ] final  119.06 input  -57.11 | X-H torsion

> <Gold.Protein.ActiveResidues>
 VAL166  LYS551  ARG553  GLY616  TRP617  ASP618  TYR619  PRO620  LYS621  CYS622 
 ASP623  PHE694  ASN695  SER759  ASP760  ASP761  ALA762  ILE779  LEU786  VAL792 
 PHE793  MET794  SER795  GLU796  ALA797  LYS798  CYS799  TRP800  GLU811  SER814 

> <Gold.Protein.RotatedAtoms>
  151.9044  135.0365  160.0508 H   0  0  0  0  0  0  0  0  0  0  0  0  # atno 6907 bound_to 6896
  152.2332  133.5070  159.5236 H   0  0  0  0  0  0  0  0  0  0  0  0  # atno 6908 bound_to 6896
  150.7031  134.1105  159.4041 H   0  0  0  0  0  0  0  0  0  0  0  0  # atno 6909 bound_to 6896
  146.1938  140.3788  142.8448 H   0  0  0  0  0  0  0  0  0  0  0  0  # atno 7974 bound_to 7965
  154.8739  140.2963  155.5465 H   0  0  0  0  0  0  0  0  0  0  0  0  # atno 8008 bound_to 7997
  156.3022  140.2455  156.3665 H   0  0  0  0  0  0  0  0  0  0  0  0  # atno 8009 bound_to 7997
  154.8788  140.0398  157.1759 H   0  0  0  0  0  0  0  0  0  0  0  0  # atno 8010 bound_to 7997
  140.1997  143.3828  152.1139 H   0  0  0  0  0  0  0  0  0  0  0  0  # atno 10167 bound_to 10162
  157.6949  131.0295  150.3278 H   0  0  0  0  0  0  0  0  0  0  0  0  # atno 10718 bound_to 10713
  154.8688  135.3679  154.5028 H   0  0  0  0  0  0  0  0  0  0  0  0  # atno 10763 bound_to 10752
  153.5667  135.7021  153.5527 H   0  0  0  0  0  0  0  0  0  0  0  0  # atno 10764 bound_to 10752
  153.3578  135.4054  155.1659 H   0  0  0  0  0  0  0  0  0  0  0  0  # atno 10765 bound_to 10752
  139.9132  134.9625  156.7598 H   0  0  0  0  0  0  0  0  0  0  0  0  # atno 11005 bound_to 11000
  144.8539  140.7041  143.6151 LP  0  0  0  0  0  0  0  0  0  0  0  0  # atno 17320 bound_to 7965
  145.3709  139.1659  143.4332 LP  0  0  0  0  0  0  0  0  0  0  0  0  # atno 17321 bound_to 7965
  139.5222  144.7056  151.5365 LP  0  0  0  0  0  0  0  0  0  0  0  0  # atno 17342 bound_to 10162
  140.6399  143.8911  150.6681 LP  0  0  0  0  0  0  0  0  0  0  0  0  # atno 17343 bound_to 10162
  156.3756  130.3871  149.7141 LP  0  0  0  0  0  0  0  0  0  0  0  0  # atno 17370 bound_to 10713
  156.4541  130.7921  151.2942 LP  0  0  0  0  0  0  0  0  0  0  0  0  # atno 17371 bound_to 10713
  140.6706  133.9563  155.7854 LP  0  0  0  0  0  0  0  0  0  0  0  0  # atno 17394 bound_to 11000
  141.0580  134.0388  157.3697 LP  0  0  0  0  0  0  0  0  0  0  0  0  # atno 17395 bound_to 11000

$$$$
