AV-unprocessed.smi:1386|AV-procd|sdf|5638|dock10
  -GOLD-   22720 5253D 1   1.00000     0.00000
 Structure written by MMmdl.
 35 36  0  0  0  0  0  0  0  0  1 V2000
  148.9773  140.1501  157.6834 C   0  0  0  0  0  0  0  0  0  0  0  0
  149.4875  141.4911  157.1353 C   0  0  2  0  0  0  0  0  0  0  0  0
  149.8431  141.3942  155.6395 C   0  0  0  0  0  0  0  0  0  0  0  0
  148.6928  141.0500  154.8239 N   0  0  0  0  0  0  0  0  0  0  0  0
  147.5661  141.8277  154.5928 C   0  0  0  0  0  0  0  0  0  0  0  0
  146.7522  141.1005  153.7539 C   0  0  0  0  0  0  0  0  0  0  0  0
  147.3536  139.8793  153.4590 N   0  0  0  0  0  0  0  0  0  0  0  0
  148.4976  139.9204  154.1293 C   0  0  0  0  0  0  0  0  0  0  0  0
  150.6567  141.9255  157.8968 N   0  0  0  0  0  0  0  0  0  0  0  0
  150.7286  143.0162  158.6786 C   0  0  0  0  0  0  0  0  0  0  0  0
  149.7595  143.7524  158.8685 O   0  0  0  0  0  0  0  0  0  0  0  0
  151.9514  143.2417  159.2232 N   0  0  0  0  0  0  0  0  0  0  0  0
  153.1180  142.3475  159.1346 C   0  0  0  0  0  0  0  0  0  0  0  0
  153.2049  141.5077  160.4195 C   0  0  0  0  0  0  0  0  0  0  0  0
  153.4656  142.5705  161.8740 S   0  0  0  0  0  0  0  0  0  0  0  0
  152.1448  143.7934  161.6021 C   0  0  0  0  0  0  0  0  0  0  0  0
  152.1847  144.3423  160.1657 C   0  0  0  0  0  0  0  0  0  0  0  0
  148.0911  139.8176  157.1424 H   0  0  0  0  0  0  0  0  0  0  0  0
  148.7066  140.2312  158.7366 H   0  0  0  0  0  0  0  0  0  0  0  0
  149.7340  139.3699  157.5929 H   0  0  0  0  0  0  0  0  0  0  0  0
  148.6882  142.2269  157.2428 H   0  0  0  0  0  0  0  0  0  0  0  0
  150.2615  142.3354  155.2795 H   0  0  0  0  0  0  0  0  0  0  0  0
  150.6072  140.6320  155.4827 H   0  0  0  0  0  0  0  0  0  0  0  0
  147.4420  142.8078  155.0292 H   0  0  0  0  0  0  0  0  0  0  0  0
  145.7880  141.3605  153.3427 H   0  0  0  0  0  0  0  0  0  0  0  0
  149.2147  139.1129  154.1087 H   0  0  0  0  0  0  0  0  0  0  0  0
  151.4934  141.3703  157.7938 H   0  0  0  0  0  0  0  0  0  0  0  0
  153.0935  141.6947  158.2619 H   0  0  0  0  0  0  0  0  0  0  0  0
  154.0282  142.9368  159.0145 H   0  0  0  0  0  0  0  0  0  0  0  0
  152.2914  140.9285  160.5589 H   0  0  0  0  0  0  0  0  0  0  0  0
  154.0283  140.7963  160.3548 H   0  0  0  0  0  0  0  0  0  0  0  0
  151.1801  143.3266  161.8042 H   0  0  0  0  0  0  0  0  0  0  0  0
  152.2646  144.6033  162.3217 H   0  0  0  0  0  0  0  0  0  0  0  0
  153.1502  144.8097  159.9676 H   0  0  0  0  0  0  0  0  0  0  0  0
  151.4497  145.1407  160.0527 H   0  0  0  0  0  0  0  0  0  0  0  0
  1  2  1  0  0  0  0
  1 18  1  0  0  0  0
  1 19  1  0  0  0  0
  1 20  1  0  0  0  0
  2  3  1  0  0  0  0
  2  9  1  0  0  0  0
  2 21  1  0  0  0  0
  3  4  1  0  0  0  0
  3 22  1  0  0  0  0
  3 23  1  0  0  0  0
  4  8  1  0  0  0  0
  4  5  1  0  0  0  0
  5  6  2  0  0  0  0
  5 24  1  0  0  0  0
  6  7  1  0  0  0  0
  6 25  1  0  0  0  0
  7  8  2  0  0  0  0
  8 26  1  0  0  0  0
  9 10  1  0  0  0  0
  9 27  1  0  0  0  0
 10 11  2  0  0  0  0
 10 12  1  0  0  0  0
 12 17  1  0  0  0  0
 12 13  1  0  0  0  0
 13 14  1  0  0  0  0
 13 28  1  0  0  0  0
 13 29  1  0  0  0  0
 14 15  1  0  0  0  0
 14 30  1  0  0  0  0
 14 31  1  0  0  0  0
 15 16  1  0  0  0  0
 16 17  1  0  0  0  0
 16 32  1  0  0  0  0
 16 33  1  0  0  0  0
 17 34  1  0  0  0  0
 17 35  1  0  0  0  0
M  END
> <s_m_source_file>
AV-unprocessed.smi

> <i_m_source_file_index>
1386

> <i_lp_mmshare_version>
43012

> <i_f3d_flags>
0

> <s_epik_input>
W2NIXTFuW2NIXVtjSF1uMVtDSDJdW0NAQEhdKFtDSDNdKVtOSF1DKD1PKU4yW0NIMl1bQ0gyXVNbQ0gyXVtDSDJdMg==

> <s_epik_cmdline>
J2VwaWtfcHl0aG9uJywgJy1waCcsICc3LjAnLCAnLXRuJywgJzgnLCAnLW1hJywgJzIwMCcsICctbWV0YWxfYmluZGluZycsICctaW1hZScsICc8aW5maWxlLm1hZT4nLCAnLW9tYWUnLCAnPG91dGZpbGUubWFlPic=

> <r_lp_tautomer_probability>
1

> <r_epik_Ionization_Penalty>
0.622677

> <r_epik_Ionization_Penalty_Charging>
0.62263

> <r_epik_Ionization_Penalty_Neutral>
4.67019e-05

> <r_epik_State_Penalty>
0.63879

> <r_epik_Charging_Adjusted_Penalty>
1.26142

> <i_epik_Tot_Q>
0

> <i_epik_Tot_abs_Q>
0

> <r_epik_Metal_State_Penalty>
0.307117

> <b_epik_Metal_Only>
0

> <s_lp_Force_Field>
OPLS_2005

> <r_lp_Energy>
25.5009

> <b_lp_Chiralities_Consistent>
1

> <s_lp_Variant>
AV-unprocessed.smi:1386-3

> <Gold.Version>
5.8.1

> <Gold.Id.Protein>
6NUR|6NUR_protein|mol2

> <Gold.PLP.Fitness>
43.8942

> <Gold.PLP.PLP>
-38.9508

> <Gold.PLP.part.hbond>
0.0000

> <Gold.PLP.part.metal>
0.0000

> <Gold.PLP.part.buried>
-4.8030

> <Gold.PLP.part.nonpolar>
-34.8981

> <Gold.PLP.part.repulsive>
0.4237

> <Gold.PLP.ligand.clash>
0.0000

> <Gold.PLP.ligand.torsion>
0.0760

> <Gold.PLP.Chemscore.Hbond>
0.0000

> <Gold.PLP.Chemscore.CHOScore>
1.6863

> <Gold.PLP.Chemscore.Metal>
0.0000

> <Gold.Chemscore.Hbonds>
donor molecule, donor type, donor heavy atom, donor atom, acceptor molecule, acceptor atom, score
      L1  C     5    24       P1  8028  1.00
      L1  C     6    25       P1 10175  0.93

> <Gold.PLP.Chemscore.Internal.Correction>
0.0366

> <Gold.Rescore>
     Score         DG    S(hbond)    S(metal)    S(lipo)     H(rot)  DE(clash)    DE(int)     intcor
     11.26     -11.52       0.00        0.00      86.42       1.59       0.10       0.16       ----

> <Gold.Chemscore.Fitness>
11.2578

> <Gold.Chemscore.DG>
-11.5208

> <Gold.Chemscore.ZeroCoef>
-5.4800

> <Gold.Chemscore.Hbond>
0.0000

> <Gold.Chemscore.Metal>
0.0000

> <Gold.Chemscore.Lipo>
86.4223

> <Gold.Chemscore.Internal_Hbond>
0.0000

> <Gold.Chemscore.DEClash>
0.1008

> <Gold.Chemscore.DEInternal>
0.1622

> <Gold.Chemscore.Rot>
1.5901

> <Gold.Chemscore.Internal.Correction>
   9.000000E+99

> <Gold.Chemscore.Hbond.Weighted>
-0.0000

> <Gold.Chemscore.Metal.Weighted>
-0.0000

> <Gold.Chemscore.Lipo.Weighted>
-10.1114

> <Gold.Chemscore.Internal_Hbond.Weighted>
0.0000

> <Gold.Chemscore.DEClash.Weighted>
0.1008

> <Gold.Chemscore.DEInternal.Weighted>
0.1622

> <Gold.Chemscore.Rot.Weighted>
4.0706

> <Gold.Chemscore.Internal.Correction.Weighted>
   9.000000E+99

> <Gold.Protein.RotatedTorsions>
[ 6907 6896 6895 6894 ] final  -93.97 input  -60.11 | X-H torsion
[ 7974 7965 7964 7962 ] final -135.18 input  175.53 | X-H torsion
[ 8008 7997 7996 7995 ] final  160.02 input   59.86 | X-H torsion
[ 10167 10162 10161 10158 ] final  154.32 input  -65.29 | X-H torsion
[ 10718 10713 10712 10709 ] final -136.79 input   66.30 | X-H torsion
[ 10763 10752 10751 10750 ] final  -38.83 input  -60.55 | X-H torsion
[ 11005 11000 10999 10996 ] final -100.11 input  -57.11 | X-H torsion

> <Gold.Protein.ActiveResidues>
 VAL166  LYS551  ARG553  GLY616  TRP617  ASP618  TYR619  PRO620  LYS621  CYS622 
 ASP623  PHE694  ASN695  SER759  ASP760  ASP761  ALA762  ILE779  LEU786  VAL792 
 PHE793  MET794  SER795  GLU796  ALA797  LYS798  CYS799  TRP800  GLU811  SER814 

> <Gold.Protein.RotatedAtoms>
  150.6932  134.1884  159.4275 H   0  0  0  0  0  0  0  0  0  0  0  0  # atno 6907 bound_to 6896
  151.9856  135.0003  160.0568 H   0  0  0  0  0  0  0  0  0  0  0  0  # atno 6908 bound_to 6896
  152.1715  133.4611  159.4948 H   0  0  0  0  0  0  0  0  0  0  0  0  # atno 6909 bound_to 6896
  144.9037  140.6805  143.5069 H   0  0  0  0  0  0  0  0  0  0  0  0  # atno 7974 bound_to 7965
  156.2200  140.1815  156.7499 H   0  0  0  0  0  0  0  0  0  0  0  0  # atno 8008 bound_to 7997
  154.5851  140.0660  156.9188 H   0  0  0  0  0  0  0  0  0  0  0  0  # atno 8009 bound_to 7997
  155.2434  140.3323  155.4292 H   0  0  0  0  0  0  0  0  0  0  0  0  # atno 8010 bound_to 7997
  139.4824  144.5197  151.7895 H   0  0  0  0  0  0  0  0  0  0  0  0  # atno 10167 bound_to 10162
  156.2810  130.7320  151.1318 H   0  0  0  0  0  0  0  0  0  0  0  0  # atno 10718 bound_to 10713
  153.9193  135.6784  153.4748 H   0  0  0  0  0  0  0  0  0  0  0  0  # atno 10763 bound_to 10752
  153.1037  135.4816  154.8910 H   0  0  0  0  0  0  0  0  0  0  0  0  # atno 10764 bound_to 10752
  154.7486  135.3179  154.8555 H   0  0  0  0  0  0  0  0  0  0  0  0  # atno 10765 bound_to 10752
  141.1283  133.8374  157.1060 H   0  0  0  0  0  0  0  0  0  0  0  0  # atno 11005 bound_to 11000
  145.3572  139.1691  143.4403 LP  0  0  0  0  0  0  0  0  0  0  0  0  # atno 17320 bound_to 7965
  146.3122  140.3631  142.8667 LP  0  0  0  0  0  0  0  0  0  0  0  0  # atno 17321 bound_to 7965
  140.4710  144.1587  150.5918 LP  0  0  0  0  0  0  0  0  0  0  0  0  # atno 17342 bound_to 10162
  140.4382  143.2538  151.9507 LP  0  0  0  0  0  0  0  0  0  0  0  0  # atno 17343 bound_to 10162
  157.7314  131.0608  150.5678 LP  0  0  0  0  0  0  0  0  0  0  0  0  # atno 17370 bound_to 10713
  156.5784  130.4298  149.5988 LP  0  0  0  0  0  0  0  0  0  0  0  0  # atno 17371 bound_to 10713
  140.0304  134.9904  157.0769 LP  0  0  0  0  0  0  0  0  0  0  0  0  # atno 17394 bound_to 11000
  140.4294  134.1796  155.7167 LP  0  0  0  0  0  0  0  0  0  0  0  0  # atno 17395 bound_to 11000

$$$$
