AV-unprocessed.smi:2599|AV-procd|sdf|10180|dock2
  -GOLD-   2272014193D 1   1.00000     0.00000
 Structure written by MMmdl.
 40 41  0  0  0  0  0  0  0  0  1 V2000
  152.4608  130.9957  157.9643 C   0  0  0  0  0  0  0  0  0  0  0  0
  152.5090  132.3687  157.5919 O   0  0  0  0  0  0  0  0  0  0  0  0
  151.5551  132.8399  156.7136 C   0  0  0  0  0  0  0  0  0  0  0  0
  150.5859  131.9512  156.2178 C   0  0  0  0  0  0  0  0  0  0  0  0
  149.6321  132.4602  155.3207 C   0  0  0  0  0  0  0  0  0  0  0  0
  149.6977  133.8336  154.9803 C   0  0  0  0  0  0  0  0  0  0  0  0
  148.7863  134.4007  154.0507 N   0  0  0  0  0  0  0  0  0  0  0  0
  147.4720  134.1555  153.9121 C   0  0  0  0  0  0  0  0  0  0  0  0
  146.8135  133.3961  154.6232 O   0  0  0  0  0  0  0  0  0  0  0  0
  146.9542  134.8612  152.8954 N   0  0  0  0  0  0  0  0  0  0  0  0
  145.5628  134.8257  152.4439 C   0  0  1  0  0  0  0  0  0  0  0  0
  145.2914  136.0977  151.6220 C   0  0  0  0  0  0  0  0  0  0  0  0
  145.2846  133.5143  151.6623 C   0  0  0  0  0  0  0  0  0  0  0  0
  146.2468  133.3164  150.4732 C   0  0  0  0  0  0  0  0  0  0  0  0
  145.8930  132.0540  149.6703 C   0  0  0  0  0  0  0  0  0  0  0  0
  144.5463  132.1236  149.2191 O   0  0  0  0  0  0  0  0  0  0  0  0
  143.6124  132.1736  150.2901 C   0  0  0  0  0  0  0  0  0  0  0  0
  143.8384  133.4434  151.1255 C   0  0  0  0  0  0  0  0  0  0  0  0
  150.6730  134.6237  155.4894 N   0  0  0  0  0  0  0  0  0  0  0  0
  151.5820  134.1453  156.3449 N   0  0  0  0  0  0  0  0  0  0  0  0
  153.2653  130.7833  158.6680 H   0  0  0  0  0  0  0  0  0  0  0  0
  152.5964  130.3438  157.1002 H   0  0  0  0  0  0  0  0  0  0  0  0
  151.5186  130.7484  158.4557 H   0  0  0  0  0  0  0  0  0  0  0  0
  150.5792  130.9116  156.5095 H   0  0  0  0  0  0  0  0  0  0  0  0
  148.8904  131.7961  154.9041 H   0  0  0  0  0  0  0  0  0  0  0  0
  149.1658  135.1327  153.4684 H   0  0  0  0  0  0  0  0  0  0  0  0
  147.5772  135.4632  152.3774 H   0  0  0  0  0  0  0  0  0  0  0  0
  144.8950  134.8454  153.3070 H   0  0  0  0  0  0  0  0  0  0  0  0
  144.2367  136.1976  151.3677 H   0  0  0  0  0  0  0  0  0  0  0  0
  145.8631  136.1022  150.6935 H   0  0  0  0  0  0  0  0  0  0  0  0
  145.5651  136.9911  152.1843 H   0  0  0  0  0  0  0  0  0  0  0  0
  145.4248  132.6760  152.3469 H   0  0  0  0  0  0  0  0  0  0  0  0
  146.2063  134.1861  149.8158 H   0  0  0  0  0  0  0  0  0  0  0  0
  147.2767  133.2331  150.8187 H   0  0  0  0  0  0  0  0  0  0  0  0
  146.5484  131.9666  148.8035 H   0  0  0  0  0  0  0  0  0  0  0  0
  146.0408  131.1558  150.2719 H   0  0  0  0  0  0  0  0  0  0  0  0
  142.6038  132.1730  149.8765 H   0  0  0  0  0  0  0  0  0  0  0  0
  143.7020  131.2789  150.9083 H   0  0  0  0  0  0  0  0  0  0  0  0
  143.1179  133.4595  151.9434 H   0  0  0  0  0  0  0  0  0  0  0  0
  143.6305  134.3211  150.5119 H   0  0  0  0  0  0  0  0  0  0  0  0
  1  2  1  0  0  0  0
  1 21  1  0  0  0  0
  1 22  1  0  0  0  0
  1 23  1  0  0  0  0
  2  3  1  0  0  0  0
  3 20  1  0  0  0  0
  3  4  2  0  0  0  0
  4  5  1  0  0  0  0
  4 24  1  0  0  0  0
  5  6  2  0  0  0  0
  5 25  1  0  0  0  0
  6  7  1  0  0  0  0
  6 19  1  0  0  0  0
  7  8  1  0  0  0  0
  7 26  1  0  0  0  0
  8  9  2  0  0  0  0
  8 10  1  0  0  0  0
 10 11  1  0  0  0  0
 10 27  1  0  0  0  0
 11 12  1  0  0  0  0
 11 13  1  0  0  0  0
 11 28  1  0  0  0  0
 12 29  1  0  0  0  0
 12 30  1  0  0  0  0
 12 31  1  0  0  0  0
 13 18  1  0  0  0  0
 13 14  1  0  0  0  0
 13 32  1  0  0  0  0
 14 15  1  0  0  0  0
 14 33  1  0  0  0  0
 14 34  1  0  0  0  0
 15 16  1  0  0  0  0
 15 35  1  0  0  0  0
 15 36  1  0  0  0  0
 16 17  1  0  0  0  0
 17 18  1  0  0  0  0
 17 37  1  0  0  0  0
 17 38  1  0  0  0  0
 18 39  1  0  0  0  0
 18 40  1  0  0  0  0
 19 20  2  0  0  0  0
M  END
> <s_m_source_file>
AV-unprocessed.smi

> <i_m_source_file_index>
2599

> <i_lp_mmshare_version>
43012

> <i_f3d_flags>
0

> <s_epik_input>
W0NIM11PYzFbY0hdW2NIXWMobm4xKVtOSF1DKD1PKVtOSF1bQ0BIXShbQ0gzXSlbQ0hdMltDSDJdW0NIMl1PW0NIMl1bQ0gyXTI=

> <s_epik_cmdline>
J2VwaWtfcHl0aG9uJywgJy1waCcsICc3LjAnLCAnLXRuJywgJzgnLCAnLW1hJywgJzIwMCcsICctbWV0YWxfYmluZGluZycsICctaW1hZScsICc8aW5maWxlLm1hZT4nLCAnLW9tYWUnLCAnPG91dGZpbGUubWFlPic=

> <r_lp_tautomer_probability>
1

> <r_epik_Ionization_Penalty>
0.00150063

> <r_epik_Ionization_Penalty_Charging>
0

> <r_epik_Ionization_Penalty_Neutral>
0.00150063

> <r_epik_State_Penalty>
-0

> <r_epik_Charging_Adjusted_Penalty>
0

> <i_epik_Tot_Q>
0

> <i_epik_Tot_abs_Q>
0

> <r_epik_Metal_State_Penalty>
-0

> <b_epik_Metal_Only>
0

> <s_lp_Force_Field>
OPLS_2005

> <r_lp_Energy>
19.9533

> <b_lp_Chiralities_Consistent>
1

> <s_lp_Variant>
AV-unprocessed.smi:2599-2

> <Gold.Version>
5.8.1

> <Gold.Id.Protein>
6NUR|6NUR_protein|mol2

> <Gold.PLP.Fitness>
39.4647

> <Gold.PLP.PLP>
-32.1703

> <Gold.PLP.part.hbond>
-4.2984

> <Gold.PLP.part.metal>
0.0000

> <Gold.PLP.part.buried>
-4.3190

> <Gold.PLP.part.nonpolar>
-24.4472

> <Gold.PLP.part.repulsive>
0.3113

> <Gold.PLP.ligand.clash>
0.5580

> <Gold.PLP.ligand.torsion>
0.5306

> <Gold.PLP.Chemscore.Hbond>
2.9600

> <Gold.PLP.Chemscore.CHOScore>
0.0000

> <Gold.PLP.Chemscore.Metal>
0.0000

> <Gold.Chemscore.Hbonds>
donor molecule, donor type, donor heavy atom, donor atom, acceptor molecule, acceptor atom, score
      L1  H     7    26       P1  7948  0.94
      L1  H    10    27       P1  7948  1.00
      P1  H  6896  6908       L1     2  0.86

> <Gold.PLP.Chemscore.Internal.Correction>
0.0336

> <Gold.Rescore>
     Score         DG    S(hbond)    S(metal)    S(lipo)     H(rot)  DE(clash)    DE(int)     intcor
     15.41     -16.69       2.19        0.00      67.28       1.55       0.02       1.27       ----

> <Gold.Chemscore.Fitness>
15.4073

> <Gold.Chemscore.DG>
-16.6919

> <Gold.Chemscore.ZeroCoef>
-5.4800

> <Gold.Chemscore.Hbond>
2.1873

> <Gold.Chemscore.Metal>
0.0000

> <Gold.Chemscore.Lipo>
67.2828

> <Gold.Chemscore.Internal_Hbond>
0.0000

> <Gold.Chemscore.DEClash>
0.0191

> <Gold.Chemscore.DEInternal>
1.2655

> <Gold.Chemscore.Rot>
1.5492

> <Gold.Chemscore.Internal.Correction>
   9.000000E+99

> <Gold.Chemscore.Hbonds>
donor molecule, donor type, donor heavy atom, donor atom, acceptor molecule, acceptor atom, score
      L1  H     7    26       P1  7948  0.24
      L1  H    10    27       P1  7948  0.99
      P1  H  6896  6908       L1     2  0.13

> <Gold.Chemscore.Hbond.Weighted>
-7.3057

> <Gold.Chemscore.Metal.Weighted>
-0.0000

> <Gold.Chemscore.Lipo.Weighted>
-7.8721

> <Gold.Chemscore.Internal_Hbond.Weighted>
0.0000

> <Gold.Chemscore.DEClash.Weighted>
0.0191

> <Gold.Chemscore.DEInternal.Weighted>
1.2655

> <Gold.Chemscore.Rot.Weighted>
3.9659

> <Gold.Chemscore.Internal.Correction.Weighted>
   9.000000E+99

> <Gold.Protein.RotatedTorsions>
[ 6907 6896 6895 6894 ] final   37.34 input  -60.11 | X-H torsion
[ 7974 7965 7964 7962 ] final   54.22 input  175.53 | X-H torsion
[ 8008 7997 7996 7995 ] final  -61.78 input   59.86 | X-H torsion
[ 10167 10162 10161 10158 ] final  145.68 input  -65.29 | X-H torsion
[ 10718 10713 10712 10709 ] final  161.20 input   66.30 | X-H torsion
[ 10763 10752 10751 10750 ] final  -49.89 input  -60.55 | X-H torsion
[ 11005 11000 10999 10996 ] final  151.09 input  -57.11 | X-H torsion

> <Gold.Protein.ActiveResidues>
 VAL166  LYS551  ARG553  GLY616  TRP617  ASP618  TYR619  PRO620  LYS621  CYS622 
 ASP623  PHE694  ASN695  SER759  ASP760  ASP761  ALA762  ILE779  LEU786  VAL792 
 PHE793  MET794  SER795  GLU796  ALA797  LYS798  CYS799  TRP800  GLU811  SER814 

> <Gold.Protein.RotatedAtoms>
  152.1418  134.9056  160.0553 H   0  0  0  0  0  0  0  0  0  0  0  0  # atno 6907 bound_to 6896
  152.0121  133.3860  159.4232 H   0  0  0  0  0  0  0  0  0  0  0  0  # atno 6908 bound_to 6896
  150.6866  134.3640  159.5007 H   0  0  0  0  0  0  0  0  0  0  0  0  # atno 6909 bound_to 6896
  145.9631  139.4078  143.0236 H   0  0  0  0  0  0  0  0  0  0  0  0  # atno 7974 bound_to 7965
  154.4465  140.1010  156.6484 H   0  0  0  0  0  0  0  0  0  0  0  0  # atno 8008 bound_to 7997
  155.5424  140.3484  155.4431 H   0  0  0  0  0  0  0  0  0  0  0  0  # atno 8009 bound_to 7997
  156.0587  140.1321  156.9955 H   0  0  0  0  0  0  0  0  0  0  0  0  # atno 8010 bound_to 7997
  139.4921  144.5884  151.6731 H   0  0  0  0  0  0  0  0  0  0  0  0  # atno 10167 bound_to 10162
  157.1398  131.0537  151.2332 H   0  0  0  0  0  0  0  0  0  0  0  0  # atno 10718 bound_to 10713
  154.1014  135.6563  153.4869 H   0  0  0  0  0  0  0  0  0  0  0  0  # atno 10763 bound_to 10752
  153.0287  135.5226  154.7283 H   0  0  0  0  0  0  0  0  0  0  0  0  # atno 10764 bound_to 10752
  154.6436  135.2991  155.0043 H   0  0  0  0  0  0  0  0  0  0  0  0  # atno 10765 bound_to 10752
  140.1188  134.8877  157.2042 H   0  0  0  0  0  0  0  0  0  0  0  0  # atno 11005 bound_to 11000
  145.8011  140.9770  143.0998 LP  0  0  0  0  0  0  0  0  0  0  0  0  # atno 17320 bound_to 7965
  144.6819  139.9803  143.7483 LP  0  0  0  0  0  0  0  0  0  0  0  0  # atno 17321 bound_to 7965
  140.5505  144.0433  150.6125 LP  0  0  0  0  0  0  0  0  0  0  0  0  # atno 17342 bound_to 10162
  140.3485  143.2977  152.0512 LP  0  0  0  0  0  0  0  0  0  0  0  0  # atno 17343 bound_to 10162
  157.4317  130.7494  149.6995 LP  0  0  0  0  0  0  0  0  0  0  0  0  # atno 17370 bound_to 10713
  155.9791  130.4044  150.3609 LP  0  0  0  0  0  0  0  0  0  0  0  0  # atno 17371 bound_to 10713
  140.2993  134.3151  155.7294 LP  0  0  0  0  0  0  0  0  0  0  0  0  # atno 17394 bound_to 11000
  141.2147  133.7582  156.9617 LP  0  0  0  0  0  0  0  0  0  0  0  0  # atno 17395 bound_to 11000

$$$$
