AV-unprocessed.smi:798|AV-procd|sdf|3779|dock3
  -GOLD-   22720 1213D 1   1.00000     0.00000
 Structure written by MMmdl.
 33 35  0  0  0  0  0  0  0  0  2 V2000
  152.5651  140.1072  157.5930 O   0  0  0  0  0  0  0  0  0  0  0  0
  151.8410  140.6856  156.7796 C   0  0  0  0  0  0  0  0  0  0  0  0
  151.5876  140.2930  155.5103 N   0  5  0  0  0  0  0  0  0  0  0  0
  150.9830  139.1165  155.2771 C   0  0  0  0  0  0  0  0  0  0  0  0
  149.8217  138.7785  155.8599 N   0  0  0  0  0  0  0  0  0  0  0  0
  149.3614  137.5264  155.4751 N   0  0  0  0  0  0  0  0  0  0  0  0
  150.1883  136.9524  154.6015 C   0  0  0  0  0  0  0  0  0  0  0  0
  151.6027  137.8893  154.1686 S   0  0  0  0  0  0  0  0  0  0  0  0
  151.2193  141.8214  157.1254 N   0  0  0  0  0  0  0  0  0  0  0  0
  151.3161  142.4942  158.4191 C   0  0  2  0  0  0  0  0  0  0  0  0
  151.0511  144.0075  158.2598 C   0  0  1  0  0  0  0  0  0  0  0  0
  150.7692  144.6115  159.6474 C   0  0  0  0  0  0  0  0  0  0  0  0
  152.1619  144.5992  160.3048 C   0  0  0  0  0  0  0  0  0  0  0  0
  153.0544  143.9692  159.2139 C   0  0  2  0  0  0  0  0  0  0  0  0
  152.4381  144.5665  157.9553 C   0  0  0  0  0  0  0  0  0  0  0  0
  152.7507  142.4638  159.0077 C   0  0  1  0  0  0  0  0  0  0  0  0
  152.9019  141.5639  160.2498 C   0  0  0  0  0  0  0  0  0  0  0  0
  154.1860  141.7147  160.8180 O   0  0  0  0  0  0  0  0  0  0  0  0
  149.9624  135.9728  154.2071 H   0  0  0  0  0  0  0  0  0  0  0  0
  150.6352  142.2587  156.4280 H   0  0  0  0  0  0  0  0  0  0  0  0
  150.5857  142.0572  159.1032 H   0  0  0  0  0  0  0  0  0  0  0  0
  150.2833  144.2487  157.5234 H   0  0  0  0  0  0  0  0  0  0  0  0
  150.3965  145.6327  159.5588 H   0  0  0  0  0  0  0  0  0  0  0  0
  150.0349  144.0361  160.2124 H   0  0  0  0  0  0  0  0  0  0  0  0
  152.4860  145.6190  160.5156 H   0  0  0  0  0  0  0  0  0  0  0  0
  152.1806  144.0564  161.2487 H   0  0  0  0  0  0  0  0  0  0  0  0
  154.1158  144.1842  159.3422 H   0  0  0  0  0  0  0  0  0  0  0  0
  152.8706  144.1772  157.0317 H   0  0  0  0  0  0  0  0  0  0  0  0
  152.4699  145.6573  157.9308 H   0  0  0  0  0  0  0  0  0  0  0  0
  153.4420  142.0919  158.2483 H   0  0  0  0  0  0  0  0  0  0  0  0
  152.1426  141.7753  161.0018 H   0  0  0  0  0  0  0  0  0  0  0  0
  152.7752  140.5188  159.9675 H   0  0  0  0  0  0  0  0  0  0  0  0
  154.1505  141.4277  161.7177 H   0  0  0  0  0  0  0  0  0  0  0  0
  1  2  2  0  0  0  0
  2  3  1  0  0  0  0
  2  9  1  0  0  0  0
  3  4  1  0  0  0  0
  4  8  1  0  0  0  0
  4  5  2  0  0  0  0
  5  6  1  0  0  0  0
  6  7  2  0  0  0  0
  7  8  1  0  0  0  0
  7 19  1  0  0  0  0
  9 10  1  0  0  0  0
  9 20  1  0  0  0  0
 10 16  1  0  0  0  0
 10 11  1  0  0  0  0
 10 21  1  0  0  0  0
 11 15  1  0  0  0  0
 11 12  1  0  0  0  0
 11 22  1  0  0  0  0
 12 13  1  0  0  0  0
 12 23  1  0  0  0  0
 12 24  1  0  0  0  0
 13 14  1  0  0  0  0
 13 25  1  0  0  0  0
 13 26  1  0  0  0  0
 14 15  1  0  0  0  0
 14 16  1  0  0  0  0
 14 27  1  0  0  0  0
 15 28  1  0  0  0  0
 15 29  1  0  0  0  0
 16 17  1  0  0  0  0
 16 30  1  0  0  0  0
 17 18  1  0  0  0  0
 17 31  1  0  0  0  0
 17 32  1  0  0  0  0
 18 33  1  0  0  0  0
M  CHG  1   3  -1
M  END
> <s_m_source_file>
AV-unprocessed.smi

> <i_m_source_file_index>
798

> <i_lp_mmshare_version>
43012

> <i_f3d_flags>
0

> <s_epik_input>
W0NIMl0xW0NIMl1bQ0BASF0oW0NIMl0yKVtDQEBIXShbQ0gyXVtPSF0pW0NAQEhdKFtDQEhdMTIpW05IXUMoPU8pW05IXWMzbm5bY0hdczM=

> <s_epik_cmdline>
J2VwaWtfcHl0aG9uJywgJy1waCcsICc3LjAnLCAnLXRuJywgJzgnLCAnLW1hJywgJzIwMCcsICctbWV0YWxfYmluZGluZycsICctaW1hZScsICc8aW5maWxlLm1hZT4nLCAnLW9tYWUnLCAnPG91dGZpbGUubWFlPic=

> <r_lp_tautomer_probability>
1

> <r_epik_Ionization_Penalty>
4.53732

> <r_epik_Ionization_Penalty_Charging>
4.48632

> <r_epik_Ionization_Penalty_Neutral>
0.0510007

> <r_epik_State_Penalty>
4.48602

> <r_epik_Charging_Adjusted_Penalty>
8.97234

> <i_epik_Tot_Q>
-1

> <i_epik_Tot_abs_Q>
1

> <r_epik_Metal_State_Penalty>
0.812492

> <b_epik_Metal_Only>
1

> <s_lp_Force_Field>
OPLS_2005

> <r_lp_Energy>
47.3134

> <b_lp_Chiralities_Consistent>
1

> <s_lp_Variant>
AV-unprocessed.smi:798-11

> <Gold.Version>
5.8.1

> <Gold.Id.Protein>
6NUR|6NUR_protein|mol2

> <Gold.PLP.Fitness>
40.9144

> <Gold.PLP.PLP>
-36.6843

> <Gold.PLP.part.hbond>
-2.3609

> <Gold.PLP.part.metal>
0.0000

> <Gold.PLP.part.buried>
-3.8161

> <Gold.PLP.part.nonpolar>
-30.1546

> <Gold.PLP.part.repulsive>
0.1718

> <Gold.PLP.ligand.clash>
0.0000

> <Gold.PLP.ligand.torsion>
1.3966

> <Gold.PLP.Chemscore.Hbond>
1.7105

> <Gold.PLP.Chemscore.CHOScore>
0.6103

> <Gold.PLP.Chemscore.Metal>
0.0000

> <Gold.Chemscore.Hbonds>
donor molecule, donor type, donor heavy atom, donor atom, acceptor molecule, acceptor atom, score
      P1  H  7989  7998       L1     3  0.61
      P1  H  7997  8010       L1     1  1.00
      L1  C     7    19       P1  7948  0.56

> <Gold.PLP.Chemscore.Internal.Correction>
0.0606

> <Gold.Rescore>
     Score         DG    S(hbond)    S(metal)    S(lipo)     H(rot)  DE(clash)    DE(int)     intcor
     13.54     -17.78       1.52        0.00     103.74       1.92       0.43       3.81       ----

> <Gold.Chemscore.Fitness>
13.5427

> <Gold.Chemscore.DG>
-17.7770

> <Gold.Chemscore.ZeroCoef>
-5.4800

> <Gold.Chemscore.Hbond>
1.5198

> <Gold.Chemscore.Metal>
0.0000

> <Gold.Chemscore.Lipo>
103.7409

> <Gold.Chemscore.Internal_Hbond>
0.0000

> <Gold.Chemscore.DEClash>
0.4264

> <Gold.Chemscore.DEInternal>
3.8079

> <Gold.Chemscore.Rot>
1.9207

> <Gold.Chemscore.Internal.Correction>
   9.000000E+99

> <Gold.Chemscore.Hbonds>
donor molecule, donor type, donor heavy atom, donor atom, acceptor molecule, acceptor atom, score
      P1  H  7989  7998       L1     3  0.09
      P1  H  7997  8010       L1     1  0.45

> <Gold.Chemscore.Hbond.Weighted>
-5.0762

> <Gold.Chemscore.Metal.Weighted>
-0.0000

> <Gold.Chemscore.Lipo.Weighted>
-12.1377

> <Gold.Chemscore.Internal_Hbond.Weighted>
0.0000

> <Gold.Chemscore.DEClash.Weighted>
0.4264

> <Gold.Chemscore.DEInternal.Weighted>
3.8079

> <Gold.Chemscore.Rot.Weighted>
4.9169

> <Gold.Chemscore.Internal.Correction.Weighted>
   9.000000E+99

> <Gold.Protein.RotatedTorsions>
[ 6907 6896 6895 6894 ] final  -52.70 input  -60.11 | X-H torsion
[ 7974 7965 7964 7962 ] final  -75.90 input  175.53 | X-H torsion
[ 8008 7997 7996 7995 ] final   53.70 input   59.86 | X-H torsion
[ 10167 10162 10161 10158 ] final   29.37 input  -65.29 | X-H torsion
[ 10718 10713 10712 10709 ] final   98.38 input   66.30 | X-H torsion
[ 10763 10752 10751 10750 ] final   68.04 input  -60.55 | X-H torsion
[ 11005 11000 10999 10996 ] final -160.23 input  -57.11 | X-H torsion

> <Gold.Protein.ActiveResidues>
 VAL166  LYS551  ARG553  GLY616  TRP617  ASP618  TYR619  PRO620  LYS621  CYS622 
 ASP623  PHE694  ASN695  SER759  ASP760  ASP761  ALA762  ILE779  LEU786  VAL792 
 PHE793  MET794  SER795  GLU796  ALA797  LYS798  CYS799  TRP800  GLU811  SER814 

> <Gold.Protein.RotatedAtoms>
  150.8493  134.7813  159.6995 H   0  0  0  0  0  0  0  0  0  0  0  0  # atno 6907 bound_to 6896
  152.4562  134.5283  159.9813 H   0  0  0  0  0  0  0  0  0  0  0  0  # atno 6908 bound_to 6896
  151.5407  133.3395  159.2970 H   0  0  0  0  0  0  0  0  0  0  0  0  # atno 6909 bound_to 6896
  145.6200  140.9365  143.1143 H   0  0  0  0  0  0  0  0  0  0  0  0  # atno 7974 bound_to 7965
  155.4726  140.3465  155.4328 H   0  0  0  0  0  0  0  0  0  0  0  0  # atno 8008 bound_to 7997
  156.1091  140.1456  156.9392 H   0  0  0  0  0  0  0  0  0  0  0  0  # atno 8009 bound_to 7997
  154.4744  140.0890  156.7204 H   0  0  0  0  0  0  0  0  0  0  0  0  # atno 8010 bound_to 7997
  140.4772  144.0672  150.6254 H   0  0  0  0  0  0  0  0  0  0  0  0  # atno 10167 bound_to 10162
  157.6896  131.0638  150.4788 H   0  0  0  0  0  0  0  0  0  0  0  0  # atno 10718 bound_to 10713
  153.0215  135.5262  154.7073 H   0  0  0  0  0  0  0  0  0  0  0  0  # atno 10763 bound_to 10752
  154.6165  135.2884  155.0376 H   0  0  0  0  0  0  0  0  0  0  0  0  # atno 10764 bound_to 10752
  154.1378  135.6583  153.4988 H   0  0  0  0  0  0  0  0  0  0  0  0  # atno 10765 bound_to 10752
  140.6338  134.4623  157.5231 H   0  0  0  0  0  0  0  0  0  0  0  0  # atno 11005 bound_to 11000
  144.7235  139.7952  143.7373 LP  0  0  0  0  0  0  0  0  0  0  0  0  # atno 17320 bound_to 7965
  146.1439  139.4503  143.0092 LP  0  0  0  0  0  0  0  0  0  0  0  0  # atno 17321 bound_to 7965
  140.3904  143.2755  152.0067 LP  0  0  0  0  0  0  0  0  0  0  0  0  # atno 17342 bound_to 10162
  139.4827  144.6082  151.7482 LP  0  0  0  0  0  0  0  0  0  0  0  0  # atno 17343 bound_to 10162
  156.5121  130.4142  149.6295 LP  0  0  0  0  0  0  0  0  0  0  0  0  # atno 17370 bound_to 10713
  156.3231  130.7291  151.2207 LP  0  0  0  0  0  0  0  0  0  0  0  0  # atno 17371 bound_to 10713
  139.9106  134.8354  156.1543 LP  0  0  0  0  0  0  0  0  0  0  0  0  # atno 17394 bound_to 11000
  141.0656  133.6821  156.2038 LP  0  0  0  0  0  0  0  0  0  0  0  0  # atno 17395 bound_to 11000

$$$$
