AV-unprocessed.smi:65|AV-procd|sdf|616|dock8
  -GOLD-   2262016513D 1   1.00000     0.00000
 Structure written by MMmdl.
 26 27  0  0  0  0  0  0  0  0  2 V2000
  148.9508  142.1821  154.6209 N   0  0  0  0  0  0  0  0  0  0  0  0
  149.9343  141.6617  155.4263 C   0  0  0  0  0  0  0  0  0  0  0  0
  150.4608  140.4775  155.1015 N   0  0  0  0  0  0  0  0  0  0  0  0
  151.4269  139.9620  155.8854 C   0  0  0  0  0  0  0  0  0  0  0  0
  151.8851  140.6383  157.0283 C   0  0  0  0  0  0  0  0  0  0  0  0
  151.2881  141.8844  157.3247 C   0  0  0  0  0  0  0  0  0  0  0  0
  151.6668  142.6583  158.4378 N   0  0  0  0  0  0  0  0  0  0  0  0
  152.7983  142.2794  159.2745 C   0  0  0  0  0  0  0  0  0  0  0  0
  152.4871  142.8388  160.6685 C   0  0  0  0  0  0  0  0  0  0  0  0
  151.4787  143.9557  160.3938 C   0  0  2  0  0  0  0  0  0  0  0  0
  150.6491  144.2241  161.5037 O   0  0  0  0  0  0  0  0  0  0  0  0
  150.6886  143.4154  159.2030 C   0  0  0  0  0  0  0  0  0  0  0  0
  150.3199  142.3662  156.4993 N   0  3  0  0  0  0  0  0  0  0  0  0
  148.5324  143.0753  154.8383 H   0  0  0  0  0  0  0  0  0  0  0  0
  148.6424  141.6864  153.7970 H   0  0  0  0  0  0  0  0  0  0  0  0
  151.8377  139.0057  155.5975 H   0  0  0  0  0  0  0  0  0  0  0  0
  152.6667  140.2110  157.6390 H   0  0  0  0  0  0  0  0  0  0  0  0
  152.9432  141.1992  159.3131 H   0  0  0  0  0  0  0  0  0  0  0  0
  153.7031  142.7329  158.8687 H   0  0  0  0  0  0  0  0  0  0  0  0
  152.0232  142.0572  161.2727 H   0  0  0  0  0  0  0  0  0  0  0  0
  153.3764  143.1856  161.1957 H   0  0  0  0  0  0  0  0  0  0  0  0
  152.0071  144.8651  160.1042 H   0  0  0  0  0  0  0  0  0  0  0  0
  150.9154  143.6702  162.2220 H   0  0  0  0  0  0  0  0  0  0  0  0
  150.2437  144.2187  158.6147 H   0  0  0  0  0  0  0  0  0  0  0  0
  149.8935  142.7448  159.5327 H   0  0  0  0  0  0  0  0  0  0  0  0
  149.8885  143.2668  156.7061 H   0  0  0  0  0  0  0  0  0  0  0  0
  1  2  1  0  0  0  0
  1 14  1  0  0  0  0
  1 15  1  0  0  0  0
  2 13  1  0  0  0  0
  2  3  2  0  0  0  0
  3  4  1  0  0  0  0
  4  5  2  0  0  0  0
  4 16  1  0  0  0  0
  5  6  1  0  0  0  0
  5 17  1  0  0  0  0
  6  7  1  0  0  0  0
  6 13  2  0  0  0  0
  7 12  1  0  0  0  0
  7  8  1  0  0  0  0
  8  9  1  0  0  0  0
  8 18  1  0  0  0  0
  8 19  1  0  0  0  0
  9 10  1  0  0  0  0
  9 20  1  0  0  0  0
  9 21  1  0  0  0  0
 10 11  1  0  0  0  0
 10 12  1  0  0  0  0
 10 22  1  0  0  0  0
 11 23  1  0  0  0  0
 12 24  1  0  0  0  0
 12 25  1  0  0  0  0
 13 26  1  0  0  0  0
M  CHG  1  13   1
M  END
> <s_m_source_file>
AV-unprocessed.smi

> <i_m_source_file_index>
65

> <i_lp_mmshare_version>
43012

> <i_f3d_flags>
0

> <s_epik_input>
W05IMl1jMW5bY0hdW2NIXWMobjEpTjJbQ0gyXVtDSDJdW0NAQEhdKFtPSF0pW0NIMl0y

> <s_epik_cmdline>
J2VwaWtfcHl0aG9uJywgJy1waCcsICc3LjAnLCAnLXRuJywgJzgnLCAnLW1hJywgJzIwMCcsICctbWV0YWxfYmluZGluZycsICctaW1hZScsICc8aW5maWxlLm1hZT4nLCAnLW9tYWUnLCAnPG91dGZpbGUubWFlPic=

> <r_lp_tautomer_probability>
0.424989

> <r_epik_Ionization_Penalty>
0.57487

> <r_epik_Ionization_Penalty_Charging>
0.574865

> <r_epik_Ionization_Penalty_Neutral>
4.40886e-06

> <r_epik_State_Penalty>
0.845539

> <r_epik_Charging_Adjusted_Penalty>
1.4204

> <i_epik_Tot_Q>
1

> <i_epik_Tot_abs_Q>
1

> <r_epik_Metal_State_Penalty>
1.14248

> <b_epik_Metal_Only>
0

> <s_lp_Force_Field>
OPLS_2005

> <r_lp_Energy>
20.8145

> <b_lp_Chiralities_Consistent>
1

> <s_lp_Variant>
AV-unprocessed.smi:65-6

> <Gold.Version>
5.8.1

> <Gold.Id.Protein>
6NUR|6NUR_protein|mol2

> <Gold.PLP.Fitness>
42.5152

> <Gold.PLP.PLP>
-29.5147

> <Gold.PLP.part.hbond>
-5.4359

> <Gold.PLP.part.metal>
0.0000

> <Gold.PLP.part.buried>
-4.9138

> <Gold.PLP.part.nonpolar>
-20.3801

> <Gold.PLP.part.repulsive>
2.0152

> <Gold.PLP.ligand.clash>
0.0000

> <Gold.PLP.ligand.torsion>
0.2893

> <Gold.PLP.Chemscore.Hbond>
4.4560

> <Gold.PLP.Chemscore.CHOScore>
0.0000

> <Gold.PLP.Chemscore.Metal>
0.0000

> <Gold.Chemscore.Hbonds>
donor molecule, donor type, donor heavy atom, donor atom, acceptor molecule, acceptor atom, score
      L1  H     1    14       P1  8028  1.76
      L1  H    13    26       P1  8028  1.44
      P1  H  7989  7998       L1     3  0.85

> <Gold.PLP.Chemscore.Internal.Correction>
0.2110

> <Gold.Rescore>
     Score         DG    S(hbond)    S(metal)    S(lipo)     H(rot)  DE(clash)    DE(int)     intcor
     14.17     -14.64       1.63        0.00      53.74       1.00       0.23       0.24       ----

> <Gold.Chemscore.Fitness>
14.1690

> <Gold.Chemscore.DG>
-14.6446

> <Gold.Chemscore.ZeroCoef>
-5.4800

> <Gold.Chemscore.Hbond>
1.6277

> <Gold.Chemscore.Metal>
0.0000

> <Gold.Chemscore.Lipo>
53.7436

> <Gold.Chemscore.Internal_Hbond>
0.0000

> <Gold.Chemscore.DEClash>
0.2323

> <Gold.Chemscore.DEInternal>
0.2433

> <Gold.Chemscore.Rot>
1.0000

> <Gold.Chemscore.Internal.Correction>
   9.000000E+99

> <Gold.Chemscore.Hbonds>
donor molecule, donor type, donor heavy atom, donor atom, acceptor molecule, acceptor atom, score
      L1  H     1    14       P1  8028  0.86
      L1  H    13    26       P1  8028  0.67
      P1  H  7989  7998       L1     3  0.06

> <Gold.Chemscore.Hbond.Weighted>
-5.4366

> <Gold.Chemscore.Metal.Weighted>
-0.0000

> <Gold.Chemscore.Lipo.Weighted>
-6.2880

> <Gold.Chemscore.Internal_Hbond.Weighted>
0.0000

> <Gold.Chemscore.DEClash.Weighted>
0.2323

> <Gold.Chemscore.DEInternal.Weighted>
0.2433

> <Gold.Chemscore.Rot.Weighted>
2.5600

> <Gold.Chemscore.Internal.Correction.Weighted>
   9.000000E+99

> <Gold.Protein.RotatedTorsions>
[ 6907 6896 6895 6894 ] final    9.08 input  -60.11 | X-H torsion
[ 7974 7965 7964 7962 ] final  130.47 input  175.53 | X-H torsion
[ 8008 7997 7996 7995 ] final  -71.94 input   59.86 | X-H torsion
[ 10167 10162 10161 10158 ] final  -30.90 input  -65.29 | X-H torsion
[ 10718 10713 10712 10709 ] final   94.56 input   66.30 | X-H torsion
[ 10763 10752 10751 10750 ] final   27.96 input  -60.55 | X-H torsion
[ 11005 11000 10999 10996 ] final  -84.18 input  -57.11 | X-H torsion

> <Gold.Protein.ActiveResidues>
 VAL166  LYS551  ARG553  GLY616  TRP617  ASP618  TYR619  PRO620  LYS621  CYS622 
 ASP623  PHE694  ASN695  SER759  ASP760  ASP761  ALA762  ILE779  LEU786  VAL792 
 PHE793  MET794  SER795  GLU796  ALA797  LYS798  CYS799  TRP800  GLU811  SER814 

> <Gold.Protein.RotatedAtoms>
  151.7164  135.0903  160.0276 H   0  0  0  0  0  0  0  0  0  0  0  0  # atno 6907 bound_to 6896
  152.3629  133.6316  159.6037 H   0  0  0  0  0  0  0  0  0  0  0  0  # atno 6908 bound_to 6896
  150.7617  133.9310  159.3468 H   0  0  0  0  0  0  0  0  0  0  0  0  # atno 6909 bound_to 6896
  145.0176  139.4162  143.5214 H   0  0  0  0  0  0  0  0  0  0  0  0  # atno 7974 bound_to 7965
  154.5127  140.0806  156.8021 H   0  0  0  0  0  0  0  0  0  0  0  0  # atno 8008 bound_to 7997
  155.3750  140.3425  155.4226 H   0  0  0  0  0  0  0  0  0  0  0  0  # atno 8009 bound_to 7997
  156.1592  140.1583  156.8629 H   0  0  0  0  0  0  0  0  0  0  0  0  # atno 8010 bound_to 7997
  140.7243  143.3812  151.1597 H   0  0  0  0  0  0  0  0  0  0  0  0  # atno 10167 bound_to 10162
  157.6947  131.0516  150.4205 H   0  0  0  0  0  0  0  0  0  0  0  0  # atno 10718 bound_to 10713
  153.0522  135.6525  154.0665 H   0  0  0  0  0  0  0  0  0  0  0  0  # atno 10763 bound_to 10752
  154.0350  135.2908  155.3364 H   0  0  0  0  0  0  0  0  0  0  0  0  # atno 10764 bound_to 10752
  154.6818  135.5317  153.8339 H   0  0  0  0  0  0  0  0  0  0  0  0  # atno 10765 bound_to 10752
  141.1652  133.7332  156.8829 H   0  0  0  0  0  0  0  0  0  0  0  0  # atno 11005 bound_to 11000
  146.3480  139.9655  142.8712 LP  0  0  0  0  0  0  0  0  0  0  0  0  # atno 17320 bound_to 7965
  145.1939  140.9824  143.4195 LP  0  0  0  0  0  0  0  0  0  0  0  0  # atno 17321 bound_to 7965
  139.7402  143.8937  152.3047 LP  0  0  0  0  0  0  0  0  0  0  0  0  # atno 17342 bound_to 10162
  139.8755  144.7045  150.8938 LP  0  0  0  0  0  0  0  0  0  0  0  0  # atno 17343 bound_to 10162
  156.4580  130.4026  149.6594 LP  0  0  0  0  0  0  0  0  0  0  0  0  # atno 17370 bound_to 10713
  156.3719  130.7535  151.2519 LP  0  0  0  0  0  0  0  0  0  0  0  0  # atno 17371 bound_to 10713
  140.1702  134.9105  157.2824 LP  0  0  0  0  0  0  0  0  0  0  0  0  # atno 17394 bound_to 11000
  140.2511  134.3682  155.7442 LP  0  0  0  0  0  0  0  0  0  0  0  0  # atno 17395 bound_to 11000

$$$$
