AV-unprocessed.smi:1244|AV-procd|sdf|5233|dock7
  -GOLD-   22720 4333D 1   1.00000     0.00000
 Structure written by MMmdl.
 56 58  0  0  0  0  0  0  0  0  3 V2000
  155.6760  138.6967  165.5130 C   0  0  0  0  0  0  0  0  0  0  0  0
  155.5490  138.1348  164.0928 C   0  0  2  0  0  0  0  0  0  0  0  0
  154.5085  136.9992  164.0102 C   0  0  0  0  0  0  0  0  0  0  0  0
  154.4604  136.4087  162.6502 N   0  3  1  0  0  0  0  0  0  0  0  0
  153.7164  137.2390  161.6660 C   0  0  0  0  0  0  0  0  0  0  0  0
  154.4537  138.5501  161.3311 C   0  0  0  0  0  0  0  0  0  0  0  0
  153.7820  139.2875  160.2668 N   0  0  0  0  0  0  0  0  0  0  0  0
  153.4760  140.5919  160.3159 C   0  0  0  0  0  0  0  0  0  0  0  0
  153.7236  141.3107  161.2840 O   0  0  0  0  0  0  0  0  0  0  0  0
  152.8897  141.0014  159.1782 N   0  0  0  0  0  0  0  0  0  0  0  0
  152.4531  142.3147  158.8415 C   0  0  0  0  0  0  0  0  0  0  0  0
  153.0201  143.4595  159.4590 C   0  0  0  0  0  0  0  0  0  0  0  0
  152.5196  144.7407  159.1604 C   0  0  0  0  0  0  0  0  0  0  0  0
  151.4474  144.8589  158.2602 C   0  0  0  0  0  0  0  0  0  0  0  0
  150.9209  143.7512  157.6989 N   0  3  0  0  0  0  0  0  0  0  0  0
  151.3682  142.4922  157.9343 C   0  0  0  0  0  0  0  0  0  0  0  0
  150.7269  141.4263  157.2631 N   0  0  0  0  0  0  0  0  0  0  0  0
  151.3580  140.7952  156.1097 C   0  0  0  0  0  0  0  0  0  0  0  0
  150.5826  139.4985  155.8955 C   0  0  0  0  0  0  0  0  0  0  0  0
  150.2452  139.0793  157.3233 C   0  0  0  0  0  0  0  0  0  0  0  0
  150.0411  140.4102  158.0558 C   0  0  0  0  0  0  0  0  0  0  0  0
  155.8206  135.9980  162.2165 C   0  0  0  0  0  0  0  0  0  0  0  0
  156.8396  137.1490  162.3631 C   0  0  2  0  0  0  0  0  0  0  0  0
  158.2677  136.6959  162.0403 C   0  0  0  0  0  0  0  0  0  0  0  0
  156.8201  137.6243  163.7048 O   0  0  0  0  0  0  0  0  0  0  0  0
  154.7280  139.1102  165.8583 H   0  0  0  0  0  0  0  0  0  0  0  0
  156.4191  139.4937  165.5518 H   0  0  0  0  0  0  0  0  0  0  0  0
  155.9806  137.9234  166.2186 H   0  0  0  0  0  0  0  0  0  0  0  0
  155.2686  138.9509  163.4248 H   0  0  0  0  0  0  0  0  0  0  0  0
  154.7757  136.2097  164.7140 H   0  0  0  0  0  0  0  0  0  0  0  0
  153.5208  137.3518  164.3100 H   0  0  0  0  0  0  0  0  0  0  0  0
  153.6016  136.6753  160.7391 H   0  0  0  0  0  0  0  0  0  0  0  0
  152.7069  137.4399  162.0244 H   0  0  0  0  0  0  0  0  0  0  0  0
  154.5462  139.1938  162.2063 H   0  0  0  0  0  0  0  0  0  0  0  0
  155.4694  138.3298  161.0011 H   0  0  0  0  0  0  0  0  0  0  0  0
  153.5462  138.7706  159.4320 H   0  0  0  0  0  0  0  0  0  0  0  0
  152.8388  140.3221  158.4332 H   0  0  0  0  0  0  0  0  0  0  0  0
  153.8199  143.3743  160.1789 H   0  0  0  0  0  0  0  0  0  0  0  0
  152.9443  145.6182  159.6258 H   0  0  0  0  0  0  0  0  0  0  0  0
  150.9939  145.7979  157.9769 H   0  0  0  0  0  0  0  0  0  0  0  0
  151.3194  141.4401  155.2311 H   0  0  0  0  0  0  0  0  0  0  0  0
  152.4024  140.5641  156.3231 H   0  0  0  0  0  0  0  0  0  0  0  0
  149.6653  139.6975  155.3392 H   0  0  0  0  0  0  0  0  0  0  0  0
  151.1543  138.7461  155.3511 H   0  0  0  0  0  0  0  0  0  0  0  0
  149.3744  138.4257  157.3812 H   0  0  0  0  0  0  0  0  0  0  0  0
  151.0928  138.5476  157.7578 H   0  0  0  0  0  0  0  0  0  0  0  0
  150.4182  140.3613  159.0783 H   0  0  0  0  0  0  0  0  0  0  0  0
  148.9790  140.6533  158.0971 H   0  0  0  0  0  0  0  0  0  0  0  0
  156.1313  135.1608  162.8433 H   0  0  0  0  0  0  0  0  0  0  0  0
  155.8113  135.6213  161.1947 H   0  0  0  0  0  0  0  0  0  0  0  0
  156.5854  137.9685  161.6896 H   0  0  0  0  0  0  0  0  0  0  0  0
  158.3410  136.3289  161.0162 H   0  0  0  0  0  0  0  0  0  0  0  0
  158.5891  135.8950  162.7068 H   0  0  0  0  0  0  0  0  0  0  0  0
  158.9720  137.5211  162.1477 H   0  0  0  0  0  0  0  0  0  0  0  0
  153.9191  135.5607  162.7401 H   0  0  0  0  0  0  0  0  0  0  0  0
  150.1423  143.8700  157.0505 H   0  0  0  0  0  0  0  0  0  0  0  0
  1  2  1  0  0  0  0
  1 26  1  0  0  0  0
  1 27  1  0  0  0  0
  1 28  1  0  0  0  0
  2 25  1  0  0  0  0
  2  3  1  0  0  0  0
  2 29  1  0  0  0  0
  3  4  1  0  0  0  0
  3 30  1  0  0  0  0
  3 31  1  0  0  0  0
  4  5  1  0  0  0  0
  4 22  1  0  0  0  0
  4 55  1  0  0  0  0
  5  6  1  0  0  0  0
  5 32  1  0  0  0  0
  5 33  1  0  0  0  0
  6  7  1  0  0  0  0
  6 34  1  0  0  0  0
  6 35  1  0  0  0  0
  7  8  1  0  0  0  0
  7 36  1  0  0  0  0
  8  9  2  0  0  0  0
  8 10  1  0  0  0  0
 10 11  1  0  0  0  0
 10 37  1  0  0  0  0
 11 16  1  0  0  0  0
 11 12  2  0  0  0  0
 12 13  1  0  0  0  0
 12 38  1  0  0  0  0
 13 14  2  0  0  0  0
 13 39  1  0  0  0  0
 14 15  1  0  0  0  0
 14 40  1  0  0  0  0
 15 16  2  0  0  0  0
 15 56  1  0  0  0  0
 16 17  1  0  0  0  0
 17 21  1  0  0  0  0
 17 18  1  0  0  0  0
 18 19  1  0  0  0  0
 18 41  1  0  0  0  0
 18 42  1  0  0  0  0
 19 20  1  0  0  0  0
 19 43  1  0  0  0  0
 19 44  1  0  0  0  0
 20 21  1  0  0  0  0
 20 45  1  0  0  0  0
 20 46  1  0  0  0  0
 21 47  1  0  0  0  0
 21 48  1  0  0  0  0
 22 23  1  0  0  0  0
 22 49  1  0  0  0  0
 22 50  1  0  0  0  0
 23 24  1  0  0  0  0
 23 25  1  0  0  0  0
 23 51  1  0  0  0  0
 24 52  1  0  0  0  0
 24 53  1  0  0  0  0
 24 54  1  0  0  0  0
M  CHG  1   4   1
M  CHG  1  15   1
M  END
> <s_m_source_file>
AV-unprocessed.smi

> <i_m_source_file_index>
1244

> <i_lp_mmshare_version>
43012

> <i_f3d_flags>
0

> <s_epik_input>
W0NIM11bQ0BASF0xW0NIMl1OKFtDSDJdW0NASF0oTzEpW0NIM10pW0NIMl1bQ0gyXVtOSF1DKD1PKVtOSF1jMltjSF1bY0hdW2NIXW5jMk4zW0NIMl1bQ0gyXVtDSDJdW0NIMl0z

> <s_epik_cmdline>
J2VwaWtfcHl0aG9uJywgJy1waCcsICc3LjAnLCAnLXRuJywgJzgnLCAnLW1hJywgJzIwMCcsICctbWV0YWxfYmluZGluZycsICctaW1hZScsICc8aW5maWxlLm1hZT4nLCAnLW9tYWUnLCAnPG91dGZpbGUubWFlPic=

> <r_lp_tautomer_probability>
0.999994

> <r_epik_Ionization_Penalty>
1.81601

> <r_epik_Ionization_Penalty_Charging>
1.81599

> <r_epik_Ionization_Penalty_Neutral>
2.01972e-05

> <r_epik_State_Penalty>
1.85672

> <r_epik_Charging_Adjusted_Penalty>
3.6727

> <i_epik_Tot_Q>
2

> <i_epik_Tot_abs_Q>
2

> <r_epik_Metal_State_Penalty>
1.93796

> <b_epik_Metal_Only>
0

> <s_lp_Force_Field>
OPLS_2005

> <r_lp_Energy>
53.9706

> <b_lp_Chiralities_Consistent>
1

> <s_lp_Variant>
AV-unprocessed.smi:1244-13

> <Gold.Version>
5.8.1

> <Gold.Id.Protein>
6NUR|6NUR_protein|mol2

> <Gold.PLP.Fitness>
46.0577

> <Gold.PLP.PLP>
-42.1463

> <Gold.PLP.part.hbond>
-1.0000

> <Gold.PLP.part.metal>
0.0000

> <Gold.PLP.part.buried>
-7.7562

> <Gold.PLP.part.nonpolar>
-33.3917

> <Gold.PLP.part.repulsive>
0.2424

> <Gold.PLP.ligand.clash>
1.5578

> <Gold.PLP.ligand.torsion>
0.4648

> <Gold.PLP.Chemscore.Hbond>
2.0000

> <Gold.PLP.Chemscore.CHOScore>
0.0000

> <Gold.PLP.Chemscore.Metal>
0.0000

> <Gold.Chemscore.Hbonds>
donor molecule, donor type, donor heavy atom, donor atom, acceptor molecule, acceptor atom, score
      L1  H    15    56       P1  8028  1.95

> <Gold.PLP.Chemscore.Internal.Correction>
0.3988

> <Gold.Rescore>
     Score         DG    S(hbond)    S(metal)    S(lipo)     H(rot)  DE(clash)    DE(int)     intcor
     14.28     -17.58       0.98        0.00     111.15       1.63       0.27       3.02       ----

> <Gold.Chemscore.Fitness>
14.2797

> <Gold.Chemscore.DG>
-17.5767

> <Gold.Chemscore.ZeroCoef>
-5.4800

> <Gold.Chemscore.Hbond>
0.9770

> <Gold.Chemscore.Metal>
0.0000

> <Gold.Chemscore.Lipo>
111.1489

> <Gold.Chemscore.Internal_Hbond>
0.0000

> <Gold.Chemscore.DEClash>
0.2724

> <Gold.Chemscore.DEInternal>
3.0246

> <Gold.Chemscore.Rot>
1.6293

> <Gold.Chemscore.Internal.Correction>
   9.000000E+99

> <Gold.Chemscore.Hbonds>
donor molecule, donor type, donor heavy atom, donor atom, acceptor molecule, acceptor atom, score
      L1  H    15    56       P1  8028  0.88

> <Gold.Chemscore.Hbond.Weighted>
-3.2631

> <Gold.Chemscore.Metal.Weighted>
-0.0000

> <Gold.Chemscore.Lipo.Weighted>
-13.0044

> <Gold.Chemscore.Internal_Hbond.Weighted>
0.0000

> <Gold.Chemscore.DEClash.Weighted>
0.2724

> <Gold.Chemscore.DEInternal.Weighted>
3.0246

> <Gold.Chemscore.Rot.Weighted>
4.1709

> <Gold.Chemscore.Internal.Correction.Weighted>
   9.000000E+99

> <Gold.Protein.RotatedTorsions>
[ 6907 6896 6895 6894 ] final  -92.43 input  -60.11 | X-H torsion
[ 7974 7965 7964 7962 ] final  -21.78 input  175.53 | X-H torsion
[ 8008 7997 7996 7995 ] final  -14.41 input   59.86 | X-H torsion
[ 10167 10162 10161 10158 ] final  109.84 input  -65.29 | X-H torsion
[ 10718 10713 10712 10709 ] final   30.90 input   66.30 | X-H torsion
[ 10763 10752 10751 10750 ] final  167.71 input  -60.55 | X-H torsion
[ 11005 11000 10999 10996 ] final -147.85 input  -57.11 | X-H torsion

> <Gold.Protein.ActiveResidues>
 VAL166  LYS551  ARG553  GLY616  TRP617  ASP618  TYR619  PRO620  LYS621  CYS622 
 ASP623  PHE694  ASN695  SER759  ASP760  ASP761  ALA762  ILE779  LEU786  VAL792 
 PHE793  MET794  SER795  GLU796  ALA797  LYS798  CYS799  TRP800  GLU811  SER814 

> <Gold.Protein.RotatedAtoms>
  150.6906  134.2123  159.4363 H   0  0  0  0  0  0  0  0  0  0  0  0  # atno 6907 bound_to 6896
  152.0084  134.9887  160.0576 H   0  0  0  0  0  0  0  0  0  0  0  0  # atno 6908 bound_to 6896
  152.1512  133.4488  159.4851 H   0  0  0  0  0  0  0  0  0  0  0  0  # atno 6909 bound_to 6896
  146.1713  140.4389  142.8531 H   0  0  0  0  0  0  0  0  0  0  0  0  # atno 7974 bound_to 7965
  154.5213  140.2224  155.8971 H   0  0  0  0  0  0  0  0  0  0  0  0  # atno 8008 bound_to 7997
  156.1664  140.3131  155.8862 H   0  0  0  0  0  0  0  0  0  0  0  0  # atno 8009 bound_to 7997
  155.3647  140.0463  157.3037 H   0  0  0  0  0  0  0  0  0  0  0  0  # atno 8010 bound_to 7997
  139.6735  144.7124  151.1645 H   0  0  0  0  0  0  0  0  0  0  0  0  # atno 10167 bound_to 10162
  157.2655  130.7182  149.6476 H   0  0  0  0  0  0  0  0  0  0  0  0  # atno 10718 bound_to 10713
  154.3579  135.2753  155.2336 H   0  0  0  0  0  0  0  0  0  0  0  0  # atno 10763 bound_to 10752
  154.4537  135.5924  153.6212 H   0  0  0  0  0  0  0  0  0  0  0  0  # atno 10764 bound_to 10752
  152.9845  135.6048  154.3796 H   0  0  0  0  0  0  0  0  0  0  0  0  # atno 10765 bound_to 10752
  140.7673  134.3229  157.5085 H   0  0  0  0  0  0  0  0  0  0  0  0  # atno 11005 bound_to 11000
  144.8168  140.6481  143.6379 LP  0  0  0  0  0  0  0  0  0  0  0  0  # atno 17320 bound_to 7965
  145.4332  139.1546  143.4011 LP  0  0  0  0  0  0  0  0  0  0  0  0  # atno 17321 bound_to 7965
  140.7627  143.5808  150.8897 LP  0  0  0  0  0  0  0  0  0  0  0  0  # atno 17342 bound_to 10162
  139.9475  143.6310  152.3038 LP  0  0  0  0  0  0  0  0  0  0  0  0  # atno 17343 bound_to 10162
  155.9663  130.4384  150.5215 LP  0  0  0  0  0  0  0  0  0  0  0  0  # atno 17370 bound_to 10713
  157.3128  131.0667  151.1988 LP  0  0  0  0  0  0  0  0  0  0  0  0  # atno 17371 bound_to 10713
  139.8761  134.9239  156.3337 LP  0  0  0  0  0  0  0  0  0  0  0  0  # atno 17394 bound_to 11000
  140.9606  133.7391  156.0397 LP  0  0  0  0  0  0  0  0  0  0  0  0  # atno 17395 bound_to 11000

$$$$
