AV-unprocessed.smi:3180|AV-procd|sdf|12134|dock3
  -GOLD-   2272017573D 1   1.00000     0.00000
 Structure written by MMmdl.
 24 25  0  0  0  0  0  0  0  0  2 V2000
  147.8758  139.2373  152.4004 N   0  3  0  0  0  0  0  0  0  0  0  0
  148.2582  139.0835  153.8138 C   0  0  0  0  0  0  0  0  0  0  0  0
  149.3572  140.0813  154.2063 C   0  0  0  0  0  0  0  0  0  0  0  0
  150.6059  139.4082  154.5161 N   0  0  0  0  0  0  0  0  0  0  0  0
  151.1194  138.3053  153.9492 C   0  0  0  0  0  0  0  0  0  0  0  0
  152.3013  137.9220  154.4289 N   0  0  0  0  0  0  0  0  0  0  0  0
  152.6033  138.8589  155.3966 N   0  0  0  0  0  0  0  0  0  0  0  0
  151.5665  139.7046  155.4161 C   0  0  0  0  0  0  0  0  0  0  0  0
  151.4945  140.9040  156.3066 C   0  0  0  0  0  0  0  0  0  0  0  0
  151.6578  140.7789  157.8051 C   0  0  0  0  0  0  0  0  0  0  0  0
  150.3123  141.1264  157.2241 C   0  0  0  0  0  0  0  0  0  0  0  0
  147.9188  138.3391  151.9402 H   0  0  0  0  0  0  0  0  0  0  0  0
  148.5117  139.8774  151.9459 H   0  0  0  0  0  0  0  0  0  0  0  0
  147.3722  139.2266  154.4324 H   0  0  0  0  0  0  0  0  0  0  0  0
  148.5993  138.0596  153.9722 H   0  0  0  0  0  0  0  0  0  0  0  0
  149.5427  140.7818  153.3910 H   0  0  0  0  0  0  0  0  0  0  0  0
  149.0474  140.6762  155.0661 H   0  0  0  0  0  0  0  0  0  0  0  0
  150.6156  137.7681  153.1589 H   0  0  0  0  0  0  0  0  0  0  0  0
  151.9344  141.7719  155.8190 H   0  0  0  0  0  0  0  0  0  0  0  0
  151.7802  139.7815  158.2228 H   0  0  0  0  0  0  0  0  0  0  0  0
  152.2036  141.5685  158.3174 H   0  0  0  0  0  0  0  0  0  0  0  0
  149.9591  142.1478  157.3493 H   0  0  0  0  0  0  0  0  0  0  0  0
  149.5433  140.3580  157.2633 H   0  0  0  0  0  0  0  0  0  0  0  0
  146.9349  139.5996  152.3420 H   0  0  0  0  0  0  0  0  0  0  0  0
  1  2  1  0  0  0  0
  1 12  1  0  0  0  0
  1 13  1  0  0  0  0
  1 24  1  0  0  0  0
  2  3  1  0  0  0  0
  2 14  1  0  0  0  0
  2 15  1  0  0  0  0
  3  4  1  0  0  0  0
  3 16  1  0  0  0  0
  3 17  1  0  0  0  0
  4  8  1  0  0  0  0
  4  5  1  0  0  0  0
  5  6  2  0  0  0  0
  5 18  1  0  0  0  0
  6  7  1  0  0  0  0
  7  8  2  0  0  0  0
  8  9  1  0  0  0  0
  9 11  1  0  0  0  0
  9 10  1  0  0  0  0
  9 19  1  0  0  0  0
 10 11  1  0  0  0  0
 10 20  1  0  0  0  0
 10 21  1  0  0  0  0
 11 22  1  0  0  0  0
 11 23  1  0  0  0  0
M  CHG  1   1   1
M  END
> <s_m_source_file>
AV-unprocessed.smi

> <i_m_source_file_index>
3180

> <i_lp_mmshare_version>
43012

> <i_f3d_flags>
0

> <s_epik_input>
W05IMl1bQ0gyXVtDSDJdbjFbY0hdbm5jMVtDSF0yW0NIMl1bQ0gyXTI=

> <s_epik_cmdline>
J2VwaWtfcHl0aG9uJywgJy1waCcsICc3LjAnLCAnLXRuJywgJzgnLCAnLW1hJywgJzIwMCcsICctbWV0YWxfYmluZGluZycsICctaW1hZScsICc8aW5maWxlLm1hZT4nLCAnLW9tYWUnLCAnPG91dGZpbGUubWFlPic=

> <r_lp_tautomer_probability>
1

> <r_epik_Ionization_Penalty>
0.00526423

> <r_epik_Ionization_Penalty_Charging>
0.00525499

> <r_epik_Ionization_Penalty_Neutral>
9.23795e-06

> <r_epik_State_Penalty>
0.00383325

> <r_epik_Charging_Adjusted_Penalty>
0.00908824

> <i_epik_Tot_Q>
1

> <i_epik_Tot_abs_Q>
1

> <r_epik_Metal_State_Penalty>
-0

> <b_epik_Metal_Only>
0

> <s_lp_Force_Field>
OPLS_2005

> <r_lp_Energy>
11.3603

> <b_lp_Chiralities_Consistent>
1

> <s_lp_Variant>
AV-unprocessed.smi:3180-1

> <Gold.Version>
5.8.1

> <Gold.Id.Protein>
6NUR|6NUR_protein|mol2

> <Gold.PLP.Fitness>
38.2165

> <Gold.PLP.PLP>
-23.9949

> <Gold.PLP.part.hbond>
-4.0000

> <Gold.PLP.part.metal>
0.0000

> <Gold.PLP.part.buried>
-3.1992

> <Gold.PLP.part.nonpolar>
-15.9984

> <Gold.PLP.part.repulsive>
0.1279

> <Gold.PLP.ligand.clash>
0.0000

> <Gold.PLP.ligand.torsion>
0.7814

> <Gold.PLP.Chemscore.Hbond>
4.0910

> <Gold.PLP.Chemscore.CHOScore>
1.1253

> <Gold.PLP.Chemscore.Metal>
0.0000

> <Gold.Chemscore.Hbonds>
donor molecule, donor type, donor heavy atom, donor atom, acceptor molecule, acceptor atom, score
      L1  H     1    12       P1  7948  0.54
      L1  H     1    13       P1  7957  0.49
      P1  H  7997  8008       L1     7  0.32
      P1  H 10752 10763       L1     6  0.04
      L1  C     5    18       P1  7948  0.49
      L1  C     5    18       P1  7949  0.63

> <Gold.PLP.Chemscore.Internal.Correction>
0.1354

> <Gold.Rescore>
     Score         DG    S(hbond)    S(metal)    S(lipo)     H(rot)  DE(clash)    DE(int)     intcor
     13.46     -14.32       2.97        0.00      30.08       1.79       0.03       0.83       ----

> <Gold.Chemscore.Fitness>
13.4634

> <Gold.Chemscore.DG>
-14.3203

> <Gold.Chemscore.ZeroCoef>
-5.4800

> <Gold.Chemscore.Hbond>
2.9669

> <Gold.Chemscore.Metal>
0.0000

> <Gold.Chemscore.Lipo>
30.0846

> <Gold.Chemscore.Internal_Hbond>
0.0000

> <Gold.Chemscore.DEClash>
0.0308

> <Gold.Chemscore.DEInternal>
0.8261

> <Gold.Chemscore.Rot>
1.7926

> <Gold.Chemscore.Internal.Correction>
   9.000000E+99

> <Gold.Chemscore.Hbonds>
donor molecule, donor type, donor heavy atom, donor atom, acceptor molecule, acceptor atom, score
      L1  H     1    12       P1  7948  0.26
      L1  H     1    13       P1  7957  0.47
      P1  H  7997  8008       L1     7  0.15
      P1  H 10752 10763       L1     6  0.06

> <Gold.Chemscore.Hbond.Weighted>
-9.9096

> <Gold.Chemscore.Metal.Weighted>
-0.0000

> <Gold.Chemscore.Lipo.Weighted>
-3.5199

> <Gold.Chemscore.Internal_Hbond.Weighted>
0.0000

> <Gold.Chemscore.DEClash.Weighted>
0.0308

> <Gold.Chemscore.DEInternal.Weighted>
0.8261

> <Gold.Chemscore.Rot.Weighted>
4.5892

> <Gold.Chemscore.Internal.Correction.Weighted>
   9.000000E+99

> <Gold.Protein.RotatedTorsions>
[ 6907 6896 6895 6894 ] final  -98.68 input  -60.11 | X-H torsion
[ 7974 7965 7964 7962 ] final   20.84 input  175.53 | X-H torsion
[ 8008 7997 7996 7995 ] final  -32.38 input   59.86 | X-H torsion
[ 10167 10162 10161 10158 ] final  143.03 input  -65.29 | X-H torsion
[ 10718 10713 10712 10709 ] final   -7.04 input   66.30 | X-H torsion
[ 10763 10752 10751 10750 ] final   13.48 input  -60.55 | X-H torsion
[ 11005 11000 10999 10996 ] final -110.47 input  -57.11 | X-H torsion

> <Gold.Protein.ActiveResidues>
 VAL166  LYS551  ARG553  GLY616  TRP617  ASP618  TYR619  PRO620  LYS621  CYS622 
 ASP623  PHE694  ASN695  SER759  ASP760  ASP761  ALA762  ILE779  LEU786  VAL792 
 PHE793  MET794  SER795  GLU796  ALA797  LYS798  CYS799  TRP800  GLU811  SER814 

> <Gold.Protein.RotatedAtoms>
  150.7055  134.1157  159.4016 H   0  0  0  0  0  0  0  0  0  0  0  0  # atno 6907 bound_to 6896
  151.9144  135.0323  160.0526 H   0  0  0  0  0  0  0  0  0  0  0  0  # atno 6908 bound_to 6896
  152.2309  133.5022  159.5252 H   0  0  0  0  0  0  0  0  0  0  0  0  # atno 6909 bound_to 6896
  146.2095  139.8112  142.8699 H   0  0  0  0  0  0  0  0  0  0  0  0  # atno 7974 bound_to 7965
  154.4182  140.1739  156.1719 H   0  0  0  0  0  0  0  0  0  0  0  0  # atno 8008 bound_to 7997
  155.9754  140.3382  155.6589 H   0  0  0  0  0  0  0  0  0  0  0  0  # atno 8009 bound_to 7997
  155.6571  140.0697  157.2558 H   0  0  0  0  0  0  0  0  0  0  0  0  # atno 8010 bound_to 7997
  139.4979  144.6068  151.6361 H   0  0  0  0  0  0  0  0  0  0  0  0  # atno 10167 bound_to 10162
  156.7230  130.5156  149.5863 H   0  0  0  0  0  0  0  0  0  0  0  0  # atno 10718 bound_to 10713
  153.1717  135.6813  153.8599 H   0  0  0  0  0  0  0  0  0  0  0  0  # atno 10763 bound_to 10752
  153.7961  135.3162  155.3385 H   0  0  0  0  0  0  0  0  0  0  0  0  # atno 10764 bound_to 10752
  154.8002  135.4782  154.0350 H   0  0  0  0  0  0  0  0  0  0  0  0  # atno 10765 bound_to 10752
  141.0790  133.9252  157.2329 H   0  0  0  0  0  0  0  0  0  0  0  0  # atno 11005 bound_to 11000
  145.3194  141.0240  143.3509 LP  0  0  0  0  0  0  0  0  0  0  0  0  # atno 17320 bound_to 7965
  144.8878  139.4816  143.6692 LP  0  0  0  0  0  0  0  0  0  0  0  0  # atno 17321 bound_to 7965
  140.5731  144.0074  150.6227 LP  0  0  0  0  0  0  0  0  0  0  0  0  # atno 17342 bound_to 10162
  140.3198  143.3144  152.0795 LP  0  0  0  0  0  0  0  0  0  0  0  0  # atno 17343 bound_to 10162
  156.1581  130.6355  151.0684 LP  0  0  0  0  0  0  0  0  0  0  0  0  # atno 17370 bound_to 10713
  157.6890  131.0816  150.7161 LP  0  0  0  0  0  0  0  0  0  0  0  0  # atno 17371 bound_to 10713
  139.9603  135.0156  156.9242 LP  0  0  0  0  0  0  0  0  0  0  0  0  # atno 17394 bound_to 11000
  140.5510  134.0627  155.7369 LP  0  0  0  0  0  0  0  0  0  0  0  0  # atno 17395 bound_to 11000

$$$$
