AV-unprocessed.smi:2124|AV-procd|sdf|8664|dock8
  -GOLD-   2272011413D 1   1.00000     0.00000
 Structure written by MMmdl.
 47 49  0  0  0  0  0  0  0  0  1 V2000
  151.2272  142.4427  155.6474 C   0  0  0  0  0  0  0  0  0  0  0  0
  150.2542  141.5160  154.9517 C   0  0  0  0  0  0  0  0  0  0  0  0
  149.0013  142.0712  154.7522 N   0  0  0  0  0  0  0  0  0  0  0  0
  148.0489  141.3047  154.1048 C   0  0  0  0  0  0  0  0  0  0  0  0
  146.7163  142.0024  153.8956 C   0  0  0  0  0  0  0  0  0  0  0  0
  148.3250  140.0411  153.6926 C   0  0  0  0  0  0  0  0  0  0  0  0
  147.3131  139.1780  152.9376 C   0  0  0  0  0  0  0  0  0  0  0  0
  146.7585  138.0027  153.7432 C   0  0  0  0  0  0  0  0  0  0  0  0
  146.2158  138.1960  154.8304 O   0  0  0  0  0  0  0  0  0  0  0  0
  146.8646  136.7963  153.1669 N   0  0  0  0  0  0  0  0  0  0  0  0
  146.1765  135.5832  153.5930 C   0  0  2  0  0  0  0  0  0  0  0  0
  146.6379  135.1928  155.0058 C   0  0  0  0  0  0  0  0  0  0  0  0
  146.4375  134.4640  152.5570 C   0  0  1  0  0  0  0  0  0  0  0  0
  145.8204  133.0936  152.9149 C   0  0  0  0  0  0  0  0  0  0  0  0
  145.0722  132.7040  151.6255 C   0  0  1  0  0  0  0  0  0  0  0  0
  143.8043  133.5686  151.4957 C   0  0  0  0  0  0  0  0  0  0  0  0
  144.3730  134.9496  151.1225 C   0  0  0  0  0  0  0  0  0  0  0  0
  145.8952  134.7018  151.1231 C   0  0  2  0  0  0  0  0  0  0  0  0
  145.9668  133.2942  150.5417 C   0  0  0  0  0  0  0  0  0  0  0  0
  149.6794  139.4956  153.9497 C   0  0  0  0  0  0  0  0  0  0  0  0
  149.9934  138.3593  153.5985 O   0  0  0  0  0  0  0  0  0  0  0  0
  150.6135  140.3199  154.5972 N   0  0  0  0  0  0  0  0  0  0  0  0
  148.7545  143.0076  155.0388 H   0  0  0  0  0  0  0  0  0  0  0  0
  152.2504  142.0786  155.5463 H   0  0  0  0  0  0  0  0  0  0  0  0
  150.9906  142.5099  156.7094 H   0  0  0  0  0  0  0  0  0  0  0  0
  151.1801  143.4438  155.2169 H   0  0  0  0  0  0  0  0  0  0  0  0
  146.4907  142.0841  152.8323 H   0  0  0  0  0  0  0  0  0  0  0  0
  146.7201  143.0097  154.3136 H   0  0  0  0  0  0  0  0  0  0  0  0
  145.9135  141.4443  154.3775 H   0  0  0  0  0  0  0  0  0  0  0  0
  147.7913  138.7874  152.0388 H   0  0  0  0  0  0  0  0  0  0  0  0
  146.4778  139.7763  152.5726 H   0  0  0  0  0  0  0  0  0  0  0  0
  147.3543  136.7451  152.2852 H   0  0  0  0  0  0  0  0  0  0  0  0
  145.1027  135.7734  153.6331 H   0  0  0  0  0  0  0  0  0  0  0  0
  146.1231  134.2981  155.3561 H   0  0  0  0  0  0  0  0  0  0  0  0
  146.4301  135.9902  155.7204 H   0  0  0  0  0  0  0  0  0  0  0  0
  147.7094  134.9921  155.0336 H   0  0  0  0  0  0  0  0  0  0  0  0
  147.5186  134.3374  152.4713 H   0  0  0  0  0  0  0  0  0  0  0  0
  146.6046  132.3715  153.1466 H   0  0  0  0  0  0  0  0  0  0  0  0
  145.1487  133.1373  153.7732 H   0  0  0  0  0  0  0  0  0  0  0  0
  144.8821  131.6342  151.5368 H   0  0  0  0  0  0  0  0  0  0  0  0
  143.1557  133.1946  150.7025 H   0  0  0  0  0  0  0  0  0  0  0  0
  143.2235  133.5937  152.4184 H   0  0  0  0  0  0  0  0  0  0  0  0
  144.0373  135.2423  150.1268 H   0  0  0  0  0  0  0  0  0  0  0  0
  144.0612  135.7343  151.8109 H   0  0  0  0  0  0  0  0  0  0  0  0
  146.4563  135.4480  150.5596 H   0  0  0  0  0  0  0  0  0  0  0  0
  146.9750  132.8760  150.5365 H   0  0  0  0  0  0  0  0  0  0  0  0
  145.5427  133.2168  149.5389 H   0  0  0  0  0  0  0  0  0  0  0  0
  1 24  1  0  0  0  0
  1 25  1  0  0  0  0
  1 26  1  0  0  0  0
  1  2  1  0  0  0  0
  2  3  1  0  0  0  0
  2 22  2  0  0  0  0
  3  4  1  0  0  0  0
  3 23  1  0  0  0  0
  4  6  2  0  0  0  0
  4  5  1  0  0  0  0
  5 27  1  0  0  0  0
  5 28  1  0  0  0  0
  5 29  1  0  0  0  0
  6 20  1  0  0  0  0
  6  7  1  0  0  0  0
  7  8  1  0  0  0  0
  7 30  1  0  0  0  0
  7 31  1  0  0  0  0
  8  9  2  0  0  0  0
  8 10  1  0  0  0  0
 10 11  1  0  0  0  0
 10 32  1  0  0  0  0
 11 12  1  0  0  0  0
 11 13  1  0  0  0  0
 11 33  1  0  0  0  0
 12 34  1  0  0  0  0
 12 35  1  0  0  0  0
 12 36  1  0  0  0  0
 13 18  1  0  0  0  0
 13 14  1  0  0  0  0
 13 37  1  0  0  0  0
 14 15  1  0  0  0  0
 14 38  1  0  0  0  0
 14 39  1  0  0  0  0
 15 19  1  0  0  0  0
 15 16  1  0  0  0  0
 15 40  1  0  0  0  0
 16 17  1  0  0  0  0
 16 41  1  0  0  0  0
 16 42  1  0  0  0  0
 17 18  1  0  0  0  0
 17 43  1  0  0  0  0
 17 44  1  0  0  0  0
 18 19  1  0  0  0  0
 18 45  1  0  0  0  0
 19 46  1  0  0  0  0
 19 47  1  0  0  0  0
 20 21  2  0  0  0  0
 20 22  1  0  0  0  0
M  END
> <s_m_source_file>
AV-unprocessed.smi

> <i_m_source_file_index>
2124

> <i_lp_mmshare_version>
43012

> <i_f3d_flags>
0

> <s_epik_input>
W0NIM11jMW5jKFtDSDNdKWMoYyg9TylbbkhdMSlbQ0gyXUMoPU8pW05IXVtDQEhdKFtDSDNdKVtDQEhdKFtDSDJdW0NASF0yMylbQ0BIXShbQ0gyXTMpW0NIMl1bQ0gyXTI=

> <s_epik_cmdline>
J2VwaWtfcHl0aG9uJywgJy1waCcsICc3LjAnLCAnLXRuJywgJzgnLCAnLW1hJywgJzIwMCcsICctbWV0YWxfYmluZGluZycsICctaW1hZScsICc8aW5maWxlLm1hZT4nLCAnLW9tYWUnLCAnPG91dGZpbGUubWFlPic=

> <r_lp_tautomer_probability>
0.156392

> <r_epik_Ionization_Penalty>
0.0139374

> <r_epik_Ionization_Penalty_Charging>
0.0138122

> <r_epik_Ionization_Penalty_Neutral>
0.000125146

> <r_epik_State_Penalty>
1.15342

> <r_epik_Charging_Adjusted_Penalty>
1.16723

> <i_epik_Tot_Q>
0

> <i_epik_Tot_abs_Q>
0

> <r_epik_Metal_State_Penalty>
1.3173

> <b_epik_Metal_Only>
0

> <s_lp_Force_Field>
OPLS_2005

> <r_lp_Energy>
54.2082

> <b_lp_Chiralities_Consistent>
1

> <s_lp_Variant>
AV-unprocessed.smi:2124-15

> <Gold.Version>
5.8.1

> <Gold.Id.Protein>
6NUR|6NUR_protein|mol2

> <Gold.PLP.Fitness>
42.3217

> <Gold.PLP.PLP>
-35.8906

> <Gold.PLP.part.hbond>
-2.6956

> <Gold.PLP.part.metal>
0.0000

> <Gold.PLP.part.buried>
-2.8315

> <Gold.PLP.part.nonpolar>
-29.2334

> <Gold.PLP.part.repulsive>
0.5575

> <Gold.PLP.ligand.clash>
0.0000

> <Gold.PLP.ligand.torsion>
0.1957

> <Gold.PLP.Chemscore.Hbond>
2.2631

> <Gold.PLP.Chemscore.CHOScore>
0.0000

> <Gold.PLP.Chemscore.Metal>
0.0000

> <Gold.Chemscore.Hbonds>
donor molecule, donor type, donor heavy atom, donor atom, acceptor molecule, acceptor atom, score
      L1  H     3    23       P1  8028  1.00
      L1  H    10    32       P1  7948  0.67
      P1  H  7989  7998       L1    22  0.60

> <Gold.PLP.Chemscore.Internal.Correction>
0.0331

> <Gold.Rescore>
     Score         DG    S(hbond)    S(metal)    S(lipo)     H(rot)  DE(clash)    DE(int)     intcor
     16.58     -16.84       1.97        0.00      76.92       1.65       0.07       0.19       ----

> <Gold.Chemscore.Fitness>
16.5824

> <Gold.Chemscore.DG>
-16.8385

> <Gold.Chemscore.ZeroCoef>
-5.4800

> <Gold.Chemscore.Hbond>
1.9735

> <Gold.Chemscore.Metal>
0.0000

> <Gold.Chemscore.Lipo>
76.9211

> <Gold.Chemscore.Internal_Hbond>
0.0000

> <Gold.Chemscore.DEClash>
0.0651

> <Gold.Chemscore.DEInternal>
0.1910

> <Gold.Chemscore.Rot>
1.6534

> <Gold.Chemscore.Internal.Correction>
   9.000000E+99

> <Gold.Chemscore.Hbonds>
donor molecule, donor type, donor heavy atom, donor atom, acceptor molecule, acceptor atom, score
      L1  H     3    23       P1  8028  1.00
      L1  H    10    32       P1  7948  0.68
      P1  H  7989  7998       L1    22  0.03

> <Gold.Chemscore.Hbond.Weighted>
-6.5914

> <Gold.Chemscore.Metal.Weighted>
-0.0000

> <Gold.Chemscore.Lipo.Weighted>
-8.9998

> <Gold.Chemscore.Internal_Hbond.Weighted>
0.0000

> <Gold.Chemscore.DEClash.Weighted>
0.0651

> <Gold.Chemscore.DEInternal.Weighted>
0.1910

> <Gold.Chemscore.Rot.Weighted>
4.2326

> <Gold.Chemscore.Internal.Correction.Weighted>
   9.000000E+99

> <Gold.Protein.RotatedTorsions>
[ 6907 6896 6895 6894 ] final   93.09 input  -60.11 | X-H torsion
[ 7974 7965 7964 7962 ] final -148.08 input  175.53 | X-H torsion
[ 8008 7997 7996 7995 ] final   36.87 input   59.86 | X-H torsion
[ 10167 10162 10161 10158 ] final  138.31 input  -65.29 | X-H torsion
[ 10718 10713 10712 10709 ] final  162.63 input   66.30 | X-H torsion
[ 10763 10752 10751 10750 ] final  128.97 input  -60.55 | X-H torsion
[ 11005 11000 10999 10996 ] final   72.44 input  -57.11 | X-H torsion

> <Gold.Protein.ActiveResidues>
 VAL166  LYS551  ARG553  GLY616  TRP617  ASP618  TYR619  PRO620  LYS621  CYS622 
 ASP623  PHE694  ASN695  SER759  ASP760  ASP761  ALA762  ILE779  LEU786  VAL792 
 PHE793  MET794  SER795  GLU796  ALA797  LYS798  CYS799  TRP800  GLU811  SER814 

> <Gold.Protein.RotatedAtoms>
  152.5453  134.1402  159.8475 H   0  0  0  0  0  0  0  0  0  0  0  0  # atno 6907 bound_to 6896
  151.1439  133.4946  159.2604 H   0  0  0  0  0  0  0  0  0  0  0  0  # atno 6908 bound_to 6896
  151.1544  135.0253  159.8737 H   0  0  0  0  0  0  0  0  0  0  0  0  # atno 6909 bound_to 6896
  144.8052  140.5243  143.5680 H   0  0  0  0  0  0  0  0  0  0  0  0  # atno 7974 bound_to 7965
  155.1945  140.3310  155.4353 H   0  0  0  0  0  0  0  0  0  0  0  0  # atno 8008 bound_to 7997
  156.2430  140.1904  156.6986 H   0  0  0  0  0  0  0  0  0  0  0  0  # atno 8009 bound_to 7997
  154.6183  140.0599  156.9568 H   0  0  0  0  0  0  0  0  0  0  0  0  # atno 8010 bound_to 7997
  139.5115  144.6360  151.5695 H   0  0  0  0  0  0  0  0  0  0  0  0  # atno 10167 bound_to 10162
  157.1199  131.0489  151.2420 H   0  0  0  0  0  0  0  0  0  0  0  0  # atno 10718 bound_to 10713
  153.7342  135.3234  155.3292 H   0  0  0  0  0  0  0  0  0  0  0  0  # atno 10763 bound_to 10752
  154.8316  135.4529  154.1091 H   0  0  0  0  0  0  0  0  0  0  0  0  # atno 10764 bound_to 10752
  153.2247  135.6952  153.8040 H   0  0  0  0  0  0  0  0  0  0  0  0  # atno 10765 bound_to 10752
  139.9491  134.7260  156.0907 H   0  0  0  0  0  0  0  0  0  0  0  0  # atno 11005 bound_to 11000
  145.5456  139.1476  143.3423 LP  0  0  0  0  0  0  0  0  0  0  0  0  # atno 17320 bound_to 7965
  146.2342  140.5595  142.8962 LP  0  0  0  0  0  0  0  0  0  0  0  0  # atno 17321 bound_to 7965
  140.6110  143.9437  150.6453 LP  0  0  0  0  0  0  0  0  0  0  0  0  # atno 17342 bound_to 10162
  140.2679  143.3477  152.1264 LP  0  0  0  0  0  0  0  0  0  0  0  0  # atno 17343 bound_to 10162
  157.4486  130.7585  149.7131 LP  0  0  0  0  0  0  0  0  0  0  0  0  # atno 17370 bound_to 10713
  155.9831  130.4003  150.3382 LP  0  0  0  0  0  0  0  0  0  0  0  0  # atno 17371 bound_to 10713
  141.1149  133.6631  156.3069 LP  0  0  0  0  0  0  0  0  0  0  0  0  # atno 17394 bound_to 11000
  140.5763  134.5790  157.5469 LP  0  0  0  0  0  0  0  0  0  0  0  0  # atno 17395 bound_to 11000

$$$$
