AV-unprocessed.smi:3078|AV-procd|sdf|11733|dock4
  -GOLD-   2272017133D 1   1.00000     0.00000
 Structure written by MMmdl.
 23 23  0  0  0  0  0  0  0  0  2 V2000
  145.7720  130.5096  151.3439 C   0  0  0  0  0  0  0  0  0  0  0  0
  145.0978  131.7054  150.8855 N   0  0  0  0  0  0  0  0  0  0  0  0
  145.3435  133.0169  151.2291 C   0  0  0  0  0  0  0  0  0  0  0  0
  144.4466  133.7966  150.5509 C   0  0  0  0  0  0  0  0  0  0  0  0
  144.2762  135.2956  150.5659 C   0  0  2  0  0  0  0  0  0  0  0  0
  145.4333  135.9290  149.9127 N   0  3  0  0  0  0  0  0  0  0  0  0
  144.0872  135.8639  151.9854 C   0  0  0  0  0  0  0  0  0  0  0  0
  143.9553  137.3082  151.9515 N   0  0  0  0  0  0  0  0  0  0  0  0
  143.6871  132.8474  149.8076 C   0  0  0  0  0  0  0  0  0  0  0  0
  144.0794  131.6004  150.0082 N   0  0  0  0  0  0  0  0  0  0  0  0
  146.6842  130.7763  151.8784 H   0  0  0  0  0  0  0  0  0  0  0  0
  146.0326  129.8795  150.4929 H   0  0  0  0  0  0  0  0  0  0  0  0
  145.1168  129.9535  152.0150 H   0  0  0  0  0  0  0  0  0  0  0  0
  146.1259  133.2835  151.9246 H   0  0  0  0  0  0  0  0  0  0  0  0
  143.4063  135.5752  149.9696 H   0  0  0  0  0  0  0  0  0  0  0  0
  145.1987  136.8784  149.6608 H   0  0  0  0  0  0  0  0  0  0  0  0
  145.6756  135.4105  149.0809 H   0  0  0  0  0  0  0  0  0  0  0  0
  143.2116  135.4304  152.4696 H   0  0  0  0  0  0  0  0  0  0  0  0
  144.9504  135.6205  152.6056 H   0  0  0  0  0  0  0  0  0  0  0  0
  144.7536  137.7374  152.3978 H   0  0  0  0  0  0  0  0  0  0  0  0
  143.9511  137.6342  150.9952 H   0  0  0  0  0  0  0  0  0  0  0  0
  142.8647  133.0279  149.1310 H   0  0  0  0  0  0  0  0  0  0  0  0
  146.2185  135.9334  150.5479 H   0  0  0  0  0  0  0  0  0  0  0  0
  1  2  1  0  0  0  0
  1 11  1  0  0  0  0
  1 12  1  0  0  0  0
  1 13  1  0  0  0  0
  2 10  1  0  0  0  0
  2  3  1  0  0  0  0
  3  4  2  0  0  0  0
  3 14  1  0  0  0  0
  4  5  1  0  0  0  0
  4  9  1  0  0  0  0
  5  6  1  0  0  0  0
  5  7  1  0  0  0  0
  5 15  1  0  0  0  0
  6 16  1  0  0  0  0
  6 17  1  0  0  0  0
  6 23  1  0  0  0  0
  7  8  1  0  0  0  0
  7 18  1  0  0  0  0
  7 19  1  0  0  0  0
  8 20  1  0  0  0  0
  8 21  1  0  0  0  0
  9 10  2  0  0  0  0
  9 22  1  0  0  0  0
M  CHG  1   6   1
M  END
> <s_m_source_file>
AV-unprocessed.smi

> <i_m_source_file_index>
3078

> <i_lp_mmshare_version>
43012

> <i_f3d_flags>
0

> <s_epik_input>
W0NIM11uMVtjSF1jKFtjSF1uMSlbQ0BIXShbTkgyXSlbQ0gyXVtOSDJd

> <s_epik_cmdline>
J2VwaWtfcHl0aG9uJywgJy1waCcsICc3LjAnLCAnLXRuJywgJzgnLCAnLW1hJywgJzIwMCcsICctbWV0YWxfYmluZGluZycsICctaW1hZScsICc8aW5maWxlLm1hZT4nLCAnLW9tYWUnLCAnPG91dGZpbGUubWFlPic=

> <r_epik_Ionization_Penalty>
0.19937

> <r_epik_Ionization_Penalty_Charging>
0.0290541

> <r_epik_Ionization_Penalty_Neutral>
0.170316

> <r_epik_State_Penalty>
1.07715

> <r_epik_Charging_Adjusted_Penalty>
1.1062

> <i_epik_Tot_Q>
1

> <i_epik_Tot_abs_Q>
1

> <r_epik_Metal_State_Penalty>
1.07718

> <b_epik_Metal_Only>
0

> <s_lp_Force_Field>
OPLS_2005

> <r_lp_Energy>
0.880803

> <b_lp_Chiralities_Consistent>
1

> <s_lp_Variant>
AV-unprocessed.smi:3078-3

> <Gold.Version>
5.8.1

> <Gold.Id.Protein>
6NUR|6NUR_protein|mol2

> <Gold.PLP.Fitness>
36.0652

> <Gold.PLP.PLP>
-22.6253

> <Gold.PLP.part.hbond>
-4.5397

> <Gold.PLP.part.metal>
0.0000

> <Gold.PLP.part.buried>
-3.7175

> <Gold.PLP.part.nonpolar>
-15.5382

> <Gold.PLP.part.repulsive>
0.2815

> <Gold.PLP.ligand.clash>
0.0000

> <Gold.PLP.ligand.torsion>
0.1102

> <Gold.PLP.Chemscore.Hbond>
3.5491

> <Gold.PLP.Chemscore.CHOScore>
0.9998

> <Gold.PLP.Chemscore.Metal>
0.0000

> <Gold.Chemscore.Hbonds>
donor molecule, donor type, donor heavy atom, donor atom, acceptor molecule, acceptor atom, score
      L1  H     6    16       P1 10171  0.71
      L1  H     6    17       P1  7921  1.00
      L1  H     8    21       P1 10171  0.96
      P1  H 10785 10796       L1    10  0.55
      L1  C     9    22       P1 10186  0.93

> <Gold.PLP.Chemscore.Internal.Correction>
0.0134

> <Gold.Rescore>
     Score         DG    S(hbond)    S(metal)    S(lipo)     H(rot)  DE(clash)    DE(int)     intcor
     19.15     -19.54       3.70        0.00      45.25       1.40       0.31       0.07       ----

> <Gold.Chemscore.Fitness>
19.1548

> <Gold.Chemscore.DG>
-19.5369

> <Gold.Chemscore.ZeroCoef>
-5.4800

> <Gold.Chemscore.Hbond>
3.6999

> <Gold.Chemscore.Metal>
0.0000

> <Gold.Chemscore.Lipo>
45.2536

> <Gold.Chemscore.Internal_Hbond>
0.0000

> <Gold.Chemscore.DEClash>
0.3132

> <Gold.Chemscore.DEInternal>
0.0689

> <Gold.Chemscore.Rot>
1.4045

> <Gold.Chemscore.Internal.Correction>
   9.000000E+99

> <Gold.Chemscore.Hbonds>
donor molecule, donor type, donor heavy atom, donor atom, acceptor molecule, acceptor atom, score
      L1  H     6    16       P1 10171  0.68
      L1  H     6    17       P1  7921  0.99
      L1  H     8    21       P1 10171  0.91
      P1  H 10785 10796       L1    10  0.50

> <Gold.Chemscore.Hbond.Weighted>
-12.3578

> <Gold.Chemscore.Metal.Weighted>
-0.0000

> <Gold.Chemscore.Lipo.Weighted>
-5.2947

> <Gold.Chemscore.Internal_Hbond.Weighted>
0.0000

> <Gold.Chemscore.DEClash.Weighted>
0.3132

> <Gold.Chemscore.DEInternal.Weighted>
0.0689

> <Gold.Chemscore.Rot.Weighted>
3.5956

> <Gold.Chemscore.Internal.Correction.Weighted>
   9.000000E+99

> <Gold.Protein.RotatedTorsions>
[ 6907 6896 6895 6894 ] final  -14.60 input  -60.11 | X-H torsion
[ 7974 7965 7964 7962 ] final   32.32 input  175.53 | X-H torsion
[ 8008 7997 7996 7995 ] final  -23.71 input   59.86 | X-H torsion
[ 10167 10162 10161 10158 ] final  -84.88 input  -65.29 | X-H torsion
[ 10718 10713 10712 10709 ] final   24.75 input   66.30 | X-H torsion
[ 10763 10752 10751 10750 ] final   34.07 input  -60.55 | X-H torsion
[ 11005 11000 10999 10996 ] final  -40.25 input  -57.11 | X-H torsion

> <Gold.Protein.ActiveResidues>
 VAL166  LYS551  ARG553  GLY616  TRP617  ASP618  TYR619  PRO620  LYS621  CYS622 
 ASP623  PHE694  ASN695  SER759  ASP760  ASP761  ALA762  ILE779  LEU786  VAL792 
 PHE793  MET794  SER795  GLU796  ALA797  LYS798  CYS799  TRP800  GLU811  SER814 

> <Gold.Protein.RotatedAtoms>
  151.3369  135.0855  159.9357 H   0  0  0  0  0  0  0  0  0  0  0  0  # atno 6907 bound_to 6896
  152.5221  133.9486  159.7671 H   0  0  0  0  0  0  0  0  0  0  0  0  # atno 6908 bound_to 6896
  150.9835  133.6168  159.2748 H   0  0  0  0  0  0  0  0  0  0  0  0  # atno 6909 bound_to 6896
  146.1494  139.6541  142.9109 H   0  0  0  0  0  0  0  0  0  0  0  0  # atno 7974 bound_to 7965
  154.4570  140.1973  156.0352 H   0  0  0  0  0  0  0  0  0  0  0  0  # atno 8008 bound_to 7997
  156.0765  140.3277  155.7612 H   0  0  0  0  0  0  0  0  0  0  0  0  # atno 8009 bound_to 7997
  155.5180  140.0567  157.2902 H   0  0  0  0  0  0  0  0  0  0  0  0  # atno 8010 bound_to 7997
  140.4090  143.2630  151.9043 H   0  0  0  0  0  0  0  0  0  0  0  0  # atno 10167 bound_to 10162
  157.1840  130.6816  149.6124 H   0  0  0  0  0  0  0  0  0  0  0  0  # atno 10718 bound_to 10713
  153.0181  135.6370  154.1611 H   0  0  0  0  0  0  0  0  0  0  0  0  # atno 10763 bound_to 10752
  154.1348  135.2838  155.3177 H   0  0  0  0  0  0  0  0  0  0  0  0  # atno 10764 bound_to 10752
  154.6168  135.5538  153.7593 H   0  0  0  0  0  0  0  0  0  0  0  0  # atno 10765 bound_to 10752
  141.0161  133.6885  156.2296 H   0  0  0  0  0  0  0  0  0  0  0  0  # atno 11005 bound_to 11000
  145.4860  141.0438  143.2619 LP  0  0  0  0  0  0  0  0  0  0  0  0  # atno 17320 bound_to 7965
  144.7885  139.6377  143.7123 LP  0  0  0  0  0  0  0  0  0  0  0  0  # atno 17321 bound_to 7965
  139.4783  144.5556  151.8318 LP  0  0  0  0  0  0  0  0  0  0  0  0  # atno 17342 bound_to 10162
  140.4658  144.1657  150.5911 LP  0  0  0  0  0  0  0  0  0  0  0  0  # atno 17343 bound_to 10162
  155.9720  130.4637  150.6191 LP  0  0  0  0  0  0  0  0  0  0  0  0  # atno 17370 bound_to 10713
  157.3925  131.0798  151.1381 LP  0  0  0  0  0  0  0  0  0  0  0  0  # atno 17371 bound_to 10713
  140.6652  134.4925  157.5585 LP  0  0  0  0  0  0  0  0  0  0  0  0  # atno 17394 bound_to 11000
  139.9118  134.8329  156.1503 LP  0  0  0  0  0  0  0  0  0  0  0  0  # atno 17395 bound_to 11000

$$$$
