AV-unprocessed.smi:360|AV-procd|sdf|2419|dock9
  -GOLD-   2262022353D 1   1.00000     0.00000
 Structure written by MMmdl.
 37 38  0  0  0  0  0  0  0  0  1 V2000
  152.4821  143.3291  161.1991 C   0  0  0  0  0  0  0  0  0  0  0  0
  153.3768  142.3330  161.1200 C   0  0  0  0  0  0  0  0  0  0  0  0
  153.1811  141.0742  160.3048 C   0  0  0  0  0  0  0  0  0  0  0  0
  152.4838  141.3352  159.0573 N   0  0  0  0  0  0  0  0  0  0  0  0
  152.2408  140.4506  158.0146 C   0  0  0  0  0  0  0  0  0  0  0  0
  152.6843  139.0658  158.0442 C   0  0  0  0  0  0  0  0  0  0  0  0
  152.4587  138.2399  157.0819 N   0  0  0  0  0  0  0  0  0  0  0  0
  151.7683  138.6667  155.9651 N   0  0  0  0  0  0  0  0  0  0  0  0
  151.5878  137.6275  154.9444 C   0  0  0  0  0  0  0  0  0  0  0  0
  150.5453  136.5816  155.3712 C   0  0  0  0  0  0  0  0  0  0  0  0
  151.2048  135.3838  155.7587 O   0  0  0  0  0  0  0  0  0  0  0  0
  150.6780  134.1813  155.3408 C   0  0  0  0  0  0  0  0  0  0  0  0
  151.1702  133.0170  155.9659 C   0  0  0  0  0  0  0  0  0  0  0  0
  150.6904  131.7445  155.6008 C   0  0  0  0  0  0  0  0  0  0  0  0
  149.7070  131.6242  154.6014 C   0  0  0  0  0  0  0  0  0  0  0  0
  149.1167  130.0665  154.1517 Cl  0  0  0  0  0  0  0  0  0  0  0  0
  149.2064  132.7779  153.9692 C   0  0  0  0  0  0  0  0  0  0  0  0
  149.6875  134.0506  154.3343 C   0  0  0  0  0  0  0  0  0  0  0  0
  151.2935  139.9348  155.7821 C   0  0  0  0  0  0  0  0  0  0  0  0
  150.6898  140.2746  154.7638 O   0  0  0  0  0  0  0  0  0  0  0  0
  151.5681  140.8476  156.9014 C   0  0  0  0  0  0  0  0  0  0  0  0
  150.9975  142.4771  156.7599 Cl  0  0  0  0  0  0  0  0  0  0  0  0
  151.5447  143.2855  160.6637 H   0  0  0  0  0  0  0  0  0  0  0  0
  152.6775  144.2035  161.8024 H   0  0  0  0  0  0  0  0  0  0  0  0
  154.3027  142.4097  161.6715 H   0  0  0  0  0  0  0  0  0  0  0  0
  154.1581  140.6443  160.0834 H   0  0  0  0  0  0  0  0  0  0  0  0
  152.6249  140.3422  160.8912 H   0  0  0  0  0  0  0  0  0  0  0  0
  152.1675  142.2867  158.9334 H   0  0  0  0  0  0  0  0  0  0  0  0
  153.2268  138.7554  158.9367 H   0  0  0  0  0  0  0  0  0  0  0  0
  151.2579  138.0968  154.0160 H   0  0  0  0  0  0  0  0  0  0  0  0
  152.5318  137.1397  154.6960 H   0  0  0  0  0  0  0  0  0  0  0  0
  149.9374  136.9723  156.1891 H   0  0  0  0  0  0  0  0  0  0  0  0
  149.8829  136.3759  154.5291 H   0  0  0  0  0  0  0  0  0  0  0  0
  151.9245  133.1010  156.7347 H   0  0  0  0  0  0  0  0  0  0  0  0
  151.0785  130.8626  156.0892 H   0  0  0  0  0  0  0  0  0  0  0  0
  148.4523  132.6891  153.2010 H   0  0  0  0  0  0  0  0  0  0  0  0
  149.2809  134.9113  153.8256 H   0  0  0  0  0  0  0  0  0  0  0  0
  1  2  2  0  0  0  0
  1 23  1  0  0  0  0
  1 24  1  0  0  0  0
  2  3  1  0  0  0  0
  2 25  1  0  0  0  0
  3  4  1  0  0  0  0
  3 26  1  0  0  0  0
  3 27  1  0  0  0  0
  4  5  1  0  0  0  0
  4 28  1  0  0  0  0
  5 21  2  0  0  0  0
  5  6  1  0  0  0  0
  6  7  2  0  0  0  0
  6 29  1  0  0  0  0
  7  8  1  0  0  0  0
  8  9  1  0  0  0  0
  8 19  1  0  0  0  0
  9 10  1  0  0  0  0
  9 30  1  0  0  0  0
  9 31  1  0  0  0  0
 10 11  1  0  0  0  0
 10 32  1  0  0  0  0
 10 33  1  0  0  0  0
 11 12  1  0  0  0  0
 12 18  1  0  0  0  0
 12 13  2  0  0  0  0
 13 14  1  0  0  0  0
 13 34  1  0  0  0  0
 14 15  2  0  0  0  0
 14 35  1  0  0  0  0
 15 16  1  0  0  0  0
 15 17  1  0  0  0  0
 17 18  2  0  0  0  0
 17 36  1  0  0  0  0
 18 37  1  0  0  0  0
 19 20  2  0  0  0  0
 19 21  1  0  0  0  0
 21 22  1  0  0  0  0
M  END
> <s_m_source_file>
AV-unprocessed.smi

> <i_m_source_file_index>
360

> <i_lp_mmshare_version>
43012

> <i_f3d_flags>
0

> <s_epik_input>
W0NIMl09W0NIXVtDSDJdW05IXWMxW2NIXW5uKGMoPU8pYzFDbClbQ0gyXVtDSDJdT2MyW2NIXVtjSF1jKENsKVtjSF1bY0hdMg==

> <s_epik_cmdline>
J2VwaWtfcHl0aG9uJywgJy1waCcsICc3LjAnLCAnLXRuJywgJzgnLCAnLW1hJywgJzIwMCcsICctbWV0YWxfYmluZGluZycsICctaW1hZScsICc8aW5maWxlLm1hZT4nLCAnLW9tYWUnLCAnPG91dGZpbGUubWFlPic=

> <r_lp_tautomer_probability>
1

> <r_epik_Ionization_Penalty>
1.57681e-05

> <r_epik_Ionization_Penalty_Charging>
9.79356e-10

> <r_epik_Ionization_Penalty_Neutral>
1.57671e-05

> <r_epik_State_Penalty>
-0

> <r_epik_Charging_Adjusted_Penalty>
9.79356e-10

> <i_epik_Tot_Q>
0

> <i_epik_Tot_abs_Q>
0

> <r_epik_Metal_State_Penalty>
-0

> <b_epik_Metal_Only>
0

> <s_lp_Force_Field>
OPLS_2005

> <r_lp_Energy>
29.545

> <b_lp_Chiralities_Consistent>
1

> <s_lp_Variant>
AV-unprocessed.smi:360-1

> <Gold.Version>
5.8.1

> <Gold.Id.Protein>
6NUR|6NUR_protein|mol2

> <Gold.PLP.Fitness>
47.9110

> <Gold.PLP.PLP>
-44.0308

> <Gold.PLP.part.hbond>
-2.0000

> <Gold.PLP.part.metal>
0.0000

> <Gold.PLP.part.buried>
-6.1238

> <Gold.PLP.part.nonpolar>
-36.0440

> <Gold.PLP.part.repulsive>
0.2403

> <Gold.PLP.ligand.clash>
0.0000

> <Gold.PLP.ligand.torsion>
1.1035

> <Gold.PLP.Chemscore.Hbond>
2.0000

> <Gold.PLP.Chemscore.CHOScore>
0.0000

> <Gold.PLP.Chemscore.Metal>
0.0000

> <Gold.Chemscore.Hbonds>
donor molecule, donor type, donor heavy atom, donor atom, acceptor molecule, acceptor atom, score
      P1  H  7989  7998       L1    20  1.00
      P1  H 10752 10763       L1    11  1.00

> <Gold.PLP.Chemscore.Internal.Correction>
0.0873

> <Gold.Rescore>
     Score         DG    S(hbond)    S(metal)    S(lipo)     H(rot)  DE(clash)    DE(int)     intcor
     17.30     -18.60       1.39        0.00     110.52       1.73       0.18       1.12       ----

> <Gold.Chemscore.Fitness>
17.2997

> <Gold.Chemscore.DG>
-18.6009

> <Gold.Chemscore.ZeroCoef>
-5.4800

> <Gold.Chemscore.Hbond>
1.3865

> <Gold.Chemscore.Metal>
0.0000

> <Gold.Chemscore.Lipo>
110.5223

> <Gold.Chemscore.Internal_Hbond>
0.0000

> <Gold.Chemscore.DEClash>
0.1773

> <Gold.Chemscore.DEInternal>
1.1239

> <Gold.Chemscore.Rot>
1.7348

> <Gold.Chemscore.Internal.Correction>
   9.000000E+99

> <Gold.Chemscore.Hbonds>
donor molecule, donor type, donor heavy atom, donor atom, acceptor molecule, acceptor atom, score
      P1  H  7989  7998       L1    20  0.94
      P1  H 10752 10763       L1    11  0.26

> <Gold.Chemscore.Hbond.Weighted>
-4.6308

> <Gold.Chemscore.Metal.Weighted>
-0.0000

> <Gold.Chemscore.Lipo.Weighted>
-12.9311

> <Gold.Chemscore.Internal_Hbond.Weighted>
0.0000

> <Gold.Chemscore.DEClash.Weighted>
0.1773

> <Gold.Chemscore.DEInternal.Weighted>
1.1239

> <Gold.Chemscore.Rot.Weighted>
4.4410

> <Gold.Chemscore.Internal.Correction.Weighted>
   9.000000E+99

> <Gold.Protein.RotatedTorsions>
[ 6907 6896 6895 6894 ] final   16.28 input  -60.11 | X-H torsion
[ 7974 7965 7964 7962 ] final  102.61 input  175.53 | X-H torsion
[ 8008 7997 7996 7995 ] final   44.60 input   59.86 | X-H torsion
[ 10167 10162 10161 10158 ] final  -52.36 input  -65.29 | X-H torsion
[ 10718 10713 10712 10709 ] final  -53.33 input   66.30 | X-H torsion
[ 10763 10752 10751 10750 ] final   80.06 input  -60.55 | X-H torsion
[ 11005 11000 10999 10996 ] final -168.25 input  -57.11 | X-H torsion

> <Gold.Protein.ActiveResidues>
 VAL166  LYS551  ARG553  GLY616  TRP617  ASP618  TYR619  PRO620  LYS621  CYS622 
 ASP623  PHE694  ASN695  SER759  ASP760  ASP761  ALA762  ILE779  LEU786  VAL792 
 PHE793  MET794  SER795  GLU796  ALA797  LYS798  CYS799  TRP800  GLU811  SER814 

> <Gold.Protein.RotatedAtoms>
  151.8314  135.0620  160.0436 H   0  0  0  0  0  0  0  0  0  0  0  0  # atno 6907 bound_to 6896
  152.2877  133.5527  159.5546 H   0  0  0  0  0  0  0  0  0  0  0  0  # atno 6908 bound_to 6896
  150.7216  134.0389  159.3801 H   0  0  0  0  0  0  0  0  0  0  0  0  # atno 6909 bound_to 6896
  145.3568  139.2427  143.3528 H   0  0  0  0  0  0  0  0  0  0  0  0  # atno 7974 bound_to 7965
  155.3220  140.3397  155.4241 H   0  0  0  0  0  0  0  0  0  0  0  0  # atno 8008 bound_to 7997
  156.1904  140.1695  156.8140 H   0  0  0  0  0  0  0  0  0  0  0  0  # atno 8009 bound_to 7997
  154.5435  140.0720  156.8534 H   0  0  0  0  0  0  0  0  0  0  0  0  # atno 8010 bound_to 7997
  140.6541  143.2586  151.4637 H   0  0  0  0  0  0  0  0  0  0  0  0  # atno 10167 bound_to 10162
  156.1544  130.4150  149.9893 H   0  0  0  0  0  0  0  0  0  0  0  0  # atno 10718 bound_to 10713
  153.1003  135.4816  154.8854 H   0  0  0  0  0  0  0  0  0  0  0  0  # atno 10763 bound_to 10752
  154.7371  135.3073  154.8795 H   0  0  0  0  0  0  0  0  0  0  0  0  # atno 10764 bound_to 10752
  153.9413  135.6833  153.4797 H   0  0  0  0  0  0  0  0  0  0  0  0  # atno 10765 bound_to 10752
  140.5441  134.5493  157.5107 H   0  0  0  0  0  0  0  0  0  0  0  0  # atno 11005 bound_to 11000
  146.2944  140.4195  142.8727 LP  0  0  0  0  0  0  0  0  0  0  0  0  # atno 17320 bound_to 7965
  144.8676  140.7228  143.6067 LP  0  0  0  0  0  0  0  0  0  0  0  0  # atno 17321 bound_to 7965
  139.5761  144.1816  152.1905 LP  0  0  0  0  0  0  0  0  0  0  0  0  # atno 17342 bound_to 10162
  140.1127  144.5443  150.6914 LP  0  0  0  0  0  0  0  0  0  0  0  0  # atno 17343 bound_to 10162
  156.7741  130.9197  151.3645 LP  0  0  0  0  0  0  0  0  0  0  0  0  # atno 17370 bound_to 10713
  157.6683  130.9028  149.9982 LP  0  0  0  0  0  0  0  0  0  0  0  0  # atno 17371 bound_to 10713
  139.9489  134.7653  156.0496 LP  0  0  0  0  0  0  0  0  0  0  0  0  # atno 17394 bound_to 11000
  141.1210  133.6613  156.3215 LP  0  0  0  0  0  0  0  0  0  0  0  0  # atno 17395 bound_to 11000

$$$$
