AV-unprocessed.smi:1090|AV-procd|sdf|4735|dock4
  -GOLD-   22720 3273D 1   1.00000     0.00000
 Structure written by MMmdl.
 38 40  0  0  0  0  0  0  0  0  1 V2000
  150.9841  140.3678  156.5978 O   0  0  0  0  0  0  0  0  0  0  0  0
  150.7050  141.5632  156.6889 C   0  0  0  0  0  0  0  0  0  0  0  0
  151.7539  142.5621  157.1838 C   0  0  0  0  0  0  0  0  0  0  0  0
  151.6402  142.8810  158.6921 C   0  0  0  0  0  0  0  0  0  0  0  0
  152.2137  144.2453  159.0534 C   0  0  0  0  0  0  0  0  0  0  0  0
  151.9271  144.8883  160.3904 C   0  0  0  0  0  0  0  0  0  0  0  0
  151.3427  145.4788  159.1283 C   0  0  0  0  0  0  0  0  0  0  0  0
  152.3086  141.7900  159.5108 C   0  0  0  0  0  0  0  0  0  0  0  0
  152.8217  142.0637  160.9040 C   0  0  0  0  0  0  0  0  0  0  0  0
  153.7950  141.8019  159.7758 C   0  0  0  0  0  0  0  0  0  0  0  0
  149.4999  142.0656  156.3806 N   0  0  0  0  0  0  0  0  0  0  0  0
  148.3799  141.2892  155.8634 C   0  0  0  0  0  0  0  0  0  0  0  0
  147.9783  141.7512  154.4535 C   0  0  0  0  0  0  0  0  0  0  0  0
  147.4372  140.6362  153.6236 C   0  0  0  0  0  0  0  0  0  0  0  0
  147.5314  139.3482  153.9659 N   0  0  0  0  0  0  0  0  0  0  0  0
  146.9775  138.4989  153.0046 C   0  0  0  0  0  0  0  0  0  0  0  0
  146.4708  139.1616  151.9156 C   0  0  0  0  0  0  0  0  0  0  0  0
  146.6742  140.8861  152.0568 S   0  0  0  0  0  0  0  0  0  0  0  0
  152.7450  142.1626  156.9634 H   0  0  0  0  0  0  0  0  0  0  0  0
  151.6646  143.4799  156.6011 H   0  0  0  0  0  0  0  0  0  0  0  0
  150.5815  142.8857  158.9590 H   0  0  0  0  0  0  0  0  0  0  0  0
  153.2205  144.4027  158.6708 H   0  0  0  0  0  0  0  0  0  0  0  0
  151.2414  144.3812  161.0661 H   0  0  0  0  0  0  0  0  0  0  0  0
  152.7400  145.4293  160.8705 H   0  0  0  0  0  0  0  0  0  0  0  0
  151.7654  146.4124  158.7632 H   0  0  0  0  0  0  0  0  0  0  0  0
  150.2734  145.3567  158.9661 H   0  0  0  0  0  0  0  0  0  0  0  0
  151.8662  140.8065  159.3612 H   0  0  0  0  0  0  0  0  0  0  0  0
  152.7516  143.0828  161.2794 H   0  0  0  0  0  0  0  0  0  0  0  0
  152.6926  141.2818  161.6494 H   0  0  0  0  0  0  0  0  0  0  0  0
  154.3130  140.8451  159.7687 H   0  0  0  0  0  0  0  0  0  0  0  0
  154.3730  142.6481  159.4101 H   0  0  0  0  0  0  0  0  0  0  0  0
  149.3549  143.0585  156.4939 H   0  0  0  0  0  0  0  0  0  0  0  0
  148.6288  140.2266  155.8621 H   0  0  0  0  0  0  0  0  0  0  0  0
  147.5389  141.4103  156.5469 H   0  0  0  0  0  0  0  0  0  0  0  0
  147.2277  142.5403  154.5146 H   0  0  0  0  0  0  0  0  0  0  0  0
  148.8369  142.1787  153.9343 H   0  0  0  0  0  0  0  0  0  0  0  0
  146.9883  137.4325  153.1760 H   0  0  0  0  0  0  0  0  0  0  0  0
  145.9955  138.7419  151.0412 H   0  0  0  0  0  0  0  0  0  0  0  0
  1  2  2  0  0  0  0
  2  3  1  0  0  0  0
  2 11  1  0  0  0  0
  3  4  1  0  0  0  0
  3 19  1  0  0  0  0
  3 20  1  0  0  0  0
  4  5  1  0  0  0  0
  4  8  1  0  0  0  0
  4 21  1  0  0  0  0
  5  7  1  0  0  0  0
  5  6  1  0  0  0  0
  5 22  1  0  0  0  0
  6  7  1  0  0  0  0
  6 23  1  0  0  0  0
  6 24  1  0  0  0  0
  7 25  1  0  0  0  0
  7 26  1  0  0  0  0
  8 10  1  0  0  0  0
  8  9  1  0  0  0  0
  8 27  1  0  0  0  0
  9 10  1  0  0  0  0
  9 28  1  0  0  0  0
  9 29  1  0  0  0  0
 10 30  1  0  0  0  0
 10 31  1  0  0  0  0
 11 12  1  0  0  0  0
 11 32  1  0  0  0  0
 12 13  1  0  0  0  0
 12 33  1  0  0  0  0
 12 34  1  0  0  0  0
 13 14  1  0  0  0  0
 13 35  1  0  0  0  0
 13 36  1  0  0  0  0
 14 18  1  0  0  0  0
 14 15  2  0  0  0  0
 15 16  1  0  0  0  0
 16 17  2  0  0  0  0
 16 37  1  0  0  0  0
 17 18  1  0  0  0  0
 17 38  1  0  0  0  0
M  END
> <s_m_source_file>
AV-unprocessed.smi

> <i_m_source_file_index>
1090

> <i_lp_mmshare_version>
43012

> <i_f3d_flags>
0

> <s_epik_input>
W0NIMl0xW0NIMl1bQ0hdMVtDSF0oW0NIXTJbQ0gyXVtDSDJdMilbQ0gyXUMoPU8pW05IXVtDSDJdW0NIMl1jM25bY0hdW2NIXXMz

> <s_epik_cmdline>
J2VwaWtfcHl0aG9uJywgJy1waCcsICc3LjAnLCAnLXRuJywgJzgnLCAnLW1hJywgJzIwMCcsICctbWV0YWxfYmluZGluZycsICctaW1hZScsICc8aW5maWxlLm1hZT4nLCAnLW9tYWUnLCAnPG91dGZpbGUubWFlPic=

> <r_lp_tautomer_probability>
1

> <r_epik_Ionization_Penalty>
0.000189819

> <r_epik_Ionization_Penalty_Charging>
0

> <r_epik_Ionization_Penalty_Neutral>
0.000189819

> <r_epik_State_Penalty>
-0

> <r_epik_Charging_Adjusted_Penalty>
0

> <i_epik_Tot_Q>
0

> <i_epik_Tot_abs_Q>
0

> <r_epik_Metal_State_Penalty>
-0

> <b_epik_Metal_Only>
0

> <s_lp_Force_Field>
OPLS_2005

> <r_lp_Energy>
14.2357

> <b_lp_Chiralities_Consistent>
1

> <s_lp_Variant>
AV-unprocessed.smi:1090-1

> <Gold.Version>
5.8.1

> <Gold.Id.Protein>
6NUR|6NUR_protein|mol2

> <Gold.PLP.Fitness>
42.9161

> <Gold.PLP.PLP>
-36.7119

> <Gold.PLP.part.hbond>
-1.0000

> <Gold.PLP.part.metal>
0.0000

> <Gold.PLP.part.buried>
0.7380

> <Gold.PLP.part.nonpolar>
-37.2732

> <Gold.PLP.part.repulsive>
0.2333

> <Gold.PLP.ligand.clash>
0.0000

> <Gold.PLP.ligand.torsion>
1.9831

> <Gold.PLP.Chemscore.Hbond>
0.9920

> <Gold.PLP.Chemscore.CHOScore>
1.6408

> <Gold.PLP.Chemscore.Metal>
0.0000

> <Gold.Chemscore.Hbonds>
donor molecule, donor type, donor heavy atom, donor atom, acceptor molecule, acceptor atom, score
      L1  H    11    32       P1  8028  0.94
      L1  C    16    37       P1  7948  0.45
      L1  C    17    38       P1 10171  1.00

> <Gold.PLP.Chemscore.Internal.Correction>
2.2718

> <Gold.Rescore>
     Score         DG    S(hbond)    S(metal)    S(lipo)     H(rot)  DE(clash)    DE(int)     intcor
     14.91     -20.04       0.97        0.00     133.81       1.70       3.33       1.81       ----

> <Gold.Chemscore.Fitness>
14.9075

> <Gold.Chemscore.DG>
-20.0437

> <Gold.Chemscore.ZeroCoef>
-5.4800

> <Gold.Chemscore.Hbond>
0.9745

> <Gold.Chemscore.Metal>
0.0000

> <Gold.Chemscore.Lipo>
133.8130

> <Gold.Chemscore.Internal_Hbond>
0.0000

> <Gold.Chemscore.DEClash>
3.3268

> <Gold.Chemscore.DEInternal>
1.8094

> <Gold.Chemscore.Rot>
1.6982

> <Gold.Chemscore.Internal.Correction>
   9.000000E+99

> <Gold.Chemscore.Hbonds>
donor molecule, donor type, donor heavy atom, donor atom, acceptor molecule, acceptor atom, score
      L1  H    11    32       P1  8028  0.91

> <Gold.Chemscore.Hbond.Weighted>
-3.2550

> <Gold.Chemscore.Metal.Weighted>
-0.0000

> <Gold.Chemscore.Lipo.Weighted>
-15.6561

> <Gold.Chemscore.Internal_Hbond.Weighted>
0.0000

> <Gold.Chemscore.DEClash.Weighted>
3.3268

> <Gold.Chemscore.DEInternal.Weighted>
1.8094

> <Gold.Chemscore.Rot.Weighted>
4.3474

> <Gold.Chemscore.Internal.Correction.Weighted>
   9.000000E+99

> <Gold.Protein.RotatedTorsions>
[ 6907 6896 6895 6894 ] final   -6.68 input  -60.11 | X-H torsion
[ 7974 7965 7964 7962 ] final  -64.34 input  175.53 | X-H torsion
[ 8008 7997 7996 7995 ] final   62.89 input   59.86 | X-H torsion
[ 10167 10162 10161 10158 ] final  175.71 input  -65.29 | X-H torsion
[ 10718 10713 10712 10709 ] final  127.29 input   66.30 | X-H torsion
[ 10763 10752 10751 10750 ] final  147.61 input  -60.55 | X-H torsion
[ 11005 11000 10999 10996 ] final  -13.78 input  -57.11 | X-H torsion

> <Gold.Protein.ActiveResidues>
 VAL166  LYS551  ARG553  GLY616  TRP617  ASP618  TYR619  PRO620  LYS621  CYS622 
 ASP623  PHE694  ASN695  SER759  ASP760  ASP761  ALA762  ILE779  LEU786  VAL792 
 PHE793  MET794  SER795  GLU796  ALA797  LYS798  CYS799  TRP800  GLU811  SER814 

> <Gold.Protein.RotatedAtoms>
  151.4617  135.1039  159.9726 H   0  0  0  0  0  0  0  0  0  0  0  0  # atno 6907 bound_to 6896
  152.4850  133.8346  159.7131 H   0  0  0  0  0  0  0  0  0  0  0  0  # atno 6908 bound_to 6896
  150.8952  133.7130  159.2920 H   0  0  0  0  0  0  0  0  0  0  0  0  # atno 6909 bound_to 6896
  145.7679  140.8828  143.0396 H   0  0  0  0  0  0  0  0  0  0  0  0  # atno 7974 bound_to 7965
  155.6216  140.3496  155.4654 H   0  0  0  0  0  0  0  0  0  0  0  0  # atno 8008 bound_to 7997
  156.0075  140.1226  157.0511 H   0  0  0  0  0  0  0  0  0  0  0  0  # atno 8009 bound_to 7997
  154.4269  140.1088  156.5769 H   0  0  0  0  0  0  0  0  0  0  0  0  # atno 8010 bound_to 7997
  139.5187  144.3000  152.0387 H   0  0  0  0  0  0  0  0  0  0  0  0  # atno 10167 bound_to 10162
  157.5345  131.1098  150.8956 H   0  0  0  0  0  0  0  0  0  0  0  0  # atno 10718 bound_to 10713
  154.0412  135.2889  155.3355 H   0  0  0  0  0  0  0  0  0  0  0  0  # atno 10763 bound_to 10752
  154.6928  135.5219  153.8419 H   0  0  0  0  0  0  0  0  0  0  0  0  # atno 10764 bound_to 10752
  153.0599  135.6610  154.0616 H   0  0  0  0  0  0  0  0  0  0  0  0  # atno 10765 bound_to 10752
  140.7796  133.8373  155.9280 H   0  0  0  0  0  0  0  0  0  0  0  0  # atno 11005 bound_to 11000
  144.6818  139.9814  143.7483 LP  0  0  0  0  0  0  0  0  0  0  0  0  # atno 17320 bound_to 7965
  146.0199  139.3242  143.0819 LP  0  0  0  0  0  0  0  0  0  0  0  0  # atno 17321 bound_to 7965
  140.2448  144.4231  150.6245 LP  0  0  0  0  0  0  0  0  0  0  0  0  # atno 17342 bound_to 10162
  140.6266  143.2182  151.6584 LP  0  0  0  0  0  0  0  0  0  0  0  0  # atno 17343 bound_to 10162
  156.9528  130.5426  149.5283 LP  0  0  0  0  0  0  0  0  0  0  0  0  # atno 17370 bound_to 10713
  156.0448  130.5526  150.8855 LP  0  0  0  0  0  0  0  0  0  0  0  0  # atno 17371 bound_to 10713
  140.9495  134.1797  157.4738 LP  0  0  0  0  0  0  0  0  0  0  0  0  # atno 17394 bound_to 11000
  139.8744  134.9904  156.5499 LP  0  0  0  0  0  0  0  0  0  0  0  0  # atno 17395 bound_to 11000

$$$$
