AV-unprocessed.smi:340|AV-procd|sdf|2380|dock7
  -GOLD-   2262022303D 1   1.00000     0.00000
 Structure written by MMmdl.
 35 36  0  0  0  0  0  0  0  0  1 V2000
  152.6969  136.5765  157.7156 C   0  0  0  0  0  0  0  0  0  0  0  0
  154.3732  135.9942  158.2014 S   0  0  0  0  0  0  0  0  0  0  0  0
  154.2073  134.8608  159.1236 O   0  0  0  0  0  0  0  0  0  0  0  0
  155.1987  135.8562  156.9917 O   0  0  0  0  0  0  0  0  0  0  0  0
  154.9928  137.3152  159.1259 N   0  0  0  0  0  0  0  0  0  0  0  0
  154.3137  137.8592  160.3032 C   0  0  0  0  0  0  0  0  0  0  0  0
  153.8708  139.2985  160.1290 C   0  0  0  0  0  0  0  0  0  0  0  0
  154.5202  140.3431  160.8143 C   0  0  0  0  0  0  0  0  0  0  0  0
  154.0614  141.6623  160.6377 C   0  0  0  0  0  0  0  0  0  0  0  0
  152.9644  141.9029  159.7759 C   0  0  0  0  0  0  0  0  0  0  0  0
  152.4852  143.2175  159.5868 N   0  0  0  0  0  0  0  0  0  0  0  0
  151.5117  143.3901  158.5111 C   0  0  0  0  0  0  0  0  0  0  0  0
  151.3117  144.8844  158.2040 C   0  0  0  0  0  0  0  0  0  0  0  0
  150.9515  145.5783  159.3939 O   0  0  0  0  0  0  0  0  0  0  0  0
  151.9674  145.4886  160.3874 C   0  0  0  0  0  0  0  0  0  0  0  0
  152.1843  144.0160  160.7738 C   0  0  0  0  0  0  0  0  0  0  0  0
  152.3415  140.8911  159.1213 N   0  0  0  0  0  0  0  0  0  0  0  0
  152.7861  139.6284  159.2921 C   0  0  0  0  0  0  0  0  0  0  0  0
  152.1773  135.7770  157.1882 H   0  0  0  0  0  0  0  0  0  0  0  0
  152.7778  137.4409  157.0579 H   0  0  0  0  0  0  0  0  0  0  0  0
  152.1315  136.8483  158.6067 H   0  0  0  0  0  0  0  0  0  0  0  0
  155.7568  137.8535  158.7174 H   0  0  0  0  0  0  0  0  0  0  0  0
  153.4360  137.2476  160.5123 H   0  0  0  0  0  0  0  0  0  0  0  0
  154.9704  137.7669  161.1691 H   0  0  0  0  0  0  0  0  0  0  0  0
  155.3507  140.1373  161.4735 H   0  0  0  0  0  0  0  0  0  0  0  0
  154.5418  142.4659  161.1756 H   0  0  0  0  0  0  0  0  0  0  0  0
  151.8199  142.8798  157.5999 H   0  0  0  0  0  0  0  0  0  0  0  0
  150.5653  142.9438  158.8193 H   0  0  0  0  0  0  0  0  0  0  0  0
  152.2176  145.3180  157.7771 H   0  0  0  0  0  0  0  0  0  0  0  0
  150.5201  145.0124  157.4659 H   0  0  0  0  0  0  0  0  0  0  0  0
  152.8927  145.9345  160.0186 H   0  0  0  0  0  0  0  0  0  0  0  0
  151.6624  146.0647  161.2610 H   0  0  0  0  0  0  0  0  0  0  0  0
  151.2896  143.6214  161.2575 H   0  0  0  0  0  0  0  0  0  0  0  0
  153.0020  143.9484  161.4926 H   0  0  0  0  0  0  0  0  0  0  0  0
  152.2520  138.8596  158.7529 H   0  0  0  0  0  0  0  0  0  0  0  0
  1  2  1  0  0  0  0
  1 19  1  0  0  0  0
  1 20  1  0  0  0  0
  1 21  1  0  0  0  0
  2  3  2  0  0  0  0
  2  4  2  0  0  0  0
  2  5  1  0  0  0  0
  5  6  1  0  0  0  0
  5 22  1  0  0  0  0
  6  7  1  0  0  0  0
  6 23  1  0  0  0  0
  6 24  1  0  0  0  0
  7 18  1  0  0  0  0
  7  8  2  0  0  0  0
  8  9  1  0  0  0  0
  8 25  1  0  0  0  0
  9 10  2  0  0  0  0
  9 26  1  0  0  0  0
 10 11  1  0  0  0  0
 10 17  1  0  0  0  0
 11 16  1  0  0  0  0
 11 12  1  0  0  0  0
 12 13  1  0  0  0  0
 12 27  1  0  0  0  0
 12 28  1  0  0  0  0
 13 14  1  0  0  0  0
 13 29  1  0  0  0  0
 13 30  1  0  0  0  0
 14 15  1  0  0  0  0
 15 16  1  0  0  0  0
 15 31  1  0  0  0  0
 15 32  1  0  0  0  0
 16 33  1  0  0  0  0
 16 34  1  0  0  0  0
 17 18  2  0  0  0  0
 18 35  1  0  0  0  0
M  END
> <s_m_source_file>
AV-unprocessed.smi

> <i_m_source_file_index>
340

> <i_lp_mmshare_version>
43012

> <i_f3d_flags>
0

> <s_epik_input>
W0NIM11TKD1PKSg9TylbTkhdW0NIMl1jMVtjSF1bY0hdYyhuW2NIXTEpTjJbQ0gyXVtDSDJdT1tDSDJdW0NIMl0y

> <s_epik_cmdline>
J2VwaWtfcHl0aG9uJywgJy1waCcsICc3LjAnLCAnLXRuJywgJzgnLCAnLW1hJywgJzIwMCcsICctbWV0YWxfYmluZGluZycsICctaW1hZScsICc8aW5maWxlLm1hZT4nLCAnLW9tYWUnLCAnPG91dGZpbGUubWFlPic=

> <r_lp_tautomer_probability>
1

> <r_epik_Ionization_Penalty>
0.00676355

> <r_epik_Ionization_Penalty_Charging>
0

> <r_epik_Ionization_Penalty_Neutral>
0.00676355

> <r_epik_State_Penalty>
0.00499739

> <r_epik_Charging_Adjusted_Penalty>
0.00499739

> <i_epik_Tot_Q>
0

> <i_epik_Tot_abs_Q>
0

> <r_epik_Metal_State_Penalty>
0.025736

> <b_epik_Metal_Only>
0

> <s_lp_Force_Field>
OPLS_2005

> <r_lp_Energy>
12.1718

> <b_lp_Chiralities_Consistent>
1

> <s_lp_Variant>
AV-unprocessed.smi:340-1

> <Gold.Version>
5.8.1

> <Gold.Id.Protein>
6NUR|6NUR_protein|mol2

> <Gold.PLP.Fitness>
39.6565

> <Gold.PLP.PLP>
-33.9887

> <Gold.PLP.part.hbond>
-3.2794

> <Gold.PLP.part.metal>
0.0000

> <Gold.PLP.part.buried>
-5.5975

> <Gold.PLP.part.nonpolar>
-25.3807

> <Gold.PLP.part.repulsive>
0.2508

> <Gold.PLP.ligand.clash>
0.0000

> <Gold.PLP.ligand.torsion>
0.8423

> <Gold.PLP.Chemscore.Hbond>
2.0000

> <Gold.PLP.Chemscore.CHOScore>
0.0000

> <Gold.PLP.Chemscore.Metal>
0.0000

> <Gold.Chemscore.Hbonds>
donor molecule, donor type, donor heavy atom, donor atom, acceptor molecule, acceptor atom, score
      P1  H  6896  6909       L1     3  1.00
      P1  H 10752 10765       L1     4  1.00

> <Gold.PLP.Chemscore.Internal.Correction>
1.3524

> <Gold.Rescore>
     Score         DG    S(hbond)    S(metal)    S(lipo)     H(rot)  DE(clash)    DE(int)     intcor
     17.11     -18.10       1.98        0.00      86.17       1.59       0.22       0.77       ----

> <Gold.Chemscore.Fitness>
17.1145

> <Gold.Chemscore.DG>
-18.1011

> <Gold.Chemscore.ZeroCoef>
-5.4800

> <Gold.Chemscore.Hbond>
1.9805

> <Gold.Chemscore.Metal>
0.0000

> <Gold.Chemscore.Lipo>
86.1692

> <Gold.Chemscore.Internal_Hbond>
0.0000

> <Gold.Chemscore.DEClash>
0.2215

> <Gold.Chemscore.DEInternal>
0.7651

> <Gold.Chemscore.Rot>
1.5921

> <Gold.Chemscore.Internal.Correction>
   9.000000E+99

> <Gold.Chemscore.Hbonds>
donor molecule, donor type, donor heavy atom, donor atom, acceptor molecule, acceptor atom, score
      P1  H  6896  6909       L1     3  0.98
      P1  H 10752 10765       L1     4  0.97

> <Gold.Chemscore.Hbond.Weighted>
-6.6150

> <Gold.Chemscore.Metal.Weighted>
-0.0000

> <Gold.Chemscore.Lipo.Weighted>
-10.0818

> <Gold.Chemscore.Internal_Hbond.Weighted>
0.0000

> <Gold.Chemscore.DEClash.Weighted>
0.2215

> <Gold.Chemscore.DEInternal.Weighted>
0.7651

> <Gold.Chemscore.Rot.Weighted>
4.0757

> <Gold.Chemscore.Internal.Correction.Weighted>
   9.000000E+99

> <Gold.Protein.RotatedTorsions>
[ 6907 6896 6895 6894 ] final -161.77 input  -60.11 | X-H torsion
[ 7974 7965 7964 7962 ] final   27.84 input  175.53 | X-H torsion
[ 8008 7997 7996 7995 ] final  167.67 input   59.86 | X-H torsion
[ 10167 10162 10161 10158 ] final  -93.29 input  -65.29 | X-H torsion
[ 10718 10713 10712 10709 ] final   97.45 input   66.30 | X-H torsion
[ 10763 10752 10751 10750 ] final  -71.32 input  -60.55 | X-H torsion
[ 11005 11000 10999 10996 ] final   45.94 input  -57.11 | X-H torsion

> <Gold.Protein.ActiveResidues>
 VAL166  LYS551  ARG553  GLY616  TRP617  ASP618  TYR619  PRO620  LYS621  CYS622 
 ASP623  PHE694  ASN695  SER759  ASP760  ASP761  ALA762  ILE779  LEU786  VAL792 
 PHE793  MET794  SER795  GLU796  ALA797  LYS798  CYS799  TRP800  GLU811  SER814 

> <Gold.Protein.RotatedAtoms>
  151.3698  133.3859  159.2698 H   0  0  0  0  0  0  0  0  0  0  0  0  # atno 6907 bound_to 6896
  150.9660  134.9042  159.7770 H   0  0  0  0  0  0  0  0  0  0  0  0  # atno 6908 bound_to 6896
  152.5167  134.3658  159.9353 H   0  0  0  0  0  0  0  0  0  0  0  0  # atno 6909 bound_to 6896
  146.1762  139.7137  142.8933 H   0  0  0  0  0  0  0  0  0  0  0  0  # atno 7974 bound_to 7965
  156.1614  140.1611  156.8606 H   0  0  0  0  0  0  0  0  0  0  0  0  # atno 8008 bound_to 7997
  154.5164  140.0788  156.8125 H   0  0  0  0  0  0  0  0  0  0  0  0  # atno 8009 bound_to 7997
  155.3700  140.3400  155.4245 H   0  0  0  0  0  0  0  0  0  0  0  0  # atno 8010 bound_to 7997
  140.3261  143.3021  151.9993 H   0  0  0  0  0  0  0  0  0  0  0  0  # atno 10167 bound_to 10162
  157.6912  131.0610  150.4646 H   0  0  0  0  0  0  0  0  0  0  0  0  # atno 10718 bound_to 10713
  154.4301  135.5966  153.6063 H   0  0  0  0  0  0  0  0  0  0  0  0  # atno 10763 bound_to 10752
  152.9798  135.5973  154.3850 H   0  0  0  0  0  0  0  0  0  0  0  0  # atno 10764 bound_to 10752
  154.3686  135.2841  155.2258 H   0  0  0  0  0  0  0  0  0  0  0  0  # atno 10765 bound_to 10752
  140.1414  134.4578  155.8447 H   0  0  0  0  0  0  0  0  0  0  0  0  # atno 11005 bound_to 11000
  145.4205  141.0406  143.2967 LP  0  0  0  0  0  0  0  0  0  0  0  0  # atno 17320 bound_to 7965
  144.8240  139.5742  143.6974 LP  0  0  0  0  0  0  0  0  0  0  0  0  # atno 17321 bound_to 7965
  139.4865  144.6272  151.7140 LP  0  0  0  0  0  0  0  0  0  0  0  0  # atno 17342 bound_to 10162
  140.5440  144.0534  150.6099 LP  0  0  0  0  0  0  0  0  0  0  0  0  # atno 17343 bound_to 10162
  156.4988  130.4112  149.6365 LP  0  0  0  0  0  0  0  0  0  0  0  0  # atno 17370 bound_to 10713
  156.3348  130.7350  151.2286 LP  0  0  0  0  0  0  0  0  0  0  0  0  # atno 17371 bound_to 10713
  141.2186  133.6834  156.7253 LP  0  0  0  0  0  0  0  0  0  0  0  0  # atno 17394 bound_to 11000
  140.2718  134.8386  157.3854 LP  0  0  0  0  0  0  0  0  0  0  0  0  # atno 17395 bound_to 11000

$$$$
