AV-unprocessed.smi:2555|AV-procd|sdf|10022|dock1
  -GOLD-   2272014 63D 1   1.00000     0.00000
 Structure written by MMmdl.
 40 41  0  0  0  0  0  0  0  0  1 V2000
  147.8670  139.7172  156.9475 C   0  0  0  0  0  0  0  0  0  0  0  0
  146.9190  140.7411  156.3924 C   0  0  0  0  0  0  0  0  0  0  0  0
  145.8369  141.0707  157.0776 N   0  0  0  0  0  0  0  0  0  0  0  0
  145.1731  142.0301  156.3069 O   0  0  0  0  0  0  0  0  0  0  0  0
  145.8896  142.2415  155.1736 C   0  0  0  0  0  0  0  0  0  0  0  0
  145.3412  143.2381  154.2093 C   0  0  0  0  0  0  0  0  0  0  0  0
  147.0098  141.4567  155.1642 C   0  0  0  0  0  0  0  0  0  0  0  0
  148.0836  141.3639  154.1116 C   0  0  0  0  0  0  0  0  0  0  0  0
  149.4294  141.0761  154.7769 C   0  0  0  0  0  0  0  0  0  0  0  0
  150.1236  140.1411  154.3779 O   0  0  0  0  0  0  0  0  0  0  0  0
  149.7829  141.8843  155.7888 N   0  0  0  0  0  0  0  0  0  0  0  0
  151.0040  141.7681  156.5808 C   0  0  0  0  0  0  0  0  0  0  0  0
  151.0172  142.7190  157.7968 C   0  0  0  0  0  0  0  0  0  0  0  0
  151.4103  144.1676  157.4262 C   0  0  0  0  0  0  0  0  0  0  0  0
  151.4547  145.0851  158.6593 C   0  0  0  0  0  0  0  0  0  0  0  0
  152.3933  144.5274  159.7388 C   0  0  0  0  0  0  0  0  0  0  0  0
  151.9967  143.0951  160.1249 C   0  0  0  0  0  0  0  0  0  0  0  0
  151.9604  142.1783  158.8918 C   0  0  0  0  0  0  0  0  0  0  0  0
  147.9724  138.8742  156.2647 H   0  0  0  0  0  0  0  0  0  0  0  0
  147.5244  139.3249  157.9058 H   0  0  0  0  0  0  0  0  0  0  0  0
  148.8571  140.1469  157.1003 H   0  0  0  0  0  0  0  0  0  0  0  0
  145.5135  142.9182  153.1815 H   0  0  0  0  0  0  0  0  0  0  0  0
  145.8183  144.2087  154.3457 H   0  0  0  0  0  0  0  0  0  0  0  0
  144.2670  143.3655  154.3454 H   0  0  0  0  0  0  0  0  0  0  0  0
  147.8710  140.5671  153.3980 H   0  0  0  0  0  0  0  0  0  0  0  0
  148.1494  142.2820  153.5263 H   0  0  0  0  0  0  0  0  0  0  0  0
  149.1482  142.6279  156.0417 H   0  0  0  0  0  0  0  0  0  0  0  0
  151.0651  140.7355  156.9255 H   0  0  0  0  0  0  0  0  0  0  0  0
  151.8885  141.9300  155.9622 H   0  0  0  0  0  0  0  0  0  0  0  0
  150.0082  142.7423  158.2116 H   0  0  0  0  0  0  0  0  0  0  0  0
  152.3846  144.1696  156.9357 H   0  0  0  0  0  0  0  0  0  0  0  0
  150.7037  144.5827  156.7077 H   0  0  0  0  0  0  0  0  0  0  0  0
  151.7785  146.0840  158.3662 H   0  0  0  0  0  0  0  0  0  0  0  0
  150.4499  145.1939  159.0695 H   0  0  0  0  0  0  0  0  0  0  0  0
  153.4204  144.5369  159.3715 H   0  0  0  0  0  0  0  0  0  0  0  0
  152.3728  145.1704  160.6192 H   0  0  0  0  0  0  0  0  0  0  0  0
  152.6994  142.7010  160.8596 H   0  0  0  0  0  0  0  0  0  0  0  0
  151.0176  143.1022  160.6055 H   0  0  0  0  0  0  0  0  0  0  0  0
  151.6460  141.1787  159.1939 H   0  0  0  0  0  0  0  0  0  0  0  0
  152.9690  142.0740  158.4896 H   0  0  0  0  0  0  0  0  0  0  0  0
  1  2  1  0  0  0  0
  1 19  1  0  0  0  0
  1 20  1  0  0  0  0
  1 21  1  0  0  0  0
  2  7  1  0  0  0  0
  2  3  2  0  0  0  0
  3  4  1  0  0  0  0
  4  5  1  0  0  0  0
  5  6  1  0  0  0  0
  5  7  2  0  0  0  0
  6 22  1  0  0  0  0
  6 23  1  0  0  0  0
  6 24  1  0  0  0  0
  7  8  1  0  0  0  0
  8  9  1  0  0  0  0
  8 25  1  0  0  0  0
  8 26  1  0  0  0  0
  9 10  2  0  0  0  0
  9 11  1  0  0  0  0
 11 12  1  0  0  0  0
 11 27  1  0  0  0  0
 12 13  1  0  0  0  0
 12 28  1  0  0  0  0
 12 29  1  0  0  0  0
 13 18  1  0  0  0  0
 13 14  1  0  0  0  0
 13 30  1  0  0  0  0
 14 15  1  0  0  0  0
 14 31  1  0  0  0  0
 14 32  1  0  0  0  0
 15 16  1  0  0  0  0
 15 33  1  0  0  0  0
 15 34  1  0  0  0  0
 16 17  1  0  0  0  0
 16 35  1  0  0  0  0
 16 36  1  0  0  0  0
 17 18  1  0  0  0  0
 17 37  1  0  0  0  0
 17 38  1  0  0  0  0
 18 39  1  0  0  0  0
 18 40  1  0  0  0  0
M  END
> <s_m_source_file>
AV-unprocessed.smi

> <i_m_source_file_index>
2555

> <i_lp_mmshare_version>
43012

> <i_f3d_flags>
0

> <s_epik_input>
W0NIM11jMW5vYyhbQ0gzXSljMVtDSDJdQyg9TylbTkhdW0NIMl1bQ0hdMltDSDJdW0NIMl1bQ0gyXVtDSDJdW0NIMl0y

> <s_epik_cmdline>
J2VwaWtfcHl0aG9uJywgJy1waCcsICc3LjAnLCAnLXRuJywgJzgnLCAnLW1hJywgJzIwMCcsICctbWV0YWxfYmluZGluZycsICctaW1hZScsICc8aW5maWxlLm1hZT4nLCAnLW9tYWUnLCAnPG91dGZpbGUubWFlPic=

> <r_lp_tautomer_probability>
1

> <r_epik_Ionization_Penalty>
1.94914e-08

> <r_epik_Ionization_Penalty_Charging>
0

> <r_epik_Ionization_Penalty_Neutral>
1.94914e-08

> <r_epik_State_Penalty>
-0

> <r_epik_Charging_Adjusted_Penalty>
0

> <i_epik_Tot_Q>
0

> <i_epik_Tot_abs_Q>
0

> <r_epik_Metal_State_Penalty>
-0

> <b_epik_Metal_Only>
0

> <s_lp_Force_Field>
OPLS_2005

> <r_lp_Energy>
4.99285

> <b_lp_Chiralities_Consistent>
1

> <s_lp_Variant>
AV-unprocessed.smi:2555-1

> <Gold.Version>
5.8.1

> <Gold.Id.Protein>
6NUR|6NUR_protein|mol2

> <Gold.PLP.Fitness>
45.2268

> <Gold.PLP.PLP>
-40.5928

> <Gold.PLP.part.hbond>
-2.0000

> <Gold.PLP.part.metal>
0.0000

> <Gold.PLP.part.buried>
-4.7437

> <Gold.PLP.part.nonpolar>
-33.5386

> <Gold.PLP.part.repulsive>
0.4177

> <Gold.PLP.ligand.clash>
0.0054

> <Gold.PLP.ligand.torsion>
0.6969

> <Gold.PLP.Chemscore.Hbond>
2.0000

> <Gold.PLP.Chemscore.CHOScore>
0.0000

> <Gold.PLP.Chemscore.Metal>
0.0000

> <Gold.Chemscore.Hbonds>
donor molecule, donor type, donor heavy atom, donor atom, acceptor molecule, acceptor atom, score
      L1  H    11    27       P1  8028  0.56
      P1  H  7989  7998       L1    10  1.00

> <Gold.PLP.Chemscore.Internal.Correction>
0.0333

> <Gold.Rescore>
     Score         DG    S(hbond)    S(metal)    S(lipo)     H(rot)  DE(clash)    DE(int)     intcor
     18.20     -18.95       1.58        0.00     101.38       1.43       0.30       0.45       ----

> <Gold.Chemscore.Fitness>
18.2024

> <Gold.Chemscore.DG>
-18.9541

> <Gold.Chemscore.ZeroCoef>
-5.4800

> <Gold.Chemscore.Hbond>
1.5812

> <Gold.Chemscore.Metal>
0.0000

> <Gold.Chemscore.Lipo>
101.3786

> <Gold.Chemscore.Internal_Hbond>
0.0000

> <Gold.Chemscore.DEClash>
0.3003

> <Gold.Chemscore.DEInternal>
0.4513

> <Gold.Chemscore.Rot>
1.4329

> <Gold.Chemscore.Internal.Correction>
   9.000000E+99

> <Gold.Chemscore.Hbonds>
donor molecule, donor type, donor heavy atom, donor atom, acceptor molecule, acceptor atom, score
      L1  H    11    27       P1  8028  0.57
      P1  H  7989  7998       L1    10  0.63

> <Gold.Chemscore.Hbond.Weighted>
-5.2811

> <Gold.Chemscore.Metal.Weighted>
-0.0000

> <Gold.Chemscore.Lipo.Weighted>
-11.8613

> <Gold.Chemscore.Internal_Hbond.Weighted>
0.0000

> <Gold.Chemscore.DEClash.Weighted>
0.3003

> <Gold.Chemscore.DEInternal.Weighted>
0.4513

> <Gold.Chemscore.Rot.Weighted>
3.6683

> <Gold.Chemscore.Internal.Correction.Weighted>
   9.000000E+99

> <Gold.Protein.RotatedTorsions>
[ 6907 6896 6895 6894 ] final -151.86 input  -60.11 | X-H torsion
[ 7974 7965 7964 7962 ] final  129.21 input  175.53 | X-H torsion
[ 8008 7997 7996 7995 ] final  -76.58 input   59.86 | X-H torsion
[ 10167 10162 10161 10158 ] final -102.20 input  -65.29 | X-H torsion
[ 10718 10713 10712 10709 ] final   19.74 input   66.30 | X-H torsion
[ 10763 10752 10751 10750 ] final   65.27 input  -60.55 | X-H torsion
[ 11005 11000 10999 10996 ] final  123.93 input  -57.11 | X-H torsion

> <Gold.Protein.ActiveResidues>
 VAL166  LYS551  ARG553  GLY616  TRP617  ASP618  TYR619  PRO620  LYS621  CYS622 
 ASP623  PHE694  ASN695  SER759  ASP760  ASP761  ALA762  ILE779  LEU786  VAL792 
 PHE793  MET794  SER795  GLU796  ALA797  LYS798  CYS799  TRP800  GLU811  SER814 

> <Gold.Protein.RotatedAtoms>
  151.2193  133.4511  159.2600 H   0  0  0  0  0  0  0  0  0  0  0  0  # atno 6907 bound_to 6896
  151.0900  134.9910  159.8408 H   0  0  0  0  0  0  0  0  0  0  0  0  # atno 6908 bound_to 6896
  152.5433  134.2127  159.8809 H   0  0  0  0  0  0  0  0  0  0  0  0  # atno 6909 bound_to 6896
  145.0311  139.4045  143.5149 H   0  0  0  0  0  0  0  0  0  0  0  0  # atno 7974 bound_to 7965
  154.5518  140.0725  156.8679 H   0  0  0  0  0  0  0  0  0  0  0  0  # atno 8008 bound_to 7997
  155.2979  140.3382  155.4231 H   0  0  0  0  0  0  0  0  0  0  0  0  # atno 8009 bound_to 7997
  156.1967  140.1706  156.7968 H   0  0  0  0  0  0  0  0  0  0  0  0  # atno 8010 bound_to 7997
  140.2332  143.3592  152.0868 H   0  0  0  0  0  0  0  0  0  0  0  0  # atno 10167 bound_to 10162
  157.1147  130.6524  149.5907 H   0  0  0  0  0  0  0  0  0  0  0  0  # atno 10718 bound_to 10713
  153.0089  135.5363  154.6641 H   0  0  0  0  0  0  0  0  0  0  0  0  # atno 10763 bound_to 10752
  154.5842  135.2853  155.0704 H   0  0  0  0  0  0  0  0  0  0  0  0  # atno 10764 bound_to 10752
  154.1821  135.6514  153.5089 H   0  0  0  0  0  0  0  0  0  0  0  0  # atno 10765 bound_to 10752
  139.9335  134.9640  156.8333 H   0  0  0  0  0  0  0  0  0  0  0  0  # atno 11005 bound_to 11000
  146.3498  139.9861  142.8690 LP  0  0  0  0  0  0  0  0  0  0  0  0  # atno 17320 bound_to 7965
  145.1769  140.9748  143.4289 LP  0  0  0  0  0  0  0  0  0  0  0  0  # atno 17321 bound_to 7965
  139.5103  144.6881  151.5833 LP  0  0  0  0  0  0  0  0  0  0  0  0  # atno 17342 bound_to 10162
  140.6169  143.9331  150.6496 LP  0  0  0  0  0  0  0  0  0  0  0  0  # atno 17343 bound_to 10162
  155.9842  130.4866  150.6972 LP  0  0  0  0  0  0  0  0  0  0  0  0  # atno 17370 bound_to 10713
  157.4529  131.0874  151.0827 LP  0  0  0  0  0  0  0  0  0  0  0  0  # atno 17371 bound_to 10713
  140.6138  134.0057  155.7588 LP  0  0  0  0  0  0  0  0  0  0  0  0  # atno 17394 bound_to 11000
  141.0936  133.9878  157.3196 LP  0  0  0  0  0  0  0  0  0  0  0  0  # atno 17395 bound_to 11000

$$$$
