AV-unprocessed.smi:155|AV-procd|sdf|1285|dock9
  -GOLD-   2262018563D 1   1.00000     0.00000
 Structure written by MMmdl.
 64 67  0  0  0  0  0  0  0  0  3 V2000
  146.2203  132.7599  150.0596 C   0  0  0  0  0  0  0  0  0  0  0  0
  146.3245  133.8954  151.0051 N   0  3  0  0  0  0  0  0  0  0  0  0
  145.3911  134.9867  150.6470 C   0  0  0  0  0  0  0  0  0  0  0  0
  146.1891  133.4910  152.4278 C   0  0  0  0  0  0  0  0  0  0  0  0
  146.0399  134.6970  153.3801 C   0  0  0  0  0  0  0  0  0  0  0  0
  147.2957  135.0250  154.1071 N   0  3  2  0  0  0  0  0  0  0  0  0
  147.9852  133.8165  154.6325 C   0  0  0  0  0  0  0  0  0  0  0  0
  149.5025  133.9199  154.4053 C   0  0  0  0  0  0  0  0  0  0  0  0
  150.2287  134.8976  155.3415 C   0  0  0  0  0  0  0  0  0  0  0  0
  149.6235  136.2310  155.3325 N   0  0  0  0  0  0  0  0  0  0  0  0
  150.4056  137.3382  155.2391 C   0  0  0  0  0  0  0  0  0  0  0  0
  151.6730  137.2283  154.7599 N   0  0  0  0  0  0  0  0  0  0  0  0
  152.4609  138.3040  154.6728 C   0  0  0  0  0  0  0  0  0  0  0  0
  152.1875  139.5668  155.0045 N   0  0  0  0  0  0  0  0  0  0  0  0
  150.9160  139.6867  155.4813 C   0  0  0  0  0  0  0  0  0  0  0  0
  149.9669  138.6359  155.6312 C   0  0  0  0  0  0  0  0  0  0  0  0
  148.7759  139.1467  156.1365 N   0  0  0  0  0  0  0  0  0  0  0  0
  149.0119  140.4218  156.2867 C   0  0  0  0  0  0  0  0  0  0  0  0
  150.2718  140.8308  155.9147 N   0  0  0  0  0  0  0  0  0  0  0  0
  150.8042  142.1810  155.9667 C   0  0  0  0  0  0  0  0  0  0  0  0
  150.9738  142.6899  157.4145 C   0  0  1  0  0  0  0  0  0  0  0  0
  149.7783  143.3481  157.7896 O   0  0  0  0  0  0  0  0  0  0  0  0
  151.2283  141.5565  158.4282 C   0  0  1  0  0  0  0  0  0  0  0  0
  152.3024  140.5498  158.0074 C   0  0  0  0  0  0  0  0  0  0  0  0
  152.8223  139.9966  159.3248 C   0  0  0  0  0  0  0  0  0  0  0  0
  152.3141  140.9931  160.3683 C   0  0  0  0  0  0  0  0  0  0  0  0
  151.8047  142.0833  159.6142 O   0  0  0  0  0  0  0  0  0  0  0  0
  148.3392  136.3810  156.0147 C   0  0  0  0  0  0  0  0  0  0  0  0
  147.1133  136.1020  155.1202 C   0  0  0  0  0  0  0  0  0  0  0  0
  145.2502  132.2681  150.1426 H   0  0  0  0  0  0  0  0  0  0  0  0
  146.9980  132.0185  150.2407 H   0  0  0  0  0  0  0  0  0  0  0  0
  146.3381  133.1046  149.0316 H   0  0  0  0  0  0  0  0  0  0  0  0
  144.3542  134.6617  150.7429 H   0  0  0  0  0  0  0  0  0  0  0  0
  145.5535  135.3120  149.6187 H   0  0  0  0  0  0  0  0  0  0  0  0
  145.5396  135.8532  151.2924 H   0  0  0  0  0  0  0  0  0  0  0  0
  145.2977  132.8684  152.5215 H   0  0  0  0  0  0  0  0  0  0  0  0
  147.0380  132.8671  152.7111 H   0  0  0  0  0  0  0  0  0  0  0  0
  145.6882  135.5800  152.8451 H   0  0  0  0  0  0  0  0  0  0  0  0
  145.2729  134.4466  154.1147 H   0  0  0  0  0  0  0  0  0  0  0  0
  147.7412  133.6418  155.6814 H   0  0  0  0  0  0  0  0  0  0  0  0
  147.6413  132.9288  154.1004 H   0  0  0  0  0  0  0  0  0  0  0  0
  149.9465  132.9327  154.5381 H   0  0  0  0  0  0  0  0  0  0  0  0
  149.6971  134.1946  153.3676 H   0  0  0  0  0  0  0  0  0  0  0  0
  150.2146  134.5128  156.3619 H   0  0  0  0  0  0  0  0  0  0  0  0
  151.2765  134.9272  155.0421 H   0  0  0  0  0  0  0  0  0  0  0  0
  153.4528  138.1275  154.2827 H   0  0  0  0  0  0  0  0  0  0  0  0
  148.2676  141.1052  156.6690 H   0  0  0  0  0  0  0  0  0  0  0  0
  151.7584  142.2032  155.4383 H   0  0  0  0  0  0  0  0  0  0  0  0
  150.1244  142.8245  155.4076 H   0  0  0  0  0  0  0  0  0  0  0  0
  151.7963  143.4057  157.4511 H   0  0  0  0  0  0  0  0  0  0  0  0
  149.4313  143.7937  157.0322 H   0  0  0  0  0  0  0  0  0  0  0  0
  150.3028  141.0289  158.6694 H   0  0  0  0  0  0  0  0  0  0  0  0
  151.9167  139.7723  157.3473 H   0  0  0  0  0  0  0  0  0  0  0  0
  153.1127  141.0618  157.4862 H   0  0  0  0  0  0  0  0  0  0  0  0
  152.4302  138.9986  159.5242 H   0  0  0  0  0  0  0  0  0  0  0  0
  153.9111  139.9367  159.3193 H   0  0  0  0  0  0  0  0  0  0  0  0
  151.5071  140.5546  160.9569 H   0  0  0  0  0  0  0  0  0  0  0  0
  153.0966  141.3210  161.0528 H   0  0  0  0  0  0  0  0  0  0  0  0
  148.3264  135.6814  156.8513 H   0  0  0  0  0  0  0  0  0  0  0  0
  148.2456  137.3657  156.4749 H   0  0  0  0  0  0  0  0  0  0  0  0
  146.8651  137.0220  154.5930 H   0  0  0  0  0  0  0  0  0  0  0  0
  146.2564  135.8730  155.7551 H   0  0  0  0  0  0  0  0  0  0  0  0
  147.2532  134.2786  150.8978 H   0  0  0  0  0  0  0  0  0  0  0  0
  147.9252  135.3989  153.4110 H   0  0  0  0  0  0  0  0  0  0  0  0
  1  2  1  0  0  0  0
  1 30  1  0  0  0  0
  1 31  1  0  0  0  0
  1 32  1  0  0  0  0
  2  3  1  0  0  0  0
  2  4  1  0  0  0  0
  2 63  1  0  0  0  0
  3 33  1  0  0  0  0
  3 34  1  0  0  0  0
  3 35  1  0  0  0  0
  4  5  1  0  0  0  0
  4 36  1  0  0  0  0
  4 37  1  0  0  0  0
  5  6  1  0  0  0  0
  5 38  1  0  0  0  0
  5 39  1  0  0  0  0
  6 29  1  0  0  0  0
  6  7  1  0  0  0  0
  6 64  1  0  0  0  0
  7  8  1  0  0  0  0
  7 40  1  0  0  0  0
  7 41  1  0  0  0  0
  8  9  1  0  0  0  0
  8 42  1  0  0  0  0
  8 43  1  0  0  0  0
  9 10  1  0  0  0  0
  9 44  1  0  0  0  0
  9 45  1  0  0  0  0
 10 11  1  0  0  0  0
 10 28  1  0  0  0  0
 11 16  1  0  0  0  0
 11 12  2  0  0  0  0
 12 13  1  0  0  0  0
 13 14  2  0  0  0  0
 13 46  1  0  0  0  0
 14 15  1  0  0  0  0
 15 19  1  0  0  0  0
 15 16  2  0  0  0  0
 16 17  1  0  0  0  0
 17 18  2  0  0  0  0
 18 19  1  0  0  0  0
 18 47  1  0  0  0  0
 19 20  1  0  0  0  0
 20 21  1  0  0  0  0
 20 48  1  0  0  0  0
 20 49  1  0  0  0  0
 21 22  1  0  0  0  0
 21 23  1  0  0  0  0
 21 50  1  0  0  0  0
 22 51  1  0  0  0  0
 23 27  1  0  0  0  0
 23 24  1  0  0  0  0
 23 52  1  0  0  0  0
 24 25  1  0  0  0  0
 24 53  1  0  0  0  0
 24 54  1  0  0  0  0
 25 26  1  0  0  0  0
 25 55  1  0  0  0  0
 25 56  1  0  0  0  0
 26 27  1  0  0  0  0
 26 57  1  0  0  0  0
 26 58  1  0  0  0  0
 28 29  1  0  0  0  0
 28 59  1  0  0  0  0
 28 60  1  0  0  0  0
 29 61  1  0  0  0  0
 29 62  1  0  0  0  0
M  CHG  1   2   1
M  CHG  1   6   1
M  END
> <s_m_source_file>
AV-unprocessed.smi

> <i_m_source_file_index>
155

> <i_lp_mmshare_version>
43012

> <i_f3d_flags>
0

> <s_epik_input>
W0NIM11OKFtDSDNdKVtDSDJdW0NIMl1OMVtDSDJdW0NIMl1bQ0gyXU4oW0NIMl1bQ0gyXTEpYyhuW2NIXW4yKWMoYzIzKW5bY0hdbjNbQ0gyXVtDQEhdKFtPSF0pW0NAQEhdNFtDSDJdW0NIMl1bQ0gyXU80

> <s_epik_cmdline>
J2VwaWtfcHl0aG9uJywgJy1waCcsICc3LjAnLCAnLXRuJywgJzgnLCAnLW1hJywgJzIwMCcsICctbWV0YWxfYmluZGluZycsICctaW1hZScsICc8aW5maWxlLm1hZT4nLCAnLW9tYWUnLCAnPG91dGZpbGUubWFlPic=

> <r_lp_tautomer_probability>
1

> <r_epik_Ionization_Penalty>
3.0333

> <r_epik_Ionization_Penalty_Charging>
3.03317

> <r_epik_Ionization_Penalty_Neutral>
0.000131872

> <r_epik_State_Penalty>
1.99939

> <r_epik_Charging_Adjusted_Penalty>
5.03256

> <i_epik_Tot_Q>
2

> <i_epik_Tot_abs_Q>
2

> <r_epik_Metal_State_Penalty>
2.00021

> <b_epik_Metal_Only>
0

> <s_lp_Force_Field>
OPLS_2005

> <r_lp_Energy>
63.1179

> <b_lp_Chiralities_Consistent>
1

> <s_lp_Variant>
AV-unprocessed.smi:155-19

> <Gold.Version>
5.8.1

> <Gold.Id.Protein>
6NUR|6NUR_protein|mol2

> <Gold.PLP.Fitness>
53.3247

> <Gold.PLP.PLP>
-42.0969

> <Gold.PLP.part.hbond>
-4.0000

> <Gold.PLP.part.metal>
0.0000

> <Gold.PLP.part.buried>
-6.5817

> <Gold.PLP.part.nonpolar>
-32.1496

> <Gold.PLP.part.repulsive>
0.2510

> <Gold.PLP.ligand.clash>
0.0000

> <Gold.PLP.ligand.torsion>
1.2856

> <Gold.PLP.Chemscore.Hbond>
4.4896

> <Gold.PLP.Chemscore.CHOScore>
0.0000

> <Gold.PLP.Chemscore.Metal>
0.0000

> <Gold.Chemscore.Hbonds>
donor molecule, donor type, donor heavy atom, donor atom, acceptor molecule, acceptor atom, score
      L1  H     6    64       P1  7948  2.00
      L1  H    22    51       P1  8028  1.00
      P1  H  7989  7998       L1    14  0.32
      P1  H 10752 10765       L1    12  0.93

> <Gold.PLP.Chemscore.Internal.Correction>
0.3302

> <Gold.Rescore>
     Score         DG    S(hbond)    S(metal)    S(lipo)     H(rot)  DE(clash)    DE(int)     intcor
     13.09     -17.06       2.37        0.00      91.63       2.75       0.43       3.54       ----

> <Gold.Chemscore.Fitness>
13.0908

> <Gold.Chemscore.DG>
-17.0635

> <Gold.Chemscore.ZeroCoef>
-5.4800

> <Gold.Chemscore.Hbond>
2.3657

> <Gold.Chemscore.Metal>
0.0000

> <Gold.Chemscore.Lipo>
91.6266

> <Gold.Chemscore.Internal_Hbond>
0.0000

> <Gold.Chemscore.DEClash>
0.4290

> <Gold.Chemscore.DEInternal>
3.5437

> <Gold.Chemscore.Rot>
2.7493

> <Gold.Chemscore.Internal.Correction>
   9.000000E+99

> <Gold.Chemscore.Hbonds>
donor molecule, donor type, donor heavy atom, donor atom, acceptor molecule, acceptor atom, score
      L1  H     6    64       P1  7948  0.93
      L1  H    22    51       P1  8028  0.74
      P1  H  7989  7998       L1    14  0.01
      P1  H 10752 10765       L1    12  0.34

> <Gold.Chemscore.Hbond.Weighted>
-7.9015

> <Gold.Chemscore.Metal.Weighted>
-0.0000

> <Gold.Chemscore.Lipo.Weighted>
-10.7203

> <Gold.Chemscore.Internal_Hbond.Weighted>
0.0000

> <Gold.Chemscore.DEClash.Weighted>
0.4290

> <Gold.Chemscore.DEInternal.Weighted>
3.5437

> <Gold.Chemscore.Rot.Weighted>
7.0383

> <Gold.Chemscore.Internal.Correction.Weighted>
   9.000000E+99

> <Gold.Protein.RotatedTorsions>
[ 6907 6896 6895 6894 ] final  -96.49 input  -60.11 | X-H torsion
[ 7974 7965 7964 7962 ] final   22.16 input  175.53 | X-H torsion
[ 8008 7997 7996 7995 ] final  -76.95 input   59.86 | X-H torsion
[ 10167 10162 10161 10158 ] final  -52.23 input  -65.29 | X-H torsion
[ 10718 10713 10712 10709 ] final  -77.26 input   66.30 | X-H torsion
[ 10763 10752 10751 10750 ] final  163.57 input  -60.55 | X-H torsion
[ 11005 11000 10999 10996 ] final   35.31 input  -57.11 | X-H torsion

> <Gold.Protein.ActiveResidues>
 VAL166  LYS551  ARG553  GLY616  TRP617  ASP618  TYR619  PRO620  LYS621  CYS622 
 ASP623  PHE694  ASN695  SER759  ASP760  ASP761  ALA762  ILE779  LEU786  VAL792 
 PHE793  MET794  SER795  GLU796  ALA797  LYS798  CYS799  TRP800  GLU811  SER814 

> <Gold.Protein.RotatedAtoms>
  150.6990  134.1494  159.4134 H   0  0  0  0  0  0  0  0  0  0  0  0  # atno 6907 bound_to 6896
  151.9477  135.0181  160.0549 H   0  0  0  0  0  0  0  0  0  0  0  0  # atno 6908 bound_to 6896
  152.2038  133.4825  159.5109 H   0  0  0  0  0  0  0  0  0  0  0  0  # atno 6909 bound_to 6896
  146.2040  139.7924  142.8739 H   0  0  0  0  0  0  0  0  0  0  0  0  # atno 7974 bound_to 7965
  154.5552  140.0718  156.8731 H   0  0  0  0  0  0  0  0  0  0  0  0  # atno 8008 bound_to 7997
  155.2917  140.3378  155.4234 H   0  0  0  0  0  0  0  0  0  0  0  0  # atno 8009 bound_to 7997
  156.1996  140.1716  156.7914 H   0  0  0  0  0  0  0  0  0  0  0  0  # atno 8010 bound_to 7997
  140.6548  143.2591  151.4618 H   0  0  0  0  0  0  0  0  0  0  0  0  # atno 10167 bound_to 10162
  156.0150  130.4487  150.3318 H   0  0  0  0  0  0  0  0  0  0  0  0  # atno 10718 bound_to 10713
  154.2957  135.2760  155.2634 H   0  0  0  0  0  0  0  0  0  0  0  0  # atno 10763 bound_to 10752
  154.5094  135.5786  153.6596 H   0  0  0  0  0  0  0  0  0  0  0  0  # atno 10764 bound_to 10752
  152.9908  135.6177  154.3124 H   0  0  0  0  0  0  0  0  0  0  0  0  # atno 10765 bound_to 10752
  140.2440  134.3382  155.7915 H   0  0  0  0  0  0  0  0  0  0  0  0  # atno 11005 bound_to 11000
  145.3383  141.0282  143.3407 LP  0  0  0  0  0  0  0  0  0  0  0  0  # atno 17320 bound_to 7965
  144.8750  139.4984  143.6750 LP  0  0  0  0  0  0  0  0  0  0  0  0  # atno 17321 bound_to 7965
  139.5769  144.1799  152.1915 LP  0  0  0  0  0  0  0  0  0  0  0  0  # atno 17342 bound_to 10162
  140.1112  144.5455  150.6924 LP  0  0  0  0  0  0  0  0  0  0  0  0  # atno 17343 bound_to 10162
  157.1416  131.0298  151.2925 LP  0  0  0  0  0  0  0  0  0  0  0  0  # atno 17370 bound_to 10713
  157.4467  130.7575  149.7116 LP  0  0  0  0  0  0  0  0  0  0  0  0  # atno 17371 bound_to 10713
  141.2208  133.7315  156.8930 LP  0  0  0  0  0  0  0  0  0  0  0  0  # atno 17394 bound_to 11000
  140.1625  134.9156  157.2732 LP  0  0  0  0  0  0  0  0  0  0  0  0  # atno 17395 bound_to 11000

$$$$
