AV-unprocessed.smi:9|AV-procd|sdf|49|dock3
  -GOLD-   2262015163D 1   1.00000     0.00000
 Structure written by MMmdl.
 34 36  0  0  0  0  0  0  0  0  2 V2000
  148.5152  136.4741  161.1551 O   0  0  0  0  0  0  0  0  0  0  0  0
  147.9482  136.8413  160.1277 C   0  0  0  0  0  0  0  0  0  0  0  0
  146.6882  137.3762  160.0676 N   0  5  0  0  0  0  0  0  0  0  0  0
  146.1330  137.7656  158.8435 C   0  0  0  0  0  0  0  0  0  0  0  0
  144.7263  138.3513  158.9069 C   0  0  0  0  0  0  0  0  0  0  0  0
  144.2547  138.6355  157.6904 F   0  0  0  0  0  0  0  0  0  0  0  0
  143.8854  137.4886  159.4794 F   0  0  0  0  0  0  0  0  0  0  0  0
  144.7224  139.4774  159.6212 F   0  0  0  0  0  0  0  0  0  0  0  0
  146.7143  137.6683  157.6910 N   0  0  0  0  0  0  0  0  0  0  0  0
  147.9841  137.1345  157.7167 C   0  0  0  0  0  0  0  0  0  0  0  0
  148.6566  136.7090  158.8273 C   0  0  0  0  0  0  0  0  0  0  0  0
  149.9141  136.2168  158.4969 N   0  0  0  0  0  0  0  0  0  0  0  0
  149.9369  136.3748  157.1733 C   0  0  0  0  0  0  0  0  0  0  0  0
  148.8292  136.9237  156.6347 N   0  0  0  0  0  0  0  0  0  0  0  0
  148.5781  137.2090  155.2293 C   0  0  0  0  0  0  0  0  0  0  0  0
  149.0465  138.6136  154.7685 C   0  0  1  0  0  0  0  0  0  0  0  0
  148.7933  138.7092  153.3791 O   0  0  0  0  0  0  0  0  0  0  0  0
  148.2955  139.7470  155.5022 C   0  0  0  0  0  0  0  0  0  0  0  0
  148.9384  141.1138  155.2473 C   0  0  0  0  0  0  0  0  0  0  0  0
  150.4405  141.0546  155.5460 C   0  0  0  0  0  0  0  0  0  0  0  0
  151.0411  140.0695  154.7172 O   0  0  0  0  0  0  0  0  0  0  0  0
  150.5759  138.7447  154.9647 C   0  0  0  0  0  0  0  0  0  0  0  0
  150.7894  136.0870  156.5759 H   0  0  0  0  0  0  0  0  0  0  0  0
  149.0828  136.4410  154.6417 H   0  0  0  0  0  0  0  0  0  0  0  0
  147.5118  137.0808  155.0377 H   0  0  0  0  0  0  0  0  0  0  0  0
  148.7821  137.8366  153.0165 H   0  0  0  0  0  0  0  0  0  0  0  0
  147.2447  139.7739  155.2108 H   0  0  0  0  0  0  0  0  0  0  0  0
  148.3120  139.5511  156.5751 H   0  0  0  0  0  0  0  0  0  0  0  0
  148.7818  141.4123  154.2101 H   0  0  0  0  0  0  0  0  0  0  0  0
  148.4603  141.8733  155.8665 H   0  0  0  0  0  0  0  0  0  0  0  0
  150.9025  142.0195  155.3369 H   0  0  0  0  0  0  0  0  0  0  0  0
  150.6260  140.8308  156.5977 H   0  0  0  0  0  0  0  0  0  0  0  0
  150.8483  138.4722  155.9855 H   0  0  0  0  0  0  0  0  0  0  0  0
  151.1098  138.0544  154.3102 H   0  0  0  0  0  0  0  0  0  0  0  0
  1  2  2  0  0  0  0
  2 11  1  0  0  0  0
  2  3  1  0  0  0  0
  3  4  1  0  0  0  0
  4  5  1  0  0  0  0
  4  9  2  0  0  0  0
  5  6  1  0  0  0  0
  5  7  1  0  0  0  0
  5  8  1  0  0  0  0
  9 10  1  0  0  0  0
 10 14  1  0  0  0  0
 10 11  2  0  0  0  0
 11 12  1  0  0  0  0
 12 13  2  0  0  0  0
 13 14  1  0  0  0  0
 13 23  1  0  0  0  0
 14 15  1  0  0  0  0
 15 16  1  0  0  0  0
 15 24  1  0  0  0  0
 15 25  1  0  0  0  0
 16 22  1  0  0  0  0
 16 17  1  0  0  0  0
 16 18  1  0  0  0  0
 17 26  1  0  0  0  0
 18 19  1  0  0  0  0
 18 27  1  0  0  0  0
 18 28  1  0  0  0  0
 19 20  1  0  0  0  0
 19 29  1  0  0  0  0
 19 30  1  0  0  0  0
 20 21  1  0  0  0  0
 20 31  1  0  0  0  0
 20 32  1  0  0  0  0
 21 22  1  0  0  0  0
 22 33  1  0  0  0  0
 22 34  1  0  0  0  0
M  CHG  1   3  -1
M  END
> <s_m_source_file>
AV-unprocessed.smi

> <i_m_source_file_index>
9

> <i_lp_mmshare_version>
43012

> <i_f3d_flags>
0

> <s_epik_input>
RkMoRikoRiljKG4xKVtuSF1jKD1PKWMoYzEyKW5bY0hdbjJbQ0gyXVtDQEBdMyhbT0hdKVtDSDJdW0NIMl1bQ0gyXU9bQ0gyXTM=

> <s_epik_cmdline>
J2VwaWtfcHl0aG9uJywgJy1waCcsICc3LjAnLCAnLXRuJywgJzgnLCAnLW1hJywgJzIwMCcsICctbWV0YWxfYmluZGluZycsICctaW1hZScsICc8aW5maWxlLm1hZT4nLCAnLW9tYWUnLCAnPG91dGZpbGUubWFlPic=

> <r_lp_tautomer_probability>
1

> <r_epik_Ionization_Penalty>
0.188582

> <r_epik_Ionization_Penalty_Charging>
1.37005e-11

> <r_epik_Ionization_Penalty_Neutral>
0.188582

> <r_epik_State_Penalty>
0.012336

> <r_epik_Charging_Adjusted_Penalty>
0.012336

> <i_epik_Tot_Q>
-1

> <i_epik_Tot_abs_Q>
1

> <r_epik_Metal_State_Penalty>
0.0089237

> <b_epik_Metal_Only>
0

> <s_lp_Force_Field>
OPLS_2005

> <r_lp_Energy>
37.6166

> <b_lp_Chiralities_Consistent>
1

> <s_lp_Variant>
AV-unprocessed.smi:9-1

> <Gold.Version>
5.8.1

> <Gold.Id.Protein>
6NUR|6NUR_protein|mol2

> <Gold.PLP.Fitness>
36.3392

> <Gold.PLP.PLP>
-20.3376

> <Gold.PLP.part.hbond>
-6.0000

> <Gold.PLP.part.metal>
0.0000

> <Gold.PLP.part.buried>
-2.9135

> <Gold.PLP.part.nonpolar>
-12.0065

> <Gold.PLP.part.repulsive>
0.0758

> <Gold.PLP.ligand.clash>
0.0000

> <Gold.PLP.ligand.torsion>
0.4023

> <Gold.PLP.Chemscore.Hbond>
5.6000

> <Gold.PLP.Chemscore.CHOScore>
0.0000

> <Gold.PLP.Chemscore.Metal>
0.0000

> <Gold.Chemscore.Hbonds>
donor molecule, donor type, donor heavy atom, donor atom, acceptor molecule, acceptor atom, score
      L1  H    17    26       P1  7948  1.00
      P1  H  6896  6908       L1    12  1.00
      P1  H  6931  6943       L1     1  1.00
      P1  H  6934  6947       L1     3  1.50
      P1  H  7989  7998       L1    21  1.00

> <Gold.PLP.Chemscore.Internal.Correction>
0.0061

> <Gold.Rescore>
     Score         DG    S(hbond)    S(metal)    S(lipo)     H(rot)  DE(clash)    DE(int)     intcor
     15.19     -15.58       3.54        0.00      31.74       2.12       0.01       0.38       ----

> <Gold.Chemscore.Fitness>
15.1925

> <Gold.Chemscore.DG>
-15.5784

> <Gold.Chemscore.ZeroCoef>
-5.4800

> <Gold.Chemscore.Hbond>
3.5396

> <Gold.Chemscore.Metal>
0.0000

> <Gold.Chemscore.Lipo>
31.7376

> <Gold.Chemscore.Internal_Hbond>
0.0000

> <Gold.Chemscore.DEClash>
0.0060

> <Gold.Chemscore.DEInternal>
0.3799

> <Gold.Chemscore.Rot>
2.1239

> <Gold.Chemscore.Internal.Correction>
   9.000000E+99

> <Gold.Chemscore.Hbonds>
donor molecule, donor type, donor heavy atom, donor atom, acceptor molecule, acceptor atom, score
      L1  H    17    26       P1  7948  0.99
      P1  H  6896  6908       L1    12  0.90
      P1  H  6931  6943       L1     1  0.25
      P1  H  6934  6947       L1     3  0.04
      P1  H  7989  7998       L1    21  0.49

> <Gold.Chemscore.Hbond.Weighted>
-11.8223

> <Gold.Chemscore.Metal.Weighted>
-0.0000

> <Gold.Chemscore.Lipo.Weighted>
-3.7133

> <Gold.Chemscore.Internal_Hbond.Weighted>
0.0000

> <Gold.Chemscore.DEClash.Weighted>
0.0060

> <Gold.Chemscore.DEInternal.Weighted>
0.3799

> <Gold.Chemscore.Rot.Weighted>
5.4373

> <Gold.Chemscore.Internal.Correction.Weighted>
   9.000000E+99

> <Gold.Protein.RotatedTorsions>
[ 6907 6896 6895 6894 ] final -176.30 input  -60.11 | X-H torsion
[ 7974 7965 7964 7962 ] final  -61.82 input  175.53 | X-H torsion
[ 8008 7997 7996 7995 ] final -170.48 input   59.86 | X-H torsion
[ 10167 10162 10161 10158 ] final -159.48 input  -65.29 | X-H torsion
[ 10718 10713 10712 10709 ] final  168.97 input   66.30 | X-H torsion
[ 10763 10752 10751 10750 ] final  143.51 input  -60.55 | X-H torsion
[ 11005 11000 10999 10996 ] final  153.77 input  -57.11 | X-H torsion

> <Gold.Protein.ActiveResidues>
 VAL166  LYS551  ARG553  GLY616  TRP617  ASP618  TYR619  PRO620  LYS621  CYS622 
 ASP623  PHE694  ASN695  SER759  ASP760  ASP761  ALA762  ILE779  LEU786  VAL792 
 PHE793  MET794  SER795  GLU796  ALA797  LYS798  CYS799  TRP800  GLU811  SER814 

> <Gold.Protein.RotatedAtoms>
  151.6026  133.3355  159.3050 H   0  0  0  0  0  0  0  0  0  0  0  0  # atno 6907 bound_to 6896
  150.8200  134.7405  159.6775 H   0  0  0  0  0  0  0  0  0  0  0  0  # atno 6908 bound_to 6896
  152.4294  134.5813  160.0000 H   0  0  0  0  0  0  0  0  0  0  0  0  # atno 6909 bound_to 6896
  145.7988  140.8667  143.0242 H   0  0  0  0  0  0  0  0  0  0  0  0  # atno 7974 bound_to 7965
  155.9189  140.1070  157.1222 H   0  0  0  0  0  0  0  0  0  0  0  0  # atno 8008 bound_to 7997
  154.4051  140.1260  156.4719 H   0  0  0  0  0  0  0  0  0  0  0  0  # atno 8009 bound_to 7997
  155.7220  140.3469  155.5022 H   0  0  0  0  0  0  0  0  0  0  0  0  # atno 8010 bound_to 7997
  139.6612  143.9910  152.2226 H   0  0  0  0  0  0  0  0  0  0  0  0  # atno 10167 bound_to 10162
  157.0293  131.0255  151.2749 H   0  0  0  0  0  0  0  0  0  0  0  0  # atno 10718 bound_to 10713
  153.9736  135.2948  155.3425 H   0  0  0  0  0  0  0  0  0  0  0  0  # atno 10763 bound_to 10752
  154.7309  135.5068  153.8965 H   0  0  0  0  0  0  0  0  0  0  0  0  # atno 10764 bound_to 10752
  153.0888  135.6701  154.0008 H   0  0  0  0  0  0  0  0  0  0  0  0  # atno 10765 bound_to 10752
  140.1428  134.8728  157.2353 H   0  0  0  0  0  0  0  0  0  0  0  0  # atno 11005 bound_to 11000
  144.6771  140.0229  143.7483 LP  0  0  0  0  0  0  0  0  0  0  0  0  # atno 17320 bound_to 7965
  145.9899  139.3007  143.0991 LP  0  0  0  0  0  0  0  0  0  0  0  0  # atno 17321 bound_to 7965
  139.9649  144.6533  150.8044 LP  0  0  0  0  0  0  0  0  0  0  0  0  # atno 17342 bound_to 10162
  140.7580  143.3099  151.2870 LP  0  0  0  0  0  0  0  0  0  0  0  0  # atno 17343 bound_to 10162
  157.5189  130.7986  149.7787 LP  0  0  0  0  0  0  0  0  0  0  0  0  # atno 17370 bound_to 10713
  156.0075  130.3849  150.2380 LP  0  0  0  0  0  0  0  0  0  0  0  0  # atno 17371 bound_to 10713
  140.2701  134.3470  155.7376 LP  0  0  0  0  0  0  0  0  0  0  0  0  # atno 17394 bound_to 11000
  141.2188  133.7418  156.9210 LP  0  0  0  0  0  0  0  0  0  0  0  0  # atno 17395 bound_to 11000

$$$$
