AV-unprocessed.smi:2295|AV-procd|sdf|9218|dock5
  -GOLD-   2272012433D 1   1.00000     0.00000
 Structure written by MMmdl.
 37 38  0  0  0  0  0  0  0  0  1 V2000
  150.7449  137.6046  155.1547 C   0  0  0  0  0  0  0  0  0  0  0  0
  149.8132  138.7967  155.0893 C   0  0  0  0  0  0  0  0  0  0  0  0
  148.5446  138.6910  154.4878 C   0  0  0  0  0  0  0  0  0  0  0  0
  147.7248  139.8363  154.4595 C   0  0  0  0  0  0  0  0  0  0  0  0
  146.3511  139.7970  153.8239 C   0  0  0  0  0  0  0  0  0  0  0  0
  148.0997  141.0234  154.9819 N   0  0  0  0  0  0  0  0  0  0  0  0
  149.3193  141.1372  155.5641 C   0  0  0  0  0  0  0  0  0  0  0  0
  149.8084  142.3408  156.1379 N   0  0  0  0  0  0  0  0  0  0  0  0
  150.7740  142.4874  157.0624 C   0  0  0  0  0  0  0  0  0  0  0  0
  151.4310  141.5709  157.5572 O   0  0  0  0  0  0  0  0  0  0  0  0
  150.9436  143.7785  157.3839 N   0  0  0  0  0  0  0  0  0  0  0  0
  151.9127  144.2930  158.3474 C   0  0  0  0  0  0  0  0  0  0  0  0
  151.6087  143.8200  159.7813 C   0  0  2  0  0  0  0  0  0  0  0  0
  152.2044  144.7531  160.8449 C   0  0  0  0  0  0  0  0  0  0  0  0
  152.3290  143.9437  162.1362 C   0  0  0  0  0  0  0  0  0  0  0  0
  152.9380  142.5987  161.7412 C   0  0  0  0  0  0  0  0  0  0  0  0
  152.2491  142.1533  160.1275 S   0  0  0  0  0  0  0  0  0  0  0  0
  150.2041  140.0374  155.6318 C   0  0  0  0  0  0  0  0  0  0  0  0
  150.2756  136.7114  154.7413 H   0  0  0  0  0  0  0  0  0  0  0  0
  151.0204  137.3962  156.1887 H   0  0  0  0  0  0  0  0  0  0  0  0
  151.6548  137.8057  154.5891 H   0  0  0  0  0  0  0  0  0  0  0  0
  148.2085  137.7580  154.0592 H   0  0  0  0  0  0  0  0  0  0  0  0
  146.0901  138.7872  153.5065 H   0  0  0  0  0  0  0  0  0  0  0  0
  146.3214  140.4478  152.9496 H   0  0  0  0  0  0  0  0  0  0  0  0
  145.5945  140.1373  154.5314 H   0  0  0  0  0  0  0  0  0  0  0  0
  149.3704  143.1879  155.8085 H   0  0  0  0  0  0  0  0  0  0  0  0
  150.3564  144.4604  156.9269 H   0  0  0  0  0  0  0  0  0  0  0  0
  152.9341  144.0302  158.0668 H   0  0  0  0  0  0  0  0  0  0  0  0
  151.8598  145.3813  158.3068 H   0  0  0  0  0  0  0  0  0  0  0  0
  150.5289  143.7806  159.9313 H   0  0  0  0  0  0  0  0  0  0  0  0
  153.1966  145.0860  160.5363 H   0  0  0  0  0  0  0  0  0  0  0  0
  151.5940  145.6458  160.9845 H   0  0  0  0  0  0  0  0  0  0  0  0
  152.9333  144.4583  162.8839 H   0  0  0  0  0  0  0  0  0  0  0  0
  151.3394  143.7873  162.5674 H   0  0  0  0  0  0  0  0  0  0  0  0
  154.0189  142.6944  161.6343 H   0  0  0  0  0  0  0  0  0  0  0  0
  152.7424  141.8223  162.4809 H   0  0  0  0  0  0  0  0  0  0  0  0
  151.1739  140.1413  156.0969 H   0  0  0  0  0  0  0  0  0  0  0  0
  1  2  1  0  0  0  0
  1 19  1  0  0  0  0
  1 20  1  0  0  0  0
  1 21  1  0  0  0  0
  2 18  1  0  0  0  0
  2  3  2  0  0  0  0
  3  4  1  0  0  0  0
  3 22  1  0  0  0  0
  4  5  1  0  0  0  0
  4  6  2  0  0  0  0
  5 23  1  0  0  0  0
  5 24  1  0  0  0  0
  5 25  1  0  0  0  0
  6  7  1  0  0  0  0
  7  8  1  0  0  0  0
  7 18  2  0  0  0  0
  8  9  1  0  0  0  0
  8 26  1  0  0  0  0
  9 10  2  0  0  0  0
  9 11  1  0  0  0  0
 11 12  1  0  0  0  0
 11 27  1  0  0  0  0
 12 13  1  0  0  0  0
 12 28  1  0  0  0  0
 12 29  1  0  0  0  0
 13 17  1  0  0  0  0
 13 14  1  0  0  0  0
 13 30  1  0  0  0  0
 14 15  1  0  0  0  0
 14 31  1  0  0  0  0
 14 32  1  0  0  0  0
 15 16  1  0  0  0  0
 15 33  1  0  0  0  0
 15 34  1  0  0  0  0
 16 17  1  0  0  0  0
 16 35  1  0  0  0  0
 16 36  1  0  0  0  0
 18 37  1  0  0  0  0
M  END
> <s_m_source_file>
AV-unprocessed.smi

> <i_m_source_file_index>
2295

> <i_lp_mmshare_version>
43012

> <i_f3d_flags>
0

> <s_epik_input>
W0NIM11jMVtjSF1jKFtDSDNdKW5jKFtjSF0xKVtOSF1DKD1PKVtOSF1bQ0gyXVtDQEBIXTJbQ0gyXVtDSDJdW0NIMl1TMg==

> <s_epik_cmdline>
J2VwaWtfcHl0aG9uJywgJy1waCcsICc3LjAnLCAnLXRuJywgJzgnLCAnLW1hJywgJzIwMCcsICctbWV0YWxfYmluZGluZycsICctaW1hZScsICc8aW5maWxlLm1hZT4nLCAnLW9tYWUnLCAnPG91dGZpbGUubWFlPic=

> <r_lp_tautomer_probability>
1

> <r_epik_Ionization_Penalty>
0.000247769

> <r_epik_Ionization_Penalty_Charging>
0

> <r_epik_Ionization_Penalty_Neutral>
0.000247769

> <r_epik_State_Penalty>
-0

> <r_epik_Charging_Adjusted_Penalty>
0

> <i_epik_Tot_Q>
0

> <i_epik_Tot_abs_Q>
0

> <r_epik_Metal_State_Penalty>
-0

> <b_epik_Metal_Only>
0

> <s_lp_Force_Field>
OPLS_2005

> <r_lp_Energy>
13.4664

> <b_lp_Chiralities_Consistent>
1

> <s_lp_Variant>
AV-unprocessed.smi:2295-1

> <Gold.Version>
5.8.1

> <Gold.Id.Protein>
6NUR|6NUR_protein|mol2

> <Gold.PLP.Fitness>
49.3314

> <Gold.PLP.PLP>
-44.0768

> <Gold.PLP.part.hbond>
-2.0000

> <Gold.PLP.part.metal>
0.0000

> <Gold.PLP.part.buried>
-2.5017

> <Gold.PLP.part.nonpolar>
-39.6789

> <Gold.PLP.part.repulsive>
0.2785

> <Gold.PLP.ligand.clash>
0.0000

> <Gold.PLP.ligand.torsion>
0.3610

> <Gold.PLP.Chemscore.Hbond>
1.9920

> <Gold.PLP.Chemscore.CHOScore>
0.0000

> <Gold.PLP.Chemscore.Metal>
0.0000

> <Gold.Chemscore.Hbonds>
donor molecule, donor type, donor heavy atom, donor atom, acceptor molecule, acceptor atom, score
      L1  H     8    26       P1  8028  1.00
      L1  H    11    27       P1  8028  0.93

> <Gold.PLP.Chemscore.Internal.Correction>
0.0006

> <Gold.Rescore>
     Score         DG    S(hbond)    S(metal)    S(lipo)     H(rot)  DE(clash)    DE(int)     intcor
     18.51     -22.06       1.93        0.00     112.09       1.17       0.34       3.21       ----

> <Gold.Chemscore.Fitness>
18.5056

> <Gold.Chemscore.DG>
-22.0584

> <Gold.Chemscore.ZeroCoef>
-5.4800

> <Gold.Chemscore.Hbond>
1.9345

> <Gold.Chemscore.Metal>
0.0000

> <Gold.Chemscore.Lipo>
112.0899

> <Gold.Chemscore.Internal_Hbond>
0.0000

> <Gold.Chemscore.DEClash>
0.3392

> <Gold.Chemscore.DEInternal>
3.2135

> <Gold.Chemscore.Rot>
1.1709

> <Gold.Chemscore.Internal.Correction>
   9.000000E+99

> <Gold.Chemscore.Hbonds>
donor molecule, donor type, donor heavy atom, donor atom, acceptor molecule, acceptor atom, score
      L1  H     8    26       P1  8028  0.99
      L1  H    11    27       P1  8028  0.77

> <Gold.Chemscore.Hbond.Weighted>
-6.4614

> <Gold.Chemscore.Metal.Weighted>
-0.0000

> <Gold.Chemscore.Lipo.Weighted>
-13.1145

> <Gold.Chemscore.Internal_Hbond.Weighted>
0.0000

> <Gold.Chemscore.DEClash.Weighted>
0.3392

> <Gold.Chemscore.DEInternal.Weighted>
3.2135

> <Gold.Chemscore.Rot.Weighted>
2.9975

> <Gold.Chemscore.Internal.Correction.Weighted>
   9.000000E+99

> <Gold.Protein.RotatedTorsions>
[ 6907 6896 6895 6894 ] final   13.93 input  -60.11 | X-H torsion
[ 7974 7965 7964 7962 ] final  155.40 input  175.53 | X-H torsion
[ 8008 7997 7996 7995 ] final -172.13 input   59.86 | X-H torsion
[ 10167 10162 10161 10158 ] final   71.05 input  -65.29 | X-H torsion
[ 10718 10713 10712 10709 ] final  139.29 input   66.30 | X-H torsion
[ 10763 10752 10751 10750 ] final -141.98 input  -60.55 | X-H torsion
[ 11005 11000 10999 10996 ] final -130.22 input  -57.11 | X-H torsion

> <Gold.Protein.ActiveResidues>
 VAL166  LYS551  ARG553  GLY616  TRP617  ASP618  TYR619  PRO620  LYS621  CYS622 
 ASP623  PHE694  ASN695  SER759  ASP760  ASP761  ALA762  ILE779  LEU786  VAL792 
 PHE793  MET794  SER795  GLU796  ALA797  LYS798  CYS799  TRP800  GLU811  SER814 

> <Gold.Protein.RotatedAtoms>
  151.7941  135.0727  160.0391 H   0  0  0  0  0  0  0  0  0  0  0  0  # atno 6907 bound_to 6896
  152.3136  133.5774  159.5705 H   0  0  0  0  0  0  0  0  0  0  0  0  # atno 6908 bound_to 6896
  150.7332  134.0032  159.3687 H   0  0  0  0  0  0  0  0  0  0  0  0  # atno 6909 bound_to 6896
  144.8027  139.7063  143.6175 H   0  0  0  0  0  0  0  0  0  0  0  0  # atno 7974 bound_to 7965
  155.9406  140.1108  157.1058 H   0  0  0  0  0  0  0  0  0  0  0  0  # atno 8008 bound_to 7997
  154.4088  140.1220  156.4988 H   0  0  0  0  0  0  0  0  0  0  0  0  # atno 8009 bound_to 7997
  155.6966  140.3472  155.4918 H   0  0  0  0  0  0  0  0  0  0  0  0  # atno 8010 bound_to 7997
  140.0503  144.5317  150.7368 H   0  0  0  0  0  0  0  0  0  0  0  0  # atno 10167 bound_to 10162
  157.4160  131.1033  151.0404 H   0  0  0  0  0  0  0  0  0  0  0  0  # atno 10718 bound_to 10713
  154.8526  135.3509  154.5955 H   0  0  0  0  0  0  0  0  0  0  0  0  # atno 10763 bound_to 10752
  153.6564  135.6991  153.5196 H   0  0  0  0  0  0  0  0  0  0  0  0  # atno 10764 bound_to 10752
  153.2853  135.4251  155.1074 H   0  0  0  0  0  0  0  0  0  0  0  0  # atno 10765 bound_to 10752
  140.9365  134.1250  157.4189 H   0  0  0  0  0  0  0  0  0  0  0  0  # atno 11005 bound_to 11000
  146.2312  139.5817  142.9554 LP  0  0  0  0  0  0  0  0  0  0  0  0  # atno 17320 bound_to 7965
  145.5514  141.0413  143.2276 LP  0  0  0  0  0  0  0  0  0  0  0  0  # atno 17321 bound_to 7965
  140.7220  143.2598  151.4247 LP  0  0  0  0  0  0  0  0  0  0  0  0  # atno 17342 bound_to 10162
  139.5957  144.1402  152.2141 LP  0  0  0  0  0  0  0  0  0  0  0  0  # atno 17343 bound_to 10162
  157.1351  130.6119  149.5540 LP  0  0  0  0  0  0  0  0  0  0  0  0  # atno 17370 bound_to 10713
  155.9865  130.4900  150.7083 LP  0  0  0  0  0  0  0  0  0  0  0  0  # atno 17371 bound_to 10713
  139.8809  135.0022  156.6115 LP  0  0  0  0  0  0  0  0  0  0  0  0  # atno 17394 bound_to 11000
  140.7792  133.8674  155.8554 LP  0  0  0  0  0  0  0  0  0  0  0  0  # atno 17395 bound_to 11000

$$$$
