AV-unprocessed.smi:2699|AV-procd|sdf|10425|dock5
  -GOLD-   2272014463D 1   1.00000     0.00000
 Structure written by MMmdl.
 43 45  0  0  0  0  0  0  0  0  1 V2000
  148.6002  141.6725  154.7903 C   0  0  0  0  0  0  0  0  0  0  0  0
  149.5883  140.5364  155.0227 C   0  0  0  0  0  0  0  0  0  0  0  0
  150.6822  140.7562  155.7886 C   0  0  0  0  0  0  0  0  0  0  0  0
  151.6417  139.6731  156.0655 C   0  0  0  0  0  0  0  0  0  0  0  0
  152.6612  139.8572  156.7272 O   0  0  0  0  0  0  0  0  0  0  0  0
  151.3013  138.3578  155.5060 C   0  0  0  0  0  0  0  0  0  0  0  0
  150.1919  138.2342  154.7525 C   0  0  0  0  0  0  0  0  0  0  0  0
  149.8257  137.0477  154.2444 O   0  0  0  0  0  0  0  0  0  0  0  0
  149.3069  139.2835  154.4329 N   0  0  0  0  0  0  0  0  0  0  0  0
  148.1665  139.0869  153.5188 C   0  0  0  0  0  0  0  0  0  0  0  0
  147.0559  138.1970  154.1096 C   0  0  0  0  0  0  0  0  0  0  0  0
  146.4826  138.5212  155.1486 O   0  0  0  0  0  0  0  0  0  0  0  0
  146.7282  137.0634  153.4709 N   0  0  0  0  0  0  0  0  0  0  0  0
  145.7091  136.0993  153.8753 C   0  0  0  0  0  0  0  0  0  0  0  0
  144.4993  136.1049  152.9214 C   0  0  0  0  0  0  0  0  0  0  0  0
  145.0020  135.6619  151.5434 C   0  0  0  0  0  0  0  0  0  0  0  0
  144.0575  135.1371  150.4914 C   0  0  0  0  0  0  0  0  0  0  0  0
  145.1116  134.2246  151.0902 C   0  0  0  0  0  0  0  0  0  0  0  0
  143.2355  135.3780  153.4318 C   0  0  0  0  0  0  0  0  0  0  0  0
  142.7305  136.6976  154.0120 C   0  0  0  0  0  0  0  0  0  0  0  0
  143.6463  137.3952  153.0075 C   0  0  0  0  0  0  0  0  0  0  0  0
  148.7403  142.4645  155.5267 H   0  0  0  0  0  0  0  0  0  0  0  0
  147.5661  141.3409  154.8800 H   0  0  0  0  0  0  0  0  0  0  0  0
  148.7480  142.1086  153.8022 H   0  0  0  0  0  0  0  0  0  0  0  0
  150.8708  141.7252  156.2277 H   0  0  0  0  0  0  0  0  0  0  0  0
  151.9408  137.5138  155.7206 H   0  0  0  0  0  0  0  0  0  0  0  0
  147.7404  140.0439  153.2200 H   0  0  0  0  0  0  0  0  0  0  0  0
  148.5092  138.6518  152.5798 H   0  0  0  0  0  0  0  0  0  0  0  0
  147.2376  136.8456  152.6267 H   0  0  0  0  0  0  0  0  0  0  0  0
  146.1717  135.1121  153.9107 H   0  0  0  0  0  0  0  0  0  0  0  0
  145.3765  136.3170  154.8912 H   0  0  0  0  0  0  0  0  0  0  0  0
  145.8130  136.2856  151.1724 H   0  0  0  0  0  0  0  0  0  0  0  0
  143.0224  134.9626  150.7780 H   0  0  0  0  0  0  0  0  0  0  0  0
  144.2066  135.4804  149.4699 H   0  0  0  0  0  0  0  0  0  0  0  0
  145.9597  133.9652  150.4600 H   0  0  0  0  0  0  0  0  0  0  0  0
  144.7769  133.4307  151.7522 H   0  0  0  0  0  0  0  0  0  0  0  0
  142.6003  135.0117  152.6233 H   0  0  0  0  0  0  0  0  0  0  0  0
  143.4143  134.5989  154.1733 H   0  0  0  0  0  0  0  0  0  0  0  0
  141.6660  136.8829  153.8655 H   0  0  0  0  0  0  0  0  0  0  0  0
  143.0328  136.8530  155.0486 H   0  0  0  0  0  0  0  0  0  0  0  0
  144.1713  138.2628  153.4086 H   0  0  0  0  0  0  0  0  0  0  0  0
  143.1133  137.6562  152.0946 H   0  0  0  0  0  0  0  0  0  0  0  0
  149.4439  137.2082  153.3953 H   0  0  0  0  0  0  0  0  0  0  0  0
  1  2  1  0  0  0  0
  1 22  1  0  0  0  0
  1 23  1  0  0  0  0
  1 24  1  0  0  0  0
  2  9  1  0  0  0  0
  2  3  2  0  0  0  0
  3  4  1  0  0  0  0
  3 25  1  0  0  0  0
  4  5  2  0  0  0  0
  4  6  1  0  0  0  0
  6  7  2  0  0  0  0
  6 26  1  0  0  0  0
  7  8  1  0  0  0  0
  7  9  1  0  0  0  0
  8 43  1  0  0  0  0
  9 10  1  0  0  0  0
 10 11  1  0  0  0  0
 10 27  1  0  0  0  0
 10 28  1  0  0  0  0
 11 12  2  0  0  0  0
 11 13  1  0  0  0  0
 13 14  1  0  0  0  0
 13 29  1  0  0  0  0
 14 15  1  0  0  0  0
 14 30  1  0  0  0  0
 14 31  1  0  0  0  0
 15 21  1  0  0  0  0
 15 16  1  0  0  0  0
 15 19  1  0  0  0  0
 16 18  1  0  0  0  0
 16 17  1  0  0  0  0
 16 32  1  0  0  0  0
 17 18  1  0  0  0  0
 17 33  1  0  0  0  0
 17 34  1  0  0  0  0
 18 35  1  0  0  0  0
 18 36  1  0  0  0  0
 19 20  1  0  0  0  0
 19 37  1  0  0  0  0
 19 38  1  0  0  0  0
 20 21  1  0  0  0  0
 20 39  1  0  0  0  0
 20 40  1  0  0  0  0
 21 41  1  0  0  0  0
 21 42  1  0  0  0  0
M  END
> <s_m_source_file>
AV-unprocessed.smi

> <i_m_source_file_index>
2699

> <i_lp_mmshare_version>
43012

> <i_f3d_flags>
0

> <s_epik_input>
W0NIM11jMVtjSF1jKFtPSF0pW2NIXWMoPU8pbjFbQ0gyXUMoPU8pW05IXVtDSDJdQzIoW0NIXTNbQ0gyXVtDSDJdMylbQ0gyXVtDSDJdW0NIMl0y

> <s_epik_cmdline>
J2VwaWtfcHl0aG9uJywgJy1waCcsICc3LjAnLCAnLXRuJywgJzgnLCAnLW1hJywgJzIwMCcsICctbWV0YWxfYmluZGluZycsICctaW1hZScsICc8aW5maWxlLm1hZT4nLCAnLW9tYWUnLCAnPG91dGZpbGUubWFlPic=

> <r_epik_Ionization_Penalty>
1.8336e-08

> <r_epik_Ionization_Penalty_Charging>
0

> <r_epik_Ionization_Penalty_Neutral>
1.8336e-08

> <r_epik_State_Penalty>
2.39433

> <r_epik_Charging_Adjusted_Penalty>
2.39433

> <i_epik_Tot_Q>
0

> <i_epik_Tot_abs_Q>
0

> <r_epik_Metal_State_Penalty>
2.39433

> <b_epik_Metal_Only>
0

> <s_lp_Force_Field>
OPLS_2005

> <r_lp_Energy>
30.2795

> <b_lp_Chiralities_Consistent>
1

> <s_lp_Variant>
AV-unprocessed.smi:2699-3

> <Gold.Version>
5.8.1

> <Gold.Id.Protein>
6NUR|6NUR_protein|mol2

> <Gold.PLP.Fitness>
41.8687

> <Gold.PLP.PLP>
-33.7373

> <Gold.PLP.part.hbond>
-3.6919

> <Gold.PLP.part.metal>
0.0000

> <Gold.PLP.part.buried>
1.1363

> <Gold.PLP.part.nonpolar>
-31.6774

> <Gold.PLP.part.repulsive>
0.0691

> <Gold.PLP.ligand.clash>
0.0000

> <Gold.PLP.ligand.torsion>
0.9687

> <Gold.PLP.Chemscore.Hbond>
2.7920

> <Gold.PLP.Chemscore.CHOScore>
0.0000

> <Gold.PLP.Chemscore.Metal>
0.0000

> <Gold.Chemscore.Hbonds>
donor molecule, donor type, donor heavy atom, donor atom, acceptor molecule, acceptor atom, score
      L1  H     8    43       P1  7948  0.77
      L1  H    13    29       P1  7948  0.94
      P1  H  7997  8008       L1     5  1.00

> <Gold.PLP.Chemscore.Internal.Correction>
1.6929

> <Gold.Rescore>
     Score         DG    S(hbond)    S(metal)    S(lipo)     H(rot)  DE(clash)    DE(int)     intcor
     13.77     -16.28       2.81        0.00      64.73       2.40       0.29       2.21       ----

> <Gold.Chemscore.Fitness>
13.7714

> <Gold.Chemscore.DG>
-16.2788

> <Gold.Chemscore.ZeroCoef>
-5.4800

> <Gold.Chemscore.Hbond>
2.8089

> <Gold.Chemscore.Metal>
0.0000

> <Gold.Chemscore.Lipo>
64.7311

> <Gold.Chemscore.Internal_Hbond>
0.0000

> <Gold.Chemscore.DEClash>
0.2936

> <Gold.Chemscore.DEInternal>
2.2139

> <Gold.Chemscore.Rot>
2.4048

> <Gold.Chemscore.Internal.Correction>
   9.000000E+99

> <Gold.Chemscore.Hbonds>
donor molecule, donor type, donor heavy atom, donor atom, acceptor molecule, acceptor atom, score
      L1  H     8    43       P1  7948  0.70
      L1  H    13    29       P1  7948  0.89
      P1  H  7997  8008       L1     5  1.00

> <Gold.Chemscore.Hbond.Weighted>
-9.3816

> <Gold.Chemscore.Metal.Weighted>
-0.0000

> <Gold.Chemscore.Lipo.Weighted>
-7.5735

> <Gold.Chemscore.Internal_Hbond.Weighted>
0.0000

> <Gold.Chemscore.DEClash.Weighted>
0.2936

> <Gold.Chemscore.DEInternal.Weighted>
2.2139

> <Gold.Chemscore.Rot.Weighted>
6.1563

> <Gold.Chemscore.Internal.Correction.Weighted>
   9.000000E+99

> <Gold.Protein.RotatedTorsions>
[ 6907 6896 6895 6894 ] final -112.00 input  -60.11 | X-H torsion
[ 7974 7965 7964 7962 ] final -164.89 input  175.53 | X-H torsion
[ 8008 7997 7996 7995 ] final  -55.02 input   59.86 | X-H torsion
[ 10167 10162 10161 10158 ] final -111.60 input  -65.29 | X-H torsion
[ 10718 10713 10712 10709 ] final   19.92 input   66.30 | X-H torsion
[ 10763 10752 10751 10750 ] final -152.17 input  -60.55 | X-H torsion
[ 11005 11000 10999 10996 ] final  163.19 input  -57.11 | X-H torsion

> <Gold.Protein.ActiveResidues>
 VAL166  LYS551  ARG553  GLY616  TRP617  ASP618  TYR619  PRO620  LYS621  CYS622 
 ASP623  PHE694  ASN695  SER759  ASP760  ASP761  ALA762  ILE779  LEU786  VAL792 
 PHE793  MET794  SER795  GLU796  ALA797  LYS798  CYS799  TRP800  GLU811  SER814 

> <Gold.Protein.RotatedAtoms>
  150.7728  133.9153  159.3381 H   0  0  0  0  0  0  0  0  0  0  0  0  # atno 6907 bound_to 6896
  151.7035  135.0924  160.0264 H   0  0  0  0  0  0  0  0  0  0  0  0  # atno 6908 bound_to 6896
  152.3753  133.6435  159.6154 H   0  0  0  0  0  0  0  0  0  0  0  0  # atno 6909 bound_to 6896
  144.7284  140.2894  143.6223 H   0  0  0  0  0  0  0  0  0  0  0  0  # atno 7974 bound_to 7965
  154.4181  140.1162  156.5409 H   0  0  0  0  0  0  0  0  0  0  0  0  # atno 8008 bound_to 7997
  155.6509  140.3496  155.4728 H   0  0  0  0  0  0  0  0  0  0  0  0  # atno 8009 bound_to 7997
  155.9794  140.1157  157.0730 H   0  0  0  0  0  0  0  0  0  0  0  0  # atno 8010 bound_to 7997
  140.1319  143.4353  152.1622 H   0  0  0  0  0  0  0  0  0  0  0  0  # atno 10167 bound_to 10162
  157.1172  130.6534  149.5914 H   0  0  0  0  0  0  0  0  0  0  0  0  # atno 10718 bound_to 10713
  154.8011  135.3242  154.7547 H   0  0  0  0  0  0  0  0  0  0  0  0  # atno 10763 bound_to 10752
  153.8215  135.6887  153.4831 H   0  0  0  0  0  0  0  0  0  0  0  0  # atno 10764 bound_to 10752
  153.1728  135.4616  154.9869 H   0  0  0  0  0  0  0  0  0  0  0  0  # atno 10765 bound_to 10752
  140.2333  134.8107  157.3339 H   0  0  0  0  0  0  0  0  0  0  0  0  # atno 11005 bound_to 11000
  145.7870  139.1912  143.2125 LP  0  0  0  0  0  0  0  0  0  0  0  0  # atno 17320 bound_to 7965
  146.0787  140.7788  142.9652 LP  0  0  0  0  0  0  0  0  0  0  0  0  # atno 17321 bound_to 7965
  139.5515  144.7341  151.4420 LP  0  0  0  0  0  0  0  0  0  0  0  0  # atno 17342 bound_to 10162
  140.6812  143.8077  150.7124 LP  0  0  0  0  0  0  0  0  0  0  0  0  # atno 17343 bound_to 10162
  155.9837  130.4857  150.6944 LP  0  0  0  0  0  0  0  0  0  0  0  0  # atno 17370 bound_to 10713
  157.4508  131.0872  151.0848 LP  0  0  0  0  0  0  0  0  0  0  0  0  # atno 17371 bound_to 10713
  140.1728  134.4587  155.7821 LP  0  0  0  0  0  0  0  0  0  0  0  0  # atno 17394 bound_to 11000
  141.2216  133.6949  156.7736 LP  0  0  0  0  0  0  0  0  0  0  0  0  # atno 17395 bound_to 11000

$$$$
