AV-unprocessed.smi:1047|AV-procd|sdf|4575|dock5
  -GOLD-   22720 3 33D 1   1.00000     0.00000
 Structure written by MMmdl.
 56 58  0  0  0  0  0  0  0  0  2 V2000
  154.6587  129.5458  166.3661 C   0  0  0  0  0  0  0  0  0  0  0  0
  153.8145  130.6336  165.6872 C   0  0  0  0  0  0  0  0  0  0  0  0
  154.6394  131.7509  165.1640 N   0  3  2  0  0  0  0  0  0  0  0  0
  155.6512  132.2121  166.1442 C   0  0  0  0  0  0  0  0  0  0  0  0
  156.5278  133.3183  165.5342 C   0  0  0  0  0  0  0  0  0  0  0  0
  155.7095  134.3984  165.1036 O   0  0  0  0  0  0  0  0  0  0  0  0
  154.7670  134.0013  164.1125 C   0  0  2  0  0  0  0  0  0  0  0  0
  154.0180  135.2475  163.6112 C   0  0  0  0  0  0  0  0  0  0  0  0
  154.9280  136.2289  163.0284 N   0  0  0  0  0  0  0  0  0  0  0  0
  154.3158  137.5363  162.8050 C   0  0  0  0  0  0  0  0  0  0  0  0
  155.3409  138.6790  162.9214 C   0  0  2  0  0  0  0  0  0  0  0  0
  156.0458  138.5475  164.1410 O   0  0  0  0  0  0  0  0  0  0  0  0
  154.7339  140.0893  162.7664 C   0  0  0  0  0  0  0  0  0  0  0  0
  154.3341  140.3690  161.3993 N   0  0  0  0  0  0  0  0  0  0  0  0
  154.5480  139.5966  160.3170 C   0  0  0  0  0  0  0  0  0  0  0  0
  154.1024  140.0495  159.1486 N   0  0  0  0  0  0  0  0  0  0  0  0
  153.5310  141.2558  159.5161 C   0  0  0  0  0  0  0  0  0  0  0  0
  152.8803  142.2380  158.7375 C   0  0  0  0  0  0  0  0  0  0  0  0
  152.3685  143.4131  159.3326 C   0  0  0  0  0  0  0  0  0  0  0  0
  151.6793  144.4448  158.4570 C   0  0  0  0  0  0  0  0  0  0  0  0
  152.5027  143.6186  160.7294 C   0  0  0  0  0  0  0  0  0  0  0  0
  151.9587  144.8721  161.3915 C   0  0  0  0  0  0  0  0  0  0  0  0
  153.1514  142.6485  161.5215 C   0  0  0  0  0  0  0  0  0  0  0  0
  153.6572  141.4840  160.9175 C   0  0  0  0  0  0  0  0  0  0  0  0
  153.8404  132.8995  164.6702 C   0  0  0  0  0  0  0  0  0  0  0  0
  154.0160  128.7918  166.8216 H   0  0  0  0  0  0  0  0  0  0  0  0
  155.2838  129.9656  167.1548 H   0  0  0  0  0  0  0  0  0  0  0  0
  155.3074  129.0303  165.6585 H   0  0  0  0  0  0  0  0  0  0  0  0
  153.2082  130.2069  164.8868 H   0  0  0  0  0  0  0  0  0  0  0  0
  153.1164  131.0248  166.4288 H   0  0  0  0  0  0  0  0  0  0  0  0
  155.1510  132.5821  167.0409 H   0  0  0  0  0  0  0  0  0  0  0  0
  156.2811  131.3757  166.4497 H   0  0  0  0  0  0  0  0  0  0  0  0
  157.2361  133.6878  166.2758 H   0  0  0  0  0  0  0  0  0  0  0  0
  157.1146  132.9341  164.6984 H   0  0  0  0  0  0  0  0  0  0  0  0
  155.3200  133.5938  163.2643 H   0  0  0  0  0  0  0  0  0  0  0  0
  153.2750  134.9453  162.8720 H   0  0  0  0  0  0  0  0  0  0  0  0
  153.4675  135.6979  164.4379 H   0  0  0  0  0  0  0  0  0  0  0  0
  155.2910  135.8758  162.1480 H   0  0  0  0  0  0  0  0  0  0  0  0
  153.8470  137.5691  161.8206 H   0  0  0  0  0  0  0  0  0  0  0  0
  153.5175  137.6940  163.5312 H   0  0  0  0  0  0  0  0  0  0  0  0
  156.0771  138.5393  162.1288 H   0  0  0  0  0  0  0  0  0  0  0  0
  156.9670  138.4632  163.9468 H   0  0  0  0  0  0  0  0  0  0  0  0
  153.8588  140.1938  163.4090 H   0  0  0  0  0  0  0  0  0  0  0  0
  155.4420  140.8573  163.0790 H   0  0  0  0  0  0  0  0  0  0  0  0
  155.0635  138.6502  160.3909 H   0  0  0  0  0  0  0  0  0  0  0  0
  152.7785  142.0810  157.6737 H   0  0  0  0  0  0  0  0  0  0  0  0
  150.6451  144.5844  158.7726 H   0  0  0  0  0  0  0  0  0  0  0  0
  151.6709  144.1379  157.4108 H   0  0  0  0  0  0  0  0  0  0  0  0
  152.1936  145.4039  158.5192 H   0  0  0  0  0  0  0  0  0  0  0  0
  152.1344  144.8622  162.4677 H   0  0  0  0  0  0  0  0  0  0  0  0
  150.8837  144.9539  161.2295 H   0  0  0  0  0  0  0  0  0  0  0  0
  152.4402  145.7603  160.9821 H   0  0  0  0  0  0  0  0  0  0  0  0
  153.2647  142.7943  162.5855 H   0  0  0  0  0  0  0  0  0  0  0  0
  153.1555  132.5765  163.8868 H   0  0  0  0  0  0  0  0  0  0  0  0
  153.2307  133.2869  165.4878 H   0  0  0  0  0  0  0  0  0  0  0  0
  155.1544  131.3861  164.3752 H   0  0  0  0  0  0  0  0  0  0  0  0
  1  2  1  0  0  0  0
  1 26  1  0  0  0  0
  1 27  1  0  0  0  0
  1 28  1  0  0  0  0
  2  3  1  0  0  0  0
  2 29  1  0  0  0  0
  2 30  1  0  0  0  0
  3 25  1  0  0  0  0
  3  4  1  0  0  0  0
  3 56  1  0  0  0  0
  4  5  1  0  0  0  0
  4 31  1  0  0  0  0
  4 32  1  0  0  0  0
  5  6  1  0  0  0  0
  5 33  1  0  0  0  0
  5 34  1  0  0  0  0
  6  7  1  0  0  0  0
  7  8  1  0  0  0  0
  7 25  1  0  0  0  0
  7 35  1  0  0  0  0
  8  9  1  0  0  0  0
  8 36  1  0  0  0  0
  8 37  1  0  0  0  0
  9 10  1  0  0  0  0
  9 38  1  0  0  0  0
 10 11  1  0  0  0  0
 10 39  1  0  0  0  0
 10 40  1  0  0  0  0
 11 12  1  0  0  0  0
 11 13  1  0  0  0  0
 11 41  1  0  0  0  0
 12 42  1  0  0  0  0
 13 14  1  0  0  0  0
 13 43  1  0  0  0  0
 13 44  1  0  0  0  0
 14 24  1  0  0  0  0
 14 15  1  0  0  0  0
 15 16  2  0  0  0  0
 15 45  1  0  0  0  0
 16 17  1  0  0  0  0
 17 24  2  0  0  0  0
 17 18  1  0  0  0  0
 18 19  2  0  0  0  0
 18 46  1  0  0  0  0
 19 20  1  0  0  0  0
 19 21  1  0  0  0  0
 20 47  1  0  0  0  0
 20 48  1  0  0  0  0
 20 49  1  0  0  0  0
 21 22  1  0  0  0  0
 21 23  2  0  0  0  0
 22 50  1  0  0  0  0
 22 51  1  0  0  0  0
 22 52  1  0  0  0  0
 23 24  1  0  0  0  0
 23 53  1  0  0  0  0
 25 54  1  0  0  0  0
 25 55  1  0  0  0  0
M  CHG  1   3   1
M  END
> <s_m_source_file>
AV-unprocessed.smi

> <i_m_source_file_index>
1047

> <i_lp_mmshare_version>
43012

> <i_f3d_flags>
0

> <s_epik_input>
W0NIM11bQ0gyXU4xW0NIMl1bQ0gyXU9bQ0BIXShbQ0gyXTEpW0NIMl1bTkhdW0NIMl1bQ0BIXShbT0hdKVtDSDJdbihbY0hdbjIpYyhjMjMpW2NIXWMoW0NIM10pYyhbY0hdMylbQ0gzXQ==

> <s_epik_cmdline>
J2VwaWtfcHl0aG9uJywgJy1waCcsICc3LjAnLCAnLXRuJywgJzgnLCAnLW1hJywgJzIwMCcsICctbWV0YWxfYmluZGluZycsICctaW1hZScsICc8aW5maWxlLm1hZT4nLCAnLW9tYWUnLCAnPG91dGZpbGUubWFlPic=

> <r_epik_Ionization_Penalty>
1.19246

> <r_epik_Ionization_Penalty_Charging>
0.210041

> <r_epik_Ionization_Penalty_Neutral>
0.982415

> <r_epik_State_Penalty>
1.57595

> <r_epik_Charging_Adjusted_Penalty>
1.78599

> <i_epik_Tot_Q>
1

> <i_epik_Tot_abs_Q>
1

> <r_epik_Metal_State_Penalty>
1.46172

> <b_epik_Metal_Only>
0

> <s_lp_Force_Field>
OPLS_2005

> <r_lp_Energy>
33.3518

> <b_lp_Chiralities_Consistent>
1

> <s_lp_Variant>
AV-unprocessed.smi:1047-16

> <Gold.Version>
5.8.1

> <Gold.Id.Protein>
6NUR|6NUR_protein|mol2

> <Gold.PLP.Fitness>
50.2663

> <Gold.PLP.PLP>
-47.9718

> <Gold.PLP.part.hbond>
-1.0000

> <Gold.PLP.part.metal>
0.0000

> <Gold.PLP.part.buried>
-2.0320

> <Gold.PLP.part.nonpolar>
-43.8020

> <Gold.PLP.part.repulsive>
0.0945

> <Gold.PLP.ligand.clash>
0.0000

> <Gold.PLP.ligand.torsion>
0.4477

> <Gold.PLP.Chemscore.Hbond>
0.9760

> <Gold.PLP.Chemscore.CHOScore>
0.0000

> <Gold.PLP.Chemscore.Metal>
0.0000

> <Gold.Chemscore.Hbonds>
donor molecule, donor type, donor heavy atom, donor atom, acceptor molecule, acceptor atom, score
      P1  H  7997  8009       L1    16  0.95

> <Gold.PLP.Chemscore.Internal.Correction>
0.2620

> <Gold.Rescore>
     Score         DG    S(hbond)    S(metal)    S(lipo)     H(rot)  DE(clash)    DE(int)     intcor
     18.24     -19.91       0.81        0.00     157.68       2.62       1.31       0.36       ----

> <Gold.Chemscore.Fitness>
18.2392

> <Gold.Chemscore.DG>
-19.9095

> <Gold.Chemscore.ZeroCoef>
-5.4800

> <Gold.Chemscore.Hbond>
0.8054

> <Gold.Chemscore.Metal>
0.0000

> <Gold.Chemscore.Lipo>
157.6844

> <Gold.Chemscore.Internal_Hbond>
0.0000

> <Gold.Chemscore.DEClash>
1.3116

> <Gold.Chemscore.DEInternal>
0.3587

> <Gold.Chemscore.Rot>
2.6209

> <Gold.Chemscore.Internal.Correction>
   9.000000E+99

> <Gold.Chemscore.Hbonds>
donor molecule, donor type, donor heavy atom, donor atom, acceptor molecule, acceptor atom, score
      P1  H  7997  8009       L1    16  0.78

> <Gold.Chemscore.Hbond.Weighted>
-2.6901

> <Gold.Chemscore.Metal.Weighted>
-0.0000

> <Gold.Chemscore.Lipo.Weighted>
-18.4491

> <Gold.Chemscore.Internal_Hbond.Weighted>
0.0000

> <Gold.Chemscore.DEClash.Weighted>
1.3116

> <Gold.Chemscore.DEInternal.Weighted>
0.3587

> <Gold.Chemscore.Rot.Weighted>
6.7096

> <Gold.Chemscore.Internal.Correction.Weighted>
   9.000000E+99

> <Gold.Protein.RotatedTorsions>
[ 6907 6896 6895 6894 ] final  -23.75 input  -60.11 | X-H torsion
[ 7974 7965 7964 7962 ] final -164.98 input  175.53 | X-H torsion
[ 8008 7997 7996 7995 ] final  124.63 input   59.86 | X-H torsion
[ 10167 10162 10161 10158 ] final  -12.96 input  -65.29 | X-H torsion
[ 10718 10713 10712 10709 ] final -152.51 input   66.30 | X-H torsion
[ 10763 10752 10751 10750 ] final   79.68 input  -60.55 | X-H torsion
[ 11005 11000 10999 10996 ] final  -50.44 input  -57.11 | X-H torsion

> <Gold.Protein.ActiveResidues>
 VAL166  LYS551  ARG553  GLY616  TRP617  ASP618  TYR619  PRO620  LYS621  CYS622 
 ASP623  PHE694  ASN695  SER759  ASP760  ASP761  ALA762  ILE779  LEU786  VAL792 
 PHE793  MET794  SER795  GLU796  ALA797  LYS798  CYS799  TRP800  GLU811  SER814 

> <Gold.Protein.RotatedAtoms>
  151.1995  135.0436  159.8865 H   0  0  0  0  0  0  0  0  0  0  0  0  # atno 6907 bound_to 6896
  152.5434  134.0866  159.8269 H   0  0  0  0  0  0  0  0  0  0  0  0  # atno 6908 bound_to 6896
  151.1005  133.5200  159.2642 H   0  0  0  0  0  0  0  0  0  0  0  0  # atno 6909 bound_to 6896
  144.7282  140.2881  143.6225 H   0  0  0  0  0  0  0  0  0  0  0  0  # atno 7974 bound_to 7965
  156.2807  140.2735  156.1818 H   0  0  0  0  0  0  0  0  0  0  0  0  # atno 8008 bound_to 7997
  155.0548  140.0386  157.2574 H   0  0  0  0  0  0  0  0  0  0  0  0  # atno 8009 bound_to 7997
  154.7165  140.2679  155.6586 H   0  0  0  0  0  0  0  0  0  0  0  0  # atno 8010 bound_to 7997
  140.7172  143.5477  150.9337 H   0  0  0  0  0  0  0  0  0  0  0  0  # atno 10167 bound_to 10162
  156.4734  130.8269  151.2498 H   0  0  0  0  0  0  0  0  0  0  0  0  # atno 10718 bound_to 10713
  153.0972  135.4831  154.8800 H   0  0  0  0  0  0  0  0  0  0  0  0  # atno 10763 bound_to 10752
  154.7338  135.3066  154.8849 H   0  0  0  0  0  0  0  0  0  0  0  0  # atno 10764 bound_to 10752
  153.9477  135.6827  153.4797 H   0  0  0  0  0  0  0  0  0  0  0  0  # atno 10765 bound_to 10752
  141.0816  133.6652  156.3731 H   0  0  0  0  0  0  0  0  0  0  0  0  # atno 11005 bound_to 11000
  145.7883  139.1917  143.2118 LP  0  0  0  0  0  0  0  0  0  0  0  0  # atno 17320 bound_to 7965
  146.0777  140.7799  142.9657 LP  0  0  0  0  0  0  0  0  0  0  0  0  # atno 17321 bound_to 7965
  139.9200  143.6617  152.3098 LP  0  0  0  0  0  0  0  0  0  0  0  0  # atno 17342 bound_to 10162
  139.7031  144.7632  151.1240 LP  0  0  0  0  0  0  0  0  0  0  0  0  # atno 17343 bound_to 10162
  157.7489  131.0068  150.3167 LP  0  0  0  0  0  0  0  0  0  0  0  0  # atno 17370 bound_to 10713
  156.3594  130.3844  149.7263 LP  0  0  0  0  0  0  0  0  0  0  0  0  # atno 17371 bound_to 10713
  140.5456  134.6078  157.5393 LP  0  0  0  0  0  0  0  0  0  0  0  0  # atno 17394 bound_to 11000
  139.9630  134.7420  156.0197 LP  0  0  0  0  0  0  0  0  0  0  0  0  # atno 17395 bound_to 11000

$$$$
