AV-unprocessed.smi:3298|AV-procd|sdf|12642|dock5
  -GOLD-   2272018573D 1   1.00000     0.00000
 Structure written by MMmdl.
 35 36  0  0  0  0  0  0  0  0  1 V2000
  151.4476  131.6528  156.9037 C   0  0  0  0  0  0  0  0  0  0  0  0
  150.9372  132.9320  156.2735 C   0  0  0  0  0  0  0  0  0  0  0  0
  149.9617  132.8971  155.2542 C   0  0  0  0  0  0  0  0  0  0  0  0
  149.5141  134.1219  154.7005 C   0  0  0  0  0  0  0  0  0  0  0  0
  148.5447  134.2395  153.6653 N   0  0  0  0  0  0  0  0  0  0  0  0
  147.4102  133.5439  153.4697 C   0  0  0  0  0  0  0  0  0  0  0  0
  146.9839  132.6444  154.1934 O   0  0  0  0  0  0  0  0  0  0  0  0
  146.7741  133.9618  152.3654 N   0  0  0  0  0  0  0  0  0  0  0  0
  145.5160  133.4173  151.8644 C   0  0  2  0  0  0  0  0  0  0  0  0
  145.6417  131.9535  151.5334 C   0  0  0  0  0  0  0  0  0  0  0  0
  145.3931  131.6941  150.2519 C   0  0  0  0  0  0  0  0  0  0  0  0
  145.0743  132.9319  149.4545 C   0  0  1  0  0  0  0  0  0  0  0  0
  143.7341  132.8106  148.7103 C   0  0  0  0  0  0  0  0  0  0  0  0
  143.4303  134.0219  148.0512 O   0  0  0  0  0  0  0  0  0  0  0  0
  145.1049  134.0621  150.5174 C   0  0  0  0  0  0  0  0  0  0  0  0
  150.0825  135.3157  155.1917 C   0  0  0  0  0  0  0  0  0  0  0  0
  151.0513  135.2406  156.2115 C   0  0  0  0  0  0  0  0  0  0  0  0
  151.4737  134.0769  156.7478 N   0  0  0  0  0  0  0  0  0  0  0  0
  144.7217  133.5511  152.6009 H   0  0  0  0  0  0  0  0  0  0  0  0
  145.8828  133.0740  148.7361 H   0  0  0  0  0  0  0  0  0  0  0  0
  150.9880  130.7751  156.4484 H   0  0  0  0  0  0  0  0  0  0  0  0
  151.2216  131.6399  157.9703 H   0  0  0  0  0  0  0  0  0  0  0  0
  152.5280  131.5726  156.7801 H   0  0  0  0  0  0  0  0  0  0  0  0
  149.5890  131.9420  154.9205 H   0  0  0  0  0  0  0  0  0  0  0  0
  148.7261  134.9726  152.9958 H   0  0  0  0  0  0  0  0  0  0  0  0
  147.1913  134.7081  151.8285 H   0  0  0  0  0  0  0  0  0  0  0  0
  145.8961  131.2149  152.2794 H   0  0  0  0  0  0  0  0  0  0  0  0
  145.4264  130.7133  149.8008 H   0  0  0  0  0  0  0  0  0  0  0  0
  143.7834  132.0164  147.9647 H   0  0  0  0  0  0  0  0  0  0  0  0
  142.9257  132.5593  149.3980 H   0  0  0  0  0  0  0  0  0  0  0  0
  144.2387  134.4228  147.7702 H   0  0  0  0  0  0  0  0  0  0  0  0
  144.1241  134.5285  150.6209 H   0  0  0  0  0  0  0  0  0  0  0  0
  145.7925  134.8532  150.2148 H   0  0  0  0  0  0  0  0  0  0  0  0
  149.7825  136.2760  154.7985 H   0  0  0  0  0  0  0  0  0  0  0  0
  151.4994  136.1401  156.6067 H   0  0  0  0  0  0  0  0  0  0  0  0
  1  2  1  0  0  0  0
  1 21  1  0  0  0  0
  1 22  1  0  0  0  0
  1 23  1  0  0  0  0
  2 18  1  0  0  0  0
  2  3  2  0  0  0  0
  3  4  1  0  0  0  0
  3 24  1  0  0  0  0
  4  5  1  0  0  0  0
  4 16  2  0  0  0  0
  5  6  1  0  0  0  0
  5 25  1  0  0  0  0
  6  7  2  0  0  0  0
  6  8  1  0  0  0  0
  8  9  1  0  0  0  0
  8 26  1  0  0  0  0
  9 19  1  0  0  0  0
  9 15  1  0  0  0  0
  9 10  1  0  0  0  0
 10 11  2  0  0  0  0
 10 27  1  0  0  0  0
 11 12  1  0  0  0  0
 11 28  1  0  0  0  0
 12 20  1  0  0  0  0
 12 13  1  0  0  0  0
 12 15  1  0  0  0  0
 13 14  1  0  0  0  0
 13 29  1  0  0  0  0
 13 30  1  0  0  0  0
 14 31  1  0  0  0  0
 15 32  1  0  0  0  0
 15 33  1  0  0  0  0
 16 17  1  0  0  0  0
 16 34  1  0  0  0  0
 17 18  2  0  0  0  0
 17 35  1  0  0  0  0
M  END
> <s_m_source_file>
AV-unprocessed.smi

> <i_m_source_file_index>
3298

> <i_lp_mmshare_version>
43012

> <i_f3d_flags>
0

> <s_epik_input>
W0NIM11jMVtjSF1jKFtjSF1bY0hdbjEpW05IXUMoPU8pW05IXVtDQEBIXTJbQ0hdPVtDSF1bQ0BASF0oW0NIMl0yKVtDSDJdW09IXQ==

> <s_epik_cmdline>
J2VwaWtfcHl0aG9uJywgJy1waCcsICc3LjAnLCAnLXRuJywgJzgnLCAnLW1hJywgJzIwMCcsICctbWV0YWxfYmluZGluZycsICctaW1hZScsICc8aW5maWxlLm1hZT4nLCAnLW9tYWUnLCAnPG91dGZpbGUubWFlPic=

> <r_epik_Ionization_Penalty>
0.379275

> <r_epik_Ionization_Penalty_Charging>
0

> <r_epik_Ionization_Penalty_Neutral>
0.379275

> <r_epik_State_Penalty>
0.377195

> <r_epik_Charging_Adjusted_Penalty>
0.377195

> <i_epik_Tot_Q>
0

> <i_epik_Tot_abs_Q>
0

> <r_epik_Metal_State_Penalty>
0.22815

> <b_epik_Metal_Only>
0

> <s_lp_Force_Field>
OPLS_2005

> <r_lp_Energy>
21.788

> <b_lp_Chiralities_Consistent>
1

> <s_lp_Variant>
AV-unprocessed.smi:3298-3

> <Gold.Version>
5.8.1

> <Gold.Id.Protein>
6NUR|6NUR_protein|mol2

> <Gold.PLP.Fitness>
42.7334

> <Gold.PLP.PLP>
-33.4619

> <Gold.PLP.part.hbond>
-6.0577

> <Gold.PLP.part.metal>
0.0000

> <Gold.PLP.part.buried>
-1.7257

> <Gold.PLP.part.nonpolar>
-25.2082

> <Gold.PLP.part.repulsive>
0.0685

> <Gold.PLP.ligand.clash>
0.0000

> <Gold.PLP.ligand.torsion>
0.3100

> <Gold.PLP.Chemscore.Hbond>
3.2919

> <Gold.PLP.Chemscore.CHOScore>
0.0000

> <Gold.PLP.Chemscore.Metal>
0.0000

> <Gold.Chemscore.Hbonds>
donor molecule, donor type, donor heavy atom, donor atom, acceptor molecule, acceptor atom, score
      L1  H     5    25       P1  7948  1.00
      L1  H     8    26       P1  7948  0.32
      L1  H    14    31       P1  7921  1.00
      P1  H 10192 10197       L1    14  1.00

> <Gold.PLP.Chemscore.Internal.Correction>
0.0156

> <Gold.Rescore>
     Score         DG    S(hbond)    S(metal)    S(lipo)     H(rot)  DE(clash)    DE(int)     intcor
     18.61     -20.85       3.26        0.00      77.19       1.78       1.92       0.31       ----

> <Gold.Chemscore.Fitness>
18.6142

> <Gold.Chemscore.DG>
-20.8474

> <Gold.Chemscore.ZeroCoef>
-5.4800

> <Gold.Chemscore.Hbond>
3.2612

> <Gold.Chemscore.Metal>
0.0000

> <Gold.Chemscore.Lipo>
77.1860

> <Gold.Chemscore.Internal_Hbond>
0.0000

> <Gold.Chemscore.DEClash>
1.9201

> <Gold.Chemscore.DEInternal>
0.3131

> <Gold.Chemscore.Rot>
1.7796

> <Gold.Chemscore.Internal.Correction>
   9.000000E+99

> <Gold.Chemscore.Hbonds>
donor molecule, donor type, donor heavy atom, donor atom, acceptor molecule, acceptor atom, score
      L1  H     5    25       P1  7948  0.35
      L1  H     8    26       P1  7948  0.25
      L1  H    14    31       P1  7921  1.00
      P1  H 10192 10197       L1    14  0.37

> <Gold.Chemscore.Hbond.Weighted>
-10.8925

> <Gold.Chemscore.Metal.Weighted>
-0.0000

> <Gold.Chemscore.Lipo.Weighted>
-9.0308

> <Gold.Chemscore.Internal_Hbond.Weighted>
0.0000

> <Gold.Chemscore.DEClash.Weighted>
1.9201

> <Gold.Chemscore.DEInternal.Weighted>
0.3131

> <Gold.Chemscore.Rot.Weighted>
4.5558

> <Gold.Chemscore.Internal.Correction.Weighted>
   9.000000E+99

> <Gold.Protein.RotatedTorsions>
[ 6907 6896 6895 6894 ] final -124.23 input  -60.11 | X-H torsion
[ 7974 7965 7964 7962 ] final  -84.25 input  175.53 | X-H torsion
[ 8008 7997 7996 7995 ] final  -28.47 input   59.86 | X-H torsion
[ 10167 10162 10161 10158 ] final   86.10 input  -65.29 | X-H torsion
[ 10718 10713 10712 10709 ] final  131.13 input   66.30 | X-H torsion
[ 10763 10752 10751 10750 ] final -143.70 input  -60.55 | X-H torsion
[ 11005 11000 10999 10996 ] final  -48.86 input  -57.11 | X-H torsion

> <Gold.Protein.ActiveResidues>
 VAL166  LYS551  ARG553  GLY616  TRP617  ASP618  TYR619  PRO620  LYS621  CYS622 
 ASP623  PHE694  ASN695  SER759  ASP760  ASP761  ALA762  ILE779  LEU786  VAL792 
 PHE793  MET794  SER795  GLU796  ALA797  LYS798  CYS799  TRP800  GLU811  SER814 

> <Gold.Protein.RotatedAtoms>
  150.8748  133.7455  159.2949 H   0  0  0  0  0  0  0  0  0  0  0  0  # atno 6907 bound_to 6896
  151.5055  135.1062  159.9850 H   0  0  0  0  0  0  0  0  0  0  0  0  # atno 6908 bound_to 6896
  152.4720  133.8005  159.7006 H   0  0  0  0  0  0  0  0  0  0  0  0  # atno 6909 bound_to 6896
  145.5091  140.9541  143.1717 H   0  0  0  0  0  0  0  0  0  0  0  0  # atno 7974 bound_to 7965
  154.4331  140.1844  156.1094 H   0  0  0  0  0  0  0  0  0  0  0  0  # atno 8008 bound_to 7997
  156.0229  140.3339  155.7032 H   0  0  0  0  0  0  0  0  0  0  0  0  # atno 8009 bound_to 7997
  155.5950  140.0634  157.2739 H   0  0  0  0  0  0  0  0  0  0  0  0  # atno 8010 bound_to 7997
  139.8910  144.6385  150.8739 H   0  0  0  0  0  0  0  0  0  0  0  0  # atno 10167 bound_to 10162
  157.4997  131.1093  150.9445 H   0  0  0  0  0  0  0  0  0  0  0  0  # atno 10718 bound_to 10713
  154.8459  135.3460  154.6229 H   0  0  0  0  0  0  0  0  0  0  0  0  # atno 10763 bound_to 10752
  153.6838  135.6978  153.5115 H   0  0  0  0  0  0  0  0  0  0  0  0  # atno 10764 bound_to 10752
  153.2648  135.4311  155.0885 H   0  0  0  0  0  0  0  0  0  0  0  0  # atno 10765 bound_to 10752
  141.0725  133.6675  156.3502 H   0  0  0  0  0  0  0  0  0  0  0  0  # atno 11005 bound_to 11000
  144.7737  139.6677  143.7184 LP  0  0  0  0  0  0  0  0  0  0  0  0  # atno 17320 bound_to 7965
  146.2178  139.5580  142.9639 LP  0  0  0  0  0  0  0  0  0  0  0  0  # atno 17321 bound_to 7965
  140.7726  143.3510  151.2014 LP  0  0  0  0  0  0  0  0  0  0  0  0  # atno 17342 bound_to 10162
  139.7110  143.9377  152.2947 LP  0  0  0  0  0  0  0  0  0  0  0  0  # atno 17343 bound_to 10162
  157.0119  130.5640  149.5322 LP  0  0  0  0  0  0  0  0  0  0  0  0  # atno 17370 bound_to 10713
  156.0221  130.5316  150.8306 LP  0  0  0  0  0  0  0  0  0  0  0  0  # atno 17371 bound_to 10713
  140.5642  134.5904  157.5441 LP  0  0  0  0  0  0  0  0  0  0  0  0  # atno 17394 bound_to 11000
  139.9538  134.7570  156.0387 LP  0  0  0  0  0  0  0  0  0  0  0  0  # atno 17395 bound_to 11000

$$$$
