AV-unprocessed.smi:1308|AV-procd|sdf|5440|dock1
  -GOLD-   22720 5 03D 1   1.00000     0.00000
 Structure written by MMmdl.
 45 45  0  0  0  0  0  0  0  0  1 V2000
  147.5557  135.1325  154.8309 C   0  0  0  0  0  0  0  0  0  0  0  0
  148.7601  136.0284  155.0213 C   0  0  0  0  0  0  0  0  0  0  0  0
  148.5427  137.3414  154.6370 N   0  0  0  0  0  0  0  0  0  0  0  0
  149.5905  138.2357  154.7669 C   0  0  0  0  0  0  0  0  0  0  0  0
  149.2699  139.6524  154.3238 C   0  0  0  0  0  0  0  0  0  0  0  0
  150.7927  137.8422  155.2586 C   0  0  0  0  0  0  0  0  0  0  0  0
  151.9746  138.7968  155.4250 C   0  0  0  0  0  0  0  0  0  0  0  0
  152.1143  139.4716  156.7921 C   0  0  0  0  0  0  0  0  0  0  0  0
  153.1066  139.2707  157.4929 O   0  0  0  0  0  0  0  0  0  0  0  0
  151.1059  140.2824  157.1482 N   0  0  0  0  0  0  0  0  0  0  0  0
  151.0310  141.0727  158.3763 C   0  0  2  0  0  0  0  0  0  0  0  0
  149.8838  142.0855  158.2582 C   0  0  0  0  0  0  0  0  0  0  0  0
  152.3790  141.7675  158.6506 C   0  0  0  0  0  0  0  0  0  0  0  0
  152.2996  142.8715  159.7234 C   0  0  0  0  0  0  0  0  0  0  0  0
  151.9103  144.2590  159.1738 C   0  0  0  0  0  0  0  0  0  0  0  0
  152.7850  144.6861  157.9829 C   0  0  0  0  0  0  0  0  0  0  0  0
  151.9677  145.3168  160.2864 C   0  0  0  0  0  0  0  0  0  0  0  0
  150.9609  136.4271  155.6651 C   0  0  0  0  0  0  0  0  0  0  0  0
  152.0199  136.0152  156.1370 O   0  0  0  0  0  0  0  0  0  0  0  0
  149.8699  135.5576  155.5035 N   0  0  0  0  0  0  0  0  0  0  0  0
  147.6643  137.6762  154.2682 H   0  0  0  0  0  0  0  0  0  0  0  0
  147.7504  134.1308  155.2158 H   0  0  0  0  0  0  0  0  0  0  0  0
  147.3086  135.0490  153.7721 H   0  0  0  0  0  0  0  0  0  0  0  0
  146.6919  135.5379  155.3588 H   0  0  0  0  0  0  0  0  0  0  0  0
  149.4327  140.3530  155.1430 H   0  0  0  0  0  0  0  0  0  0  0  0
  148.2320  139.7483  154.0026 H   0  0  0  0  0  0  0  0  0  0  0  0
  149.9064  139.9434  153.4881 H   0  0  0  0  0  0  0  0  0  0  0  0
  151.8990  139.5825  154.6734 H   0  0  0  0  0  0  0  0  0  0  0  0
  152.9077  138.2811  155.1941 H   0  0  0  0  0  0  0  0  0  0  0  0
  150.3344  140.3783  156.5038 H   0  0  0  0  0  0  0  0  0  0  0  0
  150.8088  140.4274  159.2282 H   0  0  0  0  0  0  0  0  0  0  0  0
  149.7866  142.6756  159.1699 H   0  0  0  0  0  0  0  0  0  0  0  0
  148.9311  141.5824  158.0900 H   0  0  0  0  0  0  0  0  0  0  0  0
  150.0469  142.7767  157.4305 H   0  0  0  0  0  0  0  0  0  0  0  0
  153.1137  141.0173  158.9439 H   0  0  0  0  0  0  0  0  0  0  0  0
  152.7454  142.2047  157.7209 H   0  0  0  0  0  0  0  0  0  0  0  0
  151.5635  142.5697  160.4698 H   0  0  0  0  0  0  0  0  0  0  0  0
  153.2497  142.9476  160.2534 H   0  0  0  0  0  0  0  0  0  0  0  0
  150.8767  144.2096  158.8292 H   0  0  0  0  0  0  0  0  0  0  0  0
  153.8417  144.6972  158.2512 H   0  0  0  0  0  0  0  0  0  0  0  0
  152.5191  145.6868  157.6409 H   0  0  0  0  0  0  0  0  0  0  0  0
  152.6624  144.0158  157.1326 H   0  0  0  0  0  0  0  0  0  0  0  0
  152.9774  145.4165  160.6862 H   0  0  0  0  0  0  0  0  0  0  0  0
  151.3069  145.0556  161.1136 H   0  0  0  0  0  0  0  0  0  0  0  0
  151.6574  146.2949  159.9176 H   0  0  0  0  0  0  0  0  0  0  0  0
  1 22  1  0  0  0  0
  1 23  1  0  0  0  0
  1 24  1  0  0  0  0
  1  2  1  0  0  0  0
  2  3  1  0  0  0  0
  2 20  2  0  0  0  0
  3  4  1  0  0  0  0
  3 21  1  0  0  0  0
  4  6  2  0  0  0  0
  4  5  1  0  0  0  0
  5 25  1  0  0  0  0
  5 26  1  0  0  0  0
  5 27  1  0  0  0  0
  6 18  1  0  0  0  0
  6  7  1  0  0  0  0
  7  8  1  0  0  0  0
  7 28  1  0  0  0  0
  7 29  1  0  0  0  0
  8  9  2  0  0  0  0
  8 10  1  0  0  0  0
 10 11  1  0  0  0  0
 10 30  1  0  0  0  0
 11 12  1  0  0  0  0
 11 13  1  0  0  0  0
 11 31  1  0  0  0  0
 12 32  1  0  0  0  0
 12 33  1  0  0  0  0
 12 34  1  0  0  0  0
 13 14  1  0  0  0  0
 13 35  1  0  0  0  0
 13 36  1  0  0  0  0
 14 15  1  0  0  0  0
 14 37  1  0  0  0  0
 14 38  1  0  0  0  0
 15 16  1  0  0  0  0
 15 17  1  0  0  0  0
 15 39  1  0  0  0  0
 16 40  1  0  0  0  0
 16 41  1  0  0  0  0
 16 42  1  0  0  0  0
 17 43  1  0  0  0  0
 17 44  1  0  0  0  0
 17 45  1  0  0  0  0
 18 19  2  0  0  0  0
 18 20  1  0  0  0  0
M  END
> <s_m_source_file>
AV-unprocessed.smi

> <i_m_source_file_index>
1308

> <i_lp_mmshare_version>
43012

> <i_f3d_flags>
0

> <s_epik_input>
W0NIM11jMW5jKFtDSDNdKWMoYyg9TylbbkhdMSlbQ0gyXUMoPU8pW05IXVtDQEhdKFtDSDNdKVtDSDJdW0NIMl1bQ0hdKFtDSDNdKVtDSDNd

> <s_epik_cmdline>
J2VwaWtfcHl0aG9uJywgJy1waCcsICc3LjAnLCAnLXRuJywgJzgnLCAnLW1hJywgJzIwMCcsICctbWV0YWxfYmluZGluZycsICctaW1hZScsICc8aW5maWxlLm1hZT4nLCAnLW9tYWUnLCAnPG91dGZpbGUubWFlPic=

> <r_lp_tautomer_probability>
0.156392

> <r_epik_Ionization_Penalty>
0.0141156

> <r_epik_Ionization_Penalty_Charging>
0.0139937

> <r_epik_Ionization_Penalty_Neutral>
0.00012188

> <r_epik_State_Penalty>
1.52994

> <r_epik_Charging_Adjusted_Penalty>
1.54393

> <i_epik_Tot_Q>
0

> <i_epik_Tot_abs_Q>
0

> <r_epik_Metal_State_Penalty>
1.70663

> <b_epik_Metal_Only>
0

> <s_lp_Force_Field>
OPLS_2005

> <r_lp_Energy>
10.8122

> <b_lp_Chiralities_Consistent>
1

> <s_lp_Variant>
AV-unprocessed.smi:1308-3

> <Gold.Version>
5.8.1

> <Gold.Id.Protein>
6NUR|6NUR_protein|mol2

> <Gold.PLP.Fitness>
42.6722

> <Gold.PLP.PLP>
-38.1915

> <Gold.PLP.part.hbond>
-3.0000

> <Gold.PLP.part.metal>
0.0000

> <Gold.PLP.part.buried>
-3.5195

> <Gold.PLP.part.nonpolar>
-31.6707

> <Gold.PLP.part.repulsive>
0.1689

> <Gold.PLP.ligand.clash>
0.0000

> <Gold.PLP.ligand.torsion>
0.8285

> <Gold.PLP.Chemscore.Hbond>
2.0000

> <Gold.PLP.Chemscore.CHOScore>
0.0000

> <Gold.PLP.Chemscore.Metal>
0.0000

> <Gold.Chemscore.Hbonds>
donor molecule, donor type, donor heavy atom, donor atom, acceptor molecule, acceptor atom, score
      P1  H  7997  8008       L1     9  1.00
      P1  H 10752 10764       L1    19  1.00

> <Gold.PLP.Chemscore.Internal.Correction>
0.1376

> <Gold.Rescore>
     Score         DG    S(hbond)    S(metal)    S(lipo)     H(rot)  DE(clash)    DE(int)     intcor
     16.42     -18.54       1.96        0.00      98.97       1.98       0.09       2.04       ----

> <Gold.Chemscore.Fitness>
16.4201

> <Gold.Chemscore.DG>
-18.5440

> <Gold.Chemscore.ZeroCoef>
-5.4800

> <Gold.Chemscore.Hbond>
1.9646

> <Gold.Chemscore.Metal>
0.0000

> <Gold.Chemscore.Lipo>
98.9739

> <Gold.Chemscore.Internal_Hbond>
0.0000

> <Gold.Chemscore.DEClash>
0.0877

> <Gold.Chemscore.DEInternal>
2.0361

> <Gold.Chemscore.Rot>
1.9835

> <Gold.Chemscore.Internal.Correction>
   9.000000E+99

> <Gold.Chemscore.Hbonds>
donor molecule, donor type, donor heavy atom, donor atom, acceptor molecule, acceptor atom, score
      P1  H  7997  8008       L1     9  0.82
      P1  H 10752 10764       L1    19  0.96

> <Gold.Chemscore.Hbond.Weighted>
-6.5618

> <Gold.Chemscore.Metal.Weighted>
-0.0000

> <Gold.Chemscore.Lipo.Weighted>
-11.5799

> <Gold.Chemscore.Internal_Hbond.Weighted>
0.0000

> <Gold.Chemscore.DEClash.Weighted>
0.0877

> <Gold.Chemscore.DEInternal.Weighted>
2.0361

> <Gold.Chemscore.Rot.Weighted>
5.0778

> <Gold.Chemscore.Internal.Correction.Weighted>
   9.000000E+99

> <Gold.Protein.RotatedTorsions>
[ 6907 6896 6895 6894 ] final -167.02 input  -60.11 | X-H torsion
[ 7974 7965 7964 7962 ] final  -94.12 input  175.53 | X-H torsion
[ 8008 7997 7996 7995 ] final  -75.02 input   59.86 | X-H torsion
[ 10167 10162 10161 10158 ] final   -8.07 input  -65.29 | X-H torsion
[ 10718 10713 10712 10709 ] final   -5.94 input   66.30 | X-H torsion
[ 10763 10752 10751 10750 ] final  -27.60 input  -60.55 | X-H torsion
[ 11005 11000 10999 10996 ] final  -22.31 input  -57.11 | X-H torsion

> <Gold.Protein.ActiveResidues>
 VAL166  LYS551  ARG553  GLY616  TRP617  ASP618  TYR619  PRO620  LYS621  CYS622 
 ASP623  PHE694  ASN695  SER759  ASP760  ASP761  ALA762  ILE779  LEU786  VAL792 
 PHE793  MET794  SER795  GLU796  ALA797  LYS798  CYS799  TRP800  GLU811  SER814 

> <Gold.Protein.RotatedAtoms>
  151.4529  133.3612  159.2797 H   0  0  0  0  0  0  0  0  0  0  0  0  # atno 6907 bound_to 6896
  150.9078  134.8495  159.7415 H   0  0  0  0  0  0  0  0  0  0  0  0  # atno 6908 bound_to 6896
  152.4916  134.4456  159.9610 H   0  0  0  0  0  0  0  0  0  0  0  0  # atno 6909 bound_to 6896
  145.3775  140.9513  143.2412 H   0  0  0  0  0  0  0  0  0  0  0  0  # atno 7974 bound_to 7965
  154.5381  140.0751  156.8462 H   0  0  0  0  0  0  0  0  0  0  0  0  # atno 8008 bound_to 7997
  155.3237  140.3397  155.4222 H   0  0  0  0  0  0  0  0  0  0  0  0  # atno 8009 bound_to 7997
  156.1847  140.1665  156.8193 H   0  0  0  0  0  0  0  0  0  0  0  0  # atno 8010 bound_to 7997
  140.7048  143.6010  150.8797 H   0  0  0  0  0  0  0  0  0  0  0  0  # atno 10167 bound_to 10162
  156.7392  130.5204  149.5828 H   0  0  0  0  0  0  0  0  0  0  0  0  # atno 10718 bound_to 10713
  153.7348  135.6936  153.4981 H   0  0  0  0  0  0  0  0  0  0  0  0  # atno 10763 bound_to 10752
  153.2111  135.4402  155.0379 H   0  0  0  0  0  0  0  0  0  0  0  0  # atno 10764 bound_to 10752
  154.8241  135.3437  154.6876 H   0  0  0  0  0  0  0  0  0  0  0  0  # atno 10765 bound_to 10752
  140.8645  133.7764  156.0113 H   0  0  0  0  0  0  0  0  0  0  0  0  # atno 11005 bound_to 11000
  144.8531  139.5290  143.6847 LP  0  0  0  0  0  0  0  0  0  0  0  0  # atno 17320 bound_to 7965
  146.2857  139.6998  142.9197 LP  0  0  0  0  0  0  0  0  0  0  0  0  # atno 17321 bound_to 7965
  139.9735  143.6031  152.2966 LP  0  0  0  0  0  0  0  0  0  0  0  0  # atno 17342 bound_to 10162
  139.6626  144.7662  151.1934 LP  0  0  0  0  0  0  0  0  0  0  0  0  # atno 17343 bound_to 10162
  156.1476  130.6287  151.0552 LP  0  0  0  0  0  0  0  0  0  0  0  0  # atno 17370 bound_to 10713
  157.6826  131.0834  150.7330 LP  0  0  0  0  0  0  0  0  0  0  0  0  # atno 17371 bound_to 10713
  140.8645  134.2801  157.5219 LP  0  0  0  0  0  0  0  0  0  0  0  0  # atno 17394 bound_to 11000
  139.8708  134.9535  156.4148 LP  0  0  0  0  0  0  0  0  0  0  0  0  # atno 17395 bound_to 11000

$$$$
