AV-unprocessed.smi:2136|AV-procd|sdf|8702|dock7
  -GOLD-   2272011463D 1   1.00000     0.00000
 Structure written by MMmdl.
 42 43  0  0  0  0  0  0  0  0  1 V2000
  152.5167  137.9973  158.6656 C   0  0  0  0  0  0  0  0  0  0  0  0
  152.8648  137.4639  156.9382 S   0  0  0  0  0  0  0  0  0  0  0  0
  153.3980  138.6045  156.1778 O   0  0  0  0  0  0  0  0  0  0  0  0
  153.6532  136.2251  157.0259 O   0  0  0  0  0  0  0  0  0  0  0  0
  151.2817  137.0567  156.3095 N   0  0  0  0  0  0  0  0  0  0  0  0
  151.0000  135.6105  156.1407 C   0  0  0  0  0  0  0  0  0  0  0  0
  149.5070  135.2965  155.9796 C   0  0  0  0  0  0  0  0  0  0  0  0
  148.8910  136.1275  154.8602 C   0  0  0  0  0  0  0  0  0  0  0  0
  149.0842  137.6017  155.2035 C   0  0  0  0  0  0  0  0  0  0  0  0
  150.5780  137.9771  155.3603 C   0  0  1  0  0  0  0  0  0  0  0  0
  150.6663  139.4784  155.6871 C   0  0  0  0  0  0  0  0  0  0  0  0
  151.3047  140.2380  154.9576 O   0  0  0  0  0  0  0  0  0  0  0  0
  150.0168  139.8933  156.7860 N   0  0  0  0  0  0  0  0  0  0  0  0
  149.9375  141.2741  157.2444 C   0  0  0  0  0  0  0  0  0  0  0  0
  151.3165  141.9531  157.2205 C   0  0  0  0  0  0  0  0  0  0  0  0
  151.5291  142.8551  158.4200 C   0  0  0  0  0  0  0  0  0  0  0  0
  152.4727  142.5297  159.4162 C   0  0  0  0  0  0  0  0  0  0  0  0
  152.6357  143.4053  160.5071 C   0  0  0  0  0  0  0  0  0  0  0  0
  151.8456  144.5715  160.5553 C   0  0  0  0  0  0  0  0  0  0  0  0
  150.9382  144.8919  159.6077 N   0  0  0  0  0  0  0  0  0  0  0  0
  150.7882  144.0471  158.5649 C   0  0  0  0  0  0  0  0  0  0  0  0
  153.4596  138.1467  159.1909 H   0  0  0  0  0  0  0  0  0  0  0  0
  151.9397  137.2261  159.1750 H   0  0  0  0  0  0  0  0  0  0  0  0
  151.9606  138.9313  158.6732 H   0  0  0  0  0  0  0  0  0  0  0  0
  151.5554  135.2477  155.2749 H   0  0  0  0  0  0  0  0  0  0  0  0
  151.3670  135.0595  157.0062 H   0  0  0  0  0  0  0  0  0  0  0  0
  149.3746  134.2344  155.7709 H   0  0  0  0  0  0  0  0  0  0  0  0
  148.9856  135.4937  156.9173 H   0  0  0  0  0  0  0  0  0  0  0  0
  149.3626  135.8931  153.9050 H   0  0  0  0  0  0  0  0  0  0  0  0
  147.8300  135.8979  154.7583 H   0  0  0  0  0  0  0  0  0  0  0  0
  148.6252  138.2126  154.4247 H   0  0  0  0  0  0  0  0  0  0  0  0
  148.5389  137.8216  156.1233 H   0  0  0  0  0  0  0  0  0  0  0  0
  151.0493  137.8302  154.3867 H   0  0  0  0  0  0  0  0  0  0  0  0
  149.5139  139.2042  157.3266 H   0  0  0  0  0  0  0  0  0  0  0  0
  149.2501  141.8081  156.5878 H   0  0  0  0  0  0  0  0  0  0  0  0
  149.5054  141.3133  158.2457 H   0  0  0  0  0  0  0  0  0  0  0  0
  152.1077  141.2030  157.2082 H   0  0  0  0  0  0  0  0  0  0  0  0
  151.4322  142.5365  156.3059 H   0  0  0  0  0  0  0  0  0  0  0  0
  153.0624  141.6272  159.3472 H   0  0  0  0  0  0  0  0  0  0  0  0
  153.3493  143.1897  161.2884 H   0  0  0  0  0  0  0  0  0  0  0  0
  151.9447  145.2649  161.3773 H   0  0  0  0  0  0  0  0  0  0  0  0
  150.0575  144.3323  157.8224 H   0  0  0  0  0  0  0  0  0  0  0  0
  1  2  1  0  0  0  0
  1 22  1  0  0  0  0
  1 23  1  0  0  0  0
  1 24  1  0  0  0  0
  2  3  2  0  0  0  0
  2  4  2  0  0  0  0
  2  5  1  0  0  0  0
  5 10  1  0  0  0  0
  5  6  1  0  0  0  0
  6  7  1  0  0  0  0
  6 25  1  0  0  0  0
  6 26  1  0  0  0  0
  7  8  1  0  0  0  0
  7 27  1  0  0  0  0
  7 28  1  0  0  0  0
  8  9  1  0  0  0  0
  8 29  1  0  0  0  0
  8 30  1  0  0  0  0
  9 10  1  0  0  0  0
  9 31  1  0  0  0  0
  9 32  1  0  0  0  0
 10 11  1  0  0  0  0
 10 33  1  0  0  0  0
 11 12  2  0  0  0  0
 11 13  1  0  0  0  0
 13 14  1  0  0  0  0
 13 34  1  0  0  0  0
 14 15  1  0  0  0  0
 14 35  1  0  0  0  0
 14 36  1  0  0  0  0
 15 16  1  0  0  0  0
 15 37  1  0  0  0  0
 15 38  1  0  0  0  0
 16 21  1  0  0  0  0
 16 17  2  0  0  0  0
 17 18  1  0  0  0  0
 17 39  1  0  0  0  0
 18 19  2  0  0  0  0
 18 40  1  0  0  0  0
 19 20  1  0  0  0  0
 19 41  1  0  0  0  0
 20 21  2  0  0  0  0
 21 42  1  0  0  0  0
M  END
> <s_m_source_file>
AV-unprocessed.smi

> <i_m_source_file_index>
2136

> <i_lp_mmshare_version>
43012

> <i_f3d_flags>
0

> <s_epik_input>
W0NIM11TKD1PKSg9TylOMVtDSDJdW0NIMl1bQ0gyXVtDSDJdW0NASF0xQyg9TylbTkhdW0NIMl1bQ0gyXWMyW2NIXVtjSF1bY0hdbltjSF0y

> <s_epik_cmdline>
J2VwaWtfcHl0aG9uJywgJy1waCcsICc3LjAnLCAnLXRuJywgJzgnLCAnLW1hJywgJzIwMCcsICctbWV0YWxfYmluZGluZycsICctaW1hZScsICc8aW5maWxlLm1hZT4nLCAnLW9tYWUnLCAnPG91dGZpbGUubWFlPic=

> <r_epik_Ionization_Penalty>
0.0126915

> <r_epik_Ionization_Penalty_Charging>
0

> <r_epik_Ionization_Penalty_Neutral>
0.0126915

> <r_epik_State_Penalty>
0.0098379

> <r_epik_Charging_Adjusted_Penalty>
0.0098379

> <i_epik_Tot_Q>
0

> <i_epik_Tot_abs_Q>
0

> <r_epik_Metal_State_Penalty>
0.00962913

> <b_epik_Metal_Only>
0

> <s_lp_Force_Field>
OPLS_2005

> <r_lp_Energy>
4.41633

> <b_lp_Chiralities_Consistent>
1

> <s_lp_Variant>
AV-unprocessed.smi:2136-1

> <Gold.Version>
5.8.1

> <Gold.Id.Protein>
6NUR|6NUR_protein|mol2

> <Gold.PLP.Fitness>
43.2523

> <Gold.PLP.PLP>
-32.0263

> <Gold.PLP.part.hbond>
-3.0000

> <Gold.PLP.part.metal>
0.0000

> <Gold.PLP.part.buried>
-6.2729

> <Gold.PLP.part.nonpolar>
-23.1874

> <Gold.PLP.part.repulsive>
0.2087

> <Gold.PLP.ligand.clash>
0.0000

> <Gold.PLP.ligand.torsion>
1.5128

> <Gold.PLP.Chemscore.Hbond>
2.9280

> <Gold.PLP.Chemscore.CHOScore>
1.1235

> <Gold.PLP.Chemscore.Metal>
0.0000

> <Gold.Chemscore.Hbonds>
donor molecule, donor type, donor heavy atom, donor atom, acceptor molecule, acceptor atom, score
      P1  H  7989  7998       L1    12  1.00
      P1  H  7997  8008       L1     3  0.88
      P1  H 10752 10764       L1     4  1.00
      L1  C    21    42       P1  8028  0.97
      L1  C    21    42       P1  8029  0.15

> <Gold.PLP.Chemscore.Internal.Correction>
2.0972

> <Gold.Rescore>
     Score         DG    S(hbond)    S(metal)    S(lipo)     H(rot)  DE(clash)    DE(int)     intcor
     17.81     -21.65       2.86        0.00      90.72       1.56       0.03       3.80       ----

> <Gold.Chemscore.Fitness>
17.8135

> <Gold.Chemscore.DG>
-21.6466

> <Gold.Chemscore.ZeroCoef>
-5.4800

> <Gold.Chemscore.Hbond>
2.8615

> <Gold.Chemscore.Metal>
0.0000

> <Gold.Chemscore.Lipo>
90.7171

> <Gold.Chemscore.Internal_Hbond>
0.0000

> <Gold.Chemscore.DEClash>
0.0310

> <Gold.Chemscore.DEInternal>
3.8021

> <Gold.Chemscore.Rot>
1.5643

> <Gold.Chemscore.Internal.Correction>
   9.000000E+99

> <Gold.Chemscore.Hbonds>
donor molecule, donor type, donor heavy atom, donor atom, acceptor molecule, acceptor atom, score
      P1  H  7989  7998       L1    12  0.98
      P1  H  7997  8008       L1     3  0.87
      P1  H 10752 10764       L1     4  0.90

> <Gold.Chemscore.Hbond.Weighted>
-9.5573

> <Gold.Chemscore.Metal.Weighted>
-0.0000

> <Gold.Chemscore.Lipo.Weighted>
-10.6139

> <Gold.Chemscore.Internal_Hbond.Weighted>
0.0000

> <Gold.Chemscore.DEClash.Weighted>
0.0310

> <Gold.Chemscore.DEInternal.Weighted>
3.8021

> <Gold.Chemscore.Rot.Weighted>
4.0046

> <Gold.Chemscore.Internal.Correction.Weighted>
   9.000000E+99

> <Gold.Protein.RotatedTorsions>
[ 6907 6896 6895 6894 ] final -172.10 input  -60.11 | X-H torsion
[ 7974 7965 7964 7962 ] final  -45.81 input  175.53 | X-H torsion
[ 8008 7997 7996 7995 ] final  -38.24 input   59.86 | X-H torsion
[ 10167 10162 10161 10158 ] final  -12.70 input  -65.29 | X-H torsion
[ 10718 10713 10712 10709 ] final   43.12 input   66.30 | X-H torsion
[ 10763 10752 10751 10750 ] final   26.15 input  -60.55 | X-H torsion
[ 11005 11000 10999 10996 ] final  -48.14 input  -57.11 | X-H torsion

> <Gold.Protein.ActiveResidues>
 VAL166  LYS551  ARG553  GLY616  TRP617  ASP618  TYR619  PRO620  LYS621  CYS622 
 ASP623  PHE694  ASN695  SER759  ASP760  ASP761  ALA762  ILE779  LEU786  VAL792 
 PHE793  MET794  SER795  GLU796  ALA797  LYS798  CYS799  TRP800  GLU811  SER814 

> <Gold.Protein.RotatedAtoms>
  151.5345  133.3443  159.2923 H   0  0  0  0  0  0  0  0  0  0  0  0  # atno 6907 bound_to 6896
  150.8573  134.7918  159.7067 H   0  0  0  0  0  0  0  0  0  0  0  0  # atno 6908 bound_to 6896
  152.4603  134.5208  159.9833 H   0  0  0  0  0  0  0  0  0  0  0  0  # atno 6909 bound_to 6896
  145.9783  140.7311  142.9376 H   0  0  0  0  0  0  0  0  0  0  0  0  # atno 7974 bound_to 7965
  154.4040  140.1583  156.2668 H   0  0  0  0  0  0  0  0  0  0  0  0  # atno 8008 bound_to 7997
  155.8988  140.3434  155.5988 H   0  0  0  0  0  0  0  0  0  0  0  0  # atno 8009 bound_to 7997
  155.7472  140.0800  157.2208 H   0  0  0  0  0  0  0  0  0  0  0  0  # atno 8010 bound_to 7997
  140.7167  143.5504  150.9307 H   0  0  0  0  0  0  0  0  0  0  0  0  # atno 10167 bound_to 10162
  157.4124  130.7922  149.7442 H   0  0  0  0  0  0  0  0  0  0  0  0  # atno 10718 bound_to 10713
  153.0642  135.6567  154.0391 H   0  0  0  0  0  0  0  0  0  0  0  0  # atno 10763 bound_to 10752
  154.0052  135.2933  155.3400 H   0  0  0  0  0  0  0  0  0  0  0  0  # atno 10764 bound_to 10752
  154.6994  135.5251  153.8573 H   0  0  0  0  0  0  0  0  0  0  0  0  # atno 10765 bound_to 10752
  141.0683  133.6687  156.3398 H   0  0  0  0  0  0  0  0  0  0  0  0  # atno 11005 bound_to 11000
  144.6854  140.2864  143.7284 LP  0  0  0  0  0  0  0  0  0  0  0  0  # atno 17320 bound_to 7965
  145.7807  139.1890  143.2159 LP  0  0  0  0  0  0  0  0  0  0  0  0  # atno 17321 bound_to 7965
  139.9228  143.6585  152.3093 LP  0  0  0  0  0  0  0  0  0  0  0  0  # atno 17342 bound_to 10162
  139.7008  144.7635  151.1276 LP  0  0  0  0  0  0  0  0  0  0  0  0  # atno 17343 bound_to 10162
  155.9855  130.3983  150.3260 LP  0  0  0  0  0  0  0  0  0  0  0  0  # atno 17370 bound_to 10713
  157.1399  131.0294  151.2932 LP  0  0  0  0  0  0  0  0  0  0  0  0  # atno 17371 bound_to 10713
  140.5727  134.5824  157.5461 LP  0  0  0  0  0  0  0  0  0  0  0  0  # atno 17394 bound_to 11000
  139.9498  134.7637  156.0476 LP  0  0  0  0  0  0  0  0  0  0  0  0  # atno 17395 bound_to 11000

$$$$
