AV-unprocessed.smi:1329|AV-procd|sdf|5484|dock6
  -GOLD-   22720 5 63D 1   1.00000     0.00000
 Structure written by MMmdl.
 42 43  0  0  0  0  0  0  0  0  1 V2000
  148.2064  136.7129  163.2850 C   0  0  0  0  0  0  0  0  0  0  0  0
  148.4757  135.9785  161.9994 C   0  0  0  0  0  0  0  0  0  0  0  0
  148.9822  136.6688  161.0310 N   0  0  0  0  0  0  0  0  0  0  0  0
  149.2640  136.0931  159.8080 N   0  0  0  0  0  0  0  0  0  0  0  0
  149.8139  137.0305  158.8208 C   0  0  0  0  0  0  0  0  0  0  0  0
  148.7358  137.9954  158.2786 C   0  0  1  0  0  0  0  0  0  0  0  0
  147.6026  137.8923  159.1185 O   0  0  0  0  0  0  0  0  0  0  0  0
  149.1998  139.4610  158.3191 C   0  0  0  0  0  0  0  0  0  0  0  0
  149.9825  139.7264  157.1666 O   0  0  0  0  0  0  0  0  0  0  0  0
  149.9726  141.0937  156.7946 C   0  0  0  0  0  0  0  0  0  0  0  0
  150.9673  141.8904  157.6133 C   0  0  0  0  0  0  0  0  0  0  0  0
  151.8194  141.2375  158.5285 C   0  0  0  0  0  0  0  0  0  0  0  0
  152.7479  141.9805  159.2837 C   0  0  0  0  0  0  0  0  0  0  0  0
  152.8277  143.3778  159.1255 C   0  0  0  0  0  0  0  0  0  0  0  0
  151.9796  144.0322  158.2112 C   0  0  0  0  0  0  0  0  0  0  0  0
  151.0514  143.2895  157.4554 C   0  0  0  0  0  0  0  0  0  0  0  0
  149.0510  134.7818  159.4992 C   0  0  0  0  0  0  0  0  0  0  0  0
  149.3138  134.3106  158.3917 O   0  0  0  0  0  0  0  0  0  0  0  0
  148.4789  134.0049  160.6011 C   0  0  0  0  0  0  0  0  0  0  0  0
  148.2358  132.6269  160.3190 C   0  0  0  0  0  0  0  0  0  0  0  0
  148.0288  131.5151  160.0722 N   0  0  0  0  0  0  0  0  0  0  0  0
  148.1954  134.5593  161.8062 C   0  0  0  0  0  0  0  0  0  0  0  0
  147.5966  133.7976  162.9808 C   0  0  0  0  0  0  0  0  0  0  0  0
  148.7889  136.2883  164.1027 H   0  0  0  0  0  0  0  0  0  0  0  0
  147.1515  136.6506  163.5527 H   0  0  0  0  0  0  0  0  0  0  0  0
  148.4645  137.7705  163.2115 H   0  0  0  0  0  0  0  0  0  0  0  0
  150.6550  137.5894  159.2369 H   0  0  0  0  0  0  0  0  0  0  0  0
  150.2450  136.4540  158.0004 H   0  0  0  0  0  0  0  0  0  0  0  0
  148.4660  137.7307  157.2554 H   0  0  0  0  0  0  0  0  0  0  0  0
  147.0225  137.2388  158.7589 H   0  0  0  0  0  0  0  0  0  0  0  0
  148.3522  140.1450  158.3942 H   0  0  0  0  0  0  0  0  0  0  0  0
  149.8270  139.6269  159.1964 H   0  0  0  0  0  0  0  0  0  0  0  0
  150.2211  141.1944  155.7368 H   0  0  0  0  0  0  0  0  0  0  0  0
  148.9737  141.5122  156.9301 H   0  0  0  0  0  0  0  0  0  0  0  0
  151.7656  140.1656  158.6521 H   0  0  0  0  0  0  0  0  0  0  0  0
  153.3997  141.4784  159.9832 H   0  0  0  0  0  0  0  0  0  0  0  0
  153.5399  143.9474  159.7041 H   0  0  0  0  0  0  0  0  0  0  0  0
  152.0417  145.1035  158.0882 H   0  0  0  0  0  0  0  0  0  0  0  0
  150.4058  143.7956  156.7525 H   0  0  0  0  0  0  0  0  0  0  0  0
  147.4551  132.7404  162.7587 H   0  0  0  0  0  0  0  0  0  0  0  0
  146.6229  134.2106  163.2458 H   0  0  0  0  0  0  0  0  0  0  0  0
  148.2472  133.8629  163.8532 H   0  0  0  0  0  0  0  0  0  0  0  0
  1  2  1  0  0  0  0
  1 24  1  0  0  0  0
  1 25  1  0  0  0  0
  1 26  1  0  0  0  0
  2 22  1  0  0  0  0
  2  3  2  0  0  0  0
  3  4  1  0  0  0  0
  4  5  1  0  0  0  0
  4 17  1  0  0  0  0
  5  6  1  0  0  0  0
  5 27  1  0  0  0  0
  5 28  1  0  0  0  0
  6  7  1  0  0  0  0
  6  8  1  0  0  0  0
  6 29  1  0  0  0  0
  7 30  1  0  0  0  0
  8  9  1  0  0  0  0
  8 31  1  0  0  0  0
  8 32  1  0  0  0  0
  9 10  1  0  0  0  0
 10 11  1  0  0  0  0
 10 33  1  0  0  0  0
 10 34  1  0  0  0  0
 11 16  1  0  0  0  0
 11 12  2  0  0  0  0
 12 13  1  0  0  0  0
 12 35  1  0  0  0  0
 13 14  2  0  0  0  0
 13 36  1  0  0  0  0
 14 15  1  0  0  0  0
 14 37  1  0  0  0  0
 15 16  2  0  0  0  0
 15 38  1  0  0  0  0
 16 39  1  0  0  0  0
 17 18  2  0  0  0  0
 17 19  1  0  0  0  0
 19 20  1  0  0  0  0
 19 22  2  0  0  0  0
 20 21  3  0  0  0  0
 22 23  1  0  0  0  0
 23 40  1  0  0  0  0
 23 41  1  0  0  0  0
 23 42  1  0  0  0  0
M  END
> <s_m_source_file>
AV-unprocessed.smi

> <i_m_source_file_index>
1329

> <i_lp_mmshare_version>
43012

> <i_f3d_flags>
0

> <s_epik_input>
TiNDYyhjMVtDSDNdKWMoPU8pbihuYzFbQ0gzXSlbQ0gyXVtDQEhdKFtPSF0pW0NIMl1PW0NIMl1jMltjSF1bY0hdW2NIXVtjSF1bY0hdMg==

> <s_epik_cmdline>
J2VwaWtfcHl0aG9uJywgJy1waCcsICc3LjAnLCAnLXRuJywgJzgnLCAnLW1hJywgJzIwMCcsICctbWV0YWxfYmluZGluZycsICctaW1hZScsICc8aW5maWxlLm1hZT4nLCAnLW9tYWUnLCAnPG91dGZpbGUubWFlPic=

> <r_lp_tautomer_probability>
1

> <r_epik_Ionization_Penalty>
6.13319e-08

> <r_epik_Ionization_Penalty_Charging>
2.19172e-10

> <r_epik_Ionization_Penalty_Neutral>
6.11128e-08

> <r_epik_State_Penalty>
-0

> <r_epik_Charging_Adjusted_Penalty>
2.19172e-10

> <i_epik_Tot_Q>
0

> <i_epik_Tot_abs_Q>
0

> <r_epik_Metal_State_Penalty>
-0

> <b_epik_Metal_Only>
0

> <s_lp_Force_Field>
OPLS_2005

> <r_lp_Energy>
31.6334

> <b_lp_Chiralities_Consistent>
1

> <s_lp_Variant>
AV-unprocessed.smi:1329-2

> <Gold.Version>
5.8.1

> <Gold.Id.Protein>
6NUR|6NUR_protein|mol2

> <Gold.PLP.Fitness>
49.5699

> <Gold.PLP.PLP>
-44.9011

> <Gold.PLP.part.hbond>
-4.0000

> <Gold.PLP.part.metal>
0.0000

> <Gold.PLP.part.buried>
-1.9169

> <Gold.PLP.part.nonpolar>
-38.9370

> <Gold.PLP.part.repulsive>
0.0000

> <Gold.PLP.ligand.clash>
0.0000

> <Gold.PLP.ligand.torsion>
1.3364

> <Gold.PLP.Chemscore.Hbond>
2.3925

> <Gold.PLP.Chemscore.CHOScore>
0.0000

> <Gold.PLP.Chemscore.Metal>
0.0000

> <Gold.Chemscore.Hbonds>
donor molecule, donor type, donor heavy atom, donor atom, acceptor molecule, acceptor atom, score
      P1  H  6931  6943       L1     3  0.85
      P1  H  6934  6947       L1     7  0.34

> <Gold.PLP.Chemscore.Internal.Correction>
0.1641

> <Gold.Rescore>
     Score         DG    S(hbond)    S(metal)    S(lipo)     H(rot)  DE(clash)    DE(int)     intcor
     16.38     -18.13       1.53        0.00     118.59       2.48       0.08       1.67       ----

> <Gold.Chemscore.Fitness>
16.3778

> <Gold.Chemscore.DG>
-18.1272

> <Gold.Chemscore.ZeroCoef>
-5.4800

> <Gold.Chemscore.Hbond>
1.5313

> <Gold.Chemscore.Metal>
0.0000

> <Gold.Chemscore.Lipo>
118.5940

> <Gold.Chemscore.Internal_Hbond>
0.0000

> <Gold.Chemscore.DEClash>
0.0768

> <Gold.Chemscore.DEInternal>
1.6726

> <Gold.Chemscore.Rot>
2.4777

> <Gold.Chemscore.Internal.Correction>
   9.000000E+99

> <Gold.Chemscore.Hbonds>
donor molecule, donor type, donor heavy atom, donor atom, acceptor molecule, acceptor atom, score
      P1  H  6931  6943       L1     3  0.14
      P1  H  6934  6947       L1     7  0.34

> <Gold.Chemscore.Hbond.Weighted>
-5.1145

> <Gold.Chemscore.Metal.Weighted>
-0.0000

> <Gold.Chemscore.Lipo.Weighted>
-13.8755

> <Gold.Chemscore.Internal_Hbond.Weighted>
0.0000

> <Gold.Chemscore.DEClash.Weighted>
0.0768

> <Gold.Chemscore.DEInternal.Weighted>
1.6726

> <Gold.Chemscore.Rot.Weighted>
6.3428

> <Gold.Chemscore.Internal.Correction.Weighted>
   9.000000E+99

> <Gold.Protein.RotatedTorsions>
[ 6907 6896 6895 6894 ] final -100.26 input  -60.11 | X-H torsion
[ 7974 7965 7964 7962 ] final   18.40 input  175.53 | X-H torsion
[ 8008 7997 7996 7995 ] final -151.53 input   59.86 | X-H torsion
[ 10167 10162 10161 10158 ] final   73.93 input  -65.29 | X-H torsion
[ 10718 10713 10712 10709 ] final    7.19 input   66.30 | X-H torsion
[ 10763 10752 10751 10750 ] final   79.73 input  -60.55 | X-H torsion
[ 11005 11000 10999 10996 ] final  -48.58 input  -57.11 | X-H torsion

> <Gold.Protein.ActiveResidues>
 VAL166  LYS551  ARG553  GLY616  TRP617  ASP618  TYR619  PRO620  LYS621  CYS622 
 ASP623  PHE694  ASN695  SER759  ASP760  ASP761  ALA762  ILE779  LEU786  VAL792 
 PHE793  MET794  SER795  GLU796  ALA797  LYS798  CYS799  TRP800  GLU811  SER814 

> <Gold.Protein.RotatedAtoms>
  150.7109  134.0914  159.3932 H   0  0  0  0  0  0  0  0  0  0  0  0  # atno 6907 bound_to 6896
  151.8900  135.0418  160.0506 H   0  0  0  0  0  0  0  0  0  0  0  0  # atno 6908 bound_to 6896
  152.2499  133.5171  159.5356 H   0  0  0  0  0  0  0  0  0  0  0  0  # atno 6909 bound_to 6896
  146.2186  139.8463  142.8631 H   0  0  0  0  0  0  0  0  0  0  0  0  # atno 7974 bound_to 7965
  155.6409  140.0701  157.2619 H   0  0  0  0  0  0  0  0  0  0  0  0  # atno 8008 bound_to 7997
  154.4184  140.1750  156.1621 H   0  0  0  0  0  0  0  0  0  0  0  0  # atno 8009 bound_to 7997
  155.9856  140.3350  155.6707 H   0  0  0  0  0  0  0  0  0  0  0  0  # atno 8010 bound_to 7997
  140.0192  144.5554  150.7596 H   0  0  0  0  0  0  0  0  0  0  0  0  # atno 10167 bound_to 10162
  156.9333  130.5834  149.5650 H   0  0  0  0  0  0  0  0  0  0  0  0  # atno 10718 bound_to 10713
  153.0976  135.4829  154.8808 H   0  0  0  0  0  0  0  0  0  0  0  0  # atno 10763 bound_to 10752
  154.7342  135.3067  154.8841 H   0  0  0  0  0  0  0  0  0  0  0  0  # atno 10764 bound_to 10752
  153.9468  135.6828  153.4797 H   0  0  0  0  0  0  0  0  0  0  0  0  # atno 10765 bound_to 10752
  141.0709  133.6679  156.3462 H   0  0  0  0  0  0  0  0  0  0  0  0  # atno 11005 bound_to 11000
  145.2847  141.0149  143.3697 LP  0  0  0  0  0  0  0  0  0  0  0  0  # atno 17320 bound_to 7965
  144.9123  139.4514  143.6581 LP  0  0  0  0  0  0  0  0  0  0  0  0  # atno 17321 bound_to 7965
  140.7350  143.2735  151.3814 LP  0  0  0  0  0  0  0  0  0  0  0  0  # atno 17342 bound_to 10162
  139.6152  144.1018  152.2338 LP  0  0  0  0  0  0  0  0  0  0  0  0  # atno 17343 bound_to 10162
  156.0437  130.5516  150.8831 LP  0  0  0  0  0  0  0  0  0  0  0  0  # atno 17370 bound_to 10713
  157.5832  131.0946  150.9237 LP  0  0  0  0  0  0  0  0  0  0  0  0  # atno 17371 bound_to 10713
  140.5675  134.5873  157.5449 LP  0  0  0  0  0  0  0  0  0  0  0  0  # atno 17394 bound_to 11000
  139.9522  134.7596  156.0421 LP  0  0  0  0  0  0  0  0  0  0  0  0  # atno 17395 bound_to 11000

$$$$
