AV-unprocessed.smi:2931|AV-procd|sdf|11242|dock6
  -GOLD-   2272016133D 1   1.00000     0.00000
 Structure written by MMmdl.
 42 43  0  0  0  0  0  0  0  0  2 V2000
  141.6952  134.3485  153.0197 C   0  0  0  0  0  0  0  0  0  0  0  0
  143.0656  133.8460  152.7829 N   0  3  1  0  0  0  0  0  0  0  0  0
  143.2122  133.2048  151.4524 C   0  0  0  0  0  0  0  0  0  0  0  0
  144.6062  132.5749  151.2964 C   0  0  0  0  0  0  0  0  0  0  0  0
  145.7116  133.6128  151.5351 C   0  0  0  0  0  0  0  0  0  0  0  0
  145.5151  134.2962  152.9008 C   0  0  1  0  0  0  0  0  0  0  0  0
  146.5070  135.3497  153.0919 N   0  0  0  0  0  0  0  0  0  0  0  0
  146.5150  136.2261  154.1055 C   0  0  0  0  0  0  0  0  0  0  0  0
  145.6571  136.2702  154.9868 O   0  0  0  0  0  0  0  0  0  0  0  0
  147.5821  137.0345  154.0535 N   0  0  0  0  0  0  0  0  0  0  0  0
  147.9080  138.0589  155.0417 C   0  0  0  0  0  0  0  0  0  0  0  0
  148.7197  139.2310  154.4525 C   0  0  0  0  0  0  0  0  0  0  0  0
  150.1403  139.3168  154.9851 C   0  0  0  0  0  0  0  0  0  0  0  0
  150.5141  140.3373  155.8845 C   0  0  0  0  0  0  0  0  0  0  0  0
  151.8417  140.3646  156.3557 C   0  0  0  0  0  0  0  0  0  0  0  0
  152.7769  139.4613  155.9909 N   0  0  0  0  0  0  0  0  0  0  0  0
  152.4123  138.4883  155.1285 C   0  0  0  0  0  0  0  0  0  0  0  0
  151.1118  138.3713  154.5978 C   0  0  0  0  0  0  0  0  0  0  0  0
  144.0973  134.8880  153.0124 C   0  0  0  0  0  0  0  0  0  0  0  0
  141.4429  135.1437  152.3172 H   0  0  0  0  0  0  0  0  0  0  0  0
  141.5996  134.7422  154.0321 H   0  0  0  0  0  0  0  0  0  0  0  0
  140.9656  133.5461  152.9057 H   0  0  0  0  0  0  0  0  0  0  0  0
  142.4495  132.4345  151.3314 H   0  0  0  0  0  0  0  0  0  0  0  0
  143.0437  133.9450  150.6685 H   0  0  0  0  0  0  0  0  0  0  0  0
  144.7175  131.7527  152.0045 H   0  0  0  0  0  0  0  0  0  0  0  0
  144.7108  132.1419  150.3010 H   0  0  0  0  0  0  0  0  0  0  0  0
  146.6897  133.1321  151.4861 H   0  0  0  0  0  0  0  0  0  0  0  0
  145.6902  134.3578  150.7381 H   0  0  0  0  0  0  0  0  0  0  0  0
  145.6287  133.5482  153.6883 H   0  0  0  0  0  0  0  0  0  0  0  0
  147.2612  135.3948  152.4223 H   0  0  0  0  0  0  0  0  0  0  0  0
  148.2332  136.9175  153.2908 H   0  0  0  0  0  0  0  0  0  0  0  0
  146.9643  138.4368  155.4358 H   0  0  0  0  0  0  0  0  0  0  0  0
  148.4373  137.6140  155.8853 H   0  0  0  0  0  0  0  0  0  0  0  0
  148.7567  139.1419  153.3665 H   0  0  0  0  0  0  0  0  0  0  0  0
  148.2075  140.1718  154.6571 H   0  0  0  0  0  0  0  0  0  0  0  0
  149.8016  141.0807  156.2110 H   0  0  0  0  0  0  0  0  0  0  0  0
  152.1600  141.1318  157.0458 H   0  0  0  0  0  0  0  0  0  0  0  0
  153.1796  137.7799  154.8540 H   0  0  0  0  0  0  0  0  0  0  0  0
  150.8678  137.5726  153.9128 H   0  0  0  0  0  0  0  0  0  0  0  0
  143.9629  135.6974  152.2927 H   0  0  0  0  0  0  0  0  0  0  0  0
  143.9588  135.3193  154.0051 H   0  0  0  0  0  0  0  0  0  0  0  0
  143.2276  133.1236  153.4702 H   0  0  0  0  0  0  0  0  0  0  0  0
  1  2  1  0  0  0  0
  1 20  1  0  0  0  0
  1 21  1  0  0  0  0
  1 22  1  0  0  0  0
  2 19  1  0  0  0  0
  2  3  1  0  0  0  0
  2 42  1  0  0  0  0
  3  4  1  0  0  0  0
  3 23  1  0  0  0  0
  3 24  1  0  0  0  0
  4  5  1  0  0  0  0
  4 25  1  0  0  0  0
  4 26  1  0  0  0  0
  5  6  1  0  0  0  0
  5 27  1  0  0  0  0
  5 28  1  0  0  0  0
  6  7  1  0  0  0  0
  6 19  1  0  0  0  0
  6 29  1  0  0  0  0
  7  8  1  0  0  0  0
  7 30  1  0  0  0  0
  8  9  2  0  0  0  0
  8 10  1  0  0  0  0
 10 11  1  0  0  0  0
 10 31  1  0  0  0  0
 11 12  1  0  0  0  0
 11 32  1  0  0  0  0
 11 33  1  0  0  0  0
 12 13  1  0  0  0  0
 12 34  1  0  0  0  0
 12 35  1  0  0  0  0
 13 18  1  0  0  0  0
 13 14  2  0  0  0  0
 14 15  1  0  0  0  0
 14 36  1  0  0  0  0
 15 16  2  0  0  0  0
 15 37  1  0  0  0  0
 16 17  1  0  0  0  0
 17 18  2  0  0  0  0
 17 38  1  0  0  0  0
 18 39  1  0  0  0  0
 19 40  1  0  0  0  0
 19 41  1  0  0  0  0
M  CHG  1   2   1
M  END
> <s_m_source_file>
AV-unprocessed.smi

> <i_m_source_file_index>
2931

> <i_lp_mmshare_version>
43012

> <i_f3d_flags>
0

> <s_epik_input>
W0NIM11OMVtDSDJdW0NIMl1bQ0gyXVtDQEhdKFtDSDJdMSlbTkhdQyg9TylbTkhdW0NIMl1bQ0gyXWMyW2NIXVtjSF1uW2NIXVtjSF0y

> <s_epik_cmdline>
J2VwaWtfcHl0aG9uJywgJy1waCcsICc3LjAnLCAnLXRuJywgJzgnLCAnLW1hJywgJzIwMCcsICctbWV0YWxfYmluZGluZycsICctaW1hZScsICc8aW5maWxlLm1hZT4nLCAnLW9tYWUnLCAnPG91dGZpbGUubWFlPic=

> <r_epik_Ionization_Penalty>
0.0573876

> <r_epik_Ionization_Penalty_Charging>
0.00229982

> <r_epik_Ionization_Penalty_Neutral>
0.0550878

> <r_epik_State_Penalty>
0.0473925

> <r_epik_Charging_Adjusted_Penalty>
0.0496923

> <i_epik_Tot_Q>
1

> <i_epik_Tot_abs_Q>
1

> <r_epik_Metal_State_Penalty>
0.0433388

> <b_epik_Metal_Only>
0

> <s_lp_Force_Field>
OPLS_2005

> <r_lp_Energy>
13.6108

> <b_lp_Chiralities_Consistent>
1

> <s_lp_Variant>
AV-unprocessed.smi:2931-1

> <Gold.Version>
5.8.1

> <Gold.Id.Protein>
6NUR|6NUR_protein|mol2

> <Gold.PLP.Fitness>
47.0857

> <Gold.PLP.PLP>
-33.8792

> <Gold.PLP.part.hbond>
-4.0000

> <Gold.PLP.part.metal>
0.0000

> <Gold.PLP.part.buried>
-3.2570

> <Gold.PLP.part.nonpolar>
-25.5844

> <Gold.PLP.part.repulsive>
0.0295

> <Gold.PLP.ligand.clash>
0.0000

> <Gold.PLP.ligand.torsion>
0.7513

> <Gold.PLP.Chemscore.Hbond>
4.8960

> <Gold.PLP.Chemscore.CHOScore>
0.0000

> <Gold.PLP.Chemscore.Metal>
0.0000

> <Gold.Chemscore.Hbonds>
donor molecule, donor type, donor heavy atom, donor atom, acceptor molecule, acceptor atom, score
      L1  H     2    42       P1 10957  2.00
      L1  H     7    30       P1  7948  0.99
      L1  H    10    31       P1  7948  1.00
      P1  H  7997  8008       L1    16  1.00

> <Gold.PLP.Chemscore.Internal.Correction>
0.0211

> <Gold.Rescore>
     Score         DG    S(hbond)    S(metal)    S(lipo)     H(rot)  DE(clash)    DE(int)     intcor
     21.10     -23.21       3.80        0.00      77.28       1.56       0.01       2.11       ----

> <Gold.Chemscore.Fitness>
21.0970

> <Gold.Chemscore.DG>
-23.2122

> <Gold.Chemscore.ZeroCoef>
-5.4800

> <Gold.Chemscore.Hbond>
3.7969

> <Gold.Chemscore.Metal>
0.0000

> <Gold.Chemscore.Lipo>
77.2817

> <Gold.Chemscore.Internal_Hbond>
0.0000

> <Gold.Chemscore.DEClash>
0.0089

> <Gold.Chemscore.DEInternal>
2.1063

> <Gold.Chemscore.Rot>
1.5592

> <Gold.Chemscore.Internal.Correction>
   9.000000E+99

> <Gold.Chemscore.Hbonds>
donor molecule, donor type, donor heavy atom, donor atom, acceptor molecule, acceptor atom, score
      L1  H     2    42       P1 10957  0.89
      L1  H     7    30       P1  7948  0.94
      L1  H    10    31       P1  7948  0.99
      P1  H  7997  8008       L1    16  0.74

> <Gold.Chemscore.Hbond.Weighted>
-12.6817

> <Gold.Chemscore.Metal.Weighted>
-0.0000

> <Gold.Chemscore.Lipo.Weighted>
-9.0420

> <Gold.Chemscore.Internal_Hbond.Weighted>
0.0000

> <Gold.Chemscore.DEClash.Weighted>
0.0089

> <Gold.Chemscore.DEInternal.Weighted>
2.1063

> <Gold.Chemscore.Rot.Weighted>
3.9915

> <Gold.Chemscore.Internal.Correction.Weighted>
   9.000000E+99

> <Gold.Protein.RotatedTorsions>
[ 6907 6896 6895 6894 ] final   39.42 input  -60.11 | X-H torsion
[ 7974 7965 7964 7962 ] final  102.20 input  175.53 | X-H torsion
[ 8008 7997 7996 7995 ] final  -34.36 input   59.86 | X-H torsion
[ 10167 10162 10161 10158 ] final  -22.10 input  -65.29 | X-H torsion
[ 10718 10713 10712 10709 ] final   56.03 input   66.30 | X-H torsion
[ 10763 10752 10751 10750 ] final   41.62 input  -60.55 | X-H torsion
[ 11005 11000 10999 10996 ] final -117.22 input  -57.11 | X-H torsion

> <Gold.Protein.ActiveResidues>
 VAL166  LYS551  ARG553  GLY616  TRP617  ASP618  TYR619  PRO620  LYS621  CYS622 
 ASP623  PHE694  ASN695  SER759  ASP760  ASP761  ALA762  ILE779  LEU786  VAL792 
 PHE793  MET794  SER795  GLU796  ALA797  LYS798  CYS799  TRP800  GLU811  SER814 

> <Gold.Protein.RotatedAtoms>
  152.1694  134.8847  160.0535 H   0  0  0  0  0  0  0  0  0  0  0  0  # atno 6907 bound_to 6896
  151.9813  133.3753  159.4116 H   0  0  0  0  0  0  0  0  0  0  0  0  # atno 6908 bound_to 6896
  150.6899  134.3959  159.5141 H   0  0  0  0  0  0  0  0  0  0  0  0  # atno 6909 bound_to 6896
  145.3622  139.2415  143.3500 H   0  0  0  0  0  0  0  0  0  0  0  0  # atno 7974 bound_to 7965
  154.4123  140.1686  156.2037 H   0  0  0  0  0  0  0  0  0  0  0  0  # atno 8008 bound_to 7997
  155.9502  140.3401  155.6378 H   0  0  0  0  0  0  0  0  0  0  0  0  # atno 8009 bound_to 7997
  155.6879  140.0730  157.2450 H   0  0  0  0  0  0  0  0  0  0  0  0  # atno 8010 bound_to 7997
  140.7285  143.4566  151.0440 H   0  0  0  0  0  0  0  0  0  0  0  0  # atno 10167 bound_to 10162
  157.5396  130.8687  149.8802 H   0  0  0  0  0  0  0  0  0  0  0  0  # atno 10718 bound_to 10713
  152.9903  135.6156  154.2817 H   0  0  0  0  0  0  0  0  0  0  0  0  # atno 10763 bound_to 10752
  154.2546  135.2784  155.2804 H   0  0  0  0  0  0  0  0  0  0  0  0  # atno 10764 bound_to 10752
  154.5258  135.5802  153.6776 H   0  0  0  0  0  0  0  0  0  0  0  0  # atno 10765 bound_to 10752
  141.0369  133.9895  157.3056 H   0  0  0  0  0  0  0  0  0  0  0  0  # atno 11005 bound_to 11000
  146.2922  140.4258  142.8735 LP  0  0  0  0  0  0  0  0  0  0  0  0  # atno 17320 bound_to 7965
  144.8638  140.7177  143.6090 LP  0  0  0  0  0  0  0  0  0  0  0  0  # atno 17321 bound_to 7965
  139.8247  143.7772  152.3178 LP  0  0  0  0  0  0  0  0  0  0  0  0  # atno 17342 bound_to 10162
  139.7867  144.7425  151.0012 LP  0  0  0  0  0  0  0  0  0  0  0  0  # atno 17343 bound_to 10162
  156.0486  130.3722  150.1257 LP  0  0  0  0  0  0  0  0  0  0  0  0  # atno 17370 bound_to 10713
  156.9437  130.9753  151.3511 LP  0  0  0  0  0  0  0  0  0  0  0  0  # atno 17371 bound_to 10713
  139.9247  135.0201  156.8192 LP  0  0  0  0  0  0  0  0  0  0  0  0  # atno 17394 bound_to 11000
  140.6305  133.9910  155.7660 LP  0  0  0  0  0  0  0  0  0  0  0  0  # atno 17395 bound_to 11000

$$$$
