AV-unprocessed.smi:156|AV-procd|sdf|1289|dock3
  -GOLD-   2262018573D 1   1.00000     0.00000
 Structure written by MMmdl.
 51 53  0  0  0  0  0  0  0  0  1 V2000
  146.1546  140.7855  154.9165 C   0  0  0  0  0  0  0  0  0  0  0  0
  147.2426  139.7377  155.2283 C   0  0  2  0  0  0  0  0  0  0  0  0
  148.6046  140.0272  154.5328 C   0  0  1  0  0  0  0  0  0  0  0  0
  148.8749  141.5330  154.3511 C   0  0  0  0  0  0  0  0  0  0  0  0
  150.0475  139.2493  155.4303 S   0  0  0  0  0  0  0  0  0  0  0  0
  150.0479  140.1042  157.0631 C   0  0  0  0  0  0  0  0  0  0  0  0
  149.7681  137.8259  155.6720 O   0  0  0  0  0  0  0  0  0  0  0  0
  151.2868  139.6301  154.7354 O   0  0  0  0  0  0  0  0  0  0  0  0
  146.7461  138.3892  154.9246 N   0  0  0  0  0  0  0  0  0  0  0  0
  146.6876  137.3618  155.9608 C   0  0  0  0  0  0  0  0  0  0  0  0
  146.5612  137.9981  153.6351 C   0  0  0  0  0  0  0  0  0  0  0  0
  147.0668  138.7629  152.6309 N   0  0  0  0  0  0  0  0  0  0  0  0
  146.9014  138.4056  151.3547 C   0  0  0  0  0  0  0  0  0  0  0  0
  146.2647  137.3425  150.8630 N   0  0  0  0  0  0  0  0  0  0  0  0
  145.7434  136.5731  151.8610 C   0  0  0  0  0  0  0  0  0  0  0  0
  145.8528  136.8187  153.2601 C   0  0  0  0  0  0  0  0  0  0  0  0
  145.1997  135.8123  153.9623 N   0  0  0  0  0  0  0  0  0  0  0  0
  144.7361  135.0202  153.0356 C   0  0  0  0  0  0  0  0  0  0  0  0
  144.9984  135.4117  151.7422 N   0  0  0  0  0  0  0  0  0  0  0  0
  144.5978  134.7262  150.5205 C   0  0  0  0  0  0  0  0  0  0  0  0
  144.8419  133.1967  150.5201 C   0  0  0  0  0  0  0  0  0  0  0  0
  146.1896  132.9281  151.2042 C   0  0  0  0  0  0  0  0  0  0  0  0
  146.4220  131.5424  151.3584 O   0  0  0  0  0  0  0  0  0  0  0  0
  143.6742  132.3273  151.0170 C   0  0  0  0  0  0  0  0  0  0  0  0
  143.2956  131.9705  149.6712 O   0  0  0  0  0  0  0  0  0  0  0  0
  144.5831  132.4315  149.2102 C   0  0  0  0  0  0  0  0  0  0  0  0
  146.4107  141.7632  155.3237 H   0  0  0  0  0  0  0  0  0  0  0  0
  145.2005  140.5020  155.3621 H   0  0  0  0  0  0  0  0  0  0  0  0
  145.9979  140.9027  153.8443 H   0  0  0  0  0  0  0  0  0  0  0  0
  147.4327  139.8136  156.2980 H   0  0  0  0  0  0  0  0  0  0  0  0
  148.5984  139.5798  153.5386 H   0  0  0  0  0  0  0  0  0  0  0  0
  148.1403  141.9969  153.6938 H   0  0  0  0  0  0  0  0  0  0  0  0
  149.8486  141.7103  153.8948 H   0  0  0  0  0  0  0  0  0  0  0  0
  148.8524  142.0622  155.3035 H   0  0  0  0  0  0  0  0  0  0  0  0
  150.9176  139.7794  157.6335 H   0  0  0  0  0  0  0  0  0  0  0  0
  149.1490  139.8455  157.6213 H   0  0  0  0  0  0  0  0  0  0  0  0
  150.0972  141.1828  156.9208 H   0  0  0  0  0  0  0  0  0  0  0  0
  147.0969  136.4174  155.6005 H   0  0  0  0  0  0  0  0  0  0  0  0
  145.6574  137.1941  156.2744 H   0  0  0  0  0  0  0  0  0  0  0  0
  147.2569  137.6520  156.8430 H   0  0  0  0  0  0  0  0  0  0  0  0
  147.3400  139.0676  150.6228 H   0  0  0  0  0  0  0  0  0  0  0  0
  144.1813  134.1252  153.2753 H   0  0  0  0  0  0  0  0  0  0  0  0
  143.5441  134.9506  150.3527 H   0  0  0  0  0  0  0  0  0  0  0  0
  145.1325  135.1919  149.6917 H   0  0  0  0  0  0  0  0  0  0  0  0
  147.0125  133.3653  150.6377 H   0  0  0  0  0  0  0  0  0  0  0  0
  146.2204  133.3820  152.1954 H   0  0  0  0  0  0  0  0  0  0  0  0
  147.1180  131.2865  150.7723 H   0  0  0  0  0  0  0  0  0  0  0  0
  143.9850  131.4521  151.5903 H   0  0  0  0  0  0  0  0  0  0  0  0
  142.8944  132.8695  151.5499 H   0  0  0  0  0  0  0  0  0  0  0  0
  144.5191  133.0530  148.3188 H   0  0  0  0  0  0  0  0  0  0  0  0
  145.2707  131.6003  149.0442 H   0  0  0  0  0  0  0  0  0  0  0  0
  1  2  1  0  0  0  0
  1 27  1  0  0  0  0
  1 28  1  0  0  0  0
  1 29  1  0  0  0  0
  2  3  1  0  0  0  0
  2  9  1  0  0  0  0
  2 30  1  0  0  0  0
  3  4  1  0  0  0  0
  3  5  1  0  0  0  0
  3 31  1  0  0  0  0
  4 32  1  0  0  0  0
  4 33  1  0  0  0  0
  4 34  1  0  0  0  0
  5  6  1  0  0  0  0
  5  7  2  0  0  0  0
  5  8  2  0  0  0  0
  6 35  1  0  0  0  0
  6 36  1  0  0  0  0
  6 37  1  0  0  0  0
  9 10  1  0  0  0  0
  9 11  1  0  0  0  0
 10 38  1  0  0  0  0
 10 39  1  0  0  0  0
 10 40  1  0  0  0  0
 11 16  1  0  0  0  0
 11 12  2  0  0  0  0
 12 13  1  0  0  0  0
 13 14  2  0  0  0  0
 13 41  1  0  0  0  0
 14 15  1  0  0  0  0
 15 19  1  0  0  0  0
 15 16  2  0  0  0  0
 16 17  1  0  0  0  0
 17 18  2  0  0  0  0
 18 19  1  0  0  0  0
 18 42  1  0  0  0  0
 19 20  1  0  0  0  0
 20 21  1  0  0  0  0
 20 43  1  0  0  0  0
 20 44  1  0  0  0  0
 21 26  1  0  0  0  0
 21 22  1  0  0  0  0
 21 24  1  0  0  0  0
 22 23  1  0  0  0  0
 22 45  1  0  0  0  0
 22 46  1  0  0  0  0
 23 47  1  0  0  0  0
 24 25  1  0  0  0  0
 24 48  1  0  0  0  0
 24 49  1  0  0  0  0
 25 26  1  0  0  0  0
 26 50  1  0  0  0  0
 26 51  1  0  0  0  0
M  END
> <s_m_source_file>
AV-unprocessed.smi

> <i_m_source_file_index>
156

> <i_lp_mmshare_version>
43012

> <i_f3d_flags>
0

> <s_epik_input>
W0NIM11TKD1PKSg9TylbQ0BASF0oW0NIM10pW0NAQEhdKFtDSDNdKU4oW0NIM10pYyhuW2NIXW4xKWMoYzEyKW5bY0hdbjJbQ0gyXUMzKFtDSDJdW09IXSlbQ0gyXU9bQ0gyXTM=

> <s_epik_cmdline>
J2VwaWtfcHl0aG9uJywgJy1waCcsICc3LjAnLCAnLXRuJywgJzgnLCAnLW1hJywgJzIwMCcsICctbWV0YWxfYmluZGluZycsICctaW1hZScsICc8aW5maWxlLm1hZT4nLCAnLW9tYWUnLCAnPG91dGZpbGUubWFlPic=

> <r_lp_tautomer_probability>
1

> <r_epik_Ionization_Penalty>
0.00107697

> <r_epik_Ionization_Penalty_Charging>
0

> <r_epik_Ionization_Penalty_Neutral>
0.00107697

> <r_epik_State_Penalty>
0.000614712

> <r_epik_Charging_Adjusted_Penalty>
0.000614712

> <i_epik_Tot_Q>
0

> <i_epik_Tot_abs_Q>
0

> <r_epik_Metal_State_Penalty>
-0

> <b_epik_Metal_Only>
0

> <s_lp_Force_Field>
OPLS_2005

> <r_lp_Energy>
28.6083

> <b_lp_Chiralities_Consistent>
1

> <s_lp_Variant>
AV-unprocessed.smi:156-3

> <Gold.Version>
5.8.1

> <Gold.Id.Protein>
6NUR|6NUR_protein|mol2

> <Gold.PLP.Fitness>
42.8923

> <Gold.PLP.PLP>
-33.7579

> <Gold.PLP.part.hbond>
-3.4985

> <Gold.PLP.part.metal>
0.0000

> <Gold.PLP.part.buried>
-3.7912

> <Gold.PLP.part.nonpolar>
-29.6640

> <Gold.PLP.part.repulsive>
3.1895

> <Gold.PLP.ligand.clash>
0.0000

> <Gold.PLP.ligand.torsion>
1.4199

> <Gold.PLP.Chemscore.Hbond>
3.0000

> <Gold.PLP.Chemscore.CHOScore>
0.6499

> <Gold.PLP.Chemscore.Metal>
0.0000

> <Gold.Chemscore.Hbonds>
donor molecule, donor type, donor heavy atom, donor atom, acceptor molecule, acceptor atom, score
      L1  H    23    47       P1 10747  1.00
      P1  H  7989  7998       L1     8  1.00
      P1  H 10785 10796       L1    25  0.94
      L1  C    13    41       P1  7957  0.73

> <Gold.PLP.Chemscore.Internal.Correction>
1.0244

> <Gold.Rescore>
     Score         DG    S(hbond)    S(metal)    S(lipo)     H(rot)  DE(clash)    DE(int)     intcor
      8.23     -13.97       2.69        0.00      66.01       3.21       1.58       4.16       ----

> <Gold.Chemscore.Fitness>
8.2318

> <Gold.Chemscore.DG>
-13.9718

> <Gold.Chemscore.ZeroCoef>
-5.4800

> <Gold.Chemscore.Hbond>
2.6915

> <Gold.Chemscore.Metal>
0.0000

> <Gold.Chemscore.Lipo>
66.0132

> <Gold.Chemscore.Internal_Hbond>
0.0000

> <Gold.Chemscore.DEClash>
1.5766

> <Gold.Chemscore.DEInternal>
4.1634

> <Gold.Chemscore.Rot>
3.2115

> <Gold.Chemscore.Internal.Correction>
   9.000000E+99

> <Gold.Chemscore.Hbonds>
donor molecule, donor type, donor heavy atom, donor atom, acceptor molecule, acceptor atom, score
      L1  H    23    47       P1 10747  0.97
      P1  H  7989  7998       L1     8  1.00
      P1  H 10785 10796       L1    25  0.23

> <Gold.Chemscore.Hbond.Weighted>
-8.9897

> <Gold.Chemscore.Metal.Weighted>
-0.0000

> <Gold.Chemscore.Lipo.Weighted>
-7.7235

> <Gold.Chemscore.Internal_Hbond.Weighted>
0.0000

> <Gold.Chemscore.DEClash.Weighted>
1.5766

> <Gold.Chemscore.DEInternal.Weighted>
4.1634

> <Gold.Chemscore.Rot.Weighted>
8.2215

> <Gold.Chemscore.Internal.Correction.Weighted>
   9.000000E+99

> <Gold.Protein.RotatedTorsions>
[ 6907 6896 6895 6894 ] final  -43.71 input  -60.11 | X-H torsion
[ 7974 7965 7964 7962 ] final  117.52 input  175.53 | X-H torsion
[ 8008 7997 7996 7995 ] final  -50.03 input   59.86 | X-H torsion
[ 10167 10162 10161 10158 ] final    7.32 input  -65.29 | X-H torsion
[ 10718 10713 10712 10709 ] final -104.35 input   66.30 | X-H torsion
[ 10763 10752 10751 10750 ] final -169.90 input  -60.55 | X-H torsion
[ 11005 11000 10999 10996 ] final  166.65 input  -57.11 | X-H torsion

> <Gold.Protein.ActiveResidues>
 VAL166  LYS551  ARG553  GLY616  TRP617  ASP618  TYR619  PRO620  LYS621  CYS622 
 ASP623  PHE694  ASN695  SER759  ASP760  ASP761  ALA762  ILE779  LEU786  VAL792 
 PHE793  MET794  SER795  GLU796  ALA797  LYS798  CYS799  TRP800  GLU811  SER814 

> <Gold.Protein.RotatedAtoms>
  150.9409  134.8818  159.7611 H   0  0  0  0  0  0  0  0  0  0  0  0  # atno 6907 bound_to 6896
  152.5079  134.3943  159.9405 H   0  0  0  0  0  0  0  0  0  0  0  0  # atno 6908 bound_to 6896
  151.3964  133.3732  159.2762 H   0  0  0  0  0  0  0  0  0  0  0  0  # atno 6909 bound_to 6896
  145.1663  139.3126  143.4491 H   0  0  0  0  0  0  0  0  0  0  0  0  # atno 7974 bound_to 7965
  154.4054  140.1282  156.4600 H   0  0  0  0  0  0  0  0  0  0  0  0  # atno 8008 bound_to 7997
  155.7283  140.3492  155.5027 H   0  0  0  0  0  0  0  0  0  0  0  0  # atno 8009 bound_to 7997
  155.9151  140.1042  157.1240 H   0  0  0  0  0  0  0  0  0  0  0  0  # atno 8010 bound_to 7997
  140.6378  143.7844  150.7385 H   0  0  0  0  0  0  0  0  0  0  0  0  # atno 10167 bound_to 10162
  156.0301  130.5511  150.7383 H   0  0  0  0  0  0  0  0  0  0  0  0  # atno 10718 bound_to 10713
  154.6473  135.2906  155.0031 H   0  0  0  0  0  0  0  0  0  0  0  0  # atno 10763 bound_to 10752
  154.1136  135.6559  153.4893 H   0  0  0  0  0  0  0  0  0  0  0  0  # atno 10764 bound_to 10752
  153.0357  135.5271  154.7365 H   0  0  0  0  0  0  0  0  0  0  0  0  # atno 10765 bound_to 10752
  140.2686  134.7845  157.3655 H   0  0  0  0  0  0  0  0  0  0  0  0  # atno 11005 bound_to 11000
  146.3475  140.1792  142.8589 LP  0  0  0  0  0  0  0  0  0  0  0  0  # atno 17320 bound_to 7965
  145.0279  140.8847  143.5127 LP  0  0  0  0  0  0  0  0  0  0  0  0  # atno 17321 bound_to 7965
  140.1469  143.4391  152.2157 LP  0  0  0  0  0  0  0  0  0  0  0  0  # atno 17342 bound_to 10162
  139.5588  144.7391  151.4215 LP  0  0  0  0  0  0  0  0  0  0  0  0  # atno 17343 bound_to 10162
  157.4959  131.0914  151.0372 LP  0  0  0  0  0  0  0  0  0  0  0  0  # atno 17370 bound_to 10713
  157.0767  130.5886  149.5412 LP  0  0  0  0  0  0  0  0  0  0  0  0  # atno 17371 bound_to 10713
  140.1395  134.4990  155.8042 LP  0  0  0  0  0  0  0  0  0  0  0  0  # atno 17394 bound_to 11000
  141.2180  133.6820  156.7184 LP  0  0  0  0  0  0  0  0  0  0  0  0  # atno 17395 bound_to 11000

$$$$
