AV-unprocessed.smi:2009|AV-procd|sdf|8145|dock4
  -GOLD-   2272010383D 1   1.00000     0.00000
 Structure written by MMmdl.
 38 39  0  0  0  0  0  0  0  0  1 V2000
  152.5424  140.3941  159.3076 C   0  0  0  0  0  0  0  0  0  0  0  0
  152.1833  140.7091  157.8474 C   0  0  2  0  0  0  0  0  0  0  0  0
  151.1729  141.8697  157.6997 C   0  0  0  0  0  0  0  0  0  0  0  0
  151.6448  143.1283  158.2543 N   0  0  0  0  0  0  0  0  0  0  0  0
  151.6288  144.3783  157.6711 C   0  0  0  0  0  0  0  0  0  0  0  0
  152.1755  145.2524  158.5661 C   0  0  0  0  0  0  0  0  0  0  0  0
  152.5054  144.4316  159.6805 C   0  0  0  0  0  0  0  0  0  0  0  0
  152.1895  143.1607  159.4904 N   0  0  0  0  0  0  0  0  0  0  0  0
  151.6807  139.4902  157.2063 N   0  0  0  0  0  0  0  0  0  0  0  0
  151.6007  139.3793  155.4866 S   0  0  0  0  0  0  0  0  0  0  0  0
  150.7705  140.4802  154.9745 O   0  0  0  0  0  0  0  0  0  0  0  0
  152.9659  139.1645  154.9831 O   0  0  0  0  0  0  0  0  0  0  0  0
  150.7049  137.9036  155.3418 N   0  0  0  0  0  0  0  0  0  0  0  0
  149.2442  137.9927  155.5386 C   0  0  0  0  0  0  0  0  0  0  0  0
  148.5271  136.7293  155.0345 C   0  0  0  0  0  0  0  0  0  0  0  0
  149.1052  135.4674  155.6802 C   0  0  0  0  0  0  0  0  0  0  0  0
  150.6117  135.4108  155.4135 C   0  0  0  0  0  0  0  0  0  0  0  0
  151.3144  136.6833  155.9142 C   0  0  0  0  0  0  0  0  0  0  0  0
  152.9106  141.2835  159.8192 H   0  0  0  0  0  0  0  0  0  0  0  0
  153.3238  139.6356  159.3633 H   0  0  0  0  0  0  0  0  0  0  0  0
  151.6823  140.0215  159.8646 H   0  0  0  0  0  0  0  0  0  0  0  0
  153.1041  140.9984  157.3396 H   0  0  0  0  0  0  0  0  0  0  0  0
  150.9416  142.0214  156.6442 H   0  0  0  0  0  0  0  0  0  0  0  0
  150.2250  141.6200  158.1759 H   0  0  0  0  0  0  0  0  0  0  0  0
  151.2309  144.5385  156.6796 H   0  0  0  0  0  0  0  0  0  0  0  0
  152.3193  146.3155  158.4432 H   0  0  0  0  0  0  0  0  0  0  0  0
  152.9631  144.7193  160.6155 H   0  0  0  0  0  0  0  0  0  0  0  0
  152.0219  138.6326  157.6398 H   0  0  0  0  0  0  0  0  0  0  0  0
  149.0391  138.1497  156.5984 H   0  0  0  0  0  0  0  0  0  0  0  0
  148.8550  138.8624  155.0092 H   0  0  0  0  0  0  0  0  0  0  0  0
  147.4596  136.7995  155.2454 H   0  0  0  0  0  0  0  0  0  0  0  0
  148.6237  136.6633  153.9500 H   0  0  0  0  0  0  0  0  0  0  0  0
  148.9160  135.4764  156.7543 H   0  0  0  0  0  0  0  0  0  0  0  0
  148.6160  134.5792  155.2796 H   0  0  0  0  0  0  0  0  0  0  0  0
  151.0426  134.5343  155.8983 H   0  0  0  0  0  0  0  0  0  0  0  0
  150.7912  135.2917  154.3441 H   0  0  0  0  0  0  0  0  0  0  0  0
  152.3716  136.6352  155.6547 H   0  0  0  0  0  0  0  0  0  0  0  0
  151.2623  136.7398  157.0023 H   0  0  0  0  0  0  0  0  0  0  0  0
  1  2  1  0  0  0  0
  1 19  1  0  0  0  0
  1 20  1  0  0  0  0
  1 21  1  0  0  0  0
  2  3  1  0  0  0  0
  2  9  1  0  0  0  0
  2 22  1  0  0  0  0
  3  4  1  0  0  0  0
  3 23  1  0  0  0  0
  3 24  1  0  0  0  0
  4  8  1  0  0  0  0
  4  5  1  0  0  0  0
  5  6  2  0  0  0  0
  5 25  1  0  0  0  0
  6  7  1  0  0  0  0
  6 26  1  0  0  0  0
  7  8  2  0  0  0  0
  7 27  1  0  0  0  0
  9 10  1  0  0  0  0
  9 28  1  0  0  0  0
 10 11  2  0  0  0  0
 10 12  2  0  0  0  0
 10 13  1  0  0  0  0
 13 18  1  0  0  0  0
 13 14  1  0  0  0  0
 14 15  1  0  0  0  0
 14 29  1  0  0  0  0
 14 30  1  0  0  0  0
 15 16  1  0  0  0  0
 15 31  1  0  0  0  0
 15 32  1  0  0  0  0
 16 17  1  0  0  0  0
 16 33  1  0  0  0  0
 16 34  1  0  0  0  0
 17 18  1  0  0  0  0
 17 35  1  0  0  0  0
 17 36  1  0  0  0  0
 18 37  1  0  0  0  0
 18 38  1  0  0  0  0
M  END
> <s_m_source_file>
AV-unprocessed.smi

> <i_m_source_file_index>
2009

> <i_lp_mmshare_version>
43012

> <i_f3d_flags>
0

> <s_epik_input>
bjFbY0hdW2NIXVtjSF1uMVtDSDJdW0NAQEhdKFtDSDNdKVtOSF1TKD1PKSg9TylOMltDSDJdW0NIMl1bQ0gyXVtDSDJdW0NIMl0y

> <s_epik_cmdline>
J2VwaWtfcHl0aG9uJywgJy1waCcsICc3LjAnLCAnLXRuJywgJzgnLCAnLW1hJywgJzIwMCcsICctbWV0YWxfYmluZGluZycsICctaW1hZScsICc8aW5maWxlLm1hZT4nLCAnLW9tYWUnLCAnPG91dGZpbGUubWFlPic=

> <r_lp_tautomer_probability>
1

> <r_epik_Ionization_Penalty>
0.0313937

> <r_epik_Ionization_Penalty_Charging>
0

> <r_epik_Ionization_Penalty_Neutral>
0.0313937

> <r_epik_State_Penalty>
0.0259441

> <r_epik_Charging_Adjusted_Penalty>
0.0259441

> <i_epik_Tot_Q>
0

> <i_epik_Tot_abs_Q>
0

> <r_epik_Metal_State_Penalty>
0.365037

> <b_epik_Metal_Only>
0

> <s_lp_Force_Field>
OPLS_2005

> <r_lp_Energy>
7.7354

> <b_lp_Chiralities_Consistent>
1

> <s_lp_Variant>
AV-unprocessed.smi:2009-1

> <Gold.Version>
5.8.1

> <Gold.Id.Protein>
6NUR|6NUR_protein|mol2

> <Gold.PLP.Fitness>
41.0355

> <Gold.PLP.PLP>
-32.8840

> <Gold.PLP.part.hbond>
-2.1750

> <Gold.PLP.part.metal>
0.0000

> <Gold.PLP.part.buried>
-5.0513

> <Gold.PLP.part.nonpolar>
-24.5375

> <Gold.PLP.part.repulsive>
0.1533

> <Gold.PLP.ligand.clash>
0.0000

> <Gold.PLP.ligand.torsion>
0.8020

> <Gold.PLP.Chemscore.Hbond>
2.0000

> <Gold.PLP.Chemscore.CHOScore>
0.9913

> <Gold.PLP.Chemscore.Metal>
0.0000

> <Gold.Chemscore.Hbonds>
donor molecule, donor type, donor heavy atom, donor atom, acceptor molecule, acceptor atom, score
      P1  H  7989  7998       L1    11  1.00
      P1  H  7997  8008       L1    12  0.93
      L1  C     5    25       P1  8028  1.00

> <Gold.PLP.Chemscore.Internal.Correction>
0.7818

> <Gold.Rescore>
     Score         DG    S(hbond)    S(metal)    S(lipo)     H(rot)  DE(clash)    DE(int)     intcor
     14.05     -16.28       1.90        0.00      77.85       1.82       0.02       2.21       ----

> <Gold.Chemscore.Fitness>
14.0524

> <Gold.Chemscore.DG>
-16.2818

> <Gold.Chemscore.ZeroCoef>
-5.4800

> <Gold.Chemscore.Hbond>
1.9046

> <Gold.Chemscore.Metal>
0.0000

> <Gold.Chemscore.Lipo>
77.8543

> <Gold.Chemscore.Internal_Hbond>
0.0000

> <Gold.Chemscore.DEClash>
0.0222

> <Gold.Chemscore.DEInternal>
2.2072

> <Gold.Chemscore.Rot>
1.8237

> <Gold.Chemscore.Internal.Correction>
   9.000000E+99

> <Gold.Chemscore.Hbonds>
donor molecule, donor type, donor heavy atom, donor atom, acceptor molecule, acceptor atom, score
      P1  H  7989  7998       L1    11  0.29
      P1  H  7997  8008       L1    12  0.72

> <Gold.Chemscore.Hbond.Weighted>
-6.3614

> <Gold.Chemscore.Metal.Weighted>
-0.0000

> <Gold.Chemscore.Lipo.Weighted>
-9.1090

> <Gold.Chemscore.Internal_Hbond.Weighted>
0.0000

> <Gold.Chemscore.DEClash.Weighted>
0.0222

> <Gold.Chemscore.DEInternal.Weighted>
2.2072

> <Gold.Chemscore.Rot.Weighted>
4.6686

> <Gold.Chemscore.Internal.Correction.Weighted>
   9.000000E+99

> <Gold.Protein.RotatedTorsions>
[ 6907 6896 6895 6894 ] final -154.03 input  -60.11 | X-H torsion
[ 7974 7965 7964 7962 ] final   19.24 input  175.53 | X-H torsion
[ 8008 7997 7996 7995 ] final  -31.69 input   59.86 | X-H torsion
[ 10167 10162 10161 10158 ] final    3.57 input  -65.29 | X-H torsion
[ 10718 10713 10712 10709 ] final -110.33 input   66.30 | X-H torsion
[ 10763 10752 10751 10750 ] final   45.00 input  -60.55 | X-H torsion
[ 11005 11000 10999 10996 ] final   33.11 input  -57.11 | X-H torsion

> <Gold.Protein.ActiveResidues>
 VAL166  LYS551  ARG553  GLY616  TRP617  ASP618  TYR619  PRO620  LYS621  CYS622 
 ASP623  PHE694  ASN695  SER759  ASP760  ASP761  ALA762  ILE779  LEU786  VAL792 
 PHE793  MET794  SER795  GLU796  ALA797  LYS798  CYS799  TRP800  GLU811  SER814 

> <Gold.Protein.RotatedAtoms>
  151.2514  133.4348  159.2611 H   0  0  0  0  0  0  0  0  0  0  0  0  # atno 6907 bound_to 6896
  151.0614  134.9739  159.8272 H   0  0  0  0  0  0  0  0  0  0  0  0  # atno 6908 bound_to 6896
  152.5399  134.2464  159.8934 H   0  0  0  0  0  0  0  0  0  0  0  0  # atno 6909 bound_to 6896
  146.2156  139.8341  142.8654 H   0  0  0  0  0  0  0  0  0  0  0  0  # atno 7974 bound_to 7965
  154.4205  140.1757  156.1607 H   0  0  0  0  0  0  0  0  0  0  0  0  # atno 8008 bound_to 7997
  155.9840  140.3375  155.6665 H   0  0  0  0  0  0  0  0  0  0  0  0  # atno 8009 bound_to 7997
  155.6462  140.0685  157.2593 H   0  0  0  0  0  0  0  0  0  0  0  0  # atno 8010 bound_to 7997
  140.6579  143.7380  150.7686 H   0  0  0  0  0  0  0  0  0  0  0  0  # atno 10167 bound_to 10162
  156.0585  130.5809  150.8222 H   0  0  0  0  0  0  0  0  0  0  0  0  # atno 10718 bound_to 10713
  152.9831  135.6053  154.3366 H   0  0  0  0  0  0  0  0  0  0  0  0  # atno 10763 bound_to 10752
  154.3065  135.2772  155.2588 H   0  0  0  0  0  0  0  0  0  0  0  0  # atno 10764 bound_to 10752
  154.4816  135.5915  153.6450 H   0  0  0  0  0  0  0  0  0  0  0  0  # atno 10765 bound_to 10752
  140.2665  134.3131  155.7841 H   0  0  0  0  0  0  0  0  0  0  0  0  # atno 11005 bound_to 11000
  145.2966  141.0182  143.3632 LP  0  0  0  0  0  0  0  0  0  0  0  0  # atno 17320 bound_to 7965
  144.9037  139.4617  143.6620 LP  0  0  0  0  0  0  0  0  0  0  0  0  # atno 17321 bound_to 7965
  140.1043  143.4758  152.2407 LP  0  0  0  0  0  0  0  0  0  0  0  0  # atno 17342 bound_to 10162
  139.5805  144.7508  151.3651 LP  0  0  0  0  0  0  0  0  0  0  0  0  # atno 17343 bound_to 10162
  157.5574  131.0945  150.9608 LP  0  0  0  0  0  0  0  0  0  0  0  0  # atno 17370 bound_to 10713
  156.9854  130.5543  149.5299 LP  0  0  0  0  0  0  0  0  0  0  0  0  # atno 17371 bound_to 10713
  141.2183  133.7441  156.9269 LP  0  0  0  0  0  0  0  0  0  0  0  0  # atno 17394 bound_to 11000
  140.1414  134.9291  157.2471 LP  0  0  0  0  0  0  0  0  0  0  0  0  # atno 17395 bound_to 11000

$$$$
