AV-unprocessed.smi:1599|AV-procd|sdf|6426|dock1
  -GOLD-   22720 7 63D 1   1.00000     0.00000
 Structure written by MMmdl.
 39 40  0  0  0  0  0  0  0  0  1 V2000
  147.8261  140.4490  153.6446 C   0  0  0  0  0  0  0  0  0  0  0  0
  147.9646  139.1829  154.5077 C   0  0  1  0  0  0  0  0  0  0  0  0
  147.7723  137.9985  153.6747 N   0  0  0  0  0  0  0  0  0  0  0  0
  146.5960  137.5733  153.1920 C   0  0  0  0  0  0  0  0  0  0  0  0
  145.5293  138.1579  153.3825 O   0  0  0  0  0  0  0  0  0  0  0  0
  146.7398  136.4415  152.4832 N   0  0  0  0  0  0  0  0  0  0  0  0
  145.7209  135.6973  151.8365 C   0  0  0  0  0  0  0  0  0  0  0  0
  144.5177  136.2472  151.3232 C   0  0  0  0  0  0  0  0  0  0  0  0
  143.7598  135.3114  150.7717 N   0  0  0  0  0  0  0  0  0  0  0  0
  144.4578  134.1579  150.9236 N   0  0  0  0  0  0  0  0  0  0  0  0
  143.9061  132.9097  150.4208 C   0  0  0  0  0  0  0  0  0  0  0  0
  143.8891  132.8371  148.8883 C   0  0  0  0  0  0  0  0  0  0  0  0
  142.8131  133.3456  148.2827 N   0  0  0  0  0  0  0  0  0  0  0  0
  144.8166  132.3358  148.2540 O   0  0  0  0  0  0  0  0  0  0  0  0
  145.6625  134.3587  151.5693 C   0  0  0  0  0  0  0  0  0  0  0  0
  149.3377  139.0940  155.2002 C   0  0  1  0  0  0  0  0  0  0  0  0
  150.4921  138.6793  154.2861 C   0  0  0  0  0  0  0  0  0  0  0  0
  151.7173  139.2913  154.9488 C   0  0  0  0  0  0  0  0  0  0  0  0
  151.1396  140.2867  155.9583 C   0  0  0  0  0  0  0  0  0  0  0  0
  149.7590  140.3768  155.6390 O   0  0  0  0  0  0  0  0  0  0  0  0
  147.9220  141.3524  154.2469 H   0  0  0  0  0  0  0  0  0  0  0  0
  146.8519  140.4895  153.1563 H   0  0  0  0  0  0  0  0  0  0  0  0
  148.5895  140.4847  152.8667 H   0  0  0  0  0  0  0  0  0  0  0  0
  147.1955  139.2038  155.2819 H   0  0  0  0  0  0  0  0  0  0  0  0
  148.5957  137.4516  153.4703 H   0  0  0  0  0  0  0  0  0  0  0  0
  147.6751  136.0704  152.4026 H   0  0  0  0  0  0  0  0  0  0  0  0
  144.1762  137.2717  151.3304 H   0  0  0  0  0  0  0  0  0  0  0  0
  144.4843  132.0737  150.8173 H   0  0  0  0  0  0  0  0  0  0  0  0
  142.8892  132.8066  150.8017 H   0  0  0  0  0  0  0  0  0  0  0  0
  142.7444  133.3285  147.2755 H   0  0  0  0  0  0  0  0  0  0  0  0
  142.0705  133.7479  148.8364 H   0  0  0  0  0  0  0  0  0  0  0  0
  146.3452  133.5471  151.7723 H   0  0  0  0  0  0  0  0  0  0  0  0
  149.2890  138.4258  156.0626 H   0  0  0  0  0  0  0  0  0  0  0  0
  150.5702  137.5978  154.1723 H   0  0  0  0  0  0  0  0  0  0  0  0
  150.3625  139.1125  153.2935 H   0  0  0  0  0  0  0  0  0  0  0  0
  152.3203  138.5366  155.4548 H   0  0  0  0  0  0  0  0  0  0  0  0
  152.3490  139.7873  154.2112 H   0  0  0  0  0  0  0  0  0  0  0  0
  151.2481  139.9084  156.9758 H   0  0  0  0  0  0  0  0  0  0  0  0
  151.6196  141.2640  155.9054 H   0  0  0  0  0  0  0  0  0  0  0  0
  1  2  1  0  0  0  0
  1 21  1  0  0  0  0
  1 22  1  0  0  0  0
  1 23  1  0  0  0  0
  2  3  1  0  0  0  0
  2 16  1  0  0  0  0
  2 24  1  0  0  0  0
  3  4  1  0  0  0  0
  3 25  1  0  0  0  0
  4  5  2  0  0  0  0
  4  6  1  0  0  0  0
  6  7  1  0  0  0  0
  6 26  1  0  0  0  0
  7 15  2  0  0  0  0
  7  8  1  0  0  0  0
  8  9  2  0  0  0  0
  8 27  1  0  0  0  0
  9 10  1  0  0  0  0
 10 11  1  0  0  0  0
 10 15  1  0  0  0  0
 11 12  1  0  0  0  0
 11 28  1  0  0  0  0
 11 29  1  0  0  0  0
 12 13  1  0  0  0  0
 12 14  2  0  0  0  0
 13 30  1  0  0  0  0
 13 31  1  0  0  0  0
 15 32  1  0  0  0  0
 16 20  1  0  0  0  0
 16 17  1  0  0  0  0
 16 33  1  0  0  0  0
 17 18  1  0  0  0  0
 17 34  1  0  0  0  0
 17 35  1  0  0  0  0
 18 19  1  0  0  0  0
 18 36  1  0  0  0  0
 18 37  1  0  0  0  0
 19 20  1  0  0  0  0
 19 38  1  0  0  0  0
 19 39  1  0  0  0  0
M  END
> <s_m_source_file>
AV-unprocessed.smi

> <i_m_source_file_index>
1599

> <i_lp_mmshare_version>
43012

> <i_f3d_flags>
0

> <s_epik_input>
TzFbQ0gyXVtDSDJdW0NIMl1bQ0BIXTFbQ0BIXShbQ0gzXSlbTkhdQyg9TylbTkhdYzJbY0hdbm4oW2NIXTIpW0NIMl1DKD1PKVtOSDJd

> <s_epik_cmdline>
J2VwaWtfcHl0aG9uJywgJy1waCcsICc3LjAnLCAnLXRuJywgJzgnLCAnLW1hJywgJzIwMCcsICctbWV0YWxfYmluZGluZycsICctaW1hZScsICc8aW5maWxlLm1hZT4nLCAnLW9tYWUnLCAnPG91dGZpbGUubWFlPic=

> <r_lp_tautomer_probability>
1

> <r_epik_Ionization_Penalty>
4.15391e-05

> <r_epik_Ionization_Penalty_Charging>
0

> <r_epik_Ionization_Penalty_Neutral>
4.15391e-05

> <r_epik_State_Penalty>
-0

> <r_epik_Charging_Adjusted_Penalty>
0

> <i_epik_Tot_Q>
0

> <i_epik_Tot_abs_Q>
0

> <r_epik_Metal_State_Penalty>
-0

> <b_epik_Metal_Only>
0

> <s_lp_Force_Field>
OPLS_2005

> <r_lp_Energy>
23.4533

> <b_lp_Chiralities_Consistent>
1

> <s_lp_Variant>
AV-unprocessed.smi:1599-4

> <Gold.Version>
5.8.1

> <Gold.Id.Protein>
6NUR|6NUR_protein|mol2

> <Gold.PLP.Fitness>
42.3799

> <Gold.PLP.PLP>
-31.6273

> <Gold.PLP.part.hbond>
-5.3540

> <Gold.PLP.part.metal>
0.0000

> <Gold.PLP.part.buried>
-2.7773

> <Gold.PLP.part.nonpolar>
-26.3721

> <Gold.PLP.part.repulsive>
1.9323

> <Gold.PLP.ligand.clash>
0.0000

> <Gold.PLP.ligand.torsion>
1.1441

> <Gold.PLP.Chemscore.Hbond>
3.3230

> <Gold.PLP.Chemscore.CHOScore>
1.0000

> <Gold.PLP.Chemscore.Metal>
0.0000

> <Gold.Chemscore.Hbonds>
donor molecule, donor type, donor heavy atom, donor atom, acceptor molecule, acceptor atom, score
      L1  H     3    25       P1  7948  0.56
      L1  H     6    26       P1  7948  0.59
      L1  H    13    30       P1 10195  1.00
      L1  H    13    31       P1 10186  0.75
      L1  C     8    27       P1 10171  1.00

> <Gold.PLP.Chemscore.Internal.Correction>
0.0719

> <Gold.Rescore>
     Score         DG    S(hbond)    S(metal)    S(lipo)     H(rot)  DE(clash)    DE(int)     intcor
     14.67     -17.44       3.20        0.00      60.68       2.28       0.64       2.12       ----

> <Gold.Chemscore.Fitness>
14.6717

> <Gold.Chemscore.DG>
-17.4355

> <Gold.Chemscore.ZeroCoef>
-5.4800

> <Gold.Chemscore.Hbond>
3.2033

> <Gold.Chemscore.Metal>
0.0000

> <Gold.Chemscore.Lipo>
60.6759

> <Gold.Chemscore.Internal_Hbond>
0.0000

> <Gold.Chemscore.DEClash>
0.6394

> <Gold.Chemscore.DEInternal>
2.1245

> <Gold.Chemscore.Rot>
2.2823

> <Gold.Chemscore.Internal.Correction>
   9.000000E+99

> <Gold.Chemscore.Hbonds>
donor molecule, donor type, donor heavy atom, donor atom, acceptor molecule, acceptor atom, score
      L1  H     3    25       P1  7948  0.54
      L1  H     6    26       P1  7948  0.59
      L1  H    13    30       P1 10195  0.95
      L1  H    13    31       P1 10186  0.75
      P1  H  7918  7932       L1    14  0.01

> <Gold.Chemscore.Hbond.Weighted>
-10.6991

> <Gold.Chemscore.Metal.Weighted>
-0.0000

> <Gold.Chemscore.Lipo.Weighted>
-7.0991

> <Gold.Chemscore.Internal_Hbond.Weighted>
0.0000

> <Gold.Chemscore.DEClash.Weighted>
0.6394

> <Gold.Chemscore.DEInternal.Weighted>
2.1245

> <Gold.Chemscore.Rot.Weighted>
5.8427

> <Gold.Chemscore.Internal.Correction.Weighted>
   9.000000E+99

> <Gold.Protein.RotatedTorsions>
[ 6907 6896 6895 6894 ] final   17.37 input  -60.11 | X-H torsion
[ 7974 7965 7964 7962 ] final  -75.32 input  175.53 | X-H torsion
[ 8008 7997 7996 7995 ] final   80.20 input   59.86 | X-H torsion
[ 10167 10162 10161 10158 ] final   52.98 input  -65.29 | X-H torsion
[ 10718 10713 10712 10709 ] final   97.13 input   66.30 | X-H torsion
[ 10763 10752 10751 10750 ] final -109.55 input  -60.55 | X-H torsion
[ 11005 11000 10999 10996 ] final -144.66 input  -57.11 | X-H torsion

> <Gold.Protein.ActiveResidues>
 VAL166  LYS551  ARG553  GLY616  TRP617  ASP618  TYR619  PRO620  LYS621  CYS622 
 ASP623  PHE694  ASN695  SER759  ASP760  ASP761  ALA762  ILE779  LEU786  VAL792 
 PHE793  MET794  SER795  GLU796  ALA797  LYS798  CYS799  TRP800  GLU811  SER814 

> <Gold.Protein.RotatedAtoms>
  151.8485  135.0566  160.0456 H   0  0  0  0  0  0  0  0  0  0  0  0  # atno 6907 bound_to 6896
  152.2754  133.5416  159.5473 H   0  0  0  0  0  0  0  0  0  0  0  0  # atno 6908 bound_to 6896
  150.7168  134.0555  159.3855 H   0  0  0  0  0  0  0  0  0  0  0  0  # atno 6909 bound_to 6896
  145.6276  140.9346  143.1104 H   0  0  0  0  0  0  0  0  0  0  0  0  # atno 7974 bound_to 7965
  155.8803  140.3444  155.5883 H   0  0  0  0  0  0  0  0  0  0  0  0  # atno 8008 bound_to 7997
  155.7728  140.0847  157.2118 H   0  0  0  0  0  0  0  0  0  0  0  0  # atno 8009 bound_to 7997
  154.4024  140.1515  156.2948 H   0  0  0  0  0  0  0  0  0  0  0  0  # atno 8010 bound_to 7997
  140.2457  144.3535  150.6365 H   0  0  0  0  0  0  0  0  0  0  0  0  # atno 10167 bound_to 10162
  157.6917  131.0600  150.4596 H   0  0  0  0  0  0  0  0  0  0  0  0  # atno 10718 bound_to 10713
  154.8199  135.4597  154.0750 H   0  0  0  0  0  0  0  0  0  0  0  0  # atno 10763 bound_to 10752
  153.2112  135.6882  153.8118 H   0  0  0  0  0  0  0  0  0  0  0  0  # atno 10764 bound_to 10752
  153.7569  135.3290  155.3307 H   0  0  0  0  0  0  0  0  0  0  0  0  # atno 10765 bound_to 10752
  140.8002  134.2866  157.4981 H   0  0  0  0  0  0  0  0  0  0  0  0  # atno 11005 bound_to 11000
  144.7206  139.8043  143.7383 LP  0  0  0  0  0  0  0  0  0  0  0  0  # atno 17320 bound_to 7965
  146.1382  139.4433  143.0125 LP  0  0  0  0  0  0  0  0  0  0  0  0  # atno 17321 bound_to 7965
  140.6080  143.2168  151.6943 LP  0  0  0  0  0  0  0  0  0  0  0  0  # atno 17342 bound_to 10162
  139.5063  144.3688  152.0490 LP  0  0  0  0  0  0  0  0  0  0  0  0  # atno 17343 bound_to 10162
  156.4942  130.4102  149.6389 LP  0  0  0  0  0  0  0  0  0  0  0  0  # atno 17370 bound_to 10713
  156.3389  130.7371  151.2313 LP  0  0  0  0  0  0  0  0  0  0  0  0  # atno 17371 bound_to 10713
  139.8722  134.9425  156.3826 LP  0  0  0  0  0  0  0  0  0  0  0  0  # atno 17394 bound_to 11000
  140.9302  133.7584  156.0015 LP  0  0  0  0  0  0  0  0  0  0  0  0  # atno 17395 bound_to 11000

$$$$
