AV-unprocessed.smi:898|AV-procd|sdf|4085|dock10
  -GOLD-   22720 1573D 1   1.00000     0.00000
 Structure written by MMmdl.
 33 35  0  0  0  0  0  0  0  0  2 V2000
  152.5341  140.1108  155.2703 O   0  0  0  0  0  0  0  0  0  0  0  0
  151.3892  139.9835  155.7104 C   0  0  0  0  0  0  0  0  0  0  0  0
  150.4110  139.2097  155.1868 N   0  5  0  0  0  0  0  0  0  0  0  0
  150.5468  137.8734  155.1740 C   0  0  0  0  0  0  0  0  0  0  0  0
  151.7367  137.2711  155.3085 N   0  0  0  0  0  0  0  0  0  0  0  0
  151.6540  135.8869  155.2695 N   0  0  0  0  0  0  0  0  0  0  0  0
  150.3981  135.4618  155.1134 C   0  0  0  0  0  0  0  0  0  0  0  0
  150.0484  134.0134  155.0375 C   0  0  0  0  0  0  0  0  0  0  0  0
  149.5554  133.4046  153.7448 C   0  0  0  0  0  0  0  0  0  0  0  0
  148.6129  133.5512  154.9119 C   0  0  0  0  0  0  0  0  0  0  0  0
  149.2027  136.7444  155.0094 S   0  0  0  0  0  0  0  0  0  0  0  0
  151.0162  140.6505  156.8122 N   0  0  0  0  0  0  0  0  0  0  0  0
  151.8477  141.5650  157.5908 C   0  0  2  0  0  0  0  0  0  0  0  0
  152.0481  141.0216  159.0213 C   0  0  0  0  0  0  0  0  0  0  0  0
  152.9609  141.9196  159.8716 C   0  0  0  0  0  0  0  0  0  0  0  0
  152.3926  143.3352  160.0433 C   0  0  0  0  0  0  0  0  0  0  0  0
  152.2361  144.1781  158.4457 S   0  0  0  0  0  0  0  0  0  0  0  0
  151.1950  142.9581  157.5970 C   0  0  0  0  0  0  0  0  0  0  0  0
  150.7212  133.4225  155.6558 H   0  0  0  0  0  0  0  0  0  0  0  0
  149.4122  134.0708  152.8962 H   0  0  0  0  0  0  0  0  0  0  0  0
  149.9009  132.4027  153.4986 H   0  0  0  0  0  0  0  0  0  0  0  0
  148.3297  132.6468  155.4461 H   0  0  0  0  0  0  0  0  0  0  0  0
  147.8336  134.3063  154.8290 H   0  0  0  0  0  0  0  0  0  0  0  0
  150.0694  140.5120  157.1340 H   0  0  0  0  0  0  0  0  0  0  0  0
  152.8208  141.6521  157.1037 H   0  0  0  0  0  0  0  0  0  0  0  0
  151.0817  140.9097  159.5148 H   0  0  0  0  0  0  0  0  0  0  0  0
  152.4836  140.0226  158.9778 H   0  0  0  0  0  0  0  0  0  0  0  0
  153.0967  141.4655  160.8534 H   0  0  0  0  0  0  0  0  0  0  0  0
  153.9520  141.9721  159.4196 H   0  0  0  0  0  0  0  0  0  0  0  0
  151.4139  143.2968  160.5227 H   0  0  0  0  0  0  0  0  0  0  0  0
  153.0422  143.9271  160.6883 H   0  0  0  0  0  0  0  0  0  0  0  0
  151.0267  143.3040  156.5766 H   0  0  0  0  0  0  0  0  0  0  0  0
  150.2213  142.9232  158.0873 H   0  0  0  0  0  0  0  0  0  0  0  0
  1  2  2  0  0  0  0
  2  3  1  0  0  0  0
  2 12  1  0  0  0  0
  3  4  1  0  0  0  0
  4 11  1  0  0  0  0
  4  5  2  0  0  0  0
  5  6  1  0  0  0  0
  6  7  2  0  0  0  0
  7  8  1  0  0  0  0
  7 11  1  0  0  0  0
  8 10  1  0  0  0  0
  8  9  1  0  0  0  0
  8 19  1  0  0  0  0
  9 10  1  0  0  0  0
  9 20  1  0  0  0  0
  9 21  1  0  0  0  0
 10 22  1  0  0  0  0
 10 23  1  0  0  0  0
 12 13  1  0  0  0  0
 12 24  1  0  0  0  0
 13 18  1  0  0  0  0
 13 14  1  0  0  0  0
 13 25  1  0  0  0  0
 14 15  1  0  0  0  0
 14 26  1  0  0  0  0
 14 27  1  0  0  0  0
 15 16  1  0  0  0  0
 15 28  1  0  0  0  0
 15 29  1  0  0  0  0
 16 17  1  0  0  0  0
 16 30  1  0  0  0  0
 16 31  1  0  0  0  0
 17 18  1  0  0  0  0
 18 32  1  0  0  0  0
 18 33  1  0  0  0  0
M  CHG  1   3  -1
M  END
> <s_m_source_file>
AV-unprocessed.smi

> <i_m_source_file_index>
898

> <i_lp_mmshare_version>
43012

> <i_f3d_flags>
0

> <s_epik_input>
W0NIMl0xU1tDSDJdW0NIMl1bQ0gyXVtDQEhdMVtOSF1DKD1PKVtOSF1jMm5uYyhzMilbQ0hdM1tDSDJdW0NIMl0z

> <s_epik_cmdline>
J2VwaWtfcHl0aG9uJywgJy1waCcsICc3LjAnLCAnLXRuJywgJzgnLCAnLW1hJywgJzIwMCcsICctbWV0YWxfYmluZGluZycsICctaW1hZScsICc8aW5maWxlLm1hZT4nLCAnLW9tYWUnLCAnPG91dGZpbGUubWFlPic=

> <r_lp_tautomer_probability>
1

> <r_epik_Ionization_Penalty>
4.71411

> <r_epik_Ionization_Penalty_Charging>
4.5615

> <r_epik_Ionization_Penalty_Neutral>
0.152604

> <r_epik_State_Penalty>
4.56123

> <r_epik_Charging_Adjusted_Penalty>
9.12273

> <i_epik_Tot_Q>
-1

> <i_epik_Tot_abs_Q>
1

> <r_epik_Metal_State_Penalty>
0.850765

> <b_epik_Metal_Only>
1

> <s_lp_Force_Field>
OPLS_2005

> <r_lp_Energy>
0.497958

> <b_lp_Chiralities_Consistent>
1

> <s_lp_Variant>
AV-unprocessed.smi:898-3

> <Gold.Version>
5.8.1

> <Gold.Id.Protein>
6NUR|6NUR_protein|mol2

> <Gold.PLP.Fitness>
39.7249

> <Gold.PLP.PLP>
-34.7519

> <Gold.PLP.part.hbond>
-3.6736

> <Gold.PLP.part.metal>
0.0000

> <Gold.PLP.part.buried>
-2.6343

> <Gold.PLP.part.nonpolar>
-28.3084

> <Gold.PLP.part.repulsive>
0.3045

> <Gold.PLP.ligand.clash>
0.0000

> <Gold.PLP.ligand.torsion>
0.7890

> <Gold.PLP.Chemscore.Hbond>
2.1346

> <Gold.PLP.Chemscore.CHOScore>
0.0000

> <Gold.PLP.Chemscore.Metal>
0.0000

> <Gold.Chemscore.Hbonds>
donor molecule, donor type, donor heavy atom, donor atom, acceptor molecule, acceptor atom, score
      P1  H  7989  7998       L1     1  0.18
      P1  H  7997  8008       L1     1  0.93
      P1  H 10752 10765       L1     6  0.84

> <Gold.PLP.Chemscore.Internal.Correction>
0.1473

> <Gold.Rescore>
     Score         DG    S(hbond)    S(metal)    S(lipo)     H(rot)  DE(clash)    DE(int)     intcor
     14.69     -17.48       1.53        0.00      84.78       1.19       0.87       1.92       ----

> <Gold.Chemscore.Fitness>
14.6891

> <Gold.Chemscore.DG>
-17.4765

> <Gold.Chemscore.ZeroCoef>
-5.4800

> <Gold.Chemscore.Hbond>
1.5347

> <Gold.Chemscore.Metal>
0.0000

> <Gold.Chemscore.Lipo>
84.7841

> <Gold.Chemscore.Internal_Hbond>
0.0000

> <Gold.Chemscore.DEClash>
0.8701

> <Gold.Chemscore.DEInternal>
1.9174

> <Gold.Chemscore.Rot>
1.1911

> <Gold.Chemscore.Internal.Correction>
   9.000000E+99

> <Gold.Chemscore.Hbonds>
donor molecule, donor type, donor heavy atom, donor atom, acceptor molecule, acceptor atom, score
      P1  H  7997  8008       L1     1  0.84
      P1  H 10752 10765       L1     6  0.29

> <Gold.Chemscore.Hbond.Weighted>
-5.1260

> <Gold.Chemscore.Metal.Weighted>
-0.0000

> <Gold.Chemscore.Lipo.Weighted>
-9.9197

> <Gold.Chemscore.Internal_Hbond.Weighted>
0.0000

> <Gold.Chemscore.DEClash.Weighted>
0.8701

> <Gold.Chemscore.DEInternal.Weighted>
1.9174

> <Gold.Chemscore.Rot.Weighted>
3.0492

> <Gold.Chemscore.Internal.Correction.Weighted>
   9.000000E+99

> <Gold.Protein.RotatedTorsions>
[ 6907 6896 6895 6894 ] final -162.58 input  -60.11 | X-H torsion
[ 7974 7965 7964 7962 ] final   66.52 input  175.53 | X-H torsion
[ 8008 7997 7996 7995 ] final  -39.67 input   59.86 | X-H torsion
[ 10167 10162 10161 10158 ] final  -97.86 input  -65.29 | X-H torsion
[ 10718 10713 10712 10709 ] final  -42.15 input   66.30 | X-H torsion
[ 10763 10752 10751 10750 ] final -163.73 input  -60.55 | X-H torsion
[ 11005 11000 10999 10996 ] final  -63.91 input  -57.11 | X-H torsion

> <Gold.Protein.ActiveResidues>
 VAL166  LYS551  ARG553  GLY616  TRP617  ASP618  TYR619  PRO620  LYS621  CYS622 
 ASP623  PHE694  ASN695  SER759  ASP760  ASP761  ALA762  ILE779  LEU786  VAL792 
 PHE793  MET794  SER795  GLU796  ALA797  LYS798  CYS799  TRP800  GLU811  SER814 

> <Gold.Protein.RotatedAtoms>
  151.3825  133.3816  159.2711 H   0  0  0  0  0  0  0  0  0  0  0  0  # atno 6907 bound_to 6896
  150.9566  134.8961  159.7715 H   0  0  0  0  0  0  0  0  0  0  0  0  # atno 6908 bound_to 6896
  152.5133  134.3783  159.9394 H   0  0  0  0  0  0  0  0  0  0  0  0  # atno 6909 bound_to 6896
  145.8256  139.3109  143.1017 H   0  0  0  0  0  0  0  0  0  0  0  0  # atno 7974 bound_to 7965
  154.4020  140.1545  156.2901 H   0  0  0  0  0  0  0  0  0  0  0  0  # atno 8008 bound_to 7997
  155.8793  140.3444  155.5854 H   0  0  0  0  0  0  0  0  0  0  0  0  # atno 8009 bound_to 7997
  155.7685  140.0827  157.2110 H   0  0  0  0  0  0  0  0  0  0  0  0  # atno 8010 bound_to 7997
  140.2790  143.3294  152.0460 H   0  0  0  0  0  0  0  0  0  0  0  0  # atno 10167 bound_to 10162
  156.2627  130.4198  149.8524 H   0  0  0  0  0  0  0  0  0  0  0  0  # atno 10718 bound_to 10713
  154.7095  135.3003  154.9219 H   0  0  0  0  0  0  0  0  0  0  0  0  # atno 10763 bound_to 10752
  154.0125  135.6693  153.4770 H   0  0  0  0  0  0  0  0  0  0  0  0  # atno 10764 bound_to 10752
  153.0744  135.5043  154.8285 H   0  0  0  0  0  0  0  0  0  0  0  0  # atno 10765 bound_to 10752
  141.1408  133.6658  156.5752 H   0  0  0  0  0  0  0  0  0  0  0  0  # atno 11005 bound_to 11000
  145.9627  140.8823  143.0202 LP  0  0  0  0  0  0  0  0  0  0  0  0  # atno 17320 bound_to 7965
  144.6744  140.1835  143.7403 LP  0  0  0  0  0  0  0  0  0  0  0  0  # atno 17321 bound_to 7965
  139.4968  144.6604  151.6476 LP  0  0  0  0  0  0  0  0  0  0  0  0  # atno 17342 bound_to 10162
  140.5827  143.9918  150.6277 LP  0  0  0  0  0  0  0  0  0  0  0  0  # atno 17343 bound_to 10162
  156.6034  130.8556  151.3437 LP  0  0  0  0  0  0  0  0  0  0  0  0  # atno 17370 bound_to 10713
  157.7256  130.9618  150.1622 LP  0  0  0  0  0  0  0  0  0  0  0  0  # atno 17371 bound_to 10713
  140.3881  134.7464  157.4704 LP  0  0  0  0  0  0  0  0  0  0  0  0  # atno 17394 bound_to 11000
  140.0587  134.6027  155.8775 LP  0  0  0  0  0  0  0  0  0  0  0  0  # atno 17395 bound_to 11000

$$$$
