AV-unprocessed.smi:2265|AV-procd|sdf|9144|dock8
  -GOLD-   2272012353D 1   1.00000     0.00000
 Structure written by MMmdl.
 36 37  0  0  0  0  0  0  0  0  1 V2000
  153.9651  140.7615  159.6020 C   0  0  0  0  0  0  0  0  0  0  0  0
  153.1142  141.8649  160.2398 C   0  0  0  0  0  0  0  0  0  0  0  0
  152.9541  143.0868  159.3256 C   0  0  0  0  0  0  0  0  0  0  0  0
  151.9764  144.1034  159.8882 C   0  0  1  0  0  0  0  0  0  0  0  0
  151.8340  145.4684  159.2689 C   0  0  0  0  0  0  0  0  0  0  0  0
  150.6934  144.4756  159.1715 C   0  0  1  0  0  0  0  0  0  0  0  0
  150.4223  143.9199  157.8790 N   0  0  0  0  0  0  0  0  0  0  0  0
  150.4284  142.6223  157.5254 C   0  0  0  0  0  0  0  0  0  0  0  0
  150.6525  141.7441  158.3582 O   0  0  0  0  0  0  0  0  0  0  0  0
  150.1312  142.4094  156.2244 N   0  0  0  0  0  0  0  0  0  0  0  0
  150.0213  141.1899  155.5451 C   0  0  0  0  0  0  0  0  0  0  0  0
  150.9147  140.2435  155.6235 N   0  0  0  0  0  0  0  0  0  0  0  0
  150.7718  139.0409  154.9312 C   0  0  0  0  0  0  0  0  0  0  0  0
  149.6996  138.8176  154.1501 C   0  0  0  0  0  0  0  0  0  0  0  0
  148.6989  139.7897  154.0133 N   0  0  0  0  0  0  0  0  0  0  0  0
  147.5523  139.4936  153.1540 C   0  0  0  0  0  0  0  0  0  0  0  0
  148.7834  140.9792  154.6688 C   0  0  0  0  0  0  0  0  0  0  0  0
  147.9270  141.8618  154.5842 O   0  0  0  0  0  0  0  0  0  0  0  0
  154.0634  139.9092  160.2744 H   0  0  0  0  0  0  0  0  0  0  0  0
  154.9683  141.1211  159.3716 H   0  0  0  0  0  0  0  0  0  0  0  0
  153.5157  140.4042  158.6753 H   0  0  0  0  0  0  0  0  0  0  0  0
  152.1319  141.4620  160.4884 H   0  0  0  0  0  0  0  0  0  0  0  0
  153.5698  142.1713  161.1822 H   0  0  0  0  0  0  0  0  0  0  0  0
  153.9255  143.5582  159.1728 H   0  0  0  0  0  0  0  0  0  0  0  0
  152.5977  142.7746  158.3434 H   0  0  0  0  0  0  0  0  0  0  0  0
  151.8993  144.0646  160.9732 H   0  0  0  0  0  0  0  0  0  0  0  0
  151.7095  146.3128  159.9437 H   0  0  0  0  0  0  0  0  0  0  0  0
  152.4077  145.6763  158.3676 H   0  0  0  0  0  0  0  0  0  0  0  0
  149.8347  144.7086  159.7994 H   0  0  0  0  0  0  0  0  0  0  0  0
  150.1179  144.5765  157.1746 H   0  0  0  0  0  0  0  0  0  0  0  0
  149.9534  143.2415  155.6809 H   0  0  0  0  0  0  0  0  0  0  0  0
  151.5583  138.3115  155.0565 H   0  0  0  0  0  0  0  0  0  0  0  0
  149.5448  137.9031  153.5964 H   0  0  0  0  0  0  0  0  0  0  0  0
  146.6408  139.4243  153.7490 H   0  0  0  0  0  0  0  0  0  0  0  0
  147.6672  138.5522  152.6155 H   0  0  0  0  0  0  0  0  0  0  0  0
  147.4136  140.2785  152.4091 H   0  0  0  0  0  0  0  0  0  0  0  0
  1  2  1  0  0  0  0
  1 19  1  0  0  0  0
  1 20  1  0  0  0  0
  1 21  1  0  0  0  0
  2  3  1  0  0  0  0
  2 22  1  0  0  0  0
  2 23  1  0  0  0  0
  3  4  1  0  0  0  0
  3 24  1  0  0  0  0
  3 25  1  0  0  0  0
  4  6  1  0  0  0  0
  4  5  1  0  0  0  0
  4 26  1  0  0  0  0
  5  6  1  0  0  0  0
  5 27  1  0  0  0  0
  5 28  1  0  0  0  0
  6  7  1  0  0  0  0
  6 29  1  0  0  0  0
  7  8  1  0  0  0  0
  7 30  1  0  0  0  0
  8  9  2  0  0  0  0
  8 10  1  0  0  0  0
 10 11  1  0  0  0  0
 10 31  1  0  0  0  0
 11 17  1  0  0  0  0
 11 12  2  0  0  0  0
 12 13  1  0  0  0  0
 13 14  2  0  0  0  0
 13 32  1  0  0  0  0
 14 15  1  0  0  0  0
 14 33  1  0  0  0  0
 15 16  1  0  0  0  0
 15 17  1  0  0  0  0
 16 34  1  0  0  0  0
 16 35  1  0  0  0  0
 16 36  1  0  0  0  0
 17 18  2  0  0  0  0
M  END
> <s_m_source_file>
AV-unprocessed.smi

> <i_m_source_file_index>
2265

> <i_lp_mmshare_version>
43012

> <i_f3d_flags>
0

> <s_epik_input>
W0NIM11bQ0gyXVtDSDJdW0NAQEhdMVtDSDJdW0NASF0xW05IXUMoPU8pW05IXWMybltjSF1bY0hdbihbQ0gzXSljMj1P

> <s_epik_cmdline>
J2VwaWtfcHl0aG9uJywgJy1waCcsICc3LjAnLCAnLXRuJywgJzgnLCAnLW1hJywgJzIwMCcsICctbWV0YWxfYmluZGluZycsICctaW1hZScsICc8aW5maWxlLm1hZT4nLCAnLW9tYWUnLCAnPG91dGZpbGUubWFlPic=

> <r_lp_tautomer_probability>
1

> <r_epik_Ionization_Penalty>
0.000728552

> <r_epik_Ionization_Penalty_Charging>
1.67739e-07

> <r_epik_Ionization_Penalty_Neutral>
0.000728385

> <r_epik_State_Penalty>
-0

> <r_epik_Charging_Adjusted_Penalty>
1.67739e-07

> <i_epik_Tot_Q>
0

> <i_epik_Tot_abs_Q>
0

> <r_epik_Metal_State_Penalty>
-0

> <b_epik_Metal_Only>
0

> <s_lp_Force_Field>
OPLS_2005

> <r_lp_Energy>
43.9495

> <b_lp_Chiralities_Consistent>
1

> <s_lp_Variant>
AV-unprocessed.smi:2265-2

> <Gold.Version>
5.8.1

> <Gold.Id.Protein>
6NUR|6NUR_protein|mol2

> <Gold.PLP.Fitness>
47.5259

> <Gold.PLP.PLP>
-40.5385

> <Gold.PLP.part.hbond>
-2.0023

> <Gold.PLP.part.metal>
0.0000

> <Gold.PLP.part.buried>
-3.7600

> <Gold.PLP.part.nonpolar>
-36.4825

> <Gold.PLP.part.repulsive>
0.3446

> <Gold.PLP.ligand.clash>
0.0000

> <Gold.PLP.ligand.torsion>
0.8532

> <Gold.PLP.Chemscore.Hbond>
1.7120

> <Gold.PLP.Chemscore.CHOScore>
1.0000

> <Gold.PLP.Chemscore.Metal>
0.0000

> <Gold.Chemscore.Hbonds>
donor molecule, donor type, donor heavy atom, donor atom, acceptor molecule, acceptor atom, score
      L1  H     7    30       P1  8028  0.85
      L1  H    10    31       P1  8028  0.83
      L1  C    14    33       P1  7948  1.00

> <Gold.PLP.Chemscore.Internal.Correction>
0.5578

> <Gold.Rescore>
     Score         DG    S(hbond)    S(metal)    S(lipo)     H(rot)  DE(clash)    DE(int)     intcor
     14.79     -16.54       1.45        0.00      85.02       1.46       0.02       1.73       ----

> <Gold.Chemscore.Fitness>
14.7861

> <Gold.Chemscore.DG>
-16.5414

> <Gold.Chemscore.ZeroCoef>
-5.4800

> <Gold.Chemscore.Hbond>
1.4530

> <Gold.Chemscore.Metal>
0.0000

> <Gold.Chemscore.Lipo>
85.0168

> <Gold.Chemscore.Internal_Hbond>
0.0000

> <Gold.Chemscore.DEClash>
0.0244

> <Gold.Chemscore.DEInternal>
1.7309

> <Gold.Chemscore.Rot>
1.4604

> <Gold.Chemscore.Internal.Correction>
   9.000000E+99

> <Gold.Chemscore.Hbonds>
donor molecule, donor type, donor heavy atom, donor atom, acceptor molecule, acceptor atom, score
      L1  H     7    30       P1  8028  0.38
      L1  H    10    31       P1  8028  0.83

> <Gold.Chemscore.Hbond.Weighted>
-4.8532

> <Gold.Chemscore.Metal.Weighted>
-0.0000

> <Gold.Chemscore.Lipo.Weighted>
-9.9470

> <Gold.Chemscore.Internal_Hbond.Weighted>
0.0000

> <Gold.Chemscore.DEClash.Weighted>
0.0244

> <Gold.Chemscore.DEInternal.Weighted>
1.7309

> <Gold.Chemscore.Rot.Weighted>
3.7387

> <Gold.Chemscore.Internal.Correction.Weighted>
   9.000000E+99

> <Gold.Protein.RotatedTorsions>
[ 6907 6896 6895 6894 ] final -146.30 input  -60.11 | X-H torsion
[ 7974 7965 7964 7962 ] final  153.01 input  175.53 | X-H torsion
[ 8008 7997 7996 7995 ] final    6.42 input   59.86 | X-H torsion
[ 10167 10162 10161 10158 ] final   26.13 input  -65.29 | X-H torsion
[ 10718 10713 10712 10709 ] final  126.88 input   66.30 | X-H torsion
[ 10763 10752 10751 10750 ] final -152.41 input  -60.55 | X-H torsion
[ 11005 11000 10999 10996 ] final   41.00 input  -57.11 | X-H torsion

> <Gold.Protein.ActiveResidues>
 VAL166  LYS551  ARG553  GLY616  TRP617  ASP618  TYR619  PRO620  LYS621  CYS622 
 ASP623  PHE694  ASN695  SER759  ASP760  ASP761  ALA762  ILE779  LEU786  VAL792 
 PHE793  MET794  SER795  GLU796  ALA797  LYS798  CYS799  TRP800  GLU811  SER814 

> <Gold.Protein.RotatedAtoms>
  151.1397  133.4980  159.2596 H   0  0  0  0  0  0  0  0  0  0  0  0  # atno 6907 bound_to 6896
  151.1668  135.0299  159.8744 H   0  0  0  0  0  0  0  0  0  0  0  0  # atno 6908 bound_to 6896
  152.5462  134.1264  159.8474 H   0  0  0  0  0  0  0  0  0  0  0  0  # atno 6909 bound_to 6896
  144.8183  139.6744  143.6111 H   0  0  0  0  0  0  0  0  0  0  0  0  # atno 7974 bound_to 7965
  154.7408  140.2748  155.6375 H   0  0  0  0  0  0  0  0  0  0  0  0  # atno 8008 bound_to 7997
  156.2873  140.2697  156.2060 H   0  0  0  0  0  0  0  0  0  0  0  0  # atno 8009 bound_to 7997
  155.0261  140.0371  157.2446 H   0  0  0  0  0  0  0  0  0  0  0  0  # atno 8010 bound_to 7997
  140.5049  144.0255  150.6348 H   0  0  0  0  0  0  0  0  0  0  0  0  # atno 10167 bound_to 10162
  157.5381  131.1097  150.8903 H   0  0  0  0  0  0  0  0  0  0  0  0  # atno 10718 bound_to 10713
  154.7996  135.3237  154.7583 H   0  0  0  0  0  0  0  0  0  0  0  0  # atno 10763 bound_to 10752
  153.8254  135.6884  153.4826 H   0  0  0  0  0  0  0  0  0  0  0  0  # atno 10764 bound_to 10752
  153.1705  135.4625  154.9839 H   0  0  0  0  0  0  0  0  0  0  0  0  # atno 10765 bound_to 10752
  140.1876  134.4026  155.8164 H   0  0  0  0  0  0  0  0  0  0  0  0  # atno 11005 bound_to 11000
  146.2487  139.6154  142.9442 LP  0  0  0  0  0  0  0  0  0  0  0  0  # atno 17320 bound_to 7965
  145.5163  141.0433  143.2460 LP  0  0  0  0  0  0  0  0  0  0  0  0  # atno 17321 bound_to 7965
  140.3562  143.2934  152.0434 LP  0  0  0  0  0  0  0  0  0  0  0  0  # atno 17342 bound_to 10162
  139.4881  144.6337  151.7018 LP  0  0  0  0  0  0  0  0  0  0  0  0  # atno 17343 bound_to 10162
  156.9464  130.5403  149.5281 LP  0  0  0  0  0  0  0  0  0  0  0  0  # atno 17370 bound_to 10713
  156.0475  130.5549  150.8913 LP  0  0  0  0  0  0  0  0  0  0  0  0  # atno 17371 bound_to 10713
  141.2225  133.7030  156.8039 LP  0  0  0  0  0  0  0  0  0  0  0  0  # atno 17394 bound_to 11000
  140.2196  134.8767  157.3363 LP  0  0  0  0  0  0  0  0  0  0  0  0  # atno 17395 bound_to 11000

$$$$
