AV-unprocessed.smi:1751|AV-procd|sdf|7057|dock1
  -GOLD-   22720 8273D 1   1.00000     0.00000
 Structure written by MMmdl.
 35 36  0  0  0  0  0  0  0  0  1 V2000
  146.6370  138.1124  151.8153 C   0  0  0  0  0  0  0  0  0  0  0  0
  146.2180  139.3779  152.3143 O   0  0  0  0  0  0  0  0  0  0  0  0
  147.0398  140.0348  153.2069 C   0  0  0  0  0  0  0  0  0  0  0  0
  148.0678  139.3069  153.8373 C   0  0  0  0  0  0  0  0  0  0  0  0
  148.9040  139.9711  154.7541 C   0  0  0  0  0  0  0  0  0  0  0  0
  148.6896  141.3386  155.0195 C   0  0  0  0  0  0  0  0  0  0  0  0
  149.5613  141.9737  155.9465 N   0  0  0  0  0  0  0  0  0  0  0  0
  150.5690  141.4474  156.6641 C   0  0  0  0  0  0  0  0  0  0  0  0
  150.9251  140.2701  156.6420 O   0  0  0  0  0  0  0  0  0  0  0  0
  151.1588  142.3839  157.4204 N   0  0  0  0  0  0  0  0  0  0  0  0
  152.2789  142.1587  158.3287 C   0  0  0  0  0  0  0  0  0  0  0  0
  152.4829  143.3460  159.2845 C   0  0  1  0  0  0  0  0  0  0  0  0
  152.2453  144.7237  158.6676 C   0  0  0  0  0  0  0  0  0  0  0  0
  151.9651  145.5577  159.8963 C   0  0  0  0  0  0  0  0  0  0  0  0
  151.1684  144.5880  160.7667 C   0  0  0  0  0  0  0  0  0  0  0  0
  151.5574  143.2759  160.3645 O   0  0  0  0  0  0  0  0  0  0  0  0
  147.6374  141.9851  154.3245 C   0  0  0  0  0  0  0  0  0  0  0  0
  146.8314  141.3533  153.4442 N   0  0  0  0  0  0  0  0  0  0  0  0
  145.8893  137.7343  151.1182 H   0  0  0  0  0  0  0  0  0  0  0  0
  146.7404  137.3814  152.6184 H   0  0  0  0  0  0  0  0  0  0  0  0
  147.5823  138.1888  151.2763 H   0  0  0  0  0  0  0  0  0  0  0  0
  148.2110  138.2582  153.6225 H   0  0  0  0  0  0  0  0  0  0  0  0
  149.6987  139.4321  155.2493 H   0  0  0  0  0  0  0  0  0  0  0  0
  149.4281  142.9693  156.0455 H   0  0  0  0  0  0  0  0  0  0  0  0
  150.8016  143.3267  157.3710 H   0  0  0  0  0  0  0  0  0  0  0  0
  152.1530  141.2314  158.8904 H   0  0  0  0  0  0  0  0  0  0  0  0
  153.1742  142.0258  157.7210 H   0  0  0  0  0  0  0  0  0  0  0  0
  153.4865  143.3120  159.7121 H   0  0  0  0  0  0  0  0  0  0  0  0
  153.0959  145.0858  158.0896 H   0  0  0  0  0  0  0  0  0  0  0  0
  151.3685  144.7085  158.0184 H   0  0  0  0  0  0  0  0  0  0  0  0
  152.9022  145.8207  160.3889 H   0  0  0  0  0  0  0  0  0  0  0  0
  151.4240  146.4784  159.6772 H   0  0  0  0  0  0  0  0  0  0  0  0
  151.3519  144.7469  161.8298 H   0  0  0  0  0  0  0  0  0  0  0  0
  150.0987  144.7012  160.5877 H   0  0  0  0  0  0  0  0  0  0  0  0
  147.4239  143.0348  154.4456 H   0  0  0  0  0  0  0  0  0  0  0  0
  1  2  1  0  0  0  0
  1 19  1  0  0  0  0
  1 20  1  0  0  0  0
  1 21  1  0  0  0  0
  2  3  1  0  0  0  0
  3 18  1  0  0  0  0
  3  4  2  0  0  0  0
  4  5  1  0  0  0  0
  4 22  1  0  0  0  0
  5  6  2  0  0  0  0
  5 23  1  0  0  0  0
  6  7  1  0  0  0  0
  6 17  1  0  0  0  0
  7  8  1  0  0  0  0
  7 24  1  0  0  0  0
  8  9  2  0  0  0  0
  8 10  1  0  0  0  0
 10 11  1  0  0  0  0
 10 25  1  0  0  0  0
 11 12  1  0  0  0  0
 11 26  1  0  0  0  0
 11 27  1  0  0  0  0
 12 16  1  0  0  0  0
 12 13  1  0  0  0  0
 12 28  1  0  0  0  0
 13 14  1  0  0  0  0
 13 29  1  0  0  0  0
 13 30  1  0  0  0  0
 14 15  1  0  0  0  0
 14 31  1  0  0  0  0
 14 32  1  0  0  0  0
 15 16  1  0  0  0  0
 15 33  1  0  0  0  0
 15 34  1  0  0  0  0
 17 18  2  0  0  0  0
 17 35  1  0  0  0  0
M  END
> <s_m_source_file>
AV-unprocessed.smi

> <i_m_source_file_index>
1751

> <i_lp_mmshare_version>
43012

> <i_f3d_flags>
0

> <s_epik_input>
W0NIM11PYzFbY0hdW2NIXWMoW2NIXW4xKVtOSF1DKD1PKVtOSF1bQ0gyXVtDQEBIXTJbQ0gyXVtDSDJdW0NIMl1PMg==

> <s_epik_cmdline>
J2VwaWtfcHl0aG9uJywgJy1waCcsICc3LjAnLCAnLXRuJywgJzgnLCAnLW1hJywgJzIwMCcsICctbWV0YWxfYmluZGluZycsICctaW1hZScsICc8aW5maWxlLm1hZT4nLCAnLW9tYWUnLCAnPG91dGZpbGUubWFlPic=

> <r_lp_tautomer_probability>
1

> <r_epik_Ionization_Penalty>
9.01694e-05

> <r_epik_Ionization_Penalty_Charging>
0

> <r_epik_Ionization_Penalty_Neutral>
9.01694e-05

> <r_epik_State_Penalty>
-0

> <r_epik_Charging_Adjusted_Penalty>
0

> <i_epik_Tot_Q>
0

> <i_epik_Tot_abs_Q>
0

> <r_epik_Metal_State_Penalty>
-0

> <b_epik_Metal_Only>
0

> <s_lp_Force_Field>
OPLS_2005

> <r_lp_Energy>
20.1941

> <b_lp_Chiralities_Consistent>
1

> <s_lp_Variant>
AV-unprocessed.smi:1751-2

> <Gold.Version>
5.8.1

> <Gold.Id.Protein>
6NUR|6NUR_protein|mol2

> <Gold.PLP.Fitness>
39.6248

> <Gold.PLP.PLP>
-34.7455

> <Gold.PLP.part.hbond>
-1.5656

> <Gold.PLP.part.metal>
0.0000

> <Gold.PLP.part.buried>
-1.3866

> <Gold.PLP.part.nonpolar>
-34.1278

> <Gold.PLP.part.repulsive>
2.6592

> <Gold.PLP.ligand.clash>
0.0000

> <Gold.PLP.ligand.torsion>
0.4925

> <Gold.PLP.Chemscore.Hbond>
1.0000

> <Gold.PLP.Chemscore.CHOScore>
0.9505

> <Gold.PLP.Chemscore.Metal>
0.0000

> <Gold.Chemscore.Hbonds>
donor molecule, donor type, donor heavy atom, donor atom, acceptor molecule, acceptor atom, score
      L1  H     7    24       P1  8028  1.00
      L1  C    17    35       P1  8028  0.95

> <Gold.PLP.Chemscore.Internal.Correction>
0.0127

> <Gold.Rescore>
     Score         DG    S(hbond)    S(metal)    S(lipo)     H(rot)  DE(clash)    DE(int)     intcor
     12.67     -16.03       1.00        0.00      94.48       1.50       1.66       1.70       ----

> <Gold.Chemscore.Fitness>
12.6661

> <Gold.Chemscore.DG>
-16.0268

> <Gold.Chemscore.ZeroCoef>
-5.4800

> <Gold.Chemscore.Hbond>
0.9957

> <Gold.Chemscore.Metal>
0.0000

> <Gold.Chemscore.Lipo>
94.4777

> <Gold.Chemscore.Internal_Hbond>
0.0000

> <Gold.Chemscore.DEClash>
1.6629

> <Gold.Chemscore.DEInternal>
1.6978

> <Gold.Chemscore.Rot>
1.4971

> <Gold.Chemscore.Internal.Correction>
   9.000000E+99

> <Gold.Chemscore.Hbonds>
donor molecule, donor type, donor heavy atom, donor atom, acceptor molecule, acceptor atom, score
      L1  H     7    24       P1  8028  1.00

> <Gold.Chemscore.Hbond.Weighted>
-3.3255

> <Gold.Chemscore.Metal.Weighted>
-0.0000

> <Gold.Chemscore.Lipo.Weighted>
-11.0539

> <Gold.Chemscore.Internal_Hbond.Weighted>
0.0000

> <Gold.Chemscore.DEClash.Weighted>
1.6629

> <Gold.Chemscore.DEInternal.Weighted>
1.6978

> <Gold.Chemscore.Rot.Weighted>
3.8326

> <Gold.Chemscore.Internal.Correction.Weighted>
   9.000000E+99

> <Gold.Protein.RotatedTorsions>
[ 6907 6896 6895 6894 ] final  -50.72 input  -60.11 | X-H torsion
[ 7974 7965 7964 7962 ] final   -3.60 input  175.53 | X-H torsion
[ 8008 7997 7996 7995 ] final  -75.59 input   59.86 | X-H torsion
[ 10167 10162 10161 10158 ] final  136.63 input  -65.29 | X-H torsion
[ 10718 10713 10712 10709 ] final  -54.58 input   66.30 | X-H torsion
[ 10763 10752 10751 10750 ] final -168.71 input  -60.55 | X-H torsion
[ 11005 11000 10999 10996 ] final -112.70 input  -57.11 | X-H torsion

> <Gold.Protein.ActiveResidues>
 VAL166  LYS551  ARG553  GLY616  TRP617  ASP618  TYR619  PRO620  LYS621  CYS622 
 ASP623  PHE694  ASN695  SER759  ASP760  ASP761  ALA762  ILE779  LEU786  VAL792 
 PHE793  MET794  SER795  GLU796  ALA797  LYS798  CYS799  TRP800  GLU811  SER814 

> <Gold.Protein.RotatedAtoms>
  150.8680  134.8047  159.7132 H   0  0  0  0  0  0  0  0  0  0  0  0  # atno 6907 bound_to 6896
  152.4694  134.4993  159.9729 H   0  0  0  0  0  0  0  0  0  0  0  0  # atno 6908 bound_to 6896
  151.5086  133.3451  159.2916 H   0  0  0  0  0  0  0  0  0  0  0  0  # atno 6909 bound_to 6896
  146.2387  140.1745  142.8332 H   0  0  0  0  0  0  0  0  0  0  0  0  # atno 7974 bound_to 7965
  154.5430  140.0741  156.8541 H   0  0  0  0  0  0  0  0  0  0  0  0  # atno 8008 bound_to 7997
  155.3144  140.3392  155.4225 H   0  0  0  0  0  0  0  0  0  0  0  0  # atno 8009 bound_to 7997
  156.1892  140.1680  156.8112 H   0  0  0  0  0  0  0  0  0  0  0  0  # atno 8010 bound_to 7997
  139.5173  144.6454  151.5454 H   0  0  0  0  0  0  0  0  0  0  0  0  # atno 10167 bound_to 10162
  156.1439  130.4153  150.0056 H   0  0  0  0  0  0  0  0  0  0  0  0  # atno 10718 bound_to 10713
  154.6599  135.2923  154.9879 H   0  0  0  0  0  0  0  0  0  0  0  0  # atno 10763 bound_to 10752
  154.0942  135.6586  153.4861 H   0  0  0  0  0  0  0  0  0  0  0  0  # atno 10764 bound_to 10752
  153.0424  135.5227  154.7546 H   0  0  0  0  0  0  0  0  0  0  0  0  # atno 10765 bound_to 10752
  141.0659  133.9459  157.2578 H   0  0  0  0  0  0  0  0  0  0  0  0  # atno 11005 bound_to 11000
  144.9984  140.8610  143.5296 LP  0  0  0  0  0  0  0  0  0  0  0  0  # atno 17320 bound_to 7965
  145.1761  139.2377  143.5316 LP  0  0  0  0  0  0  0  0  0  0  0  0  # atno 17321 bound_to 7965
  140.6237  143.9210  150.6547 LP  0  0  0  0  0  0  0  0  0  0  0  0  # atno 17342 bound_to 10162
  140.2492  143.3606  152.1420 LP  0  0  0  0  0  0  0  0  0  0  0  0  # atno 17343 bound_to 10162
  156.7934  130.9264  151.3646 LP  0  0  0  0  0  0  0  0  0  0  0  0  # atno 17370 bound_to 10713
  157.6600  130.8957  149.9809 LP  0  0  0  0  0  0  0  0  0  0  0  0  # atno 17371 bound_to 10713
  139.9476  135.0181  156.8899 LP  0  0  0  0  0  0  0  0  0  0  0  0  # atno 17394 bound_to 11000
  140.5773  134.0385  155.7451 LP  0  0  0  0  0  0  0  0  0  0  0  0  # atno 17395 bound_to 11000

$$$$
