AV-unprocessed.smi:3234|AV-procd|sdf|12352|dock5
  -GOLD-   2272018213D 1   1.00000     0.00000
 Structure written by MMmdl.
 38 40  0  0  0  0  0  0  0  0  3 V2000
  145.4238  128.8557  151.9859 O   0  0  0  0  0  0  0  0  0  0  0  0
  146.3907  129.3922  151.4471 C   0  0  0  0  0  0  0  0  0  0  0  0
  146.3730  130.5642  150.7872 N   0  0  0  0  0  0  0  0  0  0  0  0
  145.2908  131.4584  150.5482 C   0  0  0  0  0  0  0  0  0  0  0  0
  145.2320  132.0644  149.2730 C   0  0  0  0  0  0  0  0  0  0  0  0
  144.1870  132.9616  148.9720 C   0  0  0  0  0  0  0  0  0  0  0  0
  143.2501  133.2379  149.9033 N   0  3  0  0  0  0  0  0  0  0  0  0
  143.2631  132.6876  151.1359 C   0  0  0  0  0  0  0  0  0  0  0  0
  144.2837  131.7830  151.4944 C   0  0  0  0  0  0  0  0  0  0  0  0
  147.6197  128.8565  151.4506 N   0  0  0  0  0  0  0  0  0  0  0  0
  147.9697  127.5912  152.0882 C   0  0  2  0  0  0  0  0  0  0  0  0
  149.0413  127.6997  153.1687 C   0  0  0  0  0  0  0  0  0  0  0  0
  149.5639  126.2620  153.2657 C   0  0  0  0  0  0  0  0  0  0  0  0
  149.3495  125.6376  151.9360 N   0  3  1  0  0  0  0  0  0  0  0  0
  148.7102  124.3054  152.0053 C   0  0  0  0  0  0  0  0  0  0  0  0
  149.5101  123.2158  151.3319 C   0  0  0  0  0  0  0  0  0  0  0  0
  148.2734  123.7737  150.6611 C   0  0  0  0  0  0  0  0  0  0  0  0
  148.6042  126.6089  151.1047 C   0  0  0  0  0  0  0  0  0  0  0  0
  147.2565  130.8540  150.3941 H   0  0  0  0  0  0  0  0  0  0  0  0
  145.9811  131.8459  148.5255 H   0  0  0  0  0  0  0  0  0  0  0  0
  144.0742  133.4627  148.0217 H   0  0  0  0  0  0  0  0  0  0  0  0
  142.4620  132.9860  151.7963 H   0  0  0  0  0  0  0  0  0  0  0  0
  144.2634  131.3665  152.4885 H   0  0  0  0  0  0  0  0  0  0  0  0
  148.3620  129.3558  150.9824 H   0  0  0  0  0  0  0  0  0  0  0  0
  147.0733  127.1333  152.5121 H   0  0  0  0  0  0  0  0  0  0  0  0
  149.8420  128.3664  152.8441 H   0  0  0  0  0  0  0  0  0  0  0  0
  148.6547  128.0726  154.1180 H   0  0  0  0  0  0  0  0  0  0  0  0
  150.6164  126.2275  153.5486 H   0  0  0  0  0  0  0  0  0  0  0  0
  149.0014  125.7233  154.0303 H   0  0  0  0  0  0  0  0  0  0  0  0
  148.1278  124.0924  152.9003 H   0  0  0  0  0  0  0  0  0  0  0  0
  150.4760  123.4757  150.9023 H   0  0  0  0  0  0  0  0  0  0  0  0
  149.4415  122.2129  151.7482 H   0  0  0  0  0  0  0  0  0  0  0  0
  147.3907  123.1378  150.6357 H   0  0  0  0  0  0  0  0  0  0  0  0
  148.4171  124.4045  149.7856 H   0  0  0  0  0  0  0  0  0  0  0  0
  147.8667  126.1341  150.4553 H   0  0  0  0  0  0  0  0  0  0  0  0
  149.3237  127.1218  150.4646 H   0  0  0  0  0  0  0  0  0  0  0  0
  150.2537  125.5110  151.5039 H   0  0  0  0  0  0  0  0  0  0  0  0
  142.5018  133.8901  149.6665 H   0  0  0  0  0  0  0  0  0  0  0  0
  1  2  2  0  0  0  0
  2  3  1  0  0  0  0
  2 10  1  0  0  0  0
  3  4  1  0  0  0  0
  3 19  1  0  0  0  0
  4  9  1  0  0  0  0
  4  5  2  0  0  0  0
  5  6  1  0  0  0  0
  5 20  1  0  0  0  0
  6  7  2  0  0  0  0
  6 21  1  0  0  0  0
  7  8  1  0  0  0  0
  7 38  1  0  0  0  0
  8  9  2  0  0  0  0
  8 22  1  0  0  0  0
  9 23  1  0  0  0  0
 10 11  1  0  0  0  0
 10 24  1  0  0  0  0
 11 18  1  0  0  0  0
 11 12  1  0  0  0  0
 11 25  1  0  0  0  0
 12 13  1  0  0  0  0
 12 26  1  0  0  0  0
 12 27  1  0  0  0  0
 13 14  1  0  0  0  0
 13 28  1  0  0  0  0
 13 29  1  0  0  0  0
 14 15  1  0  0  0  0
 14 18  1  0  0  0  0
 14 37  1  0  0  0  0
 15 17  1  0  0  0  0
 15 16  1  0  0  0  0
 15 30  1  0  0  0  0
 16 17  1  0  0  0  0
 16 31  1  0  0  0  0
 16 32  1  0  0  0  0
 17 33  1  0  0  0  0
 17 34  1  0  0  0  0
 18 35  1  0  0  0  0
 18 36  1  0  0  0  0
M  CHG  1   7   1
M  CHG  1  14   1
M  END
> <s_m_source_file>
AV-unprocessed.smi

> <i_m_source_file_index>
3234

> <i_lp_mmshare_version>
43012

> <i_f3d_flags>
0

> <s_epik_input>
W2NIXTFbY0hdbltjSF1bY0hdYzFbTkhdQyg9TylbTkhdW0NAQEhdMltDSDJdW0NIMl1OKFtDSDJdMilbQ0hdM1tDSDJdW0NIMl0z

> <s_epik_cmdline>
J2VwaWtfcHl0aG9uJywgJy1waCcsICc3LjAnLCAnLXRuJywgJzgnLCAnLW1hJywgJzIwMCcsICctbWV0YWxfYmluZGluZycsICctaW1hZScsICc8aW5maWxlLm1hZT4nLCAnLW9tYWUnLCAnPG91dGZpbGUubWFlPic=

> <r_epik_Ionization_Penalty>
1.14489

> <r_epik_Ionization_Penalty_Charging>
1.14487

> <r_epik_Ionization_Penalty_Neutral>
1.95212e-05

> <r_epik_State_Penalty>
1.205

> <r_epik_Charging_Adjusted_Penalty>
2.34987

> <i_epik_Tot_Q>
2

> <i_epik_Tot_abs_Q>
2

> <r_epik_Metal_State_Penalty>
1.28709

> <b_epik_Metal_Only>
0

> <s_lp_Force_Field>
OPLS_2005

> <r_lp_Energy>
49.761

> <b_lp_Chiralities_Consistent>
1

> <s_lp_Variant>
AV-unprocessed.smi:3234-5

> <Gold.Version>
5.8.1

> <Gold.Id.Protein>
6NUR|6NUR_protein|mol2

> <Gold.PLP.Fitness>
45.0140

> <Gold.PLP.PLP>
-34.4535

> <Gold.PLP.part.hbond>
-3.0000

> <Gold.PLP.part.metal>
0.0000

> <Gold.PLP.part.buried>
-3.8279

> <Gold.PLP.part.nonpolar>
-28.0755

> <Gold.PLP.part.repulsive>
0.3919

> <Gold.PLP.ligand.clash>
0.0000

> <Gold.PLP.ligand.torsion>
1.1168

> <Gold.PLP.Chemscore.Hbond>
3.8432

> <Gold.PLP.Chemscore.CHOScore>
0.0000

> <Gold.PLP.Chemscore.Metal>
0.0000

> <Gold.Chemscore.Hbonds>
donor molecule, donor type, donor heavy atom, donor atom, acceptor molecule, acceptor atom, score
      L1  H     3    19       P1 10747  1.00
      L1  H     7    38       P1 10186  2.00
      L1  H    10    24       P1 10747  0.85

> <Gold.PLP.Chemscore.Internal.Correction>
1.2645

> <Gold.Rescore>
     Score         DG    S(hbond)    S(metal)    S(lipo)     H(rot)  DE(clash)    DE(int)     intcor
     18.13     -19.64       2.18        0.00      85.69       1.22       0.35       1.16       ----

> <Gold.Chemscore.Fitness>
18.1332

> <Gold.Chemscore.DG>
-19.6449

> <Gold.Chemscore.ZeroCoef>
-5.4800

> <Gold.Chemscore.Hbond>
2.1782

> <Gold.Chemscore.Metal>
0.0000

> <Gold.Chemscore.Lipo>
85.6857

> <Gold.Chemscore.Internal_Hbond>
0.0000

> <Gold.Chemscore.DEClash>
0.3535

> <Gold.Chemscore.DEInternal>
1.1582

> <Gold.Chemscore.Rot>
1.2248

> <Gold.Chemscore.Internal.Correction>
   9.000000E+99

> <Gold.Chemscore.Hbonds>
donor molecule, donor type, donor heavy atom, donor atom, acceptor molecule, acceptor atom, score
      L1  H     3    19       P1 10747  0.98
      L1  H     7    38       P1 10186  0.97
      L1  H    10    24       P1 10747  0.14

> <Gold.Chemscore.Hbond.Weighted>
-7.2752

> <Gold.Chemscore.Metal.Weighted>
-0.0000

> <Gold.Chemscore.Lipo.Weighted>
-10.0252

> <Gold.Chemscore.Internal_Hbond.Weighted>
0.0000

> <Gold.Chemscore.DEClash.Weighted>
0.3535

> <Gold.Chemscore.DEInternal.Weighted>
1.1582

> <Gold.Chemscore.Rot.Weighted>
3.1355

> <Gold.Chemscore.Internal.Correction.Weighted>
   9.000000E+99

> <Gold.Protein.RotatedTorsions>
[ 6907 6896 6895 6894 ] final -112.49 input  -60.11 | X-H torsion
[ 7974 7965 7964 7962 ] final   70.62 input  175.53 | X-H torsion
[ 8008 7997 7996 7995 ] final   48.41 input   59.86 | X-H torsion
[ 10167 10162 10161 10158 ] final   20.13 input  -65.29 | X-H torsion
[ 10718 10713 10712 10709 ] final   47.40 input   66.30 | X-H torsion
[ 10763 10752 10751 10750 ] final  -54.72 input  -60.55 | X-H torsion
[ 11005 11000 10999 10996 ] final  -52.38 input  -57.11 | X-H torsion

> <Gold.Protein.ActiveResidues>
 VAL166  LYS551  ARG553  GLY616  TRP617  ASP618  TYR619  PRO620  LYS621  CYS622 
 ASP623  PHE694  ASN695  SER759  ASP760  ASP761  ALA762  ILE779  LEU786  VAL792 
 PHE793  MET794  SER795  GLU796  ALA797  LYS798  CYS799  TRP800  GLU811  SER814 

> <Gold.Protein.RotatedAtoms>
  150.7762  133.9081  159.3361 H   0  0  0  0  0  0  0  0  0  0  0  0  # atno 6907 bound_to 6896
  151.6955  135.0937  160.0251 H   0  0  0  0  0  0  0  0  0  0  0  0  # atno 6908 bound_to 6896
  152.3799  133.6493  159.6188 H   0  0  0  0  0  0  0  0  0  0  0  0  # atno 6909 bound_to 6896
  145.7759  139.2865  143.1294 H   0  0  0  0  0  0  0  0  0  0  0  0  # atno 7974 bound_to 7965
  155.3851  140.3430  155.4248 H   0  0  0  0  0  0  0  0  0  0  0  0  # atno 8008 bound_to 7997
  156.1588  140.1594  156.8680 H   0  0  0  0  0  0  0  0  0  0  0  0  # atno 8009 bound_to 7997
  154.5120  140.0787  156.7990 H   0  0  0  0  0  0  0  0  0  0  0  0  # atno 8010 bound_to 7997
  140.5527  143.9481  150.6588 H   0  0  0  0  0  0  0  0  0  0  0  0  # atno 10167 bound_to 10162
  157.4581  130.8179  149.7857 H   0  0  0  0  0  0  0  0  0  0  0  0  # atno 10718 bound_to 10713
  154.1794  135.6446  153.5030 H   0  0  0  0  0  0  0  0  0  0  0  0  # atno 10763 bound_to 10752
  153.0063  135.5402  154.6530 H   0  0  0  0  0  0  0  0  0  0  0  0  # atno 10764 bound_to 10752
  154.5890  135.2932  155.0627 H   0  0  0  0  0  0  0  0  0  0  0  0  # atno 10765 bound_to 10752
  141.0921  133.6631  156.4016 H   0  0  0  0  0  0  0  0  0  0  0  0  # atno 11005 bound_to 11000
  146.0123  140.8424  142.9965 LP  0  0  0  0  0  0  0  0  0  0  0  0  # atno 17320 bound_to 7965
  144.6804  140.2508  143.7332 LP  0  0  0  0  0  0  0  0  0  0  0  0  # atno 17321 bound_to 7965
  140.2911  143.3324  152.1062 LP  0  0  0  0  0  0  0  0  0  0  0  0  # atno 17342 bound_to 10162
  139.5034  144.6755  151.6140 LP  0  0  0  0  0  0  0  0  0  0  0  0  # atno 17343 bound_to 10162
  156.0016  130.3877  150.2584 LP  0  0  0  0  0  0  0  0  0  0  0  0  # atno 17370 bound_to 10713
  157.0760  131.0130  151.3173 LP  0  0  0  0  0  0  0  0  0  0  0  0  # atno 17371 bound_to 10713
  140.5227  134.6289  157.5323 LP  0  0  0  0  0  0  0  0  0  0  0  0  # atno 17394 bound_to 11000
  139.9749  134.7231  155.9969 LP  0  0  0  0  0  0  0  0  0  0  0  0  # atno 17395 bound_to 11000

$$$$
