AV-unprocessed.smi:308|AV-procd|sdf|2290|dock5
  -GOLD-   2262022193D 1   1.00000     0.00000
 Structure written by MMmdl.
 50 51  0  0  0  0  0  0  0  0  4 V2000
  143.7913  133.3355  150.9089 C   0  0  0  0  0  0  0  0  0  0  0  0
  145.1706  133.9060  150.5352 C   0  0  2  0  0  0  0  0  0  0  0  0
  146.3172  133.2724  151.3445 C   0  0  0  0  0  0  0  0  0  0  0  0
  146.3490  133.7735  152.7993 C   0  0  0  0  0  0  0  0  0  0  0  0
  146.4268  135.2594  152.8527 N   0  3  2  0  0  0  0  0  0  0  0  0
  146.6215  135.8028  154.2246 C   0  0  0  0  0  0  0  0  0  0  0  0
  146.7723  137.3369  154.2263 C   0  0  0  0  0  0  0  0  0  0  0  0
  147.6469  137.7483  155.3274 N   0  5  0  0  0  0  0  0  0  0  0  0
  148.0868  139.0180  155.5367 C   0  0  0  0  0  0  0  0  0  0  0  0
  147.6727  140.0557  155.0080 O   0  0  0  0  0  0  0  0  0  0  0  0
  149.1006  139.0617  156.4197 N   0  0  0  0  0  0  0  0  0  0  0  0
  149.8030  140.1882  156.9271 C   0  0  0  0  0  0  0  0  0  0  0  0
  150.6895  139.9809  158.0036 C   0  0  0  0  0  0  0  0  0  0  0  0
  151.3919  141.0722  158.5547 C   0  0  0  0  0  0  0  0  0  0  0  0
  151.1951  142.3737  158.0310 C   0  0  0  0  0  0  0  0  0  0  0  0
  151.8588  143.5159  158.5287 N   0  0  0  0  0  0  0  0  0  0  0  0
  152.4796  143.4757  159.8481 C   0  0  0  0  0  0  0  0  0  0  0  0
  151.9530  144.7152  157.7069 C   0  0  0  0  0  0  0  0  0  0  0  0
  150.3214  142.5247  157.0057 N   0  3  0  0  0  0  0  0  0  0  0  0
  149.6294  141.5080  156.4481 C   0  0  0  0  0  0  0  0  0  0  0  0
  145.2909  135.8946  152.1369 C   0  0  0  0  0  0  0  0  0  0  0  0
  145.2360  135.4385  150.6679 C   0  0  0  0  0  0  0  0  0  0  0  0
  143.5311  133.5331  151.9485 H   0  0  0  0  0  0  0  0  0  0  0  0
  143.7628  132.2557  150.7618 H   0  0  0  0  0  0  0  0  0  0  0  0
  143.0091  133.7702  150.2859 H   0  0  0  0  0  0  0  0  0  0  0  0
  145.3322  133.6585  149.4852 H   0  0  0  0  0  0  0  0  0  0  0  0
  146.2390  132.1848  151.3241 H   0  0  0  0  0  0  0  0  0  0  0  0
  147.2680  133.5154  150.8679 H   0  0  0  0  0  0  0  0  0  0  0  0
  145.4659  133.4325  153.3405 H   0  0  0  0  0  0  0  0  0  0  0  0
  147.2103  133.3365  153.3051 H   0  0  0  0  0  0  0  0  0  0  0  0
  145.7699  135.5460  154.8571 H   0  0  0  0  0  0  0  0  0  0  0  0
  147.4875  135.3338  154.6938 H   0  0  0  0  0  0  0  0  0  0  0  0
  147.1737  137.6522  153.2633 H   0  0  0  0  0  0  0  0  0  0  0  0
  145.7789  137.7823  154.2930 H   0  0  0  0  0  0  0  0  0  0  0  0
  149.4437  138.1625  156.7246 H   0  0  0  0  0  0  0  0  0  0  0  0
  150.8377  138.9889  158.4053 H   0  0  0  0  0  0  0  0  0  0  0  0
  152.0714  140.8902  159.3736 H   0  0  0  0  0  0  0  0  0  0  0  0
  151.7317  143.2784  160.6168 H   0  0  0  0  0  0  0  0  0  0  0  0
  152.9638  144.4222  160.0891 H   0  0  0  0  0  0  0  0  0  0  0  0
  153.2377  142.6931  159.8916 H   0  0  0  0  0  0  0  0  0  0  0  0
  152.4712  144.4993  156.7721 H   0  0  0  0  0  0  0  0  0  0  0  0
  152.5043  145.5045  158.2184 H   0  0  0  0  0  0  0  0  0  0  0  0
  150.9594  145.1000  157.4751 H   0  0  0  0  0  0  0  0  0  0  0  0
  148.9582  141.7971  155.6535 H   0  0  0  0  0  0  0  0  0  0  0  0
  144.3573  135.6618  152.6506 H   0  0  0  0  0  0  0  0  0  0  0  0
  145.4039  136.9791  152.1639 H   0  0  0  0  0  0  0  0  0  0  0  0
  146.1263  135.8031  150.1532 H   0  0  0  0  0  0  0  0  0  0  0  0
  144.3859  135.8993  150.1632 H   0  0  0  0  0  0  0  0  0  0  0  0
  147.2584  135.5308  152.3462 H   0  0  0  0  0  0  0  0  0  0  0  0
  150.1734  143.4629  156.6338 H   0  0  0  0  0  0  0  0  0  0  0  0
  1  2  1  0  0  0  0
  1 23  1  0  0  0  0
  1 24  1  0  0  0  0
  1 25  1  0  0  0  0
  2 22  1  0  0  0  0
  2  3  1  0  0  0  0
  2 26  1  0  0  0  0
  3  4  1  0  0  0  0
  3 27  1  0  0  0  0
  3 28  1  0  0  0  0
  4  5  1  0  0  0  0
  4 29  1  0  0  0  0
  4 30  1  0  0  0  0
  5  6  1  0  0  0  0
  5 21  1  0  0  0  0
  5 49  1  0  0  0  0
  6  7  1  0  0  0  0
  6 31  1  0  0  0  0
  6 32  1  0  0  0  0
  7  8  1  0  0  0  0
  7 33  1  0  0  0  0
  7 34  1  0  0  0  0
  8  9  1  0  0  0  0
  9 10  2  0  0  0  0
  9 11  1  0  0  0  0
 11 12  1  0  0  0  0
 11 35  1  0  0  0  0
 12 20  1  0  0  0  0
 12 13  2  0  0  0  0
 13 14  1  0  0  0  0
 13 36  1  0  0  0  0
 14 15  2  0  0  0  0
 14 37  1  0  0  0  0
 15 16  1  0  0  0  0
 15 19  1  0  0  0  0
 16 17  1  0  0  0  0
 16 18  1  0  0  0  0
 17 38  1  0  0  0  0
 17 39  1  0  0  0  0
 17 40  1  0  0  0  0
 18 41  1  0  0  0  0
 18 42  1  0  0  0  0
 18 43  1  0  0  0  0
 19 20  2  0  0  0  0
 19 50  1  0  0  0  0
 20 44  1  0  0  0  0
 21 22  1  0  0  0  0
 21 45  1  0  0  0  0
 21 46  1  0  0  0  0
 22 47  1  0  0  0  0
 22 48  1  0  0  0  0
M  CHG  1   5   1
M  CHG  1   8  -1
M  CHG  1  19   1
M  END
> <s_m_source_file>
AV-unprocessed.smi

> <i_m_source_file_index>
308

> <i_lp_mmshare_version>
43012

> <i_f3d_flags>
0

> <s_epik_input>
W0NIM11bQ0hdMVtDSDJdW0NIMl1OKFtDSDJdW0NIMl0xKVtDSDJdW0NIMl1bTkhdQyg9TylbTkhdYzJbY0hdW2NIXWMoTihbQ0gzXSlbQ0gzXSluW2NIXTI=

> <s_epik_cmdline>
J2VwaWtfcHl0aG9uJywgJy1waCcsICc3LjAnLCAnLXRuJywgJzgnLCAnLW1hJywgJzIwMCcsICctbWV0YWxfYmluZGluZycsICctaW1hZScsICc8aW5maWxlLm1hZT4nLCAnLW9tYWUnLCAnPG91dGZpbGUubWFlPic=

> <r_lp_tautomer_probability>
0.999994

> <r_epik_Ionization_Penalty>
7.42107

> <r_epik_Ionization_Penalty_Charging>
7.42107

> <r_epik_Ionization_Penalty_Neutral>
3.68925e-06

> <r_epik_State_Penalty>
7.0982

> <r_epik_Charging_Adjusted_Penalty>
14.5193

> <i_epik_Tot_Q>
1

> <i_epik_Tot_abs_Q>
3

> <r_epik_Metal_State_Penalty>
3.28646

> <b_epik_Metal_Only>
1

> <s_lp_Force_Field>
OPLS_2005

> <r_lp_Energy>
21.4752

> <b_lp_Chiralities_Consistent>
1

> <s_lp_Variant>
AV-unprocessed.smi:308-6

> <Gold.Version>
5.8.1

> <Gold.Id.Protein>
6NUR|6NUR_protein|mol2

> <Gold.PLP.Fitness>
46.8775

> <Gold.PLP.PLP>
-35.6443

> <Gold.PLP.part.hbond>
-2.0000

> <Gold.PLP.part.metal>
0.0000

> <Gold.PLP.part.buried>
-5.6358

> <Gold.PLP.part.nonpolar>
-28.8458

> <Gold.PLP.part.repulsive>
0.1167

> <Gold.PLP.ligand.clash>
0.0000

> <Gold.PLP.ligand.torsion>
0.4473

> <Gold.PLP.Chemscore.Hbond>
4.0000

> <Gold.PLP.Chemscore.CHOScore>
0.0000

> <Gold.PLP.Chemscore.Metal>
0.0000

> <Gold.Chemscore.Hbonds>
donor molecule, donor type, donor heavy atom, donor atom, acceptor molecule, acceptor atom, score
      L1  H     5    49       P1  7948  2.00
      L1  H    19    50       P1  8028  1.84

> <Gold.PLP.Chemscore.Internal.Correction>
0.1280

> <Gold.Rescore>
     Score         DG    S(hbond)    S(metal)    S(lipo)     H(rot)  DE(clash)    DE(int)     intcor
     16.17     -18.11       1.96        0.00      83.22       1.42       0.16       1.78       ----

> <Gold.Chemscore.Fitness>
16.1665

> <Gold.Chemscore.DG>
-18.1067

> <Gold.Chemscore.ZeroCoef>
-5.4800

> <Gold.Chemscore.Hbond>
1.9566

> <Gold.Chemscore.Metal>
0.0000

> <Gold.Chemscore.Lipo>
83.2238

> <Gold.Chemscore.Internal_Hbond>
0.0000

> <Gold.Chemscore.DEClash>
0.1617

> <Gold.Chemscore.DEInternal>
1.7785

> <Gold.Chemscore.Rot>
1.4241

> <Gold.Chemscore.Internal.Correction>
   9.000000E+99

> <Gold.Chemscore.Hbonds>
donor molecule, donor type, donor heavy atom, donor atom, acceptor molecule, acceptor atom, score
      L1  H     5    49       P1  7948  1.00
      L1  H    19    50       P1  8028  0.84

> <Gold.Chemscore.Hbond.Weighted>
-6.5351

> <Gold.Chemscore.Metal.Weighted>
-0.0000

> <Gold.Chemscore.Lipo.Weighted>
-9.7372

> <Gold.Chemscore.Internal_Hbond.Weighted>
0.0000

> <Gold.Chemscore.DEClash.Weighted>
0.1617

> <Gold.Chemscore.DEInternal.Weighted>
1.7785

> <Gold.Chemscore.Rot.Weighted>
3.6456

> <Gold.Chemscore.Internal.Correction.Weighted>
   9.000000E+99

> <Gold.Protein.RotatedTorsions>
[ 6907 6896 6895 6894 ] final   15.81 input  -60.11 | X-H torsion
[ 7974 7965 7964 7962 ] final  178.50 input  175.53 | X-H torsion
[ 8008 7997 7996 7995 ] final  148.97 input   59.86 | X-H torsion
[ 10167 10162 10161 10158 ] final   16.18 input  -65.29 | X-H torsion
[ 10718 10713 10712 10709 ] final  -61.26 input   66.30 | X-H torsion
[ 10763 10752 10751 10750 ] final  158.02 input  -60.55 | X-H torsion
[ 11005 11000 10999 10996 ] final  175.80 input  -57.11 | X-H torsion

> <Gold.Protein.ActiveResidues>
 VAL166  LYS551  ARG553  GLY616  TRP617  ASP618  TYR619  PRO620  LYS621  CYS622 
 ASP623  PHE694  ASN695  SER759  ASP760  ASP761  ALA762  ILE779  LEU786  VAL792 
 PHE793  MET794  SER795  GLU796  ALA797  LYS798  CYS799  TRP800  GLU811  SER814 

> <Gold.Protein.RotatedAtoms>
  151.8240  135.0643  160.0428 H   0  0  0  0  0  0  0  0  0  0  0  0  # atno 6907 bound_to 6896
  152.2930  133.5575  159.5578 H   0  0  0  0  0  0  0  0  0  0  0  0  # atno 6908 bound_to 6896
  150.7238  134.0317  159.3778 H   0  0  0  0  0  0  0  0  0  0  0  0  # atno 6909 bound_to 6896
  144.7155  140.0407  143.6437 H   0  0  0  0  0  0  0  0  0  0  0  0  # atno 7974 bound_to 7965
  156.2772  140.2114  156.5783 H   0  0  0  0  0  0  0  0  0  0  0  0  # atno 8008 bound_to 7997
  154.7079  140.0515  157.0545 H   0  0  0  0  0  0  0  0  0  0  0  0  # atno 8009 bound_to 7997
  155.0645  140.3170  155.4653 H   0  0  0  0  0  0  0  0  0  0  0  0  # atno 8010 bound_to 7997
  140.5815  143.8971  150.6794 H   0  0  0  0  0  0  0  0  0  0  0  0  # atno 10167 bound_to 10162
  156.0933  130.4196  150.0970 H   0  0  0  0  0  0  0  0  0  0  0  0  # atno 10718 bound_to 10713
  154.2095  135.2786  155.2963 H   0  0  0  0  0  0  0  0  0  0  0  0  # atno 10763 bound_to 10752
  154.5790  135.5595  153.7170 H   0  0  0  0  0  0  0  0  0  0  0  0  # atno 10764 bound_to 10752
  153.0067  135.6340  154.2234 H   0  0  0  0  0  0  0  0  0  0  0  0  # atno 10765 bound_to 10752
  140.3662  134.7070  157.4363 H   0  0  0  0  0  0  0  0  0  0  0  0  # atno 11005 bound_to 11000
  146.0026  139.3103  143.0918 LP  0  0  0  0  0  0  0  0  0  0  0  0  # atno 17320 bound_to 7965
  145.8775  140.9382  143.0618 LP  0  0  0  0  0  0  0  0  0  0  0  0  # atno 17321 bound_to 7965
  140.2472  143.3620  152.1437 LP  0  0  0  0  0  0  0  0  0  0  0  0  # atno 17342 bound_to 10162
  139.5172  144.6989  151.5550 LP  0  0  0  0  0  0  0  0  0  0  0  0  # atno 17343 bound_to 10162
  156.8974  130.9609  151.3580 LP  0  0  0  0  0  0  0  0  0  0  0  0  # atno 17370 bound_to 10713
  157.6088  130.8567  149.8919 LP  0  0  0  0  0  0  0  0  0  0  0  0  # atno 17371 bound_to 10713
  140.0588  134.6026  155.8774 LP  0  0  0  0  0  0  0  0  0  0  0  0  # atno 17394 bound_to 11000
  141.1969  133.6593  156.5714 LP  0  0  0  0  0  0  0  0  0  0  0  0  # atno 17395 bound_to 11000

$$$$
