AV-unprocessed.smi:2217|AV-procd|sdf|8970|dock5
  -GOLD-   2272012183D 1   1.00000     0.00000
 Structure written by MMmdl.
 45 48  0  0  0  0  0  0  0  0  1 V2000
  146.3145  133.1137  161.7597 C   0  0  0  0  0  0  0  0  0  0  0  0
  147.0960  134.0484  160.8608 C   0  0  0  0  0  0  0  0  0  0  0  0
  147.0976  135.4383  161.0818 C   0  0  0  0  0  0  0  0  0  0  0  0
  147.8437  136.2626  160.2174 C   0  0  0  0  0  0  0  0  0  0  0  0
  148.5731  135.6832  159.1547 C   0  0  0  0  0  0  0  0  0  0  0  0
  149.2831  136.6195  158.3449 N   0  0  0  0  0  0  0  0  0  0  0  0
  148.9916  137.8872  157.9811 C   0  0  0  0  0  0  0  0  0  0  0  0
  147.9571  138.4354  158.3572 O   0  0  0  0  0  0  0  0  0  0  0  0
  149.8940  138.4952  157.1972 N   0  0  0  0  0  0  0  0  0  0  0  0
  149.7943  139.8476  156.6500 C   0  0  2  0  0  0  0  0  0  0  0  0
  150.3728  139.9571  155.2202 C   0  0  2  0  0  0  0  0  0  0  0  0
  150.7049  138.7481  154.3792 C   0  0  0  0  0  0  0  0  0  0  0  0
  152.2063  138.5649  154.6220 C   0  0  0  0  0  0  0  0  0  0  0  0
  152.4713  139.2647  155.8363 O   0  0  0  0  0  0  0  0  0  0  0  0
  151.6703  140.4446  155.8456 C   0  0  2  0  0  0  0  0  0  0  0  0
  150.9312  140.7630  157.1622 C   0  0  0  0  0  0  0  0  0  0  0  0
  151.6486  140.4438  158.4742 C   0  0  0  0  0  0  0  0  0  0  0  0
  152.4479  141.6908  158.8539 C   0  0  0  0  0  0  0  0  0  0  0  0
  151.7120  142.8627  158.1973 C   0  0  0  0  0  0  0  0  0  0  0  0
  150.5836  142.2366  157.3704 C   0  0  0  0  0  0  0  0  0  0  0  0
  148.5622  134.3408  158.9527 N   0  0  0  0  0  0  0  0  0  0  0  0
  147.8481  133.5500  159.7803 C   0  0  0  0  0  0  0  0  0  0  0  0
  145.5157  133.6454  162.2775 H   0  0  0  0  0  0  0  0  0  0  0  0
  146.9741  132.6716  162.5066 H   0  0  0  0  0  0  0  0  0  0  0  0
  145.8644  132.3088  161.1780 H   0  0  0  0  0  0  0  0  0  0  0  0
  146.5382  135.8695  161.8988 H   0  0  0  0  0  0  0  0  0  0  0  0
  147.8537  137.3315  160.3741 H   0  0  0  0  0  0  0  0  0  0  0  0
  150.1728  136.2839  158.0058 H   0  0  0  0  0  0  0  0  0  0  0  0
  150.7160  137.9667  156.9394 H   0  0  0  0  0  0  0  0  0  0  0  0
  148.8067  140.3026  156.7422 H   0  0  0  0  0  0  0  0  0  0  0  0
  149.8815  140.7580  154.6653 H   0  0  0  0  0  0  0  0  0  0  0  0
  150.1431  137.8664  154.6871 H   0  0  0  0  0  0  0  0  0  0  0  0
  150.4962  138.9121  153.3218 H   0  0  0  0  0  0  0  0  0  0  0  0
  152.4960  137.5162  154.6950 H   0  0  0  0  0  0  0  0  0  0  0  0
  152.7824  139.0230  153.8169 H   0  0  0  0  0  0  0  0  0  0  0  0
  152.1277  141.2892  155.3281 H   0  0  0  0  0  0  0  0  0  0  0  0
  150.9162  140.2340  159.2552 H   0  0  0  0  0  0  0  0  0  0  0  0
  152.2925  139.5666  158.4047 H   0  0  0  0  0  0  0  0  0  0  0  0
  152.5320  141.8056  159.9348 H   0  0  0  0  0  0  0  0  0  0  0  0
  153.4586  141.6201  158.4500 H   0  0  0  0  0  0  0  0  0  0  0  0
  151.3161  143.5590  158.9373 H   0  0  0  0  0  0  0  0  0  0  0  0
  152.3951  143.4197  157.5552 H   0  0  0  0  0  0  0  0  0  0  0  0
  150.4403  142.7690  156.4292 H   0  0  0  0  0  0  0  0  0  0  0  0
  149.6459  142.3213  157.9216 H   0  0  0  0  0  0  0  0  0  0  0  0
  147.8796  132.4907  159.5717 H   0  0  0  0  0  0  0  0  0  0  0  0
  1  2  1  0  0  0  0
  1 23  1  0  0  0  0
  1 24  1  0  0  0  0
  1 25  1  0  0  0  0
  2 22  1  0  0  0  0
  2  3  2  0  0  0  0
  3  4  1  0  0  0  0
  3 26  1  0  0  0  0
  4  5  2  0  0  0  0
  4 27  1  0  0  0  0
  5  6  1  0  0  0  0
  5 21  1  0  0  0  0
  6  7  1  0  0  0  0
  6 28  1  0  0  0  0
  7  8  2  0  0  0  0
  7  9  1  0  0  0  0
  9 10  1  0  0  0  0
  9 29  1  0  0  0  0
 10 16  1  0  0  0  0
 10 11  1  0  0  0  0
 10 30  1  0  0  0  0
 11 15  1  0  0  0  0
 11 12  1  0  0  0  0
 11 31  1  0  0  0  0
 12 13  1  0  0  0  0
 12 32  1  0  0  0  0
 12 33  1  0  0  0  0
 13 14  1  0  0  0  0
 13 34  1  0  0  0  0
 13 35  1  0  0  0  0
 14 15  1  0  0  0  0
 15 16  1  0  0  0  0
 15 36  1  0  0  0  0
 16 20  1  0  0  0  0
 16 17  1  0  0  0  0
 17 18  1  0  0  0  0
 17 37  1  0  0  0  0
 17 38  1  0  0  0  0
 18 19  1  0  0  0  0
 18 39  1  0  0  0  0
 18 40  1  0  0  0  0
 19 20  1  0  0  0  0
 19 41  1  0  0  0  0
 19 42  1  0  0  0  0
 20 43  1  0  0  0  0
 20 44  1  0  0  0  0
 21 22  2  0  0  0  0
 22 45  1  0  0  0  0
M  END
> <s_m_source_file>
AV-unprocessed.smi

> <i_m_source_file_index>
2217

> <i_lp_mmshare_version>
43012

> <i_f3d_flags>
0

> <s_epik_input>
W0NIM11jMVtjSF1bY0hdYyhuW2NIXTEpW05IXUMoPU8pW05IXVtDQEBIXTJbQ0BASF0oW0NIMl1bQ0gyXU8zKVtDQEhdM0MyNFtDSDJdW0NIMl1bQ0gyXVtDSDJdNA==

> <s_epik_cmdline>
J2VwaWtfcHl0aG9uJywgJy1waCcsICc3LjAnLCAnLXRuJywgJzgnLCAnLW1hJywgJzIwMCcsICctbWV0YWxfYmluZGluZycsICctaW1hZScsICc8aW5maWxlLm1hZT4nLCAnLW9tYWUnLCAnPG91dGZpbGUubWFlPic=

> <r_lp_tautomer_probability>
1

> <r_epik_Ionization_Penalty>
6.14796e-05

> <r_epik_Ionization_Penalty_Charging>
0

> <r_epik_Ionization_Penalty_Neutral>
6.14796e-05

> <r_epik_State_Penalty>
-0

> <r_epik_Charging_Adjusted_Penalty>
0

> <i_epik_Tot_Q>
0

> <i_epik_Tot_abs_Q>
0

> <r_epik_Metal_State_Penalty>
-0

> <b_epik_Metal_Only>
0

> <s_lp_Force_Field>
OPLS_2005

> <r_lp_Energy>
58.8698

> <b_lp_Chiralities_Consistent>
1

> <s_lp_Variant>
AV-unprocessed.smi:2217-3

> <Gold.Version>
5.8.1

> <Gold.Id.Protein>
6NUR|6NUR_protein|mol2

> <Gold.PLP.Fitness>
45.6604

> <Gold.PLP.PLP>
-40.2563

> <Gold.PLP.part.hbond>
-3.0000

> <Gold.PLP.part.metal>
0.0000

> <Gold.PLP.part.buried>
-5.2540

> <Gold.PLP.part.nonpolar>
-32.9601

> <Gold.PLP.part.repulsive>
0.1877

> <Gold.PLP.ligand.clash>
0.0000

> <Gold.PLP.ligand.torsion>
0.4007

> <Gold.PLP.Chemscore.Hbond>
2.0000

> <Gold.PLP.Chemscore.CHOScore>
0.0000

> <Gold.PLP.Chemscore.Metal>
0.0000

> <Gold.Chemscore.Hbonds>
donor molecule, donor type, donor heavy atom, donor atom, acceptor molecule, acceptor atom, score
      P1  H  6896  6908       L1    21  0.43
      P1  H  7997  8009       L1    14  0.76

> <Gold.PLP.Chemscore.Internal.Correction>
0.2055

> <Gold.Rescore>
     Score         DG    S(hbond)    S(metal)    S(lipo)     H(rot)  DE(clash)    DE(int)     intcor
     16.62     -18.35       0.84        0.00     107.84       1.00       0.04       1.68       ----

> <Gold.Chemscore.Fitness>
16.6207

> <Gold.Chemscore.DG>
-18.3453

> <Gold.Chemscore.ZeroCoef>
-5.4800

> <Gold.Chemscore.Hbond>
0.8408

> <Gold.Chemscore.Metal>
0.0000

> <Gold.Chemscore.Lipo>
107.8379

> <Gold.Chemscore.Internal_Hbond>
0.0000

> <Gold.Chemscore.DEClash>
0.0440

> <Gold.Chemscore.DEInternal>
1.6807

> <Gold.Chemscore.Rot>
1.0000

> <Gold.Chemscore.Internal.Correction>
   9.000000E+99

> <Gold.Chemscore.Hbonds>
donor molecule, donor type, donor heavy atom, donor atom, acceptor molecule, acceptor atom, score
      P1  H  6896  6908       L1    21  0.02
      P1  H  7997  8009       L1    14  0.16

> <Gold.Chemscore.Hbond.Weighted>
-2.8083

> <Gold.Chemscore.Metal.Weighted>
-0.0000

> <Gold.Chemscore.Lipo.Weighted>
-12.6170

> <Gold.Chemscore.Internal_Hbond.Weighted>
0.0000

> <Gold.Chemscore.DEClash.Weighted>
0.0440

> <Gold.Chemscore.DEInternal.Weighted>
1.6807

> <Gold.Chemscore.Rot.Weighted>
2.5600

> <Gold.Chemscore.Internal.Correction.Weighted>
   9.000000E+99

> <Gold.Protein.RotatedTorsions>
[ 6907 6896 6895 6894 ] final  147.82 input  -60.11 | X-H torsion
[ 7974 7965 7964 7962 ] final  -18.38 input  175.53 | X-H torsion
[ 8008 7997 7996 7995 ] final -147.85 input   59.86 | X-H torsion
[ 10167 10162 10161 10158 ] final  -64.64 input  -65.29 | X-H torsion
[ 10718 10713 10712 10709 ] final  -24.41 input   66.30 | X-H torsion
[ 10763 10752 10751 10750 ] final   81.22 input  -60.55 | X-H torsion
[ 11005 11000 10999 10996 ] final  -41.10 input  -57.11 | X-H torsion

> <Gold.Protein.ActiveResidues>
 VAL166  LYS551  ARG553  GLY616  TRP617  ASP618  TYR619  PRO620  LYS621  CYS622 
 ASP623  PHE694  ASN695  SER759  ASP760  ASP761  ALA762  ILE779  LEU786  VAL792 
 PHE793  MET794  SER795  GLU796  ALA797  LYS798  CYS799  TRP800  GLU811  SER814 

> <Gold.Protein.RotatedAtoms>
  152.1496  133.4514  159.4806 H   0  0  0  0  0  0  0  0  0  0  0  0  # atno 6907 bound_to 6896
  150.6894  134.2205  159.4404 H   0  0  0  0  0  0  0  0  0  0  0  0  # atno 6908 bound_to 6896
  152.0101  134.9881  160.0618 H   0  0  0  0  0  0  0  0  0  0  0  0  # atno 6909 bound_to 6896
  146.1895  140.3913  142.8463 H   0  0  0  0  0  0  0  0  0  0  0  0  # atno 7974 bound_to 7965
  155.5821  140.0644  157.2780 H   0  0  0  0  0  0  0  0  0  0  0  0  # atno 8008 bound_to 7997
  154.4329  140.1850  156.1034 H   0  0  0  0  0  0  0  0  0  0  0  0  # atno 8009 bound_to 7997
  156.0297  140.3308  155.7130 H   0  0  0  0  0  0  0  0  0  0  0  0  # atno 8010 bound_to 7997
  140.5786  143.2324  151.6389 H   0  0  0  0  0  0  0  0  0  0  0  0  # atno 10167 bound_to 10162
  156.4781  130.4539  149.6828 H   0  0  0  0  0  0  0  0  0  0  0  0  # atno 10718 bound_to 10713
  153.1098  135.4773  154.9016 H   0  0  0  0  0  0  0  0  0  0  0  0  # atno 10763 bound_to 10752
  154.7469  135.3096  154.8631 H   0  0  0  0  0  0  0  0  0  0  0  0  # atno 10764 bound_to 10752
  153.9223  135.6853  153.4801 H   0  0  0  0  0  0  0  0  0  0  0  0  # atno 10765 bound_to 10752
  141.0222  133.6857  156.2412 H   0  0  0  0  0  0  0  0  0  0  0  0  # atno 11005 bound_to 11000
  144.8459  140.6929  143.6199 LP  0  0  0  0  0  0  0  0  0  0  0  0  # atno 17320 bound_to 7965
  145.3837  139.1631  143.4267 LP  0  0  0  0  0  0  0  0  0  0  0  0  # atno 17321 bound_to 7965
  139.5157  144.3370  152.0775 LP  0  0  0  0  0  0  0  0  0  0  0  0  # atno 17342 bound_to 10162
  140.2517  144.4162  150.6219 LP  0  0  0  0  0  0  0  0  0  0  0  0  # atno 17343 bound_to 10162
  156.3550  130.7452  151.2416 LP  0  0  0  0  0  0  0  0  0  0  0  0  # atno 17370 bound_to 10713
  157.7486  131.0366  150.4418 LP  0  0  0  0  0  0  0  0  0  0  0  0  # atno 17371 bound_to 10713
  140.6553  134.5024  157.5580 LP  0  0  0  0  0  0  0  0  0  0  0  0  # atno 17394 bound_to 11000
  139.9153  134.8259  156.1387 LP  0  0  0  0  0  0  0  0  0  0  0  0  # atno 17395 bound_to 11000

$$$$
