AV-unprocessed.smi:1535|AV-procd|sdf|6172|dock1
  -GOLD-   22720 6323D 1   1.00000     0.00000
 Structure written by MMmdl.
 46 47  0  0  0  0  0  0  0  0  1 V2000
  152.9369  143.1952  161.5292 C   0  0  0  0  0  0  0  0  0  0  0  0
  152.3735  142.7634  160.1868 C   0  0  0  0  0  0  0  0  0  0  0  0
  152.8615  141.5815  159.5853 C   0  0  0  0  0  0  0  0  0  0  0  0
  152.3634  141.1443  158.3383 C   0  0  0  0  0  0  0  0  0  0  0  0
  152.6912  140.0342  157.5796 N   0  0  0  0  0  0  0  0  0  0  0  0
  151.8882  140.1810  156.5298 C   0  0  0  0  0  0  0  0  0  0  0  0
  151.0797  141.2585  156.5167 N   0  0  0  0  0  0  0  0  0  0  0  0
  150.1272  141.6272  155.4815 C   0  0  0  0  0  0  0  0  0  0  0  0
  149.5355  140.4180  154.7254 C   0  0  2  0  0  0  0  0  0  0  0  0
  148.7260  140.8917  153.6671 O   0  0  0  0  0  0  0  0  0  0  0  0
  148.6712  139.5021  155.6213 C   0  0  0  0  0  0  0  0  0  0  0  0
  149.3550  138.9165  156.7778 N   0  0  0  0  0  0  0  0  0  0  0  0
  149.1689  139.7285  157.9793 C   0  0  0  0  0  0  0  0  0  0  0  0
  148.8955  137.5430  156.9962 C   0  0  0  0  0  0  0  0  0  0  0  0
  149.5723  136.7958  158.1614 C   0  0  1  0  0  0  0  0  0  0  0  0
  151.0331  137.2328  158.3253 C   0  0  0  0  0  0  0  0  0  0  0  0
  148.8317  136.9787  159.4210 C   0  0  0  0  0  0  0  0  0  0  0  0
  148.2498  137.1223  160.4108 N   0  0  0  0  0  0  0  0  0  0  0  0
  151.3565  141.9290  157.7038 C   0  0  0  0  0  0  0  0  0  0  0  0
  150.8635  143.1072  158.2924 C   0  0  0  0  0  0  0  0  0  0  0  0
  151.3720  143.5295  159.5384 C   0  0  0  0  0  0  0  0  0  0  0  0
  150.8315  144.8020  160.1659 C   0  0  0  0  0  0  0  0  0  0  0  0
  153.6466  142.4638  161.9162 H   0  0  0  0  0  0  0  0  0  0  0  0
  152.1387  143.3056  162.2632 H   0  0  0  0  0  0  0  0  0  0  0  0
  153.4560  144.1492  161.4345 H   0  0  0  0  0  0  0  0  0  0  0  0
  153.6248  140.9981  160.0785 H   0  0  0  0  0  0  0  0  0  0  0  0
  151.8898  139.4669  155.7191 H   0  0  0  0  0  0  0  0  0  0  0  0
  149.3299  142.2154  155.9382 H   0  0  0  0  0  0  0  0  0  0  0  0
  150.6287  142.2914  154.7770 H   0  0  0  0  0  0  0  0  0  0  0  0
  150.3668  139.8673  154.2888 H   0  0  0  0  0  0  0  0  0  0  0  0
  149.1329  140.6464  152.8498 H   0  0  0  0  0  0  0  0  0  0  0  0
  147.8002  140.0586  155.9700 H   0  0  0  0  0  0  0  0  0  0  0  0
  148.2756  138.7014  154.9945 H   0  0  0  0  0  0  0  0  0  0  0  0
  149.7176  139.3164  158.8247 H   0  0  0  0  0  0  0  0  0  0  0  0
  148.1152  139.7886  158.2555 H   0  0  0  0  0  0  0  0  0  0  0  0
  149.5406  140.7423  157.8417 H   0  0  0  0  0  0  0  0  0  0  0  0
  147.8137  137.5401  157.1397 H   0  0  0  0  0  0  0  0  0  0  0  0
  149.0761  136.9591  156.0922 H   0  0  0  0  0  0  0  0  0  0  0  0
  149.5760  135.7250  157.9620 H   0  0  0  0  0  0  0  0  0  0  0  0
  151.5121  136.6936  159.1430 H   0  0  0  0  0  0  0  0  0  0  0  0
  151.1051  138.2990  158.5422 H   0  0  0  0  0  0  0  0  0  0  0  0
  151.6057  137.0355  157.4189 H   0  0  0  0  0  0  0  0  0  0  0  0
  150.1004  143.6816  157.7887 H   0  0  0  0  0  0  0  0  0  0  0  0
  150.1183  145.2987  159.5073 H   0  0  0  0  0  0  0  0  0  0  0  0
  151.6406  145.5032  160.3706 H   0  0  0  0  0  0  0  0  0  0  0  0
  150.3220  144.5766  161.1030 H   0  0  0  0  0  0  0  0  0  0  0  0
  1  2  1  0  0  0  0
  1 23  1  0  0  0  0
  1 24  1  0  0  0  0
  1 25  1  0  0  0  0
  2 21  1  0  0  0  0
  2  3  2  0  0  0  0
  3  4  1  0  0  0  0
  3 26  1  0  0  0  0
  4 19  2  0  0  0  0
  4  5  1  0  0  0  0
  5  6  2  0  0  0  0
  6  7  1  0  0  0  0
  6 27  1  0  0  0  0
  7  8  1  0  0  0  0
  7 19  1  0  0  0  0
  8  9  1  0  0  0  0
  8 28  1  0  0  0  0
  8 29  1  0  0  0  0
  9 10  1  0  0  0  0
  9 11  1  0  0  0  0
  9 30  1  0  0  0  0
 10 31  1  0  0  0  0
 11 12  1  0  0  0  0
 11 32  1  0  0  0  0
 11 33  1  0  0  0  0
 12 13  1  0  0  0  0
 12 14  1  0  0  0  0
 13 34  1  0  0  0  0
 13 35  1  0  0  0  0
 13 36  1  0  0  0  0
 14 15  1  0  0  0  0
 14 37  1  0  0  0  0
 14 38  1  0  0  0  0
 15 16  1  0  0  0  0
 15 17  1  0  0  0  0
 15 39  1  0  0  0  0
 16 40  1  0  0  0  0
 16 41  1  0  0  0  0
 16 42  1  0  0  0  0
 17 18  3  0  0  0  0
 19 20  1  0  0  0  0
 20 21  2  0  0  0  0
 20 43  1  0  0  0  0
 21 22  1  0  0  0  0
 22 44  1  0  0  0  0
 22 45  1  0  0  0  0
 22 46  1  0  0  0  0
M  END
> <s_m_source_file>
AV-unprocessed.smi

> <i_m_source_file_index>
1535

> <i_lp_mmshare_version>
43012

> <i_f3d_flags>
0

> <s_epik_input>
W0NIM11jKFtjSF0xKWMoW0NIM10pW2NIXWMoYzEyKW4oW2NIXW4yKVtDSDJdW0NASF0oW09IXSlbQ0gyXU4oW0NIM10pW0NIMl1bQ0BIXShbQ0gzXSlDI04=

> <s_epik_cmdline>
J2VwaWtfcHl0aG9uJywgJy1waCcsICc3LjAnLCAnLXRuJywgJzgnLCAnLW1hJywgJzIwMCcsICctbWV0YWxfYmluZGluZycsICctaW1hZScsICc8aW5maWxlLm1hZT4nLCAnLW9tYWUnLCAnPG91dGZpbGUubWFlPic=

> <r_epik_Ionization_Penalty>
0.098511

> <r_epik_Ionization_Penalty_Charging>
0

> <r_epik_Ionization_Penalty_Neutral>
0.098511

> <r_epik_State_Penalty>
0.0881608

> <r_epik_Charging_Adjusted_Penalty>
0.0881608

> <i_epik_Tot_Q>
0

> <i_epik_Tot_abs_Q>
0

> <r_epik_Metal_State_Penalty>
0.0128087

> <b_epik_Metal_Only>
0

> <s_lp_Force_Field>
OPLS_2005

> <r_lp_Energy>
20.9194

> <b_lp_Chiralities_Consistent>
1

> <s_lp_Variant>
AV-unprocessed.smi:1535-3

> <Gold.Version>
5.8.1

> <Gold.Id.Protein>
6NUR|6NUR_protein|mol2

> <Gold.PLP.Fitness>
49.8844

> <Gold.PLP.PLP>
-41.4775

> <Gold.PLP.part.hbond>
-4.5236

> <Gold.PLP.part.metal>
0.0000

> <Gold.PLP.part.buried>
-6.3836

> <Gold.PLP.part.nonpolar>
-31.6361

> <Gold.PLP.part.repulsive>
0.0000

> <Gold.PLP.ligand.clash>
0.0000

> <Gold.PLP.ligand.torsion>
1.2300

> <Gold.PLP.Chemscore.Hbond>
3.4497

> <Gold.PLP.Chemscore.CHOScore>
0.0000

> <Gold.PLP.Chemscore.Metal>
0.0000

> <Gold.Chemscore.Hbonds>
donor molecule, donor type, donor heavy atom, donor atom, acceptor molecule, acceptor atom, score
      L1  H    10    31       P1  7957  1.00
      P1  H  6931  6943       L1    18  0.75
      P1  H  6934  6947       L1    18  0.33
      P1  H  7997  8010       L1     5  1.00

> <Gold.PLP.Chemscore.Internal.Correction>
0.5178

> <Gold.Rescore>
     Score         DG    S(hbond)    S(metal)    S(lipo)     H(rot)  DE(clash)    DE(int)     intcor
     18.00     -21.36       3.15        0.00     100.71       2.51       0.13       3.23       ----

> <Gold.Chemscore.Fitness>
18.0012

> <Gold.Chemscore.DG>
-21.3646

> <Gold.Chemscore.ZeroCoef>
-5.4800

> <Gold.Chemscore.Hbond>
3.1530

> <Gold.Chemscore.Metal>
0.0000

> <Gold.Chemscore.Lipo>
100.7055

> <Gold.Chemscore.Internal_Hbond>
0.0000

> <Gold.Chemscore.DEClash>
0.1296

> <Gold.Chemscore.DEInternal>
3.2339

> <Gold.Chemscore.Rot>
2.5113

> <Gold.Chemscore.Internal.Correction>
   9.000000E+99

> <Gold.Chemscore.Hbonds>
donor molecule, donor type, donor heavy atom, donor atom, acceptor molecule, acceptor atom, score
      L1  H    10    31       P1  7957  1.00
      P1  H  6931  6943       L1    18  0.68
      P1  H  6934  6947       L1    18  0.33
      P1  H  7997  8010       L1     5  0.31

> <Gold.Chemscore.Hbond.Weighted>
-10.5310

> <Gold.Chemscore.Metal.Weighted>
-0.0000

> <Gold.Chemscore.Lipo.Weighted>
-11.7825

> <Gold.Chemscore.Internal_Hbond.Weighted>
0.0000

> <Gold.Chemscore.DEClash.Weighted>
0.1296

> <Gold.Chemscore.DEInternal.Weighted>
3.2339

> <Gold.Chemscore.Rot.Weighted>
6.4289

> <Gold.Chemscore.Internal.Correction.Weighted>
   9.000000E+99

> <Gold.Protein.RotatedTorsions>
[ 6907 6896 6895 6894 ] final -165.72 input  -60.11 | X-H torsion
[ 7974 7965 7964 7962 ] final   79.55 input  175.53 | X-H torsion
[ 8008 7997 7996 7995 ] final   52.25 input   59.86 | X-H torsion
[ 10167 10162 10161 10158 ] final  -55.98 input  -65.29 | X-H torsion
[ 10718 10713 10712 10709 ] final   57.00 input   66.30 | X-H torsion
[ 10763 10752 10751 10750 ] final  105.70 input  -60.55 | X-H torsion
[ 11005 11000 10999 10996 ] final  135.83 input  -57.11 | X-H torsion

> <Gold.Protein.ActiveResidues>
 VAL166  LYS551  ARG553  GLY616  TRP617  ASP618  TYR619  PRO620  LYS621  CYS622 
 ASP623  PHE694  ASN695  SER759  ASP760  ASP761  ALA762  ILE779  LEU786  VAL792 
 PHE793  MET794  SER795  GLU796  ALA797  LYS798  CYS799  TRP800  GLU811  SER814 

> <Gold.Protein.RotatedAtoms>
  151.4321  133.3667  159.2769 H   0  0  0  0  0  0  0  0  0  0  0  0  # atno 6907 bound_to 6896
  150.9217  134.8636  159.7504 H   0  0  0  0  0  0  0  0  0  0  0  0  # atno 6908 bound_to 6896
  152.4985  134.4260  159.9548 H   0  0  0  0  0  0  0  0  0  0  0  0  # atno 6909 bound_to 6896
  145.6628  139.2476  143.1913 H   0  0  0  0  0  0  0  0  0  0  0  0  # atno 7974 bound_to 7965
  155.4487  140.3457  155.4298 H   0  0  0  0  0  0  0  0  0  0  0  0  # atno 8008 bound_to 7997
  156.1234  140.1493  156.9202 H   0  0  0  0  0  0  0  0  0  0  0  0  # atno 8009 bound_to 7997
  154.4840  140.0861  156.7423 H   0  0  0  0  0  0  0  0  0  0  0  0  # atno 8010 bound_to 7997
  140.6344  143.2475  151.5158 H   0  0  0  0  0  0  0  0  0  0  0  0  # atno 10167 bound_to 10162
  157.5478  130.8744  149.8918 H   0  0  0  0  0  0  0  0  0  0  0  0  # atno 10718 bound_to 10713
  153.3829  135.3901  155.1869 H   0  0  0  0  0  0  0  0  0  0  0  0  # atno 10763 bound_to 10752
  154.8710  135.3729  154.4835 H   0  0  0  0  0  0  0  0  0  0  0  0  # atno 10764 bound_to 10752
  153.5313  135.7085  153.5743 H   0  0  0  0  0  0  0  0  0  0  0  0  # atno 10765 bound_to 10752
  140.0005  134.9480  157.0062 H   0  0  0  0  0  0  0  0  0  0  0  0  # atno 11005 bound_to 11000
  146.1111  140.7427  142.9503 LP  0  0  0  0  0  0  0  0  0  0  0  0  # atno 17320 bound_to 7965
  144.7083  140.3940  143.7100 LP  0  0  0  0  0  0  0  0  0  0  0  0  # atno 17321 bound_to 7965
  139.5555  144.2287  152.1605 LP  0  0  0  0  0  0  0  0  0  0  0  0  # atno 17342 bound_to 10162
  140.1539  144.5089  150.6671 LP  0  0  0  0  0  0  0  0  0  0  0  0  # atno 17343 bound_to 10162
  156.0551  130.3710  150.1111 LP  0  0  0  0  0  0  0  0  0  0  0  0  # atno 17370 bound_to 10713
  156.9286  130.9706  151.3537 LP  0  0  0  0  0  0  0  0  0  0  0  0  # atno 17371 bound_to 10713
  140.4736  134.1361  155.7206 LP  0  0  0  0  0  0  0  0  0  0  0  0  # atno 17394 bound_to 11000
  141.1638  133.8742  157.1772 LP  0  0  0  0  0  0  0  0  0  0  0  0  # atno 17395 bound_to 11000

$$$$
