AV-unprocessed.smi:155|AV-procd|sdf|1285|dock4
  -GOLD-   2262018563D 1   1.00000     0.00000
 Structure written by MMmdl.
 64 67  0  0  0  0  0  0  0  0  3 V2000
  143.4027  134.7200  152.2660 C   0  0  0  0  0  0  0  0  0  0  0  0
  143.9530  133.3710  152.5335 N   0  3  0  0  0  0  0  0  0  0  0  0
  144.0951  132.5862  151.2868 C   0  0  0  0  0  0  0  0  0  0  0  0
  145.2107  133.3944  153.3233 C   0  0  0  0  0  0  0  0  0  0  0  0
  146.3728  134.0830  152.5758 C   0  0  0  0  0  0  0  0  0  0  0  0
  147.4941  134.4720  153.4728 N   0  3  2  0  0  0  0  0  0  0  0  0
  148.1716  133.2977  154.0843 C   0  0  0  0  0  0  0  0  0  0  0  0
  149.6973  133.4888  154.0722 C   0  0  0  0  0  0  0  0  0  0  0  0
  150.2286  134.4941  155.1051 C   0  0  0  0  0  0  0  0  0  0  0  0
  149.5554  135.7914  155.0172 N   0  0  0  0  0  0  0  0  0  0  0  0
  150.2781  136.9418  155.0389 C   0  0  0  0  0  0  0  0  0  0  0  0
  151.4764  136.9958  154.3991 N   0  0  0  0  0  0  0  0  0  0  0  0
  152.2069  138.1145  154.4204 C   0  0  0  0  0  0  0  0  0  0  0  0
  151.9329  139.2781  155.0123 N   0  0  0  0  0  0  0  0  0  0  0  0
  150.7299  139.2340  155.6523 C   0  0  0  0  0  0  0  0  0  0  0  0
  149.8468  138.1189  155.7161 C   0  0  0  0  0  0  0  0  0  0  0  0
  148.7132  138.4583  156.4471 N   0  0  0  0  0  0  0  0  0  0  0  0
  148.9202  139.6971  156.8032 C   0  0  0  0  0  0  0  0  0  0  0  0
  150.1060  140.2407  156.3657 N   0  0  0  0  0  0  0  0  0  0  0  0
  150.5912  141.5885  156.6045 C   0  0  0  0  0  0  0  0  0  0  0  0
  151.2840  141.7285  157.9772 C   0  0  1  0  0  0  0  0  0  0  0  0
  152.3794  140.8327  158.0076 O   0  0  0  0  0  0  0  0  0  0  0  0
  151.8259  143.1478  158.2395 C   0  0  1  0  0  0  0  0  0  0  0  0
  150.7558  144.2414  158.2982 C   0  0  0  0  0  0  0  0  0  0  0  0
  151.3794  145.3176  159.1728 C   0  0  0  0  0  0  0  0  0  0  0  0
  152.5457  144.6039  159.8587 C   0  0  0  0  0  0  0  0  0  0  0  0
  152.3647  143.2296  159.5507 O   0  0  0  0  0  0  0  0  0  0  0  0
  148.1820  135.8609  155.5135 C   0  0  0  0  0  0  0  0  0  0  0  0
  147.1108  135.5246  154.4550 C   0  0  0  0  0  0  0  0  0  0  0  0
  144.1074  135.3248  151.6936 H   0  0  0  0  0  0  0  0  0  0  0  0
  143.1711  135.2461  153.1917 H   0  0  0  0  0  0  0  0  0  0  0  0
  142.4757  134.6500  151.6956 H   0  0  0  0  0  0  0  0  0  0  0  0
  144.8298  133.0403  150.6204 H   0  0  0  0  0  0  0  0  0  0  0  0
  143.1435  132.5273  150.7568 H   0  0  0  0  0  0  0  0  0  0  0  0
  144.4135  131.5659  151.5034 H   0  0  0  0  0  0  0  0  0  0  0  0
  145.0228  133.9457  154.2463 H   0  0  0  0  0  0  0  0  0  0  0  0
  145.4764  132.3772  153.6146 H   0  0  0  0  0  0  0  0  0  0  0  0
  146.7527  133.4517  151.7716 H   0  0  0  0  0  0  0  0  0  0  0  0
  145.9775  134.9862  152.1083 H   0  0  0  0  0  0  0  0  0  0  0  0
  147.7940  133.0968  155.0880 H   0  0  0  0  0  0  0  0  0  0  0  0
  147.9567  132.3987  153.5055 H   0  0  0  0  0  0  0  0  0  0  0  0
  150.1742  132.5265  154.2617 H   0  0  0  0  0  0  0  0  0  0  0  0
  150.0188  133.7866  153.0732 H   0  0  0  0  0  0  0  0  0  0  0  0
  150.0944  134.0966  156.1118 H   0  0  0  0  0  0  0  0  0  0  0  0
  151.3045  134.5860  154.9554 H   0  0  0  0  0  0  0  0  0  0  0  0
  153.1459  138.0707  153.8880 H   0  0  0  0  0  0  0  0  0  0  0  0
  148.2071  140.2547  157.3930 H   0  0  0  0  0  0  0  0  0  0  0  0
  151.2750  141.8637  155.8002 H   0  0  0  0  0  0  0  0  0  0  0  0
  149.7379  142.2633  156.5313 H   0  0  0  0  0  0  0  0  0  0  0  0
  150.5818  141.4530  158.7653 H   0  0  0  0  0  0  0  0  0  0  0  0
  152.6413  140.7102  158.9071 H   0  0  0  0  0  0  0  0  0  0  0  0
  152.5903  143.4189  157.5078 H   0  0  0  0  0  0  0  0  0  0  0  0
  150.4756  144.6110  157.3114 H   0  0  0  0  0  0  0  0  0  0  0  0
  149.8557  143.8597  158.7824 H   0  0  0  0  0  0  0  0  0  0  0  0
  151.7396  146.1587  158.5793 H   0  0  0  0  0  0  0  0  0  0  0  0
  150.6572  145.6989  159.8953 H   0  0  0  0  0  0  0  0  0  0  0  0
  153.4980  144.9422  159.4478 H   0  0  0  0  0  0  0  0  0  0  0  0
  152.5625  144.7658  160.9366 H   0  0  0  0  0  0  0  0  0  0  0  0
  148.0926  135.1514  156.3370 H   0  0  0  0  0  0  0  0  0  0  0  0
  147.9689  136.8330  155.9603 H   0  0  0  0  0  0  0  0  0  0  0  0
  146.8864  136.4356  153.9023 H   0  0  0  0  0  0  0  0  0  0  0  0
  146.1883  135.2401  154.9628 H   0  0  0  0  0  0  0  0  0  0  0  0
  143.2670  132.8827  153.0917 H   0  0  0  0  0  0  0  0  0  0  0  0
  148.1921  134.8891  152.8733 H   0  0  0  0  0  0  0  0  0  0  0  0
  1  2  1  0  0  0  0
  1 30  1  0  0  0  0
  1 31  1  0  0  0  0
  1 32  1  0  0  0  0
  2  3  1  0  0  0  0
  2  4  1  0  0  0  0
  2 63  1  0  0  0  0
  3 33  1  0  0  0  0
  3 34  1  0  0  0  0
  3 35  1  0  0  0  0
  4  5  1  0  0  0  0
  4 36  1  0  0  0  0
  4 37  1  0  0  0  0
  5  6  1  0  0  0  0
  5 38  1  0  0  0  0
  5 39  1  0  0  0  0
  6 29  1  0  0  0  0
  6  7  1  0  0  0  0
  6 64  1  0  0  0  0
  7  8  1  0  0  0  0
  7 40  1  0  0  0  0
  7 41  1  0  0  0  0
  8  9  1  0  0  0  0
  8 42  1  0  0  0  0
  8 43  1  0  0  0  0
  9 10  1  0  0  0  0
  9 44  1  0  0  0  0
  9 45  1  0  0  0  0
 10 11  1  0  0  0  0
 10 28  1  0  0  0  0
 11 16  1  0  0  0  0
 11 12  2  0  0  0  0
 12 13  1  0  0  0  0
 13 14  2  0  0  0  0
 13 46  1  0  0  0  0
 14 15  1  0  0  0  0
 15 19  1  0  0  0  0
 15 16  2  0  0  0  0
 16 17  1  0  0  0  0
 17 18  2  0  0  0  0
 18 19  1  0  0  0  0
 18 47  1  0  0  0  0
 19 20  1  0  0  0  0
 20 21  1  0  0  0  0
 20 48  1  0  0  0  0
 20 49  1  0  0  0  0
 21 22  1  0  0  0  0
 21 23  1  0  0  0  0
 21 50  1  0  0  0  0
 22 51  1  0  0  0  0
 23 27  1  0  0  0  0
 23 24  1  0  0  0  0
 23 52  1  0  0  0  0
 24 25  1  0  0  0  0
 24 53  1  0  0  0  0
 24 54  1  0  0  0  0
 25 26  1  0  0  0  0
 25 55  1  0  0  0  0
 25 56  1  0  0  0  0
 26 27  1  0  0  0  0
 26 57  1  0  0  0  0
 26 58  1  0  0  0  0
 28 29  1  0  0  0  0
 28 59  1  0  0  0  0
 28 60  1  0  0  0  0
 29 61  1  0  0  0  0
 29 62  1  0  0  0  0
M  CHG  1   2   1
M  CHG  1   6   1
M  END
> <s_m_source_file>
AV-unprocessed.smi

> <i_m_source_file_index>
155

> <i_lp_mmshare_version>
43012

> <i_f3d_flags>
0

> <s_epik_input>
W0NIM11OKFtDSDNdKVtDSDJdW0NIMl1OMVtDSDJdW0NIMl1bQ0gyXU4oW0NIMl1bQ0gyXTEpYyhuW2NIXW4yKWMoYzIzKW5bY0hdbjNbQ0gyXVtDQEhdKFtPSF0pW0NAQEhdNFtDSDJdW0NIMl1bQ0gyXU80

> <s_epik_cmdline>
J2VwaWtfcHl0aG9uJywgJy1waCcsICc3LjAnLCAnLXRuJywgJzgnLCAnLW1hJywgJzIwMCcsICctbWV0YWxfYmluZGluZycsICctaW1hZScsICc8aW5maWxlLm1hZT4nLCAnLW9tYWUnLCAnPG91dGZpbGUubWFlPic=

> <r_lp_tautomer_probability>
1

> <r_epik_Ionization_Penalty>
3.0333

> <r_epik_Ionization_Penalty_Charging>
3.03317

> <r_epik_Ionization_Penalty_Neutral>
0.000131872

> <r_epik_State_Penalty>
1.99939

> <r_epik_Charging_Adjusted_Penalty>
5.03256

> <i_epik_Tot_Q>
2

> <i_epik_Tot_abs_Q>
2

> <r_epik_Metal_State_Penalty>
2.00021

> <b_epik_Metal_Only>
0

> <s_lp_Force_Field>
OPLS_2005

> <r_lp_Energy>
63.1179

> <b_lp_Chiralities_Consistent>
1

> <s_lp_Variant>
AV-unprocessed.smi:155-19

> <Gold.Version>
5.8.1

> <Gold.Id.Protein>
6NUR|6NUR_protein|mol2

> <Gold.PLP.Fitness>
60.6000

> <Gold.PLP.PLP>
-44.9166

> <Gold.PLP.part.hbond>
-3.8821

> <Gold.PLP.part.metal>
0.0000

> <Gold.PLP.part.buried>
-8.4229

> <Gold.PLP.part.nonpolar>
-33.7358

> <Gold.PLP.part.repulsive>
0.5330

> <Gold.PLP.ligand.clash>
0.0000

> <Gold.PLP.ligand.torsion>
0.7423

> <Gold.PLP.Chemscore.Hbond>
5.6126

> <Gold.PLP.Chemscore.CHOScore>
0.0000

> <Gold.PLP.Chemscore.Metal>
0.0000

> <Gold.Chemscore.Hbonds>
donor molecule, donor type, donor heavy atom, donor atom, acceptor molecule, acceptor atom, score
      L1  H     2    63       P1 10957  1.66
      L1  H     6    64       P1  7948  2.00
      P1  H  7989  7998       L1    14  0.56
      P1  H 10752 10764       L1    12  0.95

> <Gold.PLP.Chemscore.Internal.Correction>
0.3302

> <Gold.Rescore>
     Score         DG    S(hbond)    S(metal)    S(lipo)     H(rot)  DE(clash)    DE(int)     intcor
     16.86     -19.25       2.70        0.00     100.92       2.75       0.31       2.08       ----

> <Gold.Chemscore.Fitness>
16.8631

> <Gold.Chemscore.DG>
-19.2533

> <Gold.Chemscore.ZeroCoef>
-5.4800

> <Gold.Chemscore.Hbond>
2.6956

> <Gold.Chemscore.Metal>
0.0000

> <Gold.Chemscore.Lipo>
100.9249

> <Gold.Chemscore.Internal_Hbond>
0.0000

> <Gold.Chemscore.DEClash>
0.3085

> <Gold.Chemscore.DEInternal>
2.0817

> <Gold.Chemscore.Rot>
2.7493

> <Gold.Chemscore.Internal.Correction>
   9.000000E+99

> <Gold.Chemscore.Hbonds>
donor molecule, donor type, donor heavy atom, donor atom, acceptor molecule, acceptor atom, score
      L1  H     2    63       P1 10957  0.39
      L1  H     6    64       P1  7948  0.81
      P1  H  7989  7998       L1    14  0.17
      P1  H 10752 10764       L1    12  0.21

> <Gold.Chemscore.Hbond.Weighted>
-9.0034

> <Gold.Chemscore.Metal.Weighted>
-0.0000

> <Gold.Chemscore.Lipo.Weighted>
-11.8082

> <Gold.Chemscore.Internal_Hbond.Weighted>
0.0000

> <Gold.Chemscore.DEClash.Weighted>
0.3085

> <Gold.Chemscore.DEInternal.Weighted>
2.0817

> <Gold.Chemscore.Rot.Weighted>
7.0383

> <Gold.Chemscore.Internal.Correction.Weighted>
   9.000000E+99

> <Gold.Protein.RotatedTorsions>
[ 6907 6896 6895 6894 ] final   60.00 input  -60.11 | X-H torsion
[ 7974 7965 7964 7962 ] final   18.04 input  175.53 | X-H torsion
[ 8008 7997 7996 7995 ] final  -30.38 input   59.86 | X-H torsion
[ 10167 10162 10161 10158 ] final -150.04 input  -65.29 | X-H torsion
[ 10718 10713 10712 10709 ] final  -76.67 input   66.30 | X-H torsion
[ 10763 10752 10751 10750 ] final  -79.92 input  -60.55 | X-H torsion
[ 11005 11000 10999 10996 ] final  177.43 input  -57.11 | X-H torsion

> <Gold.Protein.ActiveResidues>
 VAL166  LYS551  ARG553  GLY616  TRP617  ASP618  TYR619  PRO620  LYS621  CYS622 
 ASP623  PHE694  ASN695  SER759  ASP760  ASP761  ALA762  ILE779  LEU786  VAL792 
 PHE793  MET794  SER795  GLU796  ALA797  LYS798  CYS799  TRP800  GLU811  SER814 

> <Gold.Protein.RotatedAtoms>
  152.3965  134.6357  160.0086 H   0  0  0  0  0  0  0  0  0  0  0  0  # atno 6907 bound_to 6896
  151.6575  133.3312  159.3174 H   0  0  0  0  0  0  0  0  0  0  0  0  # atno 6908 bound_to 6896
  150.7871  134.6909  159.6541 H   0  0  0  0  0  0  0  0  0  0  0  0  # atno 6909 bound_to 6896
  146.2198  139.8515  142.8621 H   0  0  0  0  0  0  0  0  0  0  0  0  # atno 7974 bound_to 7965
  154.4253  140.1793  156.1397 H   0  0  0  0  0  0  0  0  0  0  0  0  # atno 8008 bound_to 7997
  156.0001  140.3361  155.6812 H   0  0  0  0  0  0  0  0  0  0  0  0  # atno 8009 bound_to 7997
  155.6254  140.0664  157.2656 H   0  0  0  0  0  0  0  0  0  0  0  0  # atno 8010 bound_to 7997
  139.7389  143.8692  152.2557 H   0  0  0  0  0  0  0  0  0  0  0  0  # atno 10167 bound_to 10162
  156.0168  130.4471  150.3229 H   0  0  0  0  0  0  0  0  0  0  0  0  # atno 10718 bound_to 10713
  154.5447  135.5679  153.6870 H   0  0  0  0  0  0  0  0  0  0  0  0  # atno 10763 bound_to 10752
  152.9973  135.6236  154.2455 H   0  0  0  0  0  0  0  0  0  0  0  0  # atno 10764 bound_to 10752
  154.2387  135.2863  155.2842 H   0  0  0  0  0  0  0  0  0  0  0  0  # atno 10765 bound_to 10752
  140.3840  134.6921  157.4468 H   0  0  0  0  0  0  0  0  0  0  0  0  # atno 11005 bound_to 11000
  145.2796  141.0134  143.3725 LP  0  0  0  0  0  0  0  0  0  0  0  0  # atno 17320 bound_to 7965
  144.9160  139.4470  143.6564 LP  0  0  0  0  0  0  0  0  0  0  0  0  # atno 17321 bound_to 7965
  139.8637  144.7104  150.9069 LP  0  0  0  0  0  0  0  0  0  0  0  0  # atno 17342 bound_to 10162
  140.7783  143.3796  151.1501 LP  0  0  0  0  0  0  0  0  0  0  0  0  # atno 17343 bound_to 10162
  157.1329  131.0276  151.2961 LP  0  0  0  0  0  0  0  0  0  0  0  0  # atno 17370 bound_to 10713
  157.4536  130.7612  149.7173 LP  0  0  0  0  0  0  0  0  0  0  0  0  # atno 17371 bound_to 10713
  140.0457  134.6203  155.8924 LP  0  0  0  0  0  0  0  0  0  0  0  0  # atno 17394 bound_to 11000
  141.1914  133.6571  156.5453 LP  0  0  0  0  0  0  0  0  0  0  0  0  # atno 17395 bound_to 11000

$$$$
