AV-unprocessed.smi:2033|AV-procd|sdf|8259|dock10
  -GOLD-   2272010533D 1   1.00000     0.00000
 Structure written by MMmdl.
 33 34  0  0  0  0  0  0  0  0  1 V2000
  147.1060  133.8832  162.5837 C   0  0  0  0  0  0  0  0  0  0  0  0
  147.3864  135.0540  161.7050 C   0  0  0  0  0  0  0  0  0  0  0  0
  147.3238  136.3186  162.1397 N   0  0  0  0  0  0  0  0  0  0  0  0
  147.6234  137.2339  161.1403 N   0  0  0  0  0  0  0  0  0  0  0  0
  147.9039  136.6302  159.9772 C   0  0  0  0  0  0  0  0  0  0  0  0
  148.2450  137.3279  158.7883 N   0  0  0  0  0  0  0  0  0  0  0  0
  147.6627  138.4230  158.2688 C   0  0  0  0  0  0  0  0  0  0  0  0
  146.7032  139.0195  158.7584 O   0  0  0  0  0  0  0  0  0  0  0  0
  148.2636  138.7971  157.1297 N   0  0  0  0  0  0  0  0  0  0  0  0
  147.9073  139.9624  156.3199 C   0  0  2  0  0  0  0  0  0  0  0  0
  148.7285  139.9892  155.0054 C   0  0  0  0  0  0  0  0  0  0  0  0
  148.8945  141.3711  154.3387 C   0  0  0  0  0  0  0  0  0  0  0  0
  147.5868  142.1487  154.0865 C   0  0  0  0  0  0  0  0  0  0  0  0
  146.6789  142.4033  155.3142 C   0  0  0  0  0  0  0  0  0  0  0  0
  147.3728  142.3586  156.6011 N   0  0  0  0  0  0  0  0  0  0  0  0
  147.9393  141.2656  157.1410 C   0  0  0  0  0  0  0  0  0  0  0  0
  148.4870  141.3029  158.2421 O   0  0  0  0  0  0  0  0  0  0  0  0
  147.8214  134.8769  160.0095 S   0  0  0  0  0  0  0  0  0  0  0  0
  147.0867  134.1844  163.6316 H   0  0  0  0  0  0  0  0  0  0  0  0
  147.8786  133.1252  162.4538 H   0  0  0  0  0  0  0  0  0  0  0  0
  146.1402  133.4483  162.3265 H   0  0  0  0  0  0  0  0  0  0  0  0
  149.0267  136.9495  158.2739 H   0  0  0  0  0  0  0  0  0  0  0  0
  149.0476  138.2511  156.8032 H   0  0  0  0  0  0  0  0  0  0  0  0
  146.8603  139.8259  156.0465 H   0  0  0  0  0  0  0  0  0  0  0  0
  149.7282  139.5959  155.1959 H   0  0  0  0  0  0  0  0  0  0  0  0
  148.2735  139.3004  154.2927 H   0  0  0  0  0  0  0  0  0  0  0  0
  149.5673  141.9850  154.9392 H   0  0  0  0  0  0  0  0  0  0  0  0
  149.4100  141.2380  153.3872 H   0  0  0  0  0  0  0  0  0  0  0  0
  147.8583  143.1130  153.6559 H   0  0  0  0  0  0  0  0  0  0  0  0
  147.0043  141.6417  153.3165 H   0  0  0  0  0  0  0  0  0  0  0  0
  146.2005  143.3780  155.2159 H   0  0  0  0  0  0  0  0  0  0  0  0
  145.8594  141.6840  155.3283 H   0  0  0  0  0  0  0  0  0  0  0  0
  147.4071  143.2177  157.1308 H   0  0  0  0  0  0  0  0  0  0  0  0
  1  2  1  0  0  0  0
  1 19  1  0  0  0  0
  1 20  1  0  0  0  0
  1 21  1  0  0  0  0
  2 18  1  0  0  0  0
  2  3  2  0  0  0  0
  3  4  1  0  0  0  0
  4  5  2  0  0  0  0
  5  6  1  0  0  0  0
  5 18  1  0  0  0  0
  6  7  1  0  0  0  0
  6 22  1  0  0  0  0
  7  8  2  0  0  0  0
  7  9  1  0  0  0  0
  9 10  1  0  0  0  0
  9 23  1  0  0  0  0
 10 16  1  0  0  0  0
 10 11  1  0  0  0  0
 10 24  1  0  0  0  0
 11 12  1  0  0  0  0
 11 25  1  0  0  0  0
 11 26  1  0  0  0  0
 12 13  1  0  0  0  0
 12 27  1  0  0  0  0
 12 28  1  0  0  0  0
 13 14  1  0  0  0  0
 13 29  1  0  0  0  0
 13 30  1  0  0  0  0
 14 15  1  0  0  0  0
 14 31  1  0  0  0  0
 14 32  1  0  0  0  0
 15 16  1  0  0  0  0
 15 33  1  0  0  0  0
 16 17  2  0  0  0  0
M  END
> <s_m_source_file>
AV-unprocessed.smi

> <i_m_source_file_index>
2033

> <i_lp_mmshare_version>
43012

> <i_f3d_flags>
0

> <s_epik_input>
W0NIM11jMW5uYyhzMSlbTkhdQyg9TylbTkhdW0NAQEhdMltDSDJdW0NIMl1bQ0gyXVtDSDJdW05IXUMyPU8=

> <s_epik_cmdline>
J2VwaWtfcHl0aG9uJywgJy1waCcsICc3LjAnLCAnLXRuJywgJzgnLCAnLW1hJywgJzIwMCcsICctbWV0YWxfYmluZGluZycsICctaW1hZScsICc8aW5maWxlLm1hZT4nLCAnLW9tYWUnLCAnPG91dGZpbGUubWFlPic=

> <r_lp_tautomer_probability>
1

> <r_epik_Ionization_Penalty>
0.00079266

> <r_epik_Ionization_Penalty_Charging>
0

> <r_epik_Ionization_Penalty_Neutral>
0.00079266

> <r_epik_State_Penalty>
-0

> <r_epik_Charging_Adjusted_Penalty>
0

> <i_epik_Tot_Q>
0

> <i_epik_Tot_abs_Q>
0

> <r_epik_Metal_State_Penalty>
0.265831

> <b_epik_Metal_Only>
0

> <s_lp_Force_Field>
OPLS_2005

> <r_lp_Energy>
13.3352

> <b_lp_Chiralities_Consistent>
1

> <s_lp_Variant>
AV-unprocessed.smi:2033-1

> <Gold.Version>
5.8.1

> <Gold.Id.Protein>
6NUR|6NUR_protein|mol2

> <Gold.PLP.Fitness>
30.7544

> <Gold.PLP.PLP>
-25.8960

> <Gold.PLP.part.hbond>
-4.5713

> <Gold.PLP.part.metal>
0.0000

> <Gold.PLP.part.buried>
-3.4443

> <Gold.PLP.part.nonpolar>
-18.9489

> <Gold.PLP.part.repulsive>
0.2422

> <Gold.PLP.ligand.clash>
0.0000

> <Gold.PLP.ligand.torsion>
0.3929

> <Gold.PLP.Chemscore.Hbond>
1.8643

> <Gold.PLP.Chemscore.CHOScore>
0.0000

> <Gold.PLP.Chemscore.Metal>
0.0000

> <Gold.Chemscore.Hbonds>
donor molecule, donor type, donor heavy atom, donor atom, acceptor molecule, acceptor atom, score
      P1  H  6931  6943       L1     4  0.90
      P1  H  6934  6947       L1     4  0.90

> <Gold.PLP.Chemscore.Internal.Correction>
0.0513

> <Gold.Rescore>
     Score         DG    S(hbond)    S(metal)    S(lipo)     H(rot)  DE(clash)    DE(int)     intcor
     12.50     -13.05       1.35        0.00      48.12       1.00       0.04       0.51       ----

> <Gold.Chemscore.Fitness>
12.5022

> <Gold.Chemscore.DG>
-13.0479

> <Gold.Chemscore.ZeroCoef>
-5.4800

> <Gold.Chemscore.Hbond>
1.3468

> <Gold.Chemscore.Metal>
0.0000

> <Gold.Chemscore.Lipo>
48.1157

> <Gold.Chemscore.Internal_Hbond>
0.0000

> <Gold.Chemscore.DEClash>
0.0380

> <Gold.Chemscore.DEInternal>
0.5077

> <Gold.Chemscore.Rot>
1.0000

> <Gold.Chemscore.Internal.Correction>
   9.000000E+99

> <Gold.Chemscore.Hbonds>
donor molecule, donor type, donor heavy atom, donor atom, acceptor molecule, acceptor atom, score
      P1  H  6931  6943       L1     4  0.32
      P1  H  6934  6947       L1     4  0.75

> <Gold.Chemscore.Hbond.Weighted>
-4.4984

> <Gold.Chemscore.Metal.Weighted>
-0.0000

> <Gold.Chemscore.Lipo.Weighted>
-5.6295

> <Gold.Chemscore.Internal_Hbond.Weighted>
0.0000

> <Gold.Chemscore.DEClash.Weighted>
0.0380

> <Gold.Chemscore.DEInternal.Weighted>
0.5077

> <Gold.Chemscore.Rot.Weighted>
2.5600

> <Gold.Chemscore.Internal.Correction.Weighted>
   9.000000E+99

> <Gold.Protein.RotatedTorsions>
[ 6907 6896 6895 6894 ] final -116.92 input  -60.11 | X-H torsion
[ 7974 7965 7964 7962 ] final -126.31 input  175.53 | X-H torsion
[ 8008 7997 7996 7995 ] final    9.17 input   59.86 | X-H torsion
[ 10167 10162 10161 10158 ] final -136.18 input  -65.29 | X-H torsion
[ 10718 10713 10712 10709 ] final   24.62 input   66.30 | X-H torsion
[ 10763 10752 10751 10750 ] final -147.65 input  -60.55 | X-H torsion
[ 11005 11000 10999 10996 ] final   83.36 input  -57.11 | X-H torsion

> <Gold.Protein.ActiveResidues>
 VAL166  LYS551  ARG553  GLY616  TRP617  ASP618  TYR619  PRO620  LYS621  CYS622 
 ASP623  PHE694  ASN695  SER759  ASP760  ASP761  ALA762  ILE779  LEU786  VAL792 
 PHE793  MET794  SER795  GLU796  ALA797  LYS798  CYS799  TRP800  GLU811  SER814 

> <Gold.Protein.RotatedAtoms>
  150.8094  133.8449  159.3189 H   0  0  0  0  0  0  0  0  0  0  0  0  # atno 6907 bound_to 6896
  151.6239  135.1028  160.0117 H   0  0  0  0  0  0  0  0  0  0  0  0  # atno 6908 bound_to 6896
  152.4186  133.7039  159.6496 H   0  0  0  0  0  0  0  0  0  0  0  0  # atno 6909 bound_to 6896
  144.9886  140.7710  143.4568 H   0  0  0  0  0  0  0  0  0  0  0  0  # atno 7974 bound_to 7965
  154.7764  140.2811  155.6097 H   0  0  0  0  0  0  0  0  0  0  0  0  # atno 8008 bound_to 7997
  156.2942  140.2631  156.2507 H   0  0  0  0  0  0  0  0  0  0  0  0  # atno 8009 bound_to 7997
  154.9837  140.0374  157.2278 H   0  0  0  0  0  0  0  0  0  0  0  0  # atno 8010 bound_to 7997
  139.8704  143.6964  152.2640 H   0  0  0  0  0  0  0  0  0  0  0  0  # atno 10167 bound_to 10162
  157.1822  130.6808  149.6117 H   0  0  0  0  0  0  0  0  0  0  0  0  # atno 10718 bound_to 10713
  154.8275  135.3355  154.6851 H   0  0  0  0  0  0  0  0  0  0  0  0  # atno 10763 bound_to 10752
  153.7475  135.6941  153.4957 H   0  0  0  0  0  0  0  0  0  0  0  0  # atno 10764 bound_to 10752
  153.2200  135.4452  155.0429 H   0  0  0  0  0  0  0  0  0  0  0  0  # atno 10765 bound_to 10752
  139.9033  134.8139  156.2299 H   0  0  0  0  0  0  0  0  0  0  0  0  # atno 11005 bound_to 11000
  145.2318  139.2112  143.5039 LP  0  0  0  0  0  0  0  0  0  0  0  0  # atno 17320 bound_to 7965
  146.3426  140.2196  142.8591 LP  0  0  0  0  0  0  0  0  0  0  0  0  # atno 17321 bound_to 7965
  139.7289  144.7587  151.0834 LP  0  0  0  0  0  0  0  0  0  0  0  0  # atno 17342 bound_to 10162
  140.7761  143.5113  150.9649 LP  0  0  0  0  0  0  0  0  0  0  0  0  # atno 17343 bound_to 10162
  155.9723  130.4643  150.6212 LP  0  0  0  0  0  0  0  0  0  0  0  0  # atno 17370 bound_to 10713
  157.3941  131.0800  151.1367 LP  0  0  0  0  0  0  0  0  0  0  0  0  # atno 17371 bound_to 10713
  141.0352  133.6967  156.1500 LP  0  0  0  0  0  0  0  0  0  0  0  0  # atno 17394 bound_to 11000
  140.7037  134.4536  157.5585 LP  0  0  0  0  0  0  0  0  0  0  0  0  # atno 17395 bound_to 11000

$$$$
