AV-unprocessed.smi:55|AV-procd|sdf|562|dock7
  -GOLD-   2262016463D 1   1.00000     0.00000
 Structure written by MMmdl.
 31 32  0  0  0  0  0  0  0  0  1 V2000
  150.4244  144.9436  159.5165 C   0  0  0  0  0  0  0  0  0  0  0  0
  151.1833  143.6660  159.1983 C   0  0  0  0  0  0  0  0  0  0  0  0
  150.9381  142.9331  158.0822 C   0  0  0  0  0  0  0  0  0  0  0  0
  151.6134  141.7631  157.7636 N   0  0  0  0  0  0  0  0  0  0  0  0
  151.2889  140.9917  156.5045 C   0  0  1  0  0  0  0  0  0  0  0  0
  150.7660  139.5946  156.8413 C   0  0  0  0  0  0  0  0  0  0  0  0
  149.6852  139.4216  155.7951 C   0  0  1  0  0  0  0  0  0  0  0  0
  148.7124  138.4901  156.2219 O   0  0  0  0  0  0  0  0  0  0  0  0
  149.1249  140.8412  155.6772 C   0  0  2  0  0  0  0  0  0  0  0  0
  148.4339  141.1173  154.3333 C   0  0  0  0  0  0  0  0  0  0  0  0
  149.3883  141.1336  153.2933 O   0  0  0  0  0  0  0  0  0  0  0  0
  150.2841  141.6649  155.8032 O   0  0  0  0  0  0  0  0  0  0  0  0
  152.6047  141.2771  158.6417 C   0  0  0  0  0  0  0  0  0  0  0  0
  153.2284  140.2356  158.4415 O   0  0  0  0  0  0  0  0  0  0  0  0
  152.8593  142.0308  159.7863 N   0  0  0  0  0  0  0  0  0  0  0  0
  152.2119  143.2169  160.1406 C   0  0  0  0  0  0  0  0  0  0  0  0
  152.5257  143.7925  161.1811 O   0  0  0  0  0  0  0  0  0  0  0  0
  152.1772  140.9815  155.8713 H   0  0  0  0  0  0  0  0  0  0  0  0
  150.1270  139.1002  154.8505 H   0  0  0  0  0  0  0  0  0  0  0  0
  148.4501  141.0360  156.5131 H   0  0  0  0  0  0  0  0  0  0  0  0
  153.5705  141.6883  160.4158 H   0  0  0  0  0  0  0  0  0  0  0  0
  149.7002  145.1885  158.7391 H   0  0  0  0  0  0  0  0  0  0  0  0
  151.1134  145.7841  159.6068 H   0  0  0  0  0  0  0  0  0  0  0  0
  149.8832  144.8408  160.4577 H   0  0  0  0  0  0  0  0  0  0  0  0
  150.1704  143.2819  157.4083 H   0  0  0  0  0  0  0  0  0  0  0  0
  151.5601  138.8491  156.7886 H   0  0  0  0  0  0  0  0  0  0  0  0
  150.3394  139.5920  157.8461 H   0  0  0  0  0  0  0  0  0  0  0  0
  147.8576  138.8819  156.1260 H   0  0  0  0  0  0  0  0  0  0  0  0
  147.6574  140.3800  154.1271 H   0  0  0  0  0  0  0  0  0  0  0  0
  147.9548  142.0967  154.3516 H   0  0  0  0  0  0  0  0  0  0  0  0
  149.1262  140.5078  152.6354 H   0  0  0  0  0  0  0  0  0  0  0  0
  1  2  1  0  0  0  0
  1 22  1  0  0  0  0
  1 23  1  0  0  0  0
  1 24  1  0  0  0  0
  2 16  1  0  0  0  0
  2  3  2  0  0  0  0
  3  4  1  0  0  0  0
  3 25  1  0  0  0  0
  4  5  1  0  0  0  0
  4 13  1  0  0  0  0
  5 18  1  0  0  0  0
  5 12  1  0  0  0  0
  5  6  1  0  0  0  0
  6  7  1  0  0  0  0
  6 26  1  0  0  0  0
  6 27  1  0  0  0  0
  7 19  1  0  0  0  0
  7  8  1  0  0  0  0
  7  9  1  0  0  0  0
  8 28  1  0  0  0  0
  9 20  1  0  0  0  0
  9 10  1  0  0  0  0
  9 12  1  0  0  0  0
 10 11  1  0  0  0  0
 10 29  1  0  0  0  0
 10 30  1  0  0  0  0
 11 31  1  0  0  0  0
 13 14  2  0  0  0  0
 13 15  1  0  0  0  0
 15 21  1  0  0  0  0
 15 16  1  0  0  0  0
 16 17  2  0  0  0  0
M  END
> <s_m_source_file>
AV-unprocessed.smi

> <i_m_source_file_index>
55

> <i_lp_mmshare_version>
43012

> <i_f3d_flags>
0

> <s_epik_input>
Tz1jMVtuSF1jKD1PKW4oW2NIXWMxW0NIM10pW0NAQEhdMltDSDJdW0NAQEhdKFtPSF0pW0NAQEhdKE8yKVtDSDJdW09IXQ==

> <s_epik_cmdline>
J2VwaWtfcHl0aG9uJywgJy1waCcsICc3LjAnLCAnLXRuJywgJzgnLCAnLW1hJywgJzIwMCcsICctbWV0YWxfYmluZGluZycsICctaW1hZScsICc8aW5maWxlLm1hZT4nLCAnLW9tYWUnLCAnPG91dGZpbGUubWFlPic=

> <r_lp_tautomer_probability>
0.999537

> <r_epik_Ionization_Penalty>
0.00121888

> <r_epik_Ionization_Penalty_Charging>
0.00121876

> <r_epik_Ionization_Penalty_Neutral>
1.19946e-07

> <r_epik_State_Penalty>
0.000805124

> <r_epik_Charging_Adjusted_Penalty>
0.00202389

> <i_epik_Tot_Q>
0

> <i_epik_Tot_abs_Q>
0

> <r_epik_Metal_State_Penalty>
0.662472

> <b_epik_Metal_Only>
0

> <s_epik_Chemistry_Notes>
This compound contains an acetal/aminal-like group ( X-CH(R)-Y where X, Y are N, S, or O) that may be acid/base labile, releasing an aldehyde.

> <s_lp_Force_Field>
OPLS_2005

> <r_lp_Energy>
25.0544

> <b_lp_Chiralities_Consistent>
1

> <s_lp_Variant>
AV-unprocessed.smi:55-2

> <Gold.Version>
5.8.1

> <Gold.Id.Protein>
6NUR|6NUR_protein|mol2

> <Gold.PLP.Fitness>
39.7018

> <Gold.PLP.PLP>
-28.6032

> <Gold.PLP.part.hbond>
-3.4741

> <Gold.PLP.part.metal>
0.0000

> <Gold.PLP.part.buried>
-5.1662

> <Gold.PLP.part.nonpolar>
-19.8500

> <Gold.PLP.part.repulsive>
0.2732

> <Gold.PLP.ligand.clash>
0.0000

> <Gold.PLP.ligand.torsion>
0.0679

> <Gold.PLP.Chemscore.Hbond>
2.7416

> <Gold.PLP.Chemscore.CHOScore>
1.0000

> <Gold.PLP.Chemscore.Metal>
0.0000

> <Gold.Chemscore.Hbonds>
donor molecule, donor type, donor heavy atom, donor atom, acceptor molecule, acceptor atom, score
      L1  H    11    31       P1  7957  0.75
      P1  H  7989  7998       L1    11  0.07
      P1  H  7997  8010       L1    14  0.93
      P1  H  8011  8017       L1    11  1.00
      L1  C     3    25       P1  8028  0.85

> <Gold.PLP.Chemscore.Internal.Correction>
0.0096

> <Gold.Rescore>
     Score         DG    S(hbond)    S(metal)    S(lipo)     H(rot)  DE(clash)    DE(int)     intcor
     10.96     -11.12       2.19        0.00      45.25       2.73       0.01       0.16       ----

> <Gold.Chemscore.Fitness>
10.9592

> <Gold.Chemscore.DG>
-11.1244

> <Gold.Chemscore.ZeroCoef>
-5.4800

> <Gold.Chemscore.Hbond>
2.1939

> <Gold.Chemscore.Metal>
0.0000

> <Gold.Chemscore.Lipo>
45.2461

> <Gold.Chemscore.Internal_Hbond>
0.0000

> <Gold.Chemscore.DEClash>
0.0060

> <Gold.Chemscore.DEInternal>
0.1592

> <Gold.Chemscore.Rot>
2.7253

> <Gold.Chemscore.Internal.Correction>
   9.000000E+99

> <Gold.Chemscore.Hbonds>
donor molecule, donor type, donor heavy atom, donor atom, acceptor molecule, acceptor atom, score
      L1  H    11    31       P1  7957  0.75
      P1  H  7989  7998       L1    11  0.04
      P1  H  7997  8010       L1    14  0.89
      P1  H  8011  8017       L1    11  0.25

> <Gold.Chemscore.Hbond.Weighted>
-7.3275

> <Gold.Chemscore.Metal.Weighted>
-0.0000

> <Gold.Chemscore.Lipo.Weighted>
-5.2938

> <Gold.Chemscore.Internal_Hbond.Weighted>
0.0000

> <Gold.Chemscore.DEClash.Weighted>
0.0060

> <Gold.Chemscore.DEInternal.Weighted>
0.1592

> <Gold.Chemscore.Rot.Weighted>
6.9769

> <Gold.Chemscore.Internal.Correction.Weighted>
   9.000000E+99

> <Gold.Protein.RotatedTorsions>
[ 6907 6896 6895 6894 ] final  -54.43 input  -60.11 | X-H torsion
[ 7974 7965 7964 7962 ] final  -44.78 input  175.53 | X-H torsion
[ 8008 7997 7996 7995 ] final   30.36 input   59.86 | X-H torsion
[ 10167 10162 10161 10158 ] final -116.79 input  -65.29 | X-H torsion
[ 10718 10713 10712 10709 ] final   72.84 input   66.30 | X-H torsion
[ 10763 10752 10751 10750 ] final   61.90 input  -60.55 | X-H torsion
[ 11005 11000 10999 10996 ] final   45.54 input  -57.11 | X-H torsion

> <Gold.Protein.ActiveResidues>
 VAL166  LYS551  ARG553  GLY616  TRP617  ASP618  TYR619  PRO620  LYS621  CYS622 
 ASP623  PHE694  ASN695  SER759  ASP760  ASP761  ALA762  ILE779  LEU786  VAL792 
 PHE793  MET794  SER795  GLU796  ALA797  LYS798  CYS799  TRP800  GLU811  SER814 

> <Gold.Protein.RotatedAtoms>
  150.8339  134.7604  159.6876 H   0  0  0  0  0  0  0  0  0  0  0  0  # atno 6907 bound_to 6896
  152.4439  134.5531  159.9882 H   0  0  0  0  0  0  0  0  0  0  0  0  # atno 6908 bound_to 6896
  151.5686  133.3355  159.3021 H   0  0  0  0  0  0  0  0  0  0  0  0  # atno 6909 bound_to 6896
  145.9886  140.7205  142.9328 H   0  0  0  0  0  0  0  0  0  0  0  0  # atno 7974 bound_to 7965
  155.0891  140.3218  155.4579 H   0  0  0  0  0  0  0  0  0  0  0  0  # atno 8008 bound_to 7997
  156.2747  140.2081  156.5965 H   0  0  0  0  0  0  0  0  0  0  0  0  # atno 8009 bound_to 7997
  154.6917  140.0516  157.0357 H   0  0  0  0  0  0  0  0  0  0  0  0  # atno 8010 bound_to 7997
  140.0753  143.4838  152.1956 H   0  0  0  0  0  0  0  0  0  0  0  0  # atno 10167 bound_to 10162
  157.6520  130.9599  150.0985 H   0  0  0  0  0  0  0  0  0  0  0  0  # atno 10718 bound_to 10713
  152.9965  135.5484  154.6108 H   0  0  0  0  0  0  0  0  0  0  0  0  # atno 10763 bound_to 10752
  154.5429  135.2821  155.1081 H   0  0  0  0  0  0  0  0  0  0  0  0  # atno 10764 bound_to 10752
  154.2351  135.6426  153.5241 H   0  0  0  0  0  0  0  0  0  0  0  0  # atno 10765 bound_to 10752
  140.1451  134.4533  155.8421 H   0  0  0  0  0  0  0  0  0  0  0  0  # atno 11005 bound_to 11000
  144.6882  140.3031  143.7260 LP  0  0  0  0  0  0  0  0  0  0  0  0  # atno 17320 bound_to 7965
  145.7663  139.1842  143.2238 LP  0  0  0  0  0  0  0  0  0  0  0  0  # atno 17321 bound_to 7965
  139.5811  144.7511  151.3637 LP  0  0  0  0  0  0  0  0  0  0  0  0  # atno 17342 bound_to 10162
  140.7105  143.7403  150.7558 LP  0  0  0  0  0  0  0  0  0  0  0  0  # atno 17343 bound_to 10162
  156.1914  130.3655  149.8905 LP  0  0  0  0  0  0  0  0  0  0  0  0  # atno 17370 bound_to 10713
  156.6832  130.8866  151.3578 LP  0  0  0  0  0  0  0  0  0  0  0  0  # atno 17371 bound_to 10713
  141.2191  133.6849  156.7318 LP  0  0  0  0  0  0  0  0  0  0  0  0  # atno 17394 bound_to 11000
  140.2674  134.8419  157.3815 LP  0  0  0  0  0  0  0  0  0  0  0  0  # atno 17395 bound_to 11000

$$$$
