AV-unprocessed.smi:686|AV-procd|sdf|3339|dock3
  -GOLD-   22720 0313D 1   1.00000     0.00000
 Structure written by MMmdl.
 41 42  0  0  0  0  0  0  0  0  2 V2000
  152.0217  139.6089  158.4372 C   0  0  0  0  0  0  0  0  0  0  0  0
  152.1490  141.0913  158.0610 C   0  0  2  0  0  0  0  0  0  0  0  0
  152.7726  141.9542  159.1580 C   0  0  0  0  0  0  0  0  0  0  0  0
  152.3067  143.3268  158.8760 N   0  3  2  0  0  0  0  0  0  0  0  0
  152.4888  144.3049  159.9859 C   0  0  0  0  0  0  0  0  0  0  0  0
  152.1995  143.6587  161.3538 C   0  0  0  0  0  0  0  0  0  0  0  0
  151.5953  145.5459  159.8014 C   0  0  0  0  0  0  0  0  0  0  0  0
  150.9150  143.1781  158.3934 C   0  0  0  0  0  0  0  0  0  0  0  0
  150.8077  141.7793  157.7579 C   0  0  1  0  0  0  0  0  0  0  0  0
  150.5964  141.8657  156.3101 N   0  0  0  0  0  0  0  0  0  0  0  0
  150.2462  140.4127  155.4479 S   0  0  0  0  0  0  0  0  0  0  0  0
  151.4622  140.0357  154.7120 O   0  0  0  0  0  0  0  0  0  0  0  0
  149.6402  139.4650  156.3961 O   0  0  0  0  0  0  0  0  0  0  0  0
  148.9560  140.9569  154.2509 C   0  0  0  0  0  0  0  0  0  0  0  0
  147.7909  141.5415  154.9969 C   0  0  0  0  0  0  0  0  0  0  0  0
  146.6327  142.1773  154.4698 C   0  0  0  0  0  0  0  0  0  0  0  0
  145.9140  142.5038  155.5835 C   0  0  0  0  0  0  0  0  0  0  0  0
  146.5672  142.1047  156.7042 O   0  0  0  0  0  0  0  0  0  0  0  0
  147.7640  141.4900  156.3192 N   0  0  0  0  0  0  0  0  0  0  0  0
  151.4008  139.4747  159.3234 H   0  0  0  0  0  0  0  0  0  0  0  0
  152.9992  139.1729  158.6456 H   0  0  0  0  0  0  0  0  0  0  0  0
  151.5704  139.0384  157.6250 H   0  0  0  0  0  0  0  0  0  0  0  0
  152.7973  141.1685  157.1859 H   0  0  0  0  0  0  0  0  0  0  0  0
  152.4107  141.6422  160.1396 H   0  0  0  0  0  0  0  0  0  0  0  0
  153.8605  141.8808  159.1568 H   0  0  0  0  0  0  0  0  0  0  0  0
  153.5285  144.6362  159.9813 H   0  0  0  0  0  0  0  0  0  0  0  0
  152.2941  144.3885  162.1585 H   0  0  0  0  0  0  0  0  0  0  0  0
  152.8943  142.8497  161.5799 H   0  0  0  0  0  0  0  0  0  0  0  0
  151.1882  143.2528  161.3948 H   0  0  0  0  0  0  0  0  0  0  0  0
  151.6984  146.2298  160.6447 H   0  0  0  0  0  0  0  0  0  0  0  0
  150.5427  145.2702  159.7275 H   0  0  0  0  0  0  0  0  0  0  0  0
  151.8590  146.1106  158.9073 H   0  0  0  0  0  0  0  0  0  0  0  0
  150.2222  143.2421  159.2342 H   0  0  0  0  0  0  0  0  0  0  0  0
  150.6640  143.9816  157.6998 H   0  0  0  0  0  0  0  0  0  0  0  0
  149.9806  141.2295  158.2106 H   0  0  0  0  0  0  0  0  0  0  0  0
  151.3560  142.3775  155.8609 H   0  0  0  0  0  0  0  0  0  0  0  0
  149.3973  141.6935  153.5800 H   0  0  0  0  0  0  0  0  0  0  0  0
  148.6553  140.0970  153.6514 H   0  0  0  0  0  0  0  0  0  0  0  0
  146.3717  142.3657  153.4390 H   0  0  0  0  0  0  0  0  0  0  0  0
  144.9658  142.9977  155.7367 H   0  0  0  0  0  0  0  0  0  0  0  0
  152.8485  143.6540  158.0889 H   0  0  0  0  0  0  0  0  0  0  0  0
  1  2  1  0  0  0  0
  1 20  1  0  0  0  0
  1 21  1  0  0  0  0
  1 22  1  0  0  0  0
  2  9  1  0  0  0  0
  2  3  1  0  0  0  0
  2 23  1  0  0  0  0
  3  4  1  0  0  0  0
  3 24  1  0  0  0  0
  3 25  1  0  0  0  0
  4  5  1  0  0  0  0
  4  8  1  0  0  0  0
  4 41  1  0  0  0  0
  5  6  1  0  0  0  0
  5  7  1  0  0  0  0
  5 26  1  0  0  0  0
  6 27  1  0  0  0  0
  6 28  1  0  0  0  0
  6 29  1  0  0  0  0
  7 30  1  0  0  0  0
  7 31  1  0  0  0  0
  7 32  1  0  0  0  0
  8  9  1  0  0  0  0
  8 33  1  0  0  0  0
  8 34  1  0  0  0  0
  9 10  1  0  0  0  0
  9 35  1  0  0  0  0
 10 11  1  0  0  0  0
 10 36  1  0  0  0  0
 11 12  2  0  0  0  0
 11 13  2  0  0  0  0
 11 14  1  0  0  0  0
 14 15  1  0  0  0  0
 14 37  1  0  0  0  0
 14 38  1  0  0  0  0
 15 19  2  0  0  0  0
 15 16  1  0  0  0  0
 16 17  2  0  0  0  0
 16 39  1  0  0  0  0
 17 18  1  0  0  0  0
 17 40  1  0  0  0  0
 18 19  1  0  0  0  0
M  CHG  1   4   1
M  END
> <s_m_source_file>
AV-unprocessed.smi

> <i_m_source_file_index>
686

> <i_lp_mmshare_version>
43012

> <i_f3d_flags>
0

> <s_epik_input>
W0NIM11bQ0BASF0xW0NIMl1OKFtDSF0oW0NIM10pW0NIM10pW0NIMl1bQ0BIXTFbTkhdUyg9TykoPU8pW0NIMl1jMltjSF1bY0hdb24y

> <s_epik_cmdline>
J2VwaWtfcHl0aG9uJywgJy1waCcsICc3LjAnLCAnLXRuJywgJzgnLCAnLW1hJywgJzIwMCcsICctbWV0YWxfYmluZGluZycsICctaW1hZScsICc8aW5maWxlLm1hZT4nLCAnLW9tYWUnLCAnPG91dGZpbGUubWFlPic=

> <r_epik_Ionization_Penalty>
0.00200818

> <r_epik_Ionization_Penalty_Charging>
0.000701289

> <r_epik_Ionization_Penalty_Neutral>
0.00130689

> <r_epik_State_Penalty>
0.00131314

> <r_epik_Charging_Adjusted_Penalty>
0.00201443

> <i_epik_Tot_Q>
1

> <i_epik_Tot_abs_Q>
1

> <r_epik_Metal_State_Penalty>
0.310831

> <b_epik_Metal_Only>
0

> <s_lp_Force_Field>
OPLS_2005

> <r_lp_Energy>
20.8584

> <b_lp_Chiralities_Consistent>
1

> <s_lp_Variant>
AV-unprocessed.smi:686-3

> <Gold.Version>
5.8.1

> <Gold.Id.Protein>
6NUR|6NUR_protein|mol2

> <Gold.PLP.Fitness>
40.9480

> <Gold.PLP.PLP>
-39.6619

> <Gold.PLP.part.hbond>
-1.0000

> <Gold.PLP.part.metal>
0.0000

> <Gold.PLP.part.buried>
-3.7187

> <Gold.PLP.part.nonpolar>
-33.6873

> <Gold.PLP.part.repulsive>
0.3771

> <Gold.PLP.ligand.clash>
0.0000

> <Gold.PLP.ligand.torsion>
0.9555

> <Gold.PLP.Chemscore.Hbond>
1.0000

> <Gold.PLP.Chemscore.CHOScore>
0.0000

> <Gold.PLP.Chemscore.Metal>
0.0000

> <Gold.Chemscore.Hbonds>
donor molecule, donor type, donor heavy atom, donor atom, acceptor molecule, acceptor atom, score
      P1  H  7989  7998       L1    12  0.86

> <Gold.PLP.Chemscore.Internal.Correction>
0.1970

> <Gold.Rescore>
     Score         DG    S(hbond)    S(metal)    S(lipo)     H(rot)  DE(clash)    DE(int)     intcor
     11.05     -14.98       0.91        0.00      97.17       1.91       0.08       3.85       ----

> <Gold.Chemscore.Fitness>
11.0549

> <Gold.Chemscore.DG>
-14.9843

> <Gold.Chemscore.ZeroCoef>
-5.4800

> <Gold.Chemscore.Hbond>
0.9068

> <Gold.Chemscore.Metal>
0.0000

> <Gold.Chemscore.Lipo>
97.1715

> <Gold.Chemscore.Internal_Hbond>
0.0000

> <Gold.Chemscore.DEClash>
0.0763

> <Gold.Chemscore.DEInternal>
3.8531

> <Gold.Chemscore.Rot>
1.9115

> <Gold.Chemscore.Internal.Correction>
   9.000000E+99

> <Gold.Chemscore.Hbonds>
donor molecule, donor type, donor heavy atom, donor atom, acceptor molecule, acceptor atom, score
      P1  H  7989  7998       L1    12  0.69

> <Gold.Chemscore.Hbond.Weighted>
-3.0287

> <Gold.Chemscore.Metal.Weighted>
-0.0000

> <Gold.Chemscore.Lipo.Weighted>
-11.3691

> <Gold.Chemscore.Internal_Hbond.Weighted>
0.0000

> <Gold.Chemscore.DEClash.Weighted>
0.0763

> <Gold.Chemscore.DEInternal.Weighted>
3.8531

> <Gold.Chemscore.Rot.Weighted>
4.8935

> <Gold.Chemscore.Internal.Correction.Weighted>
   9.000000E+99

> <Gold.Protein.RotatedTorsions>
[ 6907 6896 6895 6894 ] final   24.75 input  -60.11 | X-H torsion
[ 7974 7965 7964 7962 ] final  -32.05 input  175.53 | X-H torsion
[ 8008 7997 7996 7995 ] final -139.91 input   59.86 | X-H torsion
[ 10167 10162 10161 10158 ] final  -73.85 input  -65.29 | X-H torsion
[ 10718 10713 10712 10709 ] final  -47.77 input   66.30 | X-H torsion
[ 10763 10752 10751 10750 ] final -109.58 input  -60.55 | X-H torsion
[ 11005 11000 10999 10996 ] final -168.23 input  -57.11 | X-H torsion

> <Gold.Protein.ActiveResidues>
 VAL166  LYS551  ARG553  GLY616  TRP617  ASP618  TYR619  PRO620  LYS621  CYS622 
 ASP623  PHE694  ASN695  SER759  ASP760  ASP761  ALA762  ILE779  LEU786  VAL792 
 PHE793  MET794  SER795  GLU796  ALA797  LYS798  CYS799  TRP800  GLU811  SER814 

> <Gold.Protein.RotatedAtoms>
  151.9622  135.0118  160.0548 H   0  0  0  0  0  0  0  0  0  0  0  0  # atno 6907 bound_to 6896
  152.1858  133.4734  159.4990 H   0  0  0  0  0  0  0  0  0  0  0  0  # atno 6908 bound_to 6896
  150.6926  134.1693  159.4249 H   0  0  0  0  0  0  0  0  0  0  0  0  # atno 6909 bound_to 6896
  146.1020  140.5744  142.8817 H   0  0  0  0  0  0  0  0  0  0  0  0  # atno 7974 bound_to 7965
  155.4526  140.0540  157.2999 H   0  0  0  0  0  0  0  0  0  0  0  0  # atno 8008 bound_to 7997
  154.4771  140.2065  155.9808 H   0  0  0  0  0  0  0  0  0  0  0  0  # atno 8009 bound_to 7997
  156.1148  140.3198  155.8129 H   0  0  0  0  0  0  0  0  0  0  0  0  # atno 8010 bound_to 7997
  140.5076  143.2350  151.7648 H   0  0  0  0  0  0  0  0  0  0  0  0  # atno 10167 bound_to 10162
  156.2052  130.4158  149.9188 H   0  0  0  0  0  0  0  0  0  0  0  0  # atno 10718 bound_to 10713
  154.8201  135.4596  154.0754 H   0  0  0  0  0  0  0  0  0  0  0  0  # atno 10763 bound_to 10752
  153.2115  135.6882  153.8115 H   0  0  0  0  0  0  0  0  0  0  0  0  # atno 10764 bound_to 10752
  153.7564  135.3290  155.3307 H   0  0  0  0  0  0  0  0  0  0  0  0  # atno 10765 bound_to 10752
  140.5444  134.5491  157.5107 H   0  0  0  0  0  0  0  0  0  0  0  0  # atno 11005 bound_to 11000
  144.7440  140.5019  143.6849 LP  0  0  0  0  0  0  0  0  0  0  0  0  # atno 17320 bound_to 7965
  145.5836  139.1490  143.3222 LP  0  0  0  0  0  0  0  0  0  0  0  0  # atno 17321 bound_to 7965
  139.4887  144.4436  151.9736 LP  0  0  0  0  0  0  0  0  0  0  0  0  # atno 17342 bound_to 10162
  140.3527  144.3069  150.5946 LP  0  0  0  0  0  0  0  0  0  0  0  0  # atno 17343 bound_to 10162
  156.6884  130.8886  151.3585 LP  0  0  0  0  0  0  0  0  0  0  0  0  # atno 17370 bound_to 10713
  157.7008  130.9331  150.0780 LP  0  0  0  0  0  0  0  0  0  0  0  0  # atno 17371 bound_to 10713
  139.9487  134.7655  156.0499 LP  0  0  0  0  0  0  0  0  0  0  0  0  # atno 17394 bound_to 11000
  141.1208  133.6613  156.3211 LP  0  0  0  0  0  0  0  0  0  0  0  0  # atno 17395 bound_to 11000

$$$$
