AV-unprocessed.smi:589|AV-procd|sdf|3006|dock2
  -GOLD-   2262023513D 1   1.00000     0.00000
 Structure written by MMmdl.
 40 41  0  0  0  0  0  0  0  0  1 V2000
  151.9529  145.2385  158.5537 C   0  0  0  0  0  0  0  0  0  0  0  0
  152.1415  143.7443  158.7094 C   0  0  0  0  0  0  0  0  0  0  0  0
  152.8283  143.2108  159.8148 C   0  0  0  0  0  0  0  0  0  0  0  0
  152.9779  141.8125  159.9137 C   0  0  0  0  0  0  0  0  0  0  0  0
  153.7612  141.2530  161.0926 C   0  0  0  0  0  0  0  0  0  0  0  0
  152.4128  140.9885  158.8989 C   0  0  0  0  0  0  0  0  0  0  0  0
  152.5378  139.4854  158.9427 C   0  0  0  0  0  0  0  0  0  0  0  0
  151.3917  138.8053  159.0382 N   0  0  0  0  0  0  0  0  0  0  0  0
  153.6313  138.9294  158.8595 O   0  0  0  0  0  0  0  0  0  0  0  0
  151.7516  141.6341  157.8137 C   0  0  0  0  0  0  0  0  0  0  0  0
  151.1685  140.8894  156.7741 N   0  0  0  0  0  0  0  0  0  0  0  0
  152.0918  140.0414  156.0347 C   0  0  0  0  0  0  0  0  0  0  0  0
  151.3013  139.1048  155.1041 C   0  0  2  0  0  0  0  0  0  0  0  0
  152.2253  138.2591  154.2222 C   0  0  0  0  0  0  0  0  0  0  0  0
  150.4596  139.8832  154.2513 O   0  0  0  0  0  0  0  0  0  0  0  0
  149.5402  140.7425  154.9329 C   0  0  1  0  0  0  0  0  0  0  0  0
  148.4009  139.9551  155.6041 C   0  0  0  0  0  0  0  0  0  0  0  0
  150.2988  141.6684  155.9047 C   0  0  0  0  0  0  0  0  0  0  0  0
  151.6189  142.9793  157.7321 N   0  0  0  0  0  0  0  0  0  0  0  0
  152.4519  145.7866  159.3532 H   0  0  0  0  0  0  0  0  0  0  0  0
  150.8923  145.4903  158.5788 H   0  0  0  0  0  0  0  0  0  0  0  0
  152.3645  145.5759  157.6022 H   0  0  0  0  0  0  0  0  0  0  0  0
  153.2410  143.8647  160.5692 H   0  0  0  0  0  0  0  0  0  0  0  0
  154.4850  140.5068  160.7633 H   0  0  0  0  0  0  0  0  0  0  0  0
  153.0882  140.7937  161.8167 H   0  0  0  0  0  0  0  0  0  0  0  0
  154.3159  142.0395  161.6053 H   0  0  0  0  0  0  0  0  0  0  0  0
  151.4055  137.7965  159.0752 H   0  0  0  0  0  0  0  0  0  0  0  0
  150.5152  139.3053  159.0761 H   0  0  0  0  0  0  0  0  0  0  0  0
  152.7747  140.6612  155.4518 H   0  0  0  0  0  0  0  0  0  0  0  0
  152.6955  139.4593  156.7322 H   0  0  0  0  0  0  0  0  0  0  0  0
  150.6915  138.4265  155.7015 H   0  0  0  0  0  0  0  0  0  0  0  0
  152.8815  137.6343  154.8285 H   0  0  0  0  0  0  0  0  0  0  0  0
  152.8517  138.8881  153.5890 H   0  0  0  0  0  0  0  0  0  0  0  0
  151.6480  137.6013  153.5720 H   0  0  0  0  0  0  0  0  0  0  0  0
  149.0826  141.3684  154.1665 H   0  0  0  0  0  0  0  0  0  0  0  0
  147.6500  140.6338  156.0087 H   0  0  0  0  0  0  0  0  0  0  0  0
  148.7544  139.3379  156.4299 H   0  0  0  0  0  0  0  0  0  0  0  0
  147.9038  139.3023  154.8864 H   0  0  0  0  0  0  0  0  0  0  0  0
  149.5970  142.2540  156.4999 H   0  0  0  0  0  0  0  0  0  0  0  0
  150.9052  142.3763  155.3378 H   0  0  0  0  0  0  0  0  0  0  0  0
  1  2  1  0  0  0  0
  1 20  1  0  0  0  0
  1 21  1  0  0  0  0
  1 22  1  0  0  0  0
  2 19  1  0  0  0  0
  2  3  2  0  0  0  0
  3  4  1  0  0  0  0
  3 23  1  0  0  0  0
  4  5  1  0  0  0  0
  4  6  2  0  0  0  0
  5 24  1  0  0  0  0
  5 25  1  0  0  0  0
  5 26  1  0  0  0  0
  6  7  1  0  0  0  0
  6 10  1  0  0  0  0
  7  8  1  0  0  0  0
  7  9  2  0  0  0  0
  8 27  1  0  0  0  0
  8 28  1  0  0  0  0
 10 11  1  0  0  0  0
 10 19  2  0  0  0  0
 11 18  1  0  0  0  0
 11 12  1  0  0  0  0
 12 13  1  0  0  0  0
 12 29  1  0  0  0  0
 12 30  1  0  0  0  0
 13 14  1  0  0  0  0
 13 15  1  0  0  0  0
 13 31  1  0  0  0  0
 14 32  1  0  0  0  0
 14 33  1  0  0  0  0
 14 34  1  0  0  0  0
 15 16  1  0  0  0  0
 16 17  1  0  0  0  0
 16 18  1  0  0  0  0
 16 35  1  0  0  0  0
 17 36  1  0  0  0  0
 17 37  1  0  0  0  0
 17 38  1  0  0  0  0
 18 39  1  0  0  0  0
 18 40  1  0  0  0  0
M  END
> <s_m_source_file>
AV-unprocessed.smi

> <i_m_source_file_index>
589

> <i_lp_mmshare_version>
43012

> <i_f3d_flags>
0

> <s_epik_input>
W0NIM11jMVtjSF1jKFtDSDNdKWMoQyg9TylbTkgyXSljKG4xKU4yW0NIMl1bQ0BASF0oW0NIM10pT1tDQEBIXShbQ0gzXSlbQ0gyXTI=

> <s_epik_cmdline>
J2VwaWtfcHl0aG9uJywgJy1waCcsICc3LjAnLCAnLXRuJywgJzgnLCAnLW1hJywgJzIwMCcsICctbWV0YWxfYmluZGluZycsICctaW1hZScsICc8aW5maWxlLm1hZT4nLCAnLW9tYWUnLCAnPG91dGZpbGUubWFlPic=

> <r_lp_tautomer_probability>
1

> <r_epik_Ionization_Penalty>
0.000626871

> <r_epik_Ionization_Penalty_Charging>
0

> <r_epik_Ionization_Penalty_Neutral>
0.000626871

> <r_epik_State_Penalty>
0.000395665

> <r_epik_Charging_Adjusted_Penalty>
0.000395665

> <i_epik_Tot_Q>
0

> <i_epik_Tot_abs_Q>
0

> <r_epik_Metal_State_Penalty>
-0

> <b_epik_Metal_Only>
0

> <s_lp_Force_Field>
OPLS_2005

> <r_lp_Energy>
27.5489

> <b_lp_Chiralities_Consistent>
1

> <s_lp_Variant>
AV-unprocessed.smi:589-2

> <Gold.Version>
5.8.1

> <Gold.Id.Protein>
6NUR|6NUR_protein|mol2

> <Gold.PLP.Fitness>
42.8387

> <Gold.PLP.PLP>
-39.9718

> <Gold.PLP.part.hbond>
-1.9695

> <Gold.PLP.part.metal>
0.0000

> <Gold.PLP.part.buried>
-5.2875

> <Gold.PLP.part.nonpolar>
-31.4557

> <Gold.PLP.part.repulsive>
0.3436

> <Gold.PLP.ligand.clash>
0.1969

> <Gold.PLP.ligand.torsion>
1.3396

> <Gold.PLP.Chemscore.Hbond>
1.8000

> <Gold.PLP.Chemscore.CHOScore>
0.0000

> <Gold.PLP.Chemscore.Metal>
0.0000

> <Gold.Chemscore.Hbonds>
donor molecule, donor type, donor heavy atom, donor atom, acceptor molecule, acceptor atom, score
      P1  H  7989  7998       L1    15  1.00
      P1  H  7997  8009       L1     9  0.32

> <Gold.PLP.Chemscore.Internal.Correction>
0.3429

> <Gold.Rescore>
     Score         DG    S(hbond)    S(metal)    S(lipo)     H(rot)  DE(clash)    DE(int)     intcor
     15.17     -17.81       0.98        0.00      99.20       1.00       0.03       2.61       ----

> <Gold.Chemscore.Fitness>
15.1713

> <Gold.Chemscore.DG>
-17.8076

> <Gold.Chemscore.ZeroCoef>
-5.4800

> <Gold.Chemscore.Hbond>
0.9824

> <Gold.Chemscore.Metal>
0.0000

> <Gold.Chemscore.Lipo>
99.1997

> <Gold.Chemscore.Internal_Hbond>
0.0000

> <Gold.Chemscore.DEClash>
0.0255

> <Gold.Chemscore.DEInternal>
2.6108

> <Gold.Chemscore.Rot>
1.0000

> <Gold.Chemscore.Internal.Correction>
   9.000000E+99

> <Gold.Chemscore.Hbonds>
donor molecule, donor type, donor heavy atom, donor atom, acceptor molecule, acceptor atom, score
      P1  H  7989  7998       L1    15  0.20
      P1  H  7997  8009       L1     9  0.20

> <Gold.Chemscore.Hbond.Weighted>
-3.2812

> <Gold.Chemscore.Metal.Weighted>
-0.0000

> <Gold.Chemscore.Lipo.Weighted>
-11.6064

> <Gold.Chemscore.Internal_Hbond.Weighted>
0.0000

> <Gold.Chemscore.DEClash.Weighted>
0.0255

> <Gold.Chemscore.DEInternal.Weighted>
2.6108

> <Gold.Chemscore.Rot.Weighted>
2.5600

> <Gold.Chemscore.Internal.Correction.Weighted>
   9.000000E+99

> <Gold.Protein.RotatedTorsions>
[ 6907 6896 6895 6894 ] final -152.68 input  -60.11 | X-H torsion
[ 7974 7965 7964 7962 ] final   73.59 input  175.53 | X-H torsion
[ 8008 7997 7996 7995 ] final  139.18 input   59.86 | X-H torsion
[ 10167 10162 10161 10158 ] final   27.22 input  -65.29 | X-H torsion
[ 10718 10713 10712 10709 ] final  141.46 input   66.30 | X-H torsion
[ 10763 10752 10751 10750 ] final  -85.28 input  -60.55 | X-H torsion
[ 11005 11000 10999 10996 ] final -103.34 input  -57.11 | X-H torsion

> <Gold.Protein.ActiveResidues>
 VAL166  LYS551  ARG553  GLY616  TRP617  ASP618  TYR619  PRO620  LYS621  CYS622 
 ASP623  PHE694  ASN695  SER759  ASP760  ASP761  ALA762  ILE779  LEU786  VAL792 
 PHE793  MET794  SER795  GLU796  ALA797  LYS798  CYS799  TRP800  GLU811  SER814 

> <Gold.Protein.RotatedAtoms>
  151.2313  133.4449  159.2603 H   0  0  0  0  0  0  0  0  0  0  0  0  # atno 6907 bound_to 6896
  151.0792  134.9847  159.8357 H   0  0  0  0  0  0  0  0  0  0  0  0  # atno 6908 bound_to 6896
  152.5422  134.2254  159.8857 H   0  0  0  0  0  0  0  0  0  0  0  0  # atno 6909 bound_to 6896
  145.7389  139.2713  143.1498 H   0  0  0  0  0  0  0  0  0  0  0  0  # atno 7974 bound_to 7965
  156.2992  140.2374  156.4195 H   0  0  0  0  0  0  0  0  0  0  0  0  # atno 8008 bound_to 7997
  154.8368  140.0430  157.1534 H   0  0  0  0  0  0  0  0  0  0  0  0  # atno 8009 bound_to 7997
  154.9147  140.2995  155.5251 H   0  0  0  0  0  0  0  0  0  0  0  0  # atno 8010 bound_to 7997
  140.4957  144.0396  150.6313 H   0  0  0  0  0  0  0  0  0  0  0  0  # atno 10167 bound_to 10162
  157.3917  131.1005  151.0640 H   0  0  0  0  0  0  0  0  0  0  0  0  # atno 10718 bound_to 10713
  154.6092  135.5490  153.7456 H   0  0  0  0  0  0  0  0  0  0  0  0  # atno 10763 bound_to 10752
  153.0188  135.6385  154.1602 H   0  0  0  0  0  0  0  0  0  0  0  0  # atno 10764 bound_to 10752
  154.1540  135.2901  155.3107 H   0  0  0  0  0  0  0  0  0  0  0  0  # atno 10765 bound_to 10752
  141.1150  133.8632  157.1473 H   0  0  0  0  0  0  0  0  0  0  0  0  # atno 11005 bound_to 11000
  146.0467  140.8111  142.9802 LP  0  0  0  0  0  0  0  0  0  0  0  0  # atno 17320 bound_to 7965
  144.6875  140.2991  143.7266 LP  0  0  0  0  0  0  0  0  0  0  0  0  # atno 17321 bound_to 7965
  140.3678  143.2872  152.0312 LP  0  0  0  0  0  0  0  0  0  0  0  0  # atno 17342 bound_to 10162
  139.4860  144.6253  151.7175 LP  0  0  0  0  0  0  0  0  0  0  0  0  # atno 17343 bound_to 10162
  157.1671  130.6251  149.5629 LP  0  0  0  0  0  0  0  0  0  0  0  0  # atno 17370 bound_to 10713
  155.9800  130.4797  150.6747 LP  0  0  0  0  0  0  0  0  0  0  0  0  # atno 17371 bound_to 10713
  140.0067  135.0005  157.0307 LP  0  0  0  0  0  0  0  0  0  0  0  0  # atno 17394 bound_to 11000
  140.4671  134.1425  155.7198 LP  0  0  0  0  0  0  0  0  0  0  0  0  # atno 17395 bound_to 11000

$$$$
