AV-unprocessed.smi:50|AV-procd|sdf|498|dock1
  -GOLD-   2262016373D 1   1.00000     0.00000
 Structure written by MMmdl.
 42 43  0  0  0  0  0  0  0  0  2 V2000
  144.5776  134.2908  151.9673 C   0  0  0  0  0  0  0  0  0  0  0  0
  145.0441  135.7585  151.8741 C   0  0  0  0  0  0  0  0  0  0  0  0
  145.8409  135.9420  150.5692 C   0  0  0  0  0  0  0  0  0  0  0  0
  145.8640  136.2613  153.1006 C   0  0  1  0  0  0  0  0  0  0  0  0
  147.0548  135.4308  153.2867 N   0  0  0  0  0  0  0  0  0  0  0  0
  146.2445  137.7508  153.0115 C   0  0  0  0  0  0  0  0  0  0  0  0
  146.3136  138.3901  151.9598 O   0  0  0  0  0  0  0  0  0  0  0  0
  146.4743  138.2442  154.2415 O   0  0  0  0  0  0  0  0  0  0  0  0
  146.2129  139.6064  154.5473 C   0  0  0  0  0  0  0  0  0  0  0  0
  147.0558  140.4716  153.6075 C   0  0  0  0  0  0  0  0  0  0  0  0
  148.4159  140.3986  154.0134 O   0  0  0  0  0  0  0  0  0  0  0  0
  148.9622  141.6166  154.4064 C   0  0  0  0  0  0  0  0  0  0  0  0
  149.6599  141.4298  155.6676 N   0  0  0  0  0  0  0  0  0  0  0  0
  149.3427  141.9850  156.8534 C   0  0  0  0  0  0  0  0  0  0  0  0
  150.1455  141.6661  157.8675 N   0  0  0  0  0  0  0  0  0  0  0  0
  151.0634  140.8200  157.2555 C   0  0  0  0  0  0  0  0  0  0  0  0
  152.2545  140.1112  157.7825 C   0  0  0  0  0  0  0  0  0  0  0  0
  152.5453  140.2315  158.9711 O   0  0  0  0  0  0  0  0  0  0  0  0
  152.9479  139.3671  156.8679 N   0  5  0  0  0  0  0  0  0  0  0  0
  152.5214  139.3034  155.5338 C   0  0  0  0  0  0  0  0  0  0  0  0
  153.3282  138.5049  154.7528 N   0  0  0  0  0  0  0  0  0  0  0  0
  151.4836  139.9004  155.0009 N   0  0  0  0  0  0  0  0  0  0  0  0
  150.7875  140.6582  155.9244 C   0  0  0  0  0  0  0  0  0  0  0  0
  145.2422  136.1371  153.9882 H   0  0  0  0  0  0  0  0  0  0  0  0
  145.4210  133.6252  152.1491 H   0  0  0  0  0  0  0  0  0  0  0  0
  144.0961  133.9681  151.0437 H   0  0  0  0  0  0  0  0  0  0  0  0
  143.8511  134.1387  152.7655 H   0  0  0  0  0  0  0  0  0  0  0  0
  144.1433  136.3693  151.7957 H   0  0  0  0  0  0  0  0  0  0  0  0
  146.7572  135.3505  150.5807 H   0  0  0  0  0  0  0  0  0  0  0  0
  146.1192  136.9834  150.4078 H   0  0  0  0  0  0  0  0  0  0  0  0
  145.2567  135.6284  149.7036 H   0  0  0  0  0  0  0  0  0  0  0  0
  146.8880  134.4768  153.0003 H   0  0  0  0  0  0  0  0  0  0  0  0
  147.8326  135.7684  152.7382 H   0  0  0  0  0  0  0  0  0  0  0  0
  145.1501  139.8221  154.4355 H   0  0  0  0  0  0  0  0  0  0  0  0
  146.4867  139.8392  155.5772 H   0  0  0  0  0  0  0  0  0  0  0  0
  146.9757  140.1030  152.5843 H   0  0  0  0  0  0  0  0  0  0  0  0
  146.6759  141.4938  153.6132 H   0  0  0  0  0  0  0  0  0  0  0  0
  149.6932  141.9278  153.6596 H   0  0  0  0  0  0  0  0  0  0  0  0
  148.2047  142.3966  154.5008 H   0  0  0  0  0  0  0  0  0  0  0  0
  148.4999  142.6494  156.9736 H   0  0  0  0  0  0  0  0  0  0  0  0
  154.1395  138.0178  155.1033 H   0  0  0  0  0  0  0  0  0  0  0  0
  153.1659  138.3554  153.7678 H   0  0  0  0  0  0  0  0  0  0  0  0
  1  2  1  0  0  0  0
  1 25  1  0  0  0  0
  1 26  1  0  0  0  0
  1 27  1  0  0  0  0
  2  3  1  0  0  0  0
  2  4  1  0  0  0  0
  2 28  1  0  0  0  0
  3 29  1  0  0  0  0
  3 30  1  0  0  0  0
  3 31  1  0  0  0  0
  4 24  1  0  0  0  0
  4  5  1  0  0  0  0
  4  6  1  0  0  0  0
  5 32  1  0  0  0  0
  5 33  1  0  0  0  0
  6  7  2  0  0  0  0
  6  8  1  0  0  0  0
  8  9  1  0  0  0  0
  9 10  1  0  0  0  0
  9 34  1  0  0  0  0
  9 35  1  0  0  0  0
 10 11  1  0  0  0  0
 10 36  1  0  0  0  0
 10 37  1  0  0  0  0
 11 12  1  0  0  0  0
 12 13  1  0  0  0  0
 12 38  1  0  0  0  0
 12 39  1  0  0  0  0
 13 23  1  0  0  0  0
 13 14  1  0  0  0  0
 14 15  2  0  0  0  0
 14 40  1  0  0  0  0
 15 16  1  0  0  0  0
 16 23  2  0  0  0  0
 16 17  1  0  0  0  0
 17 18  2  0  0  0  0
 17 19  1  0  0  0  0
 19 20  1  0  0  0  0
 20 21  1  0  0  0  0
 20 22  2  0  0  0  0
 21 41  1  0  0  0  0
 21 42  1  0  0  0  0
 22 23  1  0  0  0  0
M  CHG  1  19  -1
M  END
> <s_m_source_file>
AV-unprocessed.smi

> <i_m_source_file_index>
50

> <i_lp_mmshare_version>
43012

> <i_f3d_flags>
0

> <s_epik_input>
W0NIM11bQ0hdKFtDSDNdKVtDQEhdKFtOSDJdKUMoPU8pT1tDSDJdW0NIMl1PW0NIMl1uKFtjSF1uMSljKGMxMiluYyhbTkgyXSlbbkhdYzI9Tw==

> <s_epik_cmdline>
J2VwaWtfcHl0aG9uJywgJy1waCcsICc3LjAnLCAnLXRuJywgJzgnLCAnLW1hJywgJzIwMCcsICctbWV0YWxfYmluZGluZycsICctaW1hZScsICc8aW5maWxlLm1hZT4nLCAnLW9tYWUnLCAnPG91dGZpbGUubWFlPic=

> <r_lp_tautomer_probability>
0.99994

> <r_epik_Ionization_Penalty>
4.26118

> <r_epik_Ionization_Penalty_Charging>
1.23364e-10

> <r_epik_Ionization_Penalty_Neutral>
4.26118

> <r_epik_State_Penalty>
4.27372

> <r_epik_Charging_Adjusted_Penalty>
4.27372

> <i_epik_Tot_Q>
-1

> <i_epik_Tot_abs_Q>
1

> <r_epik_Metal_State_Penalty>
1.24306

> <b_epik_Metal_Only>
1

> <s_epik_Chemistry_Notes>
This compound has an ester and may undergo hydrolysis at high or low pH. This compound contains an acetal/aminal-like group ( X-CH(R)-Y where X, Y are N, S, or O) that may be acid/base labile, releasing an aldehyde.

> <s_lp_Force_Field>
OPLS_2005

> <r_lp_Energy>
20.1027

> <b_lp_Chiralities_Consistent>
1

> <s_lp_Variant>
AV-unprocessed.smi:50-8

> <Gold.Version>
5.8.1

> <Gold.Id.Protein>
6NUR|6NUR_protein|mol2

> <Gold.PLP.Fitness>
42.0185

> <Gold.PLP.PLP>
-31.2163

> <Gold.PLP.part.hbond>
-3.0000

> <Gold.PLP.part.metal>
0.0000

> <Gold.PLP.part.buried>
-3.8111

> <Gold.PLP.part.nonpolar>
-25.6049

> <Gold.PLP.part.repulsive>
1.0320

> <Gold.PLP.ligand.clash>
0.0000

> <Gold.PLP.ligand.torsion>
1.7427

> <Gold.PLP.Chemscore.Hbond>
4.0000

> <Gold.PLP.Chemscore.CHOScore>
0.6459

> <Gold.PLP.Chemscore.Metal>
0.0000

> <Gold.Chemscore.Hbonds>
donor molecule, donor type, donor heavy atom, donor atom, acceptor molecule, acceptor atom, score
      L1  H     5    33       P1  7948  0.89
      P1  H  7989  7998       L1    22  1.00
      P1  H  7997  8008       L1    19  1.50
      L1  C    14    40       P1  8028  0.61

> <Gold.PLP.Chemscore.Internal.Correction>
0.3498

> <Gold.Rescore>
     Score         DG    S(hbond)    S(metal)    S(lipo)     H(rot)  DE(clash)    DE(int)     intcor
     -0.92      -3.36       1.98        0.00      28.63       4.72       0.52       3.75       ----

> <Gold.Chemscore.Fitness>
-0.9154

> <Gold.Chemscore.DG>
-3.3596

> <Gold.Chemscore.ZeroCoef>
-5.4800

> <Gold.Chemscore.Hbond>
1.9831

> <Gold.Chemscore.Metal>
0.0000

> <Gold.Chemscore.Lipo>
28.6269

> <Gold.Chemscore.Internal_Hbond>
0.0000

> <Gold.Chemscore.DEClash>
0.5214

> <Gold.Chemscore.DEInternal>
3.7535

> <Gold.Chemscore.Rot>
4.7239

> <Gold.Chemscore.Internal.Correction>
   9.000000E+99

> <Gold.Chemscore.Hbonds>
donor molecule, donor type, donor heavy atom, donor atom, acceptor molecule, acceptor atom, score
      L1  H     5    33       P1  7948  0.86
      P1  H  7989  7998       L1    22  0.64
      P1  H  7997  8008       L1    19  0.07

> <Gold.Chemscore.Hbond.Weighted>
-6.6235

> <Gold.Chemscore.Metal.Weighted>
-0.0000

> <Gold.Chemscore.Lipo.Weighted>
-3.3493

> <Gold.Chemscore.Internal_Hbond.Weighted>
0.0000

> <Gold.Chemscore.DEClash.Weighted>
0.5214

> <Gold.Chemscore.DEInternal.Weighted>
3.7535

> <Gold.Chemscore.Rot.Weighted>
12.0933

> <Gold.Chemscore.Internal.Correction.Weighted>
   9.000000E+99

> <Gold.Protein.RotatedTorsions>
[ 6907 6896 6895 6894 ] final -146.05 input  -60.11 | X-H torsion
[ 7974 7965 7964 7962 ] final -102.74 input  175.53 | X-H torsion
[ 8008 7997 7996 7995 ] final  -54.05 input   59.86 | X-H torsion
[ 10167 10162 10161 10158 ] final -134.26 input  -65.29 | X-H torsion
[ 10718 10713 10712 10709 ] final  -78.57 input   66.30 | X-H torsion
[ 10763 10752 10751 10750 ] final -167.82 input  -60.55 | X-H torsion
[ 11005 11000 10999 10996 ] final  102.36 input  -57.11 | X-H torsion

> <Gold.Protein.ActiveResidues>
 VAL166  LYS551  ARG553  GLY616  TRP617  ASP618  TYR619  PRO620  LYS621  CYS622 
 ASP623  PHE694  ASN695  SER759  ASP760  ASP761  ALA762  ILE779  LEU786  VAL792 
 PHE793  MET794  SER795  GLU796  ALA797  LYS798  CYS799  TRP800  GLU811  SER814 

> <Gold.Protein.RotatedAtoms>
  151.1362  133.5003  159.2597 H   0  0  0  0  0  0  0  0  0  0  0  0  # atno 6907 bound_to 6896
  151.1704  135.0315  159.8759 H   0  0  0  0  0  0  0  0  0  0  0  0  # atno 6908 bound_to 6896
  152.5461  134.1226  159.8458 H   0  0  0  0  0  0  0  0  0  0  0  0  # atno 6909 bound_to 6896
  145.2649  140.9281  143.3019 H   0  0  0  0  0  0  0  0  0  0  0  0  # atno 7974 bound_to 7965
  154.4151  140.1185  156.5253 H   0  0  0  0  0  0  0  0  0  0  0  0  # atno 8008 bound_to 7997
  155.6660  140.3496  155.4781 H   0  0  0  0  0  0  0  0  0  0  0  0  # atno 8009 bound_to 7997
  155.9673  140.1134  157.0833 H   0  0  0  0  0  0  0  0  0  0  0  0  # atno 8010 bound_to 7997
  139.8899  143.6736  152.2614 H   0  0  0  0  0  0  0  0  0  0  0  0  # atno 10167 bound_to 10162
  156.0114  130.4522  150.3517 H   0  0  0  0  0  0  0  0  0  0  0  0  # atno 10718 bound_to 10713
  154.6692  135.2936  154.9764 H   0  0  0  0  0  0  0  0  0  0  0  0  # atno 10763 bound_to 10752
  154.0797  135.6606  153.4840 H   0  0  0  0  0  0  0  0  0  0  0  0  # atno 10764 bound_to 10752
  153.0476  135.5194  154.7680 H   0  0  0  0  0  0  0  0  0  0  0  0  # atno 10765 bound_to 10752
  139.8777  134.9221  156.5046 H   0  0  0  0  0  0  0  0  0  0  0  0  # atno 11005 bound_to 11000
  144.9386  139.4215  143.6460 LP  0  0  0  0  0  0  0  0  0  0  0  0  # atno 17320 bound_to 7965
  146.3264  139.8334  142.8904 LP  0  0  0  0  0  0  0  0  0  0  0  0  # atno 17321 bound_to 7965
  139.7119  144.7618  151.1097 LP  0  0  0  0  0  0  0  0  0  0  0  0  # atno 17342 bound_to 10162
  140.7728  143.5319  150.9413 LP  0  0  0  0  0  0  0  0  0  0  0  0  # atno 17343 bound_to 10162
  157.1609  131.0344  151.2841 LP  0  0  0  0  0  0  0  0  0  0  0  0  # atno 17370 bound_to 10713
  157.4312  130.7491  149.6991 LP  0  0  0  0  0  0  0  0  0  0  0  0  # atno 17371 bound_to 10713
  140.8564  133.8093  155.9221 LP  0  0  0  0  0  0  0  0  0  0  0  0  # atno 17394 bound_to 11000
  140.9093  134.2281  157.4995 LP  0  0  0  0  0  0  0  0  0  0  0  0  # atno 17395 bound_to 11000

$$$$
