AV-unprocessed.smi:2915|AV-procd|sdf|11187|dock8
  -GOLD-   2272016 83D 1   1.00000     0.00000
 Structure written by MMmdl.
 41 42  0  0  0  0  0  0  0  0  1 V2000
  153.5837  143.5444  163.5796 C   0  0  0  0  0  0  0  0  0  0  0  0
  153.5270  142.6692  162.3748 C   0  0  0  0  0  0  0  0  0  0  0  0
  152.8435  142.9763  161.2693 N   0  0  0  0  0  0  0  0  0  0  0  0
  152.9545  141.9956  160.2777 C   0  0  0  0  0  0  0  0  0  0  0  0
  152.2539  142.1762  158.9599 C   0  0  0  0  0  0  0  0  0  0  0  0
  151.6556  140.8650  158.4332 C   0  0  0  0  0  0  0  0  0  0  0  0
  152.3739  139.9505  158.0258 O   0  0  0  0  0  0  0  0  0  0  0  0
  150.3155  140.7963  158.4475 N   0  0  0  0  0  0  0  0  0  0  0  0
  149.5044  139.6729  157.9760 C   0  0  0  0  0  0  0  0  0  0  0  0
  149.5155  139.5031  156.4302 C   0  0  0  0  0  0  0  0  0  0  0  0
  150.6784  138.5311  156.0799 C   0  0  0  0  0  0  0  0  0  0  0  0
  150.9337  138.2577  154.5821 C   0  0  0  0  0  0  0  0  0  0  0  0
  151.1436  136.8762  154.3852 O   0  0  0  0  0  0  0  0  0  0  0  0
  148.1492  138.9646  155.9220 C   0  0  0  0  0  0  0  0  0  0  0  0
  147.7645  139.8304  154.7218 C   0  0  0  0  0  0  0  0  0  0  0  0
  148.3581  141.1958  155.0480 C   0  0  0  0  0  0  0  0  0  0  0  0
  149.6935  140.8747  155.7217 C   0  0  0  0  0  0  0  0  0  0  0  0
  153.7277  140.9268  160.6594 C   0  0  0  0  0  0  0  0  0  0  0  0
  154.3570  141.1216  162.2718 S   0  0  0  0  0  0  0  0  0  0  0  0
  153.1113  144.5066  163.3789 H   0  0  0  0  0  0  0  0  0  0  0  0
  154.6212  143.7178  163.8652 H   0  0  0  0  0  0  0  0  0  0  0  0
  153.0659  143.0662  164.4110 H   0  0  0  0  0  0  0  0  0  0  0  0
  151.4527  142.9098  159.0553 H   0  0  0  0  0  0  0  0  0  0  0  0
  152.9453  142.5705  158.2137 H   0  0  0  0  0  0  0  0  0  0  0  0
  149.8109  141.5962  158.8008 H   0  0  0  0  0  0  0  0  0  0  0  0
  149.8198  138.7435  158.4532 H   0  0  0  0  0  0  0  0  0  0  0  0
  148.4840  139.8475  158.3188 H   0  0  0  0  0  0  0  0  0  0  0  0
  151.5983  138.9128  156.5260 H   0  0  0  0  0  0  0  0  0  0  0  0
  150.4927  137.5726  156.5671 H   0  0  0  0  0  0  0  0  0  0  0  0
  150.0851  138.5603  153.9700 H   0  0  0  0  0  0  0  0  0  0  0  0
  151.8066  138.7916  154.2100 H   0  0  0  0  0  0  0  0  0  0  0  0
  150.5124  136.5623  153.7556 H   0  0  0  0  0  0  0  0  0  0  0  0
  148.1678  137.9034  155.6739 H   0  0  0  0  0  0  0  0  0  0  0  0
  147.3740  139.0720  156.6804 H   0  0  0  0  0  0  0  0  0  0  0  0
  148.2226  139.4360  153.8140 H   0  0  0  0  0  0  0  0  0  0  0  0
  146.6867  139.8695  154.5613 H   0  0  0  0  0  0  0  0  0  0  0  0
  148.4744  141.8256  154.1657 H   0  0  0  0  0  0  0  0  0  0  0  0
  147.7082  141.7213  155.7493 H   0  0  0  0  0  0  0  0  0  0  0  0
  150.0005  141.6720  156.3987 H   0  0  0  0  0  0  0  0  0  0  0  0
  150.4689  140.8303  154.9587 H   0  0  0  0  0  0  0  0  0  0  0  0
  153.9697  140.0428  160.0882 H   0  0  0  0  0  0  0  0  0  0  0  0
  1  2  1  0  0  0  0
  1 20  1  0  0  0  0
  1 21  1  0  0  0  0
  1 22  1  0  0  0  0
  2 19  1  0  0  0  0
  2  3  2  0  0  0  0
  3  4  1  0  0  0  0
  4  5  1  0  0  0  0
  4 18  2  0  0  0  0
  5  6  1  0  0  0  0
  5 23  1  0  0  0  0
  5 24  1  0  0  0  0
  6  7  2  0  0  0  0
  6  8  1  0  0  0  0
  8  9  1  0  0  0  0
  8 25  1  0  0  0  0
  9 10  1  0  0  0  0
  9 26  1  0  0  0  0
  9 27  1  0  0  0  0
 10 17  1  0  0  0  0
 10 11  1  0  0  0  0
 10 14  1  0  0  0  0
 11 12  1  0  0  0  0
 11 28  1  0  0  0  0
 11 29  1  0  0  0  0
 12 13  1  0  0  0  0
 12 30  1  0  0  0  0
 12 31  1  0  0  0  0
 13 32  1  0  0  0  0
 14 15  1  0  0  0  0
 14 33  1  0  0  0  0
 14 34  1  0  0  0  0
 15 16  1  0  0  0  0
 15 35  1  0  0  0  0
 15 36  1  0  0  0  0
 16 17  1  0  0  0  0
 16 37  1  0  0  0  0
 16 38  1  0  0  0  0
 17 39  1  0  0  0  0
 17 40  1  0  0  0  0
 18 19  1  0  0  0  0
 18 41  1  0  0  0  0
M  END
> <s_m_source_file>
AV-unprocessed.smi

> <i_m_source_file_index>
2915

> <i_lp_mmshare_version>
43012

> <i_f3d_flags>
0

> <s_epik_input>
W0NIM11jMW5jKFtjSF1zMSlbQ0gyXUMoPU8pW05IXVtDSDJdQzIoW0NIMl1bQ0gyXVtPSF0pW0NIMl1bQ0gyXVtDSDJdW0NIMl0y

> <s_epik_cmdline>
J2VwaWtfcHl0aG9uJywgJy1waCcsICc3LjAnLCAnLXRuJywgJzgnLCAnLW1hJywgJzIwMCcsICctbWV0YWxfYmluZGluZycsICctaW1hZScsICc8aW5maWxlLm1hZT4nLCAnLW9tYWUnLCAnPG91dGZpbGUubWFlPic=

> <r_lp_tautomer_probability>
1

> <r_epik_Ionization_Penalty>
5.95244e-05

> <r_epik_Ionization_Penalty_Charging>
0

> <r_epik_Ionization_Penalty_Neutral>
5.95244e-05

> <r_epik_State_Penalty>
-0

> <r_epik_Charging_Adjusted_Penalty>
0

> <i_epik_Tot_Q>
0

> <i_epik_Tot_abs_Q>
0

> <r_epik_Metal_State_Penalty>
-0

> <b_epik_Metal_Only>
0

> <s_lp_Force_Field>
OPLS_2005

> <r_lp_Energy>
27.9647

> <b_lp_Chiralities_Consistent>
1

> <s_lp_Variant>
AV-unprocessed.smi:2915-1

> <Gold.Version>
5.8.1

> <Gold.Id.Protein>
6NUR|6NUR_protein|mol2

> <Gold.PLP.Fitness>
45.9018

> <Gold.PLP.PLP>
-39.5962

> <Gold.PLP.part.hbond>
-3.0000

> <Gold.PLP.part.metal>
0.0000

> <Gold.PLP.part.buried>
-3.6719

> <Gold.PLP.part.nonpolar>
-31.3668

> <Gold.PLP.part.repulsive>
0.1679

> <Gold.PLP.ligand.clash>
0.0000

> <Gold.PLP.ligand.torsion>
1.3623

> <Gold.PLP.Chemscore.Hbond>
3.0000

> <Gold.PLP.Chemscore.CHOScore>
0.0000

> <Gold.PLP.Chemscore.Metal>
0.0000

> <Gold.Chemscore.Hbonds>
donor molecule, donor type, donor heavy atom, donor atom, acceptor molecule, acceptor atom, score
      L1  H    13    32       P1  7948  0.01
      P1  H  7997  8008       L1     7  0.06
      P1  H 10752 10765       L1    13  0.65

> <Gold.PLP.Chemscore.Internal.Correction>
0.0303

> <Gold.Rescore>
     Score         DG    S(hbond)    S(metal)    S(lipo)     H(rot)  DE(clash)    DE(int)     intcor
     17.93     -19.86       2.30        0.00     110.86       2.45       0.37       1.56       ----

> <Gold.Chemscore.Fitness>
17.9294

> <Gold.Chemscore.DG>
-19.8607

> <Gold.Chemscore.ZeroCoef>
-5.4800

> <Gold.Chemscore.Hbond>
2.2977

> <Gold.Chemscore.Metal>
0.0000

> <Gold.Chemscore.Lipo>
110.8596

> <Gold.Chemscore.Internal_Hbond>
0.0000

> <Gold.Chemscore.DEClash>
0.3726

> <Gold.Chemscore.DEInternal>
1.5588

> <Gold.Chemscore.Rot>
2.4469

> <Gold.Chemscore.Internal.Correction>
   9.000000E+99

> <Gold.Chemscore.Hbonds>
donor molecule, donor type, donor heavy atom, donor atom, acceptor molecule, acceptor atom, score
      P1  H  7997  8008       L1     7  0.11
      P1  H 10752 10765       L1    13  0.48

> <Gold.Chemscore.Hbond.Weighted>
-7.6742

> <Gold.Chemscore.Metal.Weighted>
-0.0000

> <Gold.Chemscore.Lipo.Weighted>
-12.9706

> <Gold.Chemscore.Internal_Hbond.Weighted>
0.0000

> <Gold.Chemscore.DEClash.Weighted>
0.3726

> <Gold.Chemscore.DEInternal.Weighted>
1.5588

> <Gold.Chemscore.Rot.Weighted>
6.2640

> <Gold.Chemscore.Internal.Correction.Weighted>
   9.000000E+99

> <Gold.Protein.RotatedTorsions>
[ 6907 6896 6895 6894 ] final -153.44 input  -60.11 | X-H torsion
[ 7974 7965 7964 7962 ] final -145.89 input  175.53 | X-H torsion
[ 8008 7997 7996 7995 ] final  -77.94 input   59.86 | X-H torsion
[ 10167 10162 10161 10158 ] final  119.36 input  -65.29 | X-H torsion
[ 10718 10713 10712 10709 ] final   63.13 input   66.30 | X-H torsion
[ 10763 10752 10751 10750 ] final  162.29 input  -60.55 | X-H torsion
[ 11005 11000 10999 10996 ] final   -1.89 input  -57.11 | X-H torsion

> <Gold.Protein.ActiveResidues>
 VAL166  LYS551  ARG553  GLY616  TRP617  ASP618  TYR619  PRO620  LYS621  CYS622 
 ASP623  PHE694  ASN695  SER759  ASP760  ASP761  ALA762  ILE779  LEU786  VAL792 
 PHE793  MET794  SER795  GLU796  ALA797  LYS798  CYS799  TRP800  GLU811  SER814 

> <Gold.Protein.RotatedAtoms>
  151.2427  133.4391  159.2607 H   0  0  0  0  0  0  0  0  0  0  0  0  # atno 6907 bound_to 6896
  151.0691  134.9786  159.8309 H   0  0  0  0  0  0  0  0  0  0  0  0  # atno 6908 bound_to 6896
  152.5409  134.2373  159.8901 H   0  0  0  0  0  0  0  0  0  0  0  0  # atno 6909 bound_to 6896
  144.8196  140.5526  143.5587 H   0  0  0  0  0  0  0  0  0  0  0  0  # atno 7974 bound_to 7965
  154.5643  140.0702  156.8867 H   0  0  0  0  0  0  0  0  0  0  0  0  # atno 8008 bound_to 7997
  155.2752  140.3368  155.4244 H   0  0  0  0  0  0  0  0  0  0  0  0  # atno 8009 bound_to 7997
  156.2068  140.1743  156.7768 H   0  0  0  0  0  0  0  0  0  0  0  0  # atno 8010 bound_to 7997
  139.6051  144.7067  151.2973 H   0  0  0  0  0  0  0  0  0  0  0  0  # atno 10167 bound_to 10162
  157.5949  130.9088  149.9676 H   0  0  0  0  0  0  0  0  0  0  0  0  # atno 10718 bound_to 10713
  154.2761  135.2764  155.2717 H   0  0  0  0  0  0  0  0  0  0  0  0  # atno 10763 bound_to 10752
  154.5259  135.5743  153.6722 H   0  0  0  0  0  0  0  0  0  0  0  0  # atno 10764 bound_to 10752
  152.9937  135.6216  154.2918 H   0  0  0  0  0  0  0  0  0  0  0  0  # atno 10765 bound_to 10752
  140.6523  133.9393  155.8387 H   0  0  0  0  0  0  0  0  0  0  0  0  # atno 11005 bound_to 11000
  145.5134  139.1478  143.3592 LP  0  0  0  0  0  0  0  0  0  0  0  0  # atno 17320 bound_to 7965
  146.2501  140.5275  142.8897 LP  0  0  0  0  0  0  0  0  0  0  0  0  # atno 17321 bound_to 7965
  140.7278  143.6951  150.7890 LP  0  0  0  0  0  0  0  0  0  0  0  0  # atno 17342 bound_to 10162
  140.0535  143.5225  152.2662 LP  0  0  0  0  0  0  0  0  0  0  0  0  # atno 17343 bound_to 10162
  156.1010  130.3656  150.0218 LP  0  0  0  0  0  0  0  0  0  0  0  0  # atno 17370 bound_to 10713
  156.8333  130.9400  151.3636 LP  0  0  0  0  0  0  0  0  0  0  0  0  # atno 17371 bound_to 10713
  141.0527  134.0461  157.3762 LP  0  0  0  0  0  0  0  0  0  0  0  0  # atno 17394 bound_to 11000
  139.9041  135.0174  156.7407 LP  0  0  0  0  0  0  0  0  0  0  0  0  # atno 17395 bound_to 11000

$$$$
