AV-unprocessed.smi:1271|AV-procd|sdf|5333|dock4
  -GOLD-   22720 4463D 1   1.00000     0.00000
 Structure written by MMmdl.
 35 36  0  0  0  0  0  0  0  0  1 V2000
  147.9907  141.3443  156.8964 C   0  0  0  0  0  0  0  0  0  0  0  0
  149.4077  141.3833  156.3032 C   0  0  1  0  0  0  0  0  0  0  0  0
  149.3772  141.6277  154.7820 C   0  0  0  0  0  0  0  0  0  0  0  0
  148.4896  140.7061  154.0940 N   0  0  0  0  0  0  0  0  0  0  0  0
  147.3580  140.9948  153.3608 C   0  0  0  0  0  0  0  0  0  0  0  0
  146.8452  139.8082  152.9212 C   0  0  0  0  0  0  0  0  0  0  0  0
  147.7446  138.8369  153.4432 C   0  0  0  0  0  0  0  0  0  0  0  0
  148.7292  139.3771  154.1430 N   0  0  0  0  0  0  0  0  0  0  0  0
  150.1958  142.4257  156.9557 N   0  0  0  0  0  0  0  0  0  0  0  0
  151.3100  142.2373  157.6821 C   0  0  0  0  0  0  0  0  0  0  0  0
  151.7568  141.1139  157.9185 O   0  0  0  0  0  0  0  0  0  0  0  0
  151.8957  143.3795  158.1232 N   0  0  0  0  0  0  0  0  0  0  0  0
  151.3198  144.7327  158.0486 C   0  0  0  0  0  0  0  0  0  0  0  0
  150.6803  145.0798  159.4028 C   0  0  0  0  0  0  0  0  0  0  0  0
  151.9329  145.1116  160.7234 S   0  0  0  0  0  0  0  0  0  0  0  0
  152.7475  143.5125  160.4152 C   0  0  0  0  0  0  0  0  0  0  0  0
  153.1209  143.3574  158.9309 C   0  0  0  0  0  0  0  0  0  0  0  0
  147.3895  140.5679  156.4226 H   0  0  0  0  0  0  0  0  0  0  0  0
  147.4754  142.2951  156.7577 H   0  0  0  0  0  0  0  0  0  0  0  0
  148.0150  141.1312  157.9655 H   0  0  0  0  0  0  0  0  0  0  0  0
  149.8794  140.4148  156.4804 H   0  0  0  0  0  0  0  0  0  0  0  0
  149.0344  142.6417  154.5723 H   0  0  0  0  0  0  0  0  0  0  0  0
  150.3792  141.5445  154.3568 H   0  0  0  0  0  0  0  0  0  0  0  0
  147.0141  142.0087  153.2185 H   0  0  0  0  0  0  0  0  0  0  0  0
  145.9609  139.6567  152.3201 H   0  0  0  0  0  0  0  0  0  0  0  0
  147.7110  137.7627  153.3359 H   0  0  0  0  0  0  0  0  0  0  0  0
  149.8950  143.3775  156.8036 H   0  0  0  0  0  0  0  0  0  0  0  0
  152.1013  145.4558  157.8108 H   0  0  0  0  0  0  0  0  0  0  0  0
  150.5873  144.8440  157.2488 H   0  0  0  0  0  0  0  0  0  0  0  0
  150.1962  146.0554  159.3568 H   0  0  0  0  0  0  0  0  0  0  0  0
  149.9095  144.3515  159.6580 H   0  0  0  0  0  0  0  0  0  0  0  0
  153.6380  143.4472  161.0405 H   0  0  0  0  0  0  0  0  0  0  0  0
  152.0801  142.7075  160.7252 H   0  0  0  0  0  0  0  0  0  0  0  0
  153.6907  142.4385  158.7854 H   0  0  0  0  0  0  0  0  0  0  0  0
  153.7895  144.1627  158.6236 H   0  0  0  0  0  0  0  0  0  0  0  0
  1  2  1  0  0  0  0
  1 18  1  0  0  0  0
  1 19  1  0  0  0  0
  1 20  1  0  0  0  0
  2  3  1  0  0  0  0
  2  9  1  0  0  0  0
  2 21  1  0  0  0  0
  3  4  1  0  0  0  0
  3 22  1  0  0  0  0
  3 23  1  0  0  0  0
  4  8  1  0  0  0  0
  4  5  1  0  0  0  0
  5  6  2  0  0  0  0
  5 24  1  0  0  0  0
  6  7  1  0  0  0  0
  6 25  1  0  0  0  0
  7  8  2  0  0  0  0
  7 26  1  0  0  0  0
  9 10  1  0  0  0  0
  9 27  1  0  0  0  0
 10 11  2  0  0  0  0
 10 12  1  0  0  0  0
 12 17  1  0  0  0  0
 12 13  1  0  0  0  0
 13 14  1  0  0  0  0
 13 28  1  0  0  0  0
 13 29  1  0  0  0  0
 14 15  1  0  0  0  0
 14 30  1  0  0  0  0
 14 31  1  0  0  0  0
 15 16  1  0  0  0  0
 16 17  1  0  0  0  0
 16 32  1  0  0  0  0
 16 33  1  0  0  0  0
 17 34  1  0  0  0  0
 17 35  1  0  0  0  0
M  END
> <s_m_source_file>
AV-unprocessed.smi

> <i_m_source_file_index>
1271

> <i_lp_mmshare_version>
43012

> <i_f3d_flags>
0

> <s_epik_input>
bjFbY0hdW2NIXVtjSF1uMVtDSDJdW0NAQEhdKFtDSDNdKVtOSF1DKD1PKU4yW0NIMl1bQ0gyXVNbQ0gyXVtDSDJdMg==

> <s_epik_cmdline>
J2VwaWtfcHl0aG9uJywgJy1waCcsICc3LjAnLCAnLXRuJywgJzgnLCAnLW1hJywgJzIwMCcsICctbWV0YWxfYmluZGluZycsICctaW1hZScsICc8aW5maWxlLm1hZT4nLCAnLW9tYWUnLCAnPG91dGZpbGUubWFlPic=

> <r_lp_tautomer_probability>
1

> <r_epik_Ionization_Penalty>
5.86346e-05

> <r_epik_Ionization_Penalty_Charging>
0

> <r_epik_Ionization_Penalty_Neutral>
5.86346e-05

> <r_epik_State_Penalty>
-0

> <r_epik_Charging_Adjusted_Penalty>
0

> <i_epik_Tot_Q>
0

> <i_epik_Tot_abs_Q>
0

> <r_epik_Metal_State_Penalty>
-0

> <b_epik_Metal_Only>
0

> <s_lp_Force_Field>
OPLS_2005

> <r_lp_Energy>
23.1202

> <b_lp_Chiralities_Consistent>
1

> <s_lp_Variant>
AV-unprocessed.smi:1271-2

> <Gold.Version>
5.8.1

> <Gold.Id.Protein>
6NUR|6NUR_protein|mol2

> <Gold.PLP.Fitness>
43.8728

> <Gold.PLP.PLP>
-37.9691

> <Gold.PLP.part.hbond>
-1.0000

> <Gold.PLP.part.metal>
0.0000

> <Gold.PLP.part.buried>
-2.7194

> <Gold.PLP.part.nonpolar>
-34.0530

> <Gold.PLP.part.repulsive>
0.1744

> <Gold.PLP.ligand.clash>
0.0000

> <Gold.PLP.ligand.torsion>
0.0554

> <Gold.PLP.Chemscore.Hbond>
0.9920

> <Gold.PLP.Chemscore.CHOScore>
1.0000

> <Gold.PLP.Chemscore.Metal>
0.0000

> <Gold.Chemscore.Hbonds>
donor molecule, donor type, donor heavy atom, donor atom, acceptor molecule, acceptor atom, score
      L1  H     9    27       P1  8028  0.99
      L1  C     7    26       P1  7948  1.00

> <Gold.PLP.Chemscore.Internal.Correction>
0.0385

> <Gold.Rescore>
     Score         DG    S(hbond)    S(metal)    S(lipo)     H(rot)  DE(clash)    DE(int)     intcor
     16.41     -16.67       0.96        0.00      98.99       1.41       0.21       0.06       ----

> <Gold.Chemscore.Fitness>
16.4060

> <Gold.Chemscore.DG>
-16.6701

> <Gold.Chemscore.ZeroCoef>
-5.4800

> <Gold.Chemscore.Hbond>
0.9612

> <Gold.Chemscore.Metal>
0.0000

> <Gold.Chemscore.Lipo>
98.9850

> <Gold.Chemscore.Internal_Hbond>
0.0000

> <Gold.Chemscore.DEClash>
0.2089

> <Gold.Chemscore.DEInternal>
0.0551

> <Gold.Chemscore.Rot>
1.4069

> <Gold.Chemscore.Internal.Correction>
   9.000000E+99

> <Gold.Chemscore.Hbonds>
donor molecule, donor type, donor heavy atom, donor atom, acceptor molecule, acceptor atom, score
      L1  H     9    27       P1  8028  0.88

> <Gold.Chemscore.Hbond.Weighted>
-3.2105

> <Gold.Chemscore.Metal.Weighted>
-0.0000

> <Gold.Chemscore.Lipo.Weighted>
-11.5812

> <Gold.Chemscore.Internal_Hbond.Weighted>
0.0000

> <Gold.Chemscore.DEClash.Weighted>
0.2089

> <Gold.Chemscore.DEInternal.Weighted>
0.0551

> <Gold.Chemscore.Rot.Weighted>
3.6017

> <Gold.Chemscore.Internal.Correction.Weighted>
   9.000000E+99

> <Gold.Protein.RotatedTorsions>
[ 6907 6896 6895 6894 ] final   57.51 input  -60.11 | X-H torsion
[ 7974 7965 7964 7962 ] final -132.78 input  175.53 | X-H torsion
[ 8008 7997 7996 7995 ] final -100.05 input   59.86 | X-H torsion
[ 10167 10162 10161 10158 ] final -157.66 input  -65.29 | X-H torsion
[ 10718 10713 10712 10709 ] final   34.94 input   66.30 | X-H torsion
[ 10763 10752 10751 10750 ] final   35.40 input  -60.55 | X-H torsion
[ 11005 11000 10999 10996 ] final   49.94 input  -57.11 | X-H torsion

> <Gold.Protein.ActiveResidues>
 VAL166  LYS551  ARG553  GLY616  TRP617  ASP618  TYR619  PRO620  LYS621  CYS622 
 ASP623  PHE694  ASN695  SER759  ASP760  ASP761  ALA762  ILE779  LEU786  VAL792 
 PHE793  MET794  SER795  GLU796  ALA797  LYS798  CYS799  TRP800  GLU811  SER814 

> <Gold.Protein.RotatedAtoms>
  152.3738  134.6694  160.0166 H   0  0  0  0  0  0  0  0  0  0  0  0  # atno 6907 bound_to 6896
  151.6978  133.3305  159.3267 H   0  0  0  0  0  0  0  0  0  0  0  0  # atno 6908 bound_to 6896
  150.7694  134.6577  159.6367 H   0  0  0  0  0  0  0  0  0  0  0  0  # atno 6909 bound_to 6896
  144.9254  140.7064  143.4939 H   0  0  0  0  0  0  0  0  0  0  0  0  # atno 7974 bound_to 7965
  154.8233  140.0443  157.1426 H   0  0  0  0  0  0  0  0  0  0  0  0  # atno 8008 bound_to 7997
  154.9235  140.3030  155.5184 H   0  0  0  0  0  0  0  0  0  0  0  0  # atno 8009 bound_to 7997
  156.2982  140.2336  156.4287 H   0  0  0  0  0  0  0  0  0  0  0  0  # atno 8010 bound_to 7997
  139.6753  143.9674  152.2307 H   0  0  0  0  0  0  0  0  0  0  0  0  # atno 10167 bound_to 10162
  157.3166  130.7426  149.6758 H   0  0  0  0  0  0  0  0  0  0  0  0  # atno 10718 bound_to 10713
  153.0121  135.6334  154.1821 H   0  0  0  0  0  0  0  0  0  0  0  0  # atno 10763 bound_to 10752
  154.1562  135.2826  155.3123 H   0  0  0  0  0  0  0  0  0  0  0  0  # atno 10764 bound_to 10752
  154.6016  135.5585  153.7441 H   0  0  0  0  0  0  0  0  0  0  0  0  # atno 10765 bound_to 10752
  140.1060  134.5017  155.8719 H   0  0  0  0  0  0  0  0  0  0  0  0  # atno 11005 bound_to 11000
  145.3228  139.1783  143.4578 LP  0  0  0  0  0  0  0  0  0  0  0  0  # atno 17320 bound_to 7965
  146.3223  140.3248  142.8636 LP  0  0  0  0  0  0  0  0  0  0  0  0  # atno 17321 bound_to 7965
  139.9449  144.6657  150.8229 LP  0  0  0  0  0  0  0  0  0  0  0  0  # atno 17342 bound_to 10162
  140.7633  143.3220  151.2601 LP  0  0  0  0  0  0  0  0  0  0  0  0  # atno 17343 bound_to 10162
  155.9682  130.4235  150.4567 LP  0  0  0  0  0  0  0  0  0  0  0  0  # atno 17370 bound_to 10713
  157.2575  131.0560  151.2341 LP  0  0  0  0  0  0  0  0  0  0  0  0  # atno 17371 bound_to 10713
  141.2118  133.6711  156.6612 LP  0  0  0  0  0  0  0  0  0  0  0  0  # atno 17394 bound_to 11000
  140.3155  134.8051  157.4210 LP  0  0  0  0  0  0  0  0  0  0  0  0  # atno 17395 bound_to 11000

$$$$
