AV-unprocessed.smi:1286|AV-procd|sdf|5377|dock5
  -GOLD-   22720 4523D 1   1.00000     0.00000
 Structure written by MMmdl.
 36 37  0  0  0  0  0  0  0  0  1 V2000
  152.8064  138.4818  155.9524 C   0  0  0  0  0  0  0  0  0  0  0  0
  151.2962  138.7607  156.0036 C   0  0  2  0  0  0  0  0  0  0  0  0
  150.6632  138.6980  154.6000 C   0  0  0  0  0  0  0  0  0  0  0  0
  149.5574  139.6271  154.4487 N   0  0  0  0  0  0  0  0  0  0  0  0
  148.2352  139.3487  154.1719 C   0  0  0  0  0  0  0  0  0  0  0  0
  147.5721  140.5411  154.1175 C   0  0  0  0  0  0  0  0  0  0  0  0
  148.5865  141.5041  154.3793 C   0  0  0  0  0  0  0  0  0  0  0  0
  149.7734  140.9540  154.5782 N   0  0  0  0  0  0  0  0  0  0  0  0
  151.0527  140.0709  156.6036 N   0  0  0  0  0  0  0  0  0  0  0  0
  151.3649  140.4235  157.8601 C   0  0  0  0  0  0  0  0  0  0  0  0
  151.9120  139.6652  158.6607 O   0  0  0  0  0  0  0  0  0  0  0  0
  151.0004  141.8532  158.2754 C   0  0  0  0  0  0  0  0  0  0  0  0
  152.1661  142.6265  158.9301 C   0  0  1  0  0  0  0  0  0  0  0  0
  151.8796  144.0953  159.1324 C   0  0  0  0  0  0  0  0  0  0  0  0
  152.0485  144.4841  160.3940 C   0  0  0  0  0  0  0  0  0  0  0  0
  152.4789  143.3574  161.2913 C   0  0  0  0  0  0  0  0  0  0  0  0
  152.5011  142.1253  160.3586 C   0  0  0  0  0  0  0  0  0  0  0  0
  153.0085  137.5008  155.5219 H   0  0  0  0  0  0  0  0  0  0  0  0
  153.2454  138.4970  156.9506 H   0  0  0  0  0  0  0  0  0  0  0  0
  153.3275  139.2247  155.3476 H   0  0  0  0  0  0  0  0  0  0  0  0
  150.8310  137.9889  156.6200 H   0  0  0  0  0  0  0  0  0  0  0  0
  151.4079  138.9119  153.8319 H   0  0  0  0  0  0  0  0  0  0  0  0
  150.2908  137.6923  154.3991 H   0  0  0  0  0  0  0  0  0  0  0  0
  147.8816  138.3375  154.0349 H   0  0  0  0  0  0  0  0  0  0  0  0
  146.5226  140.7012  153.9203 H   0  0  0  0  0  0  0  0  0  0  0  0
  148.4963  142.5793  154.4306 H   0  0  0  0  0  0  0  0  0  0  0  0
  150.6059  140.7618  156.0184 H   0  0  0  0  0  0  0  0  0  0  0  0
  150.6381  142.4040  157.4053 H   0  0  0  0  0  0  0  0  0  0  0  0
  150.1633  141.7959  158.9721 H   0  0  0  0  0  0  0  0  0  0  0  0
  153.0569  142.5487  158.3046 H   0  0  0  0  0  0  0  0  0  0  0  0
  151.5859  144.7440  158.3200 H   0  0  0  0  0  0  0  0  0  0  0  0
  151.9092  145.4910  160.7594 H   0  0  0  0  0  0  0  0  0  0  0  0
  153.4647  143.5670  161.7076 H   0  0  0  0  0  0  0  0  0  0  0  0
  151.7723  143.2319  162.1121 H   0  0  0  0  0  0  0  0  0  0  0  0
  151.7705  141.3905  160.6994 H   0  0  0  0  0  0  0  0  0  0  0  0
  153.4757  141.6360  160.3810 H   0  0  0  0  0  0  0  0  0  0  0  0
  1  2  1  0  0  0  0
  1 18  1  0  0  0  0
  1 19  1  0  0  0  0
  1 20  1  0  0  0  0
  2  3  1  0  0  0  0
  2  9  1  0  0  0  0
  2 21  1  0  0  0  0
  3  4  1  0  0  0  0
  3 22  1  0  0  0  0
  3 23  1  0  0  0  0
  4  8  1  0  0  0  0
  4  5  1  0  0  0  0
  5  6  2  0  0  0  0
  5 24  1  0  0  0  0
  6  7  1  0  0  0  0
  6 25  1  0  0  0  0
  7  8  2  0  0  0  0
  7 26  1  0  0  0  0
  9 10  1  0  0  0  0
  9 27  1  0  0  0  0
 10 11  2  0  0  0  0
 10 12  1  0  0  0  0
 12 13  1  0  0  0  0
 12 28  1  0  0  0  0
 12 29  1  0  0  0  0
 13 17  1  0  0  0  0
 13 14  1  0  0  0  0
 13 30  1  0  0  0  0
 14 15  2  0  0  0  0
 14 31  1  0  0  0  0
 15 16  1  0  0  0  0
 15 32  1  0  0  0  0
 16 17  1  0  0  0  0
 16 33  1  0  0  0  0
 16 34  1  0  0  0  0
 17 35  1  0  0  0  0
 17 36  1  0  0  0  0
M  END
> <s_m_source_file>
AV-unprocessed.smi

> <i_m_source_file_index>
1286

> <i_lp_mmshare_version>
43012

> <i_f3d_flags>
0

> <s_epik_input>
bjFbY0hdW2NIXVtjSF1uMVtDSDJdW0NAQEhdKFtDSDNdKVtOSF1DKD1PKVtDSDJdW0NAQEhdMltDSF09W0NIXVtDSDJdW0NIMl0y

> <s_epik_cmdline>
J2VwaWtfcHl0aG9uJywgJy1waCcsICc3LjAnLCAnLXRuJywgJzgnLCAnLW1hJywgJzIwMCcsICctbWV0YWxfYmluZGluZycsICctaW1hZScsICc8aW5maWxlLm1hZT4nLCAnLW9tYWUnLCAnPG91dGZpbGUubWFlPic=

> <r_lp_tautomer_probability>
1

> <r_epik_Ionization_Penalty>
0.000301761

> <r_epik_Ionization_Penalty_Charging>
0

> <r_epik_Ionization_Penalty_Neutral>
0.000301761

> <r_epik_State_Penalty>
-0

> <r_epik_Charging_Adjusted_Penalty>
0

> <i_epik_Tot_Q>
0

> <i_epik_Tot_abs_Q>
0

> <r_epik_Metal_State_Penalty>
-0

> <b_epik_Metal_Only>
0

> <s_lp_Force_Field>
OPLS_2005

> <r_lp_Energy>
17.4811

> <b_lp_Chiralities_Consistent>
1

> <s_lp_Variant>
AV-unprocessed.smi:1286-3

> <Gold.Version>
5.8.1

> <Gold.Id.Protein>
6NUR|6NUR_protein|mol2

> <Gold.PLP.Fitness>
42.5037

> <Gold.PLP.PLP>
-39.2384

> <Gold.PLP.part.hbond>
-1.0000

> <Gold.PLP.part.metal>
0.0000

> <Gold.PLP.part.buried>
-3.8790

> <Gold.PLP.part.nonpolar>
-35.0273

> <Gold.PLP.part.repulsive>
0.2217

> <Gold.PLP.ligand.clash>
0.0000

> <Gold.PLP.ligand.torsion>
0.6263

> <Gold.PLP.Chemscore.Hbond>
0.4992

> <Gold.PLP.Chemscore.CHOScore>
1.0000

> <Gold.PLP.Chemscore.Metal>
0.0000

> <Gold.Chemscore.Hbonds>
donor molecule, donor type, donor heavy atom, donor atom, acceptor molecule, acceptor atom, score
      P1  H  7989  7998       L1     8  0.33
      L1  C     7    26       P1  8028  1.00

> <Gold.PLP.Chemscore.Internal.Correction>
0.0204

> <Gold.Rescore>
     Score         DG    S(hbond)    S(metal)    S(lipo)     H(rot)  DE(clash)    DE(int)     intcor
     15.32     -16.18       0.78        0.00     104.98       1.64       0.10       0.75       ----

> <Gold.Chemscore.Fitness>
15.3225

> <Gold.Chemscore.DG>
-16.1793

> <Gold.Chemscore.ZeroCoef>
-5.4800

> <Gold.Chemscore.Hbond>
0.7825

> <Gold.Chemscore.Metal>
0.0000

> <Gold.Chemscore.Lipo>
104.9804

> <Gold.Chemscore.Internal_Hbond>
0.0000

> <Gold.Chemscore.DEClash>
0.1022

> <Gold.Chemscore.DEInternal>
0.7547

> <Gold.Chemscore.Rot>
1.6394

> <Gold.Chemscore.Internal.Correction>
   9.000000E+99

> <Gold.Chemscore.Hbonds>
donor molecule, donor type, donor heavy atom, donor atom, acceptor molecule, acceptor atom, score
      P1  H  7989  7998       L1     8  0.03

> <Gold.Chemscore.Hbond.Weighted>
-2.6135

> <Gold.Chemscore.Metal.Weighted>
-0.0000

> <Gold.Chemscore.Lipo.Weighted>
-12.2827

> <Gold.Chemscore.Internal_Hbond.Weighted>
0.0000

> <Gold.Chemscore.DEClash.Weighted>
0.1022

> <Gold.Chemscore.DEInternal.Weighted>
0.7547

> <Gold.Chemscore.Rot.Weighted>
4.1969

> <Gold.Chemscore.Internal.Correction.Weighted>
   9.000000E+99

> <Gold.Protein.RotatedTorsions>
[ 6907 6896 6895 6894 ] final  145.77 input  -60.11 | X-H torsion
[ 7974 7965 7964 7962 ] final -165.91 input  175.53 | X-H torsion
[ 8008 7997 7996 7995 ] final -141.68 input   59.86 | X-H torsion
[ 10167 10162 10161 10158 ] final  179.94 input  -65.29 | X-H torsion
[ 10718 10713 10712 10709 ] final  -68.50 input   66.30 | X-H torsion
[ 10763 10752 10751 10750 ] final  -48.55 input  -60.55 | X-H torsion
[ 11005 11000 10999 10996 ] final -133.25 input  -57.11 | X-H torsion

> <Gold.Protein.ActiveResidues>
 VAL166  LYS551  ARG553  GLY616  TRP617  ASP618  TYR619  PRO620  LYS621  CYS622 
 ASP623  PHE694  ASN695  SER759  ASP760  ASP761  ALA762  ILE779  LEU786  VAL792 
 PHE793  MET794  SER795  GLU796  ALA797  LYS798  CYS799  TRP800  GLU811  SER814 

> <Gold.Protein.RotatedAtoms>
  152.1766  133.4679  159.4936 H   0  0  0  0  0  0  0  0  0  0  0  0  # atno 6907 bound_to 6896
  150.6928  134.1886  159.4285 H   0  0  0  0  0  0  0  0  0  0  0  0  # atno 6908 bound_to 6896
  151.9795  135.0035  160.0607 H   0  0  0  0  0  0  0  0  0  0  0  0  # atno 6909 bound_to 6896
  144.7258  140.2744  143.6245 H   0  0  0  0  0  0  0  0  0  0  0  0  # atno 7974 bound_to 7965
  155.4818  140.0561  157.2966 H   0  0  0  0  0  0  0  0  0  0  0  0  # atno 8008 bound_to 7997
  154.4657  140.2017  156.0077 H   0  0  0  0  0  0  0  0  0  0  0  0  # atno 8009 bound_to 7997
  156.0970  140.3225  155.7895 H   0  0  0  0  0  0  0  0  0  0  0  0  # atno 8010 bound_to 7997
  139.5359  144.2500  152.0792 H   0  0  0  0  0  0  0  0  0  0  0  0  # atno 10167 bound_to 10162
  156.0502  130.4296  150.2010 H   0  0  0  0  0  0  0  0  0  0  0  0  # atno 10718 bound_to 10713
  154.0795  135.6593  153.4836 H   0  0  0  0  0  0  0  0  0  0  0  0  # atno 10763 bound_to 10752
  153.0361  135.5176  154.7488 H   0  0  0  0  0  0  0  0  0  0  0  0  # atno 10764 bound_to 10752
  154.6578  135.3010  154.9873 H   0  0  0  0  0  0  0  0  0  0  0  0  # atno 10765 bound_to 10752
  140.9098  134.1583  157.4398 H   0  0  0  0  0  0  0  0  0  0  0  0  # atno 11005 bound_to 11000
  145.8011  139.1965  143.2047 LP  0  0  0  0  0  0  0  0  0  0  0  0  # atno 17320 bound_to 7965
  146.0675  140.7904  142.9704 LP  0  0  0  0  0  0  0  0  0  0  0  0  # atno 17321 bound_to 7965
  140.1971  144.4695  150.6450 LP  0  0  0  0  0  0  0  0  0  0  0  0  # atno 17342 bound_to 10162
  140.6564  143.2239  151.5958 LP  0  0  0  0  0  0  0  0  0  0  0  0  # atno 17343 bound_to 10162
  157.0094  130.9946  151.3370 LP  0  0  0  0  0  0  0  0  0  0  0  0  # atno 17370 bound_to 10713
  157.5420  130.8126  149.8040 LP  0  0  0  0  0  0  0  0  0  0  0  0  # atno 17371 bound_to 10713
  139.8755  134.9931  156.5628 LP  0  0  0  0  0  0  0  0  0  0  0  0  # atno 17394 bound_to 11000
  140.8125  133.8418  155.8823 LP  0  0  0  0  0  0  0  0  0  0  0  0  # atno 17395 bound_to 11000

$$$$
