AV-unprocessed.smi:1224|AV-procd|sdf|5129|dock3
  -GOLD-   22720 4183D 1   1.00000     0.00000
 Structure written by MMmdl.
 44 46  0  0  0  0  0  0  0  0  2 V2000
  152.9726  143.1748  161.3267 C   0  0  0  0  0  0  0  0  0  0  0  0
  152.4043  142.7571  159.9819 C   0  0  0  0  0  0  0  0  0  0  0  0
  152.7939  141.5176  159.4264 C   0  0  0  0  0  0  0  0  0  0  0  0
  152.2853  141.0907  158.1802 C   0  0  0  0  0  0  0  0  0  0  0  0
  152.5242  139.9328  157.4599 N   0  0  0  0  0  0  0  0  0  0  0  0
  151.7597  140.1207  156.3882 C   0  0  0  0  0  0  0  0  0  0  0  0
  151.0539  141.2665  156.3278 N   0  0  0  0  0  0  0  0  0  0  0  0
  150.1580  141.6936  155.2684 C   0  0  0  0  0  0  0  0  0  0  0  0
  149.3035  140.5349  154.7202 C   0  0  1  0  0  0  0  0  0  0  0  0
  150.0999  139.7246  153.8766 O   0  0  0  0  0  0  0  0  0  0  0  0
  148.7226  139.6645  155.8457 C   0  0  0  0  0  0  0  0  0  0  0  0
  147.6054  140.3501  156.5299 N   0  3  0  0  0  0  0  0  0  0  0  0
  146.3165  140.3196  155.8076 C   0  0  0  0  0  0  0  0  0  0  0  0
  145.9925  141.6229  155.1520 C   0  0  0  0  0  0  0  0  0  0  0  0
  144.9985  142.5071  155.4877 C   0  0  0  0  0  0  0  0  0  0  0  0
  144.9632  143.6568  154.6458 C   0  0  0  0  0  0  0  0  0  0  0  0
  145.9316  143.6353  153.6780 C   0  0  0  0  0  0  0  0  0  0  0  0
  146.9086  142.1965  153.7813 S   0  0  0  0  0  0  0  0  0  0  0  0
  151.3696  141.9451  157.4995 C   0  0  0  0  0  0  0  0  0  0  0  0
  150.9753  143.1812  158.0410 C   0  0  0  0  0  0  0  0  0  0  0  0
  151.4924  143.5920  159.2874 C   0  0  0  0  0  0  0  0  0  0  0  0
  151.0590  144.9277  159.8656 C   0  0  0  0  0  0  0  0  0  0  0  0
  153.6783  142.4365  161.7081 H   0  0  0  0  0  0  0  0  0  0  0  0
  152.1733  143.2843  162.0600 H   0  0  0  0  0  0  0  0  0  0  0  0
  153.4985  144.1259  161.2419 H   0  0  0  0  0  0  0  0  0  0  0  0
  153.4880  140.8813  159.9555 H   0  0  0  0  0  0  0  0  0  0  0  0
  151.7121  139.3838  155.5998 H   0  0  0  0  0  0  0  0  0  0  0  0
  149.5223  142.4955  155.6475 H   0  0  0  0  0  0  0  0  0  0  0  0
  150.7627  142.1269  154.4708 H   0  0  0  0  0  0  0  0  0  0  0  0
  148.4859  140.9465  154.1263 H   0  0  0  0  0  0  0  0  0  0  0  0
  149.6848  139.6675  153.0291 H   0  0  0  0  0  0  0  0  0  0  0  0
  148.3928  138.7036  155.4484 H   0  0  0  0  0  0  0  0  0  0  0  0
  149.4986  139.4554  156.5836 H   0  0  0  0  0  0  0  0  0  0  0  0
  147.4716  139.9070  157.4276 H   0  0  0  0  0  0  0  0  0  0  0  0
  146.3320  139.5160  155.0704 H   0  0  0  0  0  0  0  0  0  0  0  0
  145.5322  140.0678  156.5221 H   0  0  0  0  0  0  0  0  0  0  0  0
  144.3003  142.3703  156.3003 H   0  0  0  0  0  0  0  0  0  0  0  0
  144.2398  144.4480  154.7777 H   0  0  0  0  0  0  0  0  0  0  0  0
  146.1304  144.3737  152.9150 H   0  0  0  0  0  0  0  0  0  0  0  0
  150.2797  143.8072  157.5019 H   0  0  0  0  0  0  0  0  0  0  0  0
  150.3425  145.4292  159.2145 H   0  0  0  0  0  0  0  0  0  0  0  0
  151.9183  145.5872  159.9886 H   0  0  0  0  0  0  0  0  0  0  0  0
  150.5866  144.7885  160.8382 H   0  0  0  0  0  0  0  0  0  0  0  0
  147.8668  141.3133  156.6861 H   0  0  0  0  0  0  0  0  0  0  0  0
  1  2  1  0  0  0  0
  1 23  1  0  0  0  0
  1 24  1  0  0  0  0
  1 25  1  0  0  0  0
  2 21  1  0  0  0  0
  2  3  2  0  0  0  0
  3  4  1  0  0  0  0
  3 26  1  0  0  0  0
  4 19  2  0  0  0  0
  4  5  1  0  0  0  0
  5  6  2  0  0  0  0
  6  7  1  0  0  0  0
  6 27  1  0  0  0  0
  7  8  1  0  0  0  0
  7 19  1  0  0  0  0
  8  9  1  0  0  0  0
  8 28  1  0  0  0  0
  8 29  1  0  0  0  0
  9 10  1  0  0  0  0
  9 11  1  0  0  0  0
  9 30  1  0  0  0  0
 10 31  1  0  0  0  0
 11 12  1  0  0  0  0
 11 32  1  0  0  0  0
 11 33  1  0  0  0  0
 12 13  1  0  0  0  0
 12 34  1  0  0  0  0
 12 44  1  0  0  0  0
 13 14  1  0  0  0  0
 13 35  1  0  0  0  0
 13 36  1  0  0  0  0
 14 18  1  0  0  0  0
 14 15  2  0  0  0  0
 15 16  1  0  0  0  0
 15 37  1  0  0  0  0
 16 17  2  0  0  0  0
 16 38  1  0  0  0  0
 17 18  1  0  0  0  0
 17 39  1  0  0  0  0
 19 20  1  0  0  0  0
 20 21  2  0  0  0  0
 20 40  1  0  0  0  0
 21 22  1  0  0  0  0
 22 41  1  0  0  0  0
 22 42  1  0  0  0  0
 22 43  1  0  0  0  0
M  CHG  1  12   1
M  END
> <s_m_source_file>
AV-unprocessed.smi

> <i_m_source_file_index>
1224

> <i_lp_mmshare_version>
43012

> <i_f3d_flags>
0

> <s_epik_input>
W0NIM11jKFtjSF0xKWMoW0NIM10pW2NIXWMoYzEyKW4oW2NIXW4yKVtDSDJdW0NASF0oW09IXSlbQ0gyXVtOSF1bQ0gyXWMzW2NIXVtjSF1bY0hdczM=

> <s_epik_cmdline>
J2VwaWtfcHl0aG9uJywgJy1waCcsICc3LjAnLCAnLXRuJywgJzgnLCAnLW1hJywgJzIwMCcsICctbWV0YWxfYmluZGluZycsICctaW1hZScsICc8aW5maWxlLm1hZT4nLCAnLW9tYWUnLCAnPG91dGZpbGUubWFlPic=

> <r_epik_Ionization_Penalty>
0.145091

> <r_epik_Ionization_Penalty_Charging>
0.0551904

> <r_epik_Ionization_Penalty_Neutral>
0.0899003

> <r_epik_State_Penalty>
0.131364

> <r_epik_Charging_Adjusted_Penalty>
0.186554

> <i_epik_Tot_Q>
1

> <i_epik_Tot_abs_Q>
1

> <r_epik_Metal_State_Penalty>
0.0472291

> <b_epik_Metal_Only>
0

> <s_lp_Force_Field>
OPLS_2005

> <r_lp_Energy>
7.75101

> <b_lp_Chiralities_Consistent>
1

> <s_lp_Variant>
AV-unprocessed.smi:1224-2

> <Gold.Version>
5.8.1

> <Gold.Id.Protein>
6NUR|6NUR_protein|mol2

> <Gold.PLP.Fitness>
54.2388

> <Gold.PLP.PLP>
-47.3299

> <Gold.PLP.part.hbond>
-3.0000

> <Gold.PLP.part.metal>
0.0000

> <Gold.PLP.part.buried>
-6.2211

> <Gold.PLP.part.nonpolar>
-37.2748

> <Gold.PLP.part.repulsive>
0.0239

> <Gold.PLP.ligand.clash>
0.0000

> <Gold.PLP.ligand.torsion>
0.9838

> <Gold.PLP.Chemscore.Hbond>
2.9280

> <Gold.PLP.Chemscore.CHOScore>
0.0000

> <Gold.PLP.Chemscore.Metal>
0.0000

> <Gold.Chemscore.Hbonds>
donor molecule, donor type, donor heavy atom, donor atom, acceptor molecule, acceptor atom, score
      L1  H    10    31       P1  7957  1.00
      P1  H  7989  7998       L1    10  0.94
      P1  H  7997  8008       L1     5  0.93

> <Gold.PLP.Chemscore.Internal.Correction>
0.0924

> <Gold.Rescore>
     Score         DG    S(hbond)    S(metal)    S(lipo)     H(rot)  DE(clash)    DE(int)     intcor
     17.88     -20.23       2.19        0.00     116.62       2.42       0.70       1.65       ----

> <Gold.Chemscore.Fitness>
17.8834

> <Gold.Chemscore.DG>
-20.2314

> <Gold.Chemscore.ZeroCoef>
-5.4800

> <Gold.Chemscore.Hbond>
2.1894

> <Gold.Chemscore.Metal>
0.0000

> <Gold.Chemscore.Lipo>
116.6164

> <Gold.Chemscore.Internal_Hbond>
0.0000

> <Gold.Chemscore.DEClash>
0.6957

> <Gold.Chemscore.DEInternal>
1.6522

> <Gold.Chemscore.Rot>
2.4240

> <Gold.Chemscore.Internal.Correction>
   9.000000E+99

> <Gold.Chemscore.Hbonds>
donor molecule, donor type, donor heavy atom, donor atom, acceptor molecule, acceptor atom, score
      L1  H    10    31       P1  7957  0.96
      P1  H  7989  7998       L1    10  0.11
      P1  H  7997  8008       L1     5  0.13

> <Gold.Chemscore.Hbond.Weighted>
-7.3128

> <Gold.Chemscore.Metal.Weighted>
-0.0000

> <Gold.Chemscore.Lipo.Weighted>
-13.6441

> <Gold.Chemscore.Internal_Hbond.Weighted>
0.0000

> <Gold.Chemscore.DEClash.Weighted>
0.6957

> <Gold.Chemscore.DEInternal.Weighted>
1.6522

> <Gold.Chemscore.Rot.Weighted>
6.2055

> <Gold.Chemscore.Internal.Correction.Weighted>
   9.000000E+99

> <Gold.Protein.RotatedTorsions>
[ 6907 6896 6895 6894 ] final  -46.87 input  -60.11 | X-H torsion
[ 7974 7965 7964 7962 ] final  -94.61 input  175.53 | X-H torsion
[ 8008 7997 7996 7995 ] final  -56.19 input   59.86 | X-H torsion
[ 10167 10162 10161 10158 ] final  -66.50 input  -65.29 | X-H torsion
[ 10718 10713 10712 10709 ] final   31.97 input   66.30 | X-H torsion
[ 10763 10752 10751 10750 ] final  -28.33 input  -60.55 | X-H torsion
[ 11005 11000 10999 10996 ] final  121.15 input  -57.11 | X-H torsion

> <Gold.Protein.ActiveResidues>
 VAL166  LYS551  ARG553  GLY616  TRP617  ASP618  TYR619  PRO620  LYS621  CYS622 
 ASP623  PHE694  ASN695  SER759  ASP760  ASP761  ALA762  ILE779  LEU786  VAL792 
 PHE793  MET794  SER795  GLU796  ALA797  LYS798  CYS799  TRP800  GLU811  SER814 

> <Gold.Protein.RotatedAtoms>
  150.9067  134.8482  159.7397 H   0  0  0  0  0  0  0  0  0  0  0  0  # atno 6907 bound_to 6896
  152.4922  134.4421  159.9556 H   0  0  0  0  0  0  0  0  0  0  0  0  # atno 6908 bound_to 6896
  151.4467  133.3589  159.2824 H   0  0  0  0  0  0  0  0  0  0  0  0  # atno 6909 bound_to 6896
  145.3710  140.9505  143.2447 H   0  0  0  0  0  0  0  0  0  0  0  0  # atno 7974 bound_to 7965
  154.4221  140.1135  156.5597 H   0  0  0  0  0  0  0  0  0  0  0  0  # atno 8008 bound_to 7997
  155.6324  140.3496  155.4668 H   0  0  0  0  0  0  0  0  0  0  0  0  # atno 8009 bound_to 7997
  155.9937  140.1185  157.0603 H   0  0  0  0  0  0  0  0  0  0  0  0  # atno 8010 bound_to 7997
  140.5652  143.2314  151.6649 H   0  0  0  0  0  0  0  0  0  0  0  0  # atno 10167 bound_to 10162
  157.2792  130.7247  149.6547 H   0  0  0  0  0  0  0  0  0  0  0  0  # atno 10718 bound_to 10713
  153.7466  135.6929  153.4955 H   0  0  0  0  0  0  0  0  0  0  0  0  # atno 10763 bound_to 10752
  153.2032  135.4429  155.0291 H   0  0  0  0  0  0  0  0  0  0  0  0  # atno 10764 bound_to 10752
  154.8202  135.3418  154.6988 H   0  0  0  0  0  0  0  0  0  0  0  0  # atno 10765 bound_to 10752
  139.9214  134.9638  156.7915 H   0  0  0  0  0  0  0  0  0  0  0  0  # atno 11005 bound_to 11000
  144.8576  139.5225  143.6827 LP  0  0  0  0  0  0  0  0  0  0  0  0  # atno 17320 bound_to 7965
  146.2885  139.7072  142.9178 LP  0  0  0  0  0  0  0  0  0  0  0  0  # atno 17321 bound_to 7965
  139.5089  144.3594  152.0577 LP  0  0  0  0  0  0  0  0  0  0  0  0  # atno 17342 bound_to 10162
  140.2725  144.3948  150.6146 LP  0  0  0  0  0  0  0  0  0  0  0  0  # atno 17343 bound_to 10162
  155.9664  130.4343  150.5044 LP  0  0  0  0  0  0  0  0  0  0  0  0  # atno 17370 bound_to 10713
  157.2984  131.0640  151.2085 LP  0  0  0  0  0  0  0  0  0  0  0  0  # atno 17371 bound_to 10713
  140.6463  133.9772  155.7732 LP  0  0  0  0  0  0  0  0  0  0  0  0  # atno 17394 bound_to 11000
  141.0738  134.0166  157.3488 LP  0  0  0  0  0  0  0  0  0  0  0  0  # atno 17395 bound_to 11000

$$$$
