AV-unprocessed.smi:3226|AV-procd|sdf|12314|dock2
  -GOLD-   2272018163D 1   1.00000     0.00000
 Structure written by MMmdl.
 41 43  0  0  0  0  0  0  0  0  2 V2000
  151.0011  137.4882  154.9826 C   0  0  0  0  0  0  0  0  0  0  0  0
  151.2947  138.9762  155.2034 C   0  0  0  0  0  0  0  0  0  0  0  0
  151.7165  139.2774  156.6085 C   0  0  0  0  0  0  0  0  0  0  0  0
  152.9914  139.2470  157.0147 N   0  0  0  0  0  0  0  0  0  0  0  0
  152.9678  139.6078  158.3467 N   0  0  0  0  0  0  0  0  0  0  0  0
  151.6817  139.8303  158.6102 C   0  0  0  0  0  0  0  0  0  0  0  0
  150.8476  139.6401  157.5763 N   0  0  0  0  0  0  0  0  0  0  0  0
  149.4038  139.8011  157.5428 C   0  0  0  0  0  0  0  0  0  0  0  0
  148.9675  141.0268  156.7237 C   0  0  0  0  0  0  0  0  0  0  0  0
  149.8108  142.2053  157.0097 N   0  3  0  0  0  0  0  0  0  0  0  0
  149.6004  142.7829  158.3513 C   0  0  0  0  0  0  0  0  0  0  0  0
  150.3556  144.1160  158.5088 C   0  0  1  0  0  0  0  0  0  0  0  0
  150.4083  144.6668  159.9681 C   0  0  0  0  0  0  0  0  0  0  0  0
  151.9194  144.9008  160.1974 C   0  0  1  0  0  0  0  0  0  0  0  0
  152.5893  143.5448  160.2484 C   0  0  0  0  0  0  0  0  0  0  0  0
  152.5558  143.0399  159.0140 C   0  0  0  0  0  0  0  0  0  0  0  0
  151.8590  144.0551  158.1289 C   0  0  2  0  0  0  0  0  0  0  0  0
  152.3374  145.3514  158.7938 C   0  0  0  0  0  0  0  0  0  0  0  0
  150.6921  137.3012  153.9540 H   0  0  0  0  0  0  0  0  0  0  0  0
  150.2012  137.1435  155.6388 H   0  0  0  0  0  0  0  0  0  0  0  0
  151.8830  136.8787  155.1813 H   0  0  0  0  0  0  0  0  0  0  0  0
  152.0619  139.3136  154.5069 H   0  0  0  0  0  0  0  0  0  0  0  0
  150.4021  139.5605  154.9770 H   0  0  0  0  0  0  0  0  0  0  0  0
  151.3380  140.1382  159.5869 H   0  0  0  0  0  0  0  0  0  0  0  0
  148.9595  138.8923  157.1343 H   0  0  0  0  0  0  0  0  0  0  0  0
  149.0400  139.8863  158.5670 H   0  0  0  0  0  0  0  0  0  0  0  0
  149.0399  140.7922  155.6610 H   0  0  0  0  0  0  0  0  0  0  0  0
  147.9233  141.2694  156.9247 H   0  0  0  0  0  0  0  0  0  0  0  0
  150.7806  141.9357  156.9238 H   0  0  0  0  0  0  0  0  0  0  0  0
  148.5314  142.9199  158.5183 H   0  0  0  0  0  0  0  0  0  0  0  0
  149.9536  142.0719  159.0992 H   0  0  0  0  0  0  0  0  0  0  0  0
  149.8763  144.8595  157.8689 H   0  0  0  0  0  0  0  0  0  0  0  0
  149.8503  145.6008  160.0472 H   0  0  0  0  0  0  0  0  0  0  0  0
  149.9957  143.9717  160.7007 H   0  0  0  0  0  0  0  0  0  0  0  0
  152.1883  145.5770  161.0094 H   0  0  0  0  0  0  0  0  0  0  0  0
  152.9830  143.0841  161.1425 H   0  0  0  0  0  0  0  0  0  0  0  0
  152.9158  142.0769  158.6831 H   0  0  0  0  0  0  0  0  0  0  0  0
  152.0855  143.9690  157.0659 H   0  0  0  0  0  0  0  0  0  0  0  0
  151.8212  146.2479  158.4447 H   0  0  0  0  0  0  0  0  0  0  0  0
  153.4143  145.5071  158.6996 H   0  0  0  0  0  0  0  0  0  0  0  0
  149.6114  142.9185  156.3228 H   0  0  0  0  0  0  0  0  0  0  0  0
  1  2  1  0  0  0  0
  1 19  1  0  0  0  0
  1 20  1  0  0  0  0
  1 21  1  0  0  0  0
  2  3  1  0  0  0  0
  2 22  1  0  0  0  0
  2 23  1  0  0  0  0
  3  7  1  0  0  0  0
  3  4  2  0  0  0  0
  4  5  1  0  0  0  0
  5  6  2  0  0  0  0
  6  7  1  0  0  0  0
  6 24  1  0  0  0  0
  7  8  1  0  0  0  0
  8  9  1  0  0  0  0
  8 25  1  0  0  0  0
  8 26  1  0  0  0  0
  9 10  1  0  0  0  0
  9 27  1  0  0  0  0
  9 28  1  0  0  0  0
 10 11  1  0  0  0  0
 10 29  1  0  0  0  0
 10 41  1  0  0  0  0
 11 12  1  0  0  0  0
 11 30  1  0  0  0  0
 11 31  1  0  0  0  0
 12 17  1  0  0  0  0
 12 13  1  0  0  0  0
 12 32  1  0  0  0  0
 13 14  1  0  0  0  0
 13 33  1  0  0  0  0
 13 34  1  0  0  0  0
 14 18  1  0  0  0  0
 14 15  1  0  0  0  0
 14 35  1  0  0  0  0
 15 16  2  0  0  0  0
 15 36  1  0  0  0  0
 16 17  1  0  0  0  0
 16 37  1  0  0  0  0
 17 18  1  0  0  0  0
 17 38  1  0  0  0  0
 18 39  1  0  0  0  0
 18 40  1  0  0  0  0
M  CHG  1  10   1
M  END
> <s_m_source_file>
AV-unprocessed.smi

> <i_m_source_file_index>
3226

> <i_lp_mmshare_version>
43012

> <i_f3d_flags>
0

> <s_epik_input>
W0NIM11bQ0gyXWMxbm5bY0hdbjFbQ0gyXVtDSDJdW05IXVtDSDJdW0NASF0oW0NIMl1bQ0BASF0yMylbQ0BASF0oW0NIMl0zKVtDSF09W0NIXTI=

> <s_epik_cmdline>
J2VwaWtfcHl0aG9uJywgJy1waCcsICc3LjAnLCAnLXRuJywgJzgnLCAnLW1hJywgJzIwMCcsICctbWV0YWxfYmluZGluZycsICctaW1hZScsICc8aW5maWxlLm1hZT4nLCAnLW9tYWUnLCAnPG91dGZpbGUubWFlPic=

> <r_lp_tautomer_probability>
1

> <r_epik_Ionization_Penalty>
0.00175008

> <r_epik_Ionization_Penalty_Charging>
0.00173932

> <r_epik_Ionization_Penalty_Neutral>
1.07546e-05

> <r_epik_State_Penalty>
-0

> <r_epik_Charging_Adjusted_Penalty>
0.00173932

> <i_epik_Tot_Q>
1

> <i_epik_Tot_abs_Q>
1

> <r_epik_Metal_State_Penalty>
-0

> <b_epik_Metal_Only>
0

> <s_lp_Force_Field>
OPLS_2005

> <r_lp_Energy>
65.2823

> <b_lp_Chiralities_Consistent>
1

> <s_lp_Variant>
AV-unprocessed.smi:3226-2

> <Gold.Version>
5.8.1

> <Gold.Id.Protein>
6NUR|6NUR_protein|mol2

> <Gold.PLP.Fitness>
49.5507

> <Gold.PLP.PLP>
-41.7435

> <Gold.PLP.part.hbond>
-2.8198

> <Gold.PLP.part.metal>
0.0000

> <Gold.PLP.part.buried>
-4.7045

> <Gold.PLP.part.nonpolar>
-34.8627

> <Gold.PLP.part.repulsive>
0.0142

> <Gold.PLP.ligand.clash>
0.0000

> <Gold.PLP.ligand.torsion>
0.6347

> <Gold.PLP.Chemscore.Hbond>
3.0000

> <Gold.PLP.Chemscore.CHOScore>
0.0000

> <Gold.PLP.Chemscore.Metal>
0.0000

> <Gold.Chemscore.Hbonds>
donor molecule, donor type, donor heavy atom, donor atom, acceptor molecule, acceptor atom, score
      L1  H    10    41       P1  8028  1.89
      P1  H  7997  8009       L1     4  0.83

> <Gold.PLP.Chemscore.Internal.Correction>
0.0766

> <Gold.Rescore>
     Score         DG    S(hbond)    S(metal)    S(lipo)     H(rot)  DE(clash)    DE(int)     intcor
     18.71     -19.14       1.98        0.00     105.40       2.06       0.06       0.37       ----

> <Gold.Chemscore.Fitness>
18.7149

> <Gold.Chemscore.DG>
-19.1387

> <Gold.Chemscore.ZeroCoef>
-5.4800

> <Gold.Chemscore.Hbond>
1.9780

> <Gold.Chemscore.Metal>
0.0000

> <Gold.Chemscore.Lipo>
105.4002

> <Gold.Chemscore.Internal_Hbond>
0.0000

> <Gold.Chemscore.DEClash>
0.0580

> <Gold.Chemscore.DEInternal>
0.3658

> <Gold.Chemscore.Rot>
2.0623

> <Gold.Chemscore.Internal.Correction>
   9.000000E+99

> <Gold.Chemscore.Hbonds>
donor molecule, donor type, donor heavy atom, donor atom, acceptor molecule, acceptor atom, score
      L1  H    10    41       P1  8028  0.88
      P1  H  7997  8009       L1     4  0.49

> <Gold.Chemscore.Hbond.Weighted>
-6.6064

> <Gold.Chemscore.Metal.Weighted>
-0.0000

> <Gold.Chemscore.Lipo.Weighted>
-12.3318

> <Gold.Chemscore.Internal_Hbond.Weighted>
0.0000

> <Gold.Chemscore.DEClash.Weighted>
0.0580

> <Gold.Chemscore.DEInternal.Weighted>
0.3658

> <Gold.Chemscore.Rot.Weighted>
5.2796

> <Gold.Chemscore.Internal.Correction.Weighted>
   9.000000E+99

> <Gold.Protein.RotatedTorsions>
[ 6907 6896 6895 6894 ] final   26.27 input  -60.11 | X-H torsion
[ 7974 7965 7964 7962 ] final  106.87 input  175.53 | X-H torsion
[ 8008 7997 7996 7995 ] final -154.75 input   59.86 | X-H torsion
[ 10167 10162 10161 10158 ] final  -65.12 input  -65.29 | X-H torsion
[ 10718 10713 10712 10709 ] final  122.68 input   66.30 | X-H torsion
[ 10763 10752 10751 10750 ] final   99.53 input  -60.55 | X-H torsion
[ 11005 11000 10999 10996 ] final  129.10 input  -57.11 | X-H torsion

> <Gold.Protein.ActiveResidues>
 VAL166  LYS551  ARG553  GLY616  TRP617  ASP618  TYR619  PRO620  LYS621  CYS622 
 ASP623  PHE694  ASN695  SER759  ASP760  ASP761  ALA762  ILE779  LEU786  VAL792 
 PHE793  MET794  SER795  GLU796  ALA797  LYS798  CYS799  TRP800  GLU811  SER814 

> <Gold.Protein.RotatedAtoms>
  151.9850  135.0009  160.0558 H   0  0  0  0  0  0  0  0  0  0  0  0  # atno 6907 bound_to 6896
  152.1661  133.4608  159.4894 H   0  0  0  0  0  0  0  0  0  0  0  0  # atno 6908 bound_to 6896
  150.6895  134.1928  159.4335 H   0  0  0  0  0  0  0  0  0  0  0  0  # atno 6909 bound_to 6896
  145.3010  139.2569  143.3814 H   0  0  0  0  0  0  0  0  0  0  0  0  # atno 7974 bound_to 7965
  155.6912  140.0755  157.2447 H   0  0  0  0  0  0  0  0  0  0  0  0  # atno 8008 bound_to 7997
  154.4088  140.1664  156.2141 H   0  0  0  0  0  0  0  0  0  0  0  0  # atno 8009 bound_to 7997
  155.9450  140.3381  155.6362 H   0  0  0  0  0  0  0  0  0  0  0  0  # atno 8010 bound_to 7997
  140.5752  143.2321  151.6456 H   0  0  0  0  0  0  0  0  0  0  0  0  # atno 10167 bound_to 10162
  157.5724  131.1082  150.8343 H   0  0  0  0  0  0  0  0  0  0  0  0  # atno 10718 bound_to 10713
  153.3025  135.4110  155.1265 H   0  0  0  0  0  0  0  0  0  0  0  0  # atno 10763 bound_to 10752
  154.8553  135.3545  154.5832 H   0  0  0  0  0  0  0  0  0  0  0  0  # atno 10764 bound_to 10752
  153.6258  135.7062  153.5352 H   0  0  0  0  0  0  0  0  0  0  0  0  # atno 10765 bound_to 10752
  139.9597  134.9605  156.9099 H   0  0  0  0  0  0  0  0  0  0  0  0  # atno 11005 bound_to 11000
  146.3152  140.3524  142.8657 LP  0  0  0  0  0  0  0  0  0  0  0  0  # atno 17320 bound_to 7965
  144.9093  140.7738  143.5817 LP  0  0  0  0  0  0  0  0  0  0  0  0  # atno 17321 bound_to 7965
  139.5139  144.3428  152.0724 LP  0  0  0  0  0  0  0  0  0  0  0  0  # atno 17342 bound_to 10162
  140.2571  144.4107  150.6200 LP  0  0  0  0  0  0  0  0  0  0  0  0  # atno 17343 bound_to 10162
  156.8811  130.5179  149.5291 LP  0  0  0  0  0  0  0  0  0  0  0  0  # atno 17370 bound_to 10713
  156.0769  130.5789  150.9490 LP  0  0  0  0  0  0  0  0  0  0  0  0  # atno 17371 bound_to 10713
  140.5529  134.0610  155.7374 LP  0  0  0  0  0  0  0  0  0  0  0  0  # atno 17394 bound_to 11000
  141.1272  133.9362  157.2610 LP  0  0  0  0  0  0  0  0  0  0  0  0  # atno 17395 bound_to 11000

$$$$
