AV-unprocessed.smi:3209|AV-procd|sdf|12268|dock2
  -GOLD-   2272018103D 1   1.00000     0.00000
 Structure written by MMmdl.
 37 39  0  0  0  0  0  0  0  0  2 V2000
  148.7215  136.9842  155.1333 C   0  0  0  0  0  0  0  0  0  0  0  0
  149.8462  137.9568  155.2310 C   0  0  0  0  0  0  0  0  0  0  0  0
  149.7016  139.2092  155.6720 N   0  0  0  0  0  0  0  0  0  0  0  0
  150.9034  139.9239  155.6671 C   0  0  0  0  0  0  0  0  0  0  0  0
  150.9253  141.3487  156.1303 C   0  0  0  0  0  0  0  0  0  0  0  0
  150.2691  141.5204  157.5069 C   0  0  0  0  0  0  0  0  0  0  0  0
  149.9443  142.9375  157.7668 N   0  3  0  0  0  0  0  0  0  0  0  0
  151.1197  143.8088  157.9846 C   0  0  2  0  0  0  0  0  0  0  0  0
  152.2254  143.1747  158.8569 C   0  0  0  0  0  0  0  0  0  0  0  0
  152.4631  144.2499  159.9353 C   0  0  2  0  0  0  0  0  0  0  0  0
  151.2966  144.2158  160.9381 C   0  0  0  0  0  0  0  0  0  0  0  0
  150.1342  144.8073  160.1200 C   0  0  0  0  0  0  0  0  0  0  0  0
  150.7879  145.1067  158.7528 C   0  0  1  0  0  0  0  0  0  0  0  0
  152.1849  145.5462  159.1796 C   0  0  0  0  0  0  0  0  0  0  0  0
  151.9688  139.1883  155.2107 C   0  0  0  0  0  0  0  0  0  0  0  0
  151.4992  137.5695  154.7698 S   0  0  0  0  0  0  0  0  0  0  0  0
  147.9620  137.2030  155.8845 H   0  0  0  0  0  0  0  0  0  0  0  0
  149.0872  135.9699  155.2937 H   0  0  0  0  0  0  0  0  0  0  0  0
  148.2654  137.0407  154.1448 H   0  0  0  0  0  0  0  0  0  0  0  0
  151.9546  141.7082  156.1693 H   0  0  0  0  0  0  0  0  0  0  0  0
  150.4147  141.9822  155.4036 H   0  0  0  0  0  0  0  0  0  0  0  0
  149.3601  140.9201  157.5605 H   0  0  0  0  0  0  0  0  0  0  0  0
  150.9403  141.1593  158.2873 H   0  0  0  0  0  0  0  0  0  0  0  0
  149.4395  143.2897  156.9658 H   0  0  0  0  0  0  0  0  0  0  0  0
  151.5327  144.0796  157.0112 H   0  0  0  0  0  0  0  0  0  0  0  0
  151.9357  142.2194  159.2973 H   0  0  0  0  0  0  0  0  0  0  0  0
  153.1266  143.0074  158.2657 H   0  0  0  0  0  0  0  0  0  0  0  0
  153.4449  144.1901  160.4060 H   0  0  0  0  0  0  0  0  0  0  0  0
  151.0850  143.2080  161.2975 H   0  0  0  0  0  0  0  0  0  0  0  0
  151.5113  144.8411  161.8058 H   0  0  0  0  0  0  0  0  0  0  0  0
  149.2845  144.1283  160.0503 H   0  0  0  0  0  0  0  0  0  0  0  0
  149.7778  145.7282  160.5831 H   0  0  0  0  0  0  0  0  0  0  0  0
  150.2416  145.8394  158.1576 H   0  0  0  0  0  0  0  0  0  0  0  0
  152.1852  146.4294  159.8212 H   0  0  0  0  0  0  0  0  0  0  0  0
  152.8652  145.7133  158.3424 H   0  0  0  0  0  0  0  0  0  0  0  0
  152.9984  139.4974  155.1070 H   0  0  0  0  0  0  0  0  0  0  0  0
  149.3440  142.9965  158.5769 H   0  0  0  0  0  0  0  0  0  0  0  0
  1  2  1  0  0  0  0
  1 17  1  0  0  0  0
  1 18  1  0  0  0  0
  1 19  1  0  0  0  0
  2 16  1  0  0  0  0
  2  3  2  0  0  0  0
  3  4  1  0  0  0  0
  4  5  1  0  0  0  0
  4 15  2  0  0  0  0
  5  6  1  0  0  0  0
  5 20  1  0  0  0  0
  5 21  1  0  0  0  0
  6  7  1  0  0  0  0
  6 22  1  0  0  0  0
  6 23  1  0  0  0  0
  7  8  1  0  0  0  0
  7 24  1  0  0  0  0
  7 37  1  0  0  0  0
  8 13  1  0  0  0  0
  8  9  1  0  0  0  0
  8 25  1  0  0  0  0
  9 10  1  0  0  0  0
  9 26  1  0  0  0  0
  9 27  1  0  0  0  0
 10 14  1  0  0  0  0
 10 11  1  0  0  0  0
 10 28  1  0  0  0  0
 11 12  1  0  0  0  0
 11 29  1  0  0  0  0
 11 30  1  0  0  0  0
 12 13  1  0  0  0  0
 12 31  1  0  0  0  0
 12 32  1  0  0  0  0
 13 14  1  0  0  0  0
 13 33  1  0  0  0  0
 14 34  1  0  0  0  0
 14 35  1  0  0  0  0
 15 16  1  0  0  0  0
 15 36  1  0  0  0  0
M  CHG  1   7   1
M  END
> <s_m_source_file>
AV-unprocessed.smi

> <i_m_source_file_index>
3209

> <i_lp_mmshare_version>
43012

> <i_f3d_flags>
0

> <s_epik_input>
W0NIM11jMW5jKFtjSF1zMSlbQ0gyXVtDSDJdW05IXVtDQEhdKFtDSDJdW0NASF0yMylbQ0BIXShbQ0gyXTMpW0NIMl1bQ0gyXTI=

> <s_epik_cmdline>
J2VwaWtfcHl0aG9uJywgJy1waCcsICc3LjAnLCAnLXRuJywgJzgnLCAnLW1hJywgJzIwMCcsICctbWV0YWxfYmluZGluZycsICctaW1hZScsICc8aW5maWxlLm1hZT4nLCAnLW9tYWUnLCAnPG91dGZpbGUubWFlPic=

> <r_lp_tautomer_probability>
1

> <r_epik_Ionization_Penalty>
0.000342479

> <r_epik_Ionization_Penalty_Charging>
0.000317129

> <r_epik_Ionization_Penalty_Neutral>
2.535e-05

> <r_epik_State_Penalty>
-0

> <r_epik_Charging_Adjusted_Penalty>
0.000317129

> <i_epik_Tot_Q>
1

> <i_epik_Tot_abs_Q>
1

> <r_epik_Metal_State_Penalty>
-0

> <b_epik_Metal_Only>
0

> <s_lp_Force_Field>
OPLS_2005

> <r_lp_Energy>
49.3093

> <b_lp_Chiralities_Consistent>
1

> <s_lp_Variant>
AV-unprocessed.smi:3209-1

> <Gold.Version>
5.8.1

> <Gold.Id.Protein>
6NUR|6NUR_protein|mol2

> <Gold.PLP.Fitness>
42.7831

> <Gold.PLP.PLP>
-37.4657

> <Gold.PLP.part.hbond>
-1.0000

> <Gold.PLP.part.metal>
0.0000

> <Gold.PLP.part.buried>
-4.0956

> <Gold.PLP.part.nonpolar>
-33.3237

> <Gold.PLP.part.repulsive>
0.0675

> <Gold.PLP.ligand.clash>
0.0000

> <Gold.PLP.ligand.torsion>
0.3535

> <Gold.PLP.Chemscore.Hbond>
2.0000

> <Gold.PLP.Chemscore.CHOScore>
0.0000

> <Gold.PLP.Chemscore.Metal>
0.0000

> <Gold.Chemscore.Hbonds>
donor molecule, donor type, donor heavy atom, donor atom, acceptor molecule, acceptor atom, score
      L1  H     7    24       P1  8028  2.00

> <Gold.PLP.Chemscore.Internal.Correction>
0.0245

> <Gold.Rescore>
     Score         DG    S(hbond)    S(metal)    S(lipo)     H(rot)  DE(clash)    DE(int)     intcor
     19.48     -19.87       0.97        0.00     124.11       1.31       0.09       0.30       ----

> <Gold.Chemscore.Fitness>
19.4839

> <Gold.Chemscore.DG>
-19.8724

> <Gold.Chemscore.ZeroCoef>
-5.4800

> <Gold.Chemscore.Hbond>
0.9663

> <Gold.Chemscore.Metal>
0.0000

> <Gold.Chemscore.Lipo>
124.1073

> <Gold.Chemscore.Internal_Hbond>
0.0000

> <Gold.Chemscore.DEClash>
0.0928

> <Gold.Chemscore.DEInternal>
0.2956

> <Gold.Chemscore.Rot>
1.3108

> <Gold.Chemscore.Internal.Correction>
   9.000000E+99

> <Gold.Chemscore.Hbonds>
donor molecule, donor type, donor heavy atom, donor atom, acceptor molecule, acceptor atom, score
      L1  H     7    24       P1  8028  0.89

> <Gold.Chemscore.Hbond.Weighted>
-3.2276

> <Gold.Chemscore.Metal.Weighted>
-0.0000

> <Gold.Chemscore.Lipo.Weighted>
-14.5206

> <Gold.Chemscore.Internal_Hbond.Weighted>
0.0000

> <Gold.Chemscore.DEClash.Weighted>
0.0928

> <Gold.Chemscore.DEInternal.Weighted>
0.2956

> <Gold.Chemscore.Rot.Weighted>
3.3558

> <Gold.Chemscore.Internal.Correction.Weighted>
   9.000000E+99

> <Gold.Protein.RotatedTorsions>
[ 6907 6896 6895 6894 ] final -153.64 input  -60.11 | X-H torsion
[ 7974 7965 7964 7962 ] final -117.96 input  175.53 | X-H torsion
[ 8008 7997 7996 7995 ] final   87.92 input   59.86 | X-H torsion
[ 10167 10162 10161 10158 ] final  -50.70 input  -65.29 | X-H torsion
[ 10718 10713 10712 10709 ] final -147.85 input   66.30 | X-H torsion
[ 10763 10752 10751 10750 ] final   54.94 input  -60.55 | X-H torsion
[ 11005 11000 10999 10996 ] final  -69.18 input  -57.11 | X-H torsion

> <Gold.Protein.ActiveResidues>
 VAL166  LYS551  ARG553  GLY616  TRP617  ASP618  TYR619  PRO620  LYS621  CYS622 
 ASP623  PHE694  ASN695  SER759  ASP760  ASP761  ALA762  ILE779  LEU786  VAL792 
 PHE793  MET794  SER795  GLU796  ALA797  LYS798  CYS799  TRP800  GLU811  SER814 

> <Gold.Protein.RotatedAtoms>
  151.2456  133.4377  159.2608 H   0  0  0  0  0  0  0  0  0  0  0  0  # atno 6907 bound_to 6896
  151.0665  134.9771  159.8297 H   0  0  0  0  0  0  0  0  0  0  0  0  # atno 6908 bound_to 6896
  152.5406  134.2403  159.8912 H   0  0  0  0  0  0  0  0  0  0  0  0  # atno 6909 bound_to 6896
  145.0793  140.8414  143.4049 H   0  0  0  0  0  0  0  0  0  0  0  0  # atno 7974 bound_to 7965
  155.9814  140.3377  155.6666 H   0  0  0  0  0  0  0  0  0  0  0  0  # atno 8008 bound_to 7997
  155.6543  140.0709  157.2594 H   0  0  0  0  0  0  0  0  0  0  0  0  # atno 8009 bound_to 7997
  154.4193  140.1720  156.1696 H   0  0  0  0  0  0  0  0  0  0  0  0  # atno 8010 bound_to 7997
  140.6625  143.2648  151.4397 H   0  0  0  0  0  0  0  0  0  0  0  0  # atno 10167 bound_to 10162
  156.4127  130.7989  151.2208 H   0  0  0  0  0  0  0  0  0  0  0  0  # atno 10718 bound_to 10713
  152.9810  135.5727  154.4986 H   0  0  0  0  0  0  0  0  0  0  0  0  # atno 10763 bound_to 10752
  154.4509  135.2778  155.1783 H   0  0  0  0  0  0  0  0  0  0  0  0  # atno 10764 bound_to 10752
  154.3412  135.6229  153.5650 H   0  0  0  0  0  0  0  0  0  0  0  0  # atno 10765 bound_to 10752
  141.1548  133.6758  156.6560 H   0  0  0  0  0  0  0  0  0  0  0  0  # atno 11005 bound_to 11000
  145.1198  139.2701  143.5594 LP  0  0  0  0  0  0  0  0  0  0  0  0  # atno 17320 bound_to 7965
  146.3530  140.0818  142.8617 LP  0  0  0  0  0  0  0  0  0  0  0  0  # atno 17321 bound_to 7965
  139.5863  144.1597  152.2033 LP  0  0  0  0  0  0  0  0  0  0  0  0  # atno 17342 bound_to 10162
  140.0938  144.5598  150.7036 LP  0  0  0  0  0  0  0  0  0  0  0  0  # atno 17343 bound_to 10162
  157.7507  131.0252  150.3911 LP  0  0  0  0  0  0  0  0  0  0  0  0  # atno 17370 bound_to 10713
  156.4212  130.3953  149.6823 LP  0  0  0  0  0  0  0  0  0  0  0  0  # atno 17371 bound_to 10713
  140.3284  134.7949  157.4307 LP  0  0  0  0  0  0  0  0  0  0  0  0  # atno 17394 bound_to 11000
  140.1038  134.5437  155.8329 LP  0  0  0  0  0  0  0  0  0  0  0  0  # atno 17395 bound_to 11000

$$$$
