AV-unprocessed.smi:2244|AV-procd|sdf|9072|dock5
  -GOLD-   2272012273D 1   1.00000     0.00000
 Structure written by MMmdl.
 49 51  0  0  0  0  0  0  0  0  1 V2000
  145.4230  131.9511  152.4429 C   0  0  0  0  0  0  0  0  0  0  0  0
  145.1773  132.8353  151.1995 C   0  0  0  0  0  0  0  0  0  0  0  0
  146.5287  133.0026  150.4744 C   0  0  0  0  0  0  0  0  0  0  0  0
  144.1823  132.0861  150.2886 C   0  0  0  0  0  0  0  0  0  0  0  0
  144.6088  134.2182  151.5651 C   0  0  0  0  0  0  0  0  0  0  0  0
  145.2794  135.4297  151.2833 C   0  0  0  0  0  0  0  0  0  0  0  0
  144.6563  136.6278  151.6707 C   0  0  0  0  0  0  0  0  0  0  0  0
  143.4036  136.5610  152.3135 C   0  0  0  0  0  0  0  0  0  0  0  0
  142.8525  137.8231  152.6815 N   0  0  0  0  0  0  0  0  0  0  0  0
  141.6971  138.1475  153.2999 C   0  0  0  0  0  0  0  0  0  0  0  0
  140.9057  137.2770  153.6590 O   0  0  0  0  0  0  0  0  0  0  0  0
  141.4758  139.4571  153.5007 N   0  0  0  0  0  0  0  0  0  0  0  0
  140.2935  140.0303  154.1354 C   0  0  2  0  0  0  0  0  0  0  0  0
  140.2699  139.6524  155.6226 C   0  0  0  0  0  0  0  0  0  0  0  0
  138.9768  140.1465  156.2888 C   0  0  0  0  0  0  0  0  0  0  0  0
  137.8358  139.6294  155.6071 O   0  0  0  0  0  0  0  0  0  0  0  0
  137.7427  139.9773  154.2246 C   0  0  1  0  0  0  0  0  0  0  0  0
  137.4228  141.4537  154.0319 C   0  0  0  0  0  0  0  0  0  0  0  0
  136.0752  142.0061  154.4308 C   0  0  0  0  0  0  0  0  0  0  0  0
  136.4459  141.9016  152.9702 C   0  0  0  0  0  0  0  0  0  0  0  0
  139.0043  139.5215  153.4652 C   0  0  0  0  0  0  0  0  0  0  0  0
  142.8185  135.3592  152.5512 N   0  0  0  0  0  0  0  0  0  0  0  0
  143.4038  134.2155  152.1854 N   0  0  0  0  0  0  0  0  0  0  0  0
  145.8201  130.9750  152.1615 H   0  0  0  0  0  0  0  0  0  0  0  0
  144.5017  131.7715  152.9983 H   0  0  0  0  0  0  0  0  0  0  0  0
  146.1452  132.4036  153.1234 H   0  0  0  0  0  0  0  0  0  0  0  0
  147.2489  133.5319  151.0993 H   0  0  0  0  0  0  0  0  0  0  0  0
  146.4247  133.5644  149.5456 H   0  0  0  0  0  0  0  0  0  0  0  0
  146.9642  132.0362  150.2178 H   0  0  0  0  0  0  0  0  0  0  0  0
  144.5518  131.0937  150.0279 H   0  0  0  0  0  0  0  0  0  0  0  0
  144.0083  132.6186  149.3529 H   0  0  0  0  0  0  0  0  0  0  0  0
  143.2165  131.9585  150.7791 H   0  0  0  0  0  0  0  0  0  0  0  0
  146.2384  135.4673  150.7903 H   0  0  0  0  0  0  0  0  0  0  0  0
  145.1346  137.5771  151.4771 H   0  0  0  0  0  0  0  0  0  0  0  0
  143.4478  138.6116  152.4745 H   0  0  0  0  0  0  0  0  0  0  0  0
  142.1782  140.1072  153.1765 H   0  0  0  0  0  0  0  0  0  0  0  0
  140.3440  141.1174  154.0547 H   0  0  0  0  0  0  0  0  0  0  0  0
  140.3377  138.5688  155.7318 H   0  0  0  0  0  0  0  0  0  0  0  0
  141.1365  140.0725  156.1344 H   0  0  0  0  0  0  0  0  0  0  0  0
  138.9419  139.8091  157.3249 H   0  0  0  0  0  0  0  0  0  0  0  0
  138.9470  141.2358  156.3187 H   0  0  0  0  0  0  0  0  0  0  0  0
  136.8977  139.4123  153.8291 H   0  0  0  0  0  0  0  0  0  0  0  0
  138.2657  142.1210  154.1964 H   0  0  0  0  0  0  0  0  0  0  0  0
  135.3341  141.3068  154.8128 H   0  0  0  0  0  0  0  0  0  0  0  0
  136.0526  142.9987  154.8757 H   0  0  0  0  0  0  0  0  0  0  0  0
  136.6707  142.8248  152.4401 H   0  0  0  0  0  0  0  0  0  0  0  0
  135.9506  141.1339  152.3792 H   0  0  0  0  0  0  0  0  0  0  0  0
  138.9537  139.8493  152.4261 H   0  0  0  0  0  0  0  0  0  0  0  0
  139.0207  138.4307  153.4403 H   0  0  0  0  0  0  0  0  0  0  0  0
  1  2  1  0  0  0  0
  1 24  1  0  0  0  0
  1 25  1  0  0  0  0
  1 26  1  0  0  0  0
  2  3  1  0  0  0  0
  2  4  1  0  0  0  0
  2  5  1  0  0  0  0
  3 27  1  0  0  0  0
  3 28  1  0  0  0  0
  3 29  1  0  0  0  0
  4 30  1  0  0  0  0
  4 31  1  0  0  0  0
  4 32  1  0  0  0  0
  5 23  1  0  0  0  0
  5  6  2  0  0  0  0
  6  7  1  0  0  0  0
  6 33  1  0  0  0  0
  7  8  2  0  0  0  0
  7 34  1  0  0  0  0
  8  9  1  0  0  0  0
  8 22  1  0  0  0  0
  9 10  1  0  0  0  0
  9 35  1  0  0  0  0
 10 11  2  0  0  0  0
 10 12  1  0  0  0  0
 12 13  1  0  0  0  0
 12 36  1  0  0  0  0
 13 21  1  0  0  0  0
 13 14  1  0  0  0  0
 13 37  1  0  0  0  0
 14 15  1  0  0  0  0
 14 38  1  0  0  0  0
 14 39  1  0  0  0  0
 15 16  1  0  0  0  0
 15 40  1  0  0  0  0
 15 41  1  0  0  0  0
 16 17  1  0  0  0  0
 17 18  1  0  0  0  0
 17 21  1  0  0  0  0
 17 42  1  0  0  0  0
 18 20  1  0  0  0  0
 18 19  1  0  0  0  0
 18 43  1  0  0  0  0
 19 20  1  0  0  0  0
 19 44  1  0  0  0  0
 19 45  1  0  0  0  0
 20 46  1  0  0  0  0
 20 47  1  0  0  0  0
 21 48  1  0  0  0  0
 21 49  1  0  0  0  0
 22 23  2  0  0  0  0
M  END
> <s_m_source_file>
AV-unprocessed.smi

> <i_m_source_file_index>
2244

> <i_lp_mmshare_version>
43012

> <i_f3d_flags>
0

> <s_epik_input>
W0NIM11DKFtDSDNdKShbQ0gzXSljMVtjSF1bY0hdYyhubjEpW05IXUMoPU8pW05IXVtDQEBIXTJbQ0gyXVtDSDJdT1tDQEhdKFtDSDJdMilbQ0hdM1tDSDJdW0NIMl0z

> <s_epik_cmdline>
J2VwaWtfcHl0aG9uJywgJy1waCcsICc3LjAnLCAnLXRuJywgJzgnLCAnLW1hJywgJzIwMCcsICctbWV0YWxfYmluZGluZycsICctaW1hZScsICc8aW5maWxlLm1hZT4nLCAnLW9tYWUnLCAnPG91dGZpbGUubWFlPic=

> <r_lp_tautomer_probability>
1

> <r_epik_Ionization_Penalty>
0.011369

> <r_epik_Ionization_Penalty_Charging>
0

> <r_epik_Ionization_Penalty_Neutral>
0.011369

> <r_epik_State_Penalty>
0.00456331

> <r_epik_Charging_Adjusted_Penalty>
0.00456331

> <i_epik_Tot_Q>
0

> <i_epik_Tot_abs_Q>
0

> <r_epik_Metal_State_Penalty>
-0

> <b_epik_Metal_Only>
0

> <s_lp_Force_Field>
OPLS_2005

> <r_lp_Energy>
29.5867

> <b_lp_Chiralities_Consistent>
1

> <s_lp_Variant>
AV-unprocessed.smi:2244-1

> <Gold.Version>
5.8.1

> <Gold.Id.Protein>
6NUR|6NUR_protein|mol2

> <Gold.PLP.Fitness>
39.7394

> <Gold.PLP.PLP>
-34.1259

> <Gold.PLP.part.hbond>
-3.6885

> <Gold.PLP.part.metal>
0.0000

> <Gold.PLP.part.buried>
-0.4635

> <Gold.PLP.part.nonpolar>
-30.0253

> <Gold.PLP.part.repulsive>
0.5659

> <Gold.PLP.ligand.clash>
0.0000

> <Gold.PLP.ligand.torsion>
0.6504

> <Gold.PLP.Chemscore.Hbond>
1.9440

> <Gold.PLP.Chemscore.CHOScore>
0.0000

> <Gold.PLP.Chemscore.Metal>
0.0000

> <Gold.Chemscore.Hbonds>
donor molecule, donor type, donor heavy atom, donor atom, acceptor molecule, acceptor atom, score
      L1  H     9    35       P1 10175  0.93
      L1  H    12    36       P1 10175  1.00

> <Gold.PLP.Chemscore.Internal.Correction>
1.0823

> <Gold.Rescore>
     Score         DG    S(hbond)    S(metal)    S(lipo)     H(rot)  DE(clash)    DE(int)     intcor
     12.63     -16.34       1.33        0.00      83.34       1.30       0.56       3.15       ----

> <Gold.Chemscore.Fitness>
12.6304

> <Gold.Chemscore.DG>
-16.3390

> <Gold.Chemscore.ZeroCoef>
-5.4800

> <Gold.Chemscore.Hbond>
1.3283

> <Gold.Chemscore.Metal>
0.0000

> <Gold.Chemscore.Lipo>
83.3416

> <Gold.Chemscore.Internal_Hbond>
0.0000

> <Gold.Chemscore.DEClash>
0.5606

> <Gold.Chemscore.DEInternal>
3.1480

> <Gold.Chemscore.Rot>
1.3002

> <Gold.Chemscore.Internal.Correction>
   9.000000E+99

> <Gold.Chemscore.Hbonds>
donor molecule, donor type, donor heavy atom, donor atom, acceptor molecule, acceptor atom, score
      L1  H     9    35       P1 10175  0.91
      L1  H    12    36       P1 10175  0.38

> <Gold.Chemscore.Hbond.Weighted>
-4.4364

> <Gold.Chemscore.Metal.Weighted>
-0.0000

> <Gold.Chemscore.Lipo.Weighted>
-9.7510

> <Gold.Chemscore.Internal_Hbond.Weighted>
0.0000

> <Gold.Chemscore.DEClash.Weighted>
0.5606

> <Gold.Chemscore.DEInternal.Weighted>
3.1480

> <Gold.Chemscore.Rot.Weighted>
3.3284

> <Gold.Chemscore.Internal.Correction.Weighted>
   9.000000E+99

> <Gold.Protein.RotatedTorsions>
[ 6907 6896 6895 6894 ] final   92.16 input  -60.11 | X-H torsion
[ 7974 7965 7964 7962 ] final  100.88 input  175.53 | X-H torsion
[ 8008 7997 7996 7995 ] final -103.59 input   59.86 | X-H torsion
[ 10167 10162 10161 10158 ] final   16.79 input  -65.29 | X-H torsion
[ 10718 10713 10712 10709 ] final  -24.25 input   66.30 | X-H torsion
[ 10763 10752 10751 10750 ] final   -9.45 input  -60.55 | X-H torsion
[ 11005 11000 10999 10996 ] final   91.38 input  -57.11 | X-H torsion

> <Gold.Protein.ActiveResidues>
 VAL166  LYS551  ARG553  GLY616  TRP617  ASP618  TYR619  PRO620  LYS621  CYS622 
 ASP623  PHE694  ASN695  SER759  ASP760  ASP761  ALA762  ILE779  LEU786  VAL792 
 PHE793  MET794  SER795  GLU796  ALA797  LYS798  CYS799  TRP800  GLU811  SER814 

> <Gold.Protein.RotatedAtoms>
  152.5452  134.1545  159.8532 H   0  0  0  0  0  0  0  0  0  0  0  0  # atno 6907 bound_to 6896
  151.1569  133.4863  159.2602 H   0  0  0  0  0  0  0  0  0  0  0  0  # atno 6908 bound_to 6896
  151.1413  135.0192  159.8682 H   0  0  0  0  0  0  0  0  0  0  0  0  # atno 6909 bound_to 6896
  145.3797  139.2382  143.3410 H   0  0  0  0  0  0  0  0  0  0  0  0  # atno 7974 bound_to 7965
  154.8731  140.0422  157.1736 H   0  0  0  0  0  0  0  0  0  0  0  0  # atno 8008 bound_to 7997
  154.8718  140.2959  155.5456 H   0  0  0  0  0  0  0  0  0  0  0  0  # atno 8009 bound_to 7997
  156.2999  140.2427  156.3708 H   0  0  0  0  0  0  0  0  0  0  0  0  # atno 8010 bound_to 7997
  140.5772  143.9049  150.6760 H   0  0  0  0  0  0  0  0  0  0  0  0  # atno 10167 bound_to 10162
  156.4801  130.4543  149.6816 H   0  0  0  0  0  0  0  0  0  0  0  0  # atno 10718 bound_to 10713
  153.4550  135.7015  153.6085 H   0  0  0  0  0  0  0  0  0  0  0  0  # atno 10763 bound_to 10752
  153.4404  135.3781  155.2225 H   0  0  0  0  0  0  0  0  0  0  0  0  # atno 10764 bound_to 10752
  154.8728  135.3972  154.3967 H   0  0  0  0  0  0  0  0  0  0  0  0  # atno 10765 bound_to 10752
  139.8840  134.8671  156.3420 H   0  0  0  0  0  0  0  0  0  0  0  0  # atno 11005 bound_to 11000
  146.2848  140.4462  142.8762 LP  0  0  0  0  0  0  0  0  0  0  0  0  # atno 17320 bound_to 7965
  144.8517  140.7010  143.6164 LP  0  0  0  0  0  0  0  0  0  0  0  0  # atno 17321 bound_to 7965
  140.2540  143.3572  152.1381 LP  0  0  0  0  0  0  0  0  0  0  0  0  # atno 17342 bound_to 10162
  139.5149  144.6955  151.5641 LP  0  0  0  0  0  0  0  0  0  0  0  0  # atno 17343 bound_to 10162
  156.3530  130.7442  151.2404 LP  0  0  0  0  0  0  0  0  0  0  0  0  # atno 17370 bound_to 10713
  157.7484  131.0372  150.4443 LP  0  0  0  0  0  0  0  0  0  0  0  0  # atno 17371 bound_to 10713
  140.9652  133.7363  156.0457 LP  0  0  0  0  0  0  0  0  0  0  0  0  # atno 17394 bound_to 11000
  140.7940  134.3585  157.5457 LP  0  0  0  0  0  0  0  0  0  0  0  0  # atno 17395 bound_to 11000

$$$$
