AV-unprocessed.smi:554|AV-procd|sdf|2907|dock1
  -GOLD-   2262023403D 1   1.00000     0.00000
 Structure written by MMmdl.
 27 28  0  0  0  0  0  0  0  0  1 V2000
  152.4367  143.7037  161.1504 C   0  0  0  0  0  0  0  0  0  0  0  0
  151.8890  144.7487  160.1992 C   0  0  1  0  0  0  0  0  0  0  0  0
  152.4822  144.9150  158.8198 C   0  0  0  0  0  0  0  0  0  0  0  0
  151.0667  144.4083  158.9696 C   0  0  1  0  0  0  0  0  0  0  0  0
  150.7184  142.9919  158.5466 C   0  0  0  0  0  0  0  0  0  0  0  0
  149.9545  142.9011  157.3085 N   0  0  0  0  0  0  0  0  0  0  0  0
  149.6241  141.7632  156.6815 C   0  0  0  0  0  0  0  0  0  0  0  0
  149.9604  140.6459  157.0741 O   0  0  0  0  0  0  0  0  0  0  0  0
  148.8883  142.0111  155.5838 N   0  0  0  0  0  0  0  0  0  0  0  0
  148.3417  141.0781  154.6640 C   0  0  0  0  0  0  0  0  0  0  0  0
  147.3403  141.3487  153.8188 N   0  0  0  0  0  0  0  0  0  0  0  0
  147.0064  140.2445  153.0304 C   0  0  0  0  0  0  0  0  0  0  0  0
  147.7695  139.1337  153.2902 C   0  0  0  0  0  0  0  0  0  0  0  0
  148.9443  139.4314  154.5435 S   0  0  0  0  0  0  0  0  0  0  0  0
  152.7993  142.8263  160.6159 H   0  0  0  0  0  0  0  0  0  0  0  0
  151.6619  143.3925  161.8510 H   0  0  0  0  0  0  0  0  0  0  0  0
  153.2669  144.1210  161.7202 H   0  0  0  0  0  0  0  0  0  0  0  0
  151.5995  145.6681  160.7046 H   0  0  0  0  0  0  0  0  0  0  0  0
  152.6161  145.9294  158.4495 H   0  0  0  0  0  0  0  0  0  0  0  0
  153.2437  144.2028  158.5077 H   0  0  0  0  0  0  0  0  0  0  0  0
  150.2901  145.1272  158.7145 H   0  0  0  0  0  0  0  0  0  0  0  0
  151.6535  142.4561  158.3839 H   0  0  0  0  0  0  0  0  0  0  0  0
  150.2181  142.4635  159.3584 H   0  0  0  0  0  0  0  0  0  0  0  0
  149.6388  143.7721  156.9080 H   0  0  0  0  0  0  0  0  0  0  0  0
  148.6910  142.9808  155.3856 H   0  0  0  0  0  0  0  0  0  0  0  0
  146.2101  140.3374  152.3070 H   0  0  0  0  0  0  0  0  0  0  0  0
  147.7116  138.1623  152.8220 H   0  0  0  0  0  0  0  0  0  0  0  0
  1  2  1  0  0  0  0
  1 15  1  0  0  0  0
  1 16  1  0  0  0  0
  1 17  1  0  0  0  0
  2  4  1  0  0  0  0
  2  3  1  0  0  0  0
  2 18  1  0  0  0  0
  3  4  1  0  0  0  0
  3 19  1  0  0  0  0
  3 20  1  0  0  0  0
  4  5  1  0  0  0  0
  4 21  1  0  0  0  0
  5  6  1  0  0  0  0
  5 22  1  0  0  0  0
  5 23  1  0  0  0  0
  6  7  1  0  0  0  0
  6 24  1  0  0  0  0
  7  8  2  0  0  0  0
  7  9  1  0  0  0  0
  9 10  1  0  0  0  0
  9 25  1  0  0  0  0
 10 14  1  0  0  0  0
 10 11  2  0  0  0  0
 11 12  1  0  0  0  0
 12 13  2  0  0  0  0
 12 26  1  0  0  0  0
 13 14  1  0  0  0  0
 13 27  1  0  0  0  0
M  END
> <s_m_source_file>
AV-unprocessed.smi

> <i_m_source_file_index>
554

> <i_lp_mmshare_version>
43012

> <i_f3d_flags>
0

> <s_epik_input>
W0NIM11bQ0BASF0xW0NIMl1bQ0BIXTFbQ0gyXVtOSF1DKD1PKVtOSF1jMm5bY0hdW2NIXXMy

> <s_epik_cmdline>
J2VwaWtfcHl0aG9uJywgJy1waCcsICc3LjAnLCAnLXRuJywgJzgnLCAnLW1hJywgJzIwMCcsICctbWV0YWxfYmluZGluZycsICctaW1hZScsICc8aW5maWxlLm1hZT4nLCAnLW9tYWUnLCAnPG91dGZpbGUubWFlPic=

> <r_lp_tautomer_probability>
0.999

> <r_epik_Ionization_Penalty>
0.00042678

> <r_epik_Ionization_Penalty_Charging>
0

> <r_epik_Ionization_Penalty_Neutral>
0.00042678

> <r_epik_State_Penalty>
0.000177984

> <r_epik_Charging_Adjusted_Penalty>
0.000177984

> <i_epik_Tot_Q>
0

> <i_epik_Tot_abs_Q>
0

> <r_epik_Metal_State_Penalty>
-0

> <b_epik_Metal_Only>
0

> <s_lp_Force_Field>
OPLS_2005

> <r_lp_Energy>
14.702

> <b_lp_Chiralities_Consistent>
1

> <s_lp_Variant>
AV-unprocessed.smi:554-2

> <Gold.Version>
5.8.1

> <Gold.Id.Protein>
6NUR|6NUR_protein|mol2

> <Gold.PLP.Fitness>
41.0204

> <Gold.PLP.PLP>
-29.3479

> <Gold.PLP.part.hbond>
-2.0000

> <Gold.PLP.part.metal>
0.0000

> <Gold.PLP.part.buried>
-2.5930

> <Gold.PLP.part.nonpolar>
-25.2296

> <Gold.PLP.part.repulsive>
0.3340

> <Gold.PLP.ligand.clash>
0.0000

> <Gold.PLP.ligand.torsion>
0.4243

> <Gold.PLP.Chemscore.Hbond>
2.0000

> <Gold.PLP.Chemscore.CHOScore>
2.0000

> <Gold.PLP.Chemscore.Metal>
0.0000

> <Gold.Chemscore.Hbonds>
donor molecule, donor type, donor heavy atom, donor atom, acceptor molecule, acceptor atom, score
      L1  H     6    24       P1  8028  1.00
      L1  H     9    25       P1  8028  1.00
      L1  C    12    26       P1 10175  1.00
      L1  C    13    27       P1  7948  1.00

> <Gold.PLP.Chemscore.Internal.Correction>
0.5212

> <Gold.Rescore>
     Score         DG    S(hbond)    S(metal)    S(lipo)     H(rot)  DE(clash)    DE(int)     intcor
     16.64     -18.26       1.97        0.00      81.12       1.28       0.05       1.57       ----

> <Gold.Chemscore.Fitness>
16.6365

> <Gold.Chemscore.DG>
-18.2609

> <Gold.Chemscore.ZeroCoef>
-5.4800

> <Gold.Chemscore.Hbond>
1.9652

> <Gold.Chemscore.Metal>
0.0000

> <Gold.Chemscore.Lipo>
81.1205

> <Gold.Chemscore.Internal_Hbond>
0.0000

> <Gold.Chemscore.DEClash>
0.0498

> <Gold.Chemscore.DEInternal>
1.5746

> <Gold.Chemscore.Rot>
1.2788

> <Gold.Chemscore.Internal.Correction>
   9.000000E+99

> <Gold.Chemscore.Hbonds>
donor molecule, donor type, donor heavy atom, donor atom, acceptor molecule, acceptor atom, score
      L1  H     6    24       P1  8028  0.92
      L1  H     9    25       P1  8028  0.98

> <Gold.Chemscore.Hbond.Weighted>
-6.5636

> <Gold.Chemscore.Metal.Weighted>
-0.0000

> <Gold.Chemscore.Lipo.Weighted>
-9.4911

> <Gold.Chemscore.Internal_Hbond.Weighted>
0.0000

> <Gold.Chemscore.DEClash.Weighted>
0.0498

> <Gold.Chemscore.DEInternal.Weighted>
1.5746

> <Gold.Chemscore.Rot.Weighted>
3.2738

> <Gold.Chemscore.Internal.Correction.Weighted>
   9.000000E+99

> <Gold.Protein.RotatedTorsions>
[ 6907 6896 6895 6894 ] final  -22.20 input  -60.11 | X-H torsion
[ 7974 7965 7964 7962 ] final  -78.26 input  175.53 | X-H torsion
[ 8008 7997 7996 7995 ] final   51.08 input   59.86 | X-H torsion
[ 10167 10162 10161 10158 ] final  -99.38 input  -65.29 | X-H torsion
[ 10718 10713 10712 10709 ] final  -88.84 input   66.30 | X-H torsion
[ 10763 10752 10751 10750 ] final -132.30 input  -60.55 | X-H torsion
[ 11005 11000 10999 10996 ] final   14.85 input  -57.11 | X-H torsion

> <Gold.Protein.ActiveResidues>
 VAL166  LYS551  ARG553  GLY616  TRP617  ASP618  TYR619  PRO620  LYS621  CYS622 
 ASP623  PHE694  ASN695  SER759  ASP760  ASP761  ALA762  ILE779  LEU786  VAL792 
 PHE793  MET794  SER795  GLU796  ALA797  LYS798  CYS799  TRP800  GLU811  SER814 

> <Gold.Protein.RotatedAtoms>
  151.2221  135.0522  159.8953 H   0  0  0  0  0  0  0  0  0  0  0  0  # atno 6907 bound_to 6896
  152.5414  134.0629  159.8170 H   0  0  0  0  0  0  0  0  0  0  0  0  # atno 6908 bound_to 6896
  151.0797  133.5352  159.2653 H   0  0  0  0  0  0  0  0  0  0  0  0  # atno 6909 bound_to 6896
  145.5889  140.9433  143.1303 H   0  0  0  0  0  0  0  0  0  0  0  0  # atno 7974 bound_to 7965
  155.4294  140.3450  155.4278 H   0  0  0  0  0  0  0  0  0  0  0  0  # atno 8008 bound_to 7997
  156.1346  140.1524  156.9045 H   0  0  0  0  0  0  0  0  0  0  0  0  # atno 8009 bound_to 7997
  154.4921  140.0838  156.7598 H   0  0  0  0  0  0  0  0  0  0  0  0  # atno 8010 bound_to 7997
  140.2630  143.3395  152.0607 H   0  0  0  0  0  0  0  0  0  0  0  0  # atno 10167 bound_to 10162
  155.9984  130.4850  150.5080 H   0  0  0  0  0  0  0  0  0  0  0  0  # atno 10718 bound_to 10713
  154.8744  135.3802  154.4387 H   0  0  0  0  0  0  0  0  0  0  0  0  # atno 10763 bound_to 10752
  153.5074  135.7030  153.5804 H   0  0  0  0  0  0  0  0  0  0  0  0  # atno 10764 bound_to 10752
  153.4109  135.3925  155.2016 H   0  0  0  0  0  0  0  0  0  0  0  0  # atno 10765 bound_to 10752
  140.4648  134.1090  155.7722 H   0  0  0  0  0  0  0  0  0  0  0  0  # atno 11005 bound_to 11000
  144.7360  139.7584  143.7329 LP  0  0  0  0  0  0  0  0  0  0  0  0  # atno 17320 bound_to 7965
  146.1662  139.4794  142.9957 LP  0  0  0  0  0  0  0  0  0  0  0  0  # atno 17321 bound_to 7965
  139.5011  144.6706  151.6251 LP  0  0  0  0  0  0  0  0  0  0  0  0  # atno 17342 bound_to 10162
  140.5951  143.9711  150.6349 LP  0  0  0  0  0  0  0  0  0  0  0  0  # atno 17343 bound_to 10162
  157.3057  131.0654  151.2037 LP  0  0  0  0  0  0  0  0  0  0  0  0  # atno 17370 bound_to 10713
  157.3001  130.6838  149.6159 LP  0  0  0  0  0  0  0  0  0  0  0  0  # atno 17371 bound_to 10713
  141.1604  133.8803  157.1863 LP  0  0  0  0  0  0  0  0  0  0  0  0  # atno 17394 bound_to 11000
  139.9922  135.0060  157.0001 LP  0  0  0  0  0  0  0  0  0  0  0  0  # atno 17395 bound_to 11000

$$$$
