AV-unprocessed.smi:2210|AV-procd|sdf|8949|dock6
  -GOLD-   2272012163D 1   1.00000     0.00000
 Structure written by MMmdl.
 37 38  0  0  0  0  0  0  0  0  1 V2000
  149.9298  135.4478  156.4133 O   0  0  0  0  0  0  0  0  0  0  0  0
  149.7782  135.7145  155.2213 C   0  0  0  0  0  0  0  0  0  0  0  0
  149.1968  134.8817  154.3461 N   0  0  0  0  0  0  0  0  0  0  0  0
  148.6647  133.5633  154.6709 C   0  0  0  0  0  0  0  0  0  0  0  0
  147.1717  133.4521  154.3149 C   0  0  0  0  0  0  0  0  0  0  0  0
  146.9402  132.9627  152.8949 C   0  0  0  0  0  0  0  0  0  0  0  0
  146.1903  131.8752  152.6293 C   0  0  0  0  0  0  0  0  0  0  0  0
  145.9370  131.3335  151.2334 C   0  0  0  0  0  0  0  0  0  0  0  0
  146.8930  131.9343  150.1893 C   0  0  0  0  0  0  0  0  0  0  0  0
  147.0505  133.4465  150.3892 C   0  0  0  0  0  0  0  0  0  0  0  0
  147.6057  133.7722  151.7873 C   0  0  0  0  0  0  0  0  0  0  0  0
  150.1789  136.8482  154.6205 N   0  0  0  0  0  0  0  0  0  0  0  0
  150.8280  137.9732  155.1975 C   0  0  0  0  0  0  0  0  0  0  0  0
  151.4531  137.9679  156.4682 C   0  0  0  0  0  0  0  0  0  0  0  0
  152.0500  139.1543  156.9366 C   0  0  0  0  0  0  0  0  0  0  0  0
  151.9930  140.3028  156.1234 C   0  0  0  0  0  0  0  0  0  0  0  0
  151.3875  140.3263  154.9175 N   0  0  0  0  0  0  0  0  0  0  0  0
  150.8177  139.1853  154.4748 C   0  0  0  0  0  0  0  0  0  0  0  0
  149.1202  135.1789  153.3844 H   0  0  0  0  0  0  0  0  0  0  0  0
  149.2433  132.8276  154.1124 H   0  0  0  0  0  0  0  0  0  0  0  0
  148.8231  133.3457  155.7286 H   0  0  0  0  0  0  0  0  0  0  0  0
  146.6785  132.7720  155.0109 H   0  0  0  0  0  0  0  0  0  0  0  0
  146.6827  134.4193  154.4346 H   0  0  0  0  0  0  0  0  0  0  0  0
  145.7186  131.3366  153.4383 H   0  0  0  0  0  0  0  0  0  0  0  0
  146.0358  130.2478  151.2455 H   0  0  0  0  0  0  0  0  0  0  0  0
  144.9026  131.5553  150.9694 H   0  0  0  0  0  0  0  0  0  0  0  0
  147.8712  131.4590  150.2750 H   0  0  0  0  0  0  0  0  0  0  0  0
  146.5315  131.7182  149.1835 H   0  0  0  0  0  0  0  0  0  0  0  0
  147.7042  133.8648  149.6231 H   0  0  0  0  0  0  0  0  0  0  0  0
  146.0797  133.9272  150.2619 H   0  0  0  0  0  0  0  0  0  0  0  0
  147.4815  134.8368  151.9877 H   0  0  0  0  0  0  0  0  0  0  0  0
  148.6765  133.5684  151.8121 H   0  0  0  0  0  0  0  0  0  0  0  0
  150.0571  136.8865  153.6191 H   0  0  0  0  0  0  0  0  0  0  0  0
  151.4753  137.0901  157.0947 H   0  0  0  0  0  0  0  0  0  0  0  0
  152.5366  139.1839  157.9004 H   0  0  0  0  0  0  0  0  0  0  0  0
  152.4398  141.2290  156.4536 H   0  0  0  0  0  0  0  0  0  0  0  0
  150.3414  139.2421  153.5068 H   0  0  0  0  0  0  0  0  0  0  0  0
  1  2  2  0  0  0  0
  2  3  1  0  0  0  0
  2 12  1  0  0  0  0
  3  4  1  0  0  0  0
  3 19  1  0  0  0  0
  4  5  1  0  0  0  0
  4 20  1  0  0  0  0
  4 21  1  0  0  0  0
  5  6  1  0  0  0  0
  5 22  1  0  0  0  0
  5 23  1  0  0  0  0
  6 11  1  0  0  0  0
  6  7  2  0  0  0  0
  7  8  1  0  0  0  0
  7 24  1  0  0  0  0
  8  9  1  0  0  0  0
  8 25  1  0  0  0  0
  8 26  1  0  0  0  0
  9 10  1  0  0  0  0
  9 27  1  0  0  0  0
  9 28  1  0  0  0  0
 10 11  1  0  0  0  0
 10 29  1  0  0  0  0
 10 30  1  0  0  0  0
 11 31  1  0  0  0  0
 11 32  1  0  0  0  0
 12 13  1  0  0  0  0
 12 33  1  0  0  0  0
 13 18  1  0  0  0  0
 13 14  2  0  0  0  0
 14 15  1  0  0  0  0
 14 34  1  0  0  0  0
 15 16  2  0  0  0  0
 15 35  1  0  0  0  0
 16 17  1  0  0  0  0
 16 36  1  0  0  0  0
 17 18  2  0  0  0  0
 18 37  1  0  0  0  0
M  END
> <s_m_source_file>
AV-unprocessed.smi

> <i_m_source_file_index>
2210

> <i_lp_mmshare_version>
43012

> <i_f3d_flags>
0

> <s_epik_input>
W2NIXTFuW2NIXVtjSF1bY0hdYzFbTkhdQyg9TylbTkhdW0NIMl1bQ0gyXUMyPVtDSF1bQ0gyXVtDSDJdW0NIMl1bQ0gyXTI=

> <s_epik_cmdline>
J2VwaWtfcHl0aG9uJywgJy1waCcsICc3LjAnLCAnLXRuJywgJzgnLCAnLW1hJywgJzIwMCcsICctbWV0YWxfYmluZGluZycsICctaW1hZScsICc8aW5maWxlLm1hZT4nLCAnLW9tYWUnLCAnPG91dGZpbGUubWFlPic=

> <r_epik_Ionization_Penalty>
0.00482236

> <r_epik_Ionization_Penalty_Charging>
0

> <r_epik_Ionization_Penalty_Neutral>
0.00482236

> <r_epik_State_Penalty>
0.0034674

> <r_epik_Charging_Adjusted_Penalty>
0.0034674

> <i_epik_Tot_Q>
0

> <i_epik_Tot_abs_Q>
0

> <r_epik_Metal_State_Penalty>
-0

> <b_epik_Metal_Only>
0

> <s_lp_Force_Field>
OPLS_2005

> <r_lp_Energy>
10.3884

> <b_lp_Chiralities_Consistent>
1

> <s_lp_Variant>
AV-unprocessed.smi:2210-1

> <Gold.Version>
5.8.1

> <Gold.Id.Protein>
6NUR|6NUR_protein|mol2

> <Gold.PLP.Fitness>
44.5938

> <Gold.PLP.PLP>
-33.4304

> <Gold.PLP.part.hbond>
-4.0000

> <Gold.PLP.part.metal>
0.0000

> <Gold.PLP.part.buried>
-0.8846

> <Gold.PLP.part.nonpolar>
-28.0025

> <Gold.PLP.part.repulsive>
0.1985

> <Gold.PLP.ligand.clash>
0.0000

> <Gold.PLP.ligand.torsion>
0.2642

> <Gold.PLP.Chemscore.Hbond>
2.8960

> <Gold.PLP.Chemscore.CHOScore>
1.0000

> <Gold.PLP.Chemscore.Metal>
0.0000

> <Gold.Chemscore.Hbonds>
donor molecule, donor type, donor heavy atom, donor atom, acceptor molecule, acceptor atom, score
      L1  H     3    19       P1  7948  1.00
      L1  H    12    33       P1  7948  0.70
      P1  H  7989  7998       L1    17  0.70
      L1  C    18    37       P1  7957  0.89

> <Gold.PLP.Chemscore.Internal.Correction>
0.0038

> <Gold.Rescore>
     Score         DG    S(hbond)    S(metal)    S(lipo)     H(rot)  DE(clash)    DE(int)     intcor
     17.01     -18.72       1.97        0.00      87.05       1.37       0.07       1.64       ----

> <Gold.Chemscore.Fitness>
17.0147

> <Gold.Chemscore.DG>
-18.7200

> <Gold.Chemscore.ZeroCoef>
-5.4800

> <Gold.Chemscore.Hbond>
1.9684

> <Gold.Chemscore.Metal>
0.0000

> <Gold.Chemscore.Lipo>
87.0505

> <Gold.Chemscore.Internal_Hbond>
0.0000

> <Gold.Chemscore.DEClash>
0.0660

> <Gold.Chemscore.DEInternal>
1.6393

> <Gold.Chemscore.Rot>
1.3747

> <Gold.Chemscore.Internal.Correction>
   9.000000E+99

> <Gold.Chemscore.Hbonds>
donor molecule, donor type, donor heavy atom, donor atom, acceptor molecule, acceptor atom, score
      L1  H     3    19       P1  7948  0.26
      L1  H    12    33       P1  7948  0.15
      P1  H  7989  7998       L1    17  0.07

> <Gold.Chemscore.Hbond.Weighted>
-6.5743

> <Gold.Chemscore.Metal.Weighted>
-0.0000

> <Gold.Chemscore.Lipo.Weighted>
-10.1849

> <Gold.Chemscore.Internal_Hbond.Weighted>
0.0000

> <Gold.Chemscore.DEClash.Weighted>
0.0660

> <Gold.Chemscore.DEInternal.Weighted>
1.6393

> <Gold.Chemscore.Rot.Weighted>
3.5192

> <Gold.Chemscore.Internal.Correction.Weighted>
   9.000000E+99

> <Gold.Protein.RotatedTorsions>
[ 6907 6896 6895 6894 ] final -106.50 input  -60.11 | X-H torsion
[ 7974 7965 7964 7962 ] final   -3.51 input  175.53 | X-H torsion
[ 8008 7997 7996 7995 ] final   21.14 input   59.86 | X-H torsion
[ 10167 10162 10161 10158 ] final  -24.39 input  -65.29 | X-H torsion
[ 10718 10713 10712 10709 ] final  -42.93 input   66.30 | X-H torsion
[ 10763 10752 10751 10750 ] final   32.07 input  -60.55 | X-H torsion
[ 11005 11000 10999 10996 ] final   65.31 input  -57.11 | X-H torsion

> <Gold.Protein.ActiveResidues>
 VAL166  LYS551  ARG553  GLY616  TRP617  ASP618  TYR619  PRO620  LYS621  CYS622 
 ASP623  PHE694  ASN695  SER759  ASP760  ASP761  ALA762  ILE779  LEU786  VAL792 
 PHE793  MET794  SER795  GLU796  ALA797  LYS798  CYS799  TRP800  GLU811  SER814 

> <Gold.Protein.RotatedAtoms>
  150.7393  133.9967  159.3624 H   0  0  0  0  0  0  0  0  0  0  0  0  # atno 6907 bound_to 6896
  151.7918  135.0731  160.0397 H   0  0  0  0  0  0  0  0  0  0  0  0  # atno 6908 bound_to 6896
  152.3202  133.5809  159.5776 H   0  0  0  0  0  0  0  0  0  0  0  0  # atno 6909 bound_to 6896
  146.2388  140.1733  142.8332 H   0  0  0  0  0  0  0  0  0  0  0  0  # atno 7974 bound_to 7965
  154.9461  140.3059  155.5097 H   0  0  0  0  0  0  0  0  0  0  0  0  # atno 8008 bound_to 7997
  156.2991  140.2327  156.4472 H   0  0  0  0  0  0  0  0  0  0  0  0  # atno 8009 bound_to 7997
  154.8099  140.0429  157.1323 H   0  0  0  0  0  0  0  0  0  0  0  0  # atno 8010 bound_to 7997
  140.7288  143.4358  151.0732 H   0  0  0  0  0  0  0  0  0  0  0  0  # atno 10167 bound_to 10162
  156.2543  130.4191  149.8614 H   0  0  0  0  0  0  0  0  0  0  0  0  # atno 10718 bound_to 10713
  153.0281  135.6422  154.1298 H   0  0  0  0  0  0  0  0  0  0  0  0  # atno 10763 bound_to 10752
  154.1024  135.2858  155.3250 H   0  0  0  0  0  0  0  0  0  0  0  0  # atno 10764 bound_to 10752
  154.6389  135.5466  153.7829 H   0  0  0  0  0  0  0  0  0  0  0  0  # atno 10765 bound_to 10752
  139.9903  134.6602  156.0103 H   0  0  0  0  0  0  0  0  0  0  0  0  # atno 11005 bound_to 11000
  144.9994  140.8618  143.5291 LP  0  0  0  0  0  0  0  0  0  0  0  0  # atno 17320 bound_to 7965
  145.1750  139.2383  143.5322 LP  0  0  0  0  0  0  0  0  0  0  0  0  # atno 17321 bound_to 7965
  139.8019  143.8071  152.3163 LP  0  0  0  0  0  0  0  0  0  0  0  0  # atno 17342 bound_to 10162
  139.8091  144.7343  150.9721 LP  0  0  0  0  0  0  0  0  0  0  0  0  # atno 17343 bound_to 10162
  156.6151  130.8603  151.3463 LP  0  0  0  0  0  0  0  0  0  0  0  0  # atno 17370 bound_to 10713
  157.7226  130.9579  150.1503 LP  0  0  0  0  0  0  0  0  0  0  0  0  # atno 17371 bound_to 10713
  141.1560  133.6543  156.4163 LP  0  0  0  0  0  0  0  0  0  0  0  0  # atno 17394 bound_to 11000
  140.4922  134.6565  157.5215 LP  0  0  0  0  0  0  0  0  0  0  0  0  # atno 17395 bound_to 11000

$$$$
