AV-unprocessed.smi:2904|AV-procd|sdf|11160|dock5
  -GOLD-   2272016 43D 1   1.00000     0.00000
 Structure written by MMmdl.
 39 40  0  0  0  0  0  0  0  0  1 V2000
  152.8035  138.5801  154.3594 C   0  0  0  0  0  0  0  0  0  0  0  0
  151.4868  138.0151  154.8092 C   0  0  0  0  0  0  0  0  0  0  0  0
  151.2936  136.7080  154.7624 N   0  0  0  0  0  0  0  0  0  0  0  0
  150.0462  136.5241  155.2432 N   0  0  0  0  0  0  0  0  0  0  0  0
  149.4937  135.1816  155.3031 C   0  0  0  0  0  0  0  0  0  0  0  0
  150.4403  134.2902  155.0118 F   0  0  0  0  0  0  0  0  0  0  0  0
  148.9935  134.9336  156.5147 F   0  0  0  0  0  0  0  0  0  0  0  0
  149.4387  137.7245  155.5594 C   0  0  0  0  0  0  0  0  0  0  0  0
  148.0426  137.7954  156.0870 C   0  0  0  0  0  0  0  0  0  0  0  0
  150.3468  138.7163  155.3000 C   0  0  0  0  0  0  0  0  0  0  0  0
  150.1971  140.2082  155.4821 C   0  0  0  0  0  0  0  0  0  0  0  0
  151.2452  140.7734  156.4492 C   0  0  0  0  0  0  0  0  0  0  0  0
  152.2680  140.1438  156.7246 O   0  0  0  0  0  0  0  0  0  0  0  0
  150.9693  141.9814  156.9636 N   0  0  0  0  0  0  0  0  0  0  0  0
  151.8195  142.7118  157.8992 C   0  0  0  0  0  0  0  0  0  0  0  0
  151.8848  141.9651  159.2394 C   0  0  0  0  0  0  0  0  0  0  0  0
  152.6563  142.7898  160.2824 C   0  0  0  0  0  0  0  0  0  0  0  0
  152.0530  144.0704  160.4331 O   0  0  0  0  0  0  0  0  0  0  0  0
  152.0828  144.8422  159.2372 C   0  0  0  0  0  0  0  0  0  0  0  0
  151.2817  144.1339  158.1327 C   0  0  0  0  0  0  0  0  0  0  0  0
  153.0804  139.4515  154.9534 H   0  0  0  0  0  0  0  0  0  0  0  0
  152.7574  138.8902  153.3155 H   0  0  0  0  0  0  0  0  0  0  0  0
  153.6072  137.8493  154.4558 H   0  0  0  0  0  0  0  0  0  0  0  0
  148.6840  135.0675  154.5827 H   0  0  0  0  0  0  0  0  0  0  0  0
  147.7088  138.8276  156.1899 H   0  0  0  0  0  0  0  0  0  0  0  0
  147.9772  137.3255  157.0683 H   0  0  0  0  0  0  0  0  0  0  0  0
  147.3489  137.2854  155.4183 H   0  0  0  0  0  0  0  0  0  0  0  0
  150.2933  140.7261  154.5271 H   0  0  0  0  0  0  0  0  0  0  0  0
  149.2070  140.4626  155.8605 H   0  0  0  0  0  0  0  0  0  0  0  0
  150.1081  142.4296  156.6857 H   0  0  0  0  0  0  0  0  0  0  0  0
  152.8320  142.7757  157.4954 H   0  0  0  0  0  0  0  0  0  0  0  0
  150.8761  141.7752  159.6093 H   0  0  0  0  0  0  0  0  0  0  0  0
  152.3587  140.9918  159.1077 H   0  0  0  0  0  0  0  0  0  0  0  0
  152.6447  142.2794  161.2455 H   0  0  0  0  0  0  0  0  0  0  0  0
  153.7028  142.9007  159.9942 H   0  0  0  0  0  0  0  0  0  0  0  0
  151.6526  145.8230  159.4409 H   0  0  0  0  0  0  0  0  0  0  0  0
  153.1147  145.0070  158.9237 H   0  0  0  0  0  0  0  0  0  0  0  0
  151.3251  144.7150  157.2108 H   0  0  0  0  0  0  0  0  0  0  0  0
  150.2316  144.0901  158.4249 H   0  0  0  0  0  0  0  0  0  0  0  0
  1  2  1  0  0  0  0
  1 21  1  0  0  0  0
  1 22  1  0  0  0  0
  1 23  1  0  0  0  0
  2 10  1  0  0  0  0
  2  3  2  0  0  0  0
  3  4  1  0  0  0  0
  4  5  1  0  0  0  0
  4  8  1  0  0  0  0
  5  6  1  0  0  0  0
  5  7  1  0  0  0  0
  5 24  1  0  0  0  0
  8  9  1  0  0  0  0
  8 10  2  0  0  0  0
  9 25  1  0  0  0  0
  9 26  1  0  0  0  0
  9 27  1  0  0  0  0
 10 11  1  0  0  0  0
 11 12  1  0  0  0  0
 11 28  1  0  0  0  0
 11 29  1  0  0  0  0
 12 13  2  0  0  0  0
 12 14  1  0  0  0  0
 14 15  1  0  0  0  0
 14 30  1  0  0  0  0
 15 20  1  0  0  0  0
 15 16  1  0  0  0  0
 15 31  1  0  0  0  0
 16 17  1  0  0  0  0
 16 32  1  0  0  0  0
 16 33  1  0  0  0  0
 17 18  1  0  0  0  0
 17 34  1  0  0  0  0
 17 35  1  0  0  0  0
 18 19  1  0  0  0  0
 19 20  1  0  0  0  0
 19 36  1  0  0  0  0
 19 37  1  0  0  0  0
 20 38  1  0  0  0  0
 20 39  1  0  0  0  0
M  END
> <s_m_source_file>
AV-unprocessed.smi

> <i_m_source_file_index>
2904

> <i_lp_mmshare_version>
43012

> <i_f3d_flags>
0

> <s_epik_input>
W0NIM11jMW5uKFtDSF0oRilGKWMoW0NIM10pYzFbQ0gyXUMoPU8pW05IXVtDSF0yW0NIMl1bQ0gyXU9bQ0gyXVtDSDJdMg==

> <s_epik_cmdline>
J2VwaWtfcHl0aG9uJywgJy1waCcsICc3LjAnLCAnLXRuJywgJzgnLCAnLW1hJywgJzIwMCcsICctbWV0YWxfYmluZGluZycsICctaW1hZScsICc8aW5maWxlLm1hZT4nLCAnLW9tYWUnLCAnPG91dGZpbGUubWFlPic=

> <r_lp_tautomer_probability>
1

> <r_epik_Ionization_Penalty>
3.9362e-07

> <r_epik_Ionization_Penalty_Charging>
0

> <r_epik_Ionization_Penalty_Neutral>
3.9362e-07

> <r_epik_State_Penalty>
-0

> <r_epik_Charging_Adjusted_Penalty>
0

> <i_epik_Tot_Q>
0

> <i_epik_Tot_abs_Q>
0

> <r_epik_Metal_State_Penalty>
-0

> <b_epik_Metal_Only>
0

> <s_lp_Force_Field>
OPLS_2005

> <r_lp_Energy>
7.93396

> <b_lp_Chiralities_Consistent>
1

> <s_lp_Variant>
AV-unprocessed.smi:2904-1

> <Gold.Version>
5.8.1

> <Gold.Id.Protein>
6NUR|6NUR_protein|mol2

> <Gold.PLP.Fitness>
42.6664

> <Gold.PLP.PLP>
-37.4557

> <Gold.PLP.part.hbond>
-2.0000

> <Gold.PLP.part.metal>
0.0000

> <Gold.PLP.part.buried>
-5.4145

> <Gold.PLP.part.nonpolar>
-29.9206

> <Gold.PLP.part.repulsive>
0.3050

> <Gold.PLP.ligand.clash>
0.0000

> <Gold.PLP.ligand.torsion>
0.4058

> <Gold.PLP.Chemscore.Hbond>
2.0000

> <Gold.PLP.Chemscore.CHOScore>
0.0000

> <Gold.PLP.Chemscore.Metal>
0.0000

> <Gold.Chemscore.Hbonds>
donor molecule, donor type, donor heavy atom, donor atom, acceptor molecule, acceptor atom, score
      P1  H  7997  8009       L1    13  0.86
      P1  H 10752 10764       L1     3  1.00

> <Gold.PLP.Chemscore.Internal.Correction>
0.0222

> <Gold.Rescore>
     Score         DG    S(hbond)    S(metal)    S(lipo)     H(rot)  DE(clash)    DE(int)     intcor
     17.24     -19.39       1.94        0.00      95.01       1.44       0.11       2.05       ----

> <Gold.Chemscore.Fitness>
17.2435

> <Gold.Chemscore.DG>
-19.3947

> <Gold.Chemscore.ZeroCoef>
-5.4800

> <Gold.Chemscore.Hbond>
1.9432

> <Gold.Chemscore.Metal>
0.0000

> <Gold.Chemscore.Lipo>
95.0058

> <Gold.Chemscore.Internal_Hbond>
0.0000

> <Gold.Chemscore.DEClash>
0.1055

> <Gold.Chemscore.DEInternal>
2.0456

> <Gold.Chemscore.Rot>
1.4419

> <Gold.Chemscore.Internal.Correction>
   9.000000E+99

> <Gold.Chemscore.Hbonds>
donor molecule, donor type, donor heavy atom, donor atom, acceptor molecule, acceptor atom, score
      P1  H  7997  8009       L1    13  0.83
      P1  H 10752 10764       L1     3  0.90

> <Gold.Chemscore.Hbond.Weighted>
-6.4903

> <Gold.Chemscore.Metal.Weighted>
-0.0000

> <Gold.Chemscore.Lipo.Weighted>
-11.1157

> <Gold.Chemscore.Internal_Hbond.Weighted>
0.0000

> <Gold.Chemscore.DEClash.Weighted>
0.1055

> <Gold.Chemscore.DEInternal.Weighted>
2.0456

> <Gold.Chemscore.Rot.Weighted>
3.6913

> <Gold.Chemscore.Internal.Correction.Weighted>
   9.000000E+99

> <Gold.Protein.RotatedTorsions>
[ 6907 6896 6895 6894 ] final   86.74 input  -60.11 | X-H torsion
[ 7974 7965 7964 7962 ] final   63.53 input  175.53 | X-H torsion
[ 8008 7997 7996 7995 ] final -168.49 input   59.86 | X-H torsion
[ 10167 10162 10161 10158 ] final  -96.19 input  -65.29 | X-H torsion
[ 10718 10713 10712 10709 ] final  131.82 input   66.30 | X-H torsion
[ 10763 10752 10751 10750 ] final  -63.87 input  -60.55 | X-H torsion
[ 11005 11000 10999 10996 ] final   39.71 input  -57.11 | X-H torsion

> <Gold.Protein.ActiveResidues>
 VAL166  LYS551  ARG553  GLY616  TRP617  ASP618  TYR619  PRO620  LYS621  CYS622 
 ASP623  PHE694  ASN695  SER759  ASP760  ASP761  ALA762  ILE779  LEU786  VAL792 
 PHE793  MET794  SER795  GLU796  ALA797  LYS798  CYS799  TRP800  GLU811  SER814 

> <Gold.Protein.RotatedAtoms>
  152.5399  134.2385  159.8852 H   0  0  0  0  0  0  0  0  0  0  0  0  # atno 6907 bound_to 6896
  151.2353  133.4421  159.2613 H   0  0  0  0  0  0  0  0  0  0  0  0  # atno 6908 bound_to 6896
  151.0677  134.9791  159.8349 H   0  0  0  0  0  0  0  0  0  0  0  0  # atno 6909 bound_to 6896
  145.8607  139.3313  143.0820 H   0  0  0  0  0  0  0  0  0  0  0  0  # atno 7974 bound_to 7965
  155.8921  140.1026  157.1411 H   0  0  0  0  0  0  0  0  0  0  0  0  # atno 8008 bound_to 7997
  154.4016  140.1308  156.4393 H   0  0  0  0  0  0  0  0  0  0  0  0  # atno 8009 bound_to 7997
  155.7521  140.3465  155.5158 H   0  0  0  0  0  0  0  0  0  0  0  0  # atno 8010 bound_to 7997
  140.2964  143.3189  152.0293 H   0  0  0  0  0  0  0  0  0  0  0  0  # atno 10167 bound_to 10162
  157.4931  131.1091  150.9530 H   0  0  0  0  0  0  0  0  0  0  0  0  # atno 10718 bound_to 10713
  154.3216  135.6195  153.5510 H   0  0  0  0  0  0  0  0  0  0  0  0  # atno 10763 bound_to 10752
  152.9819  135.5725  154.5064 H   0  0  0  0  0  0  0  0  0  0  0  0  # atno 10764 bound_to 10752
  154.4733  135.2860  155.1603 H   0  0  0  0  0  0  0  0  0  0  0  0  # atno 10765 bound_to 10752
  140.2001  134.3881  155.8101 H   0  0  0  0  0  0  0  0  0  0  0  0  # atno 11005 bound_to 11000
  145.9251  140.9088  143.0385 LP  0  0  0  0  0  0  0  0  0  0  0  0  # atno 17320 bound_to 7965
  144.6726  140.1342  143.7441 LP  0  0  0  0  0  0  0  0  0  0  0  0  # atno 17321 bound_to 7965
  139.4925  144.6488  151.6721 LP  0  0  0  0  0  0  0  0  0  0  0  0  # atno 17342 bound_to 10162
  140.5688  144.0143  150.6206 LP  0  0  0  0  0  0  0  0  0  0  0  0  # atno 17343 bound_to 10162
  157.0225  130.5679  149.5333 LP  0  0  0  0  0  0  0  0  0  0  0  0  # atno 17370 bound_to 10713
  156.0185  130.5279  150.8205 LP  0  0  0  0  0  0  0  0  0  0  0  0  # atno 17371 bound_to 10713
  141.2227  133.7089  156.8243 LP  0  0  0  0  0  0  0  0  0  0  0  0  # atno 17394 bound_to 11000
  140.2064  134.8860  157.3226 LP  0  0  0  0  0  0  0  0  0  0  0  0  # atno 17395 bound_to 11000

$$$$
