AV-unprocessed.smi:47|AV-procd|sdf|437|dock2
  -GOLD-   2262016303D 1   1.00000     0.00000
 Structure written by MMmdl.
 31 33  0  0  0  0  0  0  0  0  1 V2000
  145.9187  139.2801  153.8258 O   0  0  0  0  0  0  0  0  0  0  0  0
  147.2560  139.5839  153.4910 C   0  0  1  0  0  0  0  0  0  0  0  0
  147.4996  141.0849  153.3631 C   0  0  0  0  0  0  0  0  0  0  0  0
  148.9319  141.2747  153.5822 N   0  0  0  0  0  0  0  0  0  0  0  0
  149.4542  140.0839  154.2654 C   0  0  1  0  0  0  0  0  0  0  0  0
  150.2714  140.3936  155.4815 C   0  0  0  0  0  0  0  0  0  0  0  0
  150.8852  139.4237  156.1516 N   0  0  0  0  0  0  0  0  0  0  0  0
  151.4565  140.1062  157.1650 N   0  0  0  0  0  0  0  0  0  0  0  0
  151.1586  141.4087  157.0757 C   0  0  0  0  0  0  0  0  0  0  0  0
  151.6154  142.4352  158.0151 C   0  0  0  0  0  0  0  0  0  0  0  0
  151.4682  143.8070  157.7047 C   0  0  0  0  0  0  0  0  0  0  0  0
  151.9075  144.7949  158.6075 C   0  0  0  0  0  0  0  0  0  0  0  0
  152.5001  144.4220  159.8283 C   0  0  0  0  0  0  0  0  0  0  0  0
  152.6529  143.0594  160.1458 C   0  0  0  0  0  0  0  0  0  0  0  0
  152.2128  142.0707  159.2443 C   0  0  0  0  0  0  0  0  0  0  0  0
  150.3872  141.6473  156.0149 N   0  0  0  0  0  0  0  0  0  0  0  0
  148.2441  139.1945  154.5804 C   0  0  0  0  0  0  0  0  0  0  0  0
  147.5174  139.0839  152.5572 H   0  0  0  0  0  0  0  0  0  0  0  0
  150.0887  139.5460  153.5593 H   0  0  0  0  0  0  0  0  0  0  0  0
  152.0166  139.6600  157.8771 H   0  0  0  0  0  0  0  0  0  0  0  0
  145.3475  139.7578  153.2439 H   0  0  0  0  0  0  0  0  0  0  0  0
  147.1786  141.4823  152.3998 H   0  0  0  0  0  0  0  0  0  0  0  0
  146.9458  141.6143  154.1398 H   0  0  0  0  0  0  0  0  0  0  0  0
  149.3889  141.3515  152.6795 H   0  0  0  0  0  0  0  0  0  0  0  0
  151.0157  144.1160  156.7741 H   0  0  0  0  0  0  0  0  0  0  0  0
  151.7893  145.8402  158.3627 H   0  0  0  0  0  0  0  0  0  0  0  0
  152.8369  145.1797  160.5205 H   0  0  0  0  0  0  0  0  0  0  0  0
  153.1084  142.7712  161.0815 H   0  0  0  0  0  0  0  0  0  0  0  0
  152.3402  141.0307  159.5072 H   0  0  0  0  0  0  0  0  0  0  0  0
  147.8304  139.4563  155.5563 H   0  0  0  0  0  0  0  0  0  0  0  0
  148.4858  138.1313  154.5928 H   0  0  0  0  0  0  0  0  0  0  0  0
  1  2  1  0  0  0  0
  1 21  1  0  0  0  0
  2 18  1  0  0  0  0
  2 17  1  0  0  0  0
  2  3  1  0  0  0  0
  3  4  1  0  0  0  0
  3 22  1  0  0  0  0
  3 23  1  0  0  0  0
  4  5  1  0  0  0  0
  4 24  1  0  0  0  0
  5 19  1  0  0  0  0
  5  6  1  0  0  0  0
  5 17  1  0  0  0  0
  6 16  1  0  0  0  0
  6  7  2  0  0  0  0
  7  8  1  0  0  0  0
  8 20  1  0  0  0  0
  8  9  1  0  0  0  0
  9 10  1  0  0  0  0
  9 16  2  0  0  0  0
 10 15  1  0  0  0  0
 10 11  2  0  0  0  0
 11 12  1  0  0  0  0
 11 25  1  0  0  0  0
 12 13  2  0  0  0  0
 12 26  1  0  0  0  0
 13 14  1  0  0  0  0
 13 27  1  0  0  0  0
 14 15  2  0  0  0  0
 14 28  1  0  0  0  0
 15 29  1  0  0  0  0
 17 30  1  0  0  0  0
 17 31  1  0  0  0  0
M  END
> <s_m_source_file>
AV-unprocessed.smi

> <i_m_source_file_index>
47

> <i_lp_mmshare_version>
43012

> <i_f3d_flags>
0

> <s_epik_input>
W09IXVtDQEhdMVtDSDJdW05IXVtDQEBIXShbQ0gyXTEpYzJuW25IXWMobjIpLWMzW2NIXVtjSF1bY0hdW2NIXVtjSF0z

> <s_epik_cmdline>
J2VwaWtfcHl0aG9uJywgJy1waCcsICc3LjAnLCAnLXRuJywgJzgnLCAnLW1hJywgJzIwMCcsICctbWV0YWxfYmluZGluZycsICctaW1hZScsICc8aW5maWxlLm1hZT4nLCAnLW9tYWUnLCAnPG91dGZpbGUubWFlPic=

> <r_epik_Ionization_Penalty>
1.65981

> <r_epik_Ionization_Penalty_Charging>
0

> <r_epik_Ionization_Penalty_Neutral>
1.65981

> <r_epik_State_Penalty>
2.0492

> <r_epik_Charging_Adjusted_Penalty>
2.0492

> <i_epik_Tot_Q>
0

> <i_epik_Tot_abs_Q>
0

> <r_epik_Metal_State_Penalty>
2.54641

> <b_epik_Metal_Only>
0

> <s_lp_Force_Field>
OPLS_2005

> <r_lp_Energy>
26.3826

> <b_lp_Chiralities_Consistent>
1

> <s_lp_Variant>
AV-unprocessed.smi:47-15

> <Gold.Version>
5.8.1

> <Gold.Id.Protein>
6NUR|6NUR_protein|mol2

> <Gold.PLP.Fitness>
41.9813

> <Gold.PLP.PLP>
-37.2253

> <Gold.PLP.part.hbond>
-3.4921

> <Gold.PLP.part.metal>
0.0000

> <Gold.PLP.part.buried>
-4.4111

> <Gold.PLP.part.nonpolar>
-29.8606

> <Gold.PLP.part.repulsive>
0.1605

> <Gold.PLP.ligand.clash>
0.0000

> <Gold.PLP.ligand.torsion>
0.1368

> <Gold.PLP.Chemscore.Hbond>
1.6720

> <Gold.PLP.Chemscore.CHOScore>
0.0000

> <Gold.PLP.Chemscore.Metal>
0.0000

> <Gold.Chemscore.Hbonds>
donor molecule, donor type, donor heavy atom, donor atom, acceptor molecule, acceptor atom, score
      L1  H     1    21       P1 10175  1.00
      L1  H     4    24       P1  7957  0.67

> <Gold.PLP.Chemscore.Internal.Correction>
0.0138

> <Gold.Rescore>
     Score         DG    S(hbond)    S(metal)    S(lipo)     H(rot)  DE(clash)    DE(int)     intcor
     19.21     -19.32       1.96        0.00      94.63       1.48       0.02       0.09       ----

> <Gold.Chemscore.Fitness>
19.2076

> <Gold.Chemscore.DG>
-19.3184

> <Gold.Chemscore.ZeroCoef>
-5.4800

> <Gold.Chemscore.Hbond>
1.9616

> <Gold.Chemscore.Metal>
0.0000

> <Gold.Chemscore.Lipo>
94.6333

> <Gold.Chemscore.Internal_Hbond>
0.0000

> <Gold.Chemscore.DEClash>
0.0206

> <Gold.Chemscore.DEInternal>
0.0902

> <Gold.Chemscore.Rot>
1.4786

> <Gold.Chemscore.Internal.Correction>
   9.000000E+99

> <Gold.Chemscore.Hbonds>
donor molecule, donor type, donor heavy atom, donor atom, acceptor molecule, acceptor atom, score
      L1  H     1    21       P1 10175  0.98
      L1  H     4    24       P1  7957  0.63

> <Gold.Chemscore.Hbond.Weighted>
-6.5516

> <Gold.Chemscore.Metal.Weighted>
-0.0000

> <Gold.Chemscore.Lipo.Weighted>
-11.0721

> <Gold.Chemscore.Internal_Hbond.Weighted>
0.0000

> <Gold.Chemscore.DEClash.Weighted>
0.0206

> <Gold.Chemscore.DEInternal.Weighted>
0.0902

> <Gold.Chemscore.Rot.Weighted>
3.7853

> <Gold.Chemscore.Internal.Correction.Weighted>
   9.000000E+99

> <Gold.Protein.RotatedTorsions>
[ 6907 6896 6895 6894 ] final  -16.73 input  -60.11 | X-H torsion
[ 7974 7965 7964 7962 ] final  -46.06 input  175.53 | X-H torsion
[ 8008 7997 7996 7995 ] final  -51.78 input   59.86 | X-H torsion
[ 10167 10162 10161 10158 ] final   81.76 input  -65.29 | X-H torsion
[ 10718 10713 10712 10709 ] final  -82.51 input   66.30 | X-H torsion
[ 10763 10752 10751 10750 ] final -148.90 input  -60.55 | X-H torsion
[ 11005 11000 10999 10996 ] final -170.54 input  -57.11 | X-H torsion

> <Gold.Protein.ActiveResidues>
 VAL166  LYS551  ARG553  GLY616  TRP617  ASP618  TYR619  PRO620  LYS621  CYS622 
 ASP623  PHE694  ASN695  SER759  ASP760  ASP761  ALA762  ILE779  LEU786  VAL792 
 PHE793  MET794  SER795  GLU796  ALA797  LYS798  CYS799  TRP800  GLU811  SER814 

> <Gold.Protein.RotatedAtoms>
  151.3041  135.0777  159.9248 H   0  0  0  0  0  0  0  0  0  0  0  0  # atno 6907 bound_to 6896
  152.5291  133.9803  159.7813 H   0  0  0  0  0  0  0  0  0  0  0  0  # atno 6908 bound_to 6896
  151.0094  133.5928  159.2715 H   0  0  0  0  0  0  0  0  0  0  0  0  # atno 6909 bound_to 6896
  145.9757  140.7336  142.9388 H   0  0  0  0  0  0  0  0  0  0  0  0  # atno 7974 bound_to 7965
  154.4091  140.1239  156.4885 H   0  0  0  0  0  0  0  0  0  0  0  0  # atno 8008 bound_to 7997
  155.7014  140.3494  155.4915 H   0  0  0  0  0  0  0  0  0  0  0  0  # atno 8009 bound_to 7997
  155.9382  140.1082  157.1067 H   0  0  0  0  0  0  0  0  0  0  0  0  # atno 8010 bound_to 7997
  139.9358  144.6122  150.8300 H   0  0  0  0  0  0  0  0  0  0  0  0  # atno 10167 bound_to 10162
  156.0032  130.4636  150.4116 H   0  0  0  0  0  0  0  0  0  0  0  0  # atno 10718 bound_to 10713
  154.8207  135.3322  154.7046 H   0  0  0  0  0  0  0  0  0  0  0  0  # atno 10763 bound_to 10752
  153.7679  135.6928  153.4916 H   0  0  0  0  0  0  0  0  0  0  0  0  # atno 10764 bound_to 10752
  153.2065  135.4497  155.0277 H   0  0  0  0  0  0  0  0  0  0  0  0  # atno 10765 bound_to 10752
  140.5183  134.5734  157.5040 H   0  0  0  0  0  0  0  0  0  0  0  0  # atno 11005 bound_to 11000
  144.6848  140.2824  143.7290 LP  0  0  0  0  0  0  0  0  0  0  0  0  # atno 17320 bound_to 7965
  145.7842  139.1902  143.2140 LP  0  0  0  0  0  0  0  0  0  0  0  0  # atno 17321 bound_to 7965
  140.7625  143.3199  151.2646 LP  0  0  0  0  0  0  0  0  0  0  0  0  # atno 17342 bound_to 10162
  139.6745  143.9963  152.2772 LP  0  0  0  0  0  0  0  0  0  0  0  0  # atno 17343 bound_to 10162
  157.2179  131.0475  151.2563 LP  0  0  0  0  0  0  0  0  0  0  0  0  # atno 17370 bound_to 10713
  157.3828  130.7240  149.6642 LP  0  0  0  0  0  0  0  0  0  0  0  0  # atno 17371 bound_to 10713
  139.9620  134.7436  156.0217 LP  0  0  0  0  0  0  0  0  0  0  0  0  # atno 17394 bound_to 11000
  141.1348  133.6577  156.3563 LP  0  0  0  0  0  0  0  0  0  0  0  0  # atno 17395 bound_to 11000

$$$$
