AV-unprocessed.smi:1720|AV-procd|sdf|6933|dock8
  -GOLD-   22720 8143D 1   1.00000     0.00000
 Structure written by MMmdl.
 32 33  0  0  0  0  0  0  0  0  1 V2000
  151.8136  141.0044  158.1100 C   0  0  0  0  0  0  0  0  0  0  0  0
  150.9124  142.2278  158.3321 C   0  0  2  0  0  0  0  0  0  0  0  0
  150.1446  142.4735  157.1122 N   0  0  0  0  0  0  0  0  0  0  0  0
  149.4112  141.5676  156.4491 C   0  0  0  0  0  0  0  0  0  0  0  0
  149.2877  140.3950  156.8030 O   0  0  0  0  0  0  0  0  0  0  0  0
  148.8339  142.1101  155.3648 N   0  0  0  0  0  0  0  0  0  0  0  0
  147.9893  141.4657  154.4259 C   0  0  0  0  0  0  0  0  0  0  0  0
  148.4345  140.5617  153.4235 C   0  0  0  0  0  0  0  0  0  0  0  0
  147.4241  140.1157  152.6910 N   0  0  0  0  0  0  0  0  0  0  0  0
  146.3377  140.7249  153.2175 N   0  0  0  0  0  0  0  0  0  0  0  0
  146.6337  141.5550  154.2761 C   0  0  0  0  0  0  0  0  0  0  0  0
  151.7269  143.4795  158.7197 C   0  0  1  0  0  0  0  0  0  0  0  0
  150.9611  144.8024  158.6364 C   0  0  0  0  0  0  0  0  0  0  0  0
  151.7365  145.6671  159.6027 C   0  0  0  0  0  0  0  0  0  0  0  0
  152.0637  144.6711  160.7104 C   0  0  0  0  0  0  0  0  0  0  0  0
  152.1538  143.3969  160.0783 O   0  0  0  0  0  0  0  0  0  0  0  0
  145.4113  140.5665  152.8471 H   0  0  0  0  0  0  0  0  0  0  0  0
  152.3703  140.7562  159.0141 H   0  0  0  0  0  0  0  0  0  0  0  0
  152.5364  141.1812  157.3126 H   0  0  0  0  0  0  0  0  0  0  0  0
  151.2249  140.1274  157.8386 H   0  0  0  0  0  0  0  0  0  0  0  0
  150.2363  141.9899  159.1553 H   0  0  0  0  0  0  0  0  0  0  0  0
  150.1805  143.4120  156.7418 H   0  0  0  0  0  0  0  0  0  0  0  0
  149.0145  143.0886  155.1944 H   0  0  0  0  0  0  0  0  0  0  0  0
  149.4367  140.2220  153.2068 H   0  0  0  0  0  0  0  0  0  0  0  0
  145.8738  142.1116  154.8043 H   0  0  0  0  0  0  0  0  0  0  0  0
  152.6216  143.5517  158.0984 H   0  0  0  0  0  0  0  0  0  0  0  0
  150.9276  145.2136  157.6271 H   0  0  0  0  0  0  0  0  0  0  0  0
  149.9363  144.6782  158.9898 H   0  0  0  0  0  0  0  0  0  0  0  0
  152.6538  146.0242  159.1324 H   0  0  0  0  0  0  0  0  0  0  0  0
  151.1731  146.5306  159.9575 H   0  0  0  0  0  0  0  0  0  0  0  0
  152.9849  144.9219  161.2363 H   0  0  0  0  0  0  0  0  0  0  0  0
  151.2556  144.6363  161.4419 H   0  0  0  0  0  0  0  0  0  0  0  0
  1  2  1  0  0  0  0
  1 18  1  0  0  0  0
  1 19  1  0  0  0  0
  1 20  1  0  0  0  0
  2  3  1  0  0  0  0
  2 12  1  0  0  0  0
  2 21  1  0  0  0  0
  3  4  1  0  0  0  0
  3 22  1  0  0  0  0
  4  5  2  0  0  0  0
  4  6  1  0  0  0  0
  6  7  1  0  0  0  0
  6 23  1  0  0  0  0
  7 11  2  0  0  0  0
  7  8  1  0  0  0  0
  8  9  2  0  0  0  0
  8 24  1  0  0  0  0
  9 10  1  0  0  0  0
 10 17  1  0  0  0  0
 10 11  1  0  0  0  0
 11 25  1  0  0  0  0
 12 16  1  0  0  0  0
 12 13  1  0  0  0  0
 12 26  1  0  0  0  0
 13 14  1  0  0  0  0
 13 27  1  0  0  0  0
 13 28  1  0  0  0  0
 14 15  1  0  0  0  0
 14 29  1  0  0  0  0
 14 30  1  0  0  0  0
 15 16  1  0  0  0  0
 15 31  1  0  0  0  0
 15 32  1  0  0  0  0
M  END
> <s_m_source_file>
AV-unprocessed.smi

> <i_m_source_file_index>
1720

> <i_lp_mmshare_version>
43012

> <i_f3d_flags>
0

> <s_epik_input>
TzFbQ0gyXVtDSDJdW0NIMl1bQ0BIXTFbQ0BIXShbQ0gzXSlbTkhdQyg9TylbTkhdYzJbY0hdbltuSF1bY0hdMg==

> <s_epik_cmdline>
J2VwaWtfcHl0aG9uJywgJy1waCcsICc3LjAnLCAnLXRuJywgJzgnLCAnLW1hJywgJzIwMCcsICctbWV0YWxfYmluZGluZycsICctaW1hZScsICc8aW5maWxlLm1hZT4nLCAnLW9tYWUnLCAnPG91dGZpbGUubWFlPic=

> <r_lp_tautomer_probability>
1

> <r_epik_Ionization_Penalty>
4.95841e-05

> <r_epik_Ionization_Penalty_Charging>
0

> <r_epik_Ionization_Penalty_Neutral>
4.95841e-05

> <r_epik_State_Penalty>
-0

> <r_epik_Charging_Adjusted_Penalty>
0

> <i_epik_Tot_Q>
0

> <i_epik_Tot_abs_Q>
0

> <r_epik_Metal_State_Penalty>
-0

> <b_epik_Metal_Only>
0

> <s_lp_Force_Field>
OPLS_2005

> <r_lp_Energy>
20.0516

> <b_lp_Chiralities_Consistent>
1

> <s_lp_Variant>
AV-unprocessed.smi:1720-3

> <Gold.Version>
5.8.1

> <Gold.Id.Protein>
6NUR|6NUR_protein|mol2

> <Gold.PLP.Fitness>
38.3846

> <Gold.PLP.PLP>
-29.7016

> <Gold.PLP.part.hbond>
-2.8858

> <Gold.PLP.part.metal>
0.0000

> <Gold.PLP.part.buried>
-3.1696

> <Gold.PLP.part.nonpolar>
-24.5933

> <Gold.PLP.part.repulsive>
0.4235

> <Gold.PLP.ligand.clash>
0.0000

> <Gold.PLP.ligand.torsion>
0.9847

> <Gold.PLP.Chemscore.Hbond>
2.7047

> <Gold.PLP.Chemscore.CHOScore>
0.8430

> <Gold.PLP.Chemscore.Metal>
0.0000

> <Gold.Chemscore.Hbonds>
donor molecule, donor type, donor heavy atom, donor atom, acceptor molecule, acceptor atom, score
      L1  H     3    22       P1  8028  0.57
      L1  H     6    23       P1  8028  1.00
      L1  H    10    17       P1 10175  1.00
      L1  C     8    24       P1  7957  0.56

> <Gold.PLP.Chemscore.Internal.Correction>
0.0095

> <Gold.Rescore>
     Score         DG    S(hbond)    S(metal)    S(lipo)     H(rot)  DE(clash)    DE(int)     intcor
     17.72     -20.52       2.75        0.00      78.49       1.31       0.31       2.49       ----

> <Gold.Chemscore.Fitness>
17.7172

> <Gold.Chemscore.DG>
-20.5163

> <Gold.Chemscore.ZeroCoef>
-5.4800

> <Gold.Chemscore.Hbond>
2.7550

> <Gold.Chemscore.Metal>
0.0000

> <Gold.Chemscore.Lipo>
78.4869

> <Gold.Chemscore.Internal_Hbond>
0.0000

> <Gold.Chemscore.DEClash>
0.3095

> <Gold.Chemscore.DEInternal>
2.4896

> <Gold.Chemscore.Rot>
1.3079

> <Gold.Chemscore.Internal.Correction>
   9.000000E+99

> <Gold.Chemscore.Hbonds>
donor molecule, donor type, donor heavy atom, donor atom, acceptor molecule, acceptor atom, score
      L1  H     3    22       P1  8028  0.57
      L1  H     6    23       P1  8028  0.95
      L1  H    10    17       P1 10175  0.74

> <Gold.Chemscore.Hbond.Weighted>
-9.2017

> <Gold.Chemscore.Metal.Weighted>
-0.0000

> <Gold.Chemscore.Lipo.Weighted>
-9.1830

> <Gold.Chemscore.Internal_Hbond.Weighted>
0.0000

> <Gold.Chemscore.DEClash.Weighted>
0.3095

> <Gold.Chemscore.DEInternal.Weighted>
2.4896

> <Gold.Chemscore.Rot.Weighted>
3.3483

> <Gold.Chemscore.Internal.Correction.Weighted>
   9.000000E+99

> <Gold.Protein.RotatedTorsions>
[ 6907 6896 6895 6894 ] final   47.18 input  -60.11 | X-H torsion
[ 7974 7965 7964 7962 ] final  179.98 input  175.53 | X-H torsion
[ 8008 7997 7996 7995 ] final  146.99 input   59.86 | X-H torsion
[ 10167 10162 10161 10158 ] final  132.30 input  -65.29 | X-H torsion
[ 10718 10713 10712 10709 ] final -110.73 input   66.30 | X-H torsion
[ 10763 10752 10751 10750 ] final  -43.17 input  -60.55 | X-H torsion
[ 11005 11000 10999 10996 ] final  -19.41 input  -57.11 | X-H torsion

> <Gold.Protein.ActiveResidues>
 VAL166  LYS551  ARG553  GLY616  TRP617  ASP618  TYR619  PRO620  LYS621  CYS622 
 ASP623  PHE694  ASN695  SER759  ASP760  ASP761  ALA762  ILE779  LEU786  VAL792 
 PHE793  MET794  SER795  GLU796  ALA797  LYS798  CYS799  TRP800  GLU811  SER814 

> <Gold.Protein.RotatedAtoms>
  152.2650  134.7993  160.0423 H   0  0  0  0  0  0  0  0  0  0  0  0  # atno 6907 bound_to 6896
  151.8626  133.3455  159.3717 H   0  0  0  0  0  0  0  0  0  0  0  0  # atno 6908 bound_to 6896
  150.7130  134.5119  159.5655 H   0  0  0  0  0  0  0  0  0  0  0  0  # atno 6909 bound_to 6896
  144.7141  140.0629  143.6432 H   0  0  0  0  0  0  0  0  0  0  0  0  # atno 7974 bound_to 7965
  156.2839  140.2167  156.5465 H   0  0  0  0  0  0  0  0  0  0  0  0  # atno 8008 bound_to 7997
  154.7326  140.0494  157.0762 H   0  0  0  0  0  0  0  0  0  0  0  0  # atno 8009 bound_to 7997
  155.0334  140.3137  155.4753 H   0  0  0  0  0  0  0  0  0  0  0  0  # atno 8010 bound_to 7997
  139.5345  144.6668  151.4832 H   0  0  0  0  0  0  0  0  0  0  0  0  # atno 10167 bound_to 10162
  156.0607  130.5830  150.8276 H   0  0  0  0  0  0  0  0  0  0  0  0  # atno 10718 bound_to 10713
  153.9911  135.6705  153.4754 H   0  0  0  0  0  0  0  0  0  0  0  0  # atno 10763 bound_to 10752
  153.0704  135.4977  154.8289 H   0  0  0  0  0  0  0  0  0  0  0  0  # atno 10764 bound_to 10752
  154.7108  135.3097  154.9162 H   0  0  0  0  0  0  0  0  0  0  0  0  # atno 10765 bound_to 10752
  140.8364  133.7959  155.9813 H   0  0  0  0  0  0  0  0  0  0  0  0  # atno 11005 bound_to 11000
  145.9849  139.2969  143.1020 LP  0  0  0  0  0  0  0  0  0  0  0  0  # atno 17320 bound_to 7965
  145.8969  140.9268  143.0523 LP  0  0  0  0  0  0  0  0  0  0  0  0  # atno 17321 bound_to 7965
  140.6544  143.8630  150.6819 LP  0  0  0  0  0  0  0  0  0  0  0  0  # atno 17342 bound_to 10162
  140.2004  143.3963  152.1795 LP  0  0  0  0  0  0  0  0  0  0  0  0  # atno 17343 bound_to 10162
  157.5613  131.0946  150.9555 LP  0  0  0  0  0  0  0  0  0  0  0  0  # atno 17370 bound_to 10713
  156.9792  130.5520  149.5295 LP  0  0  0  0  0  0  0  0  0  0  0  0  # atno 17371 bound_to 10713
  140.8943  134.2457  157.5077 LP  0  0  0  0  0  0  0  0  0  0  0  0  # atno 17394 bound_to 11000
  139.8704  134.9676  156.4603 LP  0  0  0  0  0  0  0  0  0  0  0  0  # atno 17395 bound_to 11000

$$$$
