AV-unprocessed.smi:1240|AV-procd|sdf|5206|dock5
  -GOLD-   22720 4293D 1   1.00000     0.00000
 Structure written by MMmdl.
 48 50  0  0  0  0  0  0  0  0  2 V2000
  144.8815  136.5663  153.7441 O   0  0  0  0  0  0  0  0  0  0  0  0
  145.9207  136.4227  153.1006 C   0  0  0  0  0  0  0  0  0  0  0  0
  147.0280  137.1468  153.3153 N   0  0  0  0  0  0  0  0  0  0  0  0
  147.1630  138.1894  154.3284 C   0  0  0  0  0  0  0  0  0  0  0  0
  148.4861  138.9961  154.1933 C   0  0  1  0  0  0  0  0  0  0  0  0
  148.2771  140.5277  154.3947 C   0  0  1  0  0  0  0  0  0  0  0  0
  147.4636  141.2892  153.3450 C   0  0  0  0  0  0  0  0  0  0  0  0
  146.5792  142.2267  154.1706 C   0  0  0  0  0  0  0  0  0  0  0  0
  147.1999  142.2752  155.4465 O   0  0  0  0  0  0  0  0  0  0  0  0
  147.6571  140.9630  155.7276 C   0  0  0  0  0  0  0  0  0  0  0  0
  149.6379  138.4248  154.9181 N   0  0  0  0  0  0  0  0  0  0  0  0
  149.6665  136.9663  155.0076 C   0  0  0  0  0  0  0  0  0  0  0  0
  150.8493  136.4698  155.8576 C   0  0  0  0  0  0  0  0  0  0  0  0
  152.0706  136.9885  155.3416 O   0  0  0  0  0  0  0  0  0  0  0  0
  152.0897  138.4117  155.3083 C   0  0  0  0  0  0  0  0  0  0  0  0
  150.9274  138.9166  154.4378 C   0  0  0  0  0  0  0  0  0  0  0  0
  146.1097  135.5219  152.1208 N   0  0  0  0  0  0  0  0  0  0  0  0
  145.1861  134.5765  151.5973 C   0  0  0  0  0  0  0  0  0  0  0  0
  145.6266  133.7481  150.5411 C   0  0  0  0  0  0  0  0  0  0  0  0
  144.7411  132.8054  149.9801 C   0  0  0  0  0  0  0  0  0  0  0  0
  143.4781  132.7082  150.4473 N   0  3  0  0  0  0  0  0  0  0  0  0
  143.0068  133.4874  151.4441 C   0  0  0  0  0  0  0  0  0  0  0  0
  143.8462  134.4481  152.0446 C   0  0  0  0  0  0  0  0  0  0  0  0
  147.8403  136.9618  152.7451 H   0  0  0  0  0  0  0  0  0  0  0  0
  146.2994  138.8471  154.2372 H   0  0  0  0  0  0  0  0  0  0  0  0
  147.0811  137.7236  155.3104 H   0  0  0  0  0  0  0  0  0  0  0  0
  148.7582  138.9216  153.1394 H   0  0  0  0  0  0  0  0  0  0  0  0
  149.2684  140.9834  154.3795 H   0  0  0  0  0  0  0  0  0  0  0  0
  148.1331  141.8600  152.7006 H   0  0  0  0  0  0  0  0  0  0  0  0
  146.8633  140.6538  152.6962 H   0  0  0  0  0  0  0  0  0  0  0  0
  146.4920  143.2199  153.7299 H   0  0  0  0  0  0  0  0  0  0  0  0
  145.5755  141.8125  154.2772 H   0  0  0  0  0  0  0  0  0  0  0  0
  146.8022  140.3498  156.0149 H   0  0  0  0  0  0  0  0  0  0  0  0
  148.3755  140.9544  156.5475 H   0  0  0  0  0  0  0  0  0  0  0  0
  148.7510  136.5959  155.4631 H   0  0  0  0  0  0  0  0  0  0  0  0
  149.7322  136.5288  154.0112 H   0  0  0  0  0  0  0  0  0  0  0  0
  150.7296  136.7760  156.8980 H   0  0  0  0  0  0  0  0  0  0  0  0
  150.8916  135.3807  155.8482 H   0  0  0  0  0  0  0  0  0  0  0  0
  152.0170  138.8095  156.3219 H   0  0  0  0  0  0  0  0  0  0  0  0
  153.0432  138.7461  154.8997 H   0  0  0  0  0  0  0  0  0  0  0  0
  151.1000  138.5913  153.4121 H   0  0  0  0  0  0  0  0  0  0  0  0
  150.9310  140.0071  154.4281 H   0  0  0  0  0  0  0  0  0  0  0  0
  147.0449  135.4685  151.7446 H   0  0  0  0  0  0  0  0  0  0  0  0
  146.6366  133.8266  150.1655 H   0  0  0  0  0  0  0  0  0  0  0  0
  145.0028  132.1324  149.1766 H   0  0  0  0  0  0  0  0  0  0  0  0
  141.9770  133.3248  151.7264 H   0  0  0  0  0  0  0  0  0  0  0  0
  143.4423  135.0734  152.8258 H   0  0  0  0  0  0  0  0  0  0  0  0
  142.8522  132.0206  150.0265 H   0  0  0  0  0  0  0  0  0  0  0  0
  1  2  2  0  0  0  0
  2  3  1  0  0  0  0
  2 17  1  0  0  0  0
  3  4  1  0  0  0  0
  3 24  1  0  0  0  0
  4  5  1  0  0  0  0
  4 25  1  0  0  0  0
  4 26  1  0  0  0  0
  5  6  1  0  0  0  0
  5 11  1  0  0  0  0
  5 27  1  0  0  0  0
  6 10  1  0  0  0  0
  6  7  1  0  0  0  0
  6 28  1  0  0  0  0
  7  8  1  0  0  0  0
  7 29  1  0  0  0  0
  7 30  1  0  0  0  0
  8  9  1  0  0  0  0
  8 31  1  0  0  0  0
  8 32  1  0  0  0  0
  9 10  1  0  0  0  0
 10 33  1  0  0  0  0
 10 34  1  0  0  0  0
 11 16  1  0  0  0  0
 11 12  1  0  0  0  0
 12 13  1  0  0  0  0
 12 35  1  0  0  0  0
 12 36  1  0  0  0  0
 13 14  1  0  0  0  0
 13 37  1  0  0  0  0
 13 38  1  0  0  0  0
 14 15  1  0  0  0  0
 15 16  1  0  0  0  0
 15 39  1  0  0  0  0
 15 40  1  0  0  0  0
 16 41  1  0  0  0  0
 16 42  1  0  0  0  0
 17 18  1  0  0  0  0
 17 43  1  0  0  0  0
 18 23  1  0  0  0  0
 18 19  2  0  0  0  0
 19 20  1  0  0  0  0
 19 44  1  0  0  0  0
 20 21  2  0  0  0  0
 20 45  1  0  0  0  0
 21 22  1  0  0  0  0
 21 48  1  0  0  0  0
 22 23  2  0  0  0  0
 22 46  1  0  0  0  0
 23 47  1  0  0  0  0
M  CHG  1  21   1
M  END
> <s_m_source_file>
AV-unprocessed.smi

> <i_m_source_file_index>
1240

> <i_lp_mmshare_version>
43012

> <i_f3d_flags>
0

> <s_epik_input>
W2NIXTFbY0hdbltjSF1bY0hdYzFbTkhdQyg9TylbTkhdW0NIMl1bQ0BIXShbQ0BASF0yW0NIMl1bQ0gyXU9bQ0gyXTIpTjNbQ0gyXVtDSDJdT1tDSDJdW0NIMl0z

> <s_epik_cmdline>
J2VwaWtfcHl0aG9uJywgJy1waCcsICc3LjAnLCAnLXRuJywgJzgnLCAnLW1hJywgJzIwMCcsICctbWV0YWxfYmluZGluZycsICctaW1hZScsICc8aW5maWxlLm1hZT4nLCAnLW9tYWUnLCAnPG91dGZpbGUubWFlPic=

> <r_epik_Ionization_Penalty>
1.15944

> <r_epik_Ionization_Penalty_Charging>
1.0344

> <r_epik_Ionization_Penalty_Neutral>
0.125034

> <r_epik_State_Penalty>
1.2199

> <r_epik_Charging_Adjusted_Penalty>
2.25431

> <i_epik_Tot_Q>
1

> <i_epik_Tot_abs_Q>
1

> <r_epik_Metal_State_Penalty>
1.3155

> <b_epik_Metal_Only>
0

> <s_lp_Force_Field>
OPLS_2005

> <r_lp_Energy>
63.7867

> <b_lp_Chiralities_Consistent>
1

> <s_lp_Variant>
AV-unprocessed.smi:1240-12

> <Gold.Version>
5.8.1

> <Gold.Id.Protein>
6NUR|6NUR_protein|mol2

> <Gold.PLP.Fitness>
41.4578

> <Gold.PLP.PLP>
-34.7309

> <Gold.PLP.part.hbond>
-3.0000

> <Gold.PLP.part.metal>
0.0000

> <Gold.PLP.part.buried>
-6.5089

> <Gold.PLP.part.nonpolar>
-26.1119

> <Gold.PLP.part.repulsive>
1.3692

> <Gold.PLP.ligand.clash>
0.0000

> <Gold.PLP.ligand.torsion>
0.9970

> <Gold.PLP.Chemscore.Hbond>
2.8080

> <Gold.PLP.Chemscore.CHOScore>
0.0000

> <Gold.PLP.Chemscore.Metal>
0.0000

> <Gold.Chemscore.Hbonds>
donor molecule, donor type, donor heavy atom, donor atom, acceptor molecule, acceptor atom, score
      L1  H     3    24       P1  7948  1.00
      L1  H    17    43       P1  7948  0.93
      P1  H 10752 10765       L1    14  0.96

> <Gold.PLP.Chemscore.Internal.Correction>
0.2968

> <Gold.Rescore>
     Score         DG    S(hbond)    S(metal)    S(lipo)     H(rot)  DE(clash)    DE(int)     intcor
     17.77     -20.51       2.81        0.00      85.13       1.69       0.10       2.63       ----

> <Gold.Chemscore.Fitness>
17.7731

> <Gold.Chemscore.DG>
-20.5096

> <Gold.Chemscore.ZeroCoef>
-5.4800

> <Gold.Chemscore.Hbond>
2.8139

> <Gold.Chemscore.Metal>
0.0000

> <Gold.Chemscore.Lipo>
85.1329

> <Gold.Chemscore.Internal_Hbond>
0.0000

> <Gold.Chemscore.DEClash>
0.1034

> <Gold.Chemscore.DEInternal>
2.6331

> <Gold.Chemscore.Rot>
1.6912

> <Gold.Chemscore.Internal.Correction>
   9.000000E+99

> <Gold.Chemscore.Hbonds>
donor molecule, donor type, donor heavy atom, donor atom, acceptor molecule, acceptor atom, score
      L1  H     3    24       P1  7948  0.98
      L1  H    17    43       P1  7948  0.86
      P1  H 10752 10765       L1    14  0.51

> <Gold.Chemscore.Hbond.Weighted>
-9.3985

> <Gold.Chemscore.Metal.Weighted>
-0.0000

> <Gold.Chemscore.Lipo.Weighted>
-9.9606

> <Gold.Chemscore.Internal_Hbond.Weighted>
0.0000

> <Gold.Chemscore.DEClash.Weighted>
0.1034

> <Gold.Chemscore.DEInternal.Weighted>
2.6331

> <Gold.Chemscore.Rot.Weighted>
4.3295

> <Gold.Chemscore.Internal.Correction.Weighted>
   9.000000E+99

> <Gold.Protein.RotatedTorsions>
[ 6907 6896 6895 6894 ] final   72.02 input  -60.11 | X-H torsion
[ 7974 7965 7964 7962 ] final  154.62 input  175.53 | X-H torsion
[ 8008 7997 7996 7995 ] final  126.42 input   59.86 | X-H torsion
[ 10167 10162 10161 10158 ] final   -8.70 input  -65.29 | X-H torsion
[ 10718 10713 10712 10709 ] final  122.54 input   66.30 | X-H torsion
[ 10763 10752 10751 10750 ] final -168.86 input  -60.55 | X-H torsion
[ 11005 11000 10999 10996 ] final    0.37 input  -57.11 | X-H torsion

> <Gold.Protein.ActiveResidues>
 VAL166  LYS551  ARG553  GLY616  TRP617  ASP618  TYR619  PRO620  LYS621  CYS622 
 ASP623  PHE694  ASN695  SER759  ASP760  ASP761  ALA762  ILE779  LEU786  VAL792 
 PHE793  MET794  SER795  GLU796  ALA797  LYS798  CYS799  TRP800  GLU811  SER814 

> <Gold.Protein.RotatedAtoms>
  152.4844  134.4634  159.9612 H   0  0  0  0  0  0  0  0  0  0  0  0  # atno 6907 bound_to 6896
  151.4633  133.3581  159.2820 H   0  0  0  0  0  0  0  0  0  0  0  0  # atno 6908 bound_to 6896
  150.8942  134.8373  159.7375 H   0  0  0  0  0  0  0  0  0  0  0  0  # atno 6909 bound_to 6896
  144.8077  139.6959  143.6155 H   0  0  0  0  0  0  0  0  0  0  0  0  # atno 7974 bound_to 7965
  156.2863  140.2693  156.2107 H   0  0  0  0  0  0  0  0  0  0  0  0  # atno 8008 bound_to 7997
  155.0267  140.0386  157.2476 H   0  0  0  0  0  0  0  0  0  0  0  0  # atno 8009 bound_to 7997
  154.7389  140.2721  155.6395 H   0  0  0  0  0  0  0  0  0  0  0  0  # atno 8010 bound_to 7997
  140.7066  143.5939  150.8865 H   0  0  0  0  0  0  0  0  0  0  0  0  # atno 10167 bound_to 10162
  157.5735  131.1081  150.8323 H   0  0  0  0  0  0  0  0  0  0  0  0  # atno 10718 bound_to 10713
  154.6584  135.2921  154.9899 H   0  0  0  0  0  0  0  0  0  0  0  0  # atno 10763 bound_to 10752
  154.0967  135.6583  153.4865 H   0  0  0  0  0  0  0  0  0  0  0  0  # atno 10764 bound_to 10752
  153.0415  135.5233  154.7523 H   0  0  0  0  0  0  0  0  0  0  0  0  # atno 10765 bound_to 10752
  140.6273  133.9607  155.8256 H   0  0  0  0  0  0  0  0  0  0  0  0  # atno 11005 bound_to 11000
  146.2370  139.5926  142.9517 LP  0  0  0  0  0  0  0  0  0  0  0  0  # atno 17320 bound_to 7965
  145.5399  141.0421  143.2336 LP  0  0  0  0  0  0  0  0  0  0  0  0  # atno 17321 bound_to 7965
  139.9665  143.6105  152.2987 LP  0  0  0  0  0  0  0  0  0  0  0  0  # atno 17342 bound_to 10162
  139.6676  144.7662  151.1843 LP  0  0  0  0  0  0  0  0  0  0  0  0  # atno 17343 bound_to 10162
  156.8789  130.5172  149.5292 LP  0  0  0  0  0  0  0  0  0  0  0  0  # atno 17370 bound_to 10713
  156.0779  130.5797  150.9509 LP  0  0  0  0  0  0  0  0  0  0  0  0  # atno 17371 bound_to 10713
  141.0700  134.0219  157.3539 LP  0  0  0  0  0  0  0  0  0  0  0  0  # atno 17394 bound_to 11000
  139.9130  135.0193  156.7767 LP  0  0  0  0  0  0  0  0  0  0  0  0  # atno 17395 bound_to 11000

$$$$
