AV-unprocessed.smi:243|AV-procd|sdf|1858|dock3
  -GOLD-   2262020483D 1   1.00000     0.00000
 Structure written by MMmdl.
 58 61  0  0  0  0  0  0  0  0  2 V2000
  152.0950  144.3424  159.3110 C   0  0  0  0  0  0  0  0  0  0  0  0
  150.9756  144.6580  158.3081 C   0  0  0  0  0  0  0  0  0  0  0  0
  150.4018  143.4358  157.6897 N   0  3  2  0  0  0  0  0  0  0  0  0
  149.4975  142.7124  158.6198 C   0  0  0  0  0  0  0  0  0  0  0  0
  148.8160  141.5081  157.9416 C   0  0  0  0  0  0  0  0  0  0  0  0
  149.7795  140.5695  157.1849 C   0  0  2  0  0  0  0  0  0  0  0  0
  150.3870  139.5312  158.0374 N   0  0  0  0  0  0  0  0  0  0  0  0
  151.6015  139.7321  158.8255 C   0  0  0  0  0  0  0  0  0  0  0  0
  150.0245  138.2434  157.8013 C   0  0  0  0  0  0  0  0  0  0  0  0
  149.3267  137.5687  158.7533 N   0  0  0  0  0  0  0  0  0  0  0  0
  148.9756  136.2947  158.5571 C   0  0  0  0  0  0  0  0  0  0  0  0
  149.2117  135.5180  157.4985 N   0  0  0  0  0  0  0  0  0  0  0  0
  149.8963  136.1931  156.5314 C   0  0  0  0  0  0  0  0  0  0  0  0
  150.3377  137.5449  156.6000 C   0  0  0  0  0  0  0  0  0  0  0  0
  150.9941  137.8874  155.4234 N   0  0  0  0  0  0  0  0  0  0  0  0
  150.9548  136.7972  154.7072 C   0  0  0  0  0  0  0  0  0  0  0  0
  150.3087  135.7318  155.2931 N   0  0  0  0  0  0  0  0  0  0  0  0
  150.1239  134.4050  154.7242 C   0  0  0  0  0  0  0  0  0  0  0  0
  148.6448  134.0476  154.4449 C   0  0  1  0  0  0  0  0  0  0  0  0
  147.9976  135.1714  153.8722 O   0  0  0  0  0  0  0  0  0  0  0  0
  148.4925  132.8710  153.4879 C   0  0  0  0  0  0  0  0  0  0  0  0
  147.1772  132.2436  153.9296 C   0  0  0  0  0  0  0  0  0  0  0  0
  147.2375  132.3506  155.3414 O   0  0  0  0  0  0  0  0  0  0  0  0
  147.8392  133.5961  155.6820 C   0  0  0  0  0  0  0  0  0  0  0  0
  150.7759  141.3819  156.3211 C   0  0  2  0  0  0  0  0  0  0  0  0
  151.8016  140.5122  155.5742 C   0  0  0  0  0  0  0  0  0  0  0  0
  151.4309  142.5360  157.1048 C   0  0  0  0  0  0  0  0  0  0  0  0
  152.5572  145.2627  159.6690 H   0  0  0  0  0  0  0  0  0  0  0  0
  152.8779  143.7385  158.8508 H   0  0  0  0  0  0  0  0  0  0  0  0
  151.7260  143.8076  160.1855 H   0  0  0  0  0  0  0  0  0  0  0  0
  150.1866  145.2447  158.7811 H   0  0  0  0  0  0  0  0  0  0  0  0
  151.4020  145.2890  157.5271 H   0  0  0  0  0  0  0  0  0  0  0  0
  150.0445  142.4138  159.5113 H   0  0  0  0  0  0  0  0  0  0  0  0
  148.7204  143.3954  158.9658 H   0  0  0  0  0  0  0  0  0  0  0  0
  148.2258  140.9456  158.6662 H   0  0  0  0  0  0  0  0  0  0  0  0
  148.0980  141.9002  157.2202 H   0  0  0  0  0  0  0  0  0  0  0  0
  149.1581  140.0498  156.4562 H   0  0  0  0  0  0  0  0  0  0  0  0
  151.6722  138.9862  159.6185 H   0  0  0  0  0  0  0  0  0  0  0  0
  151.6225  140.7034  159.3083 H   0  0  0  0  0  0  0  0  0  0  0  0
  152.4898  139.6413  158.2004 H   0  0  0  0  0  0  0  0  0  0  0  0
  148.4280  135.8309  159.3644 H   0  0  0  0  0  0  0  0  0  0  0  0
  151.3957  136.7406  153.7225 H   0  0  0  0  0  0  0  0  0  0  0  0
  150.7067  134.3452  153.8040 H   0  0  0  0  0  0  0  0  0  0  0  0
  150.5616  133.6769  155.4084 H   0  0  0  0  0  0  0  0  0  0  0  0
  148.6020  135.5960  153.2823 H   0  0  0  0  0  0  0  0  0  0  0  0
  148.5011  133.1552  152.4346 H   0  0  0  0  0  0  0  0  0  0  0  0
  149.2968  132.1503  153.6424 H   0  0  0  0  0  0  0  0  0  0  0  0
  146.3245  132.8114  153.5537 H   0  0  0  0  0  0  0  0  0  0  0  0
  147.0731  131.2072  153.6079 H   0  0  0  0  0  0  0  0  0  0  0  0
  148.4692  133.4399  156.5567 H   0  0  0  0  0  0  0  0  0  0  0  0
  147.0693  134.3180  155.9593 H   0  0  0  0  0  0  0  0  0  0  0  0
  150.1753  141.8571  155.5435 H   0  0  0  0  0  0  0  0  0  0  0  0
  152.5137  140.0466  156.2551 H   0  0  0  0  0  0  0  0  0  0  0  0
  152.3732  141.1082  154.8622 H   0  0  0  0  0  0  0  0  0  0  0  0
  151.3079  139.7173  155.0143 H   0  0  0  0  0  0  0  0  0  0  0  0
  152.0640  143.0997  156.4207 H   0  0  0  0  0  0  0  0  0  0  0  0
  152.0878  142.1620  157.8894 H   0  0  0  0  0  0  0  0  0  0  0  0
  149.8213  143.7500  156.9250 H   0  0  0  0  0  0  0  0  0  0  0  0
  1  2  1  0  0  0  0
  1 28  1  0  0  0  0
  1 29  1  0  0  0  0
  1 30  1  0  0  0  0
  2  3  1  0  0  0  0
  2 31  1  0  0  0  0
  2 32  1  0  0  0  0
  3 27  1  0  0  0  0
  3  4  1  0  0  0  0
  3 58  1  0  0  0  0
  4  5  1  0  0  0  0
  4 33  1  0  0  0  0
  4 34  1  0  0  0  0
  5  6  1  0  0  0  0
  5 35  1  0  0  0  0
  5 36  1  0  0  0  0
  6  7  1  0  0  0  0
  6 25  1  0  0  0  0
  6 37  1  0  0  0  0
  7  8  1  0  0  0  0
  7  9  1  0  0  0  0
  8 38  1  0  0  0  0
  8 39  1  0  0  0  0
  8 40  1  0  0  0  0
  9 14  1  0  0  0  0
  9 10  2  0  0  0  0
 10 11  1  0  0  0  0
 11 12  2  0  0  0  0
 11 41  1  0  0  0  0
 12 13  1  0  0  0  0
 13 17  1  0  0  0  0
 13 14  2  0  0  0  0
 14 15  1  0  0  0  0
 15 16  2  0  0  0  0
 16 17  1  0  0  0  0
 16 42  1  0  0  0  0
 17 18  1  0  0  0  0
 18 19  1  0  0  0  0
 18 43  1  0  0  0  0
 18 44  1  0  0  0  0
 19 24  1  0  0  0  0
 19 20  1  0  0  0  0
 19 21  1  0  0  0  0
 20 45  1  0  0  0  0
 21 22  1  0  0  0  0
 21 46  1  0  0  0  0
 21 47  1  0  0  0  0
 22 23  1  0  0  0  0
 22 48  1  0  0  0  0
 22 49  1  0  0  0  0
 23 24  1  0  0  0  0
 24 50  1  0  0  0  0
 24 51  1  0  0  0  0
 25 26  1  0  0  0  0
 25 27  1  0  0  0  0
 25 52  1  0  0  0  0
 26 53  1  0  0  0  0
 26 54  1  0  0  0  0
 26 55  1  0  0  0  0
 27 56  1  0  0  0  0
 27 57  1  0  0  0  0
M  CHG  1   3   1
M  END
> <s_m_source_file>
AV-unprocessed.smi

> <i_m_source_file_index>
243

> <i_lp_mmshare_version>
43012

> <i_f3d_flags>
0

> <s_epik_input>
W0NIM11bQ0gyXU4xW0NIMl1bQ0gyXVtDQEhdKFtDQEBIXShbQ0gzXSlbQ0gyXTEpTihbQ0gzXSljKG5bY0hdbjIpYyhjMjMpbltjSF1uM1tDSDJdW0NAQF00KFtPSF0pW0NIMl1bQ0gyXU9bQ0gyXTQ=

> <s_epik_cmdline>
J2VwaWtfcHl0aG9uJywgJy1waCcsICc3LjAnLCAnLXRuJywgJzgnLCAnLW1hJywgJzIwMCcsICctbWV0YWxfYmluZGluZycsICctaW1hZScsICc8aW5maWxlLm1hZT4nLCAnLW9tYWUnLCAnPG91dGZpbGUubWFlPic=

> <r_lp_tautomer_probability>
1

> <r_epik_Ionization_Penalty>
0.00253099

> <r_epik_Ionization_Penalty_Charging>
0.00137877

> <r_epik_Ionization_Penalty_Neutral>
0.00115221

> <r_epik_State_Penalty>
-0

> <r_epik_Charging_Adjusted_Penalty>
0.00137877

> <i_epik_Tot_Q>
1

> <i_epik_Tot_abs_Q>
1

> <r_epik_Metal_State_Penalty>
-0

> <b_epik_Metal_Only>
0

> <s_lp_Force_Field>
OPLS_2005

> <r_lp_Energy>
51.0856

> <b_lp_Chiralities_Consistent>
1

> <s_lp_Variant>
AV-unprocessed.smi:243-11

> <Gold.Version>
5.8.1

> <Gold.Id.Protein>
6NUR|6NUR_protein|mol2

> <Gold.PLP.Fitness>
44.0959

> <Gold.PLP.PLP>
-35.6126

> <Gold.PLP.part.hbond>
-1.6499

> <Gold.PLP.part.metal>
0.0000

> <Gold.PLP.part.buried>
-5.3428

> <Gold.PLP.part.nonpolar>
-28.3882

> <Gold.PLP.part.repulsive>
0.1012

> <Gold.PLP.ligand.clash>
0.0000

> <Gold.PLP.ligand.torsion>
2.0198

> <Gold.PLP.Chemscore.Hbond>
3.0000

> <Gold.PLP.Chemscore.CHOScore>
1.0000

> <Gold.PLP.Chemscore.Metal>
0.0000

> <Gold.Chemscore.Hbonds>
donor molecule, donor type, donor heavy atom, donor atom, acceptor molecule, acceptor atom, score
      L1  H     3    58       P1  8028  2.00
      L1  H    20    45       P1  7948  1.00
      L1  C    16    42       P1  7949  1.00

> <Gold.PLP.Chemscore.Internal.Correction>
0.5229

> <Gold.Rescore>
     Score         DG    S(hbond)    S(metal)    S(lipo)     H(rot)  DE(clash)    DE(int)     intcor
     12.39     -16.21       1.94        0.00      85.21       2.24       0.24       3.57       ----

> <Gold.Chemscore.Fitness>
12.3927

> <Gold.Chemscore.DG>
-16.2053

> <Gold.Chemscore.ZeroCoef>
-5.4800

> <Gold.Chemscore.Hbond>
1.9416

> <Gold.Chemscore.Metal>
0.0000

> <Gold.Chemscore.Lipo>
85.2091

> <Gold.Chemscore.Internal_Hbond>
0.0000

> <Gold.Chemscore.DEClash>
0.2430

> <Gold.Chemscore.DEInternal>
3.5695

> <Gold.Chemscore.Rot>
2.2379

> <Gold.Chemscore.Internal.Correction>
   9.000000E+99

> <Gold.Chemscore.Hbonds>
donor molecule, donor type, donor heavy atom, donor atom, acceptor molecule, acceptor atom, score
      L1  H     3    58       P1  8028  0.98
      L1  H    20    45       P1  7948  0.92

> <Gold.Chemscore.Hbond.Weighted>
-6.4849

> <Gold.Chemscore.Metal.Weighted>
-0.0000

> <Gold.Chemscore.Lipo.Weighted>
-9.9695

> <Gold.Chemscore.Internal_Hbond.Weighted>
0.0000

> <Gold.Chemscore.DEClash.Weighted>
0.2430

> <Gold.Chemscore.DEInternal.Weighted>
3.5695

> <Gold.Chemscore.Rot.Weighted>
5.7291

> <Gold.Chemscore.Internal.Correction.Weighted>
   9.000000E+99

> <Gold.Protein.RotatedTorsions>
[ 6907 6896 6895 6894 ] final  126.28 input  -60.11 | X-H torsion
[ 7974 7965 7964 7962 ] final -114.54 input  175.53 | X-H torsion
[ 8008 7997 7996 7995 ] final  123.04 input   59.86 | X-H torsion
[ 10167 10162 10161 10158 ] final   34.08 input  -65.29 | X-H torsion
[ 10718 10713 10712 10709 ] final   86.04 input   66.30 | X-H torsion
[ 10763 10752 10751 10750 ] final  -46.45 input  -60.55 | X-H torsion
[ 11005 11000 10999 10996 ] final -136.02 input  -57.11 | X-H torsion

> <Gold.Protein.ActiveResidues>
 VAL166  LYS551  ARG553  GLY616  TRP617  ASP618  TYR619  PRO620  LYS621  CYS622 
 ASP623  PHE694  ASN695  SER759  ASP760  ASP761  ALA762  ILE779  LEU786  VAL792 
 PHE793  MET794  SER795  GLU796  ALA797  LYS798  CYS799  TRP800  GLU811  SER814 

> <Gold.Protein.RotatedAtoms>
  152.3918  133.6689  159.6243 H   0  0  0  0  0  0  0  0  0  0  0  0  # atno 6907 bound_to 6896
  150.7824  133.8942  159.3331 H   0  0  0  0  0  0  0  0  0  0  0  0  # atno 6908 bound_to 6896
  151.6727  135.0975  160.0252 H   0  0  0  0  0  0  0  0  0  0  0  0  # atno 6909 bound_to 6896
  145.1189  140.8657  143.3825 H   0  0  0  0  0  0  0  0  0  0  0  0  # atno 7974 bound_to 7965
  156.2751  140.2772  156.1564 H   0  0  0  0  0  0  0  0  0  0  0  0  # atno 8008 bound_to 7997
  155.0799  140.0387  157.2653 H   0  0  0  0  0  0  0  0  0  0  0  0  # atno 8009 bound_to 7997
  154.6972  140.2641  155.6760 H   0  0  0  0  0  0  0  0  0  0  0  0  # atno 8010 bound_to 7997
  140.4348  144.1272  150.6164 H   0  0  0  0  0  0  0  0  0  0  0  0  # atno 10167 bound_to 10162
  157.6923  131.0199  150.2913 H   0  0  0  0  0  0  0  0  0  0  0  0  # atno 10718 bound_to 10713
  154.0452  135.6638  153.4794 H   0  0  0  0  0  0  0  0  0  0  0  0  # atno 10763 bound_to 10752
  153.0486  135.5099  154.7804 H   0  0  0  0  0  0  0  0  0  0  0  0  # atno 10764 bound_to 10752
  154.6793  135.3042  154.9601 H   0  0  0  0  0  0  0  0  0  0  0  0  # atno 10765 bound_to 10752
  140.8844  134.1891  157.4570 H   0  0  0  0  0  0  0  0  0  0  0  0  # atno 11005 bound_to 11000
  145.0762  139.2994  143.5807 LP  0  0  0  0  0  0  0  0  0  0  0  0  # atno 17320 bound_to 7965
  146.3522  140.0254  142.8655 LP  0  0  0  0  0  0  0  0  0  0  0  0  # atno 17321 bound_to 7965
  140.4386  143.2536  151.9503 LP  0  0  0  0  0  0  0  0  0  0  0  0  # atno 17342 bound_to 10162
  139.4786  144.5676  151.8140 LP  0  0  0  0  0  0  0  0  0  0  0  0  # atno 17343 bound_to 10162
  156.3444  130.3820  149.7382 LP  0  0  0  0  0  0  0  0  0  0  0  0  # atno 17370 bound_to 10713
  156.4880  130.8072  151.3083 LP  0  0  0  0  0  0  0  0  0  0  0  0  # atno 17371 bound_to 10713
  139.8723  134.9831  156.5185 LP  0  0  0  0  0  0  0  0  0  0  0  0  # atno 17394 bound_to 11000
  140.8422  133.8196  155.9086 LP  0  0  0  0  0  0  0  0  0  0  0  0  # atno 17395 bound_to 11000

$$$$
