AV-unprocessed.smi:2477|AV-procd|sdf|9762|dock1
  -GOLD-   2272013403D 1   1.00000     0.00000
 Structure written by MMmdl.
 51 53  0  0  0  0  0  0  0  0  1 V2000
  154.9350  140.5050  160.7816 C   0  0  0  0  0  0  0  0  0  0  0  0
  153.8093  141.3318  160.3386 N   0  0  0  0  0  0  0  0  0  0  0  0
  153.3875  142.3665  161.1905 C   0  0  0  0  0  0  0  0  0  0  0  0
  152.3680  143.1734  160.8652 C   0  0  0  0  0  0  0  0  0  0  0  0
  151.6995  142.9606  159.6040 C   0  0  0  0  0  0  0  0  0  0  0  0
  152.0847  141.9617  158.7702 C   0  0  0  0  0  0  0  0  0  0  0  0
  151.4978  141.6872  157.5225 N   0  0  0  0  0  0  0  0  0  0  0  0
  150.2393  141.3106  157.2323 C   0  0  0  0  0  0  0  0  0  0  0  0
  149.3343  141.1291  158.0462 O   0  0  0  0  0  0  0  0  0  0  0  0
  150.0952  141.1133  155.9138 N   0  0  0  0  0  0  0  0  0  0  0  0
  148.8882  140.6174  155.2567 C   0  0  1  0  0  0  0  0  0  0  0  0
  148.2266  141.7760  154.4854 C   0  0  0  0  0  0  0  0  0  0  0  0
  146.9838  141.3078  153.7124 C   0  0  0  0  0  0  0  0  0  0  0  0
  147.3226  140.1449  152.7684 C   0  0  0  0  0  0  0  0  0  0  0  0
  147.9731  138.9849  153.5363 C   0  0  0  0  0  0  0  0  0  0  0  0
  149.2251  139.4465  154.3028 C   0  0  2  0  0  0  0  0  0  0  0  0
  149.6892  138.3310  155.0554 O   0  0  0  0  0  0  0  0  0  0  0  0
  150.6374  137.5067  154.3863 C   0  0  0  0  0  0  0  0  0  0  0  0
  151.3934  136.6353  155.3932 C   0  0  0  0  0  0  0  0  0  0  0  0
  152.4267  137.5750  156.0204 C   0  0  0  0  0  0  0  0  0  0  0  0
  152.7078  138.6608  154.9697 C   0  0  0  0  0  0  0  0  0  0  0  0
  151.7304  138.4096  153.8136 C   0  0  0  0  0  0  0  0  0  0  0  0
  153.2097  141.0793  159.1371 C   0  0  0  0  0  0  0  0  0  0  0  0
  153.5986  140.1609  158.4110 O   0  0  0  0  0  0  0  0  0  0  0  0
  155.3451  140.8285  161.7389 H   0  0  0  0  0  0  0  0  0  0  0  0
  155.7472  140.5397  160.0541 H   0  0  0  0  0  0  0  0  0  0  0  0
  154.6237  139.4657  160.8949 H   0  0  0  0  0  0  0  0  0  0  0  0
  153.9379  142.4619  162.1149 H   0  0  0  0  0  0  0  0  0  0  0  0
  152.0542  143.9640  161.5306 H   0  0  0  0  0  0  0  0  0  0  0  0
  150.8991  143.6374  159.3541 H   0  0  0  0  0  0  0  0  0  0  0  0
  152.1375  141.7376  156.7427 H   0  0  0  0  0  0  0  0  0  0  0  0
  150.8937  141.2846  155.3203 H   0  0  0  0  0  0  0  0  0  0  0  0
  148.1760  140.2668  156.0065 H   0  0  0  0  0  0  0  0  0  0  0  0
  147.9485  142.5731  155.1760 H   0  0  0  0  0  0  0  0  0  0  0  0
  148.9420  142.2108  153.7854 H   0  0  0  0  0  0  0  0  0  0  0  0
  146.2123  140.9947  154.4170 H   0  0  0  0  0  0  0  0  0  0  0  0
  146.5648  142.1384  153.1437 H   0  0  0  0  0  0  0  0  0  0  0  0
  146.4189  139.7984  152.2662 H   0  0  0  0  0  0  0  0  0  0  0  0
  147.9989  140.4915  151.9860 H   0  0  0  0  0  0  0  0  0  0  0  0
  147.2500  138.5632  154.2359 H   0  0  0  0  0  0  0  0  0  0  0  0
  148.2351  138.1838  152.8445 H   0  0  0  0  0  0  0  0  0  0  0  0
  149.9694  139.7745  153.5738 H   0  0  0  0  0  0  0  0  0  0  0  0
  150.1621  136.9214  153.5977 H   0  0  0  0  0  0  0  0  0  0  0  0
  150.7466  136.1665  156.1350 H   0  0  0  0  0  0  0  0  0  0  0  0
  151.9099  135.8364  154.8597 H   0  0  0  0  0  0  0  0  0  0  0  0
  152.0067  138.0350  156.9157 H   0  0  0  0  0  0  0  0  0  0  0  0
  153.3306  137.0436  156.3194 H   0  0  0  0  0  0  0  0  0  0  0  0
  152.5425  139.6484  155.4023 H   0  0  0  0  0  0  0  0  0  0  0  0
  153.7402  138.6258  154.6204 H   0  0  0  0  0  0  0  0  0  0  0  0
  152.2491  137.8794  153.0139 H   0  0  0  0  0  0  0  0  0  0  0  0
  151.3342  139.3319  153.3870 H   0  0  0  0  0  0  0  0  0  0  0  0
  1  2  1  0  0  0  0
  1 25  1  0  0  0  0
  1 26  1  0  0  0  0
  1 27  1  0  0  0  0
  2 23  1  0  0  0  0
  2  3  1  0  0  0  0
  3  4  2  0  0  0  0
  3 28  1  0  0  0  0
  4  5  1  0  0  0  0
  4 29  1  0  0  0  0
  5  6  2  0  0  0  0
  5 30  1  0  0  0  0
  6  7  1  0  0  0  0
  6 23  1  0  0  0  0
  7  8  1  0  0  0  0
  7 31  1  0  0  0  0
  8  9  2  0  0  0  0
  8 10  1  0  0  0  0
 10 11  1  0  0  0  0
 10 32  1  0  0  0  0
 11 16  1  0  0  0  0
 11 12  1  0  0  0  0
 11 33  1  0  0  0  0
 12 13  1  0  0  0  0
 12 34  1  0  0  0  0
 12 35  1  0  0  0  0
 13 14  1  0  0  0  0
 13 36  1  0  0  0  0
 13 37  1  0  0  0  0
 14 15  1  0  0  0  0
 14 38  1  0  0  0  0
 14 39  1  0  0  0  0
 15 16  1  0  0  0  0
 15 40  1  0  0  0  0
 15 41  1  0  0  0  0
 16 17  1  0  0  0  0
 16 42  1  0  0  0  0
 17 18  1  0  0  0  0
 18 22  1  0  0  0  0
 18 19  1  0  0  0  0
 18 43  1  0  0  0  0
 19 20  1  0  0  0  0
 19 44  1  0  0  0  0
 19 45  1  0  0  0  0
 20 21  1  0  0  0  0
 20 46  1  0  0  0  0
 20 47  1  0  0  0  0
 21 22  1  0  0  0  0
 21 48  1  0  0  0  0
 21 49  1  0  0  0  0
 22 50  1  0  0  0  0
 22 51  1  0  0  0  0
 23 24  2  0  0  0  0
M  END
> <s_m_source_file>
AV-unprocessed.smi

> <i_m_source_file_index>
2477

> <i_lp_mmshare_version>
43012

> <i_f3d_flags>
0

> <s_epik_input>
W0NIM11uMVtjSF1bY0hdW2NIXWMoYzE9TylbTkhdQyg9TylbTkhdW0NAQEhdMltDSDJdW0NIMl1bQ0gyXVtDSDJdW0NASF0yT1tDSF0zW0NIMl1bQ0gyXVtDSDJdW0NIMl0z

> <s_epik_cmdline>
J2VwaWtfcHl0aG9uJywgJy1waCcsICc3LjAnLCAnLXRuJywgJzgnLCAnLW1hJywgJzIwMCcsICctbWV0YWxfYmluZGluZycsICctaW1hZScsICc8aW5maWxlLm1hZT4nLCAnLW9tYWUnLCAnPG91dGZpbGUubWFlPic=

> <r_lp_tautomer_probability>
1

> <r_epik_Ionization_Penalty>
2.40753e-05

> <r_epik_Ionization_Penalty_Charging>
4.84018e-06

> <r_epik_Ionization_Penalty_Neutral>
1.92352e-05

> <r_epik_State_Penalty>
-0

> <r_epik_Charging_Adjusted_Penalty>
4.84018e-06

> <i_epik_Tot_Q>
0

> <i_epik_Tot_abs_Q>
0

> <r_epik_Metal_State_Penalty>
-0

> <b_epik_Metal_Only>
0

> <s_lp_Force_Field>
OPLS_2005

> <r_lp_Energy>
41.4138

> <b_lp_Chiralities_Consistent>
1

> <s_lp_Variant>
AV-unprocessed.smi:2477-4

> <Gold.Version>
5.8.1

> <Gold.Id.Protein>
6NUR|6NUR_protein|mol2

> <Gold.PLP.Fitness>
46.1807

> <Gold.PLP.PLP>
-45.4497

> <Gold.PLP.part.hbond>
-1.0000

> <Gold.PLP.part.metal>
0.0000

> <Gold.PLP.part.buried>
-2.2290

> <Gold.PLP.part.nonpolar>
-41.3576

> <Gold.PLP.part.repulsive>
0.3047

> <Gold.PLP.ligand.clash>
0.0000

> <Gold.PLP.ligand.torsion>
1.1934

> <Gold.PLP.Chemscore.Hbond>
1.0000

> <Gold.PLP.Chemscore.CHOScore>
0.0000

> <Gold.PLP.Chemscore.Metal>
0.0000

> <Gold.Chemscore.Hbonds>
donor molecule, donor type, donor heavy atom, donor atom, acceptor molecule, acceptor atom, score
      P1  H  7997  8008       L1    24  0.94

> <Gold.PLP.Chemscore.Internal.Correction>
0.1177

> <Gold.Rescore>
     Score         DG    S(hbond)    S(metal)    S(lipo)     H(rot)  DE(clash)    DE(int)     intcor
     17.60     -19.14       0.96        0.00     119.02       1.36       0.57       0.97       ----

> <Gold.Chemscore.Fitness>
17.6001

> <Gold.Chemscore.DG>
-19.1448

> <Gold.Chemscore.ZeroCoef>
-5.4800

> <Gold.Chemscore.Hbond>
0.9618

> <Gold.Chemscore.Metal>
0.0000

> <Gold.Chemscore.Lipo>
119.0164

> <Gold.Chemscore.Internal_Hbond>
0.0000

> <Gold.Chemscore.DEClash>
0.5718

> <Gold.Chemscore.DEInternal>
0.9729

> <Gold.Chemscore.Rot>
1.3564

> <Gold.Chemscore.Internal.Correction>
   9.000000E+99

> <Gold.Chemscore.Hbonds>
donor molecule, donor type, donor heavy atom, donor atom, acceptor molecule, acceptor atom, score
      P1  H  7997  8008       L1    24  0.91

> <Gold.Chemscore.Hbond.Weighted>
-3.2123

> <Gold.Chemscore.Metal.Weighted>
-0.0000

> <Gold.Chemscore.Lipo.Weighted>
-13.9249

> <Gold.Chemscore.Internal_Hbond.Weighted>
0.0000

> <Gold.Chemscore.DEClash.Weighted>
0.5718

> <Gold.Chemscore.DEInternal.Weighted>
0.9729

> <Gold.Chemscore.Rot.Weighted>
3.4724

> <Gold.Chemscore.Internal.Correction.Weighted>
   9.000000E+99

> <Gold.Protein.RotatedTorsions>
[ 6907 6896 6895 6894 ] final  115.18 input  -60.11 | X-H torsion
[ 7974 7965 7964 7962 ] final   31.30 input  175.53 | X-H torsion
[ 8008 7997 7996 7995 ] final  -88.20 input   59.86 | X-H torsion
[ 10167 10162 10161 10158 ] final   12.70 input  -65.29 | X-H torsion
[ 10718 10713 10712 10709 ] final  -76.85 input   66.30 | X-H torsion
[ 10763 10752 10751 10750 ] final  -51.32 input  -60.55 | X-H torsion
[ 11005 11000 10999 10996 ] final   22.53 input  -57.11 | X-H torsion

> <Gold.Protein.ActiveResidues>
 VAL166  LYS551  ARG553  GLY616  TRP617  ASP618  TYR619  PRO620  LYS621  CYS622 
 ASP623  PHE694  ASN695  SER759  ASP760  ASP761  ALA762  ILE779  LEU786  VAL792 
 PHE793  MET794  SER795  GLU796  ALA797  LYS798  CYS799  TRP800  GLU811  SER814 

> <Gold.Protein.RotatedAtoms>
  152.4757  133.8133  159.7014 H   0  0  0  0  0  0  0  0  0  0  0  0  # atno 6907 bound_to 6896
  150.8773  133.7412  159.2949 H   0  0  0  0  0  0  0  0  0  0  0  0  # atno 6908 bound_to 6896
  151.4927  135.1061  159.9860 H   0  0  0  0  0  0  0  0  0  0  0  0  # atno 6909 bound_to 6896
  146.1558  139.6675  142.9067 H   0  0  0  0  0  0  0  0  0  0  0  0  # atno 7974 bound_to 7965
  154.6720  140.0556  157.0176 H   0  0  0  0  0  0  0  0  0  0  0  0  # atno 8008 bound_to 7997
  155.1074  140.3235  155.4512 H   0  0  0  0  0  0  0  0  0  0  0  0  # atno 8009 bound_to 7997
  156.2661  140.2020  156.6199 H   0  0  0  0  0  0  0  0  0  0  0  0  # atno 8010 bound_to 7997
  140.6050  143.8525  150.7005 H   0  0  0  0  0  0  0  0  0  0  0  0  # atno 10167 bound_to 10162
  156.0162  130.4476  150.3256 H   0  0  0  0  0  0  0  0  0  0  0  0  # atno 10718 bound_to 10713
  154.1246  135.6529  153.4910 H   0  0  0  0  0  0  0  0  0  0  0  0  # atno 10763 bound_to 10752
  153.0214  135.5278  154.7062 H   0  0  0  0  0  0  0  0  0  0  0  0  # atno 10764 bound_to 10752
  154.6280  135.2972  155.0220 H   0  0  0  0  0  0  0  0  0  0  0  0  # atno 10765 bound_to 10752
  140.3796  134.1935  155.7664 H   0  0  0  0  0  0  0  0  0  0  0  0  # atno 11005 bound_to 11000
  145.4711  141.0436  143.2698 LP  0  0  0  0  0  0  0  0  0  0  0  0  # atno 17320 bound_to 7965
  144.7962  139.6230  143.7091 LP  0  0  0  0  0  0  0  0  0  0  0  0  # atno 17321 bound_to 7965
  140.2080  143.3906  152.1740 LP  0  0  0  0  0  0  0  0  0  0  0  0  # atno 17342 bound_to 10162
  139.5319  144.7168  151.5028 LP  0  0  0  0  0  0  0  0  0  0  0  0  # atno 17343 bound_to 10162
  157.1355  131.0283  151.2950 LP  0  0  0  0  0  0  0  0  0  0  0  0  # atno 17370 bound_to 10713
  157.4515  130.7601  149.7155 LP  0  0  0  0  0  0  0  0  0  0  0  0  # atno 17371 bound_to 10713
  141.1928  133.8165  157.0825 LP  0  0  0  0  0  0  0  0  0  0  0  0  # atno 17394 bound_to 11000
  140.0489  134.9816  157.1099 LP  0  0  0  0  0  0  0  0  0  0  0  0  # atno 17395 bound_to 11000

$$$$
