AV-unprocessed.smi:2981|AV-procd|sdf|11374|dock9
  -GOLD-   2272016293D 1   1.00000     0.00000
 Structure written by MMmdl.
 31 32  0  0  0  0  0  0  0  0  1 V2000
  149.7536  139.5606  157.2388 O   0  0  0  0  0  0  0  0  0  0  0  0
  150.3440  140.4101  156.5701 C   0  0  0  0  0  0  0  0  0  0  0  0
  151.8444  140.6682  156.7730 C   0  0  0  0  0  0  0  0  0  0  0  0
  152.1645  141.2497  158.0854 N   0  0  0  0  0  0  0  0  0  0  0  0
  151.5046  142.4364  158.3529 N   0  0  0  0  0  0  0  0  0  0  0  0
  151.6970  143.0288  159.4808 C   0  0  0  0  0  0  0  0  0  0  0  0
  152.5891  142.4980  160.4878 C   0  0  0  0  0  0  0  0  0  0  0  0
  152.8069  143.3374  161.9830 Cl  0  0  0  0  0  0  0  0  0  0  0  0
  153.2359  141.3374  160.2131 C   0  0  0  0  0  0  0  0  0  0  0  0
  154.3208  140.6412  161.3676 Cl  0  0  0  0  0  0  0  0  0  0  0  0
  153.0413  140.6342  158.9375 C   0  0  0  0  0  0  0  0  0  0  0  0
  153.6111  139.5808  158.6491 O   0  0  0  0  0  0  0  0  0  0  0  0
  149.7351  141.1726  155.6495 N   0  0  0  0  0  0  0  0  0  0  0  0
  148.3215  141.0919  155.2962 C   0  0  2  0  0  0  0  0  0  0  0  0
  147.9985  141.9873  154.0859 C   0  0  0  0  0  0  0  0  0  0  0  0
  146.4763  142.1439  153.9817 C   0  0  0  0  0  0  0  0  0  0  0  0
  145.8347  142.0413  155.6962 S   0  0  0  0  0  0  0  0  0  0  0  0
  145.4847  143.3878  156.1737 O   0  0  0  0  0  0  0  0  0  0  0  0
  144.8690  140.9349  155.7767 O   0  0  0  0  0  0  0  0  0  0  0  0
  147.4181  141.5266  156.4610 C   0  0  0  0  0  0  0  0  0  0  0  0
  152.3984  139.7376  156.6346 H   0  0  0  0  0  0  0  0  0  0  0  0
  152.1822  141.3304  155.9737 H   0  0  0  0  0  0  0  0  0  0  0  0
  151.1971  143.9632  159.7365 H   0  0  0  0  0  0  0  0  0  0  0  0
  150.2933  141.8496  155.1495 H   0  0  0  0  0  0  0  0  0  0  0  0
  148.0702  140.0645  155.0248 H   0  0  0  0  0  0  0  0  0  0  0  0
  148.4393  142.9733  154.2408 H   0  0  0  0  0  0  0  0  0  0  0  0
  148.4233  141.5908  153.1629 H   0  0  0  0  0  0  0  0  0  0  0  0
  146.1754  143.0850  153.5212 H   0  0  0  0  0  0  0  0  0  0  0  0
  146.0417  141.3225  153.4116 H   0  0  0  0  0  0  0  0  0  0  0  0
  147.2449  140.7314  157.1865 H   0  0  0  0  0  0  0  0  0  0  0  0
  147.8317  142.3904  156.9825 H   0  0  0  0  0  0  0  0  0  0  0  0
  1  2  2  0  0  0  0
  2  3  1  0  0  0  0
  2 13  1  0  0  0  0
  3  4  1  0  0  0  0
  3 21  1  0  0  0  0
  3 22  1  0  0  0  0
  4 11  1  0  0  0  0
  4  5  1  0  0  0  0
  5  6  2  0  0  0  0
  6  7  1  0  0  0  0
  6 23  1  0  0  0  0
  7  8  1  0  0  0  0
  7  9  2  0  0  0  0
  9 10  1  0  0  0  0
  9 11  1  0  0  0  0
 11 12  2  0  0  0  0
 13 14  1  0  0  0  0
 13 24  1  0  0  0  0
 14 20  1  0  0  0  0
 14 15  1  0  0  0  0
 14 25  1  0  0  0  0
 15 16  1  0  0  0  0
 15 26  1  0  0  0  0
 15 27  1  0  0  0  0
 16 17  1  0  0  0  0
 16 28  1  0  0  0  0
 16 29  1  0  0  0  0
 17 18  2  0  0  0  0
 17 19  2  0  0  0  0
 17 20  1  0  0  0  0
 20 30  1  0  0  0  0
 20 31  1  0  0  0  0
M  END
> <s_m_source_file>
AV-unprocessed.smi

> <i_m_source_file_index>
2981

> <i_lp_mmshare_version>
43012

> <i_f3d_flags>
0

> <s_epik_input>
Tz1TMSg9TylbQ0gyXVtDSDJdW0NASF0oW0NIMl0xKVtOSF1DKD1PKVtDSDJdbjJuW2NIXWMoQ2wpYyhDbCljMj1P

> <s_epik_cmdline>
J2VwaWtfcHl0aG9uJywgJy1waCcsICc3LjAnLCAnLXRuJywgJzgnLCAnLW1hJywgJzIwMCcsICctbWV0YWxfYmluZGluZycsICctaW1hZScsICc8aW5maWxlLm1hZT4nLCAnLW9tYWUnLCAnPG91dGZpbGUubWFlPic=

> <r_lp_tautomer_probability>
1

> <r_epik_Ionization_Penalty>
1.07216e-07

> <r_epik_Ionization_Penalty_Charging>
2.33395e-11

> <r_epik_Ionization_Penalty_Neutral>
1.07193e-07

> <r_epik_State_Penalty>
-0

> <r_epik_Charging_Adjusted_Penalty>
2.33395e-11

> <i_epik_Tot_Q>
0

> <i_epik_Tot_abs_Q>
0

> <r_epik_Metal_State_Penalty>
-0

> <b_epik_Metal_Only>
0

> <s_lp_Force_Field>
OPLS_2005

> <r_lp_Energy>
19.0616

> <b_lp_Chiralities_Consistent>
1

> <s_lp_Variant>
AV-unprocessed.smi:2981-1

> <Gold.Version>
5.8.1

> <Gold.Id.Protein>
6NUR|6NUR_protein|mol2

> <Gold.PLP.Fitness>
38.2220

> <Gold.PLP.PLP>
-35.4312

> <Gold.PLP.part.hbond>
-1.0000

> <Gold.PLP.part.metal>
0.0000

> <Gold.PLP.part.buried>
-4.4981

> <Gold.PLP.part.nonpolar>
-28.5352

> <Gold.PLP.part.repulsive>
0.3865

> <Gold.PLP.ligand.clash>
0.0000

> <Gold.PLP.ligand.torsion>
0.1053

> <Gold.PLP.Chemscore.Hbond>
1.0000

> <Gold.PLP.Chemscore.CHOScore>
0.0000

> <Gold.PLP.Chemscore.Metal>
0.0000

> <Gold.Chemscore.Hbonds>
donor molecule, donor type, donor heavy atom, donor atom, acceptor molecule, acceptor atom, score
      P1  H  7997  8008       L1    12  1.00

> <Gold.PLP.Chemscore.Internal.Correction>
0.0014

> <Gold.Rescore>
     Score         DG    S(hbond)    S(metal)    S(lipo)     H(rot)  DE(clash)    DE(int)     intcor
     13.52     -13.81       0.94        0.00      81.66       1.70       0.11       0.17       ----

> <Gold.Chemscore.Fitness>
13.5195

> <Gold.Chemscore.DG>
-13.8052

> <Gold.Chemscore.ZeroCoef>
-5.4800

> <Gold.Chemscore.Hbond>
0.9389

> <Gold.Chemscore.Metal>
0.0000

> <Gold.Chemscore.Lipo>
81.6576

> <Gold.Chemscore.Internal_Hbond>
0.0000

> <Gold.Chemscore.DEClash>
0.1123

> <Gold.Chemscore.DEInternal>
0.1734

> <Gold.Chemscore.Rot>
1.7049

> <Gold.Chemscore.Internal.Correction>
   9.000000E+99

> <Gold.Chemscore.Hbonds>
donor molecule, donor type, donor heavy atom, donor atom, acceptor molecule, acceptor atom, score
      P1  H  7997  8008       L1    12  0.45

> <Gold.Chemscore.Hbond.Weighted>
-3.1359

> <Gold.Chemscore.Metal.Weighted>
-0.0000

> <Gold.Chemscore.Lipo.Weighted>
-9.5539

> <Gold.Chemscore.Internal_Hbond.Weighted>
0.0000

> <Gold.Chemscore.DEClash.Weighted>
0.1123

> <Gold.Chemscore.DEInternal.Weighted>
0.1734

> <Gold.Chemscore.Rot.Weighted>
4.3646

> <Gold.Chemscore.Internal.Correction.Weighted>
   9.000000E+99

> <Gold.Protein.RotatedTorsions>
[ 6907 6896 6895 6894 ] final  157.24 input  -60.11 | X-H torsion
[ 7974 7965 7964 7962 ] final   70.41 input  175.53 | X-H torsion
[ 8008 7997 7996 7995 ] final  -94.61 input   59.86 | X-H torsion
[ 10167 10162 10161 10158 ] final -146.45 input  -65.29 | X-H torsion
[ 10718 10713 10712 10709 ] final  -88.94 input   66.30 | X-H torsion
[ 10763 10752 10751 10750 ] final  132.20 input  -60.55 | X-H torsion
[ 11005 11000 10999 10996 ] final -126.06 input  -57.11 | X-H torsion

> <Gold.Protein.ActiveResidues>
 VAL166  LYS551  ARG553  GLY616  TRP617  ASP618  TYR619  PRO620  LYS621  CYS622 
 ASP623  PHE694  ASN695  SER759  ASP760  ASP761  ALA762  ILE779  LEU786  VAL792 
 PHE793  MET794  SER795  GLU796  ALA797  LYS798  CYS799  TRP800  GLU811  SER814 

> <Gold.Protein.RotatedAtoms>
  152.0180  133.3887  159.4246 H   0  0  0  0  0  0  0  0  0  0  0  0  # atno 6907 bound_to 6896
  150.6893  134.3657  159.4979 H   0  0  0  0  0  0  0  0  0  0  0  0  # atno 6908 bound_to 6896
  152.1427  134.9049  160.0603 H   0  0  0  0  0  0  0  0  0  0  0  0  # atno 6909 bound_to 6896
  145.7784  139.2876  143.1280 H   0  0  0  0  0  0  0  0  0  0  0  0  # atno 7974 bound_to 7965
  154.7506  140.0487  157.0890 H   0  0  0  0  0  0  0  0  0  0  0  0  # atno 8008 bound_to 7997
  155.0062  140.3130  155.4828 H   0  0  0  0  0  0  0  0  0  0  0  0  # atno 8009 bound_to 7997
  156.2884  140.2192  156.5174 H   0  0  0  0  0  0  0  0  0  0  0  0  # atno 8010 bound_to 7997
  139.7712  143.8234  152.2625 H   0  0  0  0  0  0  0  0  0  0  0  0  # atno 10167 bound_to 10162
  155.9984  130.4854  150.5095 H   0  0  0  0  0  0  0  0  0  0  0  0  # atno 10718 bound_to 10713
  153.7869  135.3160  155.3373 H   0  0  0  0  0  0  0  0  0  0  0  0  # atno 10763 bound_to 10752
  154.8140  135.4648  154.0597 H   0  0  0  0  0  0  0  0  0  0  0  0  # atno 10764 bound_to 10752
  153.1903  135.6907  153.8448 H   0  0  0  0  0  0  0  0  0  0  0  0  # atno 10765 bound_to 10752
  140.9712  134.0803  157.3867 H   0  0  0  0  0  0  0  0  0  0  0  0  # atno 11005 bound_to 11000
  146.0099  140.8445  142.9976 LP  0  0  0  0  0  0  0  0  0  0  0  0  # atno 17320 bound_to 7965
  144.6800  140.2474  143.7336 LP  0  0  0  0  0  0  0  0  0  0  0  0  # atno 17321 bound_to 7965
  139.8269  144.7271  150.9500 LP  0  0  0  0  0  0  0  0  0  0  0  0  # atno 17342 bound_to 10162
  140.7814  143.4106  151.0999 LP  0  0  0  0  0  0  0  0  0  0  0  0  # atno 17343 bound_to 10162
  157.3070  131.0656  151.2028 LP  0  0  0  0  0  0  0  0  0  0  0  0  # atno 17370 bound_to 10713
  157.2987  130.6832  149.6152 LP  0  0  0  0  0  0  0  0  0  0  0  0  # atno 17371 bound_to 10713
  139.8913  135.0117  156.6783 LP  0  0  0  0  0  0  0  0  0  0  0  0  # atno 17394 bound_to 11000
  140.7326  133.9046  155.8222 LP  0  0  0  0  0  0  0  0  0  0  0  0  # atno 17395 bound_to 11000

$$$$
