AV-unprocessed.smi:2032|AV-procd|sdf|8252|dock1
  -GOLD-   2272010523D 1   1.00000     0.00000
 Structure written by MMmdl.
 42 43  0  0  0  0  0  0  0  0  3 V2000
  148.4197  141.5757  154.2292 C   0  0  0  0  0  0  0  0  0  0  0  0
  148.9527  140.1977  154.6362 C   0  0  1  0  0  0  0  0  0  0  0  0
  148.6167  139.1160  153.5873 C   0  0  0  0  0  0  0  0  0  0  0  0
  149.1978  137.7978  153.9646 N   0  3  2  0  0  0  0  0  0  0  0  0
  148.5108  137.0834  155.0956 C   0  0  2  0  0  0  0  0  0  0  0  0
  149.3448  135.8826  155.6052 C   0  0  0  0  0  0  0  0  0  0  0  0
  147.0839  136.6063  154.7034 C   0  0  0  0  0  0  0  0  0  0  0  0
  147.0708  135.7808  153.4992 N   0  0  0  0  0  0  0  0  0  0  0  0
  146.2060  134.7883  153.2438 C   0  0  0  0  0  0  0  0  0  0  0  0
  145.3154  134.5260  154.0559 O   0  0  0  0  0  0  0  0  0  0  0  0
  146.4329  134.1576  152.0703 N   0  5  0  0  0  0  0  0  0  0  0  0
  145.4247  133.5361  151.4374 C   0  0  0  0  0  0  0  0  0  0  0  0
  145.6156  132.6583  150.4461 N   0  0  0  0  0  0  0  0  0  0  0  0
  144.4281  132.1304  149.9358 C   0  0  0  0  0  0  0  0  0  0  0  0
  143.3073  132.6115  150.5590 C   0  0  0  0  0  0  0  0  0  0  0  0
  143.7123  133.7478  151.8135 S   0  0  0  0  0  0  0  0  0  0  0  0
  150.6672  137.9805  154.1216 C   0  0  0  0  0  0  0  0  0  0  0  0
  150.9855  139.0741  155.1646 C   0  0  1  0  0  0  0  0  0  0  0  0
  152.4921  139.3255  155.2908 C   0  0  0  0  0  0  0  0  0  0  0  0
  150.3692  140.2935  154.7600 O   0  0  0  0  0  0  0  0  0  0  0  0
  147.3343  141.5618  154.1271 H   0  0  0  0  0  0  0  0  0  0  0  0
  148.8416  141.8977  153.2767 H   0  0  0  0  0  0  0  0  0  0  0  0
  148.6723  142.3280  154.9768 H   0  0  0  0  0  0  0  0  0  0  0  0
  148.5206  139.9394  155.6038 H   0  0  0  0  0  0  0  0  0  0  0  0
  147.5478  139.0678  153.3969 H   0  0  0  0  0  0  0  0  0  0  0  0
  149.0497  139.4093  152.6295 H   0  0  0  0  0  0  0  0  0  0  0  0
  148.4122  137.7782  155.9285 H   0  0  0  0  0  0  0  0  0  0  0  0
  148.8125  135.3033  156.3589 H   0  0  0  0  0  0  0  0  0  0  0  0
  150.2680  136.1963  156.0906 H   0  0  0  0  0  0  0  0  0  0  0  0
  149.5989  135.2027  154.7916 H   0  0  0  0  0  0  0  0  0  0  0  0
  146.6128  136.0144  155.4859 H   0  0  0  0  0  0  0  0  0  0  0  0
  146.4364  137.4667  154.5327 H   0  0  0  0  0  0  0  0  0  0  0  0
  147.7809  135.9667  152.8060 H   0  0  0  0  0  0  0  0  0  0  0  0
  144.4743  131.4151  149.1282 H   0  0  0  0  0  0  0  0  0  0  0  0
  142.2749  132.3674  150.3600 H   0  0  0  0  0  0  0  0  0  0  0  0
  151.1816  137.0499  154.3514 H   0  0  0  0  0  0  0  0  0  0  0  0
  151.0719  138.2854  153.1553 H   0  0  0  0  0  0  0  0  0  0  0  0
  150.6057  138.7866  156.1457 H   0  0  0  0  0  0  0  0  0  0  0  0
  153.0140  138.4253  155.6164 H   0  0  0  0  0  0  0  0  0  0  0  0
  152.6967  140.1093  156.0206 H   0  0  0  0  0  0  0  0  0  0  0  0
  152.9230  139.6367  154.3386 H   0  0  0  0  0  0  0  0  0  0  0  0
  149.0745  137.1964  153.1628 H   0  0  0  0  0  0  0  0  0  0  0  0
  1  2  1  0  0  0  0
  1 21  1  0  0  0  0
  1 22  1  0  0  0  0
  1 23  1  0  0  0  0
  2 20  1  0  0  0  0
  2  3  1  0  0  0  0
  2 24  1  0  0  0  0
  3  4  1  0  0  0  0
  3 25  1  0  0  0  0
  3 26  1  0  0  0  0
  4  5  1  0  0  0  0
  4 17  1  0  0  0  0
  4 42  1  0  0  0  0
  5  6  1  0  0  0  0
  5  7  1  0  0  0  0
  5 27  1  0  0  0  0
  6 28  1  0  0  0  0
  6 29  1  0  0  0  0
  6 30  1  0  0  0  0
  7  8  1  0  0  0  0
  7 31  1  0  0  0  0
  7 32  1  0  0  0  0
  8  9  1  0  0  0  0
  8 33  1  0  0  0  0
  9 10  2  0  0  0  0
  9 11  1  0  0  0  0
 11 12  1  0  0  0  0
 12 16  1  0  0  0  0
 12 13  2  0  0  0  0
 13 14  1  0  0  0  0
 14 15  2  0  0  0  0
 14 34  1  0  0  0  0
 15 16  1  0  0  0  0
 15 35  1  0  0  0  0
 17 18  1  0  0  0  0
 17 36  1  0  0  0  0
 17 37  1  0  0  0  0
 18 19  1  0  0  0  0
 18 20  1  0  0  0  0
 18 38  1  0  0  0  0
 19 39  1  0  0  0  0
 19 40  1  0  0  0  0
 19 41  1  0  0  0  0
M  CHG  1   4   1
M  CHG  1  11  -1
M  END
> <s_m_source_file>
AV-unprocessed.smi

> <i_m_source_file_index>
2032

> <i_lp_mmshare_version>
43012

> <i_f3d_flags>
0

> <s_epik_input>
W0NIM11bQ0BASF0xW0NIMl1OKFtDSDJdW0NASF0oTzEpW0NIM10pW0NASF0oW0NIM10pW0NIMl1bTkhdQyg9TylbTkhdYzJuW2NIXVtjSF1zMg==

> <s_epik_cmdline>
J2VwaWtfcHl0aG9uJywgJy1waCcsICc3LjAnLCAnLXRuJywgJzgnLCAnLW1hJywgJzIwMCcsICctbWV0YWxfYmluZGluZycsICctaW1hZScsICc8aW5maWxlLm1hZT4nLCAnLW9tYWUnLCAnPG91dGZpbGUubWFlPic=

> <r_lp_tautomer_probability>
0.999

> <r_epik_Ionization_Penalty>
6.71699

> <r_epik_Ionization_Penalty_Charging>
5.88592

> <r_epik_Ionization_Penalty_Neutral>
0.831074

> <r_epik_State_Penalty>
6.08365

> <r_epik_Charging_Adjusted_Penalty>
11.9696

> <i_epik_Tot_Q>
0

> <i_epik_Tot_abs_Q>
2

> <r_epik_Metal_State_Penalty>
2.0947

> <b_epik_Metal_Only>
1

> <s_lp_Force_Field>
OPLS_2005

> <r_lp_Energy>
10.9101

> <b_lp_Chiralities_Consistent>
1

> <s_lp_Variant>
AV-unprocessed.smi:2032-22

> <Gold.Version>
5.8.1

> <Gold.Id.Protein>
6NUR|6NUR_protein|mol2

> <Gold.PLP.Fitness>
46.5394

> <Gold.PLP.PLP>
-31.1104

> <Gold.PLP.part.hbond>
-3.0000

> <Gold.PLP.part.metal>
0.0000

> <Gold.PLP.part.buried>
-0.8748

> <Gold.PLP.part.nonpolar>
-28.8263

> <Gold.PLP.part.repulsive>
0.4452

> <Gold.PLP.ligand.clash>
0.0000

> <Gold.PLP.ligand.torsion>
0.5983

> <Gold.PLP.Chemscore.Hbond>
3.9913

> <Gold.PLP.Chemscore.CHOScore>
1.4447

> <Gold.PLP.Chemscore.Metal>
0.0000

> <Gold.Chemscore.Hbonds>
donor molecule, donor type, donor heavy atom, donor atom, acceptor molecule, acceptor atom, score
      L1  H     4    42       P1  7948  2.00
      L1  H     8    33       P1  7948  0.98
      P1  H  7989  7998       L1    20  1.00
      L1  C    15    35       P1 10186  0.62
      L1  C    15    35       P1 10952  0.83

> <Gold.PLP.Chemscore.Internal.Correction>
0.3177

> <Gold.Rescore>
     Score         DG    S(hbond)    S(metal)    S(lipo)     H(rot)  DE(clash)    DE(int)     intcor
     16.85     -19.79       2.81        0.00      76.48       1.58       1.00       1.93       ----

> <Gold.Chemscore.Fitness>
16.8539

> <Gold.Chemscore.DG>
-19.7866

> <Gold.Chemscore.ZeroCoef>
-5.4800

> <Gold.Chemscore.Hbond>
2.8146

> <Gold.Chemscore.Metal>
0.0000

> <Gold.Chemscore.Lipo>
76.4821

> <Gold.Chemscore.Internal_Hbond>
0.0000

> <Gold.Chemscore.DEClash>
1.0004

> <Gold.Chemscore.DEInternal>
1.9323

> <Gold.Chemscore.Rot>
1.5791

> <Gold.Chemscore.Internal.Correction>
   9.000000E+99

> <Gold.Chemscore.Hbonds>
donor molecule, donor type, donor heavy atom, donor atom, acceptor molecule, acceptor atom, score
      L1  H     4    42       P1  7948  0.99
      L1  H     8    33       P1  7948  0.92
      P1  H  7989  7998       L1    20  0.25

> <Gold.Chemscore.Hbond.Weighted>
-9.4007

> <Gold.Chemscore.Metal.Weighted>
-0.0000

> <Gold.Chemscore.Lipo.Weighted>
-8.9484

> <Gold.Chemscore.Internal_Hbond.Weighted>
0.0000

> <Gold.Chemscore.DEClash.Weighted>
1.0004

> <Gold.Chemscore.DEInternal.Weighted>
1.9323

> <Gold.Chemscore.Rot.Weighted>
4.0425

> <Gold.Chemscore.Internal.Correction.Weighted>
   9.000000E+99

> <Gold.Protein.RotatedTorsions>
[ 6907 6896 6895 6894 ] final  -88.68 input  -60.11 | X-H torsion
[ 7974 7965 7964 7962 ] final  118.60 input  175.53 | X-H torsion
[ 8008 7997 7996 7995 ] final  -20.44 input   59.86 | X-H torsion
[ 10167 10162 10161 10158 ] final   73.33 input  -65.29 | X-H torsion
[ 10718 10713 10712 10709 ] final   27.52 input   66.30 | X-H torsion
[ 10763 10752 10751 10750 ] final  151.06 input  -60.55 | X-H torsion
[ 11005 11000 10999 10996 ] final  148.39 input  -57.11 | X-H torsion

> <Gold.Protein.ActiveResidues>
 VAL166  LYS551  ARG553  GLY616  TRP617  ASP618  TYR619  PRO620  LYS621  CYS622 
 ASP623  PHE694  ASN695  SER759  ASP760  ASP761  ALA762  ILE779  LEU786  VAL792 
 PHE793  MET794  SER795  GLU796  ALA797  LYS798  CYS799  TRP800  GLU811  SER814 

> <Gold.Protein.RotatedAtoms>
  150.6870  134.2704  159.4585 H   0  0  0  0  0  0  0  0  0  0  0  0  # atno 6907 bound_to 6896
  152.0626  134.9582  160.0584 H   0  0  0  0  0  0  0  0  0  0  0  0  # atno 6908 bound_to 6896
  152.1003  133.4211  159.4621 H   0  0  0  0  0  0  0  0  0  0  0  0  # atno 6909 bound_to 6896
  145.1533  139.3198  143.4555 H   0  0  0  0  0  0  0  0  0  0  0  0  # atno 7974 bound_to 7965
  154.4770  140.2062  155.9855 H   0  0  0  0  0  0  0  0  0  0  0  0  # atno 8008 bound_to 7997
  156.1104  140.3230  155.8035 H   0  0  0  0  0  0  0  0  0  0  0  0  # atno 8009 bound_to 7997
  155.4644  140.0526  157.2978 H   0  0  0  0  0  0  0  0  0  0  0  0  # atno 8010 bound_to 7997
  140.0257  144.5505  150.7546 H   0  0  0  0  0  0  0  0  0  0  0  0  # atno 10167 bound_to 10162
  157.2212  130.6980  149.6271 H   0  0  0  0  0  0  0  0  0  0  0  0  # atno 10718 bound_to 10713
  154.0977  135.2848  155.3258 H   0  0  0  0  0  0  0  0  0  0  0  0  # atno 10763 bound_to 10752
  154.6577  135.5346  153.7982 H   0  0  0  0  0  0  0  0  0  0  0  0  # atno 10764 bound_to 10752
  153.0390  135.6526  154.1142 H   0  0  0  0  0  0  0  0  0  0  0  0  # atno 10765 bound_to 10752
  140.0956  134.9014  157.1718 H   0  0  0  0  0  0  0  0  0  0  0  0  # atno 11005 bound_to 11000
  146.3492  140.1615  142.8590 LP  0  0  0  0  0  0  0  0  0  0  0  0  # atno 17320 bound_to 7965
  145.0408  140.8944  143.5053 LP  0  0  0  0  0  0  0  0  0  0  0  0  # atno 17321 bound_to 7965
  140.7323  143.2705  151.3905 LP  0  0  0  0  0  0  0  0  0  0  0  0  # atno 17342 bound_to 10162
  139.6110  144.1099  152.2298 LP  0  0  0  0  0  0  0  0  0  0  0  0  # atno 17343 bound_to 10162
  155.9682  130.4519  150.5754 LP  0  0  0  0  0  0  0  0  0  0  0  0  # atno 17370 bound_to 10713
  157.3574  131.0744  151.1665 LP  0  0  0  0  0  0  0  0  0  0  0  0  # atno 17371 bound_to 10713
  140.3291  134.2830  155.7231 LP  0  0  0  0  0  0  0  0  0  0  0  0  # atno 17394 bound_to 11000
  141.2091  133.7759  157.0018 LP  0  0  0  0  0  0  0  0  0  0  0  0  # atno 17395 bound_to 11000

$$$$
