AV-unprocessed.smi:1146|AV-procd|sdf|4886|dock10
  -GOLD-   22720 3463D 1   1.00000     0.00000
 Structure written by MMmdl.
 46 47  0  0  0  0  0  0  0  0  1 V2000
  151.2853  144.6964  158.2651 C   0  0  0  0  0  0  0  0  0  0  0  0
  152.5745  143.8715  158.1650 C   0  0  0  0  0  0  0  0  0  0  0  0
  152.2861  142.4400  158.1228 N   0  0  0  0  0  0  0  0  0  0  0  0
  151.5226  141.7992  157.2072 C   0  0  0  0  0  0  0  0  0  0  0  0
  150.9422  142.3241  156.2572 O   0  0  0  0  0  0  0  0  0  0  0  0
  151.5063  140.4815  157.5189 N   0  0  0  0  0  0  0  0  0  0  0  0
  150.7907  139.4276  156.7941 C   0  0  0  0  0  0  0  0  0  0  0  0
  151.2607  139.2347  155.3279 C   0  0  0  0  0  0  0  0  0  0  0  0
  152.7692  138.9575  155.1771 C   0  0  0  0  0  0  0  0  0  0  0  0
  150.4455  138.1130  154.6622 C   0  0  0  0  0  0  0  0  0  0  0  0
  150.9474  140.4079  154.6033 O   0  0  0  0  0  0  0  0  0  0  0  0
  152.2720  140.2761  158.6779 C   0  0  0  0  0  0  0  0  0  0  0  0
  152.5662  139.1051  159.3988 C   0  0  0  0  0  0  0  0  0  0  0  0
  153.3875  139.2487  160.5420 C   0  0  0  0  0  0  0  0  0  0  0  0
  153.8033  137.8122  161.5212 S   0  0  0  0  0  0  0  0  0  0  0  0
  153.2602  137.9677  162.8800 O   0  0  0  0  0  0  0  0  0  0  0  0
  153.4710  136.6247  160.7187 O   0  0  0  0  0  0  0  0  0  0  0  0
  155.5295  137.9223  161.6239 N   0  0  0  0  0  0  0  0  0  0  0  0
  156.1034  138.9635  162.4826 C   0  0  0  0  0  0  0  0  0  0  0  0
  156.2972  137.6620  160.4023 C   0  0  0  0  0  0  0  0  0  0  0  0
  153.8814  140.5171  160.9435 C   0  0  0  0  0  0  0  0  0  0  0  0
  153.5698  141.6763  160.1960 C   0  0  0  0  0  0  0  0  0  0  0  0
  152.7595  141.5100  159.0587 C   0  0  0  0  0  0  0  0  0  0  0  0
  151.5093  145.7629  158.2920 H   0  0  0  0  0  0  0  0  0  0  0  0
  150.7285  144.4507  159.1699 H   0  0  0  0  0  0  0  0  0  0  0  0
  150.6337  144.5157  157.4097 H   0  0  0  0  0  0  0  0  0  0  0  0
  153.1312  144.1626  157.2730 H   0  0  0  0  0  0  0  0  0  0  0  0
  153.2263  144.0914  159.0108 H   0  0  0  0  0  0  0  0  0  0  0  0
  150.9272  138.4946  157.3406 H   0  0  0  0  0  0  0  0  0  0  0  0
  149.7166  139.6190  156.8300 H   0  0  0  0  0  0  0  0  0  0  0  0
  153.0613  138.0637  155.7288 H   0  0  0  0  0  0  0  0  0  0  0  0
  153.3767  139.7867  155.5407 H   0  0  0  0  0  0  0  0  0  0  0  0
  153.0379  138.7988  154.1322 H   0  0  0  0  0  0  0  0  0  0  0  0
  150.6226  137.1542  155.1508 H   0  0  0  0  0  0  0  0  0  0  0  0
  150.7093  137.9975  153.6100 H   0  0  0  0  0  0  0  0  0  0  0  0
  149.3743  138.3142  154.7119 H   0  0  0  0  0  0  0  0  0  0  0  0
  150.3148  140.9080  155.0966 H   0  0  0  0  0  0  0  0  0  0  0  0
  152.1868  138.1420  159.0925 H   0  0  0  0  0  0  0  0  0  0  0  0
  157.1793  138.8240  162.5924 H   0  0  0  0  0  0  0  0  0  0  0  0
  155.6587  138.9275  163.4769 H   0  0  0  0  0  0  0  0  0  0  0  0
  155.9197  139.9489  162.0533 H   0  0  0  0  0  0  0  0  0  0  0  0
  157.3474  137.4866  160.6377 H   0  0  0  0  0  0  0  0  0  0  0  0
  156.2263  138.5126  159.7238 H   0  0  0  0  0  0  0  0  0  0  0  0
  155.9124  136.7790  159.8919 H   0  0  0  0  0  0  0  0  0  0  0  0
  154.5005  140.5990  161.8248 H   0  0  0  0  0  0  0  0  0  0  0  0
  153.9407  142.6466  160.4912 H   0  0  0  0  0  0  0  0  0  0  0  0
  1  2  1  0  0  0  0
  1 24  1  0  0  0  0
  1 25  1  0  0  0  0
  1 26  1  0  0  0  0
  2  3  1  0  0  0  0
  2 27  1  0  0  0  0
  2 28  1  0  0  0  0
  3 23  1  0  0  0  0
  3  4  1  0  0  0  0
  4  5  2  0  0  0  0
  4  6  1  0  0  0  0
  6  7  1  0  0  0  0
  6 12  1  0  0  0  0
  7  8  1  0  0  0  0
  7 29  1  0  0  0  0
  7 30  1  0  0  0  0
  8  9  1  0  0  0  0
  8 10  1  0  0  0  0
  8 11  1  0  0  0  0
  9 31  1  0  0  0  0
  9 32  1  0  0  0  0
  9 33  1  0  0  0  0
 10 34  1  0  0  0  0
 10 35  1  0  0  0  0
 10 36  1  0  0  0  0
 11 37  1  0  0  0  0
 12 23  2  0  0  0  0
 12 13  1  0  0  0  0
 13 14  2  0  0  0  0
 13 38  1  0  0  0  0
 14 15  1  0  0  0  0
 14 21  1  0  0  0  0
 15 16  2  0  0  0  0
 15 17  2  0  0  0  0
 15 18  1  0  0  0  0
 18 19  1  0  0  0  0
 18 20  1  0  0  0  0
 19 39  1  0  0  0  0
 19 40  1  0  0  0  0
 19 41  1  0  0  0  0
 20 42  1  0  0  0  0
 20 43  1  0  0  0  0
 20 44  1  0  0  0  0
 21 22  2  0  0  0  0
 21 45  1  0  0  0  0
 22 23  1  0  0  0  0
 22 46  1  0  0  0  0
M  END
> <s_m_source_file>
AV-unprocessed.smi

> <i_m_source_file_index>
1146

> <i_lp_mmshare_version>
43012

> <i_f3d_flags>
0

> <s_epik_input>
W0NIM11DKFtDSDNdKShbT0hdKVtDSDJdbjFjKD1PKW4oW0NIMl1bQ0gzXSljKGMxMilbY0hdW2NIXWMoW2NIXTIpUyg9TykoPU8pTihbQ0gzXSlbQ0gzXQ==

> <s_epik_cmdline>
J2VwaWtfcHl0aG9uJywgJy1waCcsICc3LjAnLCAnLXRuJywgJzgnLCAnLW1hJywgJzIwMCcsICctbWV0YWxfYmluZGluZycsICctaW1hZScsICc8aW5maWxlLm1hZT4nLCAnLW9tYWUnLCAnPG91dGZpbGUubWFlPic=

> <r_lp_tautomer_probability>
1

> <r_epik_Ionization_Penalty>
3.29736e-08

> <r_epik_Ionization_Penalty_Charging>
1.95861e-09

> <r_epik_Ionization_Penalty_Neutral>
3.1015e-08

> <r_epik_State_Penalty>
-0

> <r_epik_Charging_Adjusted_Penalty>
1.95861e-09

> <i_epik_Tot_Q>
0

> <i_epik_Tot_abs_Q>
0

> <r_epik_Metal_State_Penalty>
-0

> <b_epik_Metal_Only>
0

> <s_lp_Force_Field>
OPLS_2005

> <r_lp_Energy>
36.7985

> <b_lp_Chiralities_Consistent>
1

> <s_lp_Variant>
AV-unprocessed.smi:1146-1

> <Gold.Version>
5.8.1

> <Gold.Id.Protein>
6NUR|6NUR_protein|mol2

> <Gold.PLP.Fitness>
47.2067

> <Gold.PLP.PLP>
-41.9939

> <Gold.PLP.part.hbond>
-2.0000

> <Gold.PLP.part.metal>
0.0000

> <Gold.PLP.part.buried>
-5.0467

> <Gold.PLP.part.nonpolar>
-34.8404

> <Gold.PLP.part.repulsive>
0.1145

> <Gold.PLP.ligand.clash>
0.0000

> <Gold.PLP.ligand.torsion>
1.5003

> <Gold.PLP.Chemscore.Hbond>
1.8000

> <Gold.PLP.Chemscore.CHOScore>
0.0000

> <Gold.PLP.Chemscore.Metal>
0.0000

> <Gold.Chemscore.Hbonds>
donor molecule, donor type, donor heavy atom, donor atom, acceptor molecule, acceptor atom, score
      P1  H  6896  6908       L1    17  0.57
      P1  H  7989  7998       L1    11  0.62

> <Gold.PLP.Chemscore.Internal.Correction>
2.8134

> <Gold.Rescore>
     Score         DG    S(hbond)    S(metal)    S(lipo)     H(rot)  DE(clash)    DE(int)     intcor
     16.51     -18.15       1.97        0.00      96.59       2.04       0.00       1.64       ----

> <Gold.Chemscore.Fitness>
16.5066

> <Gold.Chemscore.DG>
-18.1509

> <Gold.Chemscore.ZeroCoef>
-5.4800

> <Gold.Chemscore.Hbond>
1.9726

> <Gold.Chemscore.Metal>
0.0000

> <Gold.Chemscore.Lipo>
96.5865

> <Gold.Chemscore.Internal_Hbond>
0.0000

> <Gold.Chemscore.DEClash>
0.0015

> <Gold.Chemscore.DEInternal>
1.6428

> <Gold.Chemscore.Rot>
2.0383

> <Gold.Chemscore.Internal.Correction>
   9.000000E+99

> <Gold.Chemscore.Hbonds>
donor molecule, donor type, donor heavy atom, donor atom, acceptor molecule, acceptor atom, score
      P1  H  6896  6908       L1    17  0.56
      P1  H  7989  7998       L1    11  0.62

> <Gold.Chemscore.Hbond.Weighted>
-6.5884

> <Gold.Chemscore.Metal.Weighted>
-0.0000

> <Gold.Chemscore.Lipo.Weighted>
-11.3006

> <Gold.Chemscore.Internal_Hbond.Weighted>
0.0000

> <Gold.Chemscore.DEClash.Weighted>
0.0015

> <Gold.Chemscore.DEInternal.Weighted>
1.6428

> <Gold.Chemscore.Rot.Weighted>
5.2181

> <Gold.Chemscore.Internal.Correction.Weighted>
   9.000000E+99

> <Gold.Protein.RotatedTorsions>
[ 6907 6896 6895 6894 ] final  -82.32 input  -60.11 | X-H torsion
[ 7974 7965 7964 7962 ] final   16.82 input  175.53 | X-H torsion
[ 8008 7997 7996 7995 ] final  174.82 input   59.86 | X-H torsion
[ 10167 10162 10161 10158 ] final   42.91 input  -65.29 | X-H torsion
[ 10718 10713 10712 10709 ] final  100.99 input   66.30 | X-H torsion
[ 10763 10752 10751 10750 ] final -152.22 input  -60.55 | X-H torsion
[ 11005 11000 10999 10996 ] final   17.95 input  -57.11 | X-H torsion

> <Gold.Protein.ActiveResidues>
 VAL166  LYS551  ARG553  GLY616  TRP617  ASP618  TYR619  PRO620  LYS621  CYS622 
 ASP623  PHE694  ASN695  SER759  ASP760  ASP761  ALA762  ILE779  LEU786  VAL792 
 PHE793  MET794  SER795  GLU796  ALA797  LYS798  CYS799  TRP800  GLU811  SER814 

> <Gold.Protein.RotatedAtoms>
  150.6899  134.3683  159.4980 H   0  0  0  0  0  0  0  0  0  0  0  0  # atno 6907 bound_to 6896
  152.1502  134.8991  160.0557 H   0  0  0  0  0  0  0  0  0  0  0  0  # atno 6908 bound_to 6896
  152.0091  133.3820  159.4249 H   0  0  0  0  0  0  0  0  0  0  0  0  # atno 6909 bound_to 6896
  146.2238  139.8691  142.8590 H   0  0  0  0  0  0  0  0  0  0  0  0  # atno 7974 bound_to 7965
  156.0934  140.1424  156.9562 H   0  0  0  0  0  0  0  0  0  0  0  0  # atno 8008 bound_to 7997
  154.4656  140.0927  156.7058 H   0  0  0  0  0  0  0  0  0  0  0  0  # atno 8009 bound_to 7997
  155.4881  140.3447  155.4352 H   0  0  0  0  0  0  0  0  0  0  0  0  # atno 8010 bound_to 7997
  140.3497  144.2366  150.6147 H   0  0  0  0  0  0  0  0  0  0  0  0  # atno 10167 bound_to 10162
  157.6840  131.0714  150.5185 H   0  0  0  0  0  0  0  0  0  0  0  0  # atno 10718 bound_to 10713
  154.8008  135.3241  154.7555 H   0  0  0  0  0  0  0  0  0  0  0  0  # atno 10763 bound_to 10752
  153.8223  135.6886  153.4830 H   0  0  0  0  0  0  0  0  0  0  0  0  # atno 10764 bound_to 10752
  153.1724  135.4618  154.9863 H   0  0  0  0  0  0  0  0  0  0  0  0  # atno 10765 bound_to 10752
  140.4302  134.1427  155.7680 H   0  0  0  0  0  0  0  0  0  0  0  0  # atno 11005 bound_to 11000
  145.2626  141.0082  143.3818 LP  0  0  0  0  0  0  0  0  0  0  0  0  # atno 17320 bound_to 7965
  144.9286  139.4325  143.6506 LP  0  0  0  0  0  0  0  0  0  0  0  0  # atno 17321 bound_to 7965
  140.5231  143.2261  151.8358 LP  0  0  0  0  0  0  0  0  0  0  0  0  # atno 17342 bound_to 10162
  139.4828  144.4813  151.9303 LP  0  0  0  0  0  0  0  0  0  0  0  0  # atno 17343 bound_to 10162
  156.5499  130.4229  149.6113 LP  0  0  0  0  0  0  0  0  0  0  0  0  # atno 17370 bound_to 10713
  156.2911  130.7125  151.1974 LP  0  0  0  0  0  0  0  0  0  0  0  0  # atno 17371 bound_to 10713
  141.1748  133.8535  157.1455 LP  0  0  0  0  0  0  0  0  0  0  0  0  # atno 17394 bound_to 11000
  140.0139  134.9976  157.0453 LP  0  0  0  0  0  0  0  0  0  0  0  0  # atno 17395 bound_to 11000

$$$$
