AV-unprocessed.smi:1702|AV-procd|sdf|6852|dock5
  -GOLD-   22720 8 33D 1   1.00000     0.00000
 Structure written by MMmdl.
 45 47  0  0  0  0  0  0  0  0  3 V2000
  148.4956  134.0035  156.6737 C   0  0  0  0  0  0  0  0  0  0  0  0
  148.3856  134.3013  155.1676 C   0  0  2  0  0  0  0  0  0  0  0  0
  149.7331  134.1732  154.4343 C   0  0  0  0  0  0  0  0  0  0  0  0
  150.6777  135.3495  154.7408 C   0  0  0  0  0  0  0  0  0  0  0  0
  150.0337  136.6525  154.4260 N   0  3  2  0  0  0  0  0  0  0  0  0
  150.9472  137.8141  154.5846 C   0  0  0  0  0  0  0  0  0  0  0  0
  150.8903  138.4241  155.9995 C   0  0  1  0  0  0  0  0  0  0  0  0
  151.1264  137.4012  156.9482 O   0  0  0  0  0  0  0  0  0  0  0  0
  151.9400  139.5377  156.1855 C   0  0  0  0  0  0  0  0  0  0  0  0
  151.3560  140.8023  156.6541 N   0  0  0  0  0  0  0  0  0  0  0  0
  150.4124  141.5980  156.0796 C   0  0  0  0  0  0  0  0  0  0  0  0
  150.2097  142.6597  156.9082 N   0  3  0  0  0  0  0  0  0  0  0  0
  151.0350  142.5414  158.0287 C   0  0  0  0  0  0  0  0  0  0  0  0
  151.1887  143.3647  159.1396 C   0  0  0  0  0  0  0  0  0  0  0  0
  152.1245  142.9525  160.1111 C   0  0  0  0  0  0  0  0  0  0  0  0
  152.3146  143.7178  161.2117 F   0  0  0  0  0  0  0  0  0  0  0  0
  152.8647  141.7609  159.9579 C   0  0  0  0  0  0  0  0  0  0  0  0
  153.7531  141.4013  160.9143 F   0  0  0  0  0  0  0  0  0  0  0  0
  152.6998  140.9337  158.8270 C   0  0  0  0  0  0  0  0  0  0  0  0
  151.7737  141.3498  157.8719 C   0  0  0  0  0  0  0  0  0  0  0  0
  148.7620  136.8290  155.1737 C   0  0  0  0  0  0  0  0  0  0  0  0
  147.7762  135.6846  154.8771 C   0  0  0  0  0  0  0  0  0  0  0  0
  149.1522  134.7058  157.1867 H   0  0  0  0  0  0  0  0  0  0  0  0
  148.8883  133.0008  156.8455 H   0  0  0  0  0  0  0  0  0  0  0  0
  147.5182  134.0569  157.1539 H   0  0  0  0  0  0  0  0  0  0  0  0
  147.7116  133.5504  154.7532 H   0  0  0  0  0  0  0  0  0  0  0  0
  150.2143  133.2283  154.6902 H   0  0  0  0  0  0  0  0  0  0  0  0
  149.5524  134.1373  153.3589 H   0  0  0  0  0  0  0  0  0  0  0  0
  150.9782  135.3322  155.7891 H   0  0  0  0  0  0  0  0  0  0  0  0
  151.5886  135.2267  154.1560 H   0  0  0  0  0  0  0  0  0  0  0  0
  151.9753  137.5083  154.3832 H   0  0  0  0  0  0  0  0  0  0  0  0
  150.7047  138.5661  153.8322 H   0  0  0  0  0  0  0  0  0  0  0  0
  149.9025  138.8409  156.1926 H   0  0  0  0  0  0  0  0  0  0  0  0
  150.3515  137.2948  157.4794 H   0  0  0  0  0  0  0  0  0  0  0  0
  152.6908  139.2341  156.9165 H   0  0  0  0  0  0  0  0  0  0  0  0
  152.4766  139.7293  155.2553 H   0  0  0  0  0  0  0  0  0  0  0  0
  149.9155  141.4216  155.1362 H   0  0  0  0  0  0  0  0  0  0  0  0
  150.6241  144.2774  159.2614 H   0  0  0  0  0  0  0  0  0  0  0  0
  153.2713  140.0240  158.7209 H   0  0  0  0  0  0  0  0  0  0  0  0
  148.9699  136.8909  156.2427 H   0  0  0  0  0  0  0  0  0  0  0  0
  148.2981  137.7743  154.8893 H   0  0  0  0  0  0  0  0  0  0  0  0
  147.4857  135.7329  153.8265 H   0  0  0  0  0  0  0  0  0  0  0  0
  146.8583  135.8218  155.4496 H   0  0  0  0  0  0  0  0  0  0  0  0
  149.7797  136.6272  153.4484 H   0  0  0  0  0  0  0  0  0  0  0  0
  149.5554  143.4088  156.7196 H   0  0  0  0  0  0  0  0  0  0  0  0
  1  2  1  0  0  0  0
  1 23  1  0  0  0  0
  1 24  1  0  0  0  0
  1 25  1  0  0  0  0
  2 22  1  0  0  0  0
  2  3  1  0  0  0  0
  2 26  1  0  0  0  0
  3  4  1  0  0  0  0
  3 27  1  0  0  0  0
  3 28  1  0  0  0  0
  4  5  1  0  0  0  0
  4 29  1  0  0  0  0
  4 30  1  0  0  0  0
  5  6  1  0  0  0  0
  5 21  1  0  0  0  0
  5 44  1  0  0  0  0
  6  7  1  0  0  0  0
  6 31  1  0  0  0  0
  6 32  1  0  0  0  0
  7  8  1  0  0  0  0
  7  9  1  0  0  0  0
  7 33  1  0  0  0  0
  8 34  1  0  0  0  0
  9 10  1  0  0  0  0
  9 35  1  0  0  0  0
  9 36  1  0  0  0  0
 10 20  1  0  0  0  0
 10 11  1  0  0  0  0
 11 12  2  0  0  0  0
 11 37  1  0  0  0  0
 12 13  1  0  0  0  0
 12 45  1  0  0  0  0
 13 20  2  0  0  0  0
 13 14  1  0  0  0  0
 14 15  2  0  0  0  0
 14 38  1  0  0  0  0
 15 16  1  0  0  0  0
 15 17  1  0  0  0  0
 17 18  1  0  0  0  0
 17 19  2  0  0  0  0
 19 20  1  0  0  0  0
 19 39  1  0  0  0  0
 21 22  1  0  0  0  0
 21 40  1  0  0  0  0
 21 41  1  0  0  0  0
 22 42  1  0  0  0  0
 22 43  1  0  0  0  0
M  CHG  1   5   1
M  CHG  1  12   1
M  END
> <s_m_source_file>
AV-unprocessed.smi

> <i_m_source_file_index>
1702

> <i_lp_mmshare_version>
43012

> <i_f3d_flags>
0

> <s_epik_input>
W0NIM11bQ0hdMVtDSDJdW0NIMl1OKFtDSDJdW0NIMl0xKVtDSDJdW0NASF0oW09IXSlbQ0gyXW4oW2NIXW4yKWMoYzIzKVtjSF1jKEYpYyhGKVtjSF0z

> <s_epik_cmdline>
J2VwaWtfcHl0aG9uJywgJy1waCcsICc3LjAnLCAnLXRuJywgJzgnLCAnLW1hJywgJzIwMCcsICctbWV0YWxfYmluZGluZycsICctaW1hZScsICc8aW5maWxlLm1hZT4nLCAnLW9tYWUnLCAnPG91dGZpbGUubWFlPic=

> <r_epik_Ionization_Penalty>
2.33291

> <r_epik_Ionization_Penalty_Charging>
2.33291

> <r_epik_Ionization_Penalty_Neutral>
6.90208e-07

> <r_epik_State_Penalty>
2.4838

> <r_epik_Charging_Adjusted_Penalty>
4.81672

> <i_epik_Tot_Q>
2

> <i_epik_Tot_abs_Q>
2

> <r_epik_Metal_State_Penalty>
6.56754

> <b_epik_Metal_Only>
0

> <s_lp_Force_Field>
OPLS_2005

> <r_lp_Energy>
31.9784

> <b_lp_Chiralities_Consistent>
1

> <s_lp_Variant>
AV-unprocessed.smi:1702-8

> <Gold.Version>
5.8.1

> <Gold.Id.Protein>
6NUR|6NUR_protein|mol2

> <Gold.PLP.Fitness>
52.3515

> <Gold.PLP.PLP>
-42.4605

> <Gold.PLP.part.hbond>
-2.2009

> <Gold.PLP.part.metal>
0.0000

> <Gold.PLP.part.buried>
-5.7817

> <Gold.PLP.part.nonpolar>
-35.6811

> <Gold.PLP.part.repulsive>
0.0988

> <Gold.PLP.ligand.clash>
0.0000

> <Gold.PLP.ligand.torsion>
1.0689

> <Gold.PLP.Chemscore.Hbond>
4.0000

> <Gold.PLP.Chemscore.CHOScore>
0.0000

> <Gold.PLP.Chemscore.Metal>
0.0000

> <Gold.Chemscore.Hbonds>
donor molecule, donor type, donor heavy atom, donor atom, acceptor molecule, acceptor atom, score
      L1  H     5    44       P1  7948  2.00
      L1  H    12    45       P1  8028  2.00

> <Gold.PLP.Chemscore.Internal.Correction>
0.0288

> <Gold.Rescore>
     Score         DG    S(hbond)    S(metal)    S(lipo)     H(rot)  DE(clash)    DE(int)     intcor
     15.28     -16.47       1.90        0.00      90.58       2.32       0.13       1.06       ----

> <Gold.Chemscore.Fitness>
15.2818

> <Gold.Chemscore.DG>
-16.4737

> <Gold.Chemscore.ZeroCoef>
-5.4800

> <Gold.Chemscore.Hbond>
1.8975

> <Gold.Chemscore.Metal>
0.0000

> <Gold.Chemscore.Lipo>
90.5778

> <Gold.Chemscore.Internal_Hbond>
0.0000

> <Gold.Chemscore.DEClash>
0.1333

> <Gold.Chemscore.DEInternal>
1.0586

> <Gold.Chemscore.Rot>
2.3210

> <Gold.Chemscore.Internal.Correction>
   9.000000E+99

> <Gold.Chemscore.Hbonds>
donor molecule, donor type, donor heavy atom, donor atom, acceptor molecule, acceptor atom, score
      L1  H     5    44       P1  7948  0.35
      L1  H    12    45       P1  8028  0.96

> <Gold.Chemscore.Hbond.Weighted>
-6.3377

> <Gold.Chemscore.Metal.Weighted>
-0.0000

> <Gold.Chemscore.Lipo.Weighted>
-10.5976

> <Gold.Chemscore.Internal_Hbond.Weighted>
0.0000

> <Gold.Chemscore.DEClash.Weighted>
0.1333

> <Gold.Chemscore.DEInternal.Weighted>
1.0586

> <Gold.Chemscore.Rot.Weighted>
5.9416

> <Gold.Chemscore.Internal.Correction.Weighted>
   9.000000E+99

> <Gold.Protein.RotatedTorsions>
[ 6907 6896 6895 6894 ] final -177.77 input  -60.11 | X-H torsion
[ 7974 7965 7964 7962 ] final  -64.19 input  175.53 | X-H torsion
[ 8008 7997 7996 7995 ] final  134.66 input   59.86 | X-H torsion
[ 10167 10162 10161 10158 ] final   48.64 input  -65.29 | X-H torsion
[ 10718 10713 10712 10709 ] final  128.12 input   66.30 | X-H torsion
[ 10763 10752 10751 10750 ] final -146.05 input  -60.55 | X-H torsion
[ 11005 11000 10999 10996 ] final   19.47 input  -57.11 | X-H torsion

> <Gold.Protein.ActiveResidues>
 VAL166  LYS551  ARG553  GLY616  TRP617  ASP618  TYR619  PRO620  LYS621  CYS622 
 ASP623  PHE694  ASN695  SER759  ASP760  ASP761  ALA762  ILE779  LEU786  VAL792 
 PHE793  MET794  SER795  GLU796  ALA797  LYS798  CYS799  TRP800  GLU811  SER814 

> <Gold.Protein.RotatedAtoms>
  151.6264  133.3335  159.3099 H   0  0  0  0  0  0  0  0  0  0  0  0  # atno 6907 bound_to 6896
  150.8079  134.7219  159.6672 H   0  0  0  0  0  0  0  0  0  0  0  0  # atno 6908 bound_to 6896
  152.4175  134.6020  160.0054 H   0  0  0  0  0  0  0  0  0  0  0  0  # atno 6909 bound_to 6896
  145.7698  140.8819  143.0386 H   0  0  0  0  0  0  0  0  0  0  0  0  # atno 7974 bound_to 7965
  156.3000  140.2490  156.3454 H   0  0  0  0  0  0  0  0  0  0  0  0  # atno 8008 bound_to 7997
  154.9016  140.0406  157.1915 H   0  0  0  0  0  0  0  0  0  0  0  0  # atno 8009 bound_to 7997
  154.8495  140.2903  155.5611 H   0  0  0  0  0  0  0  0  0  0  0  0  # atno 8010 bound_to 7997
  140.2912  144.3044  150.6240 H   0  0  0  0  0  0  0  0  0  0  0  0  # atno 10167 bound_to 10162
  157.5273  131.1098  150.9063 H   0  0  0  0  0  0  0  0  0  0  0  0  # atno 10718 bound_to 10713
  154.8354  135.3397  154.6601 H   0  0  0  0  0  0  0  0  0  0  0  0  # atno 10763 bound_to 10752
  153.7216  135.6958  153.5016 H   0  0  0  0  0  0  0  0  0  0  0  0  # atno 10764 bound_to 10752
  153.2377  135.4395  155.0617 H   0  0  0  0  0  0  0  0  0  0  0  0  # atno 10765 bound_to 10752
  140.4133  134.1595  155.7668 H   0  0  0  0  0  0  0  0  0  0  0  0  # atno 11005 bound_to 11000
  144.6815  139.9839  143.7483 LP  0  0  0  0  0  0  0  0  0  0  0  0  # atno 17320 bound_to 7965
  146.0181  139.3227  143.0829 LP  0  0  0  0  0  0  0  0  0  0  0  0  # atno 17321 bound_to 7965
  140.5731  143.2179  151.7564 LP  0  0  0  0  0  0  0  0  0  0  0  0  # atno 17342 bound_to 10162
  139.4937  144.4189  152.0000 LP  0  0  0  0  0  0  0  0  0  0  0  0  # atno 17343 bound_to 10162
  156.9656  130.5471  149.5288 LP  0  0  0  0  0  0  0  0  0  0  0  0  # atno 17370 bound_to 10713
  156.0396  130.5480  150.8738 LP  0  0  0  0  0  0  0  0  0  0  0  0  # atno 17371 bound_to 10713
  141.1812  133.8409  157.1249 LP  0  0  0  0  0  0  0  0  0  0  0  0  # atno 17394 bound_to 11000
  140.0252  134.9927  157.0671 LP  0  0  0  0  0  0  0  0  0  0  0  0  # atno 17395 bound_to 11000

$$$$
