AV-unprocessed.smi:630|AV-procd|sdf|3118|dock4
  -GOLD-   22720 0 43D 1   1.00000     0.00000
 Structure written by MMmdl.
 37 38  0  0  0  0  0  0  0  0  1 V2000
  149.7963  135.8535  154.7291 N   0  0  0  0  0  0  0  0  0  0  0  0
  149.5771  136.7215  155.7204 C   0  0  0  0  0  0  0  0  0  0  0  0
  149.9793  136.5164  156.8648 O   0  0  0  0  0  0  0  0  0  0  0  0
  148.7791  137.9952  155.3783 C   0  0  1  0  0  0  0  0  0  0  0  0
  149.5586  138.8732  154.3673 C   0  0  0  0  0  0  0  0  0  0  0  0
  149.1393  140.3533  154.4111 C   0  0  0  0  0  0  0  0  0  0  0  0
  147.9361  140.7377  153.5311 C   0  0  0  0  0  0  0  0  0  0  0  0
  146.8011  139.7059  153.4049 C   0  0  0  0  0  0  0  0  0  0  0  0
  146.4594  138.9235  154.6887 C   0  0  0  0  0  0  0  0  0  0  0  0
  147.3273  137.6657  154.9373 C   0  0  1  0  0  0  0  0  0  0  0  0
  147.2946  136.7581  153.7857 N   0  0  0  0  0  0  0  0  0  0  0  0
  146.2415  136.0270  153.3938 C   0  0  0  0  0  0  0  0  0  0  0  0
  145.1489  136.0483  153.9615 O   0  0  0  0  0  0  0  0  0  0  0  0
  146.5444  135.2835  152.3156 N   0  0  0  0  0  0  0  0  0  0  0  0
  145.7098  134.3791  151.6091 C   0  0  0  0  0  0  0  0  0  0  0  0
  144.3746  134.3583  151.6957 N   0  0  0  0  0  0  0  0  0  0  0  0
  143.8132  133.3615  150.8934 C   0  0  0  0  0  0  0  0  0  0  0  0
  144.7421  132.6290  150.1970 C   0  0  0  0  0  0  0  0  0  0  0  0
  146.3688  133.1640  150.5235 S   0  0  0  0  0  0  0  0  0  0  0  0
  150.3194  135.0092  154.9105 H   0  0  0  0  0  0  0  0  0  0  0  0
  149.4441  136.0449  153.8023 H   0  0  0  0  0  0  0  0  0  0  0  0
  148.7099  138.5605  156.3095 H   0  0  0  0  0  0  0  0  0  0  0  0
  150.6210  138.8341  154.6147 H   0  0  0  0  0  0  0  0  0  0  0  0
  149.4810  138.4808  153.3525 H   0  0  0  0  0  0  0  0  0  0  0  0
  148.9437  140.6473  155.4428 H   0  0  0  0  0  0  0  0  0  0  0  0
  149.9853  140.9675  154.1003 H   0  0  0  0  0  0  0  0  0  0  0  0
  147.5249  141.6726  153.9140 H   0  0  0  0  0  0  0  0  0  0  0  0
  148.2915  140.9690  152.5264 H   0  0  0  0  0  0  0  0  0  0  0  0
  145.9083  140.2393  153.0772 H   0  0  0  0  0  0  0  0  0  0  0  0
  147.0265  139.0203  152.5885 H   0  0  0  0  0  0  0  0  0  0  0  0
  146.4911  139.5865  155.5540 H   0  0  0  0  0  0  0  0  0  0  0  0
  145.4200  138.6011  154.6146 H   0  0  0  0  0  0  0  0  0  0  0  0
  146.8712  137.1370  155.7770 H   0  0  0  0  0  0  0  0  0  0  0  0
  148.1522  136.6688  153.2604 H   0  0  0  0  0  0  0  0  0  0  0  0
  147.4845  135.3727  151.9598 H   0  0  0  0  0  0  0  0  0  0  0  0
  142.7400  133.2430  150.8771 H   0  0  0  0  0  0  0  0  0  0  0  0
  144.5679  131.8104  149.5146 H   0  0  0  0  0  0  0  0  0  0  0  0
  1  2  1  0  0  0  0
  1 20  1  0  0  0  0
  1 21  1  0  0  0  0
  2  3  2  0  0  0  0
  2  4  1  0  0  0  0
  4 10  1  0  0  0  0
  4  5  1  0  0  0  0
  4 22  1  0  0  0  0
  5  6  1  0  0  0  0
  5 23  1  0  0  0  0
  5 24  1  0  0  0  0
  6  7  1  0  0  0  0
  6 25  1  0  0  0  0
  6 26  1  0  0  0  0
  7  8  1  0  0  0  0
  7 27  1  0  0  0  0
  7 28  1  0  0  0  0
  8  9  1  0  0  0  0
  8 29  1  0  0  0  0
  8 30  1  0  0  0  0
  9 10  1  0  0  0  0
  9 31  1  0  0  0  0
  9 32  1  0  0  0  0
 10 11  1  0  0  0  0
 10 33  1  0  0  0  0
 11 12  1  0  0  0  0
 11 34  1  0  0  0  0
 12 13  2  0  0  0  0
 12 14  1  0  0  0  0
 14 15  1  0  0  0  0
 14 35  1  0  0  0  0
 15 19  1  0  0  0  0
 15 16  2  0  0  0  0
 16 17  1  0  0  0  0
 17 18  2  0  0  0  0
 17 36  1  0  0  0  0
 18 19  1  0  0  0  0
 18 37  1  0  0  0  0
M  END
> <s_m_source_file>
AV-unprocessed.smi

> <i_m_source_file_index>
630

> <i_lp_mmshare_version>
43012

> <i_f3d_flags>
0

> <s_epik_input>
W05IMl1DKD1PKVtDQEBIXTFbQ0gyXVtDSDJdW0NIMl1bQ0gyXVtDSDJdW0NASF0xW05IXUMoPU8pW05IXWMybltjSF1bY0hdczI=

> <s_epik_cmdline>
J2VwaWtfcHl0aG9uJywgJy1waCcsICc3LjAnLCAnLXRuJywgJzgnLCAnLW1hJywgJzIwMCcsICctbWV0YWxfYmluZGluZycsICctaW1hZScsICc8aW5maWxlLm1hZT4nLCAnLW9tYWUnLCAnPG91dGZpbGUubWFlPic=

> <r_lp_tautomer_probability>
0.999

> <r_epik_Ionization_Penalty>
0.000342689

> <r_epik_Ionization_Penalty_Charging>
0

> <r_epik_Ionization_Penalty_Neutral>
0.000342689

> <r_epik_State_Penalty>
0.000177984

> <r_epik_Charging_Adjusted_Penalty>
0.000177984

> <i_epik_Tot_Q>
0

> <i_epik_Tot_abs_Q>
0

> <r_epik_Metal_State_Penalty>
0.00743087

> <b_epik_Metal_Only>
0

> <s_lp_Force_Field>
OPLS_2005

> <r_lp_Energy>
14.0273

> <b_lp_Chiralities_Consistent>
1

> <s_lp_Variant>
AV-unprocessed.smi:630-2

> <Gold.Version>
5.8.1

> <Gold.Id.Protein>
6NUR|6NUR_protein|mol2

> <Gold.PLP.Fitness>
36.4363

> <Gold.PLP.PLP>
-24.8888

> <Gold.PLP.part.hbond>
-3.0000

> <Gold.PLP.part.metal>
0.0000

> <Gold.PLP.part.buried>
-2.0455

> <Gold.PLP.part.nonpolar>
-20.5528

> <Gold.PLP.part.repulsive>
0.2263

> <Gold.PLP.ligand.clash>
0.0000

> <Gold.PLP.ligand.torsion>
0.2774

> <Gold.PLP.Chemscore.Hbond>
3.0000

> <Gold.PLP.Chemscore.CHOScore>
1.0000

> <Gold.PLP.Chemscore.Metal>
0.0000

> <Gold.Chemscore.Hbonds>
donor molecule, donor type, donor heavy atom, donor atom, acceptor molecule, acceptor atom, score
      L1  H     1    21       P1  7948  1.00
      L1  H    11    34       P1  7948  1.00
      L1  H    14    35       P1  7948  1.00
      L1  C    17    36       P1 10186  1.00

> <Gold.PLP.Chemscore.Internal.Correction>
0.1023

> <Gold.Rescore>
     Score         DG    S(hbond)    S(metal)    S(lipo)     H(rot)  DE(clash)    DE(int)     intcor
     14.75     -17.84       2.85        0.00      57.49       1.52       0.11       2.98       ----

> <Gold.Chemscore.Fitness>
14.7519

> <Gold.Chemscore.DG>
-17.8421

> <Gold.Chemscore.ZeroCoef>
-5.4800

> <Gold.Chemscore.Hbond>
2.8510

> <Gold.Chemscore.Metal>
0.0000

> <Gold.Chemscore.Lipo>
57.4945

> <Gold.Chemscore.Internal_Hbond>
0.0000

> <Gold.Chemscore.DEClash>
0.1064

> <Gold.Chemscore.DEInternal>
2.9837

> <Gold.Chemscore.Rot>
1.5184

> <Gold.Chemscore.Internal.Correction>
   9.000000E+99

> <Gold.Chemscore.Hbonds>
donor molecule, donor type, donor heavy atom, donor atom, acceptor molecule, acceptor atom, score
      L1  H     1    21       P1  7948  0.64
      L1  H    11    34       P1  7948  0.94
      L1  H    14    35       P1  7948  0.95

> <Gold.Chemscore.Hbond.Weighted>
-9.5224

> <Gold.Chemscore.Metal.Weighted>
-0.0000

> <Gold.Chemscore.Lipo.Weighted>
-6.7269

> <Gold.Chemscore.Internal_Hbond.Weighted>
0.0000

> <Gold.Chemscore.DEClash.Weighted>
0.1064

> <Gold.Chemscore.DEInternal.Weighted>
2.9837

> <Gold.Chemscore.Rot.Weighted>
3.8872

> <Gold.Chemscore.Internal.Correction.Weighted>
   9.000000E+99

> <Gold.Protein.RotatedTorsions>
[ 6907 6896 6895 6894 ] final   43.67 input  -60.11 | X-H torsion
[ 7974 7965 7964 7962 ] final  -37.38 input  175.53 | X-H torsion
[ 8008 7997 7996 7995 ] final  111.66 input   59.86 | X-H torsion
[ 10167 10162 10161 10158 ] final  -31.52 input  -65.29 | X-H torsion
[ 10718 10713 10712 10709 ] final -148.75 input   66.30 | X-H torsion
[ 10763 10752 10751 10750 ] final -106.69 input  -60.55 | X-H torsion
[ 11005 11000 10999 10996 ] final -148.13 input  -57.11 | X-H torsion

> <Gold.Protein.ActiveResidues>
 VAL166  LYS551  ARG553  GLY616  TRP617  ASP618  TYR619  PRO620  LYS621  CYS622 
 ASP623  PHE694  ASN695  SER759  ASP760  ASP761  ALA762  ILE779  LEU786  VAL792 
 PHE793  MET794  SER795  GLU796  ALA797  LYS798  CYS799  TRP800  GLU811  SER814 

> <Gold.Protein.RotatedAtoms>
  152.2231  134.8394  160.0483 H   0  0  0  0  0  0  0  0  0  0  0  0  # atno 6907 bound_to 6896
  151.9170  133.3571  159.3892 H   0  0  0  0  0  0  0  0  0  0  0  0  # atno 6908 bound_to 6896
  150.7005  134.4599  159.5419 H   0  0  0  0  0  0  0  0  0  0  0  0  # atno 6909 bound_to 6896
  146.0580  140.6389  142.9010 H   0  0  0  0  0  0  0  0  0  0  0  0  # atno 7974 bound_to 7965
  156.2139  140.3015  155.9795 H   0  0  0  0  0  0  0  0  0  0  0  0  # atno 8008 bound_to 7997
  155.2654  140.0431  157.3019 H   0  0  0  0  0  0  0  0  0  0  0  0  # atno 8009 bound_to 7997
  154.5739  140.2356  155.8159 H   0  0  0  0  0  0  0  0  0  0  0  0  # atno 8010 bound_to 7997
  140.7235  143.3765  151.1680 H   0  0  0  0  0  0  0  0  0  0  0  0  # atno 10167 bound_to 10162
  156.4242  130.8044  151.2268 H   0  0  0  0  0  0  0  0  0  0  0  0  # atno 10718 bound_to 10713
  154.8028  135.4702  154.0318 H   0  0  0  0  0  0  0  0  0  0  0  0  # atno 10763 bound_to 10752
  153.1810  135.6840  153.8484 H   0  0  0  0  0  0  0  0  0  0  0  0  # atno 10764 bound_to 10752
  153.8035  135.3227  155.3370 H   0  0  0  0  0  0  0  0  0  0  0  0  # atno 10765 bound_to 10752
  140.7644  134.3261  157.5092 H   0  0  0  0  0  0  0  0  0  0  0  0  # atno 11005 bound_to 11000
  144.7158  140.4206  143.7045 LP  0  0  0  0  0  0  0  0  0  0  0  0  # atno 17320 bound_to 7965
  145.6610  139.1581  143.2808 LP  0  0  0  0  0  0  0  0  0  0  0  0  # atno 17321 bound_to 7965
  139.7346  143.9019  152.3030 LP  0  0  0  0  0  0  0  0  0  0  0  0  # atno 17342 bound_to 10162
  139.8820  144.7012  150.8867 LP  0  0  0  0  0  0  0  0  0  0  0  0  # atno 17343 bound_to 10162
  157.7508  131.0218  150.3767 LP  0  0  0  0  0  0  0  0  0  0  0  0  # atno 17370 bound_to 10713
  156.4091  130.3930  149.6905 LP  0  0  0  0  0  0  0  0  0  0  0  0  # atno 17371 bound_to 10713
  139.8765  134.9222  156.3295 LP  0  0  0  0  0  0  0  0  0  0  0  0  # atno 17394 bound_to 11000
  140.9633  133.7375  156.0431 LP  0  0  0  0  0  0  0  0  0  0  0  0  # atno 17395 bound_to 11000

$$$$
