AV-unprocessed.smi:234|AV-procd|sdf|1799|dock8
  -GOLD-   2262020373D 1   1.00000     0.00000
 Structure written by MMmdl.
 59 62  0  0  0  0  0  0  0  0  1 V2000
  153.1652  143.3921  161.7194 C   0  0  0  0  0  0  0  0  0  0  0  0
  153.1256  143.7431  160.2259 C   0  0  0  0  0  0  0  0  0  0  0  0
  153.3800  142.6094  159.4077 O   0  0  0  0  0  0  0  0  0  0  0  0
  152.2527  141.7760  159.1706 C   0  0  2  0  0  0  0  0  0  0  0  0
  152.5191  140.7790  158.0453 C   0  0  0  0  0  0  0  0  0  0  0  0
  151.0472  140.9810  157.6604 C   0  0  2  0  0  0  0  0  0  0  0  0
  150.7957  140.9708  156.2162 N   0  0  0  0  0  0  0  0  0  0  0  0
  149.5598  141.5715  155.7281 C   0  0  0  0  0  0  0  0  0  0  0  0
  151.1128  139.8513  155.5213 C   0  0  0  0  0  0  0  0  0  0  0  0
  152.0124  139.9880  154.5143 N   0  0  0  0  0  0  0  0  0  0  0  0
  152.3673  138.9292  153.7812 C   0  0  0  0  0  0  0  0  0  0  0  0
  151.9478  137.6669  153.8813 N   0  0  0  0  0  0  0  0  0  0  0  0
  151.0352  137.5241  154.8851 C   0  0  0  0  0  0  0  0  0  0  0  0
  150.5581  138.5563  155.7424 C   0  0  0  0  0  0  0  0  0  0  0  0
  149.6128  138.0359  156.6182 N   0  0  0  0  0  0  0  0  0  0  0  0
  149.5495  136.7701  156.3093 C   0  0  0  0  0  0  0  0  0  0  0  0
  150.3810  136.3709  155.2871 N   0  0  0  0  0  0  0  0  0  0  0  0
  150.5229  135.0313  154.7287 C   0  0  0  0  0  0  0  0  0  0  0  0
  149.1842  134.3782  154.2898 C   0  0  2  0  0  0  0  0  0  0  0  0
  148.3419  135.3964  153.7755 O   0  0  0  0  0  0  0  0  0  0  0  0
  148.4528  133.6800  155.4236 C   0  0  0  0  0  0  0  0  0  0  0  0
  147.5037  132.7296  154.6953 C   0  0  0  0  0  0  0  0  0  0  0  0
  148.0534  132.5270  153.3947 O   0  0  0  0  0  0  0  0  0  0  0  0
  149.2636  133.2633  153.2263 C   0  0  2  0  0  0  0  0  0  0  0  0
  150.3949  132.2350  153.4153 C   0  0  0  0  0  0  0  0  0  0  0  0
  151.1246  142.3965  158.3034 C   0  0  0  0  0  0  0  0  0  0  0  0
  149.8833  142.8518  159.0743 C   0  0  0  0  0  0  0  0  0  0  0  0
  151.5502  143.5626  157.3931 C   0  0  0  0  0  0  0  0  0  0  0  0
  153.0712  144.2920  162.3275 H   0  0  0  0  0  0  0  0  0  0  0  0
  154.1069  142.9100  161.9825 H   0  0  0  0  0  0  0  0  0  0  0  0
  152.3533  142.7227  162.0023 H   0  0  0  0  0  0  0  0  0  0  0  0
  152.1811  144.2173  159.9610 H   0  0  0  0  0  0  0  0  0  0  0  0
  153.9054  144.4755  160.0173 H   0  0  0  0  0  0  0  0  0  0  0  0
  151.8813  141.2664  160.0618 H   0  0  0  0  0  0  0  0  0  0  0  0
  153.2280  141.1455  157.3008 H   0  0  0  0  0  0  0  0  0  0  0  0
  152.7740  139.7748  158.3844 H   0  0  0  0  0  0  0  0  0  0  0  0
  150.3870  140.3194  158.2245 H   0  0  0  0  0  0  0  0  0  0  0  0
  148.7847  140.8160  155.5913 H   0  0  0  0  0  0  0  0  0  0  0  0
  149.7306  142.0658  154.7713 H   0  0  0  0  0  0  0  0  0  0  0  0
  149.1764  142.3172  156.4220 H   0  0  0  0  0  0  0  0  0  0  0  0
  153.0904  139.1213  153.0022 H   0  0  0  0  0  0  0  0  0  0  0  0
  148.8790  136.1000  156.8233 H   0  0  0  0  0  0  0  0  0  0  0  0
  151.2343  135.0693  153.9037 H   0  0  0  0  0  0  0  0  0  0  0  0
  150.9931  134.4075  155.4901 H   0  0  0  0  0  0  0  0  0  0  0  0
  148.6129  135.5894  152.8910 H   0  0  0  0  0  0  0  0  0  0  0  0
  149.1570  133.1027  156.0241 H   0  0  0  0  0  0  0  0  0  0  0  0
  147.9352  134.3661  156.0954 H   0  0  0  0  0  0  0  0  0  0  0  0
  147.3894  131.7836  155.2252 H   0  0  0  0  0  0  0  0  0  0  0  0
  146.5153  133.1775  154.5886 H   0  0  0  0  0  0  0  0  0  0  0  0
  149.3213  133.6728  152.2168 H   0  0  0  0  0  0  0  0  0  0  0  0
  151.3798  132.6753  153.2852 H   0  0  0  0  0  0  0  0  0  0  0  0
  150.3056  131.4323  152.6831 H   0  0  0  0  0  0  0  0  0  0  0  0
  150.3658  131.7771  154.4041 H   0  0  0  0  0  0  0  0  0  0  0  0
  149.0724  143.1414  158.4065 H   0  0  0  0  0  0  0  0  0  0  0  0
  150.0964  143.7111  159.7097 H   0  0  0  0  0  0  0  0  0  0  0  0
  149.5017  142.0611  159.7208 H   0  0  0  0  0  0  0  0  0  0  0  0
  150.7587  143.8406  156.6970 H   0  0  0  0  0  0  0  0  0  0  0  0
  152.4300  143.3191  156.7971 H   0  0  0  0  0  0  0  0  0  0  0  0
  151.7951  144.4528  157.9728 H   0  0  0  0  0  0  0  0  0  0  0  0
  1  2  1  0  0  0  0
  1 29  1  0  0  0  0
  1 30  1  0  0  0  0
  1 31  1  0  0  0  0
  2  3  1  0  0  0  0
  2 32  1  0  0  0  0
  2 33  1  0  0  0  0
  3  4  1  0  0  0  0
  4 26  1  0  0  0  0
  4  5  1  0  0  0  0
  4 34  1  0  0  0  0
  5  6  1  0  0  0  0
  5 35  1  0  0  0  0
  5 36  1  0  0  0  0
  6  7  1  0  0  0  0
  6 26  1  0  0  0  0
  6 37  1  0  0  0  0
  7  8  1  0  0  0  0
  7  9  1  0  0  0  0
  8 38  1  0  0  0  0
  8 39  1  0  0  0  0
  8 40  1  0  0  0  0
  9 14  1  0  0  0  0
  9 10  2  0  0  0  0
 10 11  1  0  0  0  0
 11 12  2  0  0  0  0
 11 41  1  0  0  0  0
 12 13  1  0  0  0  0
 13 17  1  0  0  0  0
 13 14  2  0  0  0  0
 14 15  1  0  0  0  0
 15 16  2  0  0  0  0
 16 17  1  0  0  0  0
 16 42  1  0  0  0  0
 17 18  1  0  0  0  0
 18 19  1  0  0  0  0
 18 43  1  0  0  0  0
 18 44  1  0  0  0  0
 19 24  1  0  0  0  0
 19 20  1  0  0  0  0
 19 21  1  0  0  0  0
 20 45  1  0  0  0  0
 21 22  1  0  0  0  0
 21 46  1  0  0  0  0
 21 47  1  0  0  0  0
 22 23  1  0  0  0  0
 22 48  1  0  0  0  0
 22 49  1  0  0  0  0
 23 24  1  0  0  0  0
 24 25  1  0  0  0  0
 24 50  1  0  0  0  0
 25 51  1  0  0  0  0
 25 52  1  0  0  0  0
 25 53  1  0  0  0  0
 26 27  1  0  0  0  0
 26 28  1  0  0  0  0
 27 54  1  0  0  0  0
 27 55  1  0  0  0  0
 27 56  1  0  0  0  0
 28 57  1  0  0  0  0
 28 58  1  0  0  0  0
 28 59  1  0  0  0  0
M  END
> <s_m_source_file>
AV-unprocessed.smi

> <i_m_source_file_index>
234

> <i_lp_mmshare_version>
43012

> <i_f3d_flags>
0

> <s_epik_input>
W0NIM11bQ0gyXU9bQ0BASF0oQzEoW0NIM10pW0NIM10pW0NIMl1bQ0BIXTFOKFtDSDNdKWMobltjSF1uMiljKGMyMyluW2NIXW4zW0NIMl1bQ0BAXTQoW09IXSlbQ0gyXVtDSDJdT1tDQEhdNFtDSDNd

> <s_epik_cmdline>
J2VwaWtfcHl0aG9uJywgJy1waCcsICc3LjAnLCAnLXRuJywgJzgnLCAnLW1hJywgJzIwMCcsICctbWV0YWxfYmluZGluZycsICctaW1hZScsICc8aW5maWxlLm1hZT4nLCAnLW9tYWUnLCAnPG91dGZpbGUubWFlPic=

> <r_lp_tautomer_probability>
1

> <r_epik_Ionization_Penalty>
0.00349132

> <r_epik_Ionization_Penalty_Charging>
0

> <r_epik_Ionization_Penalty_Neutral>
0.00349132

> <r_epik_State_Penalty>
0.00242418

> <r_epik_Charging_Adjusted_Penalty>
0.00242418

> <i_epik_Tot_Q>
0

> <i_epik_Tot_abs_Q>
0

> <r_epik_Metal_State_Penalty>
-0

> <b_epik_Metal_Only>
0

> <s_lp_Force_Field>
OPLS_2005

> <r_lp_Energy>
51.2497

> <b_lp_Chiralities_Consistent>
1

> <s_lp_Variant>
AV-unprocessed.smi:234-15

> <Gold.Version>
5.8.1

> <Gold.Id.Protein>
6NUR|6NUR_protein|mol2

> <Gold.PLP.Fitness>
51.5728

> <Gold.PLP.PLP>
-43.9935

> <Gold.PLP.part.hbond>
-2.5985

> <Gold.PLP.part.metal>
0.0000

> <Gold.PLP.part.buried>
-9.9239

> <Gold.PLP.part.nonpolar>
-31.9703

> <Gold.PLP.part.repulsive>
0.7270

> <Gold.PLP.ligand.clash>
0.0000

> <Gold.PLP.ligand.torsion>
1.1119

> <Gold.PLP.Chemscore.Hbond>
2.9200

> <Gold.PLP.Chemscore.CHOScore>
0.0000

> <Gold.PLP.Chemscore.Metal>
0.0000

> <Gold.Chemscore.Hbonds>
donor molecule, donor type, donor heavy atom, donor atom, acceptor molecule, acceptor atom, score
      L1  H    20    45       P1  7948  0.28
      P1  H  7989  7998       L1    10  0.49
      P1  H 10752 10763       L1    12  0.07

> <Gold.PLP.Chemscore.Internal.Correction>
1.0432

> <Gold.Rescore>
     Score         DG    S(hbond)    S(metal)    S(lipo)     H(rot)  DE(clash)    DE(int)     intcor
     16.42     -18.03       2.28        0.00      99.53       2.62       0.03       1.58       ----

> <Gold.Chemscore.Fitness>
16.4185

> <Gold.Chemscore.DG>
-18.0257

> <Gold.Chemscore.ZeroCoef>
-5.4800

> <Gold.Chemscore.Hbond>
2.2792

> <Gold.Chemscore.Metal>
0.0000

> <Gold.Chemscore.Lipo>
99.5329

> <Gold.Chemscore.Internal_Hbond>
0.0000

> <Gold.Chemscore.DEClash>
0.0256

> <Gold.Chemscore.DEInternal>
1.5817

> <Gold.Chemscore.Rot>
2.6219

> <Gold.Chemscore.Internal.Correction>
   9.000000E+99

> <Gold.Chemscore.Hbonds>
donor molecule, donor type, donor heavy atom, donor atom, acceptor molecule, acceptor atom, score
      L1  H    20    45       P1  7948  0.26
      P1  H  7989  7998       L1    10  0.11

> <Gold.Chemscore.Hbond.Weighted>
-7.6125

> <Gold.Chemscore.Metal.Weighted>
-0.0000

> <Gold.Chemscore.Lipo.Weighted>
-11.6454

> <Gold.Chemscore.Internal_Hbond.Weighted>
0.0000

> <Gold.Chemscore.DEClash.Weighted>
0.0256

> <Gold.Chemscore.DEInternal.Weighted>
1.5817

> <Gold.Chemscore.Rot.Weighted>
6.7121

> <Gold.Chemscore.Internal.Correction.Weighted>
   9.000000E+99

> <Gold.Protein.RotatedTorsions>
[ 6907 6896 6895 6894 ] final  145.15 input  -60.11 | X-H torsion
[ 7974 7965 7964 7962 ] final  -51.89 input  175.53 | X-H torsion
[ 8008 7997 7996 7995 ] final   95.21 input   59.86 | X-H torsion
[ 10167 10162 10161 10158 ] final -167.15 input  -65.29 | X-H torsion
[ 10718 10713 10712 10709 ] final -168.19 input   66.30 | X-H torsion
[ 10763 10752 10751 10750 ] final   55.43 input  -60.55 | X-H torsion
[ 11005 11000 10999 10996 ] final -155.88 input  -57.11 | X-H torsion

> <Gold.Protein.ActiveResidues>
 VAL166  LYS551  ARG553  GLY616  TRP617  ASP618  TYR619  PRO620  LYS621  CYS622 
 ASP623  PHE694  ASN695  SER759  ASP760  ASP761  ALA762  ILE779  LEU786  VAL792 
 PHE793  MET794  SER795  GLU796  ALA797  LYS798  CYS799  TRP800  GLU811  SER814 

> <Gold.Protein.RotatedAtoms>
  152.1846  133.4730  159.4975 H   0  0  0  0  0  0  0  0  0  0  0  0  # atno 6907 bound_to 6896
  150.6940  134.1790  159.4250 H   0  0  0  0  0  0  0  0  0  0  0  0  # atno 6908 bound_to 6896
  151.9703  135.0080  160.0603 H   0  0  0  0  0  0  0  0  0  0  0  0  # atno 6909 bound_to 6896
  145.9139  140.7891  142.9681 H   0  0  0  0  0  0  0  0  0  0  0  0  # atno 7974 bound_to 7965
  156.0664  140.3289  155.7522 H   0  0  0  0  0  0  0  0  0  0  0  0  # atno 8008 bound_to 7997
  155.5375  140.0599  157.2894 H   0  0  0  0  0  0  0  0  0  0  0  0  # atno 8009 bound_to 7997
  154.4507  140.1916  156.0546 H   0  0  0  0  0  0  0  0  0  0  0  0  # atno 8010 bound_to 7997
  139.6068  144.0896  152.1801 H   0  0  0  0  0  0  0  0  0  0  0  0  # atno 10167 bound_to 10162
  156.6933  130.9168  151.3071 H   0  0  0  0  0  0  0  0  0  0  0  0  # atno 10718 bound_to 10713
  152.9817  135.5711  154.5065 H   0  0  0  0  0  0  0  0  0  0  0  0  # atno 10763 bound_to 10752
  154.4576  135.2780  155.1738 H   0  0  0  0  0  0  0  0  0  0  0  0  # atno 10764 bound_to 10752
  154.3340  135.6243  153.5618 H   0  0  0  0  0  0  0  0  0  0  0  0  # atno 10765 bound_to 10752
  140.6817  134.4137  157.5226 H   0  0  0  0  0  0  0  0  0  0  0  0  # atno 11005 bound_to 11000
  144.6746  140.1870  143.7400 LP  0  0  0  0  0  0  0  0  0  0  0  0  # atno 17320 bound_to 7965
  145.8636  139.2235  143.1702 LP  0  0  0  0  0  0  0  0  0  0  0  0  # atno 17321 bound_to 7965
  140.0505  144.5936  150.7340 LP  0  0  0  0  0  0  0  0  0  0  0  0  # atno 17342 bound_to 10162
  140.7291  143.2668  151.4017 LP  0  0  0  0  0  0  0  0  0  0  0  0  # atno 17343 bound_to 10162
  157.7001  130.9323  150.0759 LP  0  0  0  0  0  0  0  0  0  0  0  0  # atno 17370 bound_to 10713
  156.1782  130.3649  149.9072 LP  0  0  0  0  0  0  0  0  0  0  0  0  # atno 17371 bound_to 10713
  139.8950  134.8694  156.2153 LP  0  0  0  0  0  0  0  0  0  0  0  0  # atno 17394 bound_to 11000
  141.0312  133.6987  156.1434 LP  0  0  0  0  0  0  0  0  0  0  0  0  # atno 17395 bound_to 11000

$$$$
