AV-unprocessed.smi:589|AV-procd|sdf|3005|dock8
  -GOLD-   2262023513D 1   1.00000     0.00000
 Structure written by MMmdl.
 40 41  0  0  0  0  0  0  0  0  1 V2000
  153.0993  144.4900  158.8074 C   0  0  0  0  0  0  0  0  0  0  0  0
  151.6575  144.0304  158.7525 C   0  0  0  0  0  0  0  0  0  0  0  0
  150.6842  144.5934  159.5967 C   0  0  0  0  0  0  0  0  0  0  0  0
  149.3540  144.1360  159.5029 C   0  0  0  0  0  0  0  0  0  0  0  0
  148.3049  144.7858  160.3934 C   0  0  0  0  0  0  0  0  0  0  0  0
  149.0460  143.1078  158.5665 C   0  0  0  0  0  0  0  0  0  0  0  0
  147.6416  142.5790  158.4101 C   0  0  0  0  0  0  0  0  0  0  0  0
  146.6998  143.4880  158.1431 N   0  0  0  0  0  0  0  0  0  0  0  0
  147.3857  141.3850  158.5555 O   0  0  0  0  0  0  0  0  0  0  0  0
  150.1061  142.6163  157.7504 C   0  0  0  0  0  0  0  0  0  0  0  0
  149.8818  141.6025  156.8022 N   0  0  0  0  0  0  0  0  0  0  0  0
  151.0908  140.9064  156.3845 C   0  0  0  0  0  0  0  0  0  0  0  0
  150.7224  139.7062  155.4915 C   0  0  2  0  0  0  0  0  0  0  0  0
  151.9626  139.0001  154.9338 C   0  0  0  0  0  0  0  0  0  0  0  0
  149.9364  140.1640  154.3926 O   0  0  0  0  0  0  0  0  0  0  0  0
  148.7178  140.7799  154.8059 C   0  0  2  0  0  0  0  0  0  0  0  0
  147.9211  141.1621  153.5546 C   0  0  0  0  0  0  0  0  0  0  0  0
  149.0467  142.0050  155.6786 C   0  0  0  0  0  0  0  0  0  0  0  0
  151.3787  143.0690  157.8516 N   0  0  0  0  0  0  0  0  0  0  0  0
  153.2320  145.2932  159.5329 H   0  0  0  0  0  0  0  0  0  0  0  0
  153.4171  144.8582  157.8317 H   0  0  0  0  0  0  0  0  0  0  0  0
  153.7504  143.6629  159.0918 H   0  0  0  0  0  0  0  0  0  0  0  0
  150.9521  145.3704  160.2977 H   0  0  0  0  0  0  0  0  0  0  0  0
  147.4125  145.0456  159.8232 H   0  0  0  0  0  0  0  0  0  0  0  0
  148.6849  145.7047  160.8410 H   0  0  0  0  0  0  0  0  0  0  0  0
  148.0214  144.1137  161.2033 H   0  0  0  0  0  0  0  0  0  0  0  0
  145.7404  143.1984  158.0220 H   0  0  0  0  0  0  0  0  0  0  0  0
  146.9534  144.4618  158.0587 H   0  0  0  0  0  0  0  0  0  0  0  0
  151.7393  141.5947  155.8405 H   0  0  0  0  0  0  0  0  0  0  0  0
  151.6422  140.5673  157.2626 H   0  0  0  0  0  0  0  0  0  0  0  0
  150.1417  138.9846  156.0690 H   0  0  0  0  0  0  0  0  0  0  0  0
  152.5941  138.6227  155.7383 H   0  0  0  0  0  0  0  0  0  0  0  0
  152.5626  139.6782  154.3265 H   0  0  0  0  0  0  0  0  0  0  0  0
  151.6803  138.1535  154.3076 H   0  0  0  0  0  0  0  0  0  0  0  0
  148.1331  140.0628  155.3855 H   0  0  0  0  0  0  0  0  0  0  0  0
  146.9743  141.6320  153.8217 H   0  0  0  0  0  0  0  0  0  0  0  0
  147.6971  140.2823  152.9509 H   0  0  0  0  0  0  0  0  0  0  0  0
  148.4783  141.8618  152.9309 H   0  0  0  0  0  0  0  0  0  0  0  0
  148.1280  142.4611  156.0498 H   0  0  0  0  0  0  0  0  0  0  0  0
  149.5662  142.7578  155.0840 H   0  0  0  0  0  0  0  0  0  0  0  0
  1  2  1  0  0  0  0
  1 20  1  0  0  0  0
  1 21  1  0  0  0  0
  1 22  1  0  0  0  0
  2 19  1  0  0  0  0
  2  3  2  0  0  0  0
  3  4  1  0  0  0  0
  3 23  1  0  0  0  0
  4  5  1  0  0  0  0
  4  6  2  0  0  0  0
  5 24  1  0  0  0  0
  5 25  1  0  0  0  0
  5 26  1  0  0  0  0
  6  7  1  0  0  0  0
  6 10  1  0  0  0  0
  7  8  1  0  0  0  0
  7  9  2  0  0  0  0
  8 27  1  0  0  0  0
  8 28  1  0  0  0  0
 10 11  1  0  0  0  0
 10 19  2  0  0  0  0
 11 18  1  0  0  0  0
 11 12  1  0  0  0  0
 12 13  1  0  0  0  0
 12 29  1  0  0  0  0
 12 30  1  0  0  0  0
 13 14  1  0  0  0  0
 13 15  1  0  0  0  0
 13 31  1  0  0  0  0
 14 32  1  0  0  0  0
 14 33  1  0  0  0  0
 14 34  1  0  0  0  0
 15 16  1  0  0  0  0
 16 17  1  0  0  0  0
 16 18  1  0  0  0  0
 16 35  1  0  0  0  0
 17 36  1  0  0  0  0
 17 37  1  0  0  0  0
 17 38  1  0  0  0  0
 18 39  1  0  0  0  0
 18 40  1  0  0  0  0
M  END
> <s_m_source_file>
AV-unprocessed.smi

> <i_m_source_file_index>
589

> <i_lp_mmshare_version>
43012

> <i_f3d_flags>
0

> <s_epik_input>
W0NIM11jMVtjSF1jKFtDSDNdKWMoQyg9TylbTkgyXSljKG4xKU4yW0NIMl1bQ0BASF0oW0NIM10pT1tDQEBIXShbQ0gzXSlbQ0gyXTI=

> <s_epik_cmdline>
J2VwaWtfcHl0aG9uJywgJy1waCcsICc3LjAnLCAnLXRuJywgJzgnLCAnLW1hJywgJzIwMCcsICctbWV0YWxfYmluZGluZycsICctaW1hZScsICc8aW5maWxlLm1hZT4nLCAnLW9tYWUnLCAnPG91dGZpbGUubWFlPic=

> <r_lp_tautomer_probability>
1

> <r_epik_Ionization_Penalty>
0.000626871

> <r_epik_Ionization_Penalty_Charging>
0

> <r_epik_Ionization_Penalty_Neutral>
0.000626871

> <r_epik_State_Penalty>
0.000395665

> <r_epik_Charging_Adjusted_Penalty>
0.000395665

> <i_epik_Tot_Q>
0

> <i_epik_Tot_abs_Q>
0

> <r_epik_Metal_State_Penalty>
-0

> <b_epik_Metal_Only>
0

> <s_lp_Force_Field>
OPLS_2005

> <r_lp_Energy>
24.7039

> <b_lp_Chiralities_Consistent>
1

> <s_lp_Variant>
AV-unprocessed.smi:589-1

> <Gold.Version>
5.8.1

> <Gold.Id.Protein>
6NUR|6NUR_protein|mol2

> <Gold.PLP.Fitness>
33.6700

> <Gold.PLP.PLP>
-31.1075

> <Gold.PLP.part.hbond>
-3.0000

> <Gold.PLP.part.metal>
0.0000

> <Gold.PLP.part.buried>
-0.7744

> <Gold.PLP.part.nonpolar>
-27.3545

> <Gold.PLP.part.repulsive>
0.3495

> <Gold.PLP.ligand.clash>
0.0000

> <Gold.PLP.ligand.torsion>
1.3719

> <Gold.PLP.Chemscore.Hbond>
1.6574

> <Gold.PLP.Chemscore.CHOScore>
0.0000

> <Gold.PLP.Chemscore.Metal>
0.0000

> <Gold.Chemscore.Hbonds>
donor molecule, donor type, donor heavy atom, donor atom, acceptor molecule, acceptor atom, score
      L1  H     8    28       P1  8029  1.00
      P1  H  6934  6946       L1     9  0.12
      P1  H  7989  7998       L1    15  0.48

> <Gold.PLP.Chemscore.Internal.Correction>
0.3340

> <Gold.Rescore>
     Score         DG    S(hbond)    S(metal)    S(lipo)     H(rot)  DE(clash)    DE(int)     intcor
     14.87     -17.79       1.33        0.00      89.19       1.00       1.44       1.48       ----

> <Gold.Chemscore.Fitness>
14.8676

> <Gold.Chemscore.DG>
-17.7881

> <Gold.Chemscore.ZeroCoef>
-5.4800

> <Gold.Chemscore.Hbond>
1.3272

> <Gold.Chemscore.Metal>
0.0000

> <Gold.Chemscore.Lipo>
89.1909

> <Gold.Chemscore.Internal_Hbond>
0.0000

> <Gold.Chemscore.DEClash>
1.4378

> <Gold.Chemscore.DEInternal>
1.4827

> <Gold.Chemscore.Rot>
1.0000

> <Gold.Chemscore.Internal.Correction>
   9.000000E+99

> <Gold.Chemscore.Hbonds>
donor molecule, donor type, donor heavy atom, donor atom, acceptor molecule, acceptor atom, score
      L1  H     8    28       P1  8029  0.54
      P1  H  6934  6946       L1     9  0.11
      P1  H  7989  7998       L1    15  0.02

> <Gold.Chemscore.Hbond.Weighted>
-4.4328

> <Gold.Chemscore.Metal.Weighted>
-0.0000

> <Gold.Chemscore.Lipo.Weighted>
-10.4353

> <Gold.Chemscore.Internal_Hbond.Weighted>
0.0000

> <Gold.Chemscore.DEClash.Weighted>
1.4378

> <Gold.Chemscore.DEInternal.Weighted>
1.4827

> <Gold.Chemscore.Rot.Weighted>
2.5600

> <Gold.Chemscore.Internal.Correction.Weighted>
   9.000000E+99

> <Gold.Protein.RotatedTorsions>
[ 6907 6896 6895 6894 ] final  -19.70 input  -60.11 | X-H torsion
[ 7974 7965 7964 7962 ] final -155.86 input  175.53 | X-H torsion
[ 8008 7997 7996 7995 ] final   90.79 input   59.86 | X-H torsion
[ 10167 10162 10161 10158 ] final -123.76 input  -65.29 | X-H torsion
[ 10718 10713 10712 10709 ] final   23.82 input   66.30 | X-H torsion
[ 10763 10752 10751 10750 ] final   -5.59 input  -60.55 | X-H torsion
[ 11005 11000 10999 10996 ] final  157.66 input  -57.11 | X-H torsion

> <Gold.Protein.ActiveResidues>
 VAL166  LYS551  ARG553  GLY616  TRP617  ASP618  TYR619  PRO620  LYS621  CYS622 
 ASP623  PHE694  ASN695  SER759  ASP760  ASP761  ALA762  ILE779  LEU786  VAL792 
 PHE793  MET794  SER795  GLU796  ALA797  LYS798  CYS799  TRP800  GLU811  SER814 

> <Gold.Protein.RotatedAtoms>
  151.2592  135.0648  159.9091 H   0  0  0  0  0  0  0  0  0  0  0  0  # atno 6907 bound_to 6896
  152.5368  134.0249  159.8009 H   0  0  0  0  0  0  0  0  0  0  0  0  # atno 6908 bound_to 6896
  151.0469  133.5608  159.2677 H   0  0  0  0  0  0  0  0  0  0  0  0  # atno 6909 bound_to 6896
  144.7620  140.4190  143.5970 H   0  0  0  0  0  0  0  0  0  0  0  0  # atno 7974 bound_to 7965
  156.0161  140.3345  155.6990 H   0  0  0  0  0  0  0  0  0  0  0  0  # atno 8008 bound_to 7997
  155.6089  140.0663  157.2729 H   0  0  0  0  0  0  0  0  0  0  0  0  # atno 8009 bound_to 7997
  154.4299  140.1797  156.1239 H   0  0  0  0  0  0  0  0  0  0  0  0  # atno 8010 bound_to 7997
  140.0000  143.5550  152.2307 H   0  0  0  0  0  0  0  0  0  0  0  0  # atno 10167 bound_to 10162
  157.1714  130.6761  149.6079 H   0  0  0  0  0  0  0  0  0  0  0  0  # atno 10718 bound_to 10713
  153.4007  135.7005  153.6428 H   0  0  0  0  0  0  0  0  0  0  0  0  # atno 10763 bound_to 10752
  153.4963  135.3662  155.2517 H   0  0  0  0  0  0  0  0  0  0  0  0  # atno 10764 bound_to 10752
  154.8710  135.4101  154.3341 H   0  0  0  0  0  0  0  0  0  0  0  0  # atno 10765 bound_to 10752
  140.1791  134.8488  157.2782 H   0  0  0  0  0  0  0  0  0  0  0  0  # atno 11005 bound_to 11000
  145.6590  139.1578  143.2819 LP  0  0  0  0  0  0  0  0  0  0  0  0  # atno 17320 bound_to 7965
  146.1692  140.6672  142.9241 LP  0  0  0  0  0  0  0  0  0  0  0  0  # atno 17321 bound_to 7965
  139.6278  144.7640  151.2600 LP  0  0  0  0  0  0  0  0  0  0  0  0  # atno 17342 bound_to 10162
  140.7422  143.6532  150.8230 LP  0  0  0  0  0  0  0  0  0  0  0  0  # atno 17343 bound_to 10162
  155.9738  130.4678  150.6336 LP  0  0  0  0  0  0  0  0  0  0  0  0  # atno 17370 bound_to 10713
  157.4040  131.0814  151.1283 LP  0  0  0  0  0  0  0  0  0  0  0  0  # atno 17371 bound_to 10713
  140.2288  134.3934  155.7531 LP  0  0  0  0  0  0  0  0  0  0  0  0  # atno 17394 bound_to 11000
  141.2222  133.7204  156.8607 LP  0  0  0  0  0  0  0  0  0  0  0  0  # atno 17395 bound_to 11000

$$$$
