AV-unprocessed.smi:2693|AV-procd|sdf|10403|dock3
  -GOLD-   2272014433D 1   1.00000     0.00000
 Structure written by MMmdl.
 45 47  0  0  0  0  0  0  0  0  1 V2000
  143.7882  131.8941  150.5069 C   0  0  0  0  0  0  0  0  0  0  0  0
  144.8730  132.4399  151.3178 N   0  0  0  0  0  0  0  0  0  0  0  0
  145.8576  131.5023  151.8501 C   0  0  0  0  0  0  0  0  0  0  0  0
  144.9644  133.8108  151.5762 C   0  0  0  0  0  0  0  0  0  0  0  0
  146.0283  134.2397  152.2684 N   0  0  0  0  0  0  0  0  0  0  0  0
  146.1173  135.5621  152.5235 C   0  0  0  0  0  0  0  0  0  0  0  0
  145.1408  136.4760  152.0796 C   0  0  0  0  0  0  0  0  0  0  0  0
  145.2830  137.8515  152.4045 N   0  0  0  0  0  0  0  0  0  0  0  0
  146.3953  138.5080  152.7749 C   0  0  0  0  0  0  0  0  0  0  0  0
  147.4883  137.9875  152.9961 O   0  0  0  0  0  0  0  0  0  0  0  0
  146.1675  139.8222  152.8925 N   0  0  0  0  0  0  0  0  0  0  0  0
  147.1862  140.8033  153.2476 C   0  0  2  0  0  0  0  0  0  0  0  0
  148.1296  140.2990  154.3401 C   0  0  1  0  0  0  0  0  0  0  0  0
  149.5754  139.9555  154.3961 C   0  0  0  0  0  0  0  0  0  0  0  0
  149.9227  140.7120  155.7065 C   0  0  0  0  0  0  0  0  0  0  0  0
  148.7675  141.5319  156.0105 O   0  0  0  0  0  0  0  0  0  0  0  0
  148.1758  141.7589  154.7479 C   0  0  2  0  0  0  0  0  0  0  0  0
  146.7009  141.8606  154.3108 C   0  0  0  0  0  0  0  0  0  0  0  0
  146.2821  143.2166  153.7418 C   0  0  0  0  0  0  0  0  0  0  0  0
  145.6190  141.4709  155.3388 C   0  0  0  0  0  0  0  0  0  0  0  0
  144.0554  135.9163  151.3642 C   0  0  0  0  0  0  0  0  0  0  0  0
  143.9774  134.5914  151.1173 N   0  0  0  0  0  0  0  0  0  0  0  0
  142.8206  132.1705  150.9270 H   0  0  0  0  0  0  0  0  0  0  0  0
  143.8262  130.8061  150.4534 H   0  0  0  0  0  0  0  0  0  0  0  0
  143.8447  132.2816  149.4893 H   0  0  0  0  0  0  0  0  0  0  0  0
  145.8328  131.5053  152.9401 H   0  0  0  0  0  0  0  0  0  0  0  0
  146.8616  131.7793  151.5273 H   0  0  0  0  0  0  0  0  0  0  0  0
  145.6719  130.4819  151.5144 H   0  0  0  0  0  0  0  0  0  0  0  0
  146.9777  135.8913  153.0877 H   0  0  0  0  0  0  0  0  0  0  0  0
  144.4366  138.3995  152.3537 H   0  0  0  0  0  0  0  0  0  0  0  0
  145.2393  140.1704  152.7024 H   0  0  0  0  0  0  0  0  0  0  0  0
  147.7126  141.2344  152.3910 H   0  0  0  0  0  0  0  0  0  0  0  0
  147.5860  139.6725  155.0514 H   0  0  0  0  0  0  0  0  0  0  0  0
  149.7547  138.8828  154.4714 H   0  0  0  0  0  0  0  0  0  0  0  0
  150.1225  140.3499  153.5387 H   0  0  0  0  0  0  0  0  0  0  0  0
  150.1120  140.0283  156.5344 H   0  0  0  0  0  0  0  0  0  0  0  0
  150.8078  141.3350  155.5720 H   0  0  0  0  0  0  0  0  0  0  0  0
  148.8311  142.3737  154.1202 H   0  0  0  0  0  0  0  0  0  0  0  0
  146.2430  143.9813  154.5183 H   0  0  0  0  0  0  0  0  0  0  0  0
  145.2979  143.1693  153.2748 H   0  0  0  0  0  0  0  0  0  0  0  0
  146.9807  143.5645  152.9806 H   0  0  0  0  0  0  0  0  0  0  0  0
  145.5695  142.1985  156.1495 H   0  0  0  0  0  0  0  0  0  0  0  0
  145.7823  140.5001  155.8026 H   0  0  0  0  0  0  0  0  0  0  0  0
  144.6309  141.4337  154.8789 H   0  0  0  0  0  0  0  0  0  0  0  0
  143.2282  136.5045  150.9996 H   0  0  0  0  0  0  0  0  0  0  0  0
  1  2  1  0  0  0  0
  1 23  1  0  0  0  0
  1 24  1  0  0  0  0
  1 25  1  0  0  0  0
  2  3  1  0  0  0  0
  2  4  1  0  0  0  0
  3 26  1  0  0  0  0
  3 27  1  0  0  0  0
  3 28  1  0  0  0  0
  4 22  1  0  0  0  0
  4  5  2  0  0  0  0
  5  6  1  0  0  0  0
  6  7  2  0  0  0  0
  6 29  1  0  0  0  0
  7  8  1  0  0  0  0
  7 21  1  0  0  0  0
  8  9  1  0  0  0  0
  8 30  1  0  0  0  0
  9 10  2  0  0  0  0
  9 11  1  0  0  0  0
 11 12  1  0  0  0  0
 11 31  1  0  0  0  0
 12 18  1  0  0  0  0
 12 13  1  0  0  0  0
 12 32  1  0  0  0  0
 13 17  1  0  0  0  0
 13 14  1  0  0  0  0
 13 33  1  0  0  0  0
 14 15  1  0  0  0  0
 14 34  1  0  0  0  0
 14 35  1  0  0  0  0
 15 16  1  0  0  0  0
 15 36  1  0  0  0  0
 15 37  1  0  0  0  0
 16 17  1  0  0  0  0
 17 18  1  0  0  0  0
 17 38  1  0  0  0  0
 18 19  1  0  0  0  0
 18 20  1  0  0  0  0
 19 39  1  0  0  0  0
 19 40  1  0  0  0  0
 19 41  1  0  0  0  0
 20 42  1  0  0  0  0
 20 43  1  0  0  0  0
 20 44  1  0  0  0  0
 21 22  2  0  0  0  0
 21 45  1  0  0  0  0
M  END
> <s_m_source_file>
AV-unprocessed.smi

> <i_m_source_file_index>
2693

> <i_lp_mmshare_version>
43012

> <i_f3d_flags>
0

> <s_epik_input>
W0NIM11OKFtDSDNdKWMxbltjSF1jKFtjSF1uMSlbTkhdQyg9TylbTkhdW0NASF0yQyhbQ0gzXSkoW0NIM10pW0NAQEhdKFtDQEhdMjMpT1tDSDJdW0NIMl0z

> <s_epik_cmdline>
J2VwaWtfcHl0aG9uJywgJy1waCcsICc3LjAnLCAnLXRuJywgJzgnLCAnLW1hJywgJzIwMCcsICctbWV0YWxfYmluZGluZycsICctaW1hZScsICc8aW5maWxlLm1hZT4nLCAnLW9tYWUnLCAnPG91dGZpbGUubWFlPic=

> <r_lp_tautomer_probability>
1

> <r_epik_Ionization_Penalty>
0.00031779

> <r_epik_Ionization_Penalty_Charging>
0

> <r_epik_Ionization_Penalty_Neutral>
0.00031779

> <r_epik_State_Penalty>
-0

> <r_epik_Charging_Adjusted_Penalty>
0

> <i_epik_Tot_Q>
0

> <i_epik_Tot_abs_Q>
0

> <r_epik_Metal_State_Penalty>
-0

> <b_epik_Metal_Only>
0

> <s_lp_Force_Field>
OPLS_2005

> <r_lp_Energy>
52.7661

> <b_lp_Chiralities_Consistent>
1

> <s_lp_Variant>
AV-unprocessed.smi:2693-7

> <Gold.Version>
5.8.1

> <Gold.Id.Protein>
6NUR|6NUR_protein|mol2

> <Gold.PLP.Fitness>
42.5792

> <Gold.PLP.PLP>
-34.0440

> <Gold.PLP.part.hbond>
-2.8879

> <Gold.PLP.part.metal>
0.0000

> <Gold.PLP.part.buried>
-3.3158

> <Gold.PLP.part.nonpolar>
-32.1934

> <Gold.PLP.part.repulsive>
4.3261

> <Gold.PLP.ligand.clash>
0.0111

> <Gold.PLP.ligand.torsion>
0.3265

> <Gold.PLP.Chemscore.Hbond>
1.5434

> <Gold.PLP.Chemscore.CHOScore>
1.4317

> <Gold.PLP.Chemscore.Metal>
0.0000

> <Gold.Chemscore.Hbonds>
donor molecule, donor type, donor heavy atom, donor atom, acceptor molecule, acceptor atom, score
      L1  H     8    30       P1 10175  0.54
      L1  H    11    31       P1 10175  1.00
      L1  C     6    29       P1  7948  0.71
      L1  C    21    45       P1 10171  0.72

> <Gold.PLP.Chemscore.Internal.Correction>
0.2740

> <Gold.Rescore>
     Score         DG    S(hbond)    S(metal)    S(lipo)     H(rot)  DE(clash)    DE(int)     intcor
     12.61     -18.46       1.77        0.00      82.22       1.00       2.68       3.17       ----

> <Gold.Chemscore.Fitness>
12.6064

> <Gold.Chemscore.DG>
-18.4625

> <Gold.Chemscore.ZeroCoef>
-5.4800

> <Gold.Chemscore.Hbond>
1.7733

> <Gold.Chemscore.Metal>
0.0000

> <Gold.Chemscore.Lipo>
82.2195

> <Gold.Chemscore.Internal_Hbond>
0.0000

> <Gold.Chemscore.DEClash>
2.6827

> <Gold.Chemscore.DEInternal>
3.1734

> <Gold.Chemscore.Rot>
1.0000

> <Gold.Chemscore.Internal.Correction>
   9.000000E+99

> <Gold.Chemscore.Hbonds>
donor molecule, donor type, donor heavy atom, donor atom, acceptor molecule, acceptor atom, score
      L1  H     8    30       P1 10175  0.52
      L1  H    11    31       P1 10175  0.94

> <Gold.Chemscore.Hbond.Weighted>
-5.9228

> <Gold.Chemscore.Metal.Weighted>
-0.0000

> <Gold.Chemscore.Lipo.Weighted>
-9.6197

> <Gold.Chemscore.Internal_Hbond.Weighted>
0.0000

> <Gold.Chemscore.DEClash.Weighted>
2.6827

> <Gold.Chemscore.DEInternal.Weighted>
3.1734

> <Gold.Chemscore.Rot.Weighted>
2.5600

> <Gold.Chemscore.Internal.Correction.Weighted>
   9.000000E+99

> <Gold.Protein.RotatedTorsions>
[ 6907 6896 6895 6894 ] final  110.24 input  -60.11 | X-H torsion
[ 7974 7965 7964 7962 ] final   92.60 input  175.53 | X-H torsion
[ 8008 7997 7996 7995 ] final    2.93 input   59.86 | X-H torsion
[ 10167 10162 10161 10158 ] final   36.08 input  -65.29 | X-H torsion
[ 10718 10713 10712 10709 ] final  177.14 input   66.30 | X-H torsion
[ 10763 10752 10751 10750 ] final -148.53 input  -60.55 | X-H torsion
[ 11005 11000 10999 10996 ] final  170.40 input  -57.11 | X-H torsion

> <Gold.Protein.ActiveResidues>
 VAL166  LYS551  ARG553  GLY616  TRP617  ASP618  TYR619  PRO620  LYS621  CYS622 
 ASP623  PHE694  ASN695  SER759  ASP760  ASP761  ALA762  ILE779  LEU786  VAL792 
 PHE793  MET794  SER795  GLU796  ALA797  LYS798  CYS799  TRP800  GLU811  SER814 

> <Gold.Protein.RotatedAtoms>
  152.5029  133.8829  159.7354 H   0  0  0  0  0  0  0  0  0  0  0  0  # atno 6907 bound_to 6896
  150.9287  133.6784  159.2822 H   0  0  0  0  0  0  0  0  0  0  0  0  # atno 6908 bound_to 6896
  151.4136  135.0993  159.9645 H   0  0  0  0  0  0  0  0  0  0  0  0  # atno 6909 bound_to 6896
  145.4901  139.2276  143.2835 H   0  0  0  0  0  0  0  0  0  0  0  0  # atno 7974 bound_to 7965
  154.6975  140.2666  155.6752 H   0  0  0  0  0  0  0  0  0  0  0  0  # atno 8008 bound_to 7997
  156.2753  140.2779  156.1498 H   0  0  0  0  0  0  0  0  0  0  0  0  # atno 8009 bound_to 7997
  155.0811  140.0372  157.2629 H   0  0  0  0  0  0  0  0  0  0  0  0  # atno 8010 bound_to 7997
  140.4161  144.1524  150.6143 H   0  0  0  0  0  0  0  0  0  0  0  0  # atno 10167 bound_to 10162
  156.9097  130.9906  151.3022 H   0  0  0  0  0  0  0  0  0  0  0  0  # atno 10718 bound_to 10713
  154.8228  135.3332  154.6988 H   0  0  0  0  0  0  0  0  0  0  0  0  # atno 10763 bound_to 10752
  153.7618  135.6932  153.4928 H   0  0  0  0  0  0  0  0  0  0  0  0  # atno 10764 bound_to 10752
  153.2104  135.4484  155.0323 H   0  0  0  0  0  0  0  0  0  0  0  0  # atno 10765 bound_to 10752
  140.3079  134.7541  157.3968 H   0  0  0  0  0  0  0  0  0  0  0  0  # atno 11005 bound_to 11000
  146.2289  140.5694  142.8984 LP  0  0  0  0  0  0  0  0  0  0  0  0  # atno 17320 bound_to 7965
  144.7839  140.5897  143.6587 LP  0  0  0  0  0  0  0  0  0  0  0  0  # atno 17321 bound_to 7965
  140.4584  143.2458  151.9253 LP  0  0  0  0  0  0  0  0  0  0  0  0  # atno 17342 bound_to 10162
  139.4782  144.5492  151.8412 LP  0  0  0  0  0  0  0  0  0  0  0  0  # atno 17343 bound_to 10162
  157.5975  130.8488  149.8751 LP  0  0  0  0  0  0  0  0  0  0  0  0  # atno 17370 bound_to 10713
  156.0542  130.3711  150.1131 LP  0  0  0  0  0  0  0  0  0  0  0  0  # atno 17371 bound_to 10713
  140.1050  134.5421  155.8317 LP  0  0  0  0  0  0  0  0  0  0  0  0  # atno 17394 bound_to 11000
  141.2114  133.6706  156.6582 LP  0  0  0  0  0  0  0  0  0  0  0  0  # atno 17395 bound_to 11000

$$$$
