AV-unprocessed.smi:3021|AV-procd|sdf|11498|dock5
  -GOLD-   2272016433D 1   1.00000     0.00000
 Structure written by MMmdl.
 35 37  0  0  0  0  0  0  0  0  1 V2000
  149.3216  141.1218  153.2271 O   0  0  0  0  0  0  0  0  0  0  0  0
  149.4931  140.4878  154.4798 C   0  0  2  0  0  0  0  0  0  0  0  0
  148.2417  139.6449  154.7690 C   0  0  0  0  0  0  0  0  0  0  0  0
  147.9560  138.8520  153.6290 O   0  0  0  0  0  0  0  0  0  0  0  0
  146.8885  139.3676  152.8493 C   0  0  0  0  0  0  0  0  0  0  0  0
  146.2545  138.2240  152.1219 C   0  0  0  0  0  0  0  0  0  0  0  0
  145.3298  137.2866  152.4921 C   0  0  0  0  0  0  0  0  0  0  0  0
  145.1172  136.4577  151.3560 C   0  0  0  0  0  0  0  0  0  0  0  0
  145.9272  136.9507  150.3735 C   0  0  0  0  0  0  0  0  0  0  0  0
  146.6264  138.0278  150.8228 O   0  0  0  0  0  0  0  0  0  0  0  0
  149.7295  141.5635  155.5579 C   0  0  0  0  0  0  0  0  0  0  0  0
  150.5292  141.0708  156.6659 N   0  0  0  0  0  0  0  0  0  0  0  0
  150.9624  139.7784  156.6531 N   0  0  0  0  0  0  0  0  0  0  0  0
  151.6592  139.5622  157.7285 N   0  0  0  0  0  0  0  0  0  0  0  0
  151.6884  140.7358  158.4632 C   0  0  0  0  0  0  0  0  0  0  0  0
  152.2982  141.0609  159.6953 C   0  0  0  0  0  0  0  0  0  0  0  0
  152.1724  142.3604  160.2334 C   0  0  0  0  0  0  0  0  0  0  0  0
  152.9335  142.7197  161.7424 Cl  0  0  0  0  0  0  0  0  0  0  0  0
  151.4332  143.3512  159.5429 C   0  0  0  0  0  0  0  0  0  0  0  0
  151.2696  144.9459  160.1869 Cl  0  0  0  0  0  0  0  0  0  0  0  0
  150.8199  143.0409  158.3127 C   0  0  0  0  0  0  0  0  0  0  0  0
  150.9567  141.7416  157.7954 C   0  0  0  0  0  0  0  0  0  0  0  0
  149.2640  140.4533  152.5613 H   0  0  0  0  0  0  0  0  0  0  0  0
  150.3669  139.8363  154.4307 H   0  0  0  0  0  0  0  0  0  0  0  0
  148.4328  138.9777  155.6111 H   0  0  0  0  0  0  0  0  0  0  0  0
  147.3932  140.2755  155.0410 H   0  0  0  0  0  0  0  0  0  0  0  0
  146.1528  139.8589  153.4870 H   0  0  0  0  0  0  0  0  0  0  0  0
  147.2595  140.1034  152.1347 H   0  0  0  0  0  0  0  0  0  0  0  0
  144.8630  137.2074  153.4628 H   0  0  0  0  0  0  0  0  0  0  0  0
  144.4552  135.6090  151.2684 H   0  0  0  0  0  0  0  0  0  0  0  0
  146.1197  136.6710  149.3482 H   0  0  0  0  0  0  0  0  0  0  0  0
  150.2273  142.4339  155.1280 H   0  0  0  0  0  0  0  0  0  0  0  0
  148.7763  141.9168  155.9540 H   0  0  0  0  0  0  0  0  0  0  0  0
  152.8648  140.3100  160.2261 H   0  0  0  0  0  0  0  0  0  0  0  0
  150.2560  143.7882  157.7741 H   0  0  0  0  0  0  0  0  0  0  0  0
  1  2  1  0  0  0  0
  1 23  1  0  0  0  0
  2  3  1  0  0  0  0
  2 11  1  0  0  0  0
  2 24  1  0  0  0  0
  3  4  1  0  0  0  0
  3 25  1  0  0  0  0
  3 26  1  0  0  0  0
  4  5  1  0  0  0  0
  5  6  1  0  0  0  0
  5 27  1  0  0  0  0
  5 28  1  0  0  0  0
  6 10  1  0  0  0  0
  6  7  2  0  0  0  0
  7  8  1  0  0  0  0
  7 29  1  0  0  0  0
  8  9  2  0  0  0  0
  8 30  1  0  0  0  0
  9 10  1  0  0  0  0
  9 31  1  0  0  0  0
 11 12  1  0  0  0  0
 11 32  1  0  0  0  0
 11 33  1  0  0  0  0
 12 22  1  0  0  0  0
 12 13  1  0  0  0  0
 13 14  2  0  0  0  0
 14 15  1  0  0  0  0
 15 22  2  0  0  0  0
 15 16  1  0  0  0  0
 16 17  2  0  0  0  0
 16 34  1  0  0  0  0
 17 18  1  0  0  0  0
 17 19  1  0  0  0  0
 19 20  1  0  0  0  0
 19 21  2  0  0  0  0
 21 22  1  0  0  0  0
 21 35  1  0  0  0  0
M  END
> <s_m_source_file>
AV-unprocessed.smi

> <i_m_source_file_index>
3021

> <i_lp_mmshare_version>
43012

> <i_f3d_flags>
0

> <s_epik_input>
W2NIXTFjKENsKWMoQ2wpW2NIXWMoYzEyKW4obm4yKVtDSDJdW0NASF0oW09IXSlbQ0gyXU9bQ0gyXWMzW2NIXVtjSF1bY0hdbzM=

> <s_epik_cmdline>
J2VwaWtfcHl0aG9uJywgJy1waCcsICc3LjAnLCAnLXRuJywgJzgnLCAnLW1hJywgJzIwMCcsICctbWV0YWxfYmluZGluZycsICctaW1hZScsICc8aW5maWxlLm1hZT4nLCAnLW9tYWUnLCAnPG91dGZpbGUubWFlPic=

> <r_lp_tautomer_probability>
1

> <r_epik_Ionization_Penalty>
6.1367e-06

> <r_epik_Ionization_Penalty_Charging>
0

> <r_epik_Ionization_Penalty_Neutral>
6.1367e-06

> <r_epik_State_Penalty>
-0

> <r_epik_Charging_Adjusted_Penalty>
0

> <i_epik_Tot_Q>
0

> <i_epik_Tot_abs_Q>
0

> <r_epik_Metal_State_Penalty>
-0

> <b_epik_Metal_Only>
0

> <s_lp_Force_Field>
OPLS_2005

> <r_lp_Energy>
8.1305

> <b_lp_Chiralities_Consistent>
1

> <s_lp_Variant>
AV-unprocessed.smi:3021-1

> <Gold.Version>
5.8.1

> <Gold.Id.Protein>
6NUR|6NUR_protein|mol2

> <Gold.PLP.Fitness>
52.8686

> <Gold.PLP.PLP>
-43.3475

> <Gold.PLP.part.hbond>
-3.4299

> <Gold.PLP.part.metal>
0.0000

> <Gold.PLP.part.buried>
-3.3276

> <Gold.PLP.part.nonpolar>
-39.8412

> <Gold.PLP.part.repulsive>
2.0707

> <Gold.PLP.ligand.clash>
0.0000

> <Gold.PLP.ligand.torsion>
1.1591

> <Gold.PLP.Chemscore.Hbond>
2.9048

> <Gold.PLP.Chemscore.CHOScore>
1.0000

> <Gold.PLP.Chemscore.Metal>
0.0000

> <Gold.Chemscore.Hbonds>
donor molecule, donor type, donor heavy atom, donor atom, acceptor molecule, acceptor atom, score
      L1  H     1    23       P1  7957  0.86
      P1  H  7954  7966       L1    10  1.00
      P1  H  8011  8017       L1     1  1.00
      L1  C     9    31       P1  7921  1.00

> <Gold.PLP.Chemscore.Internal.Correction>
0.1248

> <Gold.Rescore>
     Score         DG    S(hbond)    S(metal)    S(lipo)     H(rot)  DE(clash)    DE(int)     intcor
     16.43     -19.76       1.74        0.00     126.34       2.46       2.34       1.00       ----

> <Gold.Chemscore.Fitness>
16.4307

> <Gold.Chemscore.DG>
-19.7631

> <Gold.Chemscore.ZeroCoef>
-5.4800

> <Gold.Chemscore.Hbond>
1.7399

> <Gold.Chemscore.Metal>
0.0000

> <Gold.Chemscore.Lipo>
126.3389

> <Gold.Chemscore.Internal_Hbond>
0.0000

> <Gold.Chemscore.DEClash>
2.3365

> <Gold.Chemscore.DEInternal>
0.9958

> <Gold.Chemscore.Rot>
2.4647

> <Gold.Chemscore.Internal.Correction>
   9.000000E+99

> <Gold.Chemscore.Hbonds>
donor molecule, donor type, donor heavy atom, donor atom, acceptor molecule, acceptor atom, score
      L1  H     1    23       P1  7957  0.79
      P1  H  7954  7966       L1    10  0.30
      P1  H  8011  8017       L1     1  0.30

> <Gold.Chemscore.Hbond.Weighted>
-5.8111

> <Gold.Chemscore.Metal.Weighted>
-0.0000

> <Gold.Chemscore.Lipo.Weighted>
-14.7816

> <Gold.Chemscore.Internal_Hbond.Weighted>
0.0000

> <Gold.Chemscore.DEClash.Weighted>
2.3365

> <Gold.Chemscore.DEInternal.Weighted>
0.9958

> <Gold.Chemscore.Rot.Weighted>
6.3097

> <Gold.Chemscore.Internal.Correction.Weighted>
   9.000000E+99

> <Gold.Protein.RotatedTorsions>
[ 6907 6896 6895 6894 ] final -111.64 input  -60.11 | X-H torsion
[ 7974 7965 7964 7962 ] final  -83.06 input  175.53 | X-H torsion
[ 8008 7997 7996 7995 ] final -115.33 input   59.86 | X-H torsion
[ 10167 10162 10161 10158 ] final -161.91 input  -65.29 | X-H torsion
[ 10718 10713 10712 10709 ] final  121.55 input   66.30 | X-H torsion
[ 10763 10752 10751 10750 ] final  105.91 input  -60.55 | X-H torsion
[ 11005 11000 10999 10996 ] final  -88.59 input  -57.11 | X-H torsion

> <Gold.Protein.ActiveResidues>
 VAL166  LYS551  ARG553  GLY616  TRP617  ASP618  TYR619  PRO620  LYS621  CYS622 
 ASP623  PHE694  ASN695  SER759  ASP760  ASP761  ALA762  ILE779  LEU786  VAL792 
 PHE793  MET794  SER795  GLU796  ALA797  LYS798  CYS799  TRP800  GLU811  SER814 

> <Gold.Protein.RotatedAtoms>
  150.7704  133.9205  159.3396 H   0  0  0  0  0  0  0  0  0  0  0  0  # atno 6907 bound_to 6896
  151.7093  135.0914  160.0274 H   0  0  0  0  0  0  0  0  0  0  0  0  # atno 6908 bound_to 6896
  152.3719  133.6392  159.6129 H   0  0  0  0  0  0  0  0  0  0  0  0  # atno 6909 bound_to 6896
  145.5250  140.9527  143.1634 H   0  0  0  0  0  0  0  0  0  0  0  0  # atno 7974 bound_to 7965
  155.0503  140.0393  157.2541 H   0  0  0  0  0  0  0  0  0  0  0  0  # atno 8008 bound_to 7997
  154.7143  140.2699  155.6576 H   0  0  0  0  0  0  0  0  0  0  0  0  # atno 8009 bound_to 7997
  156.2798  140.2715  156.1795 H   0  0  0  0  0  0  0  0  0  0  0  0  # atno 8010 bound_to 7997
  139.6431  144.0223  152.2106 H   0  0  0  0  0  0  0  0  0  0  0  0  # atno 10167 bound_to 10162
  157.5809  131.1075  150.8188 H   0  0  0  0  0  0  0  0  0  0  0  0  # atno 10718 bound_to 10713
  153.3858  135.3894  155.1888 H   0  0  0  0  0  0  0  0  0  0  0  0  # atno 10763 bound_to 10752
  154.8713  135.3736  154.4800 H   0  0  0  0  0  0  0  0  0  0  0  0  # atno 10764 bound_to 10752
  153.5282  135.7086  153.5758 H   0  0  0  0  0  0  0  0  0  0  0  0  # atno 10765 bound_to 10752
  141.1599  133.7579  156.9473 H   0  0  0  0  0  0  0  0  0  0  0  0  # atno 11005 bound_to 11000
  144.7656  139.6854  143.7216 LP  0  0  0  0  0  0  0  0  0  0  0  0  # atno 17320 bound_to 7965
  146.2081  139.5419  142.9699 LP  0  0  0  0  0  0  0  0  0  0  0  0  # atno 17321 bound_to 7965
  139.9918  144.6356  150.7808 LP  0  0  0  0  0  0  0  0  0  0  0  0  # atno 17342 bound_to 10162
  140.7501  143.2949  151.3231 LP  0  0  0  0  0  0  0  0  0  0  0  0  # atno 17343 bound_to 10162
  156.8635  130.5121  149.5302 LP  0  0  0  0  0  0  0  0  0  0  0  0  # atno 17370 bound_to 10713
  156.0855  130.5855  150.9640 LP  0  0  0  0  0  0  0  0  0  0  0  0  # atno 17371 bound_to 10713
  140.1281  134.9374  157.2298 LP  0  0  0  0  0  0  0  0  0  0  0  0  # atno 17394 bound_to 11000
  140.2988  134.3156  155.7295 LP  0  0  0  0  0  0  0  0  0  0  0  0  # atno 17395 bound_to 11000

$$$$
