AV-unprocessed.smi:2060|AV-procd|sdf|8357|dock7
  -GOLD-   2272011 23D 1   1.00000     0.00000
 Structure written by MMmdl.
 46 47  0  0  0  0  0  0  0  0  2 V2000
  146.4677  142.2589  154.0064 C   0  0  0  0  0  0  0  0  0  0  0  0
  146.2470  140.8801  154.6546 C   0  0  0  0  0  0  0  0  0  0  0  0
  147.0595  139.7033  154.0316 C   0  0  2  0  0  0  0  0  0  0  0  0
  147.1059  139.9365  152.4983 C   0  0  0  0  0  0  0  0  0  0  0  0
  146.3261  138.3592  154.3358 C   0  0  0  0  0  0  0  0  0  0  0  0
  146.7343  137.2542  153.4685 N   0  0  0  0  0  0  0  0  0  0  0  0
  145.9426  136.2547  153.0524 C   0  0  0  0  0  0  0  0  0  0  0  0
  144.7595  136.1449  153.3754 O   0  0  0  0  0  0  0  0  0  0  0  0
  146.6092  135.4051  152.2528 N   0  0  0  0  0  0  0  0  0  0  0  0
  146.1121  134.2289  151.6361 C   0  0  0  0  0  0  0  0  0  0  0  0
  144.8633  134.2334  150.9601 C   0  0  0  0  0  0  0  0  0  0  0  0
  144.7487  132.9458  150.5169 C   0  0  0  0  0  0  0  0  0  0  0  0
  143.6984  132.2324  149.7362 C   0  0  0  0  0  0  0  0  0  0  0  0
  145.8372  132.2184  150.8879 O   0  0  0  0  0  0  0  0  0  0  0  0
  146.7082  133.0467  151.6056 N   0  0  0  0  0  0  0  0  0  0  0  0
  148.4615  139.6820  154.5898 N   0  3  0  0  0  0  0  0  0  0  0  0
  149.4320  138.7994  153.8816 C   0  0  0  0  0  0  0  0  0  0  0  0
  150.7505  138.7091  154.6668 C   0  0  0  0  0  0  0  0  0  0  0  0
  151.2937  140.0108  154.8356 O   0  0  0  0  0  0  0  0  0  0  0  0
  150.4237  140.8501  155.5817 C   0  0  0  0  0  0  0  0  0  0  0  0
  149.0886  141.0122  154.8355 C   0  0  0  0  0  0  0  0  0  0  0  0
  145.8602  143.0140  154.5056 H   0  0  0  0  0  0  0  0  0  0  0  0
  146.1847  142.2627  152.9541 H   0  0  0  0  0  0  0  0  0  0  0  0
  147.5062  142.5815  154.0778 H   0  0  0  0  0  0  0  0  0  0  0  0
  146.4439  140.9565  155.7237 H   0  0  0  0  0  0  0  0  0  0  0  0
  145.1808  140.6587  154.5937 H   0  0  0  0  0  0  0  0  0  0  0  0
  146.1247  140.1933  152.0980 H   0  0  0  0  0  0  0  0  0  0  0  0
  147.4318  139.0473  151.9584 H   0  0  0  0  0  0  0  0  0  0  0  0
  147.7825  140.7485  152.2317 H   0  0  0  0  0  0  0  0  0  0  0  0
  146.4528  138.0713  155.3796 H   0  0  0  0  0  0  0  0  0  0  0  0
  145.2524  138.4697  154.1889 H   0  0  0  0  0  0  0  0  0  0  0  0
  147.6929  137.2590  153.1522 H   0  0  0  0  0  0  0  0  0  0  0  0
  147.5766  135.6218  152.0633 H   0  0  0  0  0  0  0  0  0  0  0  0
  144.1641  135.0447  150.8219 H   0  0  0  0  0  0  0  0  0  0  0  0
  142.7330  132.7277  149.8406 H   0  0  0  0  0  0  0  0  0  0  0  0
  143.5882  131.2037  150.0801 H   0  0  0  0  0  0  0  0  0  0  0  0
  143.9544  132.2099  148.6768 H   0  0  0  0  0  0  0  0  0  0  0  0
  149.0441  137.7900  153.7622 H   0  0  0  0  0  0  0  0  0  0  0  0
  149.6376  139.1855  152.8830 H   0  0  0  0  0  0  0  0  0  0  0  0
  150.5961  138.2335  155.6368 H   0  0  0  0  0  0  0  0  0  0  0  0
  151.4695  138.0963  154.1226 H   0  0  0  0  0  0  0  0  0  0  0  0
  150.2644  140.4363  156.5789 H   0  0  0  0  0  0  0  0  0  0  0  0
  150.8997  141.8219  155.7135 H   0  0  0  0  0  0  0  0  0  0  0  0
  149.2619  141.5291  153.8914 H   0  0  0  0  0  0  0  0  0  0  0  0
  148.4516  141.6537  155.4411 H   0  0  0  0  0  0  0  0  0  0  0  0
  148.3564  139.2733  155.5075 H   0  0  0  0  0  0  0  0  0  0  0  0
  1  2  1  0  0  0  0
  1 22  1  0  0  0  0
  1 23  1  0  0  0  0
  1 24  1  0  0  0  0
  2  3  1  0  0  0  0
  2 25  1  0  0  0  0
  2 26  1  0  0  0  0
  3  4  1  0  0  0  0
  3  5  1  0  0  0  0
  3 16  1  0  0  0  0
  4 27  1  0  0  0  0
  4 28  1  0  0  0  0
  4 29  1  0  0  0  0
  5  6  1  0  0  0  0
  5 30  1  0  0  0  0
  5 31  1  0  0  0  0
  6  7  1  0  0  0  0
  6 32  1  0  0  0  0
  7  8  2  0  0  0  0
  7  9  1  0  0  0  0
  9 10  1  0  0  0  0
  9 33  1  0  0  0  0
 10 15  2  0  0  0  0
 10 11  1  0  0  0  0
 11 12  2  0  0  0  0
 11 34  1  0  0  0  0
 12 13  1  0  0  0  0
 12 14  1  0  0  0  0
 13 35  1  0  0  0  0
 13 36  1  0  0  0  0
 13 37  1  0  0  0  0
 14 15  1  0  0  0  0
 16 21  1  0  0  0  0
 16 17  1  0  0  0  0
 16 46  1  0  0  0  0
 17 18  1  0  0  0  0
 17 38  1  0  0  0  0
 17 39  1  0  0  0  0
 18 19  1  0  0  0  0
 18 40  1  0  0  0  0
 18 41  1  0  0  0  0
 19 20  1  0  0  0  0
 20 21  1  0  0  0  0
 20 42  1  0  0  0  0
 20 43  1  0  0  0  0
 21 44  1  0  0  0  0
 21 45  1  0  0  0  0
M  CHG  1  16   1
M  END
> <s_m_source_file>
AV-unprocessed.smi

> <i_m_source_file_index>
2060

> <i_lp_mmshare_version>
43012

> <i_f3d_flags>
0

> <s_epik_input>
W0NIMl0xW0NIMl1PW0NIMl1bQ0gyXU4xW0NAQF0oW0NIM10pKFtDSDJdW0NIM10pW0NIMl1bTkhdQyg9TylbTkhdYzJbY0hdYyhbQ0gzXSlvbjI=

> <s_epik_cmdline>
J2VwaWtfcHl0aG9uJywgJy1waCcsICc3LjAnLCAnLXRuJywgJzgnLCAnLW1hJywgJzIwMCcsICctbWV0YWxfYmluZGluZycsICctaW1hZScsICc8aW5maWxlLm1hZT4nLCAnLW9tYWUnLCAnPG91dGZpbGUubWFlPic=

> <r_epik_Ionization_Penalty>
0.563843

> <r_epik_Ionization_Penalty_Charging>
0.563819

> <r_epik_Ionization_Penalty_Neutral>
2.4442e-05

> <r_epik_State_Penalty>
0.575199

> <r_epik_Charging_Adjusted_Penalty>
1.13902

> <i_epik_Tot_Q>
1

> <i_epik_Tot_abs_Q>
1

> <r_epik_Metal_State_Penalty>
0.577669

> <b_epik_Metal_Only>
0

> <s_lp_Force_Field>
OPLS_2005

> <r_lp_Energy>
25.7644

> <b_lp_Chiralities_Consistent>
1

> <s_lp_Variant>
AV-unprocessed.smi:2060-4

> <Gold.Version>
5.8.1

> <Gold.Id.Protein>
6NUR|6NUR_protein|mol2

> <Gold.PLP.Fitness>
37.9684

> <Gold.PLP.PLP>
-33.0321

> <Gold.PLP.part.hbond>
-2.8785

> <Gold.PLP.part.metal>
0.0000

> <Gold.PLP.part.buried>
-1.8656

> <Gold.PLP.part.nonpolar>
-29.9626

> <Gold.PLP.part.repulsive>
0.5560

> <Gold.PLP.ligand.clash>
0.0000

> <Gold.PLP.ligand.torsion>
1.5749

> <Gold.PLP.Chemscore.Hbond>
2.6260

> <Gold.PLP.Chemscore.CHOScore>
0.0000

> <Gold.PLP.Chemscore.Metal>
0.0000

> <Gold.Chemscore.Hbonds>
donor molecule, donor type, donor heavy atom, donor atom, acceptor molecule, acceptor atom, score
      L1  H     6    32       P1  7948  0.73
      L1  H     9    33       P1  7948  0.89
      P1  H  7989  7998       L1    19  1.00

> <Gold.PLP.Chemscore.Internal.Correction>
0.2081

> <Gold.Rescore>
     Score         DG    S(hbond)    S(metal)    S(lipo)     H(rot)  DE(clash)    DE(int)     intcor
     16.15     -19.25       2.64        0.00      80.99       1.77       1.19       1.91       ----

> <Gold.Chemscore.Fitness>
16.1501

> <Gold.Chemscore.DG>
-19.2516

> <Gold.Chemscore.ZeroCoef>
-5.4800

> <Gold.Chemscore.Hbond>
2.6406

> <Gold.Chemscore.Metal>
0.0000

> <Gold.Chemscore.Lipo>
80.9865

> <Gold.Chemscore.Internal_Hbond>
0.0000

> <Gold.Chemscore.DEClash>
1.1894

> <Gold.Chemscore.DEInternal>
1.9121

> <Gold.Chemscore.Rot>
1.7670

> <Gold.Chemscore.Internal.Correction>
   9.000000E+99

> <Gold.Chemscore.Hbonds>
donor molecule, donor type, donor heavy atom, donor atom, acceptor molecule, acceptor atom, score
      L1  H     6    32       P1  7948  0.71
      L1  H     9    33       P1  7948  0.87
      P1  H  7989  7998       L1    19  0.47

> <Gold.Chemscore.Hbond.Weighted>
-8.8196

> <Gold.Chemscore.Metal.Weighted>
-0.0000

> <Gold.Chemscore.Lipo.Weighted>
-9.4754

> <Gold.Chemscore.Internal_Hbond.Weighted>
0.0000

> <Gold.Chemscore.DEClash.Weighted>
1.1894

> <Gold.Chemscore.DEInternal.Weighted>
1.9121

> <Gold.Chemscore.Rot.Weighted>
4.5235

> <Gold.Chemscore.Internal.Correction.Weighted>
   9.000000E+99

> <Gold.Protein.RotatedTorsions>
[ 6907 6896 6895 6894 ] final    4.01 input  -60.11 | X-H torsion
[ 7974 7965 7964 7962 ] final   88.39 input  175.53 | X-H torsion
[ 8008 7997 7996 7995 ] final   49.99 input   59.86 | X-H torsion
[ 10167 10162 10161 10158 ] final  140.14 input  -65.29 | X-H torsion
[ 10718 10713 10712 10709 ] final  -42.18 input   66.30 | X-H torsion
[ 10763 10752 10751 10750 ] final   96.93 input  -60.55 | X-H torsion
[ 11005 11000 10999 10996 ] final   39.52 input  -57.11 | X-H torsion

> <Gold.Protein.ActiveResidues>
 VAL166  LYS551  ARG553  GLY616  TRP617  ASP618  TYR619  PRO620  LYS621  CYS622 
 ASP623  PHE694  ASN695  SER759  ASP760  ASP761  ALA762  ILE779  LEU786  VAL792 
 PHE793  MET794  SER795  GLU796  ALA797  LYS798  CYS799  TRP800  GLU811  SER814 

> <Gold.Protein.RotatedAtoms>
  151.6343  135.1019  160.0128 H   0  0  0  0  0  0  0  0  0  0  0  0  # atno 6907 bound_to 6896
  152.4089  133.6928  159.6389 H   0  0  0  0  0  0  0  0  0  0  0  0  # atno 6908 bound_to 6896
  150.7981  133.8577  159.3264 H   0  0  0  0  0  0  0  0  0  0  0  0  # atno 6909 bound_to 6896
  145.5463  139.2292  143.2537 H   0  0  0  0  0  0  0  0  0  0  0  0  # atno 7974 bound_to 7965
  155.4113  140.3442  155.4264 H   0  0  0  0  0  0  0  0  0  0  0  0  # atno 8008 bound_to 7997
  156.1447  140.1552  156.8897 H   0  0  0  0  0  0  0  0  0  0  0  0  # atno 8009 bound_to 7997
  154.5000  140.0817  156.7759 H   0  0  0  0  0  0  0  0  0  0  0  0  # atno 8010 bound_to 7997
  139.5057  144.6252  151.5955 H   0  0  0  0  0  0  0  0  0  0  0  0  # atno 10167 bound_to 10162
  156.2624  130.4198  149.8527 H   0  0  0  0  0  0  0  0  0  0  0  0  # atno 10718 bound_to 10713
  153.2708  135.4201  155.0986 H   0  0  0  0  0  0  0  0  0  0  0  0  # atno 10763 bound_to 10752
  154.8455  135.3471  154.6247 H   0  0  0  0  0  0  0  0  0  0  0  0  # atno 10764 bound_to 10752
  153.6667  135.7045  153.5217 H   0  0  0  0  0  0  0  0  0  0  0  0  # atno 10765 bound_to 10752
  140.2020  134.3858  155.8091 H   0  0  0  0  0  0  0  0  0  0  0  0  # atno 11005 bound_to 11000
  146.1947  140.6285  142.9130 LP  0  0  0  0  0  0  0  0  0  0  0  0  # atno 17320 bound_to 7965
  144.7551  140.5288  143.6774 LP  0  0  0  0  0  0  0  0  0  0  0  0  # atno 17321 bound_to 7965
  140.5967  143.9684  150.6359 LP  0  0  0  0  0  0  0  0  0  0  0  0  # atno 17342 bound_to 10162
  140.2882  143.3342  152.1087 LP  0  0  0  0  0  0  0  0  0  0  0  0  # atno 17343 bound_to 10162
  156.6038  130.8558  151.3438 LP  0  0  0  0  0  0  0  0  0  0  0  0  # atno 17370 bound_to 10713
  157.7255  130.9617  150.1618 LP  0  0  0  0  0  0  0  0  0  0  0  0  # atno 17371 bound_to 10713
  141.2227  133.7099  156.8274 LP  0  0  0  0  0  0  0  0  0  0  0  0  # atno 17394 bound_to 11000
  140.2043  134.8874  157.3204 LP  0  0  0  0  0  0  0  0  0  0  0  0  # atno 17395 bound_to 11000

$$$$
