AV-unprocessed.smi:287|AV-procd|sdf|2203|dock5
  -GOLD-   2262022 23D 1   1.00000     0.00000
 Structure written by MMmdl.
 55 58  0  0  0  0  0  0  0  0  1 V2000
  133.7797  141.7339  154.9871 C   0  0  0  0  0  0  0  0  0  0  0  0
  134.8205  140.7203  155.3192 C   0  0  0  0  0  0  0  0  0  0  0  0
  134.7761  139.4407  155.7908 C   0  0  0  0  0  0  0  0  0  0  0  0
  136.1225  138.9833  155.9108 C   0  0  0  0  0  0  0  0  0  0  0  0
  136.5590  137.6073  156.3954 C   0  0  1  0  0  0  0  0  0  0  0  0
  136.1093  137.4025  157.8517 C   0  0  0  0  0  0  0  0  0  0  0  0
  135.9602  136.5526  155.6675 O   0  0  0  0  0  0  0  0  0  0  0  0
  138.0856  137.3944  156.2758 C   0  0  0  0  0  0  0  0  0  0  0  0
  138.5087  137.0659  154.9207 N   0  0  0  0  0  0  0  0  0  0  0  0
  139.8086  137.1215  154.5617 C   0  0  0  0  0  0  0  0  0  0  0  0
  140.4010  138.3284  154.7190 N   0  0  0  0  0  0  0  0  0  0  0  0
  141.6830  138.4941  154.3873 C   0  0  0  0  0  0  0  0  0  0  0  0
  142.5364  137.5981  153.8921 N   0  0  0  0  0  0  0  0  0  0  0  0
  141.9569  136.3716  153.7363 C   0  0  0  0  0  0  0  0  0  0  0  0
  140.5999  136.0536  154.0408 C   0  0  0  0  0  0  0  0  0  0  0  0
  140.3631  134.7186  153.7356 N   0  0  0  0  0  0  0  0  0  0  0  0
  141.5039  134.2832  153.2783 C   0  0  0  0  0  0  0  0  0  0  0  0
  142.5309  135.2012  153.2673 N   0  0  0  0  0  0  0  0  0  0  0  0
  143.9346  134.9787  152.7677 C   0  0  1  0  0  0  0  0  0  0  0  0
  144.0060  133.7496  152.1128 O   0  0  0  0  0  0  0  0  0  0  0  0
  143.7754  133.9417  150.7229 C   0  0  2  0  0  0  0  0  0  0  0  0
  144.1946  132.7044  149.9103 C   0  0  0  0  0  0  0  0  0  0  0  0
  143.3726  132.5740  148.7701 O   0  0  0  0  0  0  0  0  0  0  0  0
  144.5802  135.2195  150.4597 C   0  0  2  0  0  0  0  0  0  0  0  0
  145.9566  134.9163  150.2961 O   0  0  0  0  0  0  0  0  0  0  0  0
  144.3011  136.0481  151.7159 C   0  0  2  0  0  0  0  0  0  0  0  0
  145.3982  136.8580  152.0971 O   0  0  0  0  0  0  0  0  0  0  0  0
  136.8909  140.0403  155.4844 C   0  0  0  0  0  0  0  0  0  0  0  0
  138.3602  140.2612  155.3335 C   0  0  0  0  0  0  0  0  0  0  0  0
  136.1095  141.0973  155.1270 O   0  0  0  0  0  0  0  0  0  0  0  0
  144.5503  134.9885  153.6676 H   0  0  0  0  0  0  0  0  0  0  0  0
  142.7176  134.1582  150.5580 H   0  0  0  0  0  0  0  0  0  0  0  0
  144.2382  135.7312  149.5595 H   0  0  0  0  0  0  0  0  0  0  0  0
  143.4411  136.6919  151.5276 H   0  0  0  0  0  0  0  0  0  0  0  0
  132.8071  141.4349  155.3782 H   0  0  0  0  0  0  0  0  0  0  0  0
  133.6878  141.8528  153.9074 H   0  0  0  0  0  0  0  0  0  0  0  0
  134.0314  142.7044  155.4150 H   0  0  0  0  0  0  0  0  0  0  0  0
  133.8768  138.8921  156.0284 H   0  0  0  0  0  0  0  0  0  0  0  0
  136.5532  138.1487  158.5118 H   0  0  0  0  0  0  0  0  0  0  0  0
  136.4002  136.4205  158.2270 H   0  0  0  0  0  0  0  0  0  0  0  0
  135.0259  137.4847  157.9468 H   0  0  0  0  0  0  0  0  0  0  0  0
  136.3983  135.7464  155.8931 H   0  0  0  0  0  0  0  0  0  0  0  0
  138.5873  138.3232  156.5506 H   0  0  0  0  0  0  0  0  0  0  0  0
  138.4246  136.6305  156.9770 H   0  0  0  0  0  0  0  0  0  0  0  0
  137.7681  136.8146  154.2814 H   0  0  0  0  0  0  0  0  0  0  0  0
  142.0831  139.4854  154.5407 H   0  0  0  0  0  0  0  0  0  0  0  0
  141.6293  133.2663  152.9361 H   0  0  0  0  0  0  0  0  0  0  0  0
  145.2219  132.8143  149.5617 H   0  0  0  0  0  0  0  0  0  0  0  0
  144.1497  131.7970  150.5136 H   0  0  0  0  0  0  0  0  0  0  0  0
  142.8599  133.3626  148.6783 H   0  0  0  0  0  0  0  0  0  0  0  0
  146.2200  135.1897  149.4304 H   0  0  0  0  0  0  0  0  0  0  0  0
  146.1972  136.4152  151.8555 H   0  0  0  0  0  0  0  0  0  0  0  0
  138.7990  139.5074  154.6800 H   0  0  0  0  0  0  0  0  0  0  0  0
  138.8602  140.2054  156.3001 H   0  0  0  0  0  0  0  0  0  0  0  0
  138.5710  141.2407  154.9038 H   0  0  0  0  0  0  0  0  0  0  0  0
  1  2  1  0  0  0  0
  1 35  1  0  0  0  0
  1 36  1  0  0  0  0
  1 37  1  0  0  0  0
  2 30  1  0  0  0  0
  2  3  2  0  0  0  0
  3  4  1  0  0  0  0
  3 38  1  0  0  0  0
  4  5  1  0  0  0  0
  4 28  2  0  0  0  0
  5  6  1  0  0  0  0
  5  7  1  0  0  0  0
  5  8  1  0  0  0  0
  6 39  1  0  0  0  0
  6 40  1  0  0  0  0
  6 41  1  0  0  0  0
  7 42  1  0  0  0  0
  8  9  1  0  0  0  0
  8 43  1  0  0  0  0
  8 44  1  0  0  0  0
  9 10  1  0  0  0  0
  9 45  1  0  0  0  0
 10 15  1  0  0  0  0
 10 11  2  0  0  0  0
 11 12  1  0  0  0  0
 12 13  2  0  0  0  0
 12 46  1  0  0  0  0
 13 14  1  0  0  0  0
 14 18  1  0  0  0  0
 14 15  2  0  0  0  0
 15 16  1  0  0  0  0
 16 17  2  0  0  0  0
 17 18  1  0  0  0  0
 17 47  1  0  0  0  0
 18 19  1  0  0  0  0
 19 31  1  0  0  0  0
 19 26  1  0  0  0  0
 19 20  1  0  0  0  0
 20 21  1  0  0  0  0
 21 32  1  0  0  0  0
 21 22  1  0  0  0  0
 21 24  1  0  0  0  0
 22 23  1  0  0  0  0
 22 48  1  0  0  0  0
 22 49  1  0  0  0  0
 23 50  1  0  0  0  0
 24 33  1  0  0  0  0
 24 25  1  0  0  0  0
 24 26  1  0  0  0  0
 25 51  1  0  0  0  0
 26 34  1  0  0  0  0
 26 27  1  0  0  0  0
 27 52  1  0  0  0  0
 28 29  1  0  0  0  0
 28 30  1  0  0  0  0
 29 53  1  0  0  0  0
 29 54  1  0  0  0  0
 29 55  1  0  0  0  0
M  END
> <s_m_source_file>
AV-unprocessed.smi

> <i_m_source_file_index>
287

> <i_lp_mmshare_version>
43012

> <i_f3d_flags>
0

> <s_epik_input>
W0NIM11jMVtjSF1jKGMobzEpW0NIM10pW0NAQF0oW0NIM10pKFtPSF0pW0NIMl1bTkhdYyhuW2NIXW4yKWMoYzIzKW5bY0hdbjNbQ0BASF00T1tDQEhdKFtDSDJdW09IXSlbQ0BASF0oW09IXSlbQ0BIXTRbT0hd

> <s_epik_cmdline>
J2VwaWtfcHl0aG9uJywgJy1waCcsICc3LjAnLCAnLXRuJywgJzgnLCAnLW1hJywgJzIwMCcsICctbWV0YWxfYmluZGluZycsICctaW1hZScsICc8aW5maWxlLm1hZT4nLCAnLW9tYWUnLCAnPG91dGZpbGUubWFlPic=

> <r_lp_tautomer_probability>
1

> <r_epik_Ionization_Penalty>
0.000992612

> <r_epik_Ionization_Penalty_Charging>
0

> <r_epik_Ionization_Penalty_Neutral>
0.000992612

> <r_epik_State_Penalty>
-0

> <r_epik_Charging_Adjusted_Penalty>
0

> <i_epik_Tot_Q>
0

> <i_epik_Tot_abs_Q>
0

> <r_epik_Metal_State_Penalty>
-0

> <b_epik_Metal_Only>
0

> <s_epik_Chemistry_Notes>
This compound contains an acetal/aminal-like group ( X-CH(R)-Y where X, Y are N, S, or O) that may be acid/base labile, releasing an aldehyde.

> <s_lp_Force_Field>
OPLS_2005

> <r_lp_Energy>
46.8376

> <b_lp_Chiralities_Consistent>
1

> <s_lp_Variant>
AV-unprocessed.smi:287-27

> <Gold.Version>
5.8.1

> <Gold.Id.Protein>
6NUR|6NUR_protein|mol2

> <Gold.PLP.Fitness>
56.2183

> <Gold.PLP.PLP>
-42.5628

> <Gold.PLP.part.hbond>
-6.5773

> <Gold.PLP.part.metal>
0.0000

> <Gold.PLP.part.buried>
-1.3017

> <Gold.PLP.part.nonpolar>
-34.8398

> <Gold.PLP.part.repulsive>
1.3598

> <Gold.PLP.ligand.clash>
0.0000

> <Gold.PLP.ligand.torsion>
1.5687

> <Gold.PLP.Chemscore.Hbond>
3.0142

> <Gold.PLP.Chemscore.CHOScore>
2.5320

> <Gold.PLP.Chemscore.Metal>
0.0000

> <Gold.Chemscore.Hbonds>
donor molecule, donor type, donor heavy atom, donor atom, acceptor molecule, acceptor atom, score
      L1  H    23    50       P1 10186  0.29
      L1  H    25    51       P1  7921  0.93
      P1  H 10995 11001       L1    16  0.07
      P1  H 11000 11005       L1    16  0.40
      L1  C    12    46       P1 10175  0.36
      L1  C    17    47       P1 10957  0.59

> <Gold.PLP.Chemscore.Internal.Correction>
0.1542

> <Gold.Rescore>
     Score         DG    S(hbond)    S(metal)    S(lipo)     H(rot)  DE(clash)    DE(int)     intcor
      4.81     -10.21       2.84        0.00      74.55       5.27       1.41       4.00       ----

> <Gold.Chemscore.Fitness>
4.8088

> <Gold.Chemscore.DG>
-10.2144

> <Gold.Chemscore.ZeroCoef>
-5.4800

> <Gold.Chemscore.Hbond>
2.8430

> <Gold.Chemscore.Metal>
0.0000

> <Gold.Chemscore.Lipo>
74.5526

> <Gold.Chemscore.Internal_Hbond>
0.0000

> <Gold.Chemscore.DEClash>
1.4051

> <Gold.Chemscore.DEInternal>
4.0005

> <Gold.Chemscore.Rot>
5.2672

> <Gold.Chemscore.Internal.Correction>
   9.000000E+99

> <Gold.Chemscore.Hbonds>
donor molecule, donor type, donor heavy atom, donor atom, acceptor molecule, acceptor atom, score
      L1  H    23    50       P1 10186  0.29
      L1  H    25    51       P1  7921  0.59
      P1  H 10785 10796       L1    23  0.01
      P1  H 10995 11001       L1    16  0.03
      P1  H 11000 11005       L1    16  0.01

> <Gold.Chemscore.Hbond.Weighted>
-9.4957

> <Gold.Chemscore.Metal.Weighted>
-0.0000

> <Gold.Chemscore.Lipo.Weighted>
-8.7226

> <Gold.Chemscore.Internal_Hbond.Weighted>
0.0000

> <Gold.Chemscore.DEClash.Weighted>
1.4051

> <Gold.Chemscore.DEInternal.Weighted>
4.0005

> <Gold.Chemscore.Rot.Weighted>
13.4839

> <Gold.Chemscore.Internal.Correction.Weighted>
   9.000000E+99

> <Gold.Protein.RotatedTorsions>
[ 6907 6896 6895 6894 ] final  142.01 input  -60.11 | X-H torsion
[ 7974 7965 7964 7962 ] final   42.81 input  175.53 | X-H torsion
[ 8008 7997 7996 7995 ] final  102.68 input   59.86 | X-H torsion
[ 10167 10162 10161 10158 ] final -161.55 input  -65.29 | X-H torsion
[ 10718 10713 10712 10709 ] final   45.41 input   66.30 | X-H torsion
[ 10763 10752 10751 10750 ] final -176.43 input  -60.55 | X-H torsion
[ 11005 11000 10999 10996 ] final   34.62 input  -57.11 | X-H torsion

> <Gold.Protein.ActiveResidues>
 VAL166  LYS551  ARG553  GLY616  TRP617  ASP618  TYR619  PRO620  LYS621  CYS622 
 ASP623  PHE694  ASN695  SER759  ASP760  ASP761  ALA762  ILE779  LEU786  VAL792 
 PHE793  MET794  SER795  GLU796  ALA797  LYS798  CYS799  TRP800  GLU811  SER814 

> <Gold.Protein.RotatedAtoms>
  152.2240  133.5006  159.5178 H   0  0  0  0  0  0  0  0  0  0  0  0  # atno 6907 bound_to 6896
  150.7020  134.1304  159.4077 H   0  0  0  0  0  0  0  0  0  0  0  0  # atno 6908 bound_to 6896
  151.9225  135.0292  160.0574 H   0  0  0  0  0  0  0  0  0  0  0  0  # atno 6909 bound_to 6896
  146.0708  139.5257  142.9599 H   0  0  0  0  0  0  0  0  0  0  0  0  # atno 7974 bound_to 7965
  156.1415  140.3177  155.8503 H   0  0  0  0  0  0  0  0  0  0  0  0  # atno 8008 bound_to 7997
  155.4144  140.0508  157.3047 H   0  0  0  0  0  0  0  0  0  0  0  0  # atno 8009 bound_to 7997
  154.4980  140.2118  155.9417 H   0  0  0  0  0  0  0  0  0  0  0  0  # atno 8010 bound_to 7997
  139.6457  144.0177  152.2125 H   0  0  0  0  0  0  0  0  0  0  0  0  # atno 10167 bound_to 10162
  157.4372  130.8060  149.7659 H   0  0  0  0  0  0  0  0  0  0  0  0  # atno 10718 bound_to 10713
  154.5725  135.2829  155.0813 H   0  0  0  0  0  0  0  0  0  0  0  0  # atno 10763 bound_to 10752
  154.2180  135.6396  153.5139 H   0  0  0  0  0  0  0  0  0  0  0  0  # atno 10764 bound_to 10752
  153.0062  135.5507  154.6353 H   0  0  0  0  0  0  0  0  0  0  0  0  # atno 10765 bound_to 10752
  140.2510  134.3303  155.7890 H   0  0  0  0  0  0  0  0  0  0  0  0  # atno 11005 bound_to 11000
  145.6394  141.0287  143.1820 LP  0  0  0  0  0  0  0  0  0  0  0  0  # atno 17320 bound_to 7965
  144.7231  139.7965  143.7375 LP  0  0  0  0  0  0  0  0  0  0  0  0  # atno 17321 bound_to 7965
  139.9878  144.6383  150.7842 LP  0  0  0  0  0  0  0  0  0  0  0  0  # atno 17342 bound_to 10162
  140.7513  143.2970  151.3178 LP  0  0  0  0  0  0  0  0  0  0  0  0  # atno 17343 bound_to 10162
  155.9935  130.3924  150.2898 LP  0  0  0  0  0  0  0  0  0  0  0  0  # atno 17370 bound_to 10713
  157.1060  131.0208  151.3067 LP  0  0  0  0  0  0  0  0  0  0  0  0  # atno 17371 bound_to 10713
  141.2201  133.7353  156.9036 LP  0  0  0  0  0  0  0  0  0  0  0  0  # atno 17394 bound_to 11000
  140.1558  134.9199  157.2652 LP  0  0  0  0  0  0  0  0  0  0  0  0  # atno 17395 bound_to 11000

$$$$
