AV-unprocessed.smi:2213|AV-procd|sdf|8957|dock3
  -GOLD-   2272012173D 1   1.00000     0.00000
 Structure written by MMmdl.
 38 39  0  0  0  0  0  0  0  0  1 V2000
  152.3260  143.8776  160.4905 C   0  0  0  0  0  0  0  0  0  0  0  0
  152.0660  142.9520  159.3153 C   0  0  0  0  0  0  0  0  0  0  0  0
  151.1026  143.3908  158.4023 N   0  0  0  0  0  0  0  0  0  0  0  0
  150.8152  142.6667  157.3703 C   0  0  0  0  0  0  0  0  0  0  0  0
  151.4517  141.4379  157.1310 N   0  0  0  0  0  0  0  0  0  0  0  0
  151.0335  140.7119  155.9206 C   0  0  0  0  0  0  0  0  0  0  0  0
  149.7360  141.2911  155.3129 C   0  0  1  0  0  0  0  0  0  0  0  0
  149.5850  140.8631  153.9744 O   0  0  0  0  0  0  0  0  0  0  0  0
  148.4713  140.8735  156.0815 C   0  0  0  0  0  0  0  0  0  0  0  0
  147.3255  141.4517  155.4684 O   0  0  0  0  0  0  0  0  0  0  0  0
  146.3640  142.0242  156.2743 C   0  0  0  0  0  0  0  0  0  0  0  0
  146.3135  141.8627  157.6825 C   0  0  0  0  0  0  0  0  0  0  0  0
  145.2974  142.4811  158.4370 C   0  0  0  0  0  0  0  0  0  0  0  0
  145.2493  142.2754  160.1493 Cl  0  0  0  0  0  0  0  0  0  0  0  0
  144.3216  143.2669  157.7967 C   0  0  0  0  0  0  0  0  0  0  0  0
  144.3629  143.4336  156.4006 C   0  0  0  0  0  0  0  0  0  0  0  0
  145.3779  142.8158  155.6441 C   0  0  0  0  0  0  0  0  0  0  0  0
  145.4052  143.0345  153.9308 Cl  0  0  0  0  0  0  0  0  0  0  0  0
  152.3936  140.9301  157.9775 C   0  0  0  0  0  0  0  0  0  0  0  0
  152.9303  139.8403  157.7685 O   0  0  0  0  0  0  0  0  0  0  0  0
  152.7139  141.7672  159.1449 C   0  0  0  0  0  0  0  0  0  0  0  0
  153.7703  141.2374  160.1066 C   0  0  0  0  0  0  0  0  0  0  0  0
  153.3674  144.2002  160.5010 H   0  0  0  0  0  0  0  0  0  0  0  0
  152.1079  143.3702  161.4306 H   0  0  0  0  0  0  0  0  0  0  0  0
  151.7001  144.7696  160.4401 H   0  0  0  0  0  0  0  0  0  0  0  0
  150.0665  142.9599  156.6322 H   0  0  0  0  0  0  0  0  0  0  0  0
  151.8253  140.6749  155.1691 H   0  0  0  0  0  0  0  0  0  0  0  0
  150.8705  139.6658  156.1869 H   0  0  0  0  0  0  0  0  0  0  0  0
  149.7750  142.3812  155.3039 H   0  0  0  0  0  0  0  0  0  0  0  0
  149.1073  140.0477  153.9737 H   0  0  0  0  0  0  0  0  0  0  0  0
  148.3844  139.7864  156.0439 H   0  0  0  0  0  0  0  0  0  0  0  0
  148.5471  141.1645  157.1309 H   0  0  0  0  0  0  0  0  0  0  0  0
  147.0450  141.2683  158.2083 H   0  0  0  0  0  0  0  0  0  0  0  0
  143.5420  143.7419  158.3741 H   0  0  0  0  0  0  0  0  0  0  0  0
  143.6136  144.0367  155.9093 H   0  0  0  0  0  0  0  0  0  0  0  0
  153.4489  140.2855  160.5306 H   0  0  0  0  0  0  0  0  0  0  0  0
  153.9752  141.9135  160.9350 H   0  0  0  0  0  0  0  0  0  0  0  0
  154.7107  141.0728  159.5794 H   0  0  0  0  0  0  0  0  0  0  0  0
  1  2  1  0  0  0  0
  1 23  1  0  0  0  0
  1 24  1  0  0  0  0
  1 25  1  0  0  0  0
  2 21  2  0  0  0  0
  2  3  1  0  0  0  0
  3  4  2  0  0  0  0
  4  5  1  0  0  0  0
  4 26  1  0  0  0  0
  5  6  1  0  0  0  0
  5 19  1  0  0  0  0
  6  7  1  0  0  0  0
  6 27  1  0  0  0  0
  6 28  1  0  0  0  0
  7  8  1  0  0  0  0
  7  9  1  0  0  0  0
  7 29  1  0  0  0  0
  8 30  1  0  0  0  0
  9 10  1  0  0  0  0
  9 31  1  0  0  0  0
  9 32  1  0  0  0  0
 10 11  1  0  0  0  0
 11 17  1  0  0  0  0
 11 12  2  0  0  0  0
 12 13  1  0  0  0  0
 12 33  1  0  0  0  0
 13 14  1  0  0  0  0
 13 15  2  0  0  0  0
 15 16  1  0  0  0  0
 15 34  1  0  0  0  0
 16 17  2  0  0  0  0
 16 35  1  0  0  0  0
 17 18  1  0  0  0  0
 19 20  2  0  0  0  0
 19 21  1  0  0  0  0
 21 22  1  0  0  0  0
 22 36  1  0  0  0  0
 22 37  1  0  0  0  0
 22 38  1  0  0  0  0
M  END
> <s_m_source_file>
AV-unprocessed.smi

> <i_m_source_file_index>
2213

> <i_lp_mmshare_version>
43012

> <i_f3d_flags>
0

> <s_epik_input>
W0NIM11jMW5bY0hdbihjKD1PKWMxW0NIM10pW0NIMl1bQ0BIXShbT0hdKVtDSDJdT2MyW2NIXWMoQ2wpW2NIXVtjSF1jMkNs

> <s_epik_cmdline>
J2VwaWtfcHl0aG9uJywgJy1waCcsICc3LjAnLCAnLXRuJywgJzgnLCAnLW1hJywgJzIwMCcsICctbWV0YWxfYmluZGluZycsICctaW1hZScsICc8aW5maWxlLm1hZT4nLCAnLW9tYWUnLCAnPG91dGZpbGUubWFlPic=

> <r_lp_tautomer_probability>
1

> <r_epik_Ionization_Penalty>
3.50205e-05

> <r_epik_Ionization_Penalty_Charging>
7.87908e-08

> <r_epik_Ionization_Penalty_Neutral>
3.49418e-05

> <r_epik_State_Penalty>
-0

> <r_epik_Charging_Adjusted_Penalty>
7.87908e-08

> <i_epik_Tot_Q>
0

> <i_epik_Tot_abs_Q>
0

> <r_epik_Metal_State_Penalty>
-0

> <b_epik_Metal_Only>
0

> <s_lp_Force_Field>
OPLS_2005

> <r_lp_Energy>
23.8454

> <b_lp_Chiralities_Consistent>
1

> <s_lp_Variant>
AV-unprocessed.smi:2213-2

> <Gold.Version>
5.8.1

> <Gold.Id.Protein>
6NUR|6NUR_protein|mol2

> <Gold.PLP.Fitness>
47.3087

> <Gold.PLP.PLP>
-40.8722

> <Gold.PLP.part.hbond>
-4.0000

> <Gold.PLP.part.metal>
0.0000

> <Gold.PLP.part.buried>
-4.8172

> <Gold.PLP.part.nonpolar>
-32.1157

> <Gold.PLP.part.repulsive>
0.2220

> <Gold.PLP.ligand.clash>
1.8015

> <Gold.PLP.ligand.torsion>
0.7521

> <Gold.PLP.Chemscore.Hbond>
2.2352

> <Gold.PLP.Chemscore.CHOScore>
1.0000

> <Gold.PLP.Chemscore.Metal>
0.0000

> <Gold.Chemscore.Hbonds>
donor molecule, donor type, donor heavy atom, donor atom, acceptor molecule, acceptor atom, score
      P1  H  7989  7998       L1     8  0.36
      P1  H  7997  8010       L1    20  1.00
      P1  H  8011  8017       L1     8  0.38
      L1  C     4    26       P1  8028  1.00

> <Gold.PLP.Chemscore.Internal.Correction>
0.0364

> <Gold.Rescore>
     Score         DG    S(hbond)    S(metal)    S(lipo)     H(rot)  DE(clash)    DE(int)     intcor
     14.40     -15.49       1.78        0.00      86.79       2.38       0.54       0.54       ----

> <Gold.Chemscore.Fitness>
14.4044

> <Gold.Chemscore.DG>
-15.4886

> <Gold.Chemscore.ZeroCoef>
-5.4800

> <Gold.Chemscore.Hbond>
1.7825

> <Gold.Chemscore.Metal>
0.0000

> <Gold.Chemscore.Lipo>
86.7915

> <Gold.Chemscore.Internal_Hbond>
0.0000

> <Gold.Chemscore.DEClash>
0.5412

> <Gold.Chemscore.DEInternal>
0.5430

> <Gold.Chemscore.Rot>
2.3826

> <Gold.Chemscore.Internal.Correction>
   9.000000E+99

> <Gold.Chemscore.Hbonds>
donor molecule, donor type, donor heavy atom, donor atom, acceptor molecule, acceptor atom, score
      P1  H  7989  7998       L1     8  0.06
      P1  H  7997  8010       L1    20  0.68
      P1  H  8011  8017       L1     8  0.36

> <Gold.Chemscore.Hbond.Weighted>
-5.9536

> <Gold.Chemscore.Metal.Weighted>
-0.0000

> <Gold.Chemscore.Lipo.Weighted>
-10.1546

> <Gold.Chemscore.Internal_Hbond.Weighted>
0.0000

> <Gold.Chemscore.DEClash.Weighted>
0.5412

> <Gold.Chemscore.DEInternal.Weighted>
0.5430

> <Gold.Chemscore.Rot.Weighted>
6.0996

> <Gold.Chemscore.Internal.Correction.Weighted>
   9.000000E+99

> <Gold.Protein.RotatedTorsions>
[ 6907 6896 6895 6894 ] final -169.88 input  -60.11 | X-H torsion
[ 7974 7965 7964 7962 ] final  161.53 input  175.53 | X-H torsion
[ 8008 7997 7996 7995 ] final   58.66 input   59.86 | X-H torsion
[ 10167 10162 10161 10158 ] final  118.72 input  -65.29 | X-H torsion
[ 10718 10713 10712 10709 ] final -131.09 input   66.30 | X-H torsion
[ 10763 10752 10751 10750 ] final  -10.34 input  -60.55 | X-H torsion
[ 11005 11000 10999 10996 ] final -144.42 input  -57.11 | X-H torsion

> <Gold.Protein.ActiveResidues>
 VAL166  LYS551  ARG553  GLY616  TRP617  ASP618  TYR619  PRO620  LYS621  CYS622 
 ASP623  PHE694  ASN695  SER759  ASP760  ASP761  ALA762  ILE779  LEU786  VAL792 
 PHE793  MET794  SER795  GLU796  ALA797  LYS798  CYS799  TRP800  GLU811  SER814 

> <Gold.Protein.RotatedAtoms>
  151.4987  133.3509  159.2865 H   0  0  0  0  0  0  0  0  0  0  0  0  # atno 6907 bound_to 6896
  150.8787  134.8176  159.7220 H   0  0  0  0  0  0  0  0  0  0  0  0  # atno 6908 bound_to 6896
  152.4748  134.4881  159.9738 H   0  0  0  0  0  0  0  0  0  0  0  0  # atno 6909 bound_to 6896
  144.7681  139.7911  143.6307 H   0  0  0  0  0  0  0  0  0  0  0  0  # atno 7974 bound_to 7965
  155.5536  140.3487  155.4474 H   0  0  0  0  0  0  0  0  0  0  0  0  # atno 8008 bound_to 7997
  156.0565  140.1330  157.0016 H   0  0  0  0  0  0  0  0  0  0  0  0  # atno 8009 bound_to 7997
  154.4459  140.0994  156.6439 H   0  0  0  0  0  0  0  0  0  0  0  0  # atno 8010 bound_to 7997
  139.6093  144.7078  151.2881 H   0  0  0  0  0  0  0  0  0  0  0  0  # atno 10167 bound_to 10162
  156.2209  130.6978  151.0755 H   0  0  0  0  0  0  0  0  0  0  0  0  # atno 10718 bound_to 10713
  153.4678  135.7016  153.6012 H   0  0  0  0  0  0  0  0  0  0  0  0  # atno 10763 bound_to 10752
  153.4278  135.3810  155.2152 H   0  0  0  0  0  0  0  0  0  0  0  0  # atno 10764 bound_to 10752
  154.8726  135.3943  154.4112 H   0  0  0  0  0  0  0  0  0  0  0  0  # atno 10765 bound_to 10752
  140.8026  134.2839  157.4973 H   0  0  0  0  0  0  0  0  0  0  0  0  # atno 11005 bound_to 11000
  146.1806  139.4996  142.9869 LP  0  0  0  0  0  0  0  0  0  0  0  0  # atno 17320 bound_to 7965
  145.6407  141.0285  143.1813 LP  0  0  0  0  0  0  0  0  0  0  0  0  # atno 17321 bound_to 7965
  140.7308  143.6871  150.7953 LP  0  0  0  0  0  0  0  0  0  0  0  0  # atno 17342 bound_to 10162
  140.0462  143.5295  152.2695 LP  0  0  0  0  0  0  0  0  0  0  0  0  # atno 17343 bound_to 10162
  157.7087  131.0744  150.6578 LP  0  0  0  0  0  0  0  0  0  0  0  0  # atno 17370 bound_to 10713
  156.6641  130.4520  149.5678 LP  0  0  0  0  0  0  0  0  0  0  0  0  # atno 17371 bound_to 10713
  139.8720  134.9438  156.3863 LP  0  0  0  0  0  0  0  0  0  0  0  0  # atno 17394 bound_to 11000
  140.9279  133.7599  155.9988 LP  0  0  0  0  0  0  0  0  0  0  0  0  # atno 17395 bound_to 11000

$$$$
