AV-unprocessed.smi:1714|AV-procd|sdf|6907|dock4
  -GOLD-   22720 8113D 1   1.00000     0.00000
 Structure written by MMmdl.
 45 46  0  0  0  0  0  0  0  0  1 V2000
  145.4881  135.3225  150.9579 C   0  0  0  0  0  0  0  0  0  0  0  0
  145.4139  133.8119  151.1123 C   0  0  0  0  0  0  0  0  0  0  0  0
  144.3705  133.1031  150.4797 C   0  0  0  0  0  0  0  0  0  0  0  0
  144.3038  131.7069  150.6248 C   0  0  0  0  0  0  0  0  0  0  0  0
  145.2895  131.0748  151.4023 C   0  0  0  0  0  0  0  0  0  0  0  0
  146.2894  131.7445  152.0111 N   0  0  0  0  0  0  0  0  0  0  0  0
  146.3681  133.0924  151.8806 C   0  0  0  0  0  0  0  0  0  0  0  0
  147.3961  133.8646  152.4900 N   0  0  0  0  0  0  0  0  0  0  0  0
  148.0057  133.6659  153.6715 C   0  0  0  0  0  0  0  0  0  0  0  0
  147.7591  132.7541  154.4615 O   0  0  0  0  0  0  0  0  0  0  0  0
  148.9327  134.6049  153.8964 N   0  0  0  0  0  0  0  0  0  0  0  0
  149.7539  134.6908  155.0994 C   0  0  0  0  0  0  0  0  0  0  0  0
  149.4688  135.9872  155.9097 C   0  0  0  0  0  0  0  0  0  0  0  0
  147.9462  136.0294  156.1841 C   0  0  0  0  0  0  0  0  0  0  0  0
  150.1782  135.8086  157.2764 C   0  0  0  0  0  0  0  0  0  0  0  0
  149.9696  137.1991  155.2012 N   0  0  0  0  0  0  0  0  0  0  0  0
  149.3851  138.4653  155.6588 C   0  0  0  0  0  0  0  0  0  0  0  0
  149.8513  139.6599  154.8093 C   0  0  0  0  0  0  0  0  0  0  0  0
  151.2715  139.7313  154.8212 O   0  0  0  0  0  0  0  0  0  0  0  0
  151.8780  138.5441  154.3260 C   0  0  0  0  0  0  0  0  0  0  0  0
  151.4300  137.3402  155.1718 C   0  0  0  0  0  0  0  0  0  0  0  0
  144.6769  135.6988  150.3339 H   0  0  0  0  0  0  0  0  0  0  0  0
  146.4307  135.6137  150.4934 H   0  0  0  0  0  0  0  0  0  0  0  0
  145.4159  135.8089  151.9311 H   0  0  0  0  0  0  0  0  0  0  0  0
  143.6284  133.6209  149.8896 H   0  0  0  0  0  0  0  0  0  0  0  0
  143.5180  131.1357  150.1531 H   0  0  0  0  0  0  0  0  0  0  0  0
  145.2762  130.0036  151.5394 H   0  0  0  0  0  0  0  0  0  0  0  0
  147.7036  134.6662  151.9601 H   0  0  0  0  0  0  0  0  0  0  0  0
  149.0719  135.3226  153.1999 H   0  0  0  0  0  0  0  0  0  0  0  0
  149.5913  133.8000  155.7071 H   0  0  0  0  0  0  0  0  0  0  0  0
  150.8055  134.6517  154.8088 H   0  0  0  0  0  0  0  0  0  0  0  0
  147.6210  135.1341  156.7154 H   0  0  0  0  0  0  0  0  0  0  0  0
  147.3640  136.0754  155.2639 H   0  0  0  0  0  0  0  0  0  0  0  0
  147.6604  136.8813  156.8008 H   0  0  0  0  0  0  0  0  0  0  0  0
  149.9448  134.8424  157.7255 H   0  0  0  0  0  0  0  0  0  0  0  0
  149.8705  136.5608  158.0026 H   0  0  0  0  0  0  0  0  0  0  0  0
  151.2629  135.8676  157.1789 H   0  0  0  0  0  0  0  0  0  0  0  0
  148.2983  138.4318  155.6134 H   0  0  0  0  0  0  0  0  0  0  0  0
  149.6537  138.6498  156.6990 H   0  0  0  0  0  0  0  0  0  0  0  0
  149.4921  139.5675  153.7831 H   0  0  0  0  0  0  0  0  0  0  0  0
  149.4451  140.5891  155.2087 H   0  0  0  0  0  0  0  0  0  0  0  0
  151.6110  138.3997  153.2778 H   0  0  0  0  0  0  0  0  0  0  0  0
  152.9617  138.6539  154.3679 H   0  0  0  0  0  0  0  0  0  0  0  0
  151.8185  137.4576  156.1834 H   0  0  0  0  0  0  0  0  0  0  0  0
  151.8984  136.4515  154.7529 H   0  0  0  0  0  0  0  0  0  0  0  0
  1  2  1  0  0  0  0
  1 22  1  0  0  0  0
  1 23  1  0  0  0  0
  1 24  1  0  0  0  0
  2  7  1  0  0  0  0
  2  3  2  0  0  0  0
  3  4  1  0  0  0  0
  3 25  1  0  0  0  0
  4  5  2  0  0  0  0
  4 26  1  0  0  0  0
  5  6  1  0  0  0  0
  5 27  1  0  0  0  0
  6  7  2  0  0  0  0
  7  8  1  0  0  0  0
  8  9  1  0  0  0  0
  8 28  1  0  0  0  0
  9 10  2  0  0  0  0
  9 11  1  0  0  0  0
 11 12  1  0  0  0  0
 11 29  1  0  0  0  0
 12 13  1  0  0  0  0
 12 30  1  0  0  0  0
 12 31  1  0  0  0  0
 13 14  1  0  0  0  0
 13 15  1  0  0  0  0
 13 16  1  0  0  0  0
 14 32  1  0  0  0  0
 14 33  1  0  0  0  0
 14 34  1  0  0  0  0
 15 35  1  0  0  0  0
 15 36  1  0  0  0  0
 15 37  1  0  0  0  0
 16 21  1  0  0  0  0
 16 17  1  0  0  0  0
 17 18  1  0  0  0  0
 17 38  1  0  0  0  0
 17 39  1  0  0  0  0
 18 19  1  0  0  0  0
 18 40  1  0  0  0  0
 18 41  1  0  0  0  0
 19 20  1  0  0  0  0
 20 21  1  0  0  0  0
 20 42  1  0  0  0  0
 20 43  1  0  0  0  0
 21 44  1  0  0  0  0
 21 45  1  0  0  0  0
M  END
> <s_m_source_file>
AV-unprocessed.smi

> <i_m_source_file_index>
1714

> <i_lp_mmshare_version>
43012

> <i_f3d_flags>
0

> <s_epik_input>
W0NIM11jMVtjSF1bY0hdW2NIXW5jMVtOSF1DKD1PKVtOSF1bQ0gyXUMoW0NIM10pKFtDSDNdKU4yW0NIMl1bQ0gyXU9bQ0gyXVtDSDJdMg==

> <s_epik_cmdline>
J2VwaWtfcHl0aG9uJywgJy1waCcsICc3LjAnLCAnLXRuJywgJzgnLCAnLW1hJywgJzIwMCcsICctbWV0YWxfYmluZGluZycsICctaW1hZScsICc8aW5maWxlLm1hZT4nLCAnLW9tYWUnLCAnPG91dGZpbGUubWFlPic=

> <r_epik_Ionization_Penalty>
0.26605

> <r_epik_Ionization_Penalty_Charging>
0

> <r_epik_Ionization_Penalty_Neutral>
0.26605

> <r_epik_State_Penalty>
0.257924

> <r_epik_Charging_Adjusted_Penalty>
0.257924

> <i_epik_Tot_Q>
0

> <i_epik_Tot_abs_Q>
0

> <r_epik_Metal_State_Penalty>
0.257922

> <b_epik_Metal_Only>
0

> <s_lp_Force_Field>
OPLS_2005

> <r_lp_Energy>
43.6145

> <b_lp_Chiralities_Consistent>
1

> <s_lp_Variant>
AV-unprocessed.smi:1714-1

> <Gold.Version>
5.8.1

> <Gold.Id.Protein>
6NUR|6NUR_protein|mol2

> <Gold.PLP.Fitness>
40.5187

> <Gold.PLP.PLP>
-32.9111

> <Gold.PLP.part.hbond>
-3.0000

> <Gold.PLP.part.metal>
0.0000

> <Gold.PLP.part.buried>
-5.8536

> <Gold.PLP.part.nonpolar>
-23.8973

> <Gold.PLP.part.repulsive>
0.3488

> <Gold.PLP.ligand.clash>
0.0000

> <Gold.PLP.ligand.torsion>
0.6940

> <Gold.PLP.Chemscore.Hbond>
2.9760

> <Gold.PLP.Chemscore.CHOScore>
0.0000

> <Gold.PLP.Chemscore.Metal>
0.0000

> <Gold.Chemscore.Hbonds>
donor molecule, donor type, donor heavy atom, donor atom, acceptor molecule, acceptor atom, score
      L1  H     8    28       P1  7948  0.94
      L1  H    11    29       P1  7948  1.00
      P1  H  7989  7998       L1    19  1.00

> <Gold.PLP.Chemscore.Internal.Correction>
0.0676

> <Gold.Rescore>
     Score         DG    S(hbond)    S(metal)    S(lipo)     H(rot)  DE(clash)    DE(int)     intcor
     14.80     -15.36       1.68        0.00      68.27       1.45       0.05       0.52       ----

> <Gold.Chemscore.Fitness>
14.7955

> <Gold.Chemscore.DG>
-15.3637

> <Gold.Chemscore.ZeroCoef>
-5.4800

> <Gold.Chemscore.Hbond>
1.6791

> <Gold.Chemscore.Metal>
0.0000

> <Gold.Chemscore.Lipo>
68.2654

> <Gold.Chemscore.Internal_Hbond>
0.0000

> <Gold.Chemscore.DEClash>
0.0456

> <Gold.Chemscore.DEInternal>
0.5225

> <Gold.Chemscore.Rot>
1.4498

> <Gold.Chemscore.Internal.Correction>
   9.000000E+99

> <Gold.Chemscore.Hbonds>
donor molecule, donor type, donor heavy atom, donor atom, acceptor molecule, acceptor atom, score
      L1  H     8    28       P1  7948  0.45
      L1  H    11    29       P1  7948  0.34
      P1  H  7989  7998       L1    19  0.11

> <Gold.Chemscore.Hbond.Weighted>
-5.6082

> <Gold.Chemscore.Metal.Weighted>
-0.0000

> <Gold.Chemscore.Lipo.Weighted>
-7.9871

> <Gold.Chemscore.Internal_Hbond.Weighted>
0.0000

> <Gold.Chemscore.DEClash.Weighted>
0.0456

> <Gold.Chemscore.DEInternal.Weighted>
0.5225

> <Gold.Chemscore.Rot.Weighted>
3.7116

> <Gold.Chemscore.Internal.Correction.Weighted>
   9.000000E+99

> <Gold.Protein.RotatedTorsions>
[ 6907 6896 6895 6894 ] final -125.62 input  -60.11 | X-H torsion
[ 7974 7965 7964 7962 ] final  -20.31 input  175.53 | X-H torsion
[ 8008 7997 7996 7995 ] final  -44.31 input   59.86 | X-H torsion
[ 10167 10162 10161 10158 ] final   26.84 input  -65.29 | X-H torsion
[ 10718 10713 10712 10709 ] final  125.26 input   66.30 | X-H torsion
[ 10763 10752 10751 10750 ] final   15.10 input  -60.55 | X-H torsion
[ 11005 11000 10999 10996 ] final -168.40 input  -57.11 | X-H torsion

> <Gold.Protein.ActiveResidues>
 VAL166  LYS551  ARG553  GLY616  TRP617  ASP618  TYR619  PRO620  LYS621  CYS622 
 ASP623  PHE694  ASN695  SER759  ASP760  ASP761  ALA762  ILE779  LEU786  VAL792 
 PHE793  MET794  SER795  GLU796  ALA797  LYS798  CYS799  TRP800  GLU811  SER814 

> <Gold.Protein.RotatedAtoms>
  150.8885  133.7274  159.2911 H   0  0  0  0  0  0  0  0  0  0  0  0  # atno 6907 bound_to 6896
  151.4832  135.1052  159.9793 H   0  0  0  0  0  0  0  0  0  0  0  0  # atno 6908 bound_to 6896
  152.4805  133.8197  159.7102 H   0  0  0  0  0  0  0  0  0  0  0  0  # atno 6909 bound_to 6896
  146.1795  140.4183  142.8500 H   0  0  0  0  0  0  0  0  0  0  0  0  # atno 7974 bound_to 7965
  154.3997  140.1425  156.3663 H   0  0  0  0  0  0  0  0  0  0  0  0  # atno 8008 bound_to 7997
  155.8134  140.3472  155.5450 H   0  0  0  0  0  0  0  0  0  0  0  0  # atno 8009 bound_to 7997
  155.8362  140.0920  157.1753 H   0  0  0  0  0  0  0  0  0  0  0  0  # atno 8010 bound_to 7997
  140.4988  144.0348  150.6325 H   0  0  0  0  0  0  0  0  0  0  0  0  # atno 10167 bound_to 10162
  157.5517  131.1093  150.8690 H   0  0  0  0  0  0  0  0  0  0  0  0  # atno 10718 bound_to 10713
  153.1558  135.6787  153.8815 H   0  0  0  0  0  0  0  0  0  0  0  0  # atno 10763 bound_to 10752
  153.8227  135.3128  155.3413 H   0  0  0  0  0  0  0  0  0  0  0  0  # atno 10764 bound_to 10752
  154.7896  135.4842  154.0110 H   0  0  0  0  0  0  0  0  0  0  0  0  # atno 10765 bound_to 10752
  140.5424  134.5509  157.5103 H   0  0  0  0  0  0  0  0  0  0  0  0  # atno 11005 bound_to 11000
  144.8291  140.6678  143.6302 LP  0  0  0  0  0  0  0  0  0  0  0  0  # atno 17320 bound_to 7965
  145.4116  139.1579  143.4122 LP  0  0  0  0  0  0  0  0  0  0  0  0  # atno 17321 bound_to 7965
  140.3638  143.2893  152.0354 LP  0  0  0  0  0  0  0  0  0  0  0  0  # atno 17342 bound_to 10162
  139.4867  144.6283  151.7121 LP  0  0  0  0  0  0  0  0  0  0  0  0  # atno 17343 bound_to 10162
  156.9213  130.5316  149.5279 LP  0  0  0  0  0  0  0  0  0  0  0  0  # atno 17370 bound_to 10713
  156.0583  130.5640  150.9138 LP  0  0  0  0  0  0  0  0  0  0  0  0  # atno 17371 bound_to 10713
  139.9497  134.7639  156.0478 LP  0  0  0  0  0  0  0  0  0  0  0  0  # atno 17394 bound_to 11000
  141.1219  133.6610  156.3237 LP  0  0  0  0  0  0  0  0  0  0  0  0  # atno 17395 bound_to 11000

$$$$
