AV-unprocessed.smi:869|AV-procd|sdf|4004|dock2
  -GOLD-   22720 1483D 1   1.00000     0.00000
 Structure written by MMmdl.
 46 48  0  0  0  0  0  0  0  0  1 V2000
  149.1017  133.7390  155.4330 C   0  0  0  0  0  0  0  0  0  0  0  0
  148.6790  135.0773  155.2413 O   0  0  0  0  0  0  0  0  0  0  0  0
  149.7684  135.9721  155.0793 C   0  0  0  0  0  0  0  0  0  0  0  0
  149.1980  137.3497  154.8954 C   0  0  0  0  0  0  0  0  0  0  0  0
  147.8813  137.5695  154.8884 N   0  0  0  0  0  0  0  0  0  0  0  0
  147.7977  138.9343  154.6994 C   0  0  0  0  0  0  0  0  0  0  0  0
  146.6705  139.7819  154.6081 C   0  0  0  0  0  0  0  0  0  0  0  0
  146.8344  141.1686  154.4102 C   0  0  0  0  0  0  0  0  0  0  0  0
  148.1249  141.7261  154.3006 C   0  0  0  0  0  0  0  0  0  0  0  0
  149.2610  140.8987  154.3875 C   0  0  0  0  0  0  0  0  0  0  0  0
  149.0915  139.5151  154.5854 C   0  0  0  0  0  0  0  0  0  0  0  0
  149.9761  138.4483  154.7102 N   0  0  0  0  0  0  0  0  0  0  0  0
  151.4288  138.5421  154.6483 C   0  0  0  0  0  0  0  0  0  0  0  0
  152.0478  139.0036  155.9841 C   0  0  1  0  0  0  0  0  0  0  0  0
  153.4584  138.9106  155.9752 O   0  0  0  0  0  0  0  0  0  0  0  0
  151.6407  140.4283  156.3938 C   0  0  0  0  0  0  0  0  0  0  0  0
  151.9909  140.6587  157.7532 O   0  0  0  0  0  0  0  0  0  0  0  0
  152.0195  141.9584  158.2108 C   0  0  0  0  0  0  0  0  0  0  0  0
  152.5679  142.1730  159.4919 C   0  0  0  0  0  0  0  0  0  0  0  0
  152.6378  143.4685  160.0392 C   0  0  0  0  0  0  0  0  0  0  0  0
  152.1574  144.5717  159.3073 C   0  0  0  0  0  0  0  0  0  0  0  0
  152.2311  145.9632  159.9013 C   0  0  0  0  0  0  0  0  0  0  0  0
  151.6063  144.3694  158.0261 C   0  0  0  0  0  0  0  0  0  0  0  0
  151.5372  143.0730  157.4792 C   0  0  0  0  0  0  0  0  0  0  0  0
  148.2312  133.0959  155.5628 H   0  0  0  0  0  0  0  0  0  0  0  0
  149.7254  133.6445  156.3230 H   0  0  0  0  0  0  0  0  0  0  0  0
  149.6632  133.3763  154.5708 H   0  0  0  0  0  0  0  0  0  0  0  0
  150.4115  135.9204  155.9569 H   0  0  0  0  0  0  0  0  0  0  0  0
  150.3613  135.7104  154.2017 H   0  0  0  0  0  0  0  0  0  0  0  0
  145.6782  139.3638  154.6914 H   0  0  0  0  0  0  0  0  0  0  0  0
  145.9659  141.8073  154.3429 H   0  0  0  0  0  0  0  0  0  0  0  0
  148.2419  142.7893  154.1499 H   0  0  0  0  0  0  0  0  0  0  0  0
  150.2510  141.3224  154.3042 H   0  0  0  0  0  0  0  0  0  0  0  0
  151.8418  137.5878  154.3233 H   0  0  0  0  0  0  0  0  0  0  0  0
  151.6871  139.2538  153.8632 H   0  0  0  0  0  0  0  0  0  0  0  0
  151.7106  138.3265  156.7700 H   0  0  0  0  0  0  0  0  0  0  0  0
  153.6977  137.9979  155.9226 H   0  0  0  0  0  0  0  0  0  0  0  0
  152.1754  141.1407  155.7633 H   0  0  0  0  0  0  0  0  0  0  0  0
  150.5717  140.5779  156.2315 H   0  0  0  0  0  0  0  0  0  0  0  0
  152.9396  141.3344  160.0623 H   0  0  0  0  0  0  0  0  0  0  0  0
  153.0608  143.6126  161.0227 H   0  0  0  0  0  0  0  0  0  0  0  0
  152.0033  146.7258  159.1560 H   0  0  0  0  0  0  0  0  0  0  0  0
  153.2307  146.1583  160.2907 H   0  0  0  0  0  0  0  0  0  0  0  0
  151.5178  146.0607  160.7200 H   0  0  0  0  0  0  0  0  0  0  0  0
  151.2331  145.2078  157.4563 H   0  0  0  0  0  0  0  0  0  0  0  0
  151.1078  142.9606  156.4954 H   0  0  0  0  0  0  0  0  0  0  0  0
  1  2  1  0  0  0  0
  1 25  1  0  0  0  0
  1 26  1  0  0  0  0
  1 27  1  0  0  0  0
  2  3  1  0  0  0  0
  3  4  1  0  0  0  0
  3 28  1  0  0  0  0
  3 29  1  0  0  0  0
  4 12  1  0  0  0  0
  4  5  2  0  0  0  0
  5  6  1  0  0  0  0
  6 11  2  0  0  0  0
  6  7  1  0  0  0  0
  7  8  2  0  0  0  0
  7 30  1  0  0  0  0
  8  9  1  0  0  0  0
  8 31  1  0  0  0  0
  9 10  2  0  0  0  0
  9 32  1  0  0  0  0
 10 11  1  0  0  0  0
 10 33  1  0  0  0  0
 11 12  1  0  0  0  0
 12 13  1  0  0  0  0
 13 14  1  0  0  0  0
 13 34  1  0  0  0  0
 13 35  1  0  0  0  0
 14 15  1  0  0  0  0
 14 16  1  0  0  0  0
 14 36  1  0  0  0  0
 15 37  1  0  0  0  0
 16 17  1  0  0  0  0
 16 38  1  0  0  0  0
 16 39  1  0  0  0  0
 17 18  1  0  0  0  0
 18 24  1  0  0  0  0
 18 19  2  0  0  0  0
 19 20  1  0  0  0  0
 19 40  1  0  0  0  0
 20 21  2  0  0  0  0
 20 41  1  0  0  0  0
 21 22  1  0  0  0  0
 21 23  1  0  0  0  0
 22 42  1  0  0  0  0
 22 43  1  0  0  0  0
 22 44  1  0  0  0  0
 23 24  2  0  0  0  0
 23 45  1  0  0  0  0
 24 46  1  0  0  0  0
M  END
> <s_m_source_file>
AV-unprocessed.smi

> <i_m_source_file_index>
869

> <i_lp_mmshare_version>
43012

> <i_f3d_flags>
0

> <s_epik_input>
W2NIXTFbY0hdW2NIXVtjSF1jKGMxMiluKGMobjIpW0NIMl1PW0NIM10pW0NIMl1bQ0BIXShbT0hdKVtDSDJdT2MzW2NIXVtjSF1jKFtDSDNdKVtjSF1bY0hdMw==

> <s_epik_cmdline>
J2VwaWtfcHl0aG9uJywgJy1waCcsICc3LjAnLCAnLXRuJywgJzgnLCAnLW1hJywgJzIwMCcsICctbWV0YWxfYmluZGluZycsICctaW1hZScsICc8aW5maWxlLm1hZT4nLCAnLW9tYWUnLCAnPG91dGZpbGUubWFlPic=

> <r_lp_tautomer_probability>
1

> <r_epik_Ionization_Penalty>
0.0446698

> <r_epik_Ionization_Penalty_Charging>
0

> <r_epik_Ionization_Penalty_Neutral>
0.0446698

> <r_epik_State_Penalty>
0.0378721

> <r_epik_Charging_Adjusted_Penalty>
0.0378721

> <i_epik_Tot_Q>
0

> <i_epik_Tot_abs_Q>
0

> <r_epik_Metal_State_Penalty>
3.91074e-05

> <b_epik_Metal_Only>
0

> <s_lp_Force_Field>
OPLS_2005

> <r_lp_Energy>
18.5204

> <b_lp_Chiralities_Consistent>
1

> <s_lp_Variant>
AV-unprocessed.smi:869-2

> <Gold.Version>
5.8.1

> <Gold.Id.Protein>
6NUR|6NUR_protein|mol2

> <Gold.PLP.Fitness>
51.5194

> <Gold.PLP.PLP>
-49.7320

> <Gold.PLP.part.hbond>
-0.6307

> <Gold.PLP.part.metal>
0.0000

> <Gold.PLP.part.buried>
-4.9471

> <Gold.PLP.part.nonpolar>
-45.6475

> <Gold.PLP.part.repulsive>
0.2260

> <Gold.PLP.ligand.clash>
0.0000

> <Gold.PLP.ligand.torsion>
0.5287

> <Gold.PLP.Chemscore.Hbond>
0.9100

> <Gold.PLP.Chemscore.CHOScore>
0.0000

> <Gold.PLP.Chemscore.Metal>
0.0000

> <Gold.Chemscore.Hbonds>
donor molecule, donor type, donor heavy atom, donor atom, acceptor molecule, acceptor atom, score
      P1  H  7997  8010       L1    15  0.94

> <Gold.PLP.Chemscore.Internal.Correction>
0.1148

> <Gold.Rescore>
     Score         DG    S(hbond)    S(metal)    S(lipo)     H(rot)  DE(clash)    DE(int)     intcor
     15.60     -16.83       0.23        0.00     142.04       2.36       0.43       0.80       ----

> <Gold.Chemscore.Fitness>
15.6012

> <Gold.Chemscore.DG>
-16.8313

> <Gold.Chemscore.ZeroCoef>
-5.4800

> <Gold.Chemscore.Hbond>
0.2307

> <Gold.Chemscore.Metal>
0.0000

> <Gold.Chemscore.Lipo>
142.0398

> <Gold.Chemscore.Internal_Hbond>
0.0000

> <Gold.Chemscore.DEClash>
0.4285

> <Gold.Chemscore.DEInternal>
0.8016

> <Gold.Chemscore.Rot>
2.3585

> <Gold.Chemscore.Internal.Correction>
   9.000000E+99

> <Gold.Chemscore.Hbonds>
donor molecule, donor type, donor heavy atom, donor atom, acceptor molecule, acceptor atom, score
      P1  H  7997  8010       L1    15  0.84

> <Gold.Chemscore.Hbond.Weighted>
-0.7705

> <Gold.Chemscore.Metal.Weighted>
-0.0000

> <Gold.Chemscore.Lipo.Weighted>
-16.6187

> <Gold.Chemscore.Internal_Hbond.Weighted>
0.0000

> <Gold.Chemscore.DEClash.Weighted>
0.4285

> <Gold.Chemscore.DEInternal.Weighted>
0.8016

> <Gold.Chemscore.Rot.Weighted>
6.0378

> <Gold.Chemscore.Internal.Correction.Weighted>
   9.000000E+99

> <Gold.Protein.RotatedTorsions>
[ 6907 6896 6895 6894 ] final   23.03 input  -60.11 | X-H torsion
[ 7974 7965 7964 7962 ] final   15.71 input  175.53 | X-H torsion
[ 8008 7997 7996 7995 ] final   73.42 input   59.86 | X-H torsion
[ 10167 10162 10161 10158 ] final -150.38 input  -65.29 | X-H torsion
[ 10718 10713 10712 10709 ] final  -50.88 input   66.30 | X-H torsion
[ 10763 10752 10751 10750 ] final -179.10 input  -60.55 | X-H torsion
[ 11005 11000 10999 10996 ] final   57.03 input  -57.11 | X-H torsion

> <Gold.Protein.ActiveResidues>
 VAL166  LYS551  ARG553  GLY616  TRP617  ASP618  TYR619  PRO620  LYS621  CYS622 
 ASP623  PHE694  ASN695  SER759  ASP760  ASP761  ALA762  ILE779  LEU786  VAL792 
 PHE793  MET794  SER795  GLU796  ALA797  LYS798  CYS799  TRP800  GLU811  SER814 

> <Gold.Protein.RotatedAtoms>
  151.9361  135.0234  160.0532 H   0  0  0  0  0  0  0  0  0  0  0  0  # atno 6907 bound_to 6896
  152.2076  133.4883  159.5101 H   0  0  0  0  0  0  0  0  0  0  0  0  # atno 6908 bound_to 6896
  150.6969  134.1426  159.4153 H   0  0  0  0  0  0  0  0  0  0  0  0  # atno 6909 bound_to 6896
  146.2270  139.8854  142.8564 H   0  0  0  0  0  0  0  0  0  0  0  0  # atno 7974 bound_to 7965
  155.7834  140.3481  155.5310 H   0  0  0  0  0  0  0  0  0  0  0  0  # atno 8008 bound_to 7997
  155.8706  140.0986  157.1573 H   0  0  0  0  0  0  0  0  0  0  0  0  # atno 8009 bound_to 7997
  154.4017  140.1341  156.4060 H   0  0  0  0  0  0  0  0  0  0  0  0  # atno 8010 bound_to 7997
  139.7360  143.8735  152.2549 H   0  0  0  0  0  0  0  0  0  0  0  0  # atno 10167 bound_to 10162
  156.1760  130.4150  149.9576 H   0  0  0  0  0  0  0  0  0  0  0  0  # atno 10718 bound_to 10713
  154.5394  135.2805  155.1109 H   0  0  0  0  0  0  0  0  0  0  0  0  # atno 10763 bound_to 10752
  154.2598  135.6324  153.5274 H   0  0  0  0  0  0  0  0  0  0  0  0  # atno 10764 bound_to 10752
  152.9975  135.5603  154.5929 H   0  0  0  0  0  0  0  0  0  0  0  0  # atno 10765 bound_to 10752
  140.0484  134.5773  155.9294 H   0  0  0  0  0  0  0  0  0  0  0  0  # atno 11005 bound_to 11000
  145.2471  141.0030  143.3902 LP  0  0  0  0  0  0  0  0  0  0  0  0  # atno 17320 bound_to 7965
  144.9405  139.4195  143.6451 LP  0  0  0  0  0  0  0  0  0  0  0  0  # atno 17321 bound_to 7965
  139.8672  144.7087  150.9030 LP  0  0  0  0  0  0  0  0  0  0  0  0  # atno 17342 bound_to 10162
  140.7779  143.3768  151.1549 LP  0  0  0  0  0  0  0  0  0  0  0  0  # atno 17343 bound_to 10162
  156.7361  130.9062  151.3629 LP  0  0  0  0  0  0  0  0  0  0  0  0  # atno 17370 bound_to 10713
  157.6836  130.9164  150.0329 LP  0  0  0  0  0  0  0  0  0  0  0  0  # atno 17371 bound_to 10713
  141.1918  133.6573  156.5473 LP  0  0  0  0  0  0  0  0  0  0  0  0  # atno 17394 bound_to 11000
  140.3957  134.7401  157.4749 LP  0  0  0  0  0  0  0  0  0  0  0  0  # atno 17395 bound_to 11000

$$$$
