AV-unprocessed.smi:3306|AV-procd|sdf|12704|dock2
  -GOLD-   2272019 33D 1   1.00000     0.00000
 Structure written by MMmdl.
 44 45  0  0  0  0  0  0  0  0  2 V2000
  148.5823  134.4435  156.4493 C   0  0  0  0  0  0  0  0  0  0  0  0
  148.5520  134.8601  154.9630 C   0  0  0  0  0  0  0  0  0  0  0  0
  149.2288  133.7478  154.1343 C   0  0  0  0  0  0  0  0  0  0  0  0
  149.1753  136.2016  154.7124 N   0  3  2  0  0  0  0  0  0  0  0  0
  150.6025  136.3002  155.1381 C   0  0  0  0  0  0  0  0  0  0  0  0
  151.2226  137.6562  154.7630 C   0  0  0  0  0  0  0  0  0  0  0  0
  150.4281  138.8226  155.3633 C   0  0  1  0  0  0  0  0  0  0  0  0
  151.0171  140.0680  154.8893 N   0  0  0  0  0  0  0  0  0  0  0  0
  151.0143  141.1033  155.9147 C   0  0  0  0  0  0  0  0  0  0  0  0
  151.5507  140.5583  157.2498 C   0  0  0  0  0  0  0  0  0  0  0  0
  151.8817  141.6482  158.2563 C   0  0  0  0  0  0  0  0  0  0  0  0
  152.4042  141.3156  159.5246 C   0  0  0  0  0  0  0  0  0  0  0  0
  152.6802  142.3570  160.4317 C   0  0  0  0  0  0  0  0  0  0  0  0
  152.4234  143.6845  160.0387 C   0  0  0  0  0  0  0  0  0  0  0  0
  151.9001  143.9124  158.7504 C   0  0  0  0  0  0  0  0  0  0  0  0
  151.6314  142.9211  157.8736 N   0  0  0  0  0  0  0  0  0  0  0  0
  148.9626  138.6991  154.9147 C   0  0  0  0  0  0  0  0  0  0  0  0
  148.3804  137.3261  155.2873 C   0  0  0  0  0  0  0  0  0  0  0  0
  148.2325  133.4185  156.5767 H   0  0  0  0  0  0  0  0  0  0  0  0
  147.9269  135.0604  157.0642 H   0  0  0  0  0  0  0  0  0  0  0  0
  149.5915  134.4976  156.8594 H   0  0  0  0  0  0  0  0  0  0  0  0
  147.5044  134.9150  154.6625 H   0  0  0  0  0  0  0  0  0  0  0  0
  148.8430  132.7655  154.4086 H   0  0  0  0  0  0  0  0  0  0  0  0
  150.3071  133.7322  154.2966 H   0  0  0  0  0  0  0  0  0  0  0  0
  149.0473  133.8503  153.0655 H   0  0  0  0  0  0  0  0  0  0  0  0
  150.6762  136.1345  156.2140 H   0  0  0  0  0  0  0  0  0  0  0  0
  151.2082  135.5368  154.6529 H   0  0  0  0  0  0  0  0  0  0  0  0
  152.2569  137.6918  155.1078 H   0  0  0  0  0  0  0  0  0  0  0  0
  151.2570  137.7463  153.6757 H   0  0  0  0  0  0  0  0  0  0  0  0
  150.4973  138.7729  156.4512 H   0  0  0  0  0  0  0  0  0  0  0  0
  151.9699  139.9045  154.5953 H   0  0  0  0  0  0  0  0  0  0  0  0
  151.6148  141.9580  155.6048 H   0  0  0  0  0  0  0  0  0  0  0  0
  149.9927  141.4594  156.0530 H   0  0  0  0  0  0  0  0  0  0  0  0
  150.8061  139.8952  157.6917 H   0  0  0  0  0  0  0  0  0  0  0  0
  152.4341  139.9418  157.0769 H   0  0  0  0  0  0  0  0  0  0  0  0
  152.5870  140.2868  159.7982 H   0  0  0  0  0  0  0  0  0  0  0  0
  153.0800  142.1413  161.4115 H   0  0  0  0  0  0  0  0  0  0  0  0
  152.6226  144.5083  160.7082 H   0  0  0  0  0  0  0  0  0  0  0  0
  151.6903  144.9177  158.4159 H   0  0  0  0  0  0  0  0  0  0  0  0
  148.3507  139.4768  155.3709 H   0  0  0  0  0  0  0  0  0  0  0  0
  148.8895  138.8434  153.8354 H   0  0  0  0  0  0  0  0  0  0  0  0
  147.3546  137.3049  154.9256 H   0  0  0  0  0  0  0  0  0  0  0  0
  148.3349  137.2223  156.3726 H   0  0  0  0  0  0  0  0  0  0  0  0
  149.1737  136.3310  153.7106 H   0  0  0  0  0  0  0  0  0  0  0  0
  1  2  1  0  0  0  0
  1 19  1  0  0  0  0
  1 20  1  0  0  0  0
  1 21  1  0  0  0  0
  2  3  1  0  0  0  0
  2  4  1  0  0  0  0
  2 22  1  0  0  0  0
  3 23  1  0  0  0  0
  3 24  1  0  0  0  0
  3 25  1  0  0  0  0
  4 18  1  0  0  0  0
  4  5  1  0  0  0  0
  4 44  1  0  0  0  0
  5  6  1  0  0  0  0
  5 26  1  0  0  0  0
  5 27  1  0  0  0  0
  6  7  1  0  0  0  0
  6 28  1  0  0  0  0
  6 29  1  0  0  0  0
  7  8  1  0  0  0  0
  7 17  1  0  0  0  0
  7 30  1  0  0  0  0
  8  9  1  0  0  0  0
  8 31  1  0  0  0  0
  9 10  1  0  0  0  0
  9 32  1  0  0  0  0
  9 33  1  0  0  0  0
 10 11  1  0  0  0  0
 10 34  1  0  0  0  0
 10 35  1  0  0  0  0
 11 16  1  0  0  0  0
 11 12  2  0  0  0  0
 12 13  1  0  0  0  0
 12 36  1  0  0  0  0
 13 14  2  0  0  0  0
 13 37  1  0  0  0  0
 14 15  1  0  0  0  0
 14 38  1  0  0  0  0
 15 16  2  0  0  0  0
 15 39  1  0  0  0  0
 17 18  1  0  0  0  0
 17 40  1  0  0  0  0
 17 41  1  0  0  0  0
 18 42  1  0  0  0  0
 18 43  1  0  0  0  0
M  CHG  1   4   1
M  END
> <s_m_source_file>
AV-unprocessed.smi

> <i_m_source_file_index>
3306

> <i_lp_mmshare_version>
43012

> <i_f3d_flags>
0

> <s_epik_input>
W0NIM11bQ0hdKFtDSDNdKU4xW0NIMl1bQ0gyXVtDSF0oW0NIMl1bQ0gyXTEpW05IXVtDSDJdW0NIMl1jMltjSF1bY0hdW2NIXVtjSF1uMg==

> <s_epik_cmdline>
J2VwaWtfcHl0aG9uJywgJy1waCcsICc3LjAnLCAnLXRuJywgJzgnLCAnLW1hJywgJzIwMCcsICctbWV0YWxfYmluZGluZycsICctaW1hZScsICc8aW5maWxlLm1hZT4nLCAnLW9tYWUnLCAnPG91dGZpbGUubWFlPic=

> <r_epik_Ionization_Penalty>
2.29993

> <r_epik_Ionization_Penalty_Charging>
0.000386008

> <r_epik_Ionization_Penalty_Neutral>
2.29954

> <r_epik_State_Penalty>
2.40593

> <r_epik_Charging_Adjusted_Penalty>
2.40631

> <i_epik_Tot_Q>
1

> <i_epik_Tot_abs_Q>
1

> <r_epik_Metal_State_Penalty>
2.31593

> <b_epik_Metal_Only>
0

> <s_lp_Force_Field>
OPLS_2005

> <r_lp_Energy>
25.7367

> <b_lp_Chiralities_Consistent>
1

> <s_lp_Variant>
AV-unprocessed.smi:3306-4

> <Gold.Version>
5.8.1

> <Gold.Id.Protein>
6NUR|6NUR_protein|mol2

> <Gold.PLP.Fitness>
40.8890

> <Gold.PLP.PLP>
-36.0832

> <Gold.PLP.part.hbond>
-2.0000

> <Gold.PLP.part.metal>
0.0000

> <Gold.PLP.part.buried>
-5.0857

> <Gold.PLP.part.nonpolar>
-29.4631

> <Gold.PLP.part.repulsive>
0.0832

> <Gold.PLP.ligand.clash>
0.0000

> <Gold.PLP.ligand.torsion>
0.6609

> <Gold.PLP.Chemscore.Hbond>
2.0000

> <Gold.PLP.Chemscore.CHOScore>
0.0000

> <Gold.PLP.Chemscore.Metal>
0.0000

> <Gold.Chemscore.Hbonds>
donor molecule, donor type, donor heavy atom, donor atom, acceptor molecule, acceptor atom, score
      L1  H     4    44       P1  7948  2.00

> <Gold.PLP.Chemscore.Internal.Correction>
0.1276

> <Gold.Rescore>
     Score         DG    S(hbond)    S(metal)    S(lipo)     H(rot)  DE(clash)    DE(int)     intcor
     16.86     -17.50       0.98        0.00     105.68       1.41       0.02       0.62       ----

> <Gold.Chemscore.Fitness>
16.8612

> <Gold.Chemscore.DG>
-17.5035

> <Gold.Chemscore.ZeroCoef>
-5.4800

> <Gold.Chemscore.Hbond>
0.9771

> <Gold.Chemscore.Metal>
0.0000

> <Gold.Chemscore.Lipo>
105.6753

> <Gold.Chemscore.Internal_Hbond>
0.0000

> <Gold.Chemscore.DEClash>
0.0174

> <Gold.Chemscore.DEInternal>
0.6249

> <Gold.Chemscore.Rot>
1.4078

> <Gold.Chemscore.Internal.Correction>
   9.000000E+99

> <Gold.Chemscore.Hbonds>
donor molecule, donor type, donor heavy atom, donor atom, acceptor molecule, acceptor atom, score
      L1  H     4    44       P1  7948  0.96

> <Gold.Chemscore.Hbond.Weighted>
-3.2636

> <Gold.Chemscore.Metal.Weighted>
-0.0000

> <Gold.Chemscore.Lipo.Weighted>
-12.3640

> <Gold.Chemscore.Internal_Hbond.Weighted>
0.0000

> <Gold.Chemscore.DEClash.Weighted>
0.0174

> <Gold.Chemscore.DEInternal.Weighted>
0.6249

> <Gold.Chemscore.Rot.Weighted>
3.6041

> <Gold.Chemscore.Internal.Correction.Weighted>
   9.000000E+99

> <Gold.Protein.RotatedTorsions>
[ 6907 6896 6895 6894 ] final  -56.18 input  -60.11 | X-H torsion
[ 7974 7965 7964 7962 ] final  156.02 input  175.53 | X-H torsion
[ 8008 7997 7996 7995 ] final -149.42 input   59.86 | X-H torsion
[ 10167 10162 10161 10158 ] final   46.91 input  -65.29 | X-H torsion
[ 10718 10713 10712 10709 ] final  165.81 input   66.30 | X-H torsion
[ 10763 10752 10751 10750 ] final  115.88 input  -60.55 | X-H torsion
[ 11005 11000 10999 10996 ] final  -11.80 input  -57.11 | X-H torsion

> <Gold.Protein.ActiveResidues>
 VAL166  LYS551  ARG553  GLY616  TRP617  ASP618  TYR619  PRO620  LYS621  CYS622 
 ASP623  PHE694  ASN695  SER759  ASP760  ASP761  ALA762  ILE779  LEU786  VAL792 
 PHE793  MET794  SER795  GLU796  ALA797  LYS798  CYS799  TRP800  GLU811  SER814 

> <Gold.Protein.RotatedAtoms>
  150.8189  134.7386  159.6754 H   0  0  0  0  0  0  0  0  0  0  0  0  # atno 6907 bound_to 6896
  152.4306  134.5782  159.9950 H   0  0  0  0  0  0  0  0  0  0  0  0  # atno 6908 bound_to 6896
  151.5971  133.3323  159.3075 H   0  0  0  0  0  0  0  0  0  0  0  0  # atno 6909 bound_to 6896
  144.7989  139.7146  143.6190 H   0  0  0  0  0  0  0  0  0  0  0  0  # atno 7974 bound_to 7965
  155.6073  140.0668  157.2716 H   0  0  0  0  0  0  0  0  0  0  0  0  # atno 8008 bound_to 7997
  154.4263  140.1807  156.1283 H   0  0  0  0  0  0  0  0  0  0  0  0  # atno 8009 bound_to 7997
  156.0112  140.3326  155.6946 H   0  0  0  0  0  0  0  0  0  0  0  0  # atno 8010 bound_to 7997
  140.3090  144.2843  150.6203 H   0  0  0  0  0  0  0  0  0  0  0  0  # atno 10167 bound_to 10162
  157.0749  131.0376  151.2597 H   0  0  0  0  0  0  0  0  0  0  0  0  # atno 10718 bound_to 10713
  153.5288  135.3582  155.2666 H   0  0  0  0  0  0  0  0  0  0  0  0  # atno 10763 bound_to 10752
  154.8728  135.4063  154.3175 H   0  0  0  0  0  0  0  0  0  0  0  0  # atno 10764 bound_to 10752
  153.3860  135.7070  153.6597 H   0  0  0  0  0  0  0  0  0  0  0  0  # atno 10765 bound_to 10752
  140.7591  133.8530  155.9109 H   0  0  0  0  0  0  0  0  0  0  0  0  # atno 11005 bound_to 11000
  146.2265  139.5732  142.9584 LP  0  0  0  0  0  0  0  0  0  0  0  0  # atno 17320 bound_to 7965
  145.5603  141.0405  143.2230 LP  0  0  0  0  0  0  0  0  0  0  0  0  # atno 17321 bound_to 7965
  140.5585  143.2195  151.7806 LP  0  0  0  0  0  0  0  0  0  0  0  0  # atno 17342 bound_to 10162
  139.4898  144.4381  151.9796 LP  0  0  0  0  0  0  0  0  0  0  0  0  # atno 17343 bound_to 10162
  157.4848  130.7786  149.7449 LP  0  0  0  0  0  0  0  0  0  0  0  0  # atno 17370 bound_to 10713
  155.9940  130.3921  150.2877 LP  0  0  0  0  0  0  0  0  0  0  0  0  # atno 17371 bound_to 10713
  140.9680  134.1568  157.4600 LP  0  0  0  0  0  0  0  0  0  0  0  0  # atno 17394 bound_to 11000
  139.8774  134.9968  156.5816 LP  0  0  0  0  0  0  0  0  0  0  0  0  # atno 17395 bound_to 11000

$$$$
