AV-unprocessed.smi:2949|AV-procd|sdf|11285|dock10
  -GOLD-   2272016173D 1   1.00000     0.00000
 Structure written by MMmdl.
 35 36  0  0  0  0  0  0  0  0  2 V2000
  145.5681  132.2764  154.2287 N   0  0  0  0  0  0  0  0  0  0  0  0
  145.7784  132.8396  153.0364 C   0  0  0  0  0  0  0  0  0  0  0  0
  144.5388  133.5561  152.0509 S   0  0  0  0  0  0  0  0  0  0  0  0
  145.7212  133.9660  150.8451 C   0  0  0  0  0  0  0  0  0  0  0  0
  146.9764  133.5616  151.2158 C   0  0  0  0  0  0  0  0  0  0  0  0
  146.9937  132.9252  152.4554 N   0  3  0  0  0  0  0  0  0  0  0  0
  148.2321  132.4092  153.0734 C   0  0  0  0  0  0  0  0  0  0  0  0
  148.6410  133.1722  154.3416 C   0  0  0  0  0  0  0  0  0  0  0  0
  148.5917  132.6129  155.4404 O   0  0  0  0  0  0  0  0  0  0  0  0
  149.0396  134.4464  154.1239 N   0  0  0  0  0  0  0  0  0  0  0  0
  149.4572  135.4081  154.9818 C   0  0  0  0  0  0  0  0  0  0  0  0
  149.4912  135.1938  156.1923 O   0  0  0  0  0  0  0  0  0  0  0  0
  149.8265  136.5883  154.4495 N   0  0  0  0  0  0  0  0  0  0  0  0
  150.3268  137.7360  155.2004 C   0  0  0  0  0  0  0  0  0  0  0  0
  149.2623  138.2970  156.1669 C   0  0  0  0  0  0  0  0  0  0  0  0
  149.1939  139.8014  155.8973 C   0  0  0  0  0  0  0  0  0  0  0  0
  149.5925  139.9411  154.4318 C   0  0  0  0  0  0  0  0  0  0  0  0
  150.6837  138.8875  154.2434 C   0  0  0  0  0  0  0  0  0  0  0  0
  146.3151  131.8744  154.7765 H   0  0  0  0  0  0  0  0  0  0  0  0
  145.4224  134.4798  149.9431 H   0  0  0  0  0  0  0  0  0  0  0  0
  147.9084  133.6798  150.6815 H   0  0  0  0  0  0  0  0  0  0  0  0
  148.1073  131.3479  153.2929 H   0  0  0  0  0  0  0  0  0  0  0  0
  149.0329  132.4841  152.3364 H   0  0  0  0  0  0  0  0  0  0  0  0
  149.0219  134.7348  153.1564 H   0  0  0  0  0  0  0  0  0  0  0  0
  149.7634  136.6940  153.4468 H   0  0  0  0  0  0  0  0  0  0  0  0
  151.2230  137.4440  155.7510 H   0  0  0  0  0  0  0  0  0  0  0  0
  148.2851  137.8556  155.9639 H   0  0  0  0  0  0  0  0  0  0  0  0
  149.5011  138.0820  157.2089 H   0  0  0  0  0  0  0  0  0  0  0  0
  148.2102  140.2219  156.1082 H   0  0  0  0  0  0  0  0  0  0  0  0
  149.9197  140.3206  156.5247 H   0  0  0  0  0  0  0  0  0  0  0  0
  148.7390  139.7054  153.7947 H   0  0  0  0  0  0  0  0  0  0  0  0
  149.9304  140.9467  154.1804 H   0  0  0  0  0  0  0  0  0  0  0  0
  151.6445  139.3126  154.5372 H   0  0  0  0  0  0  0  0  0  0  0  0
  150.7781  138.5745  153.2024 H   0  0  0  0  0  0  0  0  0  0  0  0
  144.6541  132.2436  154.6572 H   0  0  0  0  0  0  0  0  0  0  0  0
  1  2  1  0  0  0  0
  1 19  1  0  0  0  0
  1 35  1  0  0  0  0
  2  6  2  0  0  0  0
  2  3  1  0  0  0  0
  3  4  1  0  0  0  0
  4  5  2  0  0  0  0
  4 20  1  0  0  0  0
  5  6  1  0  0  0  0
  5 21  1  0  0  0  0
  6  7  1  0  0  0  0
  7  8  1  0  0  0  0
  7 22  1  0  0  0  0
  7 23  1  0  0  0  0
  8  9  2  0  0  0  0
  8 10  1  0  0  0  0
 10 11  1  0  0  0  0
 10 24  1  0  0  0  0
 11 12  2  0  0  0  0
 11 13  1  0  0  0  0
 13 14  1  0  0  0  0
 13 25  1  0  0  0  0
 14 18  1  0  0  0  0
 14 15  1  0  0  0  0
 14 26  1  0  0  0  0
 15 16  1  0  0  0  0
 15 27  1  0  0  0  0
 15 28  1  0  0  0  0
 16 17  1  0  0  0  0
 16 29  1  0  0  0  0
 16 30  1  0  0  0  0
 17 18  1  0  0  0  0
 17 31  1  0  0  0  0
 17 32  1  0  0  0  0
 18 33  1  0  0  0  0
 18 34  1  0  0  0  0
M  CHG  1   6   1
M  END
> <s_m_source_file>
AV-unprocessed.smi

> <i_m_source_file_index>
2949

> <i_lp_mmshare_version>
43012

> <i_f3d_flags>
0

> <s_epik_input>
W0hdL049YzFcc1tjSF1bY0hdbjFbQ0gyXUMoPU8pW05IXUMoPU8pW05IXVtDSF0yW0NIMl1bQ0gyXVtDSDJdW0NIMl0y

> <s_epik_cmdline>
J2VwaWtfcHl0aG9uJywgJy1waCcsICc3LjAnLCAnLXRuJywgJzgnLCAnLW1hJywgJzIwMCcsICctbWV0YWxfYmluZGluZycsICctaW1hZScsICc8aW5maWxlLm1hZT4nLCAnLW9tYWUnLCAnPG91dGZpbGUubWFlPic=

> <r_lp_tautomer_probability>
1

> <r_epik_Ionization_Penalty>
0.019454

> <r_epik_Ionization_Penalty_Charging>
0

> <r_epik_Ionization_Penalty_Neutral>
0.019454

> <r_epik_State_Penalty>
0.0306361

> <r_epik_Charging_Adjusted_Penalty>
0.0306361

> <i_epik_Tot_Q>
1

> <i_epik_Tot_abs_Q>
1

> <r_epik_Metal_State_Penalty>
0.0306361

> <b_epik_Metal_Only>
0

> <s_lp_Force_Field>
OPLS_2005

> <r_lp_Energy>
26.5716

> <b_lp_Chiralities_Consistent>
1

> <s_lp_Variant>
AV-unprocessed.smi:2949-1

> <Gold.Version>
5.8.1

> <Gold.Id.Protein>
6NUR|6NUR_protein|mol2

> <Gold.PLP.Fitness>
40.0819

> <Gold.PLP.PLP>
-26.0670

> <Gold.PLP.part.hbond>
-3.0670

> <Gold.PLP.part.metal>
0.0000

> <Gold.PLP.part.buried>
-3.1040

> <Gold.PLP.part.nonpolar>
-19.3305

> <Gold.PLP.part.repulsive>
0.0683

> <Gold.PLP.ligand.clash>
0.0000

> <Gold.PLP.ligand.torsion>
0.1184

> <Gold.PLP.Chemscore.Hbond>
3.7440

> <Gold.PLP.Chemscore.CHOScore>
1.0000

> <Gold.PLP.Chemscore.Metal>
0.0000

> <Gold.Chemscore.Hbonds>
donor molecule, donor type, donor heavy atom, donor atom, acceptor molecule, acceptor atom, score
      L1  H     1    35       P1 10957  2.00
      L1  H    10    24       P1  7948  0.68
      L1  H    13    25       P1  7948  1.00
      L1  C     4    20       P1  7921  1.00

> <Gold.PLP.Chemscore.Internal.Correction>
0.0197

> <Gold.Rescore>
     Score         DG    S(hbond)    S(metal)    S(lipo)     H(rot)  DE(clash)    DE(int)     intcor
     13.35     -14.94       2.51        0.00      46.99       1.73       0.08       1.50       ----

> <Gold.Chemscore.Fitness>
13.3516

> <Gold.Chemscore.DG>
-14.9355

> <Gold.Chemscore.ZeroCoef>
-5.4800

> <Gold.Chemscore.Hbond>
2.5101

> <Gold.Chemscore.Metal>
0.0000

> <Gold.Chemscore.Lipo>
46.9947

> <Gold.Chemscore.Internal_Hbond>
0.0000

> <Gold.Chemscore.DEClash>
0.0805

> <Gold.Chemscore.DEInternal>
1.5034

> <Gold.Chemscore.Rot>
1.7291

> <Gold.Chemscore.Internal.Correction>
   9.000000E+99

> <Gold.Chemscore.Hbonds>
donor molecule, donor type, donor heavy atom, donor atom, acceptor molecule, acceptor atom, score
      L1  H     1    35       P1 10957  0.51
      L1  H    10    24       P1  7948  0.07
      L1  H    13    25       P1  7948  0.37

> <Gold.Chemscore.Hbond.Weighted>
-8.3836

> <Gold.Chemscore.Metal.Weighted>
-0.0000

> <Gold.Chemscore.Lipo.Weighted>
-5.4984

> <Gold.Chemscore.Internal_Hbond.Weighted>
0.0000

> <Gold.Chemscore.DEClash.Weighted>
0.0805

> <Gold.Chemscore.DEInternal.Weighted>
1.5034

> <Gold.Chemscore.Rot.Weighted>
4.4265

> <Gold.Chemscore.Internal.Correction.Weighted>
   9.000000E+99

> <Gold.Protein.RotatedTorsions>
[ 6907 6896 6895 6894 ] final  173.28 input  -60.11 | X-H torsion
[ 7974 7965 7964 7962 ] final   39.21 input  175.53 | X-H torsion
[ 8008 7997 7996 7995 ] final  -83.86 input   59.86 | X-H torsion
[ 10167 10162 10161 10158 ] final   72.58 input  -65.29 | X-H torsion
[ 10718 10713 10712 10709 ] final   60.72 input   66.30 | X-H torsion
[ 10763 10752 10751 10750 ] final   62.98 input  -60.55 | X-H torsion
[ 11005 11000 10999 10996 ] final  -34.11 input  -57.11 | X-H torsion

> <Gold.Protein.ActiveResidues>
 VAL166  LYS551  ARG553  GLY616  TRP617  ASP618  TYR619  PRO620  LYS621  CYS622 
 ASP623  PHE694  ASN695  SER759  ASP760  ASP761  ALA762  ILE779  LEU786  VAL792 
 PHE793  MET794  SER795  GLU796  ALA797  LYS798  CYS799  TRP800  GLU811  SER814 

> <Gold.Protein.RotatedAtoms>
  151.7708  133.3341  159.3443 H   0  0  0  0  0  0  0  0  0  0  0  0  # atno 6907 bound_to 6896
  150.7462  134.6021  159.6051 H   0  0  0  0  0  0  0  0  0  0  0  0  # atno 6908 bound_to 6896
  152.3343  134.7221  160.0332 H   0  0  0  0  0  0  0  0  0  0  0  0  # atno 6909 bound_to 6896
  146.1002  139.5679  142.9419 H   0  0  0  0  0  0  0  0  0  0  0  0  # atno 7974 bound_to 7965
  154.6236  140.0613  156.9645 H   0  0  0  0  0  0  0  0  0  0  0  0  # atno 8008 bound_to 7997
  155.1779  140.3296  155.4362 H   0  0  0  0  0  0  0  0  0  0  0  0  # atno 8009 bound_to 7997
  156.2445  140.1903  156.6877 H   0  0  0  0  0  0  0  0  0  0  0  0  # atno 8010 bound_to 7997
  140.0337  144.5445  150.7487 H   0  0  0  0  0  0  0  0  0  0  0  0  # atno 10167 bound_to 10162
  157.5774  130.8955  149.9371 H   0  0  0  0  0  0  0  0  0  0  0  0  # atno 10718 bound_to 10713
  153.0001  135.5445  154.6279 H   0  0  0  0  0  0  0  0  0  0  0  0  # atno 10763 bound_to 10752
  154.5563  135.2830  155.0963 H   0  0  0  0  0  0  0  0  0  0  0  0  # atno 10764 bound_to 10752
  154.2183  135.6455  153.5189 H   0  0  0  0  0  0  0  0  0  0  0  0  # atno 10765 bound_to 10752
  140.9690  133.7120  156.1492 H   0  0  0  0  0  0  0  0  0  0  0  0  # atno 11005 bound_to 11000
  145.5869  141.0375  143.2091 LP  0  0  0  0  0  0  0  0  0  0  0  0  # atno 17320 bound_to 7965
  144.7427  139.7405  143.7304 LP  0  0  0  0  0  0  0  0  0  0  0  0  # atno 17321 bound_to 7965
  140.7291  143.2668  151.4017 LP  0  0  0  0  0  0  0  0  0  0  0  0  # atno 17342 bound_to 10162
  139.6059  144.1198  152.2248 LP  0  0  0  0  0  0  0  0  0  0  0  0  # atno 17343 bound_to 10162
  156.0819  130.3672  150.0563 LP  0  0  0  0  0  0  0  0  0  0  0  0  # atno 17370 bound_to 10713
  156.8707  130.9523  151.3609 LP  0  0  0  0  0  0  0  0  0  0  0  0  # atno 17371 bound_to 10713
  140.7357  134.4205  157.5561 LP  0  0  0  0  0  0  0  0  0  0  0  0  # atno 17394 bound_to 11000
  139.8905  134.8803  156.2367 LP  0  0  0  0  0  0  0  0  0  0  0  0  # atno 17395 bound_to 11000

$$$$
