AV-unprocessed.smi:218|AV-procd|sdf|1672|dock8
  -GOLD-   2262020 93D 1   1.00000     0.00000
 Structure written by MMmdl.
 54 57  0  0  0  0  0  0  0  0  1 V2000
  151.2148  141.4764  158.6067 C   0  0  0  0  0  0  0  0  0  0  0  0
  151.5746  139.9861  158.6312 C   0  0  0  0  0  0  0  0  0  0  0  0
  152.5675  139.6716  159.7634 C   0  0  0  0  0  0  0  0  0  0  0  0
  152.1577  139.6794  157.3633 O   0  0  0  0  0  0  0  0  0  0  0  0
  151.3509  139.4416  156.2672 C   0  0  0  0  0  0  0  0  0  0  0  0
  150.4162  140.4307  155.8994 C   0  0  0  0  0  0  0  0  0  0  0  0
  149.5848  140.2016  154.7846 C   0  0  0  0  0  0  0  0  0  0  0  0
  148.5816  141.2468  154.3466 C   0  0  0  0  0  0  0  0  0  0  0  0
  147.3450  141.1897  155.1128 N   0  0  0  0  0  0  0  0  0  0  0  0
  146.6895  140.0186  155.2545 C   0  0  0  0  0  0  0  0  0  0  0  0
  146.2055  139.6283  156.4629 N   0  0  0  0  0  0  0  0  0  0  0  0
  145.5606  138.4632  156.5792 C   0  0  0  0  0  0  0  0  0  0  0  0
  145.2985  137.5563  155.6351 N   0  0  0  0  0  0  0  0  0  0  0  0
  145.7850  137.9453  154.4208 C   0  0  0  0  0  0  0  0  0  0  0  0
  146.4838  139.1533  154.1493 C   0  0  0  0  0  0  0  0  0  0  0  0
  146.8207  139.2081  152.8034 N   0  0  0  0  0  0  0  0  0  0  0  0
  146.3477  138.0934  152.3134 C   0  0  0  0  0  0  0  0  0  0  0  0
  145.7069  137.2734  153.2200 N   0  0  0  0  0  0  0  0  0  0  0  0
  145.0578  135.9350  153.0111 C   0  0  2  0  0  0  0  0  0  0  0  0
  146.0600  135.0164  152.7076 O   0  0  0  0  0  0  0  0  0  0  0  0
  146.1378  134.7598  151.3023 C   0  0  1  0  0  0  0  0  0  0  0  0
  145.9314  133.2403  151.1298 C   0  0  0  0  0  0  0  0  0  0  0  0
  147.0125  132.5425  151.7107 O   0  0  0  0  0  0  0  0  0  0  0  0
  145.0548  135.6596  150.6630 C   0  0  1  0  0  0  0  0  0  0  0  0
  144.3770  135.0568  149.5765 O   0  0  0  0  0  0  0  0  0  0  0  0
  144.1013  135.9452  151.8116 C   0  0  2  0  0  0  0  0  0  0  0  0
  143.4238  137.1747  151.6271 O   0  0  0  0  0  0  0  0  0  0  0  0
  149.7183  138.9893  154.0792 C   0  0  0  0  0  0  0  0  0  0  0  0
  150.6788  138.0600  154.5234 C   0  0  0  0  0  0  0  0  0  0  0  0
  151.4785  138.2734  155.5900 N   0  0  0  0  0  0  0  0  0  0  0  0
  144.5794  135.7050  153.9636 H   0  0  0  0  0  0  0  0  0  0  0  0
  147.1180  135.0439  150.9169 H   0  0  0  0  0  0  0  0  0  0  0  0
  145.5183  136.5866  150.3212 H   0  0  0  0  0  0  0  0  0  0  0  0
  143.3886  135.1296  151.9422 H   0  0  0  0  0  0  0  0  0  0  0  0
  150.7535  141.7850  159.5452 H   0  0  0  0  0  0  0  0  0  0  0  0
  150.5093  141.6929  157.8042 H   0  0  0  0  0  0  0  0  0  0  0  0
  152.0987  142.0950  158.4487 H   0  0  0  0  0  0  0  0  0  0  0  0
  150.6464  139.4334  158.7841 H   0  0  0  0  0  0  0  0  0  0  0  0
  152.1512  139.9412  160.7342 H   0  0  0  0  0  0  0  0  0  0  0  0
  153.4976  140.2259  159.6347 H   0  0  0  0  0  0  0  0  0  0  0  0
  152.8175  138.6116  159.7996 H   0  0  0  0  0  0  0  0  0  0  0  0
  150.3423  141.3499  156.4621 H   0  0  0  0  0  0  0  0  0  0  0  0
  149.0257  142.2383  154.4444 H   0  0  0  0  0  0  0  0  0  0  0  0
  148.3621  141.0952  153.2890 H   0  0  0  0  0  0  0  0  0  0  0  0
  147.0093  142.0663  155.4856 H   0  0  0  0  0  0  0  0  0  0  0  0
  145.2046  138.2231  157.5703 H   0  0  0  0  0  0  0  0  0  0  0  0
  146.4608  137.8427  151.2694 H   0  0  0  0  0  0  0  0  0  0  0  0
  144.9878  132.9125  151.5671 H   0  0  0  0  0  0  0  0  0  0  0  0
  145.9188  132.9601  150.0767 H   0  0  0  0  0  0  0  0  0  0  0  0
  147.5185  132.1421  151.0204 H   0  0  0  0  0  0  0  0  0  0  0  0
  144.9774  134.9807  148.8509 H   0  0  0  0  0  0  0  0  0  0  0  0
  143.5875  137.4790  150.7476 H   0  0  0  0  0  0  0  0  0  0  0  0
  149.1040  138.7752  153.2169 H   0  0  0  0  0  0  0  0  0  0  0  0
  150.8099  137.1208  154.0069 H   0  0  0  0  0  0  0  0  0  0  0  0
  1  2  1  0  0  0  0
  1 35  1  0  0  0  0
  1 36  1  0  0  0  0
  1 37  1  0  0  0  0
  2  3  1  0  0  0  0
  2  4  1  0  0  0  0
  2 38  1  0  0  0  0
  3 39  1  0  0  0  0
  3 40  1  0  0  0  0
  3 41  1  0  0  0  0
  4  5  1  0  0  0  0
  5 30  1  0  0  0  0
  5  6  2  0  0  0  0
  6  7  1  0  0  0  0
  6 42  1  0  0  0  0
  7  8  1  0  0  0  0
  7 28  2  0  0  0  0
  8  9  1  0  0  0  0
  8 43  1  0  0  0  0
  8 44  1  0  0  0  0
  9 10  1  0  0  0  0
  9 45  1  0  0  0  0
 10 15  1  0  0  0  0
 10 11  2  0  0  0  0
 11 12  1  0  0  0  0
 12 13  2  0  0  0  0
 12 46  1  0  0  0  0
 13 14  1  0  0  0  0
 14 18  1  0  0  0  0
 14 15  2  0  0  0  0
 15 16  1  0  0  0  0
 16 17  2  0  0  0  0
 17 18  1  0  0  0  0
 17 47  1  0  0  0  0
 18 19  1  0  0  0  0
 19 31  1  0  0  0  0
 19 26  1  0  0  0  0
 19 20  1  0  0  0  0
 20 21  1  0  0  0  0
 21 32  1  0  0  0  0
 21 22  1  0  0  0  0
 21 24  1  0  0  0  0
 22 23  1  0  0  0  0
 22 48  1  0  0  0  0
 22 49  1  0  0  0  0
 23 50  1  0  0  0  0
 24 33  1  0  0  0  0
 24 25  1  0  0  0  0
 24 26  1  0  0  0  0
 25 51  1  0  0  0  0
 26 34  1  0  0  0  0
 26 27  1  0  0  0  0
 27 52  1  0  0  0  0
 28 29  1  0  0  0  0
 28 53  1  0  0  0  0
 29 30  2  0  0  0  0
 29 54  1  0  0  0  0
M  END
> <s_m_source_file>
AV-unprocessed.smi

> <i_m_source_file_index>
218

> <i_lp_mmshare_version>
43012

> <i_f3d_flags>
0

> <s_epik_input>
W0NIM11bQ0hdKFtDSDNdKU9jMVtjSF1jKFtjSF1bY0hdbjEpW0NIMl1bTkhdYyhuW2NIXW4yKWMoYzIzKW5bY0hdbjNbQ0BASF00T1tDQEhdKFtDSDJdW09IXSlbQ0BASF0oW09IXSlbQ0BIXTRbT0hd

> <s_epik_cmdline>
J2VwaWtfcHl0aG9uJywgJy1waCcsICc3LjAnLCAnLXRuJywgJzgnLCAnLW1hJywgJzIwMCcsICctbWV0YWxfYmluZGluZycsICctaW1hZScsICc8aW5maWxlLm1hZT4nLCAnLW9tYWUnLCAnPG91dGZpbGUubWFlPic=

> <r_lp_tautomer_probability>
1

> <r_epik_Ionization_Penalty>
0.00457014

> <r_epik_Ionization_Penalty_Charging>
0

> <r_epik_Ionization_Penalty_Neutral>
0.00457014

> <r_epik_State_Penalty>
-0

> <r_epik_Charging_Adjusted_Penalty>
0

> <i_epik_Tot_Q>
0

> <i_epik_Tot_abs_Q>
0

> <r_epik_Metal_State_Penalty>
-0

> <b_epik_Metal_Only>
0

> <s_epik_Chemistry_Notes>
This compound contains an acetal/aminal-like group ( X-CH(R)-Y where X, Y are N, S, or O) that may be acid/base labile, releasing an aldehyde.

> <s_lp_Force_Field>
OPLS_2005

> <r_lp_Energy>
43.2146

> <b_lp_Chiralities_Consistent>
1

> <s_lp_Variant>
AV-unprocessed.smi:218-11

> <Gold.Version>
5.8.1

> <Gold.Id.Protein>
6NUR|6NUR_protein|mol2

> <Gold.PLP.Fitness>
54.0067

> <Gold.PLP.PLP>
-40.8403

> <Gold.PLP.part.hbond>
-4.1234

> <Gold.PLP.part.metal>
0.0000

> <Gold.PLP.part.buried>
-2.0208

> <Gold.PLP.part.nonpolar>
-34.6754

> <Gold.PLP.part.repulsive>
0.4726

> <Gold.PLP.ligand.clash>
0.0000

> <Gold.PLP.ligand.torsion>
1.1312

> <Gold.PLP.Chemscore.Hbond>
3.9920

> <Gold.PLP.Chemscore.CHOScore>
1.0908

> <Gold.PLP.Chemscore.Metal>
0.0000

> <Gold.Chemscore.Hbonds>
donor molecule, donor type, donor heavy atom, donor atom, acceptor molecule, acceptor atom, score
      L1  H    23    50       P1 10747  0.88
      L1  H    25    51       P1  7921  1.00
      L1  H    27    52       P1 10171  0.83
      P1  H  7997  8009       L1     4  0.10
      L1  C    29    54       P1  7948  0.01
      L1  C    29    54       P1  7949  0.33

> <Gold.PLP.Chemscore.Internal.Correction>
0.1803

> <Gold.Rescore>
     Score         DG    S(hbond)    S(metal)    S(lipo)     H(rot)  DE(clash)    DE(int)     intcor
     13.65     -15.45       3.79        0.00      84.19       4.90       0.57       1.24       ----

> <Gold.Chemscore.Fitness>
13.6494

> <Gold.Chemscore.DG>
-15.4517

> <Gold.Chemscore.ZeroCoef>
-5.4800

> <Gold.Chemscore.Hbond>
3.7942

> <Gold.Chemscore.Metal>
0.0000

> <Gold.Chemscore.Lipo>
84.1944

> <Gold.Chemscore.Internal_Hbond>
0.0000

> <Gold.Chemscore.DEClash>
0.5671

> <Gold.Chemscore.DEInternal>
1.2351

> <Gold.Chemscore.Rot>
4.9029

> <Gold.Chemscore.Internal.Correction>
   9.000000E+99

> <Gold.Chemscore.Hbonds>
donor molecule, donor type, donor heavy atom, donor atom, acceptor molecule, acceptor atom, score
      L1  H    23    50       P1 10747  0.83
      L1  H    25    51       P1  7921  1.00
      L1  H    27    52       P1 10171  0.76
      P1  H  7997  8009       L1     4  0.07

> <Gold.Chemscore.Hbond.Weighted>
-12.6725

> <Gold.Chemscore.Metal.Weighted>
-0.0000

> <Gold.Chemscore.Lipo.Weighted>
-9.8507

> <Gold.Chemscore.Internal_Hbond.Weighted>
0.0000

> <Gold.Chemscore.DEClash.Weighted>
0.5671

> <Gold.Chemscore.DEInternal.Weighted>
1.2351

> <Gold.Chemscore.Rot.Weighted>
12.5515

> <Gold.Chemscore.Internal.Correction.Weighted>
   9.000000E+99

> <Gold.Protein.RotatedTorsions>
[ 6907 6896 6895 6894 ] final   89.86 input  -60.11 | X-H torsion
[ 7974 7965 7964 7962 ] final  -85.94 input  175.53 | X-H torsion
[ 8008 7997 7996 7995 ] final -169.65 input   59.86 | X-H torsion
[ 10167 10162 10161 10158 ] final  -56.34 input  -65.29 | X-H torsion
[ 10718 10713 10712 10709 ] final   56.51 input   66.30 | X-H torsion
[ 10763 10752 10751 10750 ] final   26.01 input  -60.55 | X-H torsion
[ 11005 11000 10999 10996 ] final   33.36 input  -57.11 | X-H torsion

> <Gold.Protein.ActiveResidues>
 VAL166  LYS551  ARG553  GLY616  TRP617  ASP618  TYR619  PRO620  LYS621  CYS622 
 ASP623  PHE694  ASN695  SER759  ASP760  ASP761  ALA762  ILE779  LEU786  VAL792 
 PHE793  MET794  SER795  GLU796  ALA797  LYS798  CYS799  TRP800  GLU811  SER814 

> <Gold.Protein.RotatedAtoms>
  152.5440  134.1902  159.8670 H   0  0  0  0  0  0  0  0  0  0  0  0  # atno 6907 bound_to 6896
  151.1897  133.4667  159.2602 H   0  0  0  0  0  0  0  0  0  0  0  0  # atno 6908 bound_to 6896
  151.1095  135.0030  159.8542 H   0  0  0  0  0  0  0  0  0  0  0  0  # atno 6909 bound_to 6896
  145.4866  140.9555  143.1835 H   0  0  0  0  0  0  0  0  0  0  0  0  # atno 7974 bound_to 7965
  155.9078  140.1052  157.1302 H   0  0  0  0  0  0  0  0  0  0  0  0  # atno 8008 bound_to 7997
  154.4035  140.1280  156.4583 H   0  0  0  0  0  0  0  0  0  0  0  0  # atno 8009 bound_to 7997
  155.7346  140.3468  155.5078 H   0  0  0  0  0  0  0  0  0  0  0  0  # atno 8010 bound_to 7997
  140.6323  143.2465  151.5210 H   0  0  0  0  0  0  0  0  0  0  0  0  # atno 10167 bound_to 10162
  157.5437  130.8715  149.8859 H   0  0  0  0  0  0  0  0  0  0  0  0  # atno 10718 bound_to 10713
  153.0652  135.6570  154.0371 H   0  0  0  0  0  0  0  0  0  0  0  0  # atno 10763 bound_to 10752
  154.0029  135.2935  155.3402 H   0  0  0  0  0  0  0  0  0  0  0  0  # atno 10764 bound_to 10752
  154.7007  135.5246  153.8591 H   0  0  0  0  0  0  0  0  0  0  0  0  # atno 10765 bound_to 10752
  140.2639  134.3160  155.7849 H   0  0  0  0  0  0  0  0  0  0  0  0  # atno 11005 bound_to 11000
  144.7858  139.6430  143.7135 LP  0  0  0  0  0  0  0  0  0  0  0  0  # atno 17320 bound_to 7965
  146.2309  139.5812  142.9556 LP  0  0  0  0  0  0  0  0  0  0  0  0  # atno 17321 bound_to 7965
  139.5536  144.2333  152.1573 LP  0  0  0  0  0  0  0  0  0  0  0  0  # atno 17342 bound_to 10162
  140.1580  144.5053  150.6649 LP  0  0  0  0  0  0  0  0  0  0  0  0  # atno 17343 bound_to 10162
  156.0517  130.3716  150.1185 LP  0  0  0  0  0  0  0  0  0  0  0  0  # atno 17370 bound_to 10713
  156.9363  130.9730  151.3524 LP  0  0  0  0  0  0  0  0  0  0  0  0  # atno 17371 bound_to 10713
  141.2187  133.7426  156.9229 LP  0  0  0  0  0  0  0  0  0  0  0  0  # atno 17394 bound_to 11000
  140.1438  134.9276  157.2502 LP  0  0  0  0  0  0  0  0  0  0  0  0  # atno 17395 bound_to 11000

$$$$
