AV-unprocessed.smi:1772|AV-procd|sdf|7161|dock5
  -GOLD-   22720 8403D 1   1.00000     0.00000
 Structure written by MMmdl.
 34 35  0  0  0  0  0  0  0  0  2 V2000
  144.6217  136.7827  151.6462 O   0  0  0  0  0  0  0  0  0  0  0  0
  145.8275  136.5390  151.6843 C   0  0  0  0  0  0  0  0  0  0  0  0
  146.7676  137.4826  151.8352 N   0  0  0  0  0  0  0  0  0  0  0  0
  146.5049  138.9110  151.9790 C   0  0  0  0  0  0  0  0  0  0  0  0
  146.9704  139.4592  153.3427 C   0  0  2  0  0  0  0  0  0  0  0  0
  147.1166  140.9956  153.3699 C   0  0  0  0  0  0  0  0  0  0  0  0
  147.8616  141.3950  154.6466 C   0  0  0  0  0  0  0  0  0  0  0  0
  149.0584  140.0457  154.9601 S   0  0  0  0  0  0  0  0  0  0  0  0
  150.3827  140.4400  154.4562 O   0  0  0  0  0  0  0  0  0  0  0  0
  148.8851  139.5617  156.3378 O   0  0  0  0  0  0  0  0  0  0  0  0
  148.3094  138.8500  153.7886 C   0  0  0  0  0  0  0  0  0  0  0  0
  146.3772  135.3183  151.5598 N   0  0  0  0  0  0  0  0  0  0  0  0
  145.7236  134.0644  151.4162 C   0  0  0  0  0  0  0  0  0  0  0  0
  144.3198  134.0717  151.2581 C   0  0  0  0  0  0  0  0  0  0  0  0
  143.6317  132.8523  151.0932 C   0  0  0  0  0  0  0  0  0  0  0  0
  144.3185  131.6899  151.0770 N   0  3  0  0  0  0  0  0  0  0  0  0
  145.6613  131.6332  151.2093 C   0  0  0  0  0  0  0  0  0  0  0  0
  146.4032  132.8201  151.3784 C   0  0  0  0  0  0  0  0  0  0  0  0
  147.7355  137.1959  151.8520 H   0  0  0  0  0  0  0  0  0  0  0  0
  146.9854  139.4599  151.1672 H   0  0  0  0  0  0  0  0  0  0  0  0
  145.4323  139.0681  151.8601 H   0  0  0  0  0  0  0  0  0  0  0  0
  146.2306  139.1914  154.0987 H   0  0  0  0  0  0  0  0  0  0  0  0
  147.7014  141.3155  152.5064 H   0  0  0  0  0  0  0  0  0  0  0  0
  146.1513  141.4986  153.3049 H   0  0  0  0  0  0  0  0  0  0  0  0
  148.3809  142.3497  154.5598 H   0  0  0  0  0  0  0  0  0  0  0  0
  147.1779  141.4434  155.4944 H   0  0  0  0  0  0  0  0  0  0  0  0
  148.1924  137.8782  154.2687 H   0  0  0  0  0  0  0  0  0  0  0  0
  148.9935  138.7392  152.9468 H   0  0  0  0  0  0  0  0  0  0  0  0
  147.3854  135.2891  151.5165 H   0  0  0  0  0  0  0  0  0  0  0  0
  143.7698  135.0018  151.2675 H   0  0  0  0  0  0  0  0  0  0  0  0
  142.5611  132.7725  150.9719 H   0  0  0  0  0  0  0  0  0  0  0  0
  146.1006  130.6471  151.1696 H   0  0  0  0  0  0  0  0  0  0  0  0
  147.4773  132.7532  151.4614 H   0  0  0  0  0  0  0  0  0  0  0  0
  143.8024  130.8181  150.9543 H   0  0  0  0  0  0  0  0  0  0  0  0
  1  2  2  0  0  0  0
  2  3  1  0  0  0  0
  2 12  1  0  0  0  0
  3  4  1  0  0  0  0
  3 19  1  0  0  0  0
  4  5  1  0  0  0  0
  4 20  1  0  0  0  0
  4 21  1  0  0  0  0
  5 11  1  0  0  0  0
  5  6  1  0  0  0  0
  5 22  1  0  0  0  0
  6  7  1  0  0  0  0
  6 23  1  0  0  0  0
  6 24  1  0  0  0  0
  7  8  1  0  0  0  0
  7 25  1  0  0  0  0
  7 26  1  0  0  0  0
  8  9  2  0  0  0  0
  8 10  2  0  0  0  0
  8 11  1  0  0  0  0
 11 27  1  0  0  0  0
 11 28  1  0  0  0  0
 12 13  1  0  0  0  0
 12 29  1  0  0  0  0
 13 18  1  0  0  0  0
 13 14  2  0  0  0  0
 14 15  1  0  0  0  0
 14 30  1  0  0  0  0
 15 16  2  0  0  0  0
 15 31  1  0  0  0  0
 16 17  1  0  0  0  0
 16 34  1  0  0  0  0
 17 18  2  0  0  0  0
 17 32  1  0  0  0  0
 18 33  1  0  0  0  0
M  CHG  1  16   1
M  END
> <s_m_source_file>
AV-unprocessed.smi

> <i_m_source_file_index>
1772

> <i_lp_mmshare_version>
43012

> <i_f3d_flags>
0

> <s_epik_input>
W2NIXTFbY0hdbltjSF1bY0hdYzFbTkhdQyg9TylbTkhdW0NIMl1bQ0BASF0oW0NIMl0yKVtDSDJdW0NIMl1TMig9Tyk9Tw==

> <s_epik_cmdline>
J2VwaWtfcHl0aG9uJywgJy1waCcsICc3LjAnLCAnLXRuJywgJzgnLCAnLW1hJywgJzIwMCcsICctbWV0YWxfYmluZGluZycsICctaW1hZScsICc8aW5maWxlLm1hZT4nLCAnLW9tYWUnLCAnPG91dGZpbGUubWFlPic=

> <r_epik_Ionization_Penalty>
1.04917

> <r_epik_Ionization_Penalty_Charging>
1.04915

> <r_epik_Ionization_Penalty_Neutral>
1.90771e-05

> <r_epik_State_Penalty>
1.10185

> <r_epik_Charging_Adjusted_Penalty>
2.151

> <i_epik_Tot_Q>
1

> <i_epik_Tot_abs_Q>
1

> <r_epik_Metal_State_Penalty>
1.19638

> <b_epik_Metal_Only>
0

> <s_lp_Force_Field>
OPLS_2005

> <r_lp_Energy>
16.4165

> <b_lp_Chiralities_Consistent>
1

> <s_lp_Variant>
AV-unprocessed.smi:1772-3

> <Gold.Version>
5.8.1

> <Gold.Id.Protein>
6NUR|6NUR_protein|mol2

> <Gold.PLP.Fitness>
38.6552

> <Gold.PLP.PLP>
-30.2394

> <Gold.PLP.part.hbond>
-2.8362

> <Gold.PLP.part.metal>
0.0000

> <Gold.PLP.part.buried>
-4.7369

> <Gold.PLP.part.nonpolar>
-26.1736

> <Gold.PLP.part.repulsive>
3.2281

> <Gold.PLP.ligand.clash>
0.0000

> <Gold.PLP.ligand.torsion>
0.1860

> <Gold.PLP.Chemscore.Hbond>
2.9280

> <Gold.PLP.Chemscore.CHOScore>
0.0000

> <Gold.PLP.Chemscore.Metal>
0.0000

> <Gold.Chemscore.Hbonds>
donor molecule, donor type, donor heavy atom, donor atom, acceptor molecule, acceptor atom, score
      L1  H     3    19       P1  7948  0.99
      L1  H    12    29       P1  7948  0.93
      P1  H  7989  7998       L1     9  0.99

> <Gold.PLP.Chemscore.Internal.Correction>
0.0038

> <Gold.Rescore>
     Score         DG    S(hbond)    S(metal)    S(lipo)     H(rot)  DE(clash)    DE(int)     intcor
     16.39     -19.64       2.72        0.00      72.16       1.32       1.59       1.66       ----

> <Gold.Chemscore.Fitness>
16.3867

> <Gold.Chemscore.DG>
-19.6442

> <Gold.Chemscore.ZeroCoef>
-5.4800

> <Gold.Chemscore.Hbond>
2.7211

> <Gold.Chemscore.Metal>
0.0000

> <Gold.Chemscore.Lipo>
72.1622

> <Gold.Chemscore.Internal_Hbond>
0.0000

> <Gold.Chemscore.DEClash>
1.5931

> <Gold.Chemscore.DEInternal>
1.6643

> <Gold.Chemscore.Rot>
1.3153

> <Gold.Chemscore.Internal.Correction>
   9.000000E+99

> <Gold.Chemscore.Hbonds>
donor molecule, donor type, donor heavy atom, donor atom, acceptor molecule, acceptor atom, score
      L1  H     3    19       P1  7948  0.92
      L1  H    12    29       P1  7948  0.80
      P1  H  7989  7998       L1     9  0.94

> <Gold.Chemscore.Hbond.Weighted>
-9.0885

> <Gold.Chemscore.Metal.Weighted>
-0.0000

> <Gold.Chemscore.Lipo.Weighted>
-8.4430

> <Gold.Chemscore.Internal_Hbond.Weighted>
0.0000

> <Gold.Chemscore.DEClash.Weighted>
1.5931

> <Gold.Chemscore.DEInternal.Weighted>
1.6643

> <Gold.Chemscore.Rot.Weighted>
3.3673

> <Gold.Chemscore.Internal.Correction.Weighted>
   9.000000E+99

> <Gold.Protein.RotatedTorsions>
[ 6907 6896 6895 6894 ] final   98.93 input  -60.11 | X-H torsion
[ 7974 7965 7964 7962 ] final  -62.10 input  175.53 | X-H torsion
[ 8008 7997 7996 7995 ] final   71.23 input   59.86 | X-H torsion
[ 10167 10162 10161 10158 ] final    6.48 input  -65.29 | X-H torsion
[ 10718 10713 10712 10709 ] final   31.48 input   66.30 | X-H torsion
[ 10763 10752 10751 10750 ] final  -16.76 input  -60.55 | X-H torsion
[ 11005 11000 10999 10996 ] final -100.51 input  -57.11 | X-H torsion

> <Gold.Protein.ActiveResidues>
 VAL166  LYS551  ARG553  GLY616  TRP617  ASP618  TYR619  PRO620  LYS621  CYS622 
 ASP623  PHE694  ASN695  SER759  ASP760  ASP761  ALA762  ILE779  LEU786  VAL792 
 PHE793  MET794  SER795  GLU796  ALA797  LYS798  CYS799  TRP800  GLU811  SER814 

> <Gold.Protein.RotatedAtoms>
  152.5401  134.0506  159.8107 H   0  0  0  0  0  0  0  0  0  0  0  0  # atno 6907 bound_to 6896
  151.0648  133.5507  159.2639 H   0  0  0  0  0  0  0  0  0  0  0  0  # atno 6908 bound_to 6896
  151.2392  135.0591  159.9072 H   0  0  0  0  0  0  0  0  0  0  0  0  # atno 6909 bound_to 6896
  145.7954  140.8686  143.0259 H   0  0  0  0  0  0  0  0  0  0  0  0  # atno 7974 bound_to 7965
  155.7507  140.3488  155.5149 H   0  0  0  0  0  0  0  0  0  0  0  0  # atno 8008 bound_to 7997
  155.9007  140.1033  157.1373 H   0  0  0  0  0  0  0  0  0  0  0  0  # atno 8009 bound_to 7997
  154.4043  140.1286  156.4419 H   0  0  0  0  0  0  0  0  0  0  0  0  # atno 8010 bound_to 7997
  140.6425  143.7740  150.7449 H   0  0  0  0  0  0  0  0  0  0  0  0  # atno 10167 bound_to 10162
  157.2730  130.7217  149.6514 H   0  0  0  0  0  0  0  0  0  0  0  0  # atno 10718 bound_to 10713
  153.5635  135.7009  153.5537 H   0  0  0  0  0  0  0  0  0  0  0  0  # atno 10763 bound_to 10752
  153.3408  135.4021  155.1570 H   0  0  0  0  0  0  0  0  0  0  0  0  # atno 10764 bound_to 10752
  154.8644  135.3742  154.5153 H   0  0  0  0  0  0  0  0  0  0  0  0  # atno 10765 bound_to 10752
  141.1268  133.8404  157.1111 H   0  0  0  0  0  0  0  0  0  0  0  0  # atno 11005 bound_to 11000
  144.6776  140.0182  143.7484 LP  0  0  0  0  0  0  0  0  0  0  0  0  # atno 17320 bound_to 7965
  145.9934  139.3033  143.0971 LP  0  0  0  0  0  0  0  0  0  0  0  0  # atno 17321 bound_to 7965
  140.1374  143.4471  152.2215 LP  0  0  0  0  0  0  0  0  0  0  0  0  # atno 17342 bound_to 10162
  139.5635  144.7420  151.4089 LP  0  0  0  0  0  0  0  0  0  0  0  0  # atno 17343 bound_to 10162
  155.9663  130.4362  150.5122 LP  0  0  0  0  0  0  0  0  0  0  0  0  # atno 17370 bound_to 10713
  157.3051  131.0653  151.2041 LP  0  0  0  0  0  0  0  0  0  0  0  0  # atno 17371 bound_to 10713
  140.0274  134.9917  157.0713 LP  0  0  0  0  0  0  0  0  0  0  0  0  # atno 17394 bound_to 11000
  140.4340  134.1750  155.7169 LP  0  0  0  0  0  0  0  0  0  0  0  0  # atno 17395 bound_to 11000

$$$$
