AV-unprocessed.smi:1561|AV-procd|sdf|6285|dock4
  -GOLD-   22720 6483D 1   1.00000     0.00000
 Structure written by MMmdl.
 33 34  0  0  0  0  0  0  0  0  1 V2000
  154.0467  141.8337  161.1326 C   0  0  0  0  0  0  0  0  0  0  0  0
  152.6855  141.6391  160.4331 C   0  0  2  0  0  0  0  0  0  0  0  0
  152.7327  140.5877  159.3135 C   0  0  0  0  0  0  0  0  0  0  0  0
  153.8028  140.0973  158.9512 O   0  0  0  0  0  0  0  0  0  0  0  0
  151.5540  140.2658  158.7581 N   0  0  0  0  0  0  0  0  0  0  0  0
  151.3788  139.3830  157.6111 C   0  0  0  0  0  0  0  0  0  0  0  0
  150.8630  140.1504  156.3785 C   0  0  1  0  0  0  0  0  0  0  0  0
  150.2788  139.2580  155.2896 C   0  0  0  0  0  0  0  0  0  0  0  0
  149.0689  140.0396  154.7650 C   0  0  0  0  0  0  0  0  0  0  0  0
  149.1396  141.3137  155.3895 O   0  0  0  0  0  0  0  0  0  0  0  0
  149.7217  141.1250  156.6671 C   0  0  0  0  0  0  0  0  0  0  0  0
  152.1429  142.8907  159.9156 N   0  0  0  0  0  0  0  0  0  0  0  0
  152.6613  143.6903  158.9167 C   0  0  0  0  0  0  0  0  0  0  0  0
  151.8529  144.7846  158.8043 C   0  0  0  0  0  0  0  0  0  0  0  0
  150.8579  144.5727  159.7982 C   0  0  0  0  0  0  0  0  0  0  0  0
  151.0382  143.4459  160.4667 N   0  0  0  0  0  0  0  0  0  0  0  0
  154.4018  140.8983  161.5662 H   0  0  0  0  0  0  0  0  0  0  0  0
  153.9658  142.5586  161.9431 H   0  0  0  0  0  0  0  0  0  0  0  0
  154.8151  142.1914  160.4461 H   0  0  0  0  0  0  0  0  0  0  0  0
  151.9869  141.2759  161.1886 H   0  0  0  0  0  0  0  0  0  0  0  0
  150.7230  140.7093  159.1218 H   0  0  0  0  0  0  0  0  0  0  0  0
  152.3172  138.8767  157.3788 H   0  0  0  0  0  0  0  0  0  0  0  0
  150.6691  138.6043  157.8920 H   0  0  0  0  0  0  0  0  0  0  0  0
  151.6834  140.7198  155.9381 H   0  0  0  0  0  0  0  0  0  0  0  0
  151.0124  139.0721  154.5042 H   0  0  0  0  0  0  0  0  0  0  0  0
  149.9601  138.2907  155.6809 H   0  0  0  0  0  0  0  0  0  0  0  0
  149.0720  140.1373  153.6792 H   0  0  0  0  0  0  0  0  0  0  0  0
  148.1403  139.5482  155.0589 H   0  0  0  0  0  0  0  0  0  0  0  0
  148.9861  140.6884  157.3448 H   0  0  0  0  0  0  0  0  0  0  0  0
  150.0687  142.0673  157.0927 H   0  0  0  0  0  0  0  0  0  0  0  0
  153.5557  143.4176  158.3759 H   0  0  0  0  0  0  0  0  0  0  0  0
  151.9595  145.6136  158.1205 H   0  0  0  0  0  0  0  0  0  0  0  0
  150.0191  145.2023  160.0558 H   0  0  0  0  0  0  0  0  0  0  0  0
  1  2  1  0  0  0  0
  1 17  1  0  0  0  0
  1 18  1  0  0  0  0
  1 19  1  0  0  0  0
  2  3  1  0  0  0  0
  2 12  1  0  0  0  0
  2 20  1  0  0  0  0
  3  4  2  0  0  0  0
  3  5  1  0  0  0  0
  5  6  1  0  0  0  0
  5 21  1  0  0  0  0
  6  7  1  0  0  0  0
  6 22  1  0  0  0  0
  6 23  1  0  0  0  0
  7 11  1  0  0  0  0
  7  8  1  0  0  0  0
  7 24  1  0  0  0  0
  8  9  1  0  0  0  0
  8 25  1  0  0  0  0
  8 26  1  0  0  0  0
  9 10  1  0  0  0  0
  9 27  1  0  0  0  0
  9 28  1  0  0  0  0
 10 11  1  0  0  0  0
 11 29  1  0  0  0  0
 11 30  1  0  0  0  0
 12 16  1  0  0  0  0
 12 13  1  0  0  0  0
 13 14  2  0  0  0  0
 13 31  1  0  0  0  0
 14 15  1  0  0  0  0
 14 32  1  0  0  0  0
 15 16  2  0  0  0  0
 15 33  1  0  0  0  0
M  END
> <s_m_source_file>
AV-unprocessed.smi

> <i_m_source_file_index>
1561

> <i_lp_mmshare_version>
43012

> <i_f3d_flags>
0

> <s_epik_input>
bjFbY0hdW2NIXVtjSF1uMVtDQEhdKFtDSDNdKUMoPU8pW05IXVtDSDJdW0NAQEhdMltDSDJdW0NIMl1PW0NIMl0y

> <s_epik_cmdline>
J2VwaWtfcHl0aG9uJywgJy1waCcsICc3LjAnLCAnLXRuJywgJzgnLCAnLW1hJywgJzIwMCcsICctbWV0YWxfYmluZGluZycsICctaW1hZScsICc8aW5maWxlLm1hZT4nLCAnLW9tYWUnLCAnPG91dGZpbGUubWFlPic=

> <r_lp_tautomer_probability>
1

> <r_epik_Ionization_Penalty>
3.82077e-05

> <r_epik_Ionization_Penalty_Charging>
0

> <r_epik_Ionization_Penalty_Neutral>
3.82077e-05

> <r_epik_State_Penalty>
-0

> <r_epik_Charging_Adjusted_Penalty>
0

> <i_epik_Tot_Q>
0

> <i_epik_Tot_abs_Q>
0

> <r_epik_Metal_State_Penalty>
-0

> <b_epik_Metal_Only>
0

> <s_lp_Force_Field>
OPLS_2005

> <r_lp_Energy>
22.0569

> <b_lp_Chiralities_Consistent>
1

> <s_lp_Variant>
AV-unprocessed.smi:1561-3

> <Gold.Version>
5.8.1

> <Gold.Id.Protein>
6NUR|6NUR_protein|mol2

> <Gold.PLP.Fitness>
41.8053

> <Gold.PLP.PLP>
-39.2078

> <Gold.PLP.part.hbond>
-1.5675

> <Gold.PLP.part.metal>
0.0000

> <Gold.PLP.part.buried>
-2.7751

> <Gold.PLP.part.nonpolar>
-34.8517

> <Gold.PLP.part.repulsive>
0.3636

> <Gold.PLP.ligand.clash>
0.0000

> <Gold.PLP.ligand.torsion>
0.2535

> <Gold.PLP.Chemscore.Hbond>
1.0000

> <Gold.PLP.Chemscore.CHOScore>
0.0000

> <Gold.PLP.Chemscore.Metal>
0.0000

> <Gold.Chemscore.Hbonds>
donor molecule, donor type, donor heavy atom, donor atom, acceptor molecule, acceptor atom, score
      P1  H  7997  8008       L1     4  0.99

> <Gold.PLP.Chemscore.Internal.Correction>
0.1046

> <Gold.Rescore>
     Score         DG    S(hbond)    S(metal)    S(lipo)     H(rot)  DE(clash)    DE(int)     intcor
     15.14     -15.38       0.98        0.00      91.96       1.61       0.01       0.23       ----

> <Gold.Chemscore.Fitness>
15.1416

> <Gold.Chemscore.DG>
-15.3769

> <Gold.Chemscore.ZeroCoef>
-5.4800

> <Gold.Chemscore.Hbond>
0.9753

> <Gold.Chemscore.Metal>
0.0000

> <Gold.Chemscore.Lipo>
91.9602

> <Gold.Chemscore.Internal_Hbond>
0.0000

> <Gold.Chemscore.DEClash>
0.0069

> <Gold.Chemscore.DEInternal>
0.2284

> <Gold.Chemscore.Rot>
1.6094

> <Gold.Chemscore.Internal.Correction>
   9.000000E+99

> <Gold.Chemscore.Hbonds>
donor molecule, donor type, donor heavy atom, donor atom, acceptor molecule, acceptor atom, score
      P1  H  7997  8008       L1     4  0.90

> <Gold.Chemscore.Hbond.Weighted>
-3.2576

> <Gold.Chemscore.Metal.Weighted>
-0.0000

> <Gold.Chemscore.Lipo.Weighted>
-10.7593

> <Gold.Chemscore.Internal_Hbond.Weighted>
0.0000

> <Gold.Chemscore.DEClash.Weighted>
0.0069

> <Gold.Chemscore.DEInternal.Weighted>
0.2284

> <Gold.Chemscore.Rot.Weighted>
4.1201

> <Gold.Chemscore.Internal.Correction.Weighted>
   9.000000E+99

> <Gold.Protein.RotatedTorsions>
[ 6907 6896 6895 6894 ] final -175.57 input  -60.11 | X-H torsion
[ 7974 7965 7964 7962 ] final   81.67 input  175.53 | X-H torsion
[ 8008 7997 7996 7995 ] final -101.37 input   59.86 | X-H torsion
[ 10167 10162 10161 10158 ] final  106.01 input  -65.29 | X-H torsion
[ 10718 10713 10712 10709 ] final  -88.16 input   66.30 | X-H torsion
[ 10763 10752 10751 10750 ] final -105.09 input  -60.55 | X-H torsion
[ 11005 11000 10999 10996 ] final -126.47 input  -57.11 | X-H torsion

> <Gold.Protein.ActiveResidues>
 VAL166  LYS551  ARG553  GLY616  TRP617  ASP618  TYR619  PRO620  LYS621  CYS622 
 ASP623  PHE694  ASN695  SER759  ASP760  ASP761  ALA762  ILE779  LEU786  VAL792 
 PHE793  MET794  SER795  GLU796  ALA797  LYS798  CYS799  TRP800  GLU811  SER814 

> <Gold.Protein.RotatedAtoms>
  151.5907  133.3367  159.3026 H   0  0  0  0  0  0  0  0  0  0  0  0  # atno 6907 bound_to 6896
  150.8262  134.7497  159.6826 H   0  0  0  0  0  0  0  0  0  0  0  0  # atno 6908 bound_to 6896
  152.4351  134.5709  159.9972 H   0  0  0  0  0  0  0  0  0  0  0  0  # atno 6909 bound_to 6896
  145.6351  139.2413  143.2063 H   0  0  0  0  0  0  0  0  0  0  0  0  # atno 7974 bound_to 7965
  154.8416  140.0435  157.1545 H   0  0  0  0  0  0  0  0  0  0  0  0  # atno 8008 bound_to 7997
  154.9040  140.3004  155.5281 H   0  0  0  0  0  0  0  0  0  0  0  0  # atno 8009 bound_to 7997
  156.2992  140.2370  156.4072 H   0  0  0  0  0  0  0  0  0  0  0  0  # atno 8010 bound_to 7997
  139.7044  144.7089  151.1131 H   0  0  0  0  0  0  0  0  0  0  0  0  # atno 10167 bound_to 10162
  155.9984  130.4826  150.4977 H   0  0  0  0  0  0  0  0  0  0  0  0  # atno 10718 bound_to 10713
  154.7923  135.4762  154.0080 H   0  0  0  0  0  0  0  0  0  0  0  0  # atno 10763 bound_to 10752
  153.1649  135.6815  153.8696 H   0  0  0  0  0  0  0  0  0  0  0  0  # atno 10764 bound_to 10752
  153.8298  135.3193  155.3395 H   0  0  0  0  0  0  0  0  0  0  0  0  # atno 10765 bound_to 10752
  140.9679  134.0846  157.3901 H   0  0  0  0  0  0  0  0  0  0  0  0  # atno 11005 bound_to 11000
  146.1326  140.7165  142.9405 LP  0  0  0  0  0  0  0  0  0  0  0  0  # atno 17320 bound_to 7965
  144.7179  140.4272  143.7030 LP  0  0  0  0  0  0  0  0  0  0  0  0  # atno 17321 bound_to 7965
  140.7718  143.5378  150.9347 LP  0  0  0  0  0  0  0  0  0  0  0  0  # atno 17342 bound_to 10162
  139.9061  143.6776  152.3123 LP  0  0  0  0  0  0  0  0  0  0  0  0  # atno 17343 bound_to 10162
  157.2965  131.0636  151.2098 LP  0  0  0  0  0  0  0  0  0  0  0  0  # atno 17370 bound_to 10713
  157.3092  130.6881  149.6206 LP  0  0  0  0  0  0  0  0  0  0  0  0  # atno 17371 bound_to 10713
  139.8901  135.0110  156.6718 LP  0  0  0  0  0  0  0  0  0  0  0  0  # atno 17394 bound_to 11000
  140.7372  133.9008  155.8252 LP  0  0  0  0  0  0  0  0  0  0  0  0  # atno 17395 bound_to 11000

$$$$
