AV-unprocessed.smi:72|AV-procd|sdf|672|dock6
  -GOLD-   2262016573D 1   1.00000     0.00000
 Structure written by MMmdl.
 29 30  0  0  0  0  0  0  0  0  1 V2000
  139.5986  137.3144  154.4308 N   0  0  0  0  0  0  0  0  0  0  0  0
  140.6048  136.5859  154.1004 C   0  0  0  0  0  0  0  0  0  0  0  0
  140.5497  135.2202  153.7873 N   0  0  0  0  0  0  0  0  0  0  0  0
  141.6435  134.6174  153.4371 C   0  0  0  0  0  0  0  0  0  0  0  0
  142.9178  135.3165  153.3106 N   0  0  0  0  0  0  0  0  0  0  0  0
  144.2184  134.6081  152.9500 C   0  0  1  0  0  0  0  0  0  0  0  0
  143.9055  133.4394  152.2613 O   0  0  0  0  0  0  0  0  0  0  0  0
  143.9426  133.7100  150.8684 C   0  0  2  0  0  0  0  0  0  0  0  0
  144.0811  132.4048  150.0636 C   0  0  0  0  0  0  0  0  0  0  0  0
  142.9033  132.0915  149.3485 O   0  0  0  0  0  0  0  0  0  0  0  0
  145.0492  134.7655  150.6810 C   0  0  1  0  0  0  0  0  0  0  0  0
  144.6478  135.7157  149.7142 O   0  0  0  0  0  0  0  0  0  0  0  0
  145.1812  135.4252  152.0599 C   0  0  2  0  0  0  0  0  0  0  0  0
  146.5113  135.3178  152.5259 O   0  0  0  0  0  0  0  0  0  0  0  0
  143.0001  136.6744  153.7142 C   0  0  0  0  0  0  0  0  0  0  0  0
  144.0603  137.2995  153.7317 O   0  0  0  0  0  0  0  0  0  0  0  0
  141.8344  137.2546  154.0730 N   0  0  0  0  0  0  0  0  0  0  0  0
  144.6830  134.3666  153.9073 H   0  0  0  0  0  0  0  0  0  0  0  0
  142.9737  134.1491  150.6236 H   0  0  0  0  0  0  0  0  0  0  0  0
  145.9933  134.3163  150.3714 H   0  0  0  0  0  0  0  0  0  0  0  0
  144.9326  136.4861  152.0689 H   0  0  0  0  0  0  0  0  0  0  0  0
  138.7489  136.7690  154.4296 H   0  0  0  0  0  0  0  0  0  0  0  0
  141.6704  133.5496  153.2255 H   0  0  0  0  0  0  0  0  0  0  0  0
  144.9209  132.4698  149.3715 H   0  0  0  0  0  0  0  0  0  0  0  0
  144.2905  131.5771  150.7418 H   0  0  0  0  0  0  0  0  0  0  0  0
  142.3224  132.8361  149.3841 H   0  0  0  0  0  0  0  0  0  0  0  0
  145.2522  135.6759  148.9888 H   0  0  0  0  0  0  0  0  0  0  0  0
  147.0692  135.8355  151.9657 H   0  0  0  0  0  0  0  0  0  0  0  0
  141.8638  138.2261  154.3454 H   0  0  0  0  0  0  0  0  0  0  0  0
  1  2  2  0  0  0  0
  1 22  1  0  0  0  0
  2 17  1  0  0  0  0
  2  3  1  0  0  0  0
  3  4  2  0  0  0  0
  4  5  1  0  0  0  0
  4 23  1  0  0  0  0
  5  6  1  0  0  0  0
  5 15  1  0  0  0  0
  6 18  1  0  0  0  0
  6 13  1  0  0  0  0
  6  7  1  0  0  0  0
  7  8  1  0  0  0  0
  8 19  1  0  0  0  0
  8  9  1  0  0  0  0
  8 11  1  0  0  0  0
  9 10  1  0  0  0  0
  9 24  1  0  0  0  0
  9 25  1  0  0  0  0
 10 26  1  0  0  0  0
 11 20  1  0  0  0  0
 11 12  1  0  0  0  0
 11 13  1  0  0  0  0
 12 27  1  0  0  0  0
 13 21  1  0  0  0  0
 13 14  1  0  0  0  0
 14 28  1  0  0  0  0
 15 16  2  0  0  0  0
 15 17  1  0  0  0  0
 17 29  1  0  0  0  0
M  END
> <s_m_source_file>
AV-unprocessed.smi

> <i_m_source_file_index>
72

> <i_lp_mmshare_version>
43012

> <i_f3d_flags>
0

> <s_epik_input>
W05IMl1jMW5bY0hdbihjKD1PKW4xKVtDQEBIXTJPW0NASF0oW0NIMl1bT0hdKVtDQEBIXShbT0hdKVtDQEhdMltPSF0=

> <s_epik_cmdline>
J2VwaWtfcHl0aG9uJywgJy1waCcsICc3LjAnLCAnLXRuJywgJzgnLCAnLW1hJywgJzIwMCcsICctbWV0YWxfYmluZGluZycsICctaW1hZScsICc8aW5maWxlLm1hZT4nLCAnLW9tYWUnLCAnPG91dGZpbGUubWFlPic=

> <r_lp_tautomer_probability>
7.17554e-07

> <r_epik_Ionization_Penalty>
0.0066451

> <r_epik_Ionization_Penalty_Charging>
0.00663793

> <r_epik_Ionization_Penalty_Neutral>
7.17052e-06

> <r_epik_State_Penalty>
0.419231

> <r_epik_Charging_Adjusted_Penalty>
0.425868

> <i_epik_Tot_Q>
0

> <i_epik_Tot_abs_Q>
0

> <r_epik_Metal_State_Penalty>
1.44144

> <b_epik_Metal_Only>
0

> <s_epik_Chemistry_Notes>
This compound contains an acetal/aminal-like group ( X-CH(R)-Y where X, Y are N, S, or O) that may be acid/base labile, releasing an aldehyde.

> <s_lp_Force_Field>
OPLS_2005

> <r_lp_Energy>
39.4446

> <b_lp_Chiralities_Consistent>
1

> <s_lp_Variant>
AV-unprocessed.smi:72-10

> <Gold.Version>
5.8.1

> <Gold.Id.Protein>
6NUR|6NUR_protein|mol2

> <Gold.PLP.Fitness>
44.0749

> <Gold.PLP.PLP>
-30.5723

> <Gold.PLP.part.hbond>
-7.4578

> <Gold.PLP.part.metal>
0.0000

> <Gold.PLP.part.buried>
-7.4301

> <Gold.PLP.part.nonpolar>
-17.5829

> <Gold.PLP.part.repulsive>
0.4743

> <Gold.PLP.ligand.clash>
0.0000

> <Gold.PLP.ligand.torsion>
1.2451

> <Gold.PLP.Chemscore.Hbond>
4.3848

> <Gold.PLP.Chemscore.CHOScore>
0.9201

> <Gold.PLP.Chemscore.Metal>
0.0000

> <Gold.Chemscore.Hbonds>
donor molecule, donor type, donor heavy atom, donor atom, acceptor molecule, acceptor atom, score
      L1  H    10    26       P1 10186  0.93
      L1  H    12    27       P1  7921  1.00
      L1  H    14    28       P1  7948  0.74
      P1  H 10785 10796       L1    10  0.93
      P1  H 11000 11005       L1     3  0.71
      L1  C     4    23       P1 10957  0.89

> <Gold.PLP.Chemscore.Internal.Correction>
0.0781

> <Gold.Rescore>
     Score         DG    S(hbond)    S(metal)    S(lipo)     H(rot)  DE(clash)    DE(int)     intcor
      6.47      -9.29       3.36        0.00      25.58       4.06       0.00       2.82       ----

> <Gold.Chemscore.Fitness>
6.4711

> <Gold.Chemscore.DG>
-9.2909

> <Gold.Chemscore.ZeroCoef>
-5.4800

> <Gold.Chemscore.Hbond>
3.3567

> <Gold.Chemscore.Metal>
0.0000

> <Gold.Chemscore.Lipo>
25.5820

> <Gold.Chemscore.Internal_Hbond>
0.0000

> <Gold.Chemscore.DEClash>
0.0000

> <Gold.Chemscore.DEInternal>
2.8198

> <Gold.Chemscore.Rot>
4.0600

> <Gold.Chemscore.Internal.Correction>
   9.000000E+99

> <Gold.Chemscore.Hbonds>
donor molecule, donor type, donor heavy atom, donor atom, acceptor molecule, acceptor atom, score
      L1  H    10    26       P1 10186  0.89
      L1  H    12    27       P1  7921  0.98
      L1  H    14    28       P1  7948  0.74
      P1  H 10785 10796       L1    10  0.40
      P1  H 11000 11005       L1     3  0.06

> <Gold.Chemscore.Hbond.Weighted>
-11.2114

> <Gold.Chemscore.Metal.Weighted>
-0.0000

> <Gold.Chemscore.Lipo.Weighted>
-2.9931

> <Gold.Chemscore.Internal_Hbond.Weighted>
0.0000

> <Gold.Chemscore.DEClash.Weighted>
0.0000

> <Gold.Chemscore.DEInternal.Weighted>
2.8198

> <Gold.Chemscore.Rot.Weighted>
10.3936

> <Gold.Chemscore.Internal.Correction.Weighted>
   9.000000E+99

> <Gold.Protein.RotatedTorsions>
[ 6907 6896 6895 6894 ] final -123.58 input  -60.11 | X-H torsion
[ 7974 7965 7964 7962 ] final  -83.10 input  175.53 | X-H torsion
[ 8008 7997 7996 7995 ] final  -91.13 input   59.86 | X-H torsion
[ 10167 10162 10161 10158 ] final  -39.84 input  -65.29 | X-H torsion
[ 10718 10713 10712 10709 ] final  123.94 input   66.30 | X-H torsion
[ 10763 10752 10751 10750 ] final    8.19 input  -60.55 | X-H torsion
[ 11005 11000 10999 10996 ] final   36.88 input  -57.11 | X-H torsion

> <Gold.Protein.ActiveResidues>
 VAL166  LYS551  ARG553  GLY616  TRP617  ASP618  TYR619  PRO620  LYS621  CYS622 
 ASP623  PHE694  ASN695  SER759  ASP760  ASP761  ALA762  ILE779  LEU786  VAL792 
 PHE793  MET794  SER795  GLU796  ALA797  LYS798  CYS799  TRP800  GLU811  SER814 

> <Gold.Protein.RotatedAtoms>
  150.8685  133.7540  159.2968 H   0  0  0  0  0  0  0  0  0  0  0  0  # atno 6907 bound_to 6896
  151.5159  135.1064  159.9875 H   0  0  0  0  0  0  0  0  0  0  0  0  # atno 6908 bound_to 6896
  152.4678  133.7917  159.6961 H   0  0  0  0  0  0  0  0  0  0  0  0  # atno 6909 bound_to 6896
  145.5244  140.9528  143.1637 H   0  0  0  0  0  0  0  0  0  0  0  0  # atno 7974 bound_to 7965
  154.7070  140.0523  157.0514 H   0  0  0  0  0  0  0  0  0  0  0  0  # atno 8008 bound_to 7997
  155.0606  140.3189  155.4643 H   0  0  0  0  0  0  0  0  0  0  0  0  # atno 8009 bound_to 7997
  156.2778  140.2099  156.5733 H   0  0  0  0  0  0  0  0  0  0  0  0  # atno 8010 bound_to 7997
  140.7052  143.3190  151.2839 H   0  0  0  0  0  0  0  0  0  0  0  0  # atno 10167 bound_to 10162
  157.5625  131.1088  150.8514 H   0  0  0  0  0  0  0  0  0  0  0  0  # atno 10718 bound_to 10713
  153.2278  135.6889  153.7925 H   0  0  0  0  0  0  0  0  0  0  0  0  # atno 10763 bound_to 10752
  153.7100  135.3284  155.3245 H   0  0  0  0  0  0  0  0  0  0  0  0  # atno 10764 bound_to 10752
  154.8300  135.4588  154.1151 H   0  0  0  0  0  0  0  0  0  0  0  0  # atno 10765 bound_to 10752
  140.2281  134.3560  155.7975 H   0  0  0  0  0  0  0  0  0  0  0  0  # atno 11005 bound_to 11000
  144.7659  139.6847  143.7215 LP  0  0  0  0  0  0  0  0  0  0  0  0  # atno 17320 bound_to 7965
  146.2085  139.5425  142.9697 LP  0  0  0  0  0  0  0  0  0  0  0  0  # atno 17321 bound_to 7965
  139.6637  144.0143  152.2709 LP  0  0  0  0  0  0  0  0  0  0  0  0  # atno 17342 bound_to 10162
  139.9718  144.6488  150.7981 LP  0  0  0  0  0  0  0  0  0  0  0  0  # atno 17343 bound_to 10162
  156.9008  130.5246  149.5283 LP  0  0  0  0  0  0  0  0  0  0  0  0  # atno 17370 bound_to 10713
  156.0676  130.5716  150.9319 LP  0  0  0  0  0  0  0  0  0  0  0  0  # atno 17371 bound_to 10713
  141.2219  133.7230  156.8686 LP  0  0  0  0  0  0  0  0  0  0  0  0  # atno 17394 bound_to 11000
  140.1779  134.9054  157.2913 LP  0  0  0  0  0  0  0  0  0  0  0  0  # atno 17395 bound_to 11000

$$$$
