AV-unprocessed.smi:3030|AV-procd|sdf|11533|dock9
  -GOLD-   2272016483D 1   1.00000     0.00000
 Structure written by MMmdl.
 52 53  0  0  0  0  0  0  0  0  1 V2000
  148.5416  131.1124  161.5522 C   0  0  0  0  0  0  0  0  0  0  0  0
  147.4621  131.9006  160.8020 C   0  0  0  0  0  0  0  0  0  0  0  0
  147.4879  133.3139  161.1493 N   0  0  0  0  0  0  0  0  0  0  0  0
  147.3918  133.7357  162.4715 C   0  0  0  0  0  0  0  0  0  0  0  0
  147.4457  135.0249  162.8584 C   0  0  0  0  0  0  0  0  0  0  0  0
  147.6233  136.0794  161.8396 C   0  0  0  0  0  0  0  0  0  0  0  0
  147.6646  137.2683  162.1561 O   0  0  0  0  0  0  0  0  0  0  0  0
  147.7476  135.6265  160.4290 C   0  0  0  0  0  0  0  0  0  0  0  0
  147.9091  136.6313  159.4623 N   0  0  0  0  0  0  0  0  0  0  0  0
  148.9236  136.8199  158.5996 C   0  0  0  0  0  0  0  0  0  0  0  0
  149.9527  136.1474  158.5421 O   0  0  0  0  0  0  0  0  0  0  0  0
  148.6731  137.8639  157.7961 N   0  0  0  0  0  0  0  0  0  0  0  0
  149.5534  138.3821  156.7490 C   0  0  2  0  0  0  0  0  0  0  0  0
  149.8413  137.2310  155.7613 C   0  0  0  0  0  0  0  0  0  0  0  0
  150.8391  137.6136  154.6530 C   0  0  1  0  0  0  0  0  0  0  0  0
  150.2264  138.5515  153.5978 C   0  0  0  0  0  0  0  0  0  0  0  0
  152.1306  138.1748  155.2728 C   0  0  0  0  0  0  0  0  0  0  0  0
  151.8561  139.3439  156.2316 C   0  0  0  0  0  0  0  0  0  0  0  0
  150.8657  138.9576  157.3561 C   0  0  1  0  0  0  0  0  0  0  0  0
  150.6404  140.1043  158.3879 C   0  0  0  0  0  0  0  0  0  0  0  0
  149.7616  141.2563  157.8659 C   0  0  0  0  0  0  0  0  0  0  0  0
  151.9613  140.6497  158.9578 C   0  0  0  0  0  0  0  0  0  0  0  0
  147.6691  134.2951  160.1767 C   0  0  0  0  0  0  0  0  0  0  0  0
  148.5092  130.0571  161.2817 H   0  0  0  0  0  0  0  0  0  0  0  0
  148.4032  131.1839  162.6314 H   0  0  0  0  0  0  0  0  0  0  0  0
  149.5382  131.4865  161.3156 H   0  0  0  0  0  0  0  0  0  0  0  0
  147.6013  131.7877  159.7263 H   0  0  0  0  0  0  0  0  0  0  0  0
  146.4780  131.4883  161.0275 H   0  0  0  0  0  0  0  0  0  0  0  0
  147.2609  132.9359  163.1862 H   0  0  0  0  0  0  0  0  0  0  0  0
  147.3626  135.3062  163.8980 H   0  0  0  0  0  0  0  0  0  0  0  0
  147.1631  137.3110  159.4356 H   0  0  0  0  0  0  0  0  0  0  0  0
  147.7982  138.3514  157.9240 H   0  0  0  0  0  0  0  0  0  0  0  0
  149.0456  139.1710  156.1938 H   0  0  0  0  0  0  0  0  0  0  0  0
  150.2467  136.3814  156.3133 H   0  0  0  0  0  0  0  0  0  0  0  0
  148.9098  136.8795  155.3150 H   0  0  0  0  0  0  0  0  0  0  0  0
  151.1049  136.6961  154.1264 H   0  0  0  0  0  0  0  0  0  0  0  0
  149.9202  139.5070  154.0229 H   0  0  0  0  0  0  0  0  0  0  0  0
  149.3466  138.1000  153.1387 H   0  0  0  0  0  0  0  0  0  0  0  0
  150.9402  138.7596  152.8004 H   0  0  0  0  0  0  0  0  0  0  0  0
  152.6390  137.3803  155.8207 H   0  0  0  0  0  0  0  0  0  0  0  0
  152.8198  138.4891  154.4884 H   0  0  0  0  0  0  0  0  0  0  0  0
  152.8052  139.6690  156.6560 H   0  0  0  0  0  0  0  0  0  0  0  0
  151.4721  140.1909  155.6637 H   0  0  0  0  0  0  0  0  0  0  0  0
  151.3297  138.1378  157.9076 H   0  0  0  0  0  0  0  0  0  0  0  0
  150.1183  139.6785  159.2443 H   0  0  0  0  0  0  0  0  0  0  0  0
  150.2431  141.7958  157.0509 H   0  0  0  0  0  0  0  0  0  0  0  0
  149.5630  141.9784  158.6581 H   0  0  0  0  0  0  0  0  0  0  0  0
  148.7953  140.9025  157.5089 H   0  0  0  0  0  0  0  0  0  0  0  0
  152.5340  141.1956  158.2084 H   0  0  0  0  0  0  0  0  0  0  0  0
  152.5897  139.8455  159.3409 H   0  0  0  0  0  0  0  0  0  0  0  0
  151.7729  141.3369  159.7832 H   0  0  0  0  0  0  0  0  0  0  0  0
  147.7184  133.8844  159.1804 H   0  0  0  0  0  0  0  0  0  0  0  0
  1  2  1  0  0  0  0
  1 24  1  0  0  0  0
  1 25  1  0  0  0  0
  1 26  1  0  0  0  0
  2  3  1  0  0  0  0
  2 27  1  0  0  0  0
  2 28  1  0  0  0  0
  3 23  1  0  0  0  0
  3  4  1  0  0  0  0
  4  5  2  0  0  0  0
  4 29  1  0  0  0  0
  5  6  1  0  0  0  0
  5 30  1  0  0  0  0
  6  7  2  0  0  0  0
  6  8  1  0  0  0  0
  8  9  1  0  0  0  0
  8 23  2  0  0  0  0
  9 10  1  0  0  0  0
  9 31  1  0  0  0  0
 10 11  2  0  0  0  0
 10 12  1  0  0  0  0
 12 13  1  0  0  0  0
 12 32  1  0  0  0  0
 13 19  1  0  0  0  0
 13 14  1  0  0  0  0
 13 33  1  0  0  0  0
 14 15  1  0  0  0  0
 14 34  1  0  0  0  0
 14 35  1  0  0  0  0
 15 16  1  0  0  0  0
 15 17  1  0  0  0  0
 15 36  1  0  0  0  0
 16 37  1  0  0  0  0
 16 38  1  0  0  0  0
 16 39  1  0  0  0  0
 17 18  1  0  0  0  0
 17 40  1  0  0  0  0
 17 41  1  0  0  0  0
 18 19  1  0  0  0  0
 18 42  1  0  0  0  0
 18 43  1  0  0  0  0
 19 20  1  0  0  0  0
 19 44  1  0  0  0  0
 20 21  1  0  0  0  0
 20 22  1  0  0  0  0
 20 45  1  0  0  0  0
 21 46  1  0  0  0  0
 21 47  1  0  0  0  0
 21 48  1  0  0  0  0
 22 49  1  0  0  0  0
 22 50  1  0  0  0  0
 22 51  1  0  0  0  0
 23 52  1  0  0  0  0
M  END
> <s_m_source_file>
AV-unprocessed.smi

> <i_m_source_file_index>
3030

> <i_lp_mmshare_version>
43012

> <i_f3d_flags>
0

> <s_epik_input>
W0NIM11bQ0gyXW4xW2NIXVtjSF1jKD1PKWMoW2NIXTEpW05IXUMoPU8pW05IXVtDQEBIXTJbQ0gyXVtDQEBIXShbQ0gzXSlbQ0gyXVtDSDJdW0NASF0yW0NIXShbQ0gzXSlbQ0gzXQ==

> <s_epik_cmdline>
J2VwaWtfcHl0aG9uJywgJy1waCcsICc3LjAnLCAnLXRuJywgJzgnLCAnLW1hJywgJzIwMCcsICctbWV0YWxfYmluZGluZycsICctaW1hZScsICc8aW5maWxlLm1hZT4nLCAnLW9tYWUnLCAnPG91dGZpbGUubWFlPic=

> <r_lp_tautomer_probability>
1

> <r_epik_Ionization_Penalty>
0.00147933

> <r_epik_Ionization_Penalty_Charging>
0.00145753

> <r_epik_Ionization_Penalty_Neutral>
2.17987e-05

> <r_epik_State_Penalty>
0.00097457

> <r_epik_Charging_Adjusted_Penalty>
0.0024321

> <i_epik_Tot_Q>
0

> <i_epik_Tot_abs_Q>
0

> <r_epik_Metal_State_Penalty>
-0

> <b_epik_Metal_Only>
0

> <s_lp_Force_Field>
OPLS_2005

> <r_lp_Energy>
11.9489

> <b_lp_Chiralities_Consistent>
1

> <s_lp_Variant>
AV-unprocessed.smi:3030-1

> <Gold.Version>
5.8.1

> <Gold.Id.Protein>
6NUR|6NUR_protein|mol2

> <Gold.PLP.Fitness>
46.6906

> <Gold.PLP.PLP>
-40.6078

> <Gold.PLP.part.hbond>
-3.0000

> <Gold.PLP.part.metal>
0.0000

> <Gold.PLP.part.buried>
-4.5070

> <Gold.PLP.part.nonpolar>
-32.3331

> <Gold.PLP.part.repulsive>
0.2447

> <Gold.PLP.ligand.clash>
0.0000

> <Gold.PLP.ligand.torsion>
0.6754

> <Gold.PLP.Chemscore.Hbond>
2.4560

> <Gold.PLP.Chemscore.CHOScore>
0.0000

> <Gold.PLP.Chemscore.Metal>
0.0000

> <Gold.Chemscore.Hbonds>
donor molecule, donor type, donor heavy atom, donor atom, acceptor molecule, acceptor atom, score
      P1  H  6896  6907       L1    11  1.00
      P1  H  6931  6943       L1     7  0.91
      P1  H  6934  6947       L1     7  0.35

> <Gold.PLP.Chemscore.Internal.Correction>
0.0656

> <Gold.Rescore>
     Score         DG    S(hbond)    S(metal)    S(lipo)     H(rot)  DE(clash)    DE(int)     intcor
     18.38     -21.45       2.52        0.00      92.29       1.27       1.09       1.99       ----

> <Gold.Chemscore.Fitness>
18.3800

> <Gold.Chemscore.DG>
-21.4510

> <Gold.Chemscore.ZeroCoef>
-5.4800

> <Gold.Chemscore.Hbond>
2.5209

> <Gold.Chemscore.Metal>
0.0000

> <Gold.Chemscore.Lipo>
92.2949

> <Gold.Chemscore.Internal_Hbond>
0.0000

> <Gold.Chemscore.DEClash>
1.0859

> <Gold.Chemscore.DEInternal>
1.9851

> <Gold.Chemscore.Rot>
1.2685

> <Gold.Chemscore.Internal.Correction>
   9.000000E+99

> <Gold.Chemscore.Hbonds>
donor molecule, donor type, donor heavy atom, donor atom, acceptor molecule, acceptor atom, score
      P1  H  6896  6907       L1    11  0.98
      P1  H  6931  6943       L1     7  0.89
      P1  H  6934  6947       L1     7  0.35

> <Gold.Chemscore.Hbond.Weighted>
-8.4200

> <Gold.Chemscore.Metal.Weighted>
-0.0000

> <Gold.Chemscore.Lipo.Weighted>
-10.7985

> <Gold.Chemscore.Internal_Hbond.Weighted>
0.0000

> <Gold.Chemscore.DEClash.Weighted>
1.0859

> <Gold.Chemscore.DEInternal.Weighted>
1.9851

> <Gold.Chemscore.Rot.Weighted>
3.2474

> <Gold.Chemscore.Internal.Correction.Weighted>
   9.000000E+99

> <Gold.Protein.RotatedTorsions>
[ 6907 6896 6895 6894 ] final  -52.99 input  -60.11 | X-H torsion
[ 7974 7965 7964 7962 ] final   80.62 input  175.53 | X-H torsion
[ 8008 7997 7996 7995 ] final   99.26 input   59.86 | X-H torsion
[ 10167 10162 10161 10158 ] final  132.04 input  -65.29 | X-H torsion
[ 10718 10713 10712 10709 ] final  119.26 input   66.30 | X-H torsion
[ 10763 10752 10751 10750 ] final  167.44 input  -60.55 | X-H torsion
[ 11005 11000 10999 10996 ] final    8.20 input  -57.11 | X-H torsion

> <Gold.Protein.ActiveResidues>
 VAL166  LYS551  ARG553  GLY616  TRP617  ASP618  TYR619  PRO620  LYS621  CYS622 
 ASP623  PHE694  ASN695  SER759  ASP760  ASP761  ALA762  ILE779  LEU786  VAL792 
 PHE793  MET794  SER795  GLU796  ALA797  LYS798  CYS799  TRP800  GLU811  SER814 

> <Gold.Protein.RotatedAtoms>
  150.8468  134.7779  159.6976 H   0  0  0  0  0  0  0  0  0  0  0  0  # atno 6907 bound_to 6896
  152.4542  134.5323  159.9824 H   0  0  0  0  0  0  0  0  0  0  0  0  # atno 6908 bound_to 6896
  151.5452  133.3388  159.2978 H   0  0  0  0  0  0  0  0  0  0  0  0  # atno 6909 bound_to 6896
  145.6489  139.2443  143.1988 H   0  0  0  0  0  0  0  0  0  0  0  0  # atno 7974 bound_to 7965
  156.1087  140.3231  155.8042 H   0  0  0  0  0  0  0  0  0  0  0  0  # atno 8008 bound_to 7997
  155.4711  140.0546  157.2996 H   0  0  0  0  0  0  0  0  0  0  0  0  # atno 8009 bound_to 7997
  154.4745  140.2026  155.9926 H   0  0  0  0  0  0  0  0  0  0  0  0  # atno 8010 bound_to 7997
  139.5357  144.6679  151.4795 H   0  0  0  0  0  0  0  0  0  0  0  0  # atno 10167 bound_to 10162
  157.5974  131.1056  150.7872 H   0  0  0  0  0  0  0  0  0  0  0  0  # atno 10718 bound_to 10713
  154.3538  135.2753  155.2357 H   0  0  0  0  0  0  0  0  0  0  0  0  # atno 10763 bound_to 10752
  154.4575  135.5915  153.6236 H   0  0  0  0  0  0  0  0  0  0  0  0  # atno 10764 bound_to 10752
  152.9848  135.6057  154.3752 H   0  0  0  0  0  0  0  0  0  0  0  0  # atno 10765 bound_to 10752
  140.5396  134.0387  155.7900 H   0  0  0  0  0  0  0  0  0  0  0  0  # atno 11005 bound_to 11000
  146.1220  140.7297  142.9453 LP  0  0  0  0  0  0  0  0  0  0  0  0  # atno 17320 bound_to 7965
  144.7130  140.4108  143.7066 LP  0  0  0  0  0  0  0  0  0  0  0  0  # atno 17321 bound_to 7965
  140.6562  143.8595  150.6837 LP  0  0  0  0  0  0  0  0  0  0  0  0  # atno 17342 bound_to 10162
  140.1975  143.3986  152.1817 LP  0  0  0  0  0  0  0  0  0  0  0  0  # atno 17343 bound_to 10162
  156.8279  130.5006  149.5335 LP  0  0  0  0  0  0  0  0  0  0  0  0  # atno 17370 bound_to 10713
  156.1039  130.5990  150.9939 LP  0  0  0  0  0  0  0  0  0  0  0  0  # atno 17371 bound_to 10713
  141.1234  133.9423  157.2683 LP  0  0  0  0  0  0  0  0  0  0  0  0  # atno 17394 bound_to 11000
  139.9511  135.0175  156.8995 LP  0  0  0  0  0  0  0  0  0  0  0  0  # atno 17395 bound_to 11000

$$$$
