AV-unprocessed.smi:118|AV-procd|sdf|1131|dock8
  -GOLD-   2262018263D 1   1.00000     0.00000
 Structure written by MMmdl.
 41 44  0  0  0  0  0  0  0  0  1 V2000
  153.0306  138.9475  157.4238 O   0  0  0  0  0  0  0  0  0  0  0  0
  151.8074  139.0915  157.4155 C   0  0  0  0  0  0  0  0  0  0  0  0
  150.9007  138.0423  156.7522 C   0  0  0  0  0  0  0  0  0  0  0  0
  149.7668  137.6148  157.6014 N   0  0  0  0  0  0  0  0  0  0  0  0
  148.4474  137.8110  157.1228 C   0  0  0  0  0  0  0  0  0  0  0  0
  148.2355  138.3452  156.0332 O   0  0  0  0  0  0  0  0  0  0  0  0
  147.3831  137.3299  157.9961 C   0  0  0  0  0  0  0  0  0  0  0  0
  146.1005  137.4590  157.6165 F   0  0  0  0  0  0  0  0  0  0  0  0
  147.6659  136.7501  159.1806 C   0  0  0  0  0  0  0  0  0  0  0  0
  148.9555  136.5843  159.6461 N   0  0  0  0  0  0  0  0  0  0  0  0
  149.1798  135.8756  160.9619 C   0  0  2  0  0  0  0  0  0  0  0  0
  148.6225  134.4397  160.9934 C   0  0  0  0  0  0  0  0  0  0  0  0
  147.6455  134.4794  162.1570 C   0  0  0  0  0  0  0  0  0  0  0  0
  148.1293  135.6778  162.9660 C   0  0  0  0  0  0  0  0  0  0  0  0
  148.5445  136.5993  161.9702 O   0  0  0  0  0  0  0  0  0  0  0  0
  150.0451  136.9902  158.8410 C   0  0  0  0  0  0  0  0  0  0  0  0
  151.2075  136.7993  159.2022 O   0  0  0  0  0  0  0  0  0  0  0  0
  151.1635  140.1502  157.9383 N   0  0  0  0  0  0  0  0  0  0  0  0
  151.7120  141.2757  158.6134 C   0  0  0  0  0  0  0  0  0  0  0  0
  151.2392  142.6011  158.4322 C   0  0  0  0  0  0  0  0  0  0  0  0
  151.8372  143.6830  159.1164 C   0  0  0  0  0  0  0  0  0  0  0  0
  152.9251  143.4706  159.9872 C   0  0  0  0  0  0  0  0  0  0  0  0
  153.4089  142.1610  160.1567 C   0  0  0  0  0  0  0  0  0  0  0  0
  152.8138  141.0747  159.4738 C   0  0  0  0  0  0  0  0  0  0  0  0
  153.4168  139.8491  159.7523 N   0  0  0  0  0  0  0  0  0  0  0  0
  154.5052  140.2924  160.7301 S   0  0  0  0  0  0  0  0  0  0  0  0
  154.4757  141.8012  160.9736 N   0  0  0  0  0  0  0  0  0  0  0  0
  150.5422  138.4430  155.8026 H   0  0  0  0  0  0  0  0  0  0  0  0
  151.5169  137.1901  156.4614 H   0  0  0  0  0  0  0  0  0  0  0  0
  146.8408  136.4049  159.7863 H   0  0  0  0  0  0  0  0  0  0  0  0
  150.2570  135.8924  161.1333 H   0  0  0  0  0  0  0  0  0  0  0  0
  148.1537  134.1504  160.0524 H   0  0  0  0  0  0  0  0  0  0  0  0
  149.4450  133.7529  161.1947 H   0  0  0  0  0  0  0  0  0  0  0  0
  146.6340  134.6610  161.7930 H   0  0  0  0  0  0  0  0  0  0  0  0
  147.6341  133.5548  162.7347 H   0  0  0  0  0  0  0  0  0  0  0  0
  147.3518  136.0980  163.6041 H   0  0  0  0  0  0  0  0  0  0  0  0
  148.9817  135.4074  163.5914 H   0  0  0  0  0  0  0  0  0  0  0  0
  150.1687  140.1897  157.7701 H   0  0  0  0  0  0  0  0  0  0  0  0
  150.4236  142.8151  157.7589 H   0  0  0  0  0  0  0  0  0  0  0  0
  151.4597  144.6836  158.9662 H   0  0  0  0  0  0  0  0  0  0  0  0
  153.3812  144.2994  160.5085 H   0  0  0  0  0  0  0  0  0  0  0  0
  1  2  2  0  0  0  0
  2  3  1  0  0  0  0
  2 18  1  0  0  0  0
  3  4  1  0  0  0  0
  3 28  1  0  0  0  0
  3 29  1  0  0  0  0
  4 16  1  0  0  0  0
  4  5  1  0  0  0  0
  5  6  2  0  0  0  0
  5  7  1  0  0  0  0
  7  8  1  0  0  0  0
  7  9  2  0  0  0  0
  9 10  1  0  0  0  0
  9 30  1  0  0  0  0
 10 11  1  0  0  0  0
 10 16  1  0  0  0  0
 11 15  1  0  0  0  0
 11 12  1  0  0  0  0
 11 31  1  0  0  0  0
 12 13  1  0  0  0  0
 12 32  1  0  0  0  0
 12 33  1  0  0  0  0
 13 14  1  0  0  0  0
 13 34  1  0  0  0  0
 13 35  1  0  0  0  0
 14 15  1  0  0  0  0
 14 36  1  0  0  0  0
 14 37  1  0  0  0  0
 16 17  2  0  0  0  0
 18 19  1  0  0  0  0
 18 38  1  0  0  0  0
 19 24  1  0  0  0  0
 19 20  2  0  0  0  0
 20 21  1  0  0  0  0
 20 39  1  0  0  0  0
 21 22  2  0  0  0  0
 21 40  1  0  0  0  0
 22 23  1  0  0  0  0
 22 41  1  0  0  0  0
 23 27  1  0  0  0  0
 23 24  2  0  0  0  0
 24 25  1  0  0  0  0
 25 26  2  0  0  0  0
 26 27  2  0  0  0  0
M  END
> <s_m_source_file>
AV-unprocessed.smi

> <i_m_source_file_index>
118

> <i_lp_mmshare_version>
43012

> <i_f3d_flags>
0

> <s_epik_input>
TjE9Uz1OYyhjMTIpYyhbY0hdW2NIXVtjSF0yKVtOSF1DKD1PKVtDSDJdbjNjKD1PKWMoRilbY0hdbihjMz1PKVtDQEBIXTRbQ0gyXVtDSDJdW0NIMl1PNA==

> <s_epik_cmdline>
J2VwaWtfcHl0aG9uJywgJy1waCcsICc3LjAnLCAnLXRuJywgJzgnLCAnLW1hJywgJzIwMCcsICctbWV0YWxfYmluZGluZycsICctaW1hZScsICc8aW5maWxlLm1hZT4nLCAnLW9tYWUnLCAnPG91dGZpbGUubWFlPic=

> <r_lp_tautomer_probability>
1

> <r_epik_Ionization_Penalty>
1.81156e-06

> <r_epik_Ionization_Penalty_Charging>
3.88729e-08

> <r_epik_Ionization_Penalty_Neutral>
1.77269e-06

> <r_epik_State_Penalty>
-0

> <r_epik_Charging_Adjusted_Penalty>
3.88729e-08

> <i_epik_Tot_Q>
0

> <i_epik_Tot_abs_Q>
0

> <r_epik_Metal_State_Penalty>
-0

> <b_epik_Metal_Only>
0

> <s_epik_Chemistry_Notes>
This compound contains an acetal/aminal-like group ( X-CH(R)-Y where X, Y are N, S, or O) that may be acid/base labile, releasing an aldehyde.

> <s_lp_Force_Field>
OPLS_2005

> <r_lp_Energy>
47.7675

> <b_lp_Chiralities_Consistent>
1

> <s_lp_Variant>
AV-unprocessed.smi:118-1

> <Gold.Version>
5.8.1

> <Gold.Id.Protein>
6NUR|6NUR_protein|mol2

> <Gold.PLP.Fitness>
52.5876

> <Gold.PLP.PLP>
-42.4520

> <Gold.PLP.part.hbond>
-5.0000

> <Gold.PLP.part.metal>
0.0000

> <Gold.PLP.part.buried>
-4.7924

> <Gold.PLP.part.nonpolar>
-32.4789

> <Gold.PLP.part.repulsive>
0.0987

> <Gold.PLP.ligand.clash>
0.0000

> <Gold.PLP.ligand.torsion>
0.4115

> <Gold.PLP.Chemscore.Hbond>
3.6433

> <Gold.PLP.Chemscore.CHOScore>
0.0000

> <Gold.PLP.Chemscore.Metal>
0.0000

> <Gold.Chemscore.Hbonds>
donor molecule, donor type, donor heavy atom, donor atom, acceptor molecule, acceptor atom, score
      P1  H  6896  6909       L1    17  1.00
      P1  H  6931  6943       L1    15  1.00
      P1  H  7997  8008       L1     1  1.00

> <Gold.PLP.Chemscore.Internal.Correction>
0.0286

> <Gold.Rescore>
     Score         DG    S(hbond)    S(metal)    S(lipo)     H(rot)  DE(clash)    DE(int)     intcor
     16.47     -21.18       2.89        0.00      90.99       1.80       0.02       4.69       ----

> <Gold.Chemscore.Fitness>
16.4668

> <Gold.Chemscore.DG>
-21.1805

> <Gold.Chemscore.ZeroCoef>
-5.4800

> <Gold.Chemscore.Hbond>
2.8912

> <Gold.Chemscore.Metal>
0.0000

> <Gold.Chemscore.Lipo>
90.9933

> <Gold.Chemscore.Internal_Hbond>
0.0000

> <Gold.Chemscore.DEClash>
0.0211

> <Gold.Chemscore.DEInternal>
4.6926

> <Gold.Chemscore.Rot>
1.7977

> <Gold.Chemscore.Internal.Correction>
   9.000000E+99

> <Gold.Chemscore.Hbonds>
donor molecule, donor type, donor heavy atom, donor atom, acceptor molecule, acceptor atom, score
      P1  H  6896  6909       L1    17  0.38
      P1  H  6931  6943       L1    15  0.74
      P1  H  7997  8008       L1     1  1.00

> <Gold.Chemscore.Hbond.Weighted>
-9.6565

> <Gold.Chemscore.Metal.Weighted>
-0.0000

> <Gold.Chemscore.Lipo.Weighted>
-10.6462

> <Gold.Chemscore.Internal_Hbond.Weighted>
0.0000

> <Gold.Chemscore.DEClash.Weighted>
0.0211

> <Gold.Chemscore.DEInternal.Weighted>
4.6926

> <Gold.Chemscore.Rot.Weighted>
4.6022

> <Gold.Chemscore.Internal.Correction.Weighted>
   9.000000E+99

> <Gold.Protein.RotatedTorsions>
[ 6907 6896 6895 6894 ] final   94.18 input  -60.11 | X-H torsion
[ 7974 7965 7964 7962 ] final  131.22 input  175.53 | X-H torsion
[ 8008 7997 7996 7995 ] final  -72.29 input   59.86 | X-H torsion
[ 10167 10162 10161 10158 ] final -147.94 input  -65.29 | X-H torsion
[ 10718 10713 10712 10709 ] final -164.48 input   66.30 | X-H torsion
[ 10763 10752 10751 10750 ] final   87.16 input  -60.55 | X-H torsion
[ 11005 11000 10999 10996 ] final   84.58 input  -57.11 | X-H torsion

> <Gold.Protein.ActiveResidues>
 VAL166  LYS551  ARG553  GLY616  TRP617  ASP618  TYR619  PRO620  LYS621  CYS622 
 ASP623  PHE694  ASN695  SER759  ASP760  ASP761  ALA762  ILE779  LEU786  VAL792 
 PHE793  MET794  SER795  GLU796  ALA797  LYS798  CYS799  TRP800  GLU811  SER814 

> <Gold.Protein.RotatedAtoms>
  152.5450  134.1234  159.8408 H   0  0  0  0  0  0  0  0  0  0  0  0  # atno 6907 bound_to 6896
  151.1287  133.5045  159.2607 H   0  0  0  0  0  0  0  0  0  0  0  0  # atno 6908 bound_to 6896
  151.1699  135.0323  159.8801 H   0  0  0  0  0  0  0  0  0  0  0  0  # atno 6909 bound_to 6896
  145.0096  139.4233  143.5251 H   0  0  0  0  0  0  0  0  0  0  0  0  # atno 7974 bound_to 7965
  154.5154  140.0800  156.8071 H   0  0  0  0  0  0  0  0  0  0  0  0  # atno 8008 bound_to 7997
  155.3692  140.3422  155.4224 H   0  0  0  0  0  0  0  0  0  0  0  0  # atno 8009 bound_to 7997
  156.1622  140.1592  156.8580 H   0  0  0  0  0  0  0  0  0  0  0  0  # atno 8010 bound_to 7997
  139.7576  143.8424  152.2600 H   0  0  0  0  0  0  0  0  0  0  0  0  # atno 10167 bound_to 10162
  156.6396  130.8963  151.2993 H   0  0  0  0  0  0  0  0  0  0  0  0  # atno 10718 bound_to 10713
  153.1641  135.4553  154.9813 H   0  0  0  0  0  0  0  0  0  0  0  0  # atno 10763 bound_to 10752
  154.7919  135.3223  154.7759 H   0  0  0  0  0  0  0  0  0  0  0  0  # atno 10764 bound_to 10752
  153.8245  135.6944  153.4877 H   0  0  0  0  0  0  0  0  0  0  0  0  # atno 10765 bound_to 10752
  139.8996  134.8226  156.2464 H   0  0  0  0  0  0  0  0  0  0  0  0  # atno 11005 bound_to 11000
  146.3467  139.9532  142.8726 LP  0  0  0  0  0  0  0  0  0  0  0  0  # atno 17320 bound_to 7965
  145.2041  140.9867  143.4138 LP  0  0  0  0  0  0  0  0  0  0  0  0  # atno 17321 bound_to 7965
  139.8421  144.7205  150.9318 LP  0  0  0  0  0  0  0  0  0  0  0  0  # atno 17342 bound_to 10162
  140.7804  143.3974  151.1206 LP  0  0  0  0  0  0  0  0  0  0  0  0  # atno 17343 bound_to 10162
  157.7175  130.9515  150.1310 LP  0  0  0  0  0  0  0  0  0  0  0  0  # atno 17370 bound_to 10713
  156.2169  130.3671  149.8602 LP  0  0  0  0  0  0  0  0  0  0  0  0  # atno 17371 bound_to 10713
  141.0252  133.7019  156.1335 LP  0  0  0  0  0  0  0  0  0  0  0  0  # atno 17394 bound_to 11000
  140.7177  134.4393  157.5577 LP  0  0  0  0  0  0  0  0  0  0  0  0  # atno 17395 bound_to 11000

$$$$
