AV-unprocessed.smi:1119|AV-procd|sdf|4817|dock1
  -GOLD-   22720 3373D 1   1.00000     0.00000
 Structure written by MMmdl.
 31 32  0  0  0  0  0  0  0  0  1 V2000
  146.2716  142.3008  153.8342 C   0  0  0  0  0  0  0  0  0  0  0  0
  147.5695  142.3022  154.4187 O   0  0  0  0  0  0  0  0  0  0  0  0
  148.2784  141.1165  154.4529 C   0  0  0  0  0  0  0  0  0  0  0  0
  147.7814  140.0480  153.7802 N   0  0  0  0  0  0  0  0  0  0  0  0
  148.4702  138.8889  153.8152 C   0  0  0  0  0  0  0  0  0  0  0  0
  149.6769  138.7308  154.5212 C   0  0  0  0  0  0  0  0  0  0  0  0
  150.1951  139.8375  155.2189 C   0  0  0  0  0  0  0  0  0  0  0  0
  149.4909  141.0652  155.1794 C   0  0  0  0  0  0  0  0  0  0  0  0
  149.9167  142.2334  155.8693 N   0  0  0  0  0  0  0  0  0  0  0  0
  150.8843  142.3464  156.7947 C   0  0  0  0  0  0  0  0  0  0  0  0
  151.6034  141.4271  157.1865 O   0  0  0  0  0  0  0  0  0  0  0  0
  150.9904  143.6083  157.2332 N   0  0  0  0  0  0  0  0  0  0  0  0
  151.9652  144.0720  158.2121 C   0  0  0  0  0  0  0  0  0  0  0  0
  151.3661  144.6571  159.4764 C   0  0  0  0  0  0  0  0  0  0  0  0
  151.9288  145.9123  160.1020 C   0  0  0  0  0  0  0  0  0  0  0  0
  152.1173  144.5797  160.7851 C   0  0  0  0  0  0  0  0  0  0  0  0
  145.8561  143.3074  153.8768 H   0  0  0  0  0  0  0  0  0  0  0  0
  145.5922  141.6395  154.3737 H   0  0  0  0  0  0  0  0  0  0  0  0
  146.3059  142.0021  152.7854 H   0  0  0  0  0  0  0  0  0  0  0  0
  148.0433  138.0609  153.2688 H   0  0  0  0  0  0  0  0  0  0  0  0
  150.1911  137.7812  154.5314 H   0  0  0  0  0  0  0  0  0  0  0  0
  151.1088  139.7209  155.7810 H   0  0  0  0  0  0  0  0  0  0  0  0
  149.4786  143.0935  155.5736 H   0  0  0  0  0  0  0  0  0  0  0  0
  150.3594  144.2995  156.8551 H   0  0  0  0  0  0  0  0  0  0  0  0
  152.5806  143.2174  158.4936 H   0  0  0  0  0  0  0  0  0  0  0  0
  152.6424  144.7964  157.7560 H   0  0  0  0  0  0  0  0  0  0  0  0
  150.2882  144.5239  159.5503 H   0  0  0  0  0  0  0  0  0  0  0  0
  152.8011  146.3654  159.6348 H   0  0  0  0  0  0  0  0  0  0  0  0
  151.2219  146.6111  160.5446 H   0  0  0  0  0  0  0  0  0  0  0  0
  151.5382  144.3905  161.6868 H   0  0  0  0  0  0  0  0  0  0  0  0
  153.1165  144.1484  160.7735 H   0  0  0  0  0  0  0  0  0  0  0  0
  1  2  1  0  0  0  0
  1 17  1  0  0  0  0
  1 18  1  0  0  0  0
  1 19  1  0  0  0  0
  2  3  1  0  0  0  0
  3  8  1  0  0  0  0
  3  4  2  0  0  0  0
  4  5  1  0  0  0  0
  5  6  2  0  0  0  0
  5 20  1  0  0  0  0
  6  7  1  0  0  0  0
  6 21  1  0  0  0  0
  7  8  2  0  0  0  0
  7 22  1  0  0  0  0
  8  9  1  0  0  0  0
  9 10  1  0  0  0  0
  9 23  1  0  0  0  0
 10 11  2  0  0  0  0
 10 12  1  0  0  0  0
 12 13  1  0  0  0  0
 12 24  1  0  0  0  0
 13 14  1  0  0  0  0
 13 25  1  0  0  0  0
 13 26  1  0  0  0  0
 14 16  1  0  0  0  0
 14 15  1  0  0  0  0
 14 27  1  0  0  0  0
 15 16  1  0  0  0  0
 15 28  1  0  0  0  0
 15 29  1  0  0  0  0
 16 30  1  0  0  0  0
 16 31  1  0  0  0  0
M  END
> <s_m_source_file>
AV-unprocessed.smi

> <i_m_source_file_index>
1119

> <i_lp_mmshare_version>
43012

> <i_f3d_flags>
0

> <s_epik_input>
W0NIM11PYzFuW2NIXVtjSF1bY0hdYzFbTkhdQyg9TylbTkhdW0NIMl1bQ0hdMltDSDJdW0NIMl0y

> <s_epik_cmdline>
J2VwaWtfcHl0aG9uJywgJy1waCcsICc3LjAnLCAnLXRuJywgJzgnLCAnLW1hJywgJzIwMCcsICctbWV0YWxfYmluZGluZycsICctaW1hZScsICc8aW5maWxlLm1hZT4nLCAnLW9tYWUnLCAnPG91dGZpbGUubWFlPic=

> <r_lp_tautomer_probability>
1

> <r_epik_Ionization_Penalty>
9.92152e-05

> <r_epik_Ionization_Penalty_Charging>
0

> <r_epik_Ionization_Penalty_Neutral>
9.92152e-05

> <r_epik_State_Penalty>
-0

> <r_epik_Charging_Adjusted_Penalty>
0

> <i_epik_Tot_Q>
0

> <i_epik_Tot_abs_Q>
0

> <r_epik_Metal_State_Penalty>
-0

> <b_epik_Metal_Only>
0

> <s_lp_Force_Field>
OPLS_2005

> <r_lp_Energy>
14.7926

> <b_lp_Chiralities_Consistent>
1

> <s_lp_Variant>
AV-unprocessed.smi:1119-1

> <Gold.Version>
5.8.1

> <Gold.Id.Protein>
6NUR|6NUR_protein|mol2

> <Gold.PLP.Fitness>
44.7279

> <Gold.PLP.PLP>
-36.3143

> <Gold.PLP.part.hbond>
-2.0000

> <Gold.PLP.part.metal>
0.0000

> <Gold.PLP.part.buried>
-4.4101

> <Gold.PLP.part.nonpolar>
-31.5069

> <Gold.PLP.part.repulsive>
1.3597

> <Gold.PLP.ligand.clash>
0.0000

> <Gold.PLP.ligand.torsion>
0.5721

> <Gold.PLP.Chemscore.Hbond>
2.0000

> <Gold.PLP.Chemscore.CHOScore>
1.0000

> <Gold.PLP.Chemscore.Metal>
0.0000

> <Gold.Chemscore.Hbonds>
donor molecule, donor type, donor heavy atom, donor atom, acceptor molecule, acceptor atom, score
      L1  H     9    23       P1  8028  1.00
      L1  H    12    24       P1  8028  1.00
      L1  C     5    20       P1  7948  1.00

> <Gold.PLP.Chemscore.Internal.Correction>
0.5577

> <Gold.Rescore>
     Score         DG    S(hbond)    S(metal)    S(lipo)     H(rot)  DE(clash)    DE(int)     intcor
     15.69     -17.56       1.96        0.00      78.99       1.45       0.05       1.83       ----

> <Gold.Chemscore.Fitness>
15.6883

> <Gold.Chemscore.DG>
-17.5623

> <Gold.Chemscore.ZeroCoef>
-5.4800

> <Gold.Chemscore.Hbond>
1.9617

> <Gold.Chemscore.Metal>
0.0000

> <Gold.Chemscore.Lipo>
78.9853

> <Gold.Chemscore.Internal_Hbond>
0.0000

> <Gold.Chemscore.DEClash>
0.0465

> <Gold.Chemscore.DEInternal>
1.8275

> <Gold.Chemscore.Rot>
1.4497

> <Gold.Chemscore.Internal.Correction>
   9.000000E+99

> <Gold.Chemscore.Hbonds>
donor molecule, donor type, donor heavy atom, donor atom, acceptor molecule, acceptor atom, score
      L1  H     9    23       P1  8028  1.00
      L1  H    12    24       P1  8028  0.90

> <Gold.Chemscore.Hbond.Weighted>
-6.5521

> <Gold.Chemscore.Metal.Weighted>
-0.0000

> <Gold.Chemscore.Lipo.Weighted>
-9.2413

> <Gold.Chemscore.Internal_Hbond.Weighted>
0.0000

> <Gold.Chemscore.DEClash.Weighted>
0.0465

> <Gold.Chemscore.DEInternal.Weighted>
1.8275

> <Gold.Chemscore.Rot.Weighted>
3.7111

> <Gold.Chemscore.Internal.Correction.Weighted>
   9.000000E+99

> <Gold.Protein.RotatedTorsions>
[ 6907 6896 6895 6894 ] final   69.23 input  -60.11 | X-H torsion
[ 7974 7965 7964 7962 ] final -112.74 input  175.53 | X-H torsion
[ 8008 7997 7996 7995 ] final  -12.05 input   59.86 | X-H torsion
[ 10167 10162 10161 10158 ] final  -87.30 input  -65.29 | X-H torsion
[ 10718 10713 10712 10709 ] final  153.91 input   66.30 | X-H torsion
[ 10763 10752 10751 10750 ] final   75.59 input  -60.55 | X-H torsion
[ 11005 11000 10999 10996 ] final  170.02 input  -57.11 | X-H torsion

> <Gold.Protein.ActiveResidues>
 VAL166  LYS551  ARG553  GLY616  TRP617  ASP618  TYR619  PRO620  LYS621  CYS622 
 ASP623  PHE694  ASN695  SER759  ASP760  ASP761  ALA762  ILE779  LEU786  VAL792 
 PHE793  MET794  SER795  GLU796  ALA797  LYS798  CYS799  TRP800  GLU811  SER814 

> <Gold.Protein.RotatedAtoms>
  152.4673  134.5045  159.9734 H   0  0  0  0  0  0  0  0  0  0  0  0  # atno 6907 bound_to 6896
  151.5080  133.3485  159.2888 H   0  0  0  0  0  0  0  0  0  0  0  0  # atno 6908 bound_to 6896
  150.8664  134.8056  159.7183 H   0  0  0  0  0  0  0  0  0  0  0  0  # atno 6909 bound_to 6896
  145.1403  140.8774  143.3706 H   0  0  0  0  0  0  0  0  0  0  0  0  # atno 7974 bound_to 7965
  154.5411  140.2286  155.8640 H   0  0  0  0  0  0  0  0  0  0  0  0  # atno 8008 bound_to 7997
  156.1859  140.3089  155.9199 H   0  0  0  0  0  0  0  0  0  0  0  0  # atno 8009 bound_to 7997
  155.3257  140.0443  157.3031 H   0  0  0  0  0  0  0  0  0  0  0  0  # atno 8010 bound_to 7997
  140.3857  143.2727  151.9327 H   0  0  0  0  0  0  0  0  0  0  0  0  # atno 10167 bound_to 10162
  157.2386  131.0754  151.1807 H   0  0  0  0  0  0  0  0  0  0  0  0  # atno 10718 bound_to 10713
  153.0666  135.4983  154.8212 H   0  0  0  0  0  0  0  0  0  0  0  0  # atno 10763 bound_to 10752
  154.6962  135.2993  154.9411 H   0  0  0  0  0  0  0  0  0  0  0  0  # atno 10764 bound_to 10752
  154.0150  135.6749  153.4821 H   0  0  0  0  0  0  0  0  0  0  0  0  # atno 10765 bound_to 10752
  140.3039  134.7572  157.3938 H   0  0  0  0  0  0  0  0  0  0  0  0  # atno 11005 bound_to 11000
  145.0539  139.3159  143.5914 LP  0  0  0  0  0  0  0  0  0  0  0  0  # atno 17320 bound_to 7965
  146.3505  139.9957  142.8681 LP  0  0  0  0  0  0  0  0  0  0  0  0  # atno 17321 bound_to 7965
  139.4792  144.5775  151.7987 LP  0  0  0  0  0  0  0  0  0  0  0  0  # atno 17342 bound_to 10162
  140.4891  144.1337  150.5947 LP  0  0  0  0  0  0  0  0  0  0  0  0  # atno 17343 bound_to 10162
  157.3403  130.7030  149.6377 LP  0  0  0  0  0  0  0  0  0  0  0  0  # atno 17370 bound_to 10713
  155.9671  130.4282  150.4777 LP  0  0  0  0  0  0  0  0  0  0  0  0  # atno 17371 bound_to 10713
  140.1084  134.5378  155.8288 LP  0  0  0  0  0  0  0  0  0  0  0  0  # atno 17394 bound_to 11000
  141.2122  133.6717  156.6643 LP  0  0  0  0  0  0  0  0  0  0  0  0  # atno 17395 bound_to 11000

$$$$
