AV-unprocessed.smi:2093|AV-procd|sdf|8545|dock4
  -GOLD-   2272011263D 1   1.00000     0.00000
 Structure written by MMmdl.
 31 32  0  0  0  0  0  0  0  0  1 V2000
  148.1915  140.3898  153.8206 C   0  0  0  0  0  0  0  0  0  0  0  0
  148.7660  139.0600  154.3302 C   0  0  1  0  0  0  0  0  0  0  0  0
  148.1106  137.9615  153.6215 N   0  0  0  0  0  0  0  0  0  0  0  0
  146.8083  137.6471  153.6897 C   0  0  0  0  0  0  0  0  0  0  0  0
  145.9926  138.2622  154.3769 O   0  0  0  0  0  0  0  0  0  0  0  0
  146.5277  136.5800  152.9216 N   0  0  0  0  0  0  0  0  0  0  0  0
  145.2735  135.9444  152.7257 C   0  0  0  0  0  0  0  0  0  0  0  0
  144.2172  136.0926  153.5338 N   0  0  0  0  0  0  0  0  0  0  0  0
  143.1152  135.3527  153.0977 C   0  0  0  0  0  0  0  0  0  0  0  0
  143.3521  134.6414  151.9479 C   0  0  0  0  0  0  0  0  0  0  0  0
  144.9778  134.8748  151.3630 S   0  0  0  0  0  0  0  0  0  0  0  0
  150.2953  138.9841  154.1427 C   0  0  2  0  0  0  0  0  0  0  0  0
  150.9526  137.7188  154.6994 C   0  0  0  0  0  0  0  0  0  0  0  0
  152.3717  138.1854  154.9250 C   0  0  0  0  0  0  0  0  0  0  0  0
  152.1506  139.6061  155.4338 C   0  0  0  0  0  0  0  0  0  0  0  0
  150.9397  140.0552  154.8301 O   0  0  0  0  0  0  0  0  0  0  0  0
  148.6228  141.2361  154.3558 H   0  0  0  0  0  0  0  0  0  0  0  0
  147.1112  140.4304  153.9630 H   0  0  0  0  0  0  0  0  0  0  0  0
  148.3939  140.5303  152.7582 H   0  0  0  0  0  0  0  0  0  0  0  0
  148.5478  138.9966  155.3978 H   0  0  0  0  0  0  0  0  0  0  0  0
  148.7016  137.3927  153.0330 H   0  0  0  0  0  0  0  0  0  0  0  0
  147.3024  136.1728  152.4193 H   0  0  0  0  0  0  0  0  0  0  0  0
  142.1987  135.3905  153.6678 H   0  0  0  0  0  0  0  0  0  0  0  0
  142.6711  133.9975  151.4114 H   0  0  0  0  0  0  0  0  0  0  0  0
  150.5474  139.0740  153.0846 H   0  0  0  0  0  0  0  0  0  0  0  0
  150.4989  137.4351  155.6502 H   0  0  0  0  0  0  0  0  0  0  0  0
  150.8853  136.8682  154.0206 H   0  0  0  0  0  0  0  0  0  0  0  0
  152.9245  137.5614  155.6276 H   0  0  0  0  0  0  0  0  0  0  0  0
  152.9150  138.2030  153.9792 H   0  0  0  0  0  0  0  0  0  0  0  0
  152.0164  139.6062  156.5162 H   0  0  0  0  0  0  0  0  0  0  0  0
  152.9843  140.2668  155.1956 H   0  0  0  0  0  0  0  0  0  0  0  0
  1  2  1  0  0  0  0
  1 17  1  0  0  0  0
  1 18  1  0  0  0  0
  1 19  1  0  0  0  0
  2  3  1  0  0  0  0
  2 12  1  0  0  0  0
  2 20  1  0  0  0  0
  3  4  1  0  0  0  0
  3 21  1  0  0  0  0
  4  5  2  0  0  0  0
  4  6  1  0  0  0  0
  6  7  1  0  0  0  0
  6 22  1  0  0  0  0
  7 11  1  0  0  0  0
  7  8  2  0  0  0  0
  8  9  1  0  0  0  0
  9 10  2  0  0  0  0
  9 23  1  0  0  0  0
 10 11  1  0  0  0  0
 10 24  1  0  0  0  0
 12 16  1  0  0  0  0
 12 13  1  0  0  0  0
 12 25  1  0  0  0  0
 13 14  1  0  0  0  0
 13 26  1  0  0  0  0
 13 27  1  0  0  0  0
 14 15  1  0  0  0  0
 14 28  1  0  0  0  0
 14 29  1  0  0  0  0
 15 16  1  0  0  0  0
 15 30  1  0  0  0  0
 15 31  1  0  0  0  0
M  END
> <s_m_source_file>
AV-unprocessed.smi

> <i_m_source_file_index>
2093

> <i_lp_mmshare_version>
43012

> <i_f3d_flags>
0

> <s_epik_input>
TzFbQ0gyXVtDSDJdW0NIMl1bQ0BIXTFbQ0BIXShbQ0gzXSlbTkhdQyg9TylbTkhdYzJuW2NIXVtjSF1zMg==

> <s_epik_cmdline>
J2VwaWtfcHl0aG9uJywgJy1waCcsICc3LjAnLCAnLXRuJywgJzgnLCAnLW1hJywgJzIwMCcsICctbWV0YWxfYmluZGluZycsICctaW1hZScsICc8aW5maWxlLm1hZT4nLCAnLW9tYWUnLCAnPG91dGZpbGUubWFlPic=

> <r_lp_tautomer_probability>
0.999

> <r_epik_Ionization_Penalty>
0.000334433

> <r_epik_Ionization_Penalty_Charging>
0

> <r_epik_Ionization_Penalty_Neutral>
0.000334433

> <r_epik_State_Penalty>
0.000177984

> <r_epik_Charging_Adjusted_Penalty>
0.000177984

> <i_epik_Tot_Q>
0

> <i_epik_Tot_abs_Q>
0

> <r_epik_Metal_State_Penalty>
0.00767616

> <b_epik_Metal_Only>
0

> <s_lp_Force_Field>
OPLS_2005

> <r_lp_Energy>
15.8348

> <b_lp_Chiralities_Consistent>
1

> <s_lp_Variant>
AV-unprocessed.smi:2093-2

> <Gold.Version>
5.8.1

> <Gold.Id.Protein>
6NUR|6NUR_protein|mol2

> <Gold.PLP.Fitness>
37.0784

> <Gold.PLP.PLP>
-25.6530

> <Gold.PLP.part.hbond>
-3.0000

> <Gold.PLP.part.metal>
0.0000

> <Gold.PLP.part.buried>
-1.9659

> <Gold.PLP.part.nonpolar>
-21.6333

> <Gold.PLP.part.repulsive>
0.2486

> <Gold.PLP.ligand.clash>
0.0000

> <Gold.PLP.ligand.torsion>
0.1136

> <Gold.PLP.Chemscore.Hbond>
2.9000

> <Gold.PLP.Chemscore.CHOScore>
0.9816

> <Gold.PLP.Chemscore.Metal>
0.0000

> <Gold.Chemscore.Hbonds>
donor molecule, donor type, donor heavy atom, donor atom, acceptor molecule, acceptor atom, score
      L1  H     3    21       P1  7948  1.00
      L1  H     6    22       P1  7948  1.00
      P1  H  7989  7998       L1    16  0.90
      L1  C    10    24       P1 10186  0.98

> <Gold.PLP.Chemscore.Internal.Correction>
0.0079

> <Gold.Rescore>
     Score         DG    S(hbond)    S(metal)    S(lipo)     H(rot)  DE(clash)    DE(int)     intcor
     14.42     -15.83       2.09        0.00      57.00       1.29       0.04       1.37       ----

> <Gold.Chemscore.Fitness>
14.4174

> <Gold.Chemscore.DG>
-15.8298

> <Gold.Chemscore.ZeroCoef>
-5.4800

> <Gold.Chemscore.Hbond>
2.0937

> <Gold.Chemscore.Metal>
0.0000

> <Gold.Chemscore.Lipo>
57.0013

> <Gold.Chemscore.Internal_Hbond>
0.0000

> <Gold.Chemscore.DEClash>
0.0389

> <Gold.Chemscore.DEInternal>
1.3735

> <Gold.Chemscore.Rot>
1.2938

> <Gold.Chemscore.Internal.Correction>
   9.000000E+99

> <Gold.Chemscore.Hbonds>
donor molecule, donor type, donor heavy atom, donor atom, acceptor molecule, acceptor atom, score
      L1  H     3    21       P1  7948  0.97
      L1  H     6    22       P1  7948  0.96
      P1  H  7989  7998       L1    16  0.05

> <Gold.Chemscore.Hbond.Weighted>
-6.9928

> <Gold.Chemscore.Metal.Weighted>
-0.0000

> <Gold.Chemscore.Lipo.Weighted>
-6.6692

> <Gold.Chemscore.Internal_Hbond.Weighted>
0.0000

> <Gold.Chemscore.DEClash.Weighted>
0.0389

> <Gold.Chemscore.DEInternal.Weighted>
1.3735

> <Gold.Chemscore.Rot.Weighted>
3.3122

> <Gold.Chemscore.Internal.Correction.Weighted>
   9.000000E+99

> <Gold.Protein.RotatedTorsions>
[ 6907 6896 6895 6894 ] final  -51.82 input  -60.11 | X-H torsion
[ 7974 7965 7964 7962 ] final   84.03 input  175.53 | X-H torsion
[ 8008 7997 7996 7995 ] final  -21.66 input   59.86 | X-H torsion
[ 10167 10162 10161 10158 ] final   66.14 input  -65.29 | X-H torsion
[ 10718 10713 10712 10709 ] final  100.59 input   66.30 | X-H torsion
[ 10763 10752 10751 10750 ] final  -55.66 input  -60.55 | X-H torsion
[ 11005 11000 10999 10996 ] final -110.62 input  -57.11 | X-H torsion

> <Gold.Protein.ActiveResidues>
 VAL166  LYS551  ARG553  GLY616  TRP617  ASP618  TYR619  PRO620  LYS621  CYS622 
 ASP623  PHE694  ASN695  SER759  ASP760  ASP761  ALA762  ILE779  LEU786  VAL792 
 PHE793  MET794  SER795  GLU796  ALA797  LYS798  CYS799  TRP800  GLU811  SER814 

> <Gold.Protein.RotatedAtoms>
  150.8575  134.7918  159.7056 H   0  0  0  0  0  0  0  0  0  0  0  0  # atno 6907 bound_to 6896
  152.4622  134.5154  159.9776 H   0  0  0  0  0  0  0  0  0  0  0  0  # atno 6908 bound_to 6896
  151.5264  133.3419  159.2946 H   0  0  0  0  0  0  0  0  0  0  0  0  # atno 6909 bound_to 6896
  145.6041  139.2357  143.2229 H   0  0  0  0  0  0  0  0  0  0  0  0  # atno 7974 bound_to 7965
  154.4691  140.2029  156.0040 H   0  0  0  0  0  0  0  0  0  0  0  0  # atno 8008 bound_to 7997
  156.0980  140.3248  155.7875 H   0  0  0  0  0  0  0  0  0  0  0  0  # atno 8009 bound_to 7997
  155.4845  140.0541  157.2953 H   0  0  0  0  0  0  0  0  0  0  0  0  # atno 8010 bound_to 7997
  140.1037  144.4881  150.7021 H   0  0  0  0  0  0  0  0  0  0  0  0  # atno 10167 bound_to 10162
  157.6850  131.0702  150.5123 H   0  0  0  0  0  0  0  0  0  0  0  0  # atno 10718 bound_to 10713
  154.1944  135.6422  153.5069 H   0  0  0  0  0  0  0  0  0  0  0  0  # atno 10763 bound_to 10752
  153.0027  135.5436  154.6382 H   0  0  0  0  0  0  0  0  0  0  0  0  # atno 10764 bound_to 10752
  154.5778  135.2922  155.0736 H   0  0  0  0  0  0  0  0  0  0  0  0  # atno 10765 bound_to 10752
  141.0781  133.9267  157.2347 H   0  0  0  0  0  0  0  0  0  0  0  0  # atno 11005 bound_to 11000
  146.1554  140.6865  142.9302 LP  0  0  0  0  0  0  0  0  0  0  0  0  # atno 17320 bound_to 7965
  144.7297  140.4635  143.6946 LP  0  0  0  0  0  0  0  0  0  0  0  0  # atno 17321 bound_to 7965
  140.6964  143.2406  151.4989 LP  0  0  0  0  0  0  0  0  0  0  0  0  # atno 17342 bound_to 10162
  139.5657  144.2048  152.1761 LP  0  0  0  0  0  0  0  0  0  0  0  0  # atno 17343 bound_to 10162
  156.5440  130.4215  149.6140 LP  0  0  0  0  0  0  0  0  0  0  0  0  # atno 17370 bound_to 10713
  156.2961  130.7151  151.2011 LP  0  0  0  0  0  0  0  0  0  0  0  0  # atno 17371 bound_to 10713
  139.9594  135.0158  156.9218 LP  0  0  0  0  0  0  0  0  0  0  0  0  # atno 17394 bound_to 11000
  140.5529  134.0610  155.7374 LP  0  0  0  0  0  0  0  0  0  0  0  0  # atno 17395 bound_to 11000

$$$$
