AV-unprocessed.smi:287|AV-procd|sdf|2184|dock3
  -GOLD-   2262021563D 1   1.00000     0.00000
 Structure written by MMmdl.
 55 58  0  0  0  0  0  0  0  0  1 V2000
  151.1424  143.3308  158.0018 C   0  0  0  0  0  0  0  0  0  0  0  0
  150.4338  142.2981  157.1936 C   0  0  0  0  0  0  0  0  0  0  0  0
  150.4249  141.9793  155.8670 C   0  0  0  0  0  0  0  0  0  0  0  0
  149.5363  140.8755  155.6994 C   0  0  0  0  0  0  0  0  0  0  0  0
  149.2182  140.1809  154.3817 C   0  0  2  0  0  0  0  0  0  0  0  0
  149.7457  138.7364  154.4085 C   0  0  0  0  0  0  0  0  0  0  0  0
  149.8520  140.7859  153.2714 O   0  0  0  0  0  0  0  0  0  0  0  0
  147.7049  140.1873  154.0694 C   0  0  0  0  0  0  0  0  0  0  0  0
  147.3442  139.2742  152.9925 N   0  0  0  0  0  0  0  0  0  0  0  0
  146.5234  138.2267  153.2149 C   0  0  0  0  0  0  0  0  0  0  0  0
  146.0594  138.1091  154.4821 N   0  0  0  0  0  0  0  0  0  0  0  0
  145.2433  137.1033  154.8093 C   0  0  0  0  0  0  0  0  0  0  0  0
  144.7759  136.1228  154.0347 N   0  0  0  0  0  0  0  0  0  0  0  0
  145.2363  136.2367  152.7553 C   0  0  0  0  0  0  0  0  0  0  0  0
  146.1075  137.2497  152.2619 C   0  0  0  0  0  0  0  0  0  0  0  0
  146.3484  137.0250  150.9102 N   0  0  0  0  0  0  0  0  0  0  0  0
  145.6656  135.9479  150.6323 C   0  0  0  0  0  0  0  0  0  0  0  0
  144.9692  135.4056  151.6899 N   0  0  0  0  0  0  0  0  0  0  0  0
  144.0959  134.1894  151.7241 C   0  0  1  0  0  0  0  0  0  0  0  0
  143.5993  133.9930  150.4333 O   0  0  0  0  0  0  0  0  0  0  0  0
  143.9791  132.7137  149.9259 C   0  0  1  0  0  0  0  0  0  0  0  0
  144.1836  132.7618  148.4011 C   0  0  0  0  0  0  0  0  0  0  0  0
  143.0495  133.3249  147.7776 O   0  0  0  0  0  0  0  0  0  0  0  0
  145.2117  132.3129  150.7494 C   0  0  1  0  0  0  0  0  0  0  0  0
  146.4041  132.8359  150.1879 O   0  0  0  0  0  0  0  0  0  0  0  0
  144.8868  132.9238  152.1050 C   0  0  1  0  0  0  0  0  0  0  0  0
  146.0341  133.1301  152.9121 O   0  0  0  0  0  0  0  0  0  0  0  0
  149.0654  140.6098  156.9632 C   0  0  0  0  0  0  0  0  0  0  0  0
  148.1162  139.6050  157.5285 C   0  0  0  0  0  0  0  0  0  0  0  0
  149.6044  141.4679  157.8738 O   0  0  0  0  0  0  0  0  0  0  0  0
  143.2985  134.4392  152.4250 H   0  0  0  0  0  0  0  0  0  0  0  0
  143.1795  132.0122  150.1712 H   0  0  0  0  0  0  0  0  0  0  0  0
  145.3176  131.2295  150.8139 H   0  0  0  0  0  0  0  0  0  0  0  0
  144.1994  132.2639  152.6361 H   0  0  0  0  0  0  0  0  0  0  0  0
  151.9763  143.7569  157.4435 H   0  0  0  0  0  0  0  0  0  0  0  0
  151.5380  142.8998  158.9218 H   0  0  0  0  0  0  0  0  0  0  0  0
  150.4658  144.1418  158.2709 H   0  0  0  0  0  0  0  0  0  0  0  0
  150.9962  142.4794  155.0989 H   0  0  0  0  0  0  0  0  0  0  0  0
  149.2816  138.1589  155.2087 H   0  0  0  0  0  0  0  0  0  0  0  0
  150.8244  138.7108  154.5693 H   0  0  0  0  0  0  0  0  0  0  0  0
  149.5388  138.2175  153.4715 H   0  0  0  0  0  0  0  0  0  0  0  0
  149.8632  140.1662  152.5581 H   0  0  0  0  0  0  0  0  0  0  0  0
  147.1232  139.9692  154.9661 H   0  0  0  0  0  0  0  0  0  0  0  0
  147.4250  141.1905  153.7448 H   0  0  0  0  0  0  0  0  0  0  0  0
  147.7079  139.5094  152.0802 H   0  0  0  0  0  0  0  0  0  0  0  0
  144.9196  137.0810  155.8395 H   0  0  0  0  0  0  0  0  0  0  0  0
  145.6547  135.5188  149.6412 H   0  0  0  0  0  0  0  0  0  0  0  0
  145.0788  133.3249  148.1361 H   0  0  0  0  0  0  0  0  0  0  0  0
  144.3037  131.7528  148.0054 H   0  0  0  0  0  0  0  0  0  0  0  0
  142.7032  132.6975  147.1619 H   0  0  0  0  0  0  0  0  0  0  0  0
  146.1689  133.5254  149.5853 H   0  0  0  0  0  0  0  0  0  0  0  0
  145.7607  133.1671  153.8163 H   0  0  0  0  0  0  0  0  0  0  0  0
  147.1321  139.7036  157.0704 H   0  0  0  0  0  0  0  0  0  0  0  0
  147.9989  139.7333  158.6049 H   0  0  0  0  0  0  0  0  0  0  0  0
  148.4749  138.5915  157.3492 H   0  0  0  0  0  0  0  0  0  0  0  0
  1  2  1  0  0  0  0
  1 35  1  0  0  0  0
  1 36  1  0  0  0  0
  1 37  1  0  0  0  0
  2 30  1  0  0  0  0
  2  3  2  0  0  0  0
  3  4  1  0  0  0  0
  3 38  1  0  0  0  0
  4  5  1  0  0  0  0
  4 28  2  0  0  0  0
  5  6  1  0  0  0  0
  5  7  1  0  0  0  0
  5  8  1  0  0  0  0
  6 39  1  0  0  0  0
  6 40  1  0  0  0  0
  6 41  1  0  0  0  0
  7 42  1  0  0  0  0
  8  9  1  0  0  0  0
  8 43  1  0  0  0  0
  8 44  1  0  0  0  0
  9 10  1  0  0  0  0
  9 45  1  0  0  0  0
 10 15  1  0  0  0  0
 10 11  2  0  0  0  0
 11 12  1  0  0  0  0
 12 13  2  0  0  0  0
 12 46  1  0  0  0  0
 13 14  1  0  0  0  0
 14 18  1  0  0  0  0
 14 15  2  0  0  0  0
 15 16  1  0  0  0  0
 16 17  2  0  0  0  0
 17 18  1  0  0  0  0
 17 47  1  0  0  0  0
 18 19  1  0  0  0  0
 19 31  1  0  0  0  0
 19 26  1  0  0  0  0
 19 20  1  0  0  0  0
 20 21  1  0  0  0  0
 21 32  1  0  0  0  0
 21 22  1  0  0  0  0
 21 24  1  0  0  0  0
 22 23  1  0  0  0  0
 22 48  1  0  0  0  0
 22 49  1  0  0  0  0
 23 50  1  0  0  0  0
 24 33  1  0  0  0  0
 24 25  1  0  0  0  0
 24 26  1  0  0  0  0
 25 51  1  0  0  0  0
 26 34  1  0  0  0  0
 26 27  1  0  0  0  0
 27 52  1  0  0  0  0
 28 29  1  0  0  0  0
 28 30  1  0  0  0  0
 29 53  1  0  0  0  0
 29 54  1  0  0  0  0
 29 55  1  0  0  0  0
M  END
> <s_m_source_file>
AV-unprocessed.smi

> <i_m_source_file_index>
287

> <i_lp_mmshare_version>
43012

> <i_f3d_flags>
0

> <s_epik_input>
W0NIM11jMVtjSF1jKGMobzEpW0NIM10pW0NAQF0oW0NIM10pKFtPSF0pW0NIMl1bTkhdYyhuW2NIXW4yKWMoYzIzKW5bY0hdbjNbQ0BASF00T1tDQEhdKFtDSDJdW09IXSlbQ0BASF0oW09IXSlbQ0BIXTRbT0hd

> <s_epik_cmdline>
J2VwaWtfcHl0aG9uJywgJy1waCcsICc3LjAnLCAnLXRuJywgJzgnLCAnLW1hJywgJzIwMCcsICctbWV0YWxfYmluZGluZycsICctaW1hZScsICc8aW5maWxlLm1hZT4nLCAnLW9tYWUnLCAnPG91dGZpbGUubWFlPic=

> <r_lp_tautomer_probability>
1

> <r_epik_Ionization_Penalty>
0.000992612

> <r_epik_Ionization_Penalty_Charging>
0

> <r_epik_Ionization_Penalty_Neutral>
0.000992612

> <r_epik_State_Penalty>
-0

> <r_epik_Charging_Adjusted_Penalty>
0

> <i_epik_Tot_Q>
0

> <i_epik_Tot_abs_Q>
0

> <r_epik_Metal_State_Penalty>
-0

> <b_epik_Metal_Only>
0

> <s_epik_Chemistry_Notes>
This compound contains an acetal/aminal-like group ( X-CH(R)-Y where X, Y are N, S, or O) that may be acid/base labile, releasing an aldehyde.

> <s_lp_Force_Field>
OPLS_2005

> <r_lp_Energy>
46.5399

> <b_lp_Chiralities_Consistent>
1

> <s_lp_Variant>
AV-unprocessed.smi:287-8

> <Gold.Version>
5.8.1

> <Gold.Id.Protein>
6NUR|6NUR_protein|mol2

> <Gold.PLP.Fitness>
55.8235

> <Gold.PLP.PLP>
-40.8042

> <Gold.PLP.part.hbond>
-6.4391

> <Gold.PLP.part.metal>
0.0000

> <Gold.PLP.part.buried>
-3.6215

> <Gold.PLP.part.nonpolar>
-34.5881

> <Gold.PLP.part.repulsive>
5.2555

> <Gold.PLP.ligand.clash>
0.0000

> <Gold.PLP.ligand.torsion>
0.9544

> <Gold.PLP.Chemscore.Hbond>
4.3747

> <Gold.PLP.Chemscore.CHOScore>
1.0000

> <Gold.PLP.Chemscore.Metal>
0.0000

> <Gold.Chemscore.Hbonds>
donor molecule, donor type, donor heavy atom, donor atom, acceptor molecule, acceptor atom, score
      L1  H     7    42       P1  7957  0.62
      L1  H     9    45       P1  7957  0.56
      L1  H    23    50       P1 10195  0.48
      L1  H    25    51       P1  7921  0.12
      P1  H  7954  7966       L1    16  0.49
      P1  H  7989  7998       L1     7  0.20
      P1  H  8011  8017       L1     7  1.00
      P1  H 10192 10197       L1    23  0.60
      L1  C    17    47       P1  7921  1.00

> <Gold.PLP.Chemscore.Internal.Correction>
0.8040

> <Gold.Rescore>
     Score         DG    S(hbond)    S(metal)    S(lipo)     H(rot)  DE(clash)    DE(int)     intcor
      9.26     -14.51       3.31        0.00      97.99       5.27       4.18       1.08       ----

> <Gold.Chemscore.Fitness>
9.2553

> <Gold.Chemscore.DG>
-14.5123

> <Gold.Chemscore.ZeroCoef>
-5.4800

> <Gold.Chemscore.Hbond>
3.3089

> <Gold.Chemscore.Metal>
0.0000

> <Gold.Chemscore.Lipo>
97.9858

> <Gold.Chemscore.Internal_Hbond>
0.0000

> <Gold.Chemscore.DEClash>
4.1817

> <Gold.Chemscore.DEInternal>
1.0753

> <Gold.Chemscore.Rot>
5.2672

> <Gold.Chemscore.Internal.Correction>
   9.000000E+99

> <Gold.Chemscore.Hbonds>
donor molecule, donor type, donor heavy atom, donor atom, acceptor molecule, acceptor atom, score
      L1  H     7    42       P1  7957  0.62
      L1  H     9    45       P1  7957  0.56
      L1  H    23    50       P1 10195  0.48
      P1  H  7954  7966       L1    16  0.45
      P1  H  7989  7998       L1     7  0.03
      P1  H  8011  8017       L1     7  0.25
      P1  H 10192 10197       L1    23  0.18

> <Gold.Chemscore.Hbond.Weighted>
-11.0519

> <Gold.Chemscore.Metal.Weighted>
-0.0000

> <Gold.Chemscore.Lipo.Weighted>
-11.4643

> <Gold.Chemscore.Internal_Hbond.Weighted>
0.0000

> <Gold.Chemscore.DEClash.Weighted>
4.1817

> <Gold.Chemscore.DEInternal.Weighted>
1.0753

> <Gold.Chemscore.Rot.Weighted>
13.4839

> <Gold.Chemscore.Internal.Correction.Weighted>
   9.000000E+99

> <Gold.Protein.RotatedTorsions>
[ 6907 6896 6895 6894 ] final  -17.36 input  -60.11 | X-H torsion
[ 7974 7965 7964 7962 ] final  101.46 input  175.53 | X-H torsion
[ 8008 7997 7996 7995 ] final -150.47 input   59.86 | X-H torsion
[ 10167 10162 10161 10158 ] final  121.48 input  -65.29 | X-H torsion
[ 10718 10713 10712 10709 ] final  121.07 input   66.30 | X-H torsion
[ 10763 10752 10751 10750 ] final  131.93 input  -60.55 | X-H torsion
[ 11005 11000 10999 10996 ] final   13.48 input  -57.11 | X-H torsion

> <Gold.Protein.ActiveResidues>
 VAL166  LYS551  ARG553  GLY616  TRP617  ASP618  TYR619  PRO620  LYS621  CYS622 
 ASP623  PHE694  ASN695  SER759  ASP760  ASP761  ALA762  ILE779  LEU786  VAL792 
 PHE793  MET794  SER795  GLU796  ALA797  LYS798  CYS799  TRP800  GLU811  SER814 

> <Gold.Protein.RotatedAtoms>
  151.2946  135.0751  159.9216 H   0  0  0  0  0  0  0  0  0  0  0  0  # atno 6907 bound_to 6896
  152.5310  133.9896  159.7855 H   0  0  0  0  0  0  0  0  0  0  0  0  # atno 6908 bound_to 6896
  151.0172  133.5858  159.2706 H   0  0  0  0  0  0  0  0  0  0  0  0  # atno 6909 bound_to 6896
  145.3721  139.2396  143.3449 H   0  0  0  0  0  0  0  0  0  0  0  0  # atno 7974 bound_to 7965
  155.6240  140.0684  157.2669 H   0  0  0  0  0  0  0  0  0  0  0  0  # atno 8008 bound_to 7997
  154.4222  140.1779  156.1451 H   0  0  0  0  0  0  0  0  0  0  0  0  # atno 8009 bound_to 7997
  155.9986  140.3338  155.6826 H   0  0  0  0  0  0  0  0  0  0  0  0  # atno 8010 bound_to 7997
  139.5917  144.7027  151.3274 H   0  0  0  0  0  0  0  0  0  0  0  0  # atno 10167 bound_to 10162
  157.5845  131.1071  150.8123 H   0  0  0  0  0  0  0  0  0  0  0  0  # atno 10718 bound_to 10713
  153.7824  135.3166  155.3367 H   0  0  0  0  0  0  0  0  0  0  0  0  # atno 10763 bound_to 10752
  154.8156  135.4638  154.0638 H   0  0  0  0  0  0  0  0  0  0  0  0  # atno 10764 bound_to 10752
  153.1931  135.6911  153.8412 H   0  0  0  0  0  0  0  0  0  0  0  0  # atno 10765 bound_to 10752
  140.4802  134.0943  155.7749 H   0  0  0  0  0  0  0  0  0  0  0  0  # atno 11005 bound_to 11000
  146.2881  140.4374  142.8750 LP  0  0  0  0  0  0  0  0  0  0  0  0  # atno 17320 bound_to 7965
  144.8569  140.7083  143.6132 LP  0  0  0  0  0  0  0  0  0  0  0  0  # atno 17321 bound_to 7965
  140.7178  143.7218  150.7690 LP  0  0  0  0  0  0  0  0  0  0  0  0  # atno 17342 bound_to 10162
  140.0775  143.5001  152.2548 LP  0  0  0  0  0  0  0  0  0  0  0  0  # atno 17343 bound_to 10162
  156.8560  130.5097  149.5307 LP  0  0  0  0  0  0  0  0  0  0  0  0  # atno 17370 bound_to 10713
  156.0893  130.5883  150.9704 LP  0  0  0  0  0  0  0  0  0  0  0  0  # atno 17371 bound_to 10713
  141.1535  133.8926  157.2038 LP  0  0  0  0  0  0  0  0  0  0  0  0  # atno 17394 bound_to 11000
  139.9831  135.0091  156.9797 LP  0  0  0  0  0  0  0  0  0  0  0  0  # atno 17395 bound_to 11000

$$$$
