AV-unprocessed.smi:1703|AV-procd|sdf|6871|dock2
  -GOLD-   22720 8 73D 1   1.00000     0.00000
 Structure written by MMmdl.
 49 51  0  0  0  0  0  0  0  0  2 V2000
  148.0347  134.0154  159.2312 C   0  0  0  0  0  0  0  0  0  0  0  0
  148.5466  134.5282  157.8812 C   0  0  1  0  0  0  0  0  0  0  0  0
  148.7772  136.0497  157.8899 C   0  0  0  0  0  0  0  0  0  0  0  0
  149.3367  136.5218  156.6299 N   0  0  0  0  0  0  0  0  0  0  0  0
  149.5024  137.9746  156.6373 C   0  0  0  0  0  0  0  0  0  0  0  0
  150.6570  138.4944  157.5200 C   0  0  2  0  0  0  0  0  0  0  0  0
  150.1187  139.2282  158.6030 O   0  0  0  0  0  0  0  0  0  0  0  0
  151.6227  139.4023  156.7328 C   0  0  0  0  0  0  0  0  0  0  0  0
  151.2267  140.8200  156.7682 N   0  0  0  0  0  0  0  0  0  0  0  0
  150.3916  141.5122  155.9408 C   0  0  0  0  0  0  0  0  0  0  0  0
  149.6575  140.9652  154.7576 C   0  0  0  0  0  0  0  0  0  0  0  0
  150.4494  140.1179  153.9517 O   0  0  0  0  0  0  0  0  0  0  0  0
  150.3540  142.7985  156.3921 N   0  3  0  0  0  0  0  0  0  0  0  0
  151.1702  142.9314  157.5150 C   0  0  0  0  0  0  0  0  0  0  0  0
  151.4484  144.0380  158.3115 C   0  0  0  0  0  0  0  0  0  0  0  0
  152.3344  143.8349  159.3893 C   0  0  0  0  0  0  0  0  0  0  0  0
  152.9072  142.5712  159.6401 C   0  0  0  0  0  0  0  0  0  0  0  0
  152.6166  141.4563  158.8261 C   0  0  0  0  0  0  0  0  0  0  0  0
  151.7370  141.6641  157.7631 C   0  0  0  0  0  0  0  0  0  0  0  0
  150.5893  135.8152  156.3717 C   0  0  0  0  0  0  0  0  0  0  0  0
  150.4233  134.2824  156.3878 C   0  0  2  0  0  0  0  0  0  0  0  0
  149.7129  133.7349  155.1380 C   0  0  0  0  0  0  0  0  0  0  0  0
  149.7760  133.8655  157.5912 O   0  0  0  0  0  0  0  0  0  0  0  0
  147.0875  134.4860  159.4963 H   0  0  0  0  0  0  0  0  0  0  0  0
  148.7476  134.2248  160.0292 H   0  0  0  0  0  0  0  0  0  0  0  0
  147.8732  132.9376  159.2024 H   0  0  0  0  0  0  0  0  0  0  0  0
  147.8103  134.2761  157.1176 H   0  0  0  0  0  0  0  0  0  0  0  0
  147.8291  136.5529  158.0839 H   0  0  0  0  0  0  0  0  0  0  0  0
  149.4441  136.3145  158.7123 H   0  0  0  0  0  0  0  0  0  0  0  0
  149.7105  138.2842  155.6121 H   0  0  0  0  0  0  0  0  0  0  0  0
  148.5644  138.4668  156.9005 H   0  0  0  0  0  0  0  0  0  0  0  0
  151.2216  137.6513  157.9199 H   0  0  0  0  0  0  0  0  0  0  0  0
  149.1761  139.1828  158.5574 H   0  0  0  0  0  0  0  0  0  0  0  0
  152.6222  139.3415  157.1647 H   0  0  0  0  0  0  0  0  0  0  0  0
  151.7231  139.0745  155.6981 H   0  0  0  0  0  0  0  0  0  0  0  0
  148.7867  140.4081  155.1033 H   0  0  0  0  0  0  0  0  0  0  0  0
  149.2937  141.7918  154.1469 H   0  0  0  0  0  0  0  0  0  0  0  0
  150.0110  139.9955  153.1231 H   0  0  0  0  0  0  0  0  0  0  0  0
  151.0122  145.0074  158.1195 H   0  0  0  0  0  0  0  0  0  0  0  0
  152.5808  144.6649  160.0358 H   0  0  0  0  0  0  0  0  0  0  0  0
  153.5846  142.4544  160.4739 H   0  0  0  0  0  0  0  0  0  0  0  0
  153.0663  140.4959  159.0279 H   0  0  0  0  0  0  0  0  0  0  0  0
  151.0054  136.1152  155.4102 H   0  0  0  0  0  0  0  0  0  0  0  0
  151.3250  136.0976  157.1264 H   0  0  0  0  0  0  0  0  0  0  0  0
  151.4188  133.8382  156.4060 H   0  0  0  0  0  0  0  0  0  0  0  0
  150.2827  133.9653  154.2375 H   0  0  0  0  0  0  0  0  0  0  0  0
  148.7179  134.1612  155.0107 H   0  0  0  0  0  0  0  0  0  0  0  0
  149.6080  132.6513  155.1940 H   0  0  0  0  0  0  0  0  0  0  0  0
  149.8065  143.5289  155.9551 H   0  0  0  0  0  0  0  0  0  0  0  0
  1  2  1  0  0  0  0
  1 24  1  0  0  0  0
  1 25  1  0  0  0  0
  1 26  1  0  0  0  0
  2 23  1  0  0  0  0
  2  3  1  0  0  0  0
  2 27  1  0  0  0  0
  3  4  1  0  0  0  0
  3 28  1  0  0  0  0
  3 29  1  0  0  0  0
  4  5  1  0  0  0  0
  4 20  1  0  0  0  0
  5  6  1  0  0  0  0
  5 30  1  0  0  0  0
  5 31  1  0  0  0  0
  6  7  1  0  0  0  0
  6  8  1  0  0  0  0
  6 32  1  0  0  0  0
  7 33  1  0  0  0  0
  8  9  1  0  0  0  0
  8 34  1  0  0  0  0
  8 35  1  0  0  0  0
  9 19  1  0  0  0  0
  9 10  1  0  0  0  0
 10 11  1  0  0  0  0
 10 13  2  0  0  0  0
 11 12  1  0  0  0  0
 11 36  1  0  0  0  0
 11 37  1  0  0  0  0
 12 38  1  0  0  0  0
 13 14  1  0  0  0  0
 13 49  1  0  0  0  0
 14 19  2  0  0  0  0
 14 15  1  0  0  0  0
 15 16  2  0  0  0  0
 15 39  1  0  0  0  0
 16 17  1  0  0  0  0
 16 40  1  0  0  0  0
 17 18  2  0  0  0  0
 17 41  1  0  0  0  0
 18 19  1  0  0  0  0
 18 42  1  0  0  0  0
 20 21  1  0  0  0  0
 20 43  1  0  0  0  0
 20 44  1  0  0  0  0
 21 22  1  0  0  0  0
 21 23  1  0  0  0  0
 21 45  1  0  0  0  0
 22 46  1  0  0  0  0
 22 47  1  0  0  0  0
 22 48  1  0  0  0  0
M  CHG  1  13   1
M  END
> <s_m_source_file>
AV-unprocessed.smi

> <i_m_source_file_index>
1703

> <i_lp_mmshare_version>
43012

> <i_f3d_flags>
0

> <s_epik_input>
W0NIM11bQ0BASF0xW0NIMl1OKFtDSDJdW0NASF0oTzEpW0NIM10pW0NIMl1bQ0BIXShbT0hdKVtDSDJdbihjKG4yKVtDSDJdW09IXSljKGMyMylbY0hdW2NIXVtjSF1bY0hdMw==

> <s_epik_cmdline>
J2VwaWtfcHl0aG9uJywgJy1waCcsICc3LjAnLCAnLXRuJywgJzgnLCAnLW1hJywgJzIwMCcsICctbWV0YWxfYmluZGluZycsICctaW1hZScsICc8aW5maWxlLm1hZT4nLCAnLW9tYWUnLCAnPG91dGZpbGUubWFlPic=

> <r_epik_Ionization_Penalty>
1.7682

> <r_epik_Ionization_Penalty_Charging>
1.55298

> <r_epik_Ionization_Penalty_Neutral>
0.215215

> <r_epik_State_Penalty>
1.83821

> <r_epik_Charging_Adjusted_Penalty>
3.39119

> <i_epik_Tot_Q>
1

> <i_epik_Tot_abs_Q>
1

> <r_epik_Metal_State_Penalty>
5.89206

> <b_epik_Metal_Only>
0

> <s_lp_Force_Field>
OPLS_2005

> <r_lp_Energy>
35.0588

> <b_lp_Chiralities_Consistent>
1

> <s_lp_Variant>
AV-unprocessed.smi:1703-19

> <Gold.Version>
5.8.1

> <Gold.Id.Protein>
6NUR|6NUR_protein|mol2

> <Gold.PLP.Fitness>
50.8089

> <Gold.PLP.PLP>
-39.3177

> <Gold.PLP.part.hbond>
-3.8170

> <Gold.PLP.part.metal>
0.0000

> <Gold.PLP.part.buried>
-4.6163

> <Gold.PLP.part.nonpolar>
-30.9031

> <Gold.PLP.part.repulsive>
0.0880

> <Gold.PLP.ligand.clash>
0.0000

> <Gold.PLP.ligand.torsion>
1.7389

> <Gold.PLP.Chemscore.Hbond>
4.9833

> <Gold.PLP.Chemscore.CHOScore>
0.0000

> <Gold.PLP.Chemscore.Metal>
0.0000

> <Gold.Chemscore.Hbonds>
donor molecule, donor type, donor heavy atom, donor atom, acceptor molecule, acceptor atom, score
      L1  H    12    38       P1  7957  1.00
      L1  H    13    49       P1  8028  2.00
      P1  H  6896  6909       L1    23  1.00
      P1  H  7989  7998       L1    12  0.75

> <Gold.PLP.Chemscore.Internal.Correction>
0.0192

> <Gold.Rescore>
     Score         DG    S(hbond)    S(metal)    S(lipo)     H(rot)  DE(clash)    DE(int)     intcor
     18.97     -20.33       3.15        0.00     101.65       2.96       0.08       1.28       ----

> <Gold.Chemscore.Fitness>
18.9699

> <Gold.Chemscore.DG>
-20.3284

> <Gold.Chemscore.ZeroCoef>
-5.4800

> <Gold.Chemscore.Hbond>
3.1501

> <Gold.Chemscore.Metal>
0.0000

> <Gold.Chemscore.Lipo>
101.6517

> <Gold.Chemscore.Internal_Hbond>
0.0000

> <Gold.Chemscore.DEClash>
0.0769

> <Gold.Chemscore.DEInternal>
1.2816

> <Gold.Chemscore.Rot>
2.9555

> <Gold.Chemscore.Internal.Correction>
   9.000000E+99

> <Gold.Chemscore.Hbonds>
donor molecule, donor type, donor heavy atom, donor atom, acceptor molecule, acceptor atom, score
      L1  H    12    38       P1  7957  0.96
      L1  H    13    49       P1  8028  0.93
      P1  H  6896  6909       L1    23  0.33
      P1  H  7989  7998       L1    12  0.10

> <Gold.Chemscore.Hbond.Weighted>
-10.5212

> <Gold.Chemscore.Metal.Weighted>
-0.0000

> <Gold.Chemscore.Lipo.Weighted>
-11.8932

> <Gold.Chemscore.Internal_Hbond.Weighted>
0.0000

> <Gold.Chemscore.DEClash.Weighted>
0.0769

> <Gold.Chemscore.DEInternal.Weighted>
1.2816

> <Gold.Chemscore.Rot.Weighted>
7.5660

> <Gold.Chemscore.Internal.Correction.Weighted>
   9.000000E+99

> <Gold.Protein.RotatedTorsions>
[ 6907 6896 6895 6894 ] final   13.13 input  -60.11 | X-H torsion
[ 7974 7965 7964 7962 ] final  104.54 input  175.53 | X-H torsion
[ 8008 7997 7996 7995 ] final   91.80 input   59.86 | X-H torsion
[ 10167 10162 10161 10158 ] final -118.03 input  -65.29 | X-H torsion
[ 10718 10713 10712 10709 ] final -160.72 input   66.30 | X-H torsion
[ 10763 10752 10751 10750 ] final  -53.31 input  -60.55 | X-H torsion
[ 11005 11000 10999 10996 ] final   94.40 input  -57.11 | X-H torsion

> <Gold.Protein.ActiveResidues>
 VAL166  LYS551  ARG553  GLY616  TRP617  ASP618  TYR619  PRO620  LYS621  CYS622 
 ASP623  PHE694  ASN695  SER759  ASP760  ASP761  ALA762  ILE779  LEU786  VAL792 
 PHE793  MET794  SER795  GLU796  ALA797  LYS798  CYS799  TRP800  GLU811  SER814 

> <Gold.Protein.RotatedAtoms>
  151.7814  135.0760  160.0374 H   0  0  0  0  0  0  0  0  0  0  0  0  # atno 6907 bound_to 6896
  152.3220  133.5860  159.5759 H   0  0  0  0  0  0  0  0  0  0  0  0  # atno 6908 bound_to 6896
  150.7375  133.9913  159.3650 H   0  0  0  0  0  0  0  0  0  0  0  0  # atno 6909 bound_to 6896
  145.3314  139.2486  143.3658 H   0  0  0  0  0  0  0  0  0  0  0  0  # atno 7974 bound_to 7965
  156.0279  140.3333  155.7108 H   0  0  0  0  0  0  0  0  0  0  0  0  # atno 8008 bound_to 7997
  155.5927  140.0648  157.2772 H   0  0  0  0  0  0  0  0  0  0  0  0  # atno 8009 bound_to 7997
  154.4341  140.1824  156.1079 H   0  0  0  0  0  0  0  0  0  0  0  0  # atno 8010 bound_to 7997
  140.0619  143.4959  152.2027 H   0  0  0  0  0  0  0  0  0  0  0  0  # atno 10167 bound_to 10162
  156.5862  130.8750  151.2878 H   0  0  0  0  0  0  0  0  0  0  0  0  # atno 10718 bound_to 10713
  154.1567  135.6481  153.4976 H   0  0  0  0  0  0  0  0  0  0  0  0  # atno 10763 bound_to 10752
  153.0122  135.5351  154.6752 H   0  0  0  0  0  0  0  0  0  0  0  0  # atno 10764 bound_to 10752
  154.6055  135.2948  155.0461 H   0  0  0  0  0  0  0  0  0  0  0  0  # atno 10765 bound_to 10752
  139.8799  134.8843  156.3859 H   0  0  0  0  0  0  0  0  0  0  0  0  # atno 11005 bound_to 11000
  146.3044  140.3893  142.8692 LP  0  0  0  0  0  0  0  0  0  0  0  0  # atno 17320 bound_to 7965
  144.8861  140.7464  143.5956 LP  0  0  0  0  0  0  0  0  0  0  0  0  # atno 17321 bound_to 7965
  139.5888  144.7542  151.3452 LP  0  0  0  0  0  0  0  0  0  0  0  0  # atno 17342 bound_to 10162
  140.7167  143.7246  150.7670 LP  0  0  0  0  0  0  0  0  0  0  0  0  # atno 17343 bound_to 10162
  157.7315  130.9701  150.1882 LP  0  0  0  0  0  0  0  0  0  0  0  0  # atno 17370 bound_to 10713
  156.2589  130.3708  149.8152 LP  0  0  0  0  0  0  0  0  0  0  0  0  # atno 17371 bound_to 10713
  140.9367  133.7542  156.0093 LP  0  0  0  0  0  0  0  0  0  0  0  0  # atno 17394 bound_to 11000
  140.8268  134.3225  157.5363 LP  0  0  0  0  0  0  0  0  0  0  0  0  # atno 17395 bound_to 11000

$$$$
