AV-unprocessed.smi:2379|AV-procd|sdf|9453|dock10
  -GOLD-   2272013 83D 1   1.00000     0.00000
 Structure written by MMmdl.
 53 55  0  0  0  0  0  0  0  0  2 V2000
  152.0462  144.4087  160.7931 C   0  0  0  0  0  0  0  0  0  0  0  0
  152.3553  143.0528  160.1942 C   0  0  0  0  0  0  0  0  0  0  0  0
  153.4274  142.2790  160.6782 C   0  0  0  0  0  0  0  0  0  0  0  0
  153.6646  141.0249  160.0825 C   0  0  0  0  0  0  0  0  0  0  0  0
  154.8011  140.1427  160.5545 C   0  0  0  0  0  0  0  0  0  0  0  0
  152.9148  140.5363  159.0712 N   0  0  0  0  0  0  0  0  0  0  0  0
  151.8793  141.2724  158.5974 C   0  0  0  0  0  0  0  0  0  0  0  0
  151.0265  140.8436  157.5455 N   0  0  0  0  0  0  0  0  0  0  0  0
  151.3636  140.1880  156.4208 C   0  0  0  0  0  0  0  0  0  0  0  0
  152.5102  139.8907  156.0852 O   0  0  0  0  0  0  0  0  0  0  0  0
  150.2808  139.8929  155.6860 N   0  0  0  0  0  0  0  0  0  0  0  0
  150.2972  139.2025  154.3960 C   0  0  2  0  0  0  0  0  0  0  0  0
  148.8619  138.9300  153.9135 C   0  0  0  0  0  0  0  0  0  0  0  0
  148.1717  137.8253  154.7360 C   0  0  0  0  0  0  0  0  0  0  0  0
  148.9735  136.5734  154.7438 N   0  3  2  0  0  0  0  0  0  0  0  0
  148.2694  135.4467  155.4108 C   0  0  0  0  0  0  0  0  0  0  0  0
  149.0315  134.1127  155.2775 C   0  0  2  0  0  0  0  0  0  0  0  0
  149.1111  133.6099  153.8491 C   0  0  0  0  0  0  0  0  0  0  0  0
  149.4741  132.1431  154.0486 C   0  0  0  0  0  0  0  0  0  0  0  0
  148.8219  131.7541  155.2517 O   0  0  0  0  0  0  0  0  0  0  0  0
  148.3881  132.9063  155.9676 C   0  0  0  0  0  0  0  0  0  0  0  0
  150.3390  136.8103  155.2811 C   0  0  0  0  0  0  0  0  0  0  0  0
  151.0799  137.8754  154.4559 C   0  0  0  0  0  0  0  0  0  0  0  0
  151.5699  142.5390  159.1424 C   0  0  0  0  0  0  0  0  0  0  0  0
  152.9070  144.8054  161.3323 H   0  0  0  0  0  0  0  0  0  0  0  0
  151.2111  144.3312  161.4894 H   0  0  0  0  0  0  0  0  0  0  0  0
  151.7790  145.1210  160.0121 H   0  0  0  0  0  0  0  0  0  0  0  0
  154.0512  142.6367  161.4845 H   0  0  0  0  0  0  0  0  0  0  0  0
  155.1333  140.4319  161.5520 H   0  0  0  0  0  0  0  0  0  0  0  0
  155.6484  140.2239  159.8735 H   0  0  0  0  0  0  0  0  0  0  0  0
  154.4889  139.0985  160.5924 H   0  0  0  0  0  0  0  0  0  0  0  0
  150.0474  141.0534  157.6699 H   0  0  0  0  0  0  0  0  0  0  0  0
  149.3797  140.1833  156.0364 H   0  0  0  0  0  0  0  0  0  0  0  0
  150.7791  139.8637  153.6734 H   0  0  0  0  0  0  0  0  0  0  0  0
  148.2710  139.8464  153.9449 H   0  0  0  0  0  0  0  0  0  0  0  0
  148.8903  138.6260  152.8662 H   0  0  0  0  0  0  0  0  0  0  0  0
  148.0070  138.1596  155.7615 H   0  0  0  0  0  0  0  0  0  0  0  0
  147.1887  137.6300  154.3056 H   0  0  0  0  0  0  0  0  0  0  0  0
  148.0571  135.6844  156.4545 H   0  0  0  0  0  0  0  0  0  0  0  0
  147.2959  135.3073  154.9384 H   0  0  0  0  0  0  0  0  0  0  0  0
  150.0506  134.2341  155.6492 H   0  0  0  0  0  0  0  0  0  0  0  0
  148.1392  133.6903  153.3596 H   0  0  0  0  0  0  0  0  0  0  0  0
  149.8429  134.1467  153.2447 H   0  0  0  0  0  0  0  0  0  0  0  0
  149.1712  131.5177  153.2086 H   0  0  0  0  0  0  0  0  0  0  0  0
  150.5506  132.0321  154.1845 H   0  0  0  0  0  0  0  0  0  0  0  0
  148.6652  132.8342  157.0195 H   0  0  0  0  0  0  0  0  0  0  0  0
  147.3002  132.9551  155.9040 H   0  0  0  0  0  0  0  0  0  0  0  0
  150.2744  137.1193  156.3256 H   0  0  0  0  0  0  0  0  0  0  0  0
  150.9196  135.8902  155.2664 H   0  0  0  0  0  0  0  0  0  0  0  0
  151.2247  137.5007  153.4418 H   0  0  0  0  0  0  0  0  0  0  0  0
  152.0803  138.0314  154.8605 H   0  0  0  0  0  0  0  0  0  0  0  0
  150.7403  143.1145  158.7578 H   0  0  0  0  0  0  0  0  0  0  0  0
  149.0790  136.3069  153.7752 H   0  0  0  0  0  0  0  0  0  0  0  0
  1  2  1  0  0  0  0
  1 25  1  0  0  0  0
  1 26  1  0  0  0  0
  1 27  1  0  0  0  0
  2 24  1  0  0  0  0
  2  3  2  0  0  0  0
  3  4  1  0  0  0  0
  3 28  1  0  0  0  0
  4  5  1  0  0  0  0
  4  6  2  0  0  0  0
  5 29  1  0  0  0  0
  5 30  1  0  0  0  0
  5 31  1  0  0  0  0
  6  7  1  0  0  0  0
  7  8  1  0  0  0  0
  7 24  2  0  0  0  0
  8  9  1  0  0  0  0
  8 32  1  0  0  0  0
  9 10  2  0  0  0  0
  9 11  1  0  0  0  0
 11 12  1  0  0  0  0
 11 33  1  0  0  0  0
 12 23  1  0  0  0  0
 12 13  1  0  0  0  0
 12 34  1  0  0  0  0
 13 14  1  0  0  0  0
 13 35  1  0  0  0  0
 13 36  1  0  0  0  0
 14 15  1  0  0  0  0
 14 37  1  0  0  0  0
 14 38  1  0  0  0  0
 15 16  1  0  0  0  0
 15 22  1  0  0  0  0
 15 53  1  0  0  0  0
 16 17  1  0  0  0  0
 16 39  1  0  0  0  0
 16 40  1  0  0  0  0
 17 21  1  0  0  0  0
 17 18  1  0  0  0  0
 17 41  1  0  0  0  0
 18 19  1  0  0  0  0
 18 42  1  0  0  0  0
 18 43  1  0  0  0  0
 19 20  1  0  0  0  0
 19 44  1  0  0  0  0
 19 45  1  0  0  0  0
 20 21  1  0  0  0  0
 21 46  1  0  0  0  0
 21 47  1  0  0  0  0
 22 23  1  0  0  0  0
 22 48  1  0  0  0  0
 22 49  1  0  0  0  0
 23 50  1  0  0  0  0
 23 51  1  0  0  0  0
 24 52  1  0  0  0  0
M  CHG  1  15   1
M  END
> <s_m_source_file>
AV-unprocessed.smi

> <i_m_source_file_index>
2379

> <i_lp_mmshare_version>
43012

> <i_f3d_flags>
0

> <s_epik_input>
W0NIM11jMVtjSF1jKFtDSDNdKW5jKFtjSF0xKVtOSF1DKD1PKVtOSF1bQ0hdMltDSDJdW0NIMl1OKFtDSDJdW0NIMl0yKVtDSDJdW0NAQEhdM1tDSDJdW0NIMl1PW0NIMl0z

> <s_epik_cmdline>
J2VwaWtfcHl0aG9uJywgJy1waCcsICc3LjAnLCAnLXRuJywgJzgnLCAnLW1hJywgJzIwMCcsICctbWV0YWxfYmluZGluZycsICctaW1hZScsICc8aW5maWxlLm1hZT4nLCAnLW9tYWUnLCAnPG91dGZpbGUubWFlPic=

> <r_epik_Ionization_Penalty>
0.00766556

> <r_epik_Ionization_Penalty_Charging>
0.00747775

> <r_epik_Ionization_Penalty_Neutral>
0.00018781

> <r_epik_State_Penalty>
0.00558817

> <r_epik_Charging_Adjusted_Penalty>
0.0130659

> <i_epik_Tot_Q>
1

> <i_epik_Tot_abs_Q>
1

> <r_epik_Metal_State_Penalty>
-0

> <b_epik_Metal_Only>
0

> <s_lp_Force_Field>
OPLS_2005

> <r_lp_Energy>
34.3762

> <b_lp_Chiralities_Consistent>
1

> <s_lp_Variant>
AV-unprocessed.smi:2379-3

> <Gold.Version>
5.8.1

> <Gold.Id.Protein>
6NUR|6NUR_protein|mol2

> <Gold.PLP.Fitness>
51.9822

> <Gold.PLP.PLP>
-43.6645

> <Gold.PLP.part.hbond>
-2.0000

> <Gold.PLP.part.metal>
0.0000

> <Gold.PLP.part.buried>
-4.1136

> <Gold.PLP.part.nonpolar>
-37.2773

> <Gold.PLP.part.repulsive>
0.1181

> <Gold.PLP.ligand.clash>
0.0000

> <Gold.PLP.ligand.torsion>
0.3627

> <Gold.PLP.Chemscore.Hbond>
3.0000

> <Gold.PLP.Chemscore.CHOScore>
0.0000

> <Gold.PLP.Chemscore.Metal>
0.0000

> <Gold.Chemscore.Hbonds>
donor molecule, donor type, donor heavy atom, donor atom, acceptor molecule, acceptor atom, score
      L1  H    15    53       P1  7948  2.00
      P1  H  7997  8009       L1    10  1.00

> <Gold.PLP.Chemscore.Internal.Correction>
0.0430

> <Gold.Rescore>
     Score         DG    S(hbond)    S(metal)    S(lipo)     H(rot)  DE(clash)    DE(int)     intcor
     19.60     -21.70       1.97        0.00     112.59       1.37       0.01       2.10       ----

> <Gold.Chemscore.Fitness>
19.6000

> <Gold.Chemscore.DG>
-21.7026

> <Gold.Chemscore.ZeroCoef>
-5.4800

> <Gold.Chemscore.Hbond>
1.9651

> <Gold.Chemscore.Metal>
0.0000

> <Gold.Chemscore.Lipo>
112.5886

> <Gold.Chemscore.Internal_Hbond>
0.0000

> <Gold.Chemscore.DEClash>
0.0075

> <Gold.Chemscore.DEInternal>
2.0952

> <Gold.Chemscore.Rot>
1.3725

> <Gold.Chemscore.Internal.Correction>
   9.000000E+99

> <Gold.Chemscore.Hbonds>
donor molecule, donor type, donor heavy atom, donor atom, acceptor molecule, acceptor atom, score
      L1  H    15    53       P1  7948  0.98
      P1  H  7997  8009       L1    10  1.00

> <Gold.Chemscore.Hbond.Weighted>
-6.5633

> <Gold.Chemscore.Metal.Weighted>
-0.0000

> <Gold.Chemscore.Lipo.Weighted>
-13.1729

> <Gold.Chemscore.Internal_Hbond.Weighted>
0.0000

> <Gold.Chemscore.DEClash.Weighted>
0.0075

> <Gold.Chemscore.DEInternal.Weighted>
2.0952

> <Gold.Chemscore.Rot.Weighted>
3.5136

> <Gold.Chemscore.Internal.Correction.Weighted>
   9.000000E+99

> <Gold.Protein.RotatedTorsions>
[ 6907 6896 6895 6894 ] final   15.74 input  -60.11 | X-H torsion
[ 7974 7965 7964 7962 ] final -139.45 input  175.53 | X-H torsion
[ 8008 7997 7996 7995 ] final -159.51 input   59.86 | X-H torsion
[ 10167 10162 10161 10158 ] final   30.40 input  -65.29 | X-H torsion
[ 10718 10713 10712 10709 ] final  -59.07 input   66.30 | X-H torsion
[ 10763 10752 10751 10750 ] final  162.78 input  -60.55 | X-H torsion
[ 11005 11000 10999 10996 ] final  -22.71 input  -57.11 | X-H torsion

> <Gold.Protein.ActiveResidues>
 VAL166  LYS551  ARG553  GLY616  TRP617  ASP618  TYR619  PRO620  LYS621  CYS622 
 ASP623  PHE694  ASN695  SER759  ASP760  ASP761  ALA762  ILE779  LEU786  VAL792 
 PHE793  MET794  SER795  GLU796  ALA797  LYS798  CYS799  TRP800  GLU811  SER814 

> <Gold.Protein.RotatedAtoms>
  151.8228  135.0646  160.0426 H   0  0  0  0  0  0  0  0  0  0  0  0  # atno 6907 bound_to 6896
  152.2938  133.5583  159.5583 H   0  0  0  0  0  0  0  0  0  0  0  0  # atno 6908 bound_to 6896
  150.7242  134.0306  159.3774 H   0  0  0  0  0  0  0  0  0  0  0  0  # atno 6909 bound_to 6896
  144.8676  140.6317  143.5288 H   0  0  0  0  0  0  0  0  0  0  0  0  # atno 7974 bound_to 7965
  155.7637  140.0842  157.2143 H   0  0  0  0  0  0  0  0  0  0  0  0  # atno 8008 bound_to 7997
  154.4001  140.1538  156.2918 H   0  0  0  0  0  0  0  0  0  0  0  0  # atno 8009 bound_to 7997
  155.8815  140.3420  155.5894 H   0  0  0  0  0  0  0  0  0  0  0  0  # atno 8010 bound_to 7997
  140.4681  144.0805  150.6230 H   0  0  0  0  0  0  0  0  0  0  0  0  # atno 10167 bound_to 10162
  156.1089  130.4177  150.0664 H   0  0  0  0  0  0  0  0  0  0  0  0  # atno 10718 bound_to 10713
  154.2837  135.2762  155.2686 H   0  0  0  0  0  0  0  0  0  0  0  0  # atno 10763 bound_to 10752
  154.5196  135.5760  153.6673 H   0  0  0  0  0  0  0  0  0  0  0  0  # atno 10764 bound_to 10752
  152.9925  135.6201  154.2997 H   0  0  0  0  0  0  0  0  0  0  0  0  # atno 10765 bound_to 10752
  140.8683  133.7739  156.0155 H   0  0  0  0  0  0  0  0  0  0  0  0  # atno 11005 bound_to 11000
  145.4192  139.1567  143.4083 LP  0  0  0  0  0  0  0  0  0  0  0  0  # atno 17320 bound_to 7965
  146.2907  140.4301  142.8740 LP  0  0  0  0  0  0  0  0  0  0  0  0  # atno 17321 bound_to 7965
  140.4011  143.2703  151.9946 LP  0  0  0  0  0  0  0  0  0  0  0  0  # atno 17342 bound_to 10162
  139.4814  144.5996  151.7629 LP  0  0  0  0  0  0  0  0  0  0  0  0  # atno 17343 bound_to 10162
  156.8633  130.9499  151.3616 LP  0  0  0  0  0  0  0  0  0  0  0  0  # atno 17370 bound_to 10713
  157.6268  130.8698  149.9203 LP  0  0  0  0  0  0  0  0  0  0  0  0  # atno 17371 bound_to 10713
  140.8603  134.2848  157.5237 LP  0  0  0  0  0  0  0  0  0  0  0  0  # atno 17394 bound_to 11000
  139.8710  134.9515  156.4086 LP  0  0  0  0  0  0  0  0  0  0  0  0  # atno 17395 bound_to 11000

$$$$
