AV-unprocessed.smi:148|AV-procd|sdf|1218|dock9
  -GOLD-   2262018403D 1   1.00000     0.00000
 Structure written by MMmdl.
 63 67  0  0  0  0  0  0  0  0  1 V2000
  147.2306  135.3008  153.7237 O   0  0  0  0  0  0  0  0  0  0  0  0
  145.8536  135.1197  153.4680 C   0  0  0  0  0  0  0  0  0  0  0  0
  145.5338  133.6408  153.1434 C   0  0  2  0  0  0  0  0  0  0  0  0
  146.2034  132.6663  154.1486 C   0  0  0  0  0  0  0  0  0  0  0  0
  146.1000  133.1228  155.5234 N   0  0  0  0  0  0  0  0  0  0  0  0
  144.9421  133.4315  156.2002 C   0  0  0  0  0  0  0  0  0  0  0  0
  145.1079  133.8314  157.4314 N   0  0  0  0  0  0  0  0  0  0  0  0
  146.4849  133.7945  157.6169 C   0  0  0  0  0  0  0  0  0  0  0  0
  147.3533  134.1084  158.7006 C   0  0  0  0  0  0  0  0  0  0  0  0
  146.9497  134.5692  159.9063 N   0  0  0  0  0  0  0  0  0  0  0  0
  147.6101  135.8411  160.1988 C   0  0  0  0  0  0  0  0  0  0  0  0
  146.9977  136.5198  161.4301 C   0  0  0  0  0  0  0  0  0  0  0  0
  147.0339  135.5704  162.6313 C   0  0  0  0  0  0  0  0  0  0  0  0
  146.3204  134.2570  162.2830 C   0  0  0  0  0  0  0  0  0  0  0  0
  146.9175  133.5948  161.0132 C   0  0  1  0  0  0  0  0  0  0  0  0
  146.2144  132.2556  160.6243 C   0  0  2  0  0  0  0  0  0  0  0  0
  144.7371  132.3601  160.1979 C   0  0  0  0  0  0  0  0  0  0  0  0
  144.0795  131.0237  160.5802 C   0  0  0  0  0  0  0  0  0  0  0  0
  145.1911  130.1506  161.1707 C   0  0  0  0  0  0  0  0  0  0  0  0
  146.2230  131.1504  161.6906 C   0  0  1  0  0  0  0  0  0  0  0  0
  147.4957  130.5535  161.8304 O   0  0  0  0  0  0  0  0  0  0  0  0
  148.6852  133.9299  158.5218 N   0  0  0  0  0  0  0  0  0  0  0  0
  149.1482  133.4915  157.3473 C   0  0  0  0  0  0  0  0  0  0  0  0
  148.4646  133.1752  156.2452 N   0  0  0  0  0  0  0  0  0  0  0  0
  147.1231  133.3401  156.4292 C   0  0  0  0  0  0  0  0  0  0  0  0
  145.8309  133.2919  151.6573 C   0  0  1  0  0  0  0  0  0  0  0  0
  145.5174  131.8512  151.2445 C   0  0  0  0  0  0  0  0  0  0  0  0
  144.7919  132.0020  149.9109 C   0  0  0  0  0  0  0  0  0  0  0  0
  144.1279  133.2464  150.0464 O   0  0  0  0  0  0  0  0  0  0  0  0
  145.0590  134.1415  150.6340 C   0  0  0  0  0  0  0  0  0  0  0  0
  147.7212  134.9088  153.0173 H   0  0  0  0  0  0  0  0  0  0  0  0
  145.2770  135.4663  154.3257 H   0  0  0  0  0  0  0  0  0  0  0  0
  145.5985  135.7712  152.6327 H   0  0  0  0  0  0  0  0  0  0  0  0
  144.4568  133.5208  153.2739 H   0  0  0  0  0  0  0  0  0  0  0  0
  145.7484  131.6775  154.1000 H   0  0  0  0  0  0  0  0  0  0  0  0
  147.2582  132.5256  153.9162 H   0  0  0  0  0  0  0  0  0  0  0  0
  143.9649  133.3565  155.7457 H   0  0  0  0  0  0  0  0  0  0  0  0
  148.6738  135.6647  160.3660 H   0  0  0  0  0  0  0  0  0  0  0  0
  147.5308  136.5098  159.3399 H   0  0  0  0  0  0  0  0  0  0  0  0
  147.5396  137.4376  161.6595 H   0  0  0  0  0  0  0  0  0  0  0  0
  145.9674  136.8085  161.2180 H   0  0  0  0  0  0  0  0  0  0  0  0
  148.0682  135.3667  162.9111 H   0  0  0  0  0  0  0  0  0  0  0  0
  146.5614  136.0383  163.4953 H   0  0  0  0  0  0  0  0  0  0  0  0
  146.3980  133.5920  163.1413 H   0  0  0  0  0  0  0  0  0  0  0  0
  145.2596  134.4635  162.1459 H   0  0  0  0  0  0  0  0  0  0  0  0
  147.9534  133.3541  161.2520 H   0  0  0  0  0  0  0  0  0  0  0  0
  146.7425  131.8271  159.7712 H   0  0  0  0  0  0  0  0  0  0  0  0
  144.2208  133.1756  160.7024 H   0  0  0  0  0  0  0  0  0  0  0  0
  144.6559  132.5495  159.1273 H   0  0  0  0  0  0  0  0  0  0  0  0
  143.3071  131.1984  161.3301 H   0  0  0  0  0  0  0  0  0  0  0  0
  143.6020  130.5417  159.7265 H   0  0  0  0  0  0  0  0  0  0  0  0
  144.8286  129.4774  161.9482 H   0  0  0  0  0  0  0  0  0  0  0  0
  145.6276  129.5386  160.3793 H   0  0  0  0  0  0  0  0  0  0  0  0
  145.8879  131.5219  162.6578 H   0  0  0  0  0  0  0  0  0  0  0  0
  147.3771  129.6454  162.0637 H   0  0  0  0  0  0  0  0  0  0  0  0
  150.2204  133.3803  157.2806 H   0  0  0  0  0  0  0  0  0  0  0  0
  146.8903  133.4753  151.4732 H   0  0  0  0  0  0  0  0  0  0  0  0
  146.4151  131.2386  151.1554 H   0  0  0  0  0  0  0  0  0  0  0  0
  144.8610  131.3582  151.9592 H   0  0  0  0  0  0  0  0  0  0  0  0
  145.5011  132.0529  149.0830 H   0  0  0  0  0  0  0  0  0  0  0  0
  144.0920  131.1889  149.7166 H   0  0  0  0  0  0  0  0  0  0  0  0
  144.5637  135.0114  151.0652 H   0  0  0  0  0  0  0  0  0  0  0  0
  145.7337  134.5046  149.8571 H   0  0  0  0  0  0  0  0  0  0  0  0
  1  2  1  0  0  0  0
  1 31  1  0  0  0  0
  2  3  1  0  0  0  0
  2 32  1  0  0  0  0
  2 33  1  0  0  0  0
  3  4  1  0  0  0  0
  3 26  1  0  0  0  0
  3 34  1  0  0  0  0
  4  5  1  0  0  0  0
  4 35  1  0  0  0  0
  4 36  1  0  0  0  0
  5 25  1  0  0  0  0
  5  6  1  0  0  0  0
  6  7  2  0  0  0  0
  6 37  1  0  0  0  0
  7  8  1  0  0  0  0
  8 25  2  0  0  0  0
  8  9  1  0  0  0  0
  9 10  1  0  0  0  0
  9 22  2  0  0  0  0
 10 15  1  0  0  0  0
 10 11  1  0  0  0  0
 11 12  1  0  0  0  0
 11 38  1  0  0  0  0
 11 39  1  0  0  0  0
 12 13  1  0  0  0  0
 12 40  1  0  0  0  0
 12 41  1  0  0  0  0
 13 14  1  0  0  0  0
 13 42  1  0  0  0  0
 13 43  1  0  0  0  0
 14 15  1  0  0  0  0
 14 44  1  0  0  0  0
 14 45  1  0  0  0  0
 15 16  1  0  0  0  0
 15 46  1  0  0  0  0
 16 20  1  0  0  0  0
 16 17  1  0  0  0  0
 16 47  1  0  0  0  0
 17 18  1  0  0  0  0
 17 48  1  0  0  0  0
 17 49  1  0  0  0  0
 18 19  1  0  0  0  0
 18 50  1  0  0  0  0
 18 51  1  0  0  0  0
 19 20  1  0  0  0  0
 19 52  1  0  0  0  0
 19 53  1  0  0  0  0
 20 21  1  0  0  0  0
 20 54  1  0  0  0  0
 21 55  1  0  0  0  0
 22 23  1  0  0  0  0
 23 24  2  0  0  0  0
 23 56  1  0  0  0  0
 24 25  1  0  0  0  0
 26 30  1  0  0  0  0
 26 27  1  0  0  0  0
 26 57  1  0  0  0  0
 27 28  1  0  0  0  0
 27 58  1  0  0  0  0
 27 59  1  0  0  0  0
 28 29  1  0  0  0  0
 28 60  1  0  0  0  0
 28 61  1  0  0  0  0
 29 30  1  0  0  0  0
 30 62  1  0  0  0  0
 30 63  1  0  0  0  0
M  END
> <s_m_source_file>
AV-unprocessed.smi

> <i_m_source_file_index>
148

> <i_lp_mmshare_version>
43012

> <i_f3d_flags>
0

> <s_epik_input>
W0NIMl0xT1tDSDJdW0NIMl1bQ0BIXTFbQ0BIXShbQ0gyXVtPSF0pW0NIMl1uKFtjSF1uMiljKGMyMyluW2NIXW5jM040W0NIMl1bQ0gyXVtDSDJdW0NIMl1bQ0BIXTRbQ0BASF01W0NIMl1bQ0gyXVtDSDJdW0NASF01W09IXQ==

> <s_epik_cmdline>
J2VwaWtfcHl0aG9uJywgJy1waCcsICc3LjAnLCAnLXRuJywgJzgnLCAnLW1hJywgJzIwMCcsICctbWV0YWxfYmluZGluZycsICctaW1hZScsICc8aW5maWxlLm1hZT4nLCAnLW9tYWUnLCAnPG91dGZpbGUubWFlPic=

> <r_lp_tautomer_probability>
1

> <r_epik_Ionization_Penalty>
0.00556303

> <r_epik_Ionization_Penalty_Charging>
0

> <r_epik_Ionization_Penalty_Neutral>
0.00556303

> <r_epik_State_Penalty>
0.00401767

> <r_epik_Charging_Adjusted_Penalty>
0.00401767

> <i_epik_Tot_Q>
0

> <i_epik_Tot_abs_Q>
0

> <r_epik_Metal_State_Penalty>
-0

> <b_epik_Metal_Only>
0

> <s_lp_Force_Field>
OPLS_2005

> <r_lp_Energy>
68.3578

> <b_lp_Chiralities_Consistent>
1

> <s_lp_Variant>
AV-unprocessed.smi:148-17

> <Gold.Version>
5.8.1

> <Gold.Id.Protein>
6NUR|6NUR_protein|mol2

> <Gold.PLP.Fitness>
45.2989

> <Gold.PLP.PLP>
-36.9897

> <Gold.PLP.part.hbond>
-2.0000

> <Gold.PLP.part.metal>
0.0000

> <Gold.PLP.part.buried>
-6.2425

> <Gold.PLP.part.nonpolar>
-29.5518

> <Gold.PLP.part.repulsive>
0.2223

> <Gold.PLP.ligand.clash>
0.0000

> <Gold.PLP.ligand.torsion>
0.5511

> <Gold.PLP.Chemscore.Hbond>
1.9920

> <Gold.PLP.Chemscore.CHOScore>
0.9982

> <Gold.PLP.Chemscore.Metal>
0.0000

> <Gold.Chemscore.Hbonds>
donor molecule, donor type, donor heavy atom, donor atom, acceptor molecule, acceptor atom, score
      L1  H     1    31       P1  7948  0.27
      P1  H  6896  6909       L1    22  0.50
      L1  C     6    37       P1 10957  1.00

> <Gold.PLP.Chemscore.Internal.Correction>
0.4408

> <Gold.Rescore>
     Score         DG    S(hbond)    S(metal)    S(lipo)     H(rot)  DE(clash)    DE(int)     intcor
     12.30     -13.11       1.62        0.00      91.53       3.32       0.02       0.79       ----

> <Gold.Chemscore.Fitness>
12.3000

> <Gold.Chemscore.DG>
-13.1144

> <Gold.Chemscore.ZeroCoef>
-5.4800

> <Gold.Chemscore.Hbond>
1.6244

> <Gold.Chemscore.Metal>
0.0000

> <Gold.Chemscore.Lipo>
91.5308

> <Gold.Chemscore.Internal_Hbond>
0.0000

> <Gold.Chemscore.DEClash>
0.0245

> <Gold.Chemscore.DEInternal>
0.7900

> <Gold.Chemscore.Rot>
3.3203

> <Gold.Chemscore.Internal.Correction>
   9.000000E+99

> <Gold.Chemscore.Hbonds>
donor molecule, donor type, donor heavy atom, donor atom, acceptor molecule, acceptor atom, score
      L1  H     1    31       P1  7948  0.27
      P1  H  6896  6909       L1    22  0.05

> <Gold.Chemscore.Hbond.Weighted>
-5.4253

> <Gold.Chemscore.Metal.Weighted>
-0.0000

> <Gold.Chemscore.Lipo.Weighted>
-10.7091

> <Gold.Chemscore.Internal_Hbond.Weighted>
0.0000

> <Gold.Chemscore.DEClash.Weighted>
0.0245

> <Gold.Chemscore.DEInternal.Weighted>
0.7900

> <Gold.Chemscore.Rot.Weighted>
8.5000

> <Gold.Chemscore.Internal.Correction.Weighted>
   9.000000E+99

> <Gold.Protein.RotatedTorsions>
[ 6907 6896 6895 6894 ] final   24.19 input  -60.11 | X-H torsion
[ 7974 7965 7964 7962 ] final  -11.49 input  175.53 | X-H torsion
[ 8008 7997 7996 7995 ] final   68.13 input   59.86 | X-H torsion
[ 10167 10162 10161 10158 ] final    7.20 input  -65.29 | X-H torsion
[ 10718 10713 10712 10709 ] final -118.68 input   66.30 | X-H torsion
[ 10763 10752 10751 10750 ] final  -83.02 input  -60.55 | X-H torsion
[ 11005 11000 10999 10996 ] final  159.55 input  -57.11 | X-H torsion

> <Gold.Protein.ActiveResidues>
 VAL166  LYS551  ARG553  GLY616  TRP617  ASP618  TYR619  PRO620  LYS621  CYS622 
 ASP623  PHE694  ASN695  SER759  ASP760  ASP761  ALA762  ILE779  LEU786  VAL792 
 PHE793  MET794  SER795  GLU796  ALA797  LYS798  CYS799  TRP800  GLU811  SER814 

> <Gold.Protein.RotatedAtoms>
  151.9537  135.0157  160.0543 H   0  0  0  0  0  0  0  0  0  0  0  0  # atno 6907 bound_to 6896
  152.1930  133.4782  159.5026 H   0  0  0  0  0  0  0  0  0  0  0  0  # atno 6908 bound_to 6896
  150.6939  134.1605  159.4217 H   0  0  0  0  0  0  0  0  0  0  0  0  # atno 6909 bound_to 6896
  146.2185  140.2919  142.8369 H   0  0  0  0  0  0  0  0  0  0  0  0  # atno 7974 bound_to 7965
  155.7035  140.3495  155.4943 H   0  0  0  0  0  0  0  0  0  0  0  0  # atno 8008 bound_to 7997
  155.9419  140.1103  157.1070 H   0  0  0  0  0  0  0  0  0  0  0  0  # atno 8009 bound_to 7997
  154.4104  140.1211  156.4925 H   0  0  0  0  0  0  0  0  0  0  0  0  # atno 8010 bound_to 7997
  140.6385  143.7830  150.7394 H   0  0  0  0  0  0  0  0  0  0  0  0  # atno 10167 bound_to 10162
  156.1124  130.6259  150.9321 H   0  0  0  0  0  0  0  0  0  0  0  0  # atno 10718 bound_to 10713
  154.5827  135.5571  153.7201 H   0  0  0  0  0  0  0  0  0  0  0  0  # atno 10763 bound_to 10752
  153.0087  135.6324  154.1960 H   0  0  0  0  0  0  0  0  0  0  0  0  # atno 10764 bound_to 10752
  154.1900  135.2883  155.3005 H   0  0  0  0  0  0  0  0  0  0  0  0  # atno 10765 bound_to 10752
  140.1973  134.8363  157.2979 H   0  0  0  0  0  0  0  0  0  0  0  0  # atno 11005 bound_to 11000
  144.9120  140.7769  143.5801 LP  0  0  0  0  0  0  0  0  0  0  0  0  # atno 17320 bound_to 7965
  145.2850  139.1904  143.4770 LP  0  0  0  0  0  0  0  0  0  0  0  0  # atno 17321 bound_to 7965
  140.1456  143.4402  152.2165 LP  0  0  0  0  0  0  0  0  0  0  0  0  # atno 17342 bound_to 10162
  139.5595  144.7396  151.4197 LP  0  0  0  0  0  0  0  0  0  0  0  0  # atno 17343 bound_to 10162
  157.6306  131.0921  150.8448 LP  0  0  0  0  0  0  0  0  0  0  0  0  # atno 17370 bound_to 10713
  156.8557  130.5096  149.5308 LP  0  0  0  0  0  0  0  0  0  0  0  0  # atno 17371 bound_to 10713
  140.2093  134.4158  155.7621 LP  0  0  0  0  0  0  0  0  0  0  0  0  # atno 17394 bound_to 11000
  141.2227  133.7110  156.8312 LP  0  0  0  0  0  0  0  0  0  0  0  0  # atno 17395 bound_to 11000

$$$$
