AV-unprocessed.smi:1131|AV-procd|sdf|4850|dock10
  -GOLD-   22720 3423D 1   1.00000     0.00000
 Structure written by MMmdl.
 33 34  0  0  0  0  0  0  0  0  1 V2000
  151.2138  139.0702  158.5665 O   0  0  0  0  0  0  0  0  0  0  0  0
  151.9711  139.7250  157.8485 C   0  0  0  0  0  0  0  0  0  0  0  0
  152.1358  139.3850  156.3601 C   0  0  0  0  0  0  0  0  0  0  0  0
  150.8584  139.1117  155.6854 N   0  0  0  0  0  0  0  0  0  0  0  0
  149.8182  140.0275  155.7580 C   0  0  0  0  0  0  0  0  0  0  0  0
  148.6125  139.8347  155.1722 C   0  0  0  0  0  0  0  0  0  0  0  0
  148.3453  138.6161  154.4159 C   0  0  0  0  0  0  0  0  0  0  0  0
  147.2875  138.3506  153.8492 O   0  0  0  0  0  0  0  0  0  0  0  0
  149.4151  137.7182  154.3684 N   0  0  0  0  0  0  0  0  0  0  0  0
  150.6595  137.9102  154.9704 C   0  0  0  0  0  0  0  0  0  0  0  0
  151.5342  137.0507  154.8698 O   0  0  0  0  0  0  0  0  0  0  0  0
  152.6775  140.7747  158.2942 N   0  0  0  0  0  0  0  0  0  0  0  0
  152.6616  141.2759  159.6644 C   0  0  0  0  0  0  0  0  0  0  0  0
  151.8746  142.5943  159.7908 C   0  0  2  0  0  0  0  0  0  0  0  0
  152.2325  143.6504  158.7637 C   0  0  0  0  0  0  0  0  0  0  0  0
  151.6968  144.9188  159.4199 C   0  0  0  0  0  0  0  0  0  0  0  0
  151.8220  144.7127  160.8241 O   0  0  0  0  0  0  0  0  0  0  0  0
  152.1348  143.3490  161.0940 C   0  0  0  0  0  0  0  0  0  0  0  0
  149.2753  136.8582  153.8583 H   0  0  0  0  0  0  0  0  0  0  0  0
  152.6475  140.2187  155.8764 H   0  0  0  0  0  0  0  0  0  0  0  0
  152.8088  138.5321  156.2502 H   0  0  0  0  0  0  0  0  0  0  0  0
  149.9696  140.9430  156.3120 H   0  0  0  0  0  0  0  0  0  0  0  0
  147.8410  140.5855  155.2652 H   0  0  0  0  0  0  0  0  0  0  0  0
  153.2717  141.2600  157.6379 H   0  0  0  0  0  0  0  0  0  0  0  0
  152.2428  140.5199  160.3311 H   0  0  0  0  0  0  0  0  0  0  0  0
  153.6948  141.4242  159.9798 H   0  0  0  0  0  0  0  0  0  0  0  0
  150.8044  142.3917  159.7216 H   0  0  0  0  0  0  0  0  0  0  0  0
  153.3150  143.7177  158.6472 H   0  0  0  0  0  0  0  0  0  0  0  0
  151.7932  143.4644  157.7833 H   0  0  0  0  0  0  0  0  0  0  0  0
  152.2317  145.8126  159.0982 H   0  0  0  0  0  0  0  0  0  0  0  0
  150.6408  145.0524  159.1824 H   0  0  0  0  0  0  0  0  0  0  0  0
  151.5438  142.9627  161.9245 H   0  0  0  0  0  0  0  0  0  0  0  0
  153.1875  143.2891  161.3733 H   0  0  0  0  0  0  0  0  0  0  0  0
  1  2  2  0  0  0  0
  2  3  1  0  0  0  0
  2 12  1  0  0  0  0
  3  4  1  0  0  0  0
  3 20  1  0  0  0  0
  3 21  1  0  0  0  0
  4 10  1  0  0  0  0
  4  5  1  0  0  0  0
  5  6  2  0  0  0  0
  5 22  1  0  0  0  0
  6  7  1  0  0  0  0
  6 23  1  0  0  0  0
  7  8  2  0  0  0  0
  7  9  1  0  0  0  0
  9 19  1  0  0  0  0
  9 10  1  0  0  0  0
 10 11  2  0  0  0  0
 12 13  1  0  0  0  0
 12 24  1  0  0  0  0
 13 14  1  0  0  0  0
 13 25  1  0  0  0  0
 13 26  1  0  0  0  0
 14 18  1  0  0  0  0
 14 15  1  0  0  0  0
 14 27  1  0  0  0  0
 15 16  1  0  0  0  0
 15 28  1  0  0  0  0
 15 29  1  0  0  0  0
 16 17  1  0  0  0  0
 16 30  1  0  0  0  0
 16 31  1  0  0  0  0
 17 18  1  0  0  0  0
 18 32  1  0  0  0  0
 18 33  1  0  0  0  0
M  END
> <s_m_source_file>
AV-unprocessed.smi

> <i_m_source_file_index>
1131

> <i_lp_mmshare_version>
43012

> <i_f3d_flags>
0

> <s_epik_input>
W0NIMl0xT1tDSDJdW0NIMl1bQ0BIXTFbQ0gyXVtOSF1DKD1PKVtDSDJdbjJbY0hdW2NIXWMoPU8pW25IXWMyPU8=

> <s_epik_cmdline>
J2VwaWtfcHl0aG9uJywgJy1waCcsICc3LjAnLCAnLXRuJywgJzgnLCAnLW1hJywgJzIwMCcsICctbWV0YWxfYmluZGluZycsICctaW1hZScsICc8aW5maWxlLm1hZT4nLCAnLW9tYWUnLCAnPG91dGZpbGUubWFlPic=

> <r_lp_tautomer_probability>
0.999537

> <r_epik_Ionization_Penalty>
0.00329016

> <r_epik_Ionization_Penalty_Charging>
0.00329014

> <r_epik_Ionization_Penalty_Neutral>
1.87063e-08

> <r_epik_State_Penalty>
0.00232461

> <r_epik_Charging_Adjusted_Penalty>
0.00561475

> <i_epik_Tot_Q>
0

> <i_epik_Tot_abs_Q>
0

> <r_epik_Metal_State_Penalty>
0.365289

> <b_epik_Metal_Only>
0

> <s_lp_Force_Field>
OPLS_2005

> <r_lp_Energy>
17.5195

> <b_lp_Chiralities_Consistent>
1

> <s_lp_Variant>
AV-unprocessed.smi:1131-1

> <Gold.Version>
5.8.1

> <Gold.Id.Protein>
6NUR|6NUR_protein|mol2

> <Gold.PLP.Fitness>
40.3882

> <Gold.PLP.PLP>
-35.2722

> <Gold.PLP.part.hbond>
-2.0000

> <Gold.PLP.part.metal>
0.0000

> <Gold.PLP.part.buried>
-2.1444

> <Gold.PLP.part.nonpolar>
-32.1425

> <Gold.PLP.part.repulsive>
1.8810

> <Gold.PLP.ligand.clash>
0.0000

> <Gold.PLP.ligand.torsion>
0.4093

> <Gold.PLP.Chemscore.Hbond>
1.9750

> <Gold.PLP.Chemscore.CHOScore>
0.0000

> <Gold.PLP.Chemscore.Metal>
0.0000

> <Gold.Chemscore.Hbonds>
donor molecule, donor type, donor heavy atom, donor atom, acceptor molecule, acceptor atom, score
      L1  H     9    19       P1  7948  0.64
      P1  H 10752 10764       L1    11  0.94

> <Gold.PLP.Chemscore.Internal.Correction>
0.0096

> <Gold.Rescore>
     Score         DG    S(hbond)    S(metal)    S(lipo)     H(rot)  DE(clash)    DE(int)     intcor
     13.68     -14.77       1.80        0.00      73.75       2.09       0.67       0.41       ----

> <Gold.Chemscore.Fitness>
13.6788

> <Gold.Chemscore.DG>
-14.7657

> <Gold.Chemscore.ZeroCoef>
-5.4800

> <Gold.Chemscore.Hbond>
1.8002

> <Gold.Chemscore.Metal>
0.0000

> <Gold.Chemscore.Lipo>
73.7469

> <Gold.Chemscore.Internal_Hbond>
0.0000

> <Gold.Chemscore.DEClash>
0.6724

> <Gold.Chemscore.DEInternal>
0.4145

> <Gold.Chemscore.Rot>
2.0919

> <Gold.Chemscore.Internal.Correction>
   9.000000E+99

> <Gold.Chemscore.Hbonds>
donor molecule, donor type, donor heavy atom, donor atom, acceptor molecule, acceptor atom, score
      L1  H     9    19       P1  7948  0.61
      P1  H 10752 10764       L1    11  0.88

> <Gold.Chemscore.Hbond.Weighted>
-6.0126

> <Gold.Chemscore.Metal.Weighted>
-0.0000

> <Gold.Chemscore.Lipo.Weighted>
-8.6284

> <Gold.Chemscore.Internal_Hbond.Weighted>
0.0000

> <Gold.Chemscore.DEClash.Weighted>
0.6724

> <Gold.Chemscore.DEInternal.Weighted>
0.4145

> <Gold.Chemscore.Rot.Weighted>
5.3552

> <Gold.Chemscore.Internal.Correction.Weighted>
   9.000000E+99

> <Gold.Protein.RotatedTorsions>
[ 6907 6896 6895 6894 ] final   20.78 input  -60.11 | X-H torsion
[ 7974 7965 7964 7962 ] final  108.94 input  175.53 | X-H torsion
[ 8008 7997 7996 7995 ] final   15.15 input   59.86 | X-H torsion
[ 10167 10162 10161 10158 ] final  -98.62 input  -65.29 | X-H torsion
[ 10718 10713 10712 10709 ] final  -47.04 input   66.30 | X-H torsion
[ 10763 10752 10751 10750 ] final  -76.89 input  -60.55 | X-H torsion
[ 11005 11000 10999 10996 ] final  -89.27 input  -57.11 | X-H torsion

> <Gold.Protein.ActiveResidues>
 VAL166  LYS551  ARG553  GLY616  TRP617  ASP618  TYR619  PRO620  LYS621  CYS622 
 ASP623  PHE694  ASN695  SER759  ASP760  ASP761  ALA762  ILE779  LEU786  VAL792 
 PHE793  MET794  SER795  GLU796  ALA797  LYS798  CYS799  TRP800  GLU811  SER814 

> <Gold.Protein.RotatedAtoms>
  151.9017  135.0375  160.0506 H   0  0  0  0  0  0  0  0  0  0  0  0  # atno 6907 bound_to 6896
  152.2352  133.5086  159.5247 H   0  0  0  0  0  0  0  0  0  0  0  0  # atno 6908 bound_to 6896
  150.7037  134.1079  159.4032 H   0  0  0  0  0  0  0  0  0  0  0  0  # atno 6909 bound_to 6896
  145.2742  139.2655  143.3950 H   0  0  0  0  0  0  0  0  0  0  0  0  # atno 7974 bound_to 7965
  154.8586  140.2941  155.5553 H   0  0  0  0  0  0  0  0  0  0  0  0  # atno 8008 bound_to 7997
  156.3019  140.2482  156.3489 H   0  0  0  0  0  0  0  0  0  0  0  0  # atno 8009 bound_to 7997
  154.8943  140.0393  157.1846 H   0  0  0  0  0  0  0  0  0  0  0  0  # atno 8010 bound_to 7997
  140.2710  143.3344  152.0534 H   0  0  0  0  0  0  0  0  0  0  0  0  # atno 10167 bound_to 10162
  156.2124  130.4161  149.9098 H   0  0  0  0  0  0  0  0  0  0  0  0  # atno 10718 bound_to 10713
  154.5058  135.5782  153.6566 H   0  0  0  0  0  0  0  0  0  0  0  0  # atno 10763 bound_to 10752
  152.9887  135.6146  154.2944 H   0  0  0  0  0  0  0  0  0  0  0  0  # atno 10764 bound_to 10752
  154.2855  135.2850  155.2658 H   0  0  0  0  0  0  0  0  0  0  0  0  # atno 10765 bound_to 10752
  141.1587  133.7620  156.9570 H   0  0  0  0  0  0  0  0  0  0  0  0  # atno 11005 bound_to 11000
  146.3237  140.3193  142.8632 LP  0  0  0  0  0  0  0  0  0  0  0  0  # atno 17320 bound_to 7965
  144.9309  140.7973  143.5690 LP  0  0  0  0  0  0  0  0  0  0  0  0  # atno 17321 bound_to 7965
  139.4989  144.6656  151.6364 LP  0  0  0  0  0  0  0  0  0  0  0  0  # atno 17342 bound_to 10162
  140.5889  143.9814  150.6312 LP  0  0  0  0  0  0  0  0  0  0  0  0  # atno 17343 bound_to 10162
  156.6772  130.8844  151.3571 LP  0  0  0  0  0  0  0  0  0  0  0  0  # atno 17370 bound_to 10713
  157.7045  130.9370  150.0888 LP  0  0  0  0  0  0  0  0  0  0  0  0  # atno 17371 bound_to 10713
  140.1218  134.9412  157.2214 LP  0  0  0  0  0  0  0  0  0  0  0  0  # atno 17394 bound_to 11000
  140.3062  134.3075  155.7277 LP  0  0  0  0  0  0  0  0  0  0  0  0  # atno 17395 bound_to 11000

$$$$
