AV-unprocessed.smi:282|AV-procd|sdf|2123|dock6
  -GOLD-   2262021423D 1   1.00000     0.00000
 Structure written by MMmdl.
 65 69  0  0  0  0  0  0  0  0  2 V2000
  143.7281  132.6617  149.1657 C   0  0  0  0  0  0  0  0  0  0  0  0
  144.0908  132.9979  150.6216 C   0  0  0  0  0  0  0  0  0  0  0  0
  145.4484  132.4293  151.1125 C   0  0  2  0  0  0  0  0  0  0  0  0
  145.4098  130.8876  151.1958 C   0  0  0  0  0  0  0  0  0  0  0  0
  146.6929  130.3257  151.6824 N   0  3  2  0  0  0  0  0  0  0  0  0
  146.6756  128.8401  151.6947 C   0  0  0  0  0  0  0  0  0  0  0  0
  148.0381  128.2672  152.1139 C   0  0  0  0  0  0  0  0  0  0  0  0
  148.4560  128.8133  153.4835 C   0  0  0  0  0  0  0  0  0  0  0  0
  148.4556  130.3466  153.4529 C   0  0  0  0  0  0  0  0  0  0  0  0
  147.0924  130.9048  152.9961 C   0  0  1  0  0  0  0  0  0  0  0  0
  147.1394  132.4411  152.9150 C   0  0  0  0  0  0  0  0  0  0  0  0
  145.8981  133.0016  152.3891 N   0  0  0  0  0  0  0  0  0  0  0  0
  145.9282  134.3519  152.4845 C   0  0  0  0  0  0  0  0  0  0  0  0
  145.6559  135.1223  151.3981 N   0  0  0  0  0  0  0  0  0  0  0  0
  145.7039  136.4543  151.4968 C   0  0  0  0  0  0  0  0  0  0  0  0
  146.0014  137.2023  152.5617 N   0  0  0  0  0  0  0  0  0  0  0  0
  146.2832  136.4294  153.6500 C   0  0  0  0  0  0  0  0  0  0  0  0
  146.2777  135.0078  153.6935 C   0  0  0  0  0  0  0  0  0  0  0  0
  146.6283  134.5654  154.9618 N   0  0  0  0  0  0  0  0  0  0  0  0
  146.8291  135.6666  155.6336 C   0  0  0  0  0  0  0  0  0  0  0  0
  146.6259  136.8332  154.9293 N   0  0  0  0  0  0  0  0  0  0  0  0
  146.7747  138.1921  155.4317 C   0  0  0  0  0  0  0  0  0  0  0  0
  147.8208  139.0609  154.6709 C   0  0  0  0  0  0  0  0  0  0  0  0
  147.2128  139.6404  153.3613 C   0  0  0  0  0  0  0  0  0  0  0  0
  146.1307  140.5144  153.6133 O   0  0  0  0  0  0  0  0  0  0  0  0
  148.2990  140.1904  155.6179 C   0  0  0  0  0  0  0  0  0  0  0  0
  149.5372  140.9361  155.0882 C   0  0  0  0  0  0  0  0  0  0  0  0
  150.5940  140.0150  154.8524 O   0  0  0  0  0  0  0  0  0  0  0  0
  150.2692  139.0442  153.8662 C   0  0  0  0  0  0  0  0  0  0  0  0
  149.0649  138.2031  154.3279 C   0  0  0  0  0  0  0  0  0  0  0  0
  142.7435  133.0580  148.9170 H   0  0  0  0  0  0  0  0  0  0  0  0
  143.6971  131.5854  148.9967 H   0  0  0  0  0  0  0  0  0  0  0  0
  144.4367  133.0937  148.4600 H   0  0  0  0  0  0  0  0  0  0  0  0
  144.0990  134.0821  150.7380 H   0  0  0  0  0  0  0  0  0  0  0  0
  143.2842  132.6522  151.2680 H   0  0  0  0  0  0  0  0  0  0  0  0
  146.1994  132.6867  150.3637 H   0  0  0  0  0  0  0  0  0  0  0  0
  144.6168  130.5605  151.8693 H   0  0  0  0  0  0  0  0  0  0  0  0
  145.1820  130.4725  150.2131 H   0  0  0  0  0  0  0  0  0  0  0  0
  145.8986  128.4896  152.3760 H   0  0  0  0  0  0  0  0  0  0  0  0
  146.4166  128.4698  150.7020 H   0  0  0  0  0  0  0  0  0  0  0  0
  147.9917  127.1782  152.1454 H   0  0  0  0  0  0  0  0  0  0  0  0
  148.7916  128.5241  151.3680 H   0  0  0  0  0  0  0  0  0  0  0  0
  147.7676  128.4577  154.2512 H   0  0  0  0  0  0  0  0  0  0  0  0
  149.4451  128.4415  153.7525 H   0  0  0  0  0  0  0  0  0  0  0  0
  148.7052  130.7329  154.4420 H   0  0  0  0  0  0  0  0  0  0  0  0
  149.2410  130.6935  152.7799 H   0  0  0  0  0  0  0  0  0  0  0  0
  146.3363  130.6215  153.7309 H   0  0  0  0  0  0  0  0  0  0  0  0
  147.3393  132.8497  153.9069 H   0  0  0  0  0  0  0  0  0  0  0  0
  147.9658  132.7526  152.2734 H   0  0  0  0  0  0  0  0  0  0  0  0
  145.4712  136.9990  150.5936 H   0  0  0  0  0  0  0  0  0  0  0  0
  147.1257  135.6585  156.6725 H   0  0  0  0  0  0  0  0  0  0  0  0
  145.7942  138.6690  155.4019 H   0  0  0  0  0  0  0  0  0  0  0  0
  147.0352  138.1293  156.4893 H   0  0  0  0  0  0  0  0  0  0  0  0
  147.9515  140.1942  152.7845 H   0  0  0  0  0  0  0  0  0  0  0  0
  146.8658  138.8407  152.7069 H   0  0  0  0  0  0  0  0  0  0  0  0
  145.4345  140.3129  153.0067 H   0  0  0  0  0  0  0  0  0  0  0  0
  147.4943  140.9001  155.8111 H   0  0  0  0  0  0  0  0  0  0  0  0
  148.5561  139.7638  156.5885 H   0  0  0  0  0  0  0  0  0  0  0  0
  149.3122  141.4960  154.1802 H   0  0  0  0  0  0  0  0  0  0  0  0
  149.8724  141.6651  155.8264 H   0  0  0  0  0  0  0  0  0  0  0  0
  150.0788  139.5285  152.9080 H   0  0  0  0  0  0  0  0  0  0  0  0
  151.1346  138.3979  153.7185 H   0  0  0  0  0  0  0  0  0  0  0  0
  149.3697  137.6388  155.2101 H   0  0  0  0  0  0  0  0  0  0  0  0
  148.8249  137.4640  153.5629 H   0  0  0  0  0  0  0  0  0  0  0  0
  147.4011  130.6033  151.0180 H   0  0  0  0  0  0  0  0  0  0  0  0
  1  2  1  0  0  0  0
  1 31  1  0  0  0  0
  1 32  1  0  0  0  0
  1 33  1  0  0  0  0
  2  3  1  0  0  0  0
  2 34  1  0  0  0  0
  2 35  1  0  0  0  0
  3 12  1  0  0  0  0
  3  4  1  0  0  0  0
  3 36  1  0  0  0  0
  4  5  1  0  0  0  0
  4 37  1  0  0  0  0
  4 38  1  0  0  0  0
  5 10  1  0  0  0  0
  5  6  1  0  0  0  0
  5 65  1  0  0  0  0
  6  7  1  0  0  0  0
  6 39  1  0  0  0  0
  6 40  1  0  0  0  0
  7  8  1  0  0  0  0
  7 41  1  0  0  0  0
  7 42  1  0  0  0  0
  8  9  1  0  0  0  0
  8 43  1  0  0  0  0
  8 44  1  0  0  0  0
  9 10  1  0  0  0  0
  9 45  1  0  0  0  0
  9 46  1  0  0  0  0
 10 11  1  0  0  0  0
 10 47  1  0  0  0  0
 11 12  1  0  0  0  0
 11 48  1  0  0  0  0
 11 49  1  0  0  0  0
 12 13  1  0  0  0  0
 13 18  1  0  0  0  0
 13 14  2  0  0  0  0
 14 15  1  0  0  0  0
 15 16  2  0  0  0  0
 15 50  1  0  0  0  0
 16 17  1  0  0  0  0
 17 21  1  0  0  0  0
 17 18  2  0  0  0  0
 18 19  1  0  0  0  0
 19 20  2  0  0  0  0
 20 21  1  0  0  0  0
 20 51  1  0  0  0  0
 21 22  1  0  0  0  0
 22 23  1  0  0  0  0
 22 52  1  0  0  0  0
 22 53  1  0  0  0  0
 23 30  1  0  0  0  0
 23 24  1  0  0  0  0
 23 26  1  0  0  0  0
 24 25  1  0  0  0  0
 24 54  1  0  0  0  0
 24 55  1  0  0  0  0
 25 56  1  0  0  0  0
 26 27  1  0  0  0  0
 26 57  1  0  0  0  0
 26 58  1  0  0  0  0
 27 28  1  0  0  0  0
 27 59  1  0  0  0  0
 27 60  1  0  0  0  0
 28 29  1  0  0  0  0
 29 30  1  0  0  0  0
 29 61  1  0  0  0  0
 29 62  1  0  0  0  0
 30 63  1  0  0  0  0
 30 64  1  0  0  0  0
M  CHG  1   5   1
M  END
> <s_m_source_file>
AV-unprocessed.smi

> <i_m_source_file_index>
282

> <i_lp_mmshare_version>
43012

> <i_f3d_flags>
0

> <s_epik_input>
W0NIMl0xW0NIMl1bQ0gyXVtDSDJdW0NAQEhdKE4xMilbQ0gyXU4oW0NAQEhdKFtDSDJdMilbQ0gyXVtDSDNdKWMobltjSF1uMyljKGMzNCluW2NIXW40W0NIMl1DNShbQ0gyXVtPSF0pW0NIMl1bQ0gyXU9bQ0gyXVtDSDJdNQ==

> <s_epik_cmdline>
J2VwaWtfcHl0aG9uJywgJy1waCcsICc3LjAnLCAnLXRuJywgJzgnLCAnLW1hJywgJzIwMCcsICctbWV0YWxfYmluZGluZycsICctaW1hZScsICc8aW5maWxlLm1hZT4nLCAnLW9tYWUnLCAnPG91dGZpbGUubWFlPic=

> <r_lp_tautomer_probability>
1

> <r_epik_Ionization_Penalty>
0.00308583

> <r_epik_Ionization_Penalty_Charging>
0.00300384

> <r_epik_Ionization_Penalty_Neutral>
8.19894e-05

> <r_epik_State_Penalty>
-0

> <r_epik_Charging_Adjusted_Penalty>
0.00300384

> <i_epik_Tot_Q>
1

> <i_epik_Tot_abs_Q>
1

> <r_epik_Metal_State_Penalty>
-0

> <b_epik_Metal_Only>
0

> <s_lp_Force_Field>
OPLS_2005

> <r_lp_Energy>
57.4125

> <b_lp_Chiralities_Consistent>
1

> <s_lp_Variant>
AV-unprocessed.smi:282-7

> <Gold.Version>
5.8.1

> <Gold.Id.Protein>
6NUR|6NUR_protein|mol2

> <Gold.PLP.Fitness>
50.4782

> <Gold.PLP.PLP>
-41.4904

> <Gold.PLP.part.hbond>
-3.0000

> <Gold.PLP.part.metal>
0.0000

> <Gold.PLP.part.buried>
-4.1103

> <Gold.PLP.part.nonpolar>
-35.5760

> <Gold.PLP.part.repulsive>
0.7137

> <Gold.PLP.ligand.clash>
0.0000

> <Gold.PLP.ligand.torsion>
0.4837

> <Gold.PLP.Chemscore.Hbond>
2.2500

> <Gold.PLP.Chemscore.CHOScore>
1.0000

> <Gold.PLP.Chemscore.Metal>
0.0000

> <Gold.Chemscore.Hbonds>
donor molecule, donor type, donor heavy atom, donor atom, acceptor molecule, acceptor atom, score
      L1  H     5    65       P1 10747  1.00
      L1  H    25    56       P1 10175  1.00
      P1  H  7989  7998       L1    28  0.30
      L1  C    15    50       P1 10171  1.00

> <Gold.PLP.Chemscore.Internal.Correction>
0.2052

> <Gold.Rescore>
     Score         DG    S(hbond)    S(metal)    S(lipo)     H(rot)  DE(clash)    DE(int)     intcor
     14.21     -18.64       1.95        0.00     110.60       2.46       0.21       4.23       ----

> <Gold.Chemscore.Fitness>
14.2097

> <Gold.Chemscore.DG>
-18.6425

> <Gold.Chemscore.ZeroCoef>
-5.4800

> <Gold.Chemscore.Hbond>
1.9502

> <Gold.Chemscore.Metal>
0.0000

> <Gold.Chemscore.Lipo>
110.6020

> <Gold.Chemscore.Internal_Hbond>
0.0000

> <Gold.Chemscore.DEClash>
0.2059

> <Gold.Chemscore.DEInternal>
4.2269

> <Gold.Chemscore.Rot>
2.4576

> <Gold.Chemscore.Internal.Correction>
   9.000000E+99

> <Gold.Chemscore.Hbonds>
donor molecule, donor type, donor heavy atom, donor atom, acceptor molecule, acceptor atom, score
      L1  H     5    65       P1 10747  1.00
      L1  H    25    56       P1 10175  0.90

> <Gold.Chemscore.Hbond.Weighted>
-6.5135

> <Gold.Chemscore.Metal.Weighted>
-0.0000

> <Gold.Chemscore.Lipo.Weighted>
-12.9404

> <Gold.Chemscore.Internal_Hbond.Weighted>
0.0000

> <Gold.Chemscore.DEClash.Weighted>
0.2059

> <Gold.Chemscore.DEInternal.Weighted>
4.2269

> <Gold.Chemscore.Rot.Weighted>
6.2915

> <Gold.Chemscore.Internal.Correction.Weighted>
   9.000000E+99

> <Gold.Protein.RotatedTorsions>
[ 6907 6896 6895 6894 ] final  101.98 input  -60.11 | X-H torsion
[ 7974 7965 7964 7962 ] final   67.90 input  175.53 | X-H torsion
[ 8008 7997 7996 7995 ] final   49.10 input   59.86 | X-H torsion
[ 10167 10162 10161 10158 ] final  -71.60 input  -65.29 | X-H torsion
[ 10718 10713 10712 10709 ] final  142.65 input   66.30 | X-H torsion
[ 10763 10752 10751 10750 ] final  145.82 input  -60.55 | X-H torsion
[ 11005 11000 10999 10996 ] final   42.81 input  -57.11 | X-H torsion

> <Gold.Protein.ActiveResidues>
 VAL166  LYS551  ARG553  GLY616  TRP617  ASP618  TYR619  PRO620  LYS621  CYS622 
 ASP623  PHE694  ASN695  SER759  ASP760  ASP761  ALA762  ILE779  LEU786  VAL792 
 PHE793  MET794  SER795  GLU796  ALA797  LYS798  CYS799  TRP800  GLU811  SER814 

> <Gold.Protein.RotatedAtoms>
  152.5336  134.0044  159.7909 H   0  0  0  0  0  0  0  0  0  0  0  0  # atno 6907 bound_to 6896
  151.0257  133.5827  159.2673 H   0  0  0  0  0  0  0  0  0  0  0  0  # atno 6908 bound_to 6896
  151.2851  135.0732  159.9237 H   0  0  0  0  0  0  0  0  0  0  0  0  # atno 6909 bound_to 6896
  145.8091  139.3023  143.1110 H   0  0  0  0  0  0  0  0  0  0  0  0  # atno 7974 bound_to 7965
  155.3967  140.3436  155.4254 H   0  0  0  0  0  0  0  0  0  0  0  0  # atno 8008 bound_to 7997
  156.1527  140.1576  156.8776 H   0  0  0  0  0  0  0  0  0  0  0  0  # atno 8009 bound_to 7997
  154.5067  140.0800  156.7889 H   0  0  0  0  0  0  0  0  0  0  0  0  # atno 8010 bound_to 7997
  140.5260  143.2326  151.7347 H   0  0  0  0  0  0  0  0  0  0  0  0  # atno 10167 bound_to 10162
  157.3781  131.0988  151.0765 H   0  0  0  0  0  0  0  0  0  0  0  0  # atno 10718 bound_to 10713
  154.0117  135.2914  155.3391 H   0  0  0  0  0  0  0  0  0  0  0  0  # atno 10763 bound_to 10752
  154.7099  135.5154  153.8654 H   0  0  0  0  0  0  0  0  0  0  0  0  # atno 10764 bound_to 10752
  153.0720  135.6651  154.0348 H   0  0  0  0  0  0  0  0  0  0  0  0  # atno 10765 bound_to 10752
  140.1704  134.4230  155.8261 H   0  0  0  0  0  0  0  0  0  0  0  0  # atno 11005 bound_to 11000
  145.9796  140.8693  143.0121 LP  0  0  0  0  0  0  0  0  0  0  0  0  # atno 17320 bound_to 7965
  144.6759  140.2062  143.7382 LP  0  0  0  0  0  0  0  0  0  0  0  0  # atno 17321 bound_to 7965
  139.4938  144.4185  152.0003 LP  0  0  0  0  0  0  0  0  0  0  0  0  # atno 17342 bound_to 10162
  140.3284  144.3345  150.5993 LP  0  0  0  0  0  0  0  0  0  0  0  0  # atno 17343 bound_to 10162
  157.1844  130.6324  149.5682 LP  0  0  0  0  0  0  0  0  0  0  0  0  # atno 17370 bound_to 10713
  155.9770  130.4743  150.6563 LP  0  0  0  0  0  0  0  0  0  0  0  0  # atno 17371 bound_to 10713
  141.2217  133.6953  156.7752 LP  0  0  0  0  0  0  0  0  0  0  0  0  # atno 17394 bound_to 11000
  140.2385  134.8632  157.3549 LP  0  0  0  0  0  0  0  0  0  0  0  0  # atno 17395 bound_to 11000

$$$$
