AV-unprocessed.smi:2749|AV-procd|sdf|10587|dock10
  -GOLD-   2272015 33D 1   1.00000     0.00000
 Structure written by MMmdl.
 32 34  0  0  0  0  0  0  0  0  1 V2000
  150.7244  140.6310  156.8075 O   0  0  0  0  0  0  0  0  0  0  0  0
  150.3072  141.7486  156.5091 C   0  0  0  0  0  0  0  0  0  0  0  0
  150.4942  142.8063  157.3271 N   0  0  0  0  0  0  0  0  0  0  0  0
  151.1318  142.9076  158.5986 C   0  0  0  0  0  0  0  0  0  0  0  0
  151.1289  144.2070  159.1557 C   0  0  0  0  0  0  0  0  0  0  0  0
  151.7432  144.4313  160.4032 C   0  0  0  0  0  0  0  0  0  0  0  0
  152.3517  143.3479  161.0608 C   0  0  0  0  0  0  0  0  0  0  0  0
  152.9554  143.5142  162.2613 F   0  0  0  0  0  0  0  0  0  0  0  0
  152.3179  142.0869  160.4381 C   0  0  0  0  0  0  0  0  0  0  0  0
  151.7279  141.8715  159.2432 N   0  0  0  0  0  0  0  0  0  0  0  0
  149.6557  141.9977  155.3624 N   0  0  0  0  0  0  0  0  0  0  0  0
  149.3114  141.0014  154.3534 C   0  0  2  0  0  0  0  0  0  0  0  0
  148.0213  141.3636  153.6122 C   0  0  0  0  0  0  0  0  0  0  0  0
  147.1360  140.1429  153.8966 C   0  0  2  0  0  0  0  0  0  0  0  0
  146.6504  140.1114  155.3528 C   0  0  0  0  0  0  0  0  0  0  0  0
  147.9206  139.7036  156.0972 C   0  0  0  0  0  0  0  0  0  0  0  0
  148.9439  139.6272  154.9510 C   0  0  1  0  0  0  0  0  0  0  0  0
  148.1135  139.1170  153.9212 O   0  0  0  0  0  0  0  0  0  0  0  0
  150.1766  143.6870  156.9494 H   0  0  0  0  0  0  0  0  0  0  0  0
  150.6588  145.0292  158.6352 H   0  0  0  0  0  0  0  0  0  0  0  0
  151.7475  145.4165  160.8454 H   0  0  0  0  0  0  0  0  0  0  0  0
  152.7750  141.2293  160.9090 H   0  0  0  0  0  0  0  0  0  0  0  0
  149.3465  142.9445  155.1932 H   0  0  0  0  0  0  0  0  0  0  0  0
  150.1238  140.8938  153.6322 H   0  0  0  0  0  0  0  0  0  0  0  0
  147.5620  142.2926  153.9536 H   0  0  0  0  0  0  0  0  0  0  0  0
  148.2140  141.4568  152.5428 H   0  0  0  0  0  0  0  0  0  0  0  0
  146.3436  139.9922  153.1631 H   0  0  0  0  0  0  0  0  0  0  0  0
  146.2605  141.0763  155.6791 H   0  0  0  0  0  0  0  0  0  0  0  0
  145.8701  139.3622  155.4888 H   0  0  0  0  0  0  0  0  0  0  0  0
  148.1986  140.4030  156.8860 H   0  0  0  0  0  0  0  0  0  0  0  0
  147.7900  138.7222  156.5543 H   0  0  0  0  0  0  0  0  0  0  0  0
  149.8075  139.0008  155.1758 H   0  0  0  0  0  0  0  0  0  0  0  0
  1  2  2  0  0  0  0
  2  3  1  0  0  0  0
  2 11  1  0  0  0  0
  3  4  1  0  0  0  0
  3 19  1  0  0  0  0
  4 10  1  0  0  0  0
  4  5  2  0  0  0  0
  5  6  1  0  0  0  0
  5 20  1  0  0  0  0
  6  7  2  0  0  0  0
  6 21  1  0  0  0  0
  7  8  1  0  0  0  0
  7  9  1  0  0  0  0
  9 10  2  0  0  0  0
  9 22  1  0  0  0  0
 11 12  1  0  0  0  0
 11 23  1  0  0  0  0
 12 17  1  0  0  0  0
 12 13  1  0  0  0  0
 12 24  1  0  0  0  0
 13 14  1  0  0  0  0
 13 25  1  0  0  0  0
 13 26  1  0  0  0  0
 14 18  1  0  0  0  0
 14 15  1  0  0  0  0
 14 27  1  0  0  0  0
 15 16  1  0  0  0  0
 15 28  1  0  0  0  0
 15 29  1  0  0  0  0
 16 17  1  0  0  0  0
 16 30  1  0  0  0  0
 16 31  1  0  0  0  0
 17 18  1  0  0  0  0
 17 32  1  0  0  0  0
M  END
> <s_m_source_file>
AV-unprocessed.smi

> <i_m_source_file_index>
2749

> <i_lp_mmshare_version>
43012

> <i_f3d_flags>
0

> <s_epik_input>
W0NIMl0xW0NIMl1bQ0BIXShPMilbQ0BASF0oW0NIMl1bQ0BASF0xMilbTkhdQyg9TylbTkhdYzNbY0hdW2NIXWMoRilbY0hdbjM=

> <s_epik_cmdline>
J2VwaWtfcHl0aG9uJywgJy1waCcsICc3LjAnLCAnLXRuJywgJzgnLCAnLW1hJywgJzIwMCcsICctbWV0YWxfYmluZGluZycsICctaW1hZScsICc8aW5maWxlLm1hZT4nLCAnLW9tYWUnLCAnPG91dGZpbGUubWFlPic=

> <r_lp_tautomer_probability>
1

> <r_epik_Ionization_Penalty>
3.37159e-05

> <r_epik_Ionization_Penalty_Charging>
0

> <r_epik_Ionization_Penalty_Neutral>
3.37159e-05

> <r_epik_State_Penalty>
-0

> <r_epik_Charging_Adjusted_Penalty>
0

> <i_epik_Tot_Q>
0

> <i_epik_Tot_abs_Q>
0

> <r_epik_Metal_State_Penalty>
-0

> <b_epik_Metal_Only>
0

> <s_lp_Force_Field>
OPLS_2005

> <r_lp_Energy>
40.3406

> <b_lp_Chiralities_Consistent>
1

> <s_lp_Variant>
AV-unprocessed.smi:2749-3

> <Gold.Version>
5.8.1

> <Gold.Id.Protein>
6NUR|6NUR_protein|mol2

> <Gold.PLP.Fitness>
38.6596

> <Gold.PLP.PLP>
-33.3855

> <Gold.PLP.part.hbond>
-2.0000

> <Gold.PLP.part.metal>
0.0000

> <Gold.PLP.part.buried>
-5.9854

> <Gold.PLP.part.nonpolar>
-26.5605

> <Gold.PLP.part.repulsive>
0.3911

> <Gold.PLP.ligand.clash>
0.0000

> <Gold.PLP.ligand.torsion>
0.3605

> <Gold.PLP.Chemscore.Hbond>
1.9920

> <Gold.PLP.Chemscore.CHOScore>
0.0000

> <Gold.PLP.Chemscore.Metal>
0.0000

> <Gold.Chemscore.Hbonds>
donor molecule, donor type, donor heavy atom, donor atom, acceptor molecule, acceptor atom, score
      L1  H     3    19       P1  8028  0.85
      L1  H    11    23       P1  8028  1.00

> <Gold.PLP.Chemscore.Internal.Correction>
0.0193

> <Gold.Rescore>
     Score         DG    S(hbond)    S(metal)    S(lipo)     H(rot)  DE(clash)    DE(int)     intcor
     14.55     -18.09       1.94        0.00      74.46       1.00       0.58       2.97       ----

> <Gold.Chemscore.Fitness>
14.5529

> <Gold.Chemscore.DG>
-18.0946

> <Gold.Chemscore.ZeroCoef>
-5.4800

> <Gold.Chemscore.Hbond>
1.9350

> <Gold.Chemscore.Metal>
0.0000

> <Gold.Chemscore.Lipo>
74.4579

> <Gold.Chemscore.Internal_Hbond>
0.0000

> <Gold.Chemscore.DEClash>
0.5760

> <Gold.Chemscore.DEInternal>
2.9656

> <Gold.Chemscore.Rot>
1.0000

> <Gold.Chemscore.Internal.Correction>
   9.000000E+99

> <Gold.Chemscore.Hbonds>
donor molecule, donor type, donor heavy atom, donor atom, acceptor molecule, acceptor atom, score
      L1  H     3    19       P1  8028  0.79
      L1  H    11    23       P1  8028  0.99

> <Gold.Chemscore.Hbond.Weighted>
-6.4630

> <Gold.Chemscore.Metal.Weighted>
-0.0000

> <Gold.Chemscore.Lipo.Weighted>
-8.7116

> <Gold.Chemscore.Internal_Hbond.Weighted>
0.0000

> <Gold.Chemscore.DEClash.Weighted>
0.5760

> <Gold.Chemscore.DEInternal.Weighted>
2.9656

> <Gold.Chemscore.Rot.Weighted>
2.5600

> <Gold.Chemscore.Internal.Correction.Weighted>
   9.000000E+99

> <Gold.Protein.RotatedTorsions>
[ 6907 6896 6895 6894 ] final   93.20 input  -60.11 | X-H torsion
[ 7974 7965 7964 7962 ] final  114.42 input  175.53 | X-H torsion
[ 8008 7997 7996 7995 ] final   36.83 input   59.86 | X-H torsion
[ 10167 10162 10161 10158 ] final  129.01 input  -65.29 | X-H torsion
[ 10718 10713 10712 10709 ] final  109.13 input   66.30 | X-H torsion
[ 10763 10752 10751 10750 ] final  -97.46 input  -60.55 | X-H torsion
[ 11005 11000 10999 10996 ] final  -40.33 input  -57.11 | X-H torsion

> <Gold.Protein.ActiveResidues>
 VAL166  LYS551  ARG553  GLY616  TRP617  ASP618  TYR619  PRO620  LYS621  CYS622 
 ASP623  PHE694  ASN695  SER759  ASP760  ASP761  ALA762  ILE779  LEU786  VAL792 
 PHE793  MET794  SER795  GLU796  ALA797  LYS798  CYS799  TRP800  GLU811  SER814 

> <Gold.Protein.RotatedAtoms>
  152.5452  134.1385  159.8468 H   0  0  0  0  0  0  0  0  0  0  0  0  # atno 6907 bound_to 6896
  151.1423  133.4955  159.2604 H   0  0  0  0  0  0  0  0  0  0  0  0  # atno 6908 bound_to 6896
  151.1559  135.0260  159.8744 H   0  0  0  0  0  0  0  0  0  0  0  0  # atno 6909 bound_to 6896
  145.2046  139.2936  143.4300 H   0  0  0  0  0  0  0  0  0  0  0  0  # atno 7974 bound_to 7965
  155.1938  140.3310  155.4354 H   0  0  0  0  0  0  0  0  0  0  0  0  # atno 8008 bound_to 7997
  156.2432  140.1905  156.6979 H   0  0  0  0  0  0  0  0  0  0  0  0  # atno 8009 bound_to 7997
  154.6188  140.0598  156.9574 H   0  0  0  0  0  0  0  0  0  0  0  0  # atno 8010 bound_to 7997
  139.5499  144.6804  151.4357 H   0  0  0  0  0  0  0  0  0  0  0  0  # atno 10167 bound_to 10162
  157.6555  131.0907  150.6408 H   0  0  0  0  0  0  0  0  0  0  0  0  # atno 10718 bound_to 10713
  154.7330  135.5045  153.8995 H   0  0  0  0  0  0  0  0  0  0  0  0  # atno 10763 bound_to 10752
  153.0968  135.6674  153.9757 H   0  0  0  0  0  0  0  0  0  0  0  0  # atno 10764 bound_to 10752
  153.9553  135.3053  155.3416 H   0  0  0  0  0  0  0  0  0  0  0  0  # atno 10765 bound_to 10752
  141.0167  133.6882  156.2307 H   0  0  0  0  0  0  0  0  0  0  0  0  # atno 11005 bound_to 11000
  146.3410  140.2302  142.8593 LP  0  0  0  0  0  0  0  0  0  0  0  0  # atno 17320 bound_to 7965
  144.9915  140.8551  143.5337 LP  0  0  0  0  0  0  0  0  0  0  0  0  # atno 17321 bound_to 7965
  140.6758  143.8192  150.7057 LP  0  0  0  0  0  0  0  0  0  0  0  0  # atno 17342 bound_to 10162
  140.1630  143.4259  152.2053 LP  0  0  0  0  0  0  0  0  0  0  0  0  # atno 17343 bound_to 10162
  156.6715  130.4541  149.5656 LP  0  0  0  0  0  0  0  0  0  0  0  0  # atno 17370 bound_to 10713
  156.1994  130.6610  151.1151 LP  0  0  0  0  0  0  0  0  0  0  0  0  # atno 17371 bound_to 10713
  140.6643  134.4935  157.5585 LP  0  0  0  0  0  0  0  0  0  0  0  0  # atno 17394 bound_to 11000
  139.9121  134.8323  156.1492 LP  0  0  0  0  0  0  0  0  0  0  0  0  # atno 17395 bound_to 11000

$$$$
