AV-unprocessed.smi:1555|AV-procd|sdf|6265|dock8
  -GOLD-   22720 6453D 1   1.00000     0.00000
 Structure written by MMmdl.
 42 43  0  0  0  0  0  0  0  0  2 V2000
  146.3282  131.0535  153.0194 C   0  0  0  0  0  0  0  0  0  0  0  0
  146.0837  130.3364  151.6839 C   0  0  1  0  0  0  0  0  0  0  0  0
  146.1029  131.3198  150.4986 C   0  0  0  0  0  0  0  0  0  0  0  0
  145.2084  132.4637  150.7041 N   0  0  0  0  0  0  0  0  0  0  0  0
  145.4569  133.5934  151.4410 C   0  0  0  0  0  0  0  0  0  0  0  0
  144.3384  134.3798  151.3395 C   0  0  0  0  0  0  0  0  0  0  0  0
  143.4552  133.6973  150.5464 N   0  3  0  0  0  0  0  0  0  0  0  0
  143.9855  132.5315  150.1624 C   0  0  0  0  0  0  0  0  0  0  0  0
  147.0981  129.3026  151.4901 N   0  0  0  0  0  0  0  0  0  0  0  0
  147.2711  128.2122  152.2565 C   0  0  0  0  0  0  0  0  0  0  0  0
  146.5650  127.9838  153.2395 O   0  0  0  0  0  0  0  0  0  0  0  0
  148.2765  127.3934  151.8556 N   0  0  0  0  0  0  0  0  0  0  0  0
  148.8490  126.2723  152.6199 C   0  0  0  0  0  0  0  0  0  0  0  0
  148.3853  124.9519  151.9798 C   0  0  0  0  0  0  0  0  0  0  0  0
  148.7863  124.8777  150.4895 C   0  0  0  0  0  0  0  0  0  0  0  0
  148.2299  123.6031  149.8295 C   0  0  0  0  0  0  0  0  0  0  0  0
  148.6669  123.4998  148.4907 O   0  0  0  0  0  0  0  0  0  0  0  0
  148.3519  126.1619  149.7443 C   0  0  0  0  0  0  0  0  0  0  0  0
  148.8126  127.4281  150.4896 C   0  0  0  0  0  0  0  0  0  0  0  0
  145.5741  131.8207  153.1965 H   0  0  0  0  0  0  0  0  0  0  0  0
  147.3058  131.5368  153.0386 H   0  0  0  0  0  0  0  0  0  0  0  0
  146.2859  130.3538  153.8548 H   0  0  0  0  0  0  0  0  0  0  0  0
  145.0928  129.8807  151.7258 H   0  0  0  0  0  0  0  0  0  0  0  0
  147.1089  131.7120  150.3424 H   0  0  0  0  0  0  0  0  0  0  0  0
  145.8099  130.8211  149.5733 H   0  0  0  0  0  0  0  0  0  0  0  0
  146.3873  133.7513  151.9672 H   0  0  0  0  0  0  0  0  0  0  0  0
  144.1110  135.3483  151.7607 H   0  0  0  0  0  0  0  0  0  0  0  0
  143.5193  131.7928  149.5348 H   0  0  0  0  0  0  0  0  0  0  0  0
  147.7253  129.4244  150.7084 H   0  0  0  0  0  0  0  0  0  0  0  0
  149.9375  126.3377  152.5888 H   0  0  0  0  0  0  0  0  0  0  0  0
  148.5942  126.2797  153.6797 H   0  0  0  0  0  0  0  0  0  0  0  0
  148.8141  124.1094  152.5234 H   0  0  0  0  0  0  0  0  0  0  0  0
  147.3022  124.8635  152.0770 H   0  0  0  0  0  0  0  0  0  0  0  0
  149.8759  124.8260  150.4537 H   0  0  0  0  0  0  0  0  0  0  0  0
  148.5707  122.7174  150.3666 H   0  0  0  0  0  0  0  0  0  0  0  0
  147.1398  123.5953  149.8555 H   0  0  0  0  0  0  0  0  0  0  0  0
  148.2127  122.7792  148.0811 H   0  0  0  0  0  0  0  0  0  0  0  0
  148.7578  126.1667  148.7324 H   0  0  0  0  0  0  0  0  0  0  0  0
  147.2660  126.1800  149.6399 H   0  0  0  0  0  0  0  0  0  0  0  0
  148.5042  128.3158  149.9359 H   0  0  0  0  0  0  0  0  0  0  0  0
  149.9022  127.4670  150.5265 H   0  0  0  0  0  0  0  0  0  0  0  0
  142.5337  134.0256  150.2858 H   0  0  0  0  0  0  0  0  0  0  0  0
  1  2  1  0  0  0  0
  1 20  1  0  0  0  0
  1 21  1  0  0  0  0
  1 22  1  0  0  0  0
  2  3  1  0  0  0  0
  2  9  1  0  0  0  0
  2 23  1  0  0  0  0
  3  4  1  0  0  0  0
  3 24  1  0  0  0  0
  3 25  1  0  0  0  0
  4  8  1  0  0  0  0
  4  5  1  0  0  0  0
  5  6  2  0  0  0  0
  5 26  1  0  0  0  0
  6  7  1  0  0  0  0
  6 27  1  0  0  0  0
  7  8  2  0  0  0  0
  7 42  1  0  0  0  0
  8 28  1  0  0  0  0
  9 10  1  0  0  0  0
  9 29  1  0  0  0  0
 10 11  2  0  0  0  0
 10 12  1  0  0  0  0
 12 19  1  0  0  0  0
 12 13  1  0  0  0  0
 13 14  1  0  0  0  0
 13 30  1  0  0  0  0
 13 31  1  0  0  0  0
 14 15  1  0  0  0  0
 14 32  1  0  0  0  0
 14 33  1  0  0  0  0
 15 16  1  0  0  0  0
 15 18  1  0  0  0  0
 15 34  1  0  0  0  0
 16 17  1  0  0  0  0
 16 35  1  0  0  0  0
 16 36  1  0  0  0  0
 17 37  1  0  0  0  0
 18 19  1  0  0  0  0
 18 38  1  0  0  0  0
 18 39  1  0  0  0  0
 19 40  1  0  0  0  0
 19 41  1  0  0  0  0
M  CHG  1   7   1
M  END
> <s_m_source_file>
AV-unprocessed.smi

> <i_m_source_file_index>
1555

> <i_lp_mmshare_version>
43012

> <i_f3d_flags>
0

> <s_epik_input>
W2NIXTFuW2NIXVtjSF1uMVtDSDJdW0NAQEhdKFtDSDNdKVtOSF1DKD1PKU4yW0NIMl1bQ0gyXVtDSF0oW0NIMl1bT0hdKVtDSDJdW0NIMl0y

> <s_epik_cmdline>
J2VwaWtfcHl0aG9uJywgJy1waCcsICc3LjAnLCAnLXRuJywgJzgnLCAnLW1hJywgJzIwMCcsICctbWV0YWxfYmluZGluZycsICctaW1hZScsICc8aW5maWxlLm1hZT4nLCAnLW9tYWUnLCAnPG91dGZpbGUubWFlPic=

> <r_lp_tautomer_probability>
1

> <r_epik_Ionization_Penalty>
0.253261

> <r_epik_Ionization_Penalty_Charging>
0

> <r_epik_Ionization_Penalty_Neutral>
0.253261

> <r_epik_State_Penalty>
0.244619

> <r_epik_Charging_Adjusted_Penalty>
0.244619

> <i_epik_Tot_Q>
1

> <i_epik_Tot_abs_Q>
1

> <r_epik_Metal_State_Penalty>
0.535039

> <b_epik_Metal_Only>
0

> <s_lp_Force_Field>
OPLS_2005

> <r_lp_Energy>
35.1674

> <b_lp_Chiralities_Consistent>
1

> <s_lp_Variant>
AV-unprocessed.smi:1555-2

> <Gold.Version>
5.8.1

> <Gold.Id.Protein>
6NUR|6NUR_protein|mol2

> <Gold.PLP.Fitness>
45.0924

> <Gold.PLP.PLP>
-36.9058

> <Gold.PLP.part.hbond>
-2.0000

> <Gold.PLP.part.metal>
0.0000

> <Gold.PLP.part.buried>
-6.3903

> <Gold.PLP.part.nonpolar>
-28.4897

> <Gold.PLP.part.repulsive>
0.1557

> <Gold.PLP.ligand.clash>
0.7147

> <Gold.PLP.ligand.torsion>
0.4745

> <Gold.PLP.Chemscore.Hbond>
2.2839

> <Gold.PLP.Chemscore.CHOScore>
0.9892

> <Gold.PLP.Chemscore.Metal>
0.0000

> <Gold.Chemscore.Hbonds>
donor molecule, donor type, donor heavy atom, donor atom, acceptor molecule, acceptor atom, score
      L1  H     7    42       P1 10186  2.00
      L1  H     9    29       P1 10747  0.66

> <Gold.PLP.Chemscore.Internal.Correction>
0.0309

> <Gold.Rescore>
     Score         DG    S(hbond)    S(metal)    S(lipo)     H(rot)  DE(clash)    DE(int)     intcor
      9.10     -11.62       1.05        0.00      78.51       2.56       0.95       1.57       ----

> <Gold.Chemscore.Fitness>
9.1011

> <Gold.Chemscore.DG>
-11.6196

> <Gold.Chemscore.ZeroCoef>
-5.4800

> <Gold.Chemscore.Hbond>
1.0524

> <Gold.Chemscore.Metal>
0.0000

> <Gold.Chemscore.Lipo>
78.5109

> <Gold.Chemscore.Internal_Hbond>
0.0000

> <Gold.Chemscore.DEClash>
0.9473

> <Gold.Chemscore.DEInternal>
1.5712

> <Gold.Chemscore.Rot>
2.5630

> <Gold.Chemscore.Internal.Correction>
   9.000000E+99

> <Gold.Chemscore.Hbonds>
donor molecule, donor type, donor heavy atom, donor atom, acceptor molecule, acceptor atom, score
      L1  H     7    42       P1 10186  0.94
      L1  H     9    29       P1 10747  0.56

> <Gold.Chemscore.Hbond.Weighted>
-3.5150

> <Gold.Chemscore.Metal.Weighted>
-0.0000

> <Gold.Chemscore.Lipo.Weighted>
-9.1858

> <Gold.Chemscore.Internal_Hbond.Weighted>
0.0000

> <Gold.Chemscore.DEClash.Weighted>
0.9473

> <Gold.Chemscore.DEInternal.Weighted>
1.5712

> <Gold.Chemscore.Rot.Weighted>
6.5612

> <Gold.Chemscore.Internal.Correction.Weighted>
   9.000000E+99

> <Gold.Protein.RotatedTorsions>
[ 6907 6896 6895 6894 ] final  108.63 input  -60.11 | X-H torsion
[ 7974 7965 7964 7962 ] final  148.10 input  175.53 | X-H torsion
[ 8008 7997 7996 7995 ] final   97.15 input   59.86 | X-H torsion
[ 10167 10162 10161 10158 ] final   13.14 input  -65.29 | X-H torsion
[ 10718 10713 10712 10709 ] final   70.90 input   66.30 | X-H torsion
[ 10763 10752 10751 10750 ] final  -39.98 input  -60.55 | X-H torsion
[ 11005 11000 10999 10996 ] final -103.71 input  -57.11 | X-H torsion

> <Gold.Protein.ActiveResidues>
 VAL166  LYS551  ARG553  GLY616  TRP617  ASP618  TYR619  PRO620  LYS621  CYS622 
 ASP623  PHE694  ASN695  SER759  ASP760  ASP761  ALA762  ILE779  LEU786  VAL792 
 PHE793  MET794  SER795  GLU796  ALA797  LYS798  CYS799  TRP800  GLU811  SER814 

> <Gold.Protein.RotatedAtoms>
  152.5103  133.9060  159.7464 H   0  0  0  0  0  0  0  0  0  0  0  0  # atno 6907 bound_to 6896
  150.9465  133.6589  159.2787 H   0  0  0  0  0  0  0  0  0  0  0  0  # atno 6908 bound_to 6896
  151.3882  135.0956  159.9570 H   0  0  0  0  0  0  0  0  0  0  0  0  # atno 6909 bound_to 6896
  144.8540  139.6111  143.5961 H   0  0  0  0  0  0  0  0  0  0  0  0  # atno 7974 bound_to 7965
  156.0871  140.3262  155.7768 H   0  0  0  0  0  0  0  0  0  0  0  0  # atno 8008 bound_to 7997
  155.5058  140.0573  157.2949 H   0  0  0  0  0  0  0  0  0  0  0  0  # atno 8009 bound_to 7997
  154.4616  140.1969  156.0247 H   0  0  0  0  0  0  0  0  0  0  0  0  # atno 8010 bound_to 7997
  140.6022  143.8581  150.6977 H   0  0  0  0  0  0  0  0  0  0  0  0  # atno 10167 bound_to 10162
  157.6424  130.9501  150.0715 H   0  0  0  0  0  0  0  0  0  0  0  0  # atno 10718 bound_to 10713
  153.9384  135.6764  153.4744 H   0  0  0  0  0  0  0  0  0  0  0  0  # atno 10763 bound_to 10752
  153.0944  135.4859  154.8747 H   0  0  0  0  0  0  0  0  0  0  0  0  # atno 10764 bound_to 10752
  154.7390  135.3156  154.8719 H   0  0  0  0  0  0  0  0  0  0  0  0  # atno 10765 bound_to 10752
  141.1133  133.8663  157.1521 H   0  0  0  0  0  0  0  0  0  0  0  0  # atno 11005 bound_to 11000
  146.2808  139.6872  142.9230 LP  0  0  0  0  0  0  0  0  0  0  0  0  # atno 17320 bound_to 7965
  145.4443  141.0424  143.2840 LP  0  0  0  0  0  0  0  0  0  0  0  0  # atno 17321 bound_to 7965
  140.2129  143.3869  152.1703 LP  0  0  0  0  0  0  0  0  0  0  0  0  # atno 17342 bound_to 10162
  139.5299  144.7147  151.5093 LP  0  0  0  0  0  0  0  0  0  0  0  0  # atno 17343 bound_to 10162
  156.1718  130.3646  149.9155 LP  0  0  0  0  0  0  0  0  0  0  0  0  # atno 17370 bound_to 10713
  156.7128  130.8977  151.3611 LP  0  0  0  0  0  0  0  0  0  0  0  0  # atno 17371 bound_to 10713
  140.0040  135.0016  157.0252 LP  0  0  0  0  0  0  0  0  0  0  0  0  # atno 17394 bound_to 11000
  140.4715  134.1382  155.7204 LP  0  0  0  0  0  0  0  0  0  0  0  0  # atno 17395 bound_to 11000

$$$$
