AV-unprocessed.smi:2552|AV-procd|sdf|10015|dock10
  -GOLD-   2272014 63D 1   1.00000     0.00000
 Structure written by MMmdl.
 34 36  0  0  0  0  0  0  0  0  1 V2000
  148.4572  135.6803  158.5032 C   0  0  0  0  0  0  0  0  0  0  0  0
  149.0979  136.5020  157.4791 N   0  0  0  0  0  0  0  0  0  0  0  0
  149.2878  135.8632  156.2477 N   0  0  0  0  0  0  0  0  0  0  0  0
  149.8458  136.4752  155.2501 C   0  0  0  0  0  0  0  0  0  0  0  0
  150.2766  137.8567  155.4410 C   0  0  0  0  0  0  0  0  0  0  0  0
  150.9097  138.8384  154.6301 C   0  0  0  0  0  0  0  0  0  0  0  0
  151.0999  139.9810  155.2870 N   0  0  0  0  0  0  0  0  0  0  0  0
  150.6035  139.7769  156.5349 N   0  0  0  0  0  0  0  0  0  0  0  0
  150.6747  140.8396  157.5260 C   0  0  0  0  0  0  0  0  0  0  0  0
  152.1182  141.3301  157.7587 C   0  0  2  0  0  0  0  0  0  0  0  0
  152.9350  140.2010  157.9962 O   0  0  0  0  0  0  0  0  0  0  0  0
  152.2078  142.3568  158.8822 C   0  0  0  0  0  0  0  0  0  0  0  0
  152.5449  141.9516  160.1929 C   0  0  0  0  0  0  0  0  0  0  0  0
  152.6093  142.8952  161.2360 C   0  0  0  0  0  0  0  0  0  0  0  0
  152.3349  144.2512  160.9767 C   0  0  0  0  0  0  0  0  0  0  0  0
  151.9935  144.6619  159.6742 C   0  0  0  0  0  0  0  0  0  0  0  0
  151.9271  143.7194  158.6294 C   0  0  0  0  0  0  0  0  0  0  0  0
  151.5832  144.1313  157.3851 F   0  0  0  0  0  0  0  0  0  0  0  0
  150.1017  138.4949  156.6240 C   0  0  0  0  0  0  0  0  0  0  0  0
  149.4609  137.7899  157.7585 C   0  0  0  0  0  0  0  0  0  0  0  0
  149.2825  138.3379  158.8464 O   0  0  0  0  0  0  0  0  0  0  0  0
  147.5211  136.1350  158.8308 H   0  0  0  0  0  0  0  0  0  0  0  0
  149.1081  135.5732  159.3723 H   0  0  0  0  0  0  0  0  0  0  0  0
  148.2271  134.6780  158.1381 H   0  0  0  0  0  0  0  0  0  0  0  0
  149.9926  135.9763  154.2923 H   0  0  0  0  0  0  0  0  0  0  0  0
  151.2349  138.7625  153.6030 H   0  0  0  0  0  0  0  0  0  0  0  0
  150.0375  141.6663  157.2072 H   0  0  0  0  0  0  0  0  0  0  0  0
  150.2459  140.4639  158.4555 H   0  0  0  0  0  0  0  0  0  0  0  0
  152.4939  141.7805  156.8402 H   0  0  0  0  0  0  0  0  0  0  0  0
  152.6285  139.7696  158.7792 H   0  0  0  0  0  0  0  0  0  0  0  0
  152.7502  140.9123  160.4043 H   0  0  0  0  0  0  0  0  0  0  0  0
  152.8667  142.5779  162.2358 H   0  0  0  0  0  0  0  0  0  0  0  0
  152.3834  144.9751  161.7767 H   0  0  0  0  0  0  0  0  0  0  0  0
  151.7786  145.7015  159.4763 H   0  0  0  0  0  0  0  0  0  0  0  0
  1  2  1  0  0  0  0
  1 22  1  0  0  0  0
  1 23  1  0  0  0  0
  1 24  1  0  0  0  0
  2 20  1  0  0  0  0
  2  3  1  0  0  0  0
  3  4  2  0  0  0  0
  4  5  1  0  0  0  0
  4 25  1  0  0  0  0
  5 19  2  0  0  0  0
  5  6  1  0  0  0  0
  6  7  2  0  0  0  0
  6 26  1  0  0  0  0
  7  8  1  0  0  0  0
  8  9  1  0  0  0  0
  8 19  1  0  0  0  0
  9 10  1  0  0  0  0
  9 27  1  0  0  0  0
  9 28  1  0  0  0  0
 10 11  1  0  0  0  0
 10 12  1  0  0  0  0
 10 29  1  0  0  0  0
 11 30  1  0  0  0  0
 12 17  1  0  0  0  0
 12 13  2  0  0  0  0
 13 14  1  0  0  0  0
 13 31  1  0  0  0  0
 14 15  2  0  0  0  0
 14 32  1  0  0  0  0
 15 16  1  0  0  0  0
 15 33  1  0  0  0  0
 16 17  2  0  0  0  0
 16 34  1  0  0  0  0
 17 18  1  0  0  0  0
 19 20  1  0  0  0  0
 20 21  2  0  0  0  0
M  END
> <s_m_source_file>
AV-unprocessed.smi

> <i_m_source_file_index>
2552

> <i_lp_mmshare_version>
43012

> <i_f3d_flags>
0

> <s_epik_input>
W2NIXTFubihbQ0gzXSljKD1PKWMoYzEyKW4obltjSF0yKVtDSDJdW0NASF0oW09IXSljM1tjSF1bY0hdW2NIXVtjSF1jM0Y=

> <s_epik_cmdline>
J2VwaWtfcHl0aG9uJywgJy1waCcsICc3LjAnLCAnLXRuJywgJzgnLCAnLW1hJywgJzIwMCcsICctbWV0YWxfYmluZGluZycsICctaW1hZScsICc8aW5maWxlLm1hZT4nLCAnLW9tYWUnLCAnPG91dGZpbGUubWFlPic=

> <r_lp_tautomer_probability>
1

> <r_epik_Ionization_Penalty>
6.28011e-06

> <r_epik_Ionization_Penalty_Charging>
1.65421e-10

> <r_epik_Ionization_Penalty_Neutral>
6.27995e-06

> <r_epik_State_Penalty>
-0

> <r_epik_Charging_Adjusted_Penalty>
1.65421e-10

> <i_epik_Tot_Q>
0

> <i_epik_Tot_abs_Q>
0

> <r_epik_Metal_State_Penalty>
-0

> <b_epik_Metal_Only>
0

> <s_lp_Force_Field>
OPLS_2005

> <r_lp_Energy>
28.555

> <b_lp_Chiralities_Consistent>
1

> <s_lp_Variant>
AV-unprocessed.smi:2552-1

> <Gold.Version>
5.8.1

> <Gold.Id.Protein>
6NUR|6NUR_protein|mol2

> <Gold.PLP.Fitness>
43.6871

> <Gold.PLP.PLP>
-38.1012

> <Gold.PLP.part.hbond>
-2.3269

> <Gold.PLP.part.metal>
0.0000

> <Gold.PLP.part.buried>
-5.7791

> <Gold.PLP.part.nonpolar>
-30.9714

> <Gold.PLP.part.repulsive>
0.0653

> <Gold.PLP.ligand.clash>
0.0000

> <Gold.PLP.ligand.torsion>
0.7299

> <Gold.PLP.Chemscore.Hbond>
1.3640

> <Gold.PLP.Chemscore.CHOScore>
0.9794

> <Gold.PLP.Chemscore.Metal>
0.0000

> <Gold.Chemscore.Hbonds>
donor molecule, donor type, donor heavy atom, donor atom, acceptor molecule, acceptor atom, score
      P1  H  7989  7998       L1     7  0.41
      P1  H  7997  8009       L1    11  0.98
      L1  C     4    25       P1  7948  0.75

> <Gold.PLP.Chemscore.Internal.Correction>
0.0154

> <Gold.Rescore>
     Score         DG    S(hbond)    S(metal)    S(lipo)     H(rot)  DE(clash)    DE(int)     intcor
     14.63     -15.37       0.93        0.00     102.07       2.02       0.00       0.74       ----

> <Gold.Chemscore.Fitness>
14.6288

> <Gold.Chemscore.DG>
-15.3694

> <Gold.Chemscore.ZeroCoef>
-5.4800

> <Gold.Chemscore.Hbond>
0.9322

> <Gold.Chemscore.Metal>
0.0000

> <Gold.Chemscore.Lipo>
102.0708

> <Gold.Chemscore.Internal_Hbond>
0.0000

> <Gold.Chemscore.DEClash>
0.0009

> <Gold.Chemscore.DEInternal>
0.7396

> <Gold.Chemscore.Rot>
2.0181

> <Gold.Chemscore.Internal.Correction>
   9.000000E+99

> <Gold.Chemscore.Hbonds>
donor molecule, donor type, donor heavy atom, donor atom, acceptor molecule, acceptor atom, score
      P1  H  7989  7998       L1     7  0.01
      P1  H  7997  8009       L1    11  0.84

> <Gold.Chemscore.Hbond.Weighted>
-3.1134

> <Gold.Chemscore.Metal.Weighted>
-0.0000

> <Gold.Chemscore.Lipo.Weighted>
-11.9423

> <Gold.Chemscore.Internal_Hbond.Weighted>
0.0000

> <Gold.Chemscore.DEClash.Weighted>
0.0009

> <Gold.Chemscore.DEInternal.Weighted>
0.7396

> <Gold.Chemscore.Rot.Weighted>
5.1663

> <Gold.Chemscore.Internal.Correction.Weighted>
   9.000000E+99

> <Gold.Protein.RotatedTorsions>
[ 6907 6896 6895 6894 ] final  -28.47 input  -60.11 | X-H torsion
[ 7974 7965 7964 7962 ] final  -13.36 input  175.53 | X-H torsion
[ 8008 7997 7996 7995 ] final  165.40 input   59.86 | X-H torsion
[ 10167 10162 10161 10158 ] final   23.81 input  -65.29 | X-H torsion
[ 10718 10713 10712 10709 ] final   63.05 input   66.30 | X-H torsion
[ 10763 10752 10751 10750 ] final  -86.62 input  -60.55 | X-H torsion
[ 11005 11000 10999 10996 ] final  -73.64 input  -57.11 | X-H torsion

> <Gold.Protein.ActiveResidues>
 VAL166  LYS551  ARG553  GLY616  TRP617  ASP618  TYR619  PRO620  LYS621  CYS622 
 ASP623  PHE694  ASN695  SER759  ASP760  ASP761  ALA762  ILE779  LEU786  VAL792 
 PHE793  MET794  SER795  GLU796  ALA797  LYS798  CYS799  TRP800  GLU811  SER814 

> <Gold.Protein.RotatedAtoms>
  151.1325  135.0137  159.8588 H   0  0  0  0  0  0  0  0  0  0  0  0  # atno 6907 bound_to 6896
  152.5451  134.1594  159.8561 H   0  0  0  0  0  0  0  0  0  0  0  0  # atno 6908 bound_to 6896
  151.1662  133.4768  159.2627 H   0  0  0  0  0  0  0  0  0  0  0  0  # atno 6909 bound_to 6896
  146.2117  140.3192  142.8389 H   0  0  0  0  0  0  0  0  0  0  0  0  # atno 7974 bound_to 7965
  156.1803  140.1671  156.8286 H   0  0  0  0  0  0  0  0  0  0  0  0  # atno 8008 bound_to 7997
  154.5353  140.0748  156.8449 H   0  0  0  0  0  0  0  0  0  0  0  0  # atno 8009 bound_to 7997
  155.3324  140.3380  155.4242 H   0  0  0  0  0  0  0  0  0  0  0  0  # atno 8010 bound_to 7997
  140.5239  143.9956  150.6430 H   0  0  0  0  0  0  0  0  0  0  0  0  # atno 10167 bound_to 10162
  157.5944  130.9084  149.9667 H   0  0  0  0  0  0  0  0  0  0  0  0  # atno 10718 bound_to 10713
  154.6245  135.5442  153.7612 H   0  0  0  0  0  0  0  0  0  0  0  0  # atno 10763 bound_to 10752
  153.0254  135.6421  154.1391 H   0  0  0  0  0  0  0  0  0  0  0  0  # atno 10764 bound_to 10752
  154.1324  135.2913  155.3162 H   0  0  0  0  0  0  0  0  0  0  0  0  # atno 10765 bound_to 10752
  141.1625  133.6885  156.7242 H   0  0  0  0  0  0  0  0  0  0  0  0  # atno 11005 bound_to 11000
  144.8932  140.7550  143.5913 LP  0  0  0  0  0  0  0  0  0  0  0  0  # atno 17320 bound_to 7965
  145.3116  139.1817  143.4636 LP  0  0  0  0  0  0  0  0  0  0  0  0  # atno 17321 bound_to 7965
  140.3313  143.3076  152.0685 LP  0  0  0  0  0  0  0  0  0  0  0  0  # atno 17342 bound_to 10162
  139.4932  144.6507  151.6681 LP  0  0  0  0  0  0  0  0  0  0  0  0  # atno 17343 bound_to 10162
  156.1004  130.3656  150.0228 LP  0  0  0  0  0  0  0  0  0  0  0  0  # atno 17370 bound_to 10713
  156.8344  130.9404  151.3635 LP  0  0  0  0  0  0  0  0  0  0  0  0  # atno 17371 bound_to 10713
  140.2793  134.8329  157.3919 LP  0  0  0  0  0  0  0  0  0  0  0  0  # atno 17394 bound_to 11000
  140.1448  134.4925  155.8004 LP  0  0  0  0  0  0  0  0  0  0  0  0  # atno 17395 bound_to 11000

$$$$
