AV-unprocessed.smi:3183|AV-procd|sdf|12155|dock4
  -GOLD-   2272017593D 1   1.00000     0.00000
 Structure written by MMmdl.
 43 44  0  0  0  0  0  0  0  0  2 V2000
  152.2538  144.0615  161.8443 C   0  0  0  0  0  0  0  0  0  0  0  0
  152.5205  143.8322  160.3460 C   0  0  2  0  0  0  0  0  0  0  0  0
  151.6943  144.8309  159.5107 C   0  0  0  0  0  0  0  0  0  0  0  0
  151.9315  144.6610  158.0021 C   0  0  0  0  0  0  0  0  0  0  0  0
  151.6574  143.2224  157.5339 C   0  0  2  0  0  0  0  0  0  0  0  0
  150.2087  142.9192  157.5753 N   0  3  0  0  0  0  0  0  0  0  0  0
  149.8004  141.7206  156.8164 C   0  0  0  0  0  0  0  0  0  0  0  0
  149.7666  142.0086  155.3082 C   0  0  0  0  0  0  0  0  0  0  0  0
  148.7349  141.2252  154.5542 C   0  0  0  0  0  0  0  0  0  0  0  0
  147.5480  141.6139  153.9944 C   0  0  0  0  0  0  0  0  0  0  0  0
  147.0234  140.4226  153.4229 C   0  0  0  0  0  0  0  0  0  0  0  0
  147.8143  139.3815  153.6096 N   0  0  0  0  0  0  0  0  0  0  0  0
  148.8645  139.8690  154.3026 N   0  0  0  0  0  0  0  0  0  0  0  0
  149.9299  138.9559  154.6712 C   0  0  0  0  0  0  0  0  0  0  0  0
  152.4553  142.2113  158.3770 C   0  0  0  0  0  0  0  0  0  0  0  0
  152.2353  142.3739  159.8979 C   0  0  1  0  0  0  0  0  0  0  0  0
  153.0839  141.3391  160.6584 C   0  0  0  0  0  0  0  0  0  0  0  0
  151.2300  143.7964  162.1107 H   0  0  0  0  0  0  0  0  0  0  0  0
  152.4049  145.1072  162.1136 H   0  0  0  0  0  0  0  0  0  0  0  0
  152.9264  143.4759  162.4704 H   0  0  0  0  0  0  0  0  0  0  0  0
  153.5757  144.0431  160.1651 H   0  0  0  0  0  0  0  0  0  0  0  0
  150.6331  144.7082  159.7323 H   0  0  0  0  0  0  0  0  0  0  0  0
  151.9471  145.8521  159.7986 H   0  0  0  0  0  0  0  0  0  0  0  0
  151.3151  145.3662  157.4429 H   0  0  0  0  0  0  0  0  0  0  0  0
  152.9669  144.9196  157.7763 H   0  0  0  0  0  0  0  0  0  0  0  0
  152.0000  143.1388  156.5012 H   0  0  0  0  0  0  0  0  0  0  0  0
  149.9400  142.7934  158.5408 H   0  0  0  0  0  0  0  0  0  0  0  0
  150.5003  140.9106  157.0273 H   0  0  0  0  0  0  0  0  0  0  0  0
  148.8152  141.4008  157.1588 H   0  0  0  0  0  0  0  0  0  0  0  0
  149.5859  143.0732  155.1534 H   0  0  0  0  0  0  0  0  0  0  0  0
  150.7496  141.8002  154.8836 H   0  0  0  0  0  0  0  0  0  0  0  0
  147.1134  142.6025  153.9909 H   0  0  0  0  0  0  0  0  0  0  0  0
  146.0986  140.2844  152.8823 H   0  0  0  0  0  0  0  0  0  0  0  0
  150.7148  139.4732  155.2216 H   0  0  0  0  0  0  0  0  0  0  0  0
  150.3637  138.5164  153.7725 H   0  0  0  0  0  0  0  0  0  0  0  0
  149.5295  138.1588  155.2983 H   0  0  0  0  0  0  0  0  0  0  0  0
  152.2023  141.1961  158.0674 H   0  0  0  0  0  0  0  0  0  0  0  0
  153.5172  142.3340  158.1579 H   0  0  0  0  0  0  0  0  0  0  0  0
  151.1882  142.1532  160.1107 H   0  0  0  0  0  0  0  0  0  0  0  0
  154.1495  141.5486  160.5588 H   0  0  0  0  0  0  0  0  0  0  0  0
  152.9086  140.3325  160.2782 H   0  0  0  0  0  0  0  0  0  0  0  0
  152.8439  141.3202  161.7213 H   0  0  0  0  0  0  0  0  0  0  0  0
  149.7089  143.7159  157.2068 H   0  0  0  0  0  0  0  0  0  0  0  0
  1  2  1  0  0  0  0
  1 18  1  0  0  0  0
  1 19  1  0  0  0  0
  1 20  1  0  0  0  0
  2 16  1  0  0  0  0
  2  3  1  0  0  0  0
  2 21  1  0  0  0  0
  3  4  1  0  0  0  0
  3 22  1  0  0  0  0
  3 23  1  0  0  0  0
  4  5  1  0  0  0  0
  4 24  1  0  0  0  0
  4 25  1  0  0  0  0
  5  6  1  0  0  0  0
  5 15  1  0  0  0  0
  5 26  1  0  0  0  0
  6  7  1  0  0  0  0
  6 27  1  0  0  0  0
  6 43  1  0  0  0  0
  7  8  1  0  0  0  0
  7 28  1  0  0  0  0
  7 29  1  0  0  0  0
  8  9  1  0  0  0  0
  8 30  1  0  0  0  0
  8 31  1  0  0  0  0
  9 13  1  0  0  0  0
  9 10  2  0  0  0  0
 10 11  1  0  0  0  0
 10 32  1  0  0  0  0
 11 12  2  0  0  0  0
 11 33  1  0  0  0  0
 12 13  1  0  0  0  0
 13 14  1  0  0  0  0
 14 34  1  0  0  0  0
 14 35  1  0  0  0  0
 14 36  1  0  0  0  0
 15 16  1  0  0  0  0
 15 37  1  0  0  0  0
 15 38  1  0  0  0  0
 16 17  1  0  0  0  0
 16 39  1  0  0  0  0
 17 40  1  0  0  0  0
 17 41  1  0  0  0  0
 17 42  1  0  0  0  0
M  CHG  1   6   1
M  END
> <s_m_source_file>
AV-unprocessed.smi

> <i_m_source_file_index>
3183

> <i_lp_mmshare_version>
43012

> <i_f3d_flags>
0

> <s_epik_input>
W0NIM11bQ0BASF0xW0NIMl1bQ0gyXVtDQEhdKFtDSDJdW0NASF0xW0NIM10pW05IXVtDSDJdW0NIMl1jMltjSF1bY0hdbm4yW0NIM10=

> <s_epik_cmdline>
J2VwaWtfcHl0aG9uJywgJy1waCcsICc3LjAnLCAnLXRuJywgJzgnLCAnLW1hJywgJzIwMCcsICctbWV0YWxfYmluZGluZycsICctaW1hZScsICc8aW5maWxlLm1hZT4nLCAnLW9tYWUnLCAnPG91dGZpbGUubWFlPic=

> <r_lp_tautomer_probability>
1

> <r_epik_Ionization_Penalty>
0.000327718

> <r_epik_Ionization_Penalty_Charging>
0.000294043

> <r_epik_Ionization_Penalty_Neutral>
3.36755e-05

> <r_epik_State_Penalty>
-0

> <r_epik_Charging_Adjusted_Penalty>
0.000294043

> <i_epik_Tot_Q>
1

> <i_epik_Tot_abs_Q>
1

> <r_epik_Metal_State_Penalty>
-0

> <b_epik_Metal_Only>
0

> <s_lp_Force_Field>
OPLS_2005

> <r_lp_Energy>
17.888

> <b_lp_Chiralities_Consistent>
1

> <s_lp_Variant>
AV-unprocessed.smi:3183-3

> <Gold.Version>
5.8.1

> <Gold.Id.Protein>
6NUR|6NUR_protein|mol2

> <Gold.PLP.Fitness>
50.3383

> <Gold.PLP.PLP>
-42.3483

> <Gold.PLP.part.hbond>
-1.0000

> <Gold.PLP.part.metal>
0.0000

> <Gold.PLP.part.buried>
-3.3984

> <Gold.PLP.part.nonpolar>
-38.5210

> <Gold.PLP.part.repulsive>
0.7018

> <Gold.PLP.ligand.clash>
0.0000

> <Gold.PLP.ligand.torsion>
0.5102

> <Gold.PLP.Chemscore.Hbond>
2.0000

> <Gold.PLP.Chemscore.CHOScore>
0.9978

> <Gold.PLP.Chemscore.Metal>
0.0000

> <Gold.Chemscore.Hbonds>
donor molecule, donor type, donor heavy atom, donor atom, acceptor molecule, acceptor atom, score
      L1  H     6    43       P1  8028  2.00
      L1  C    11    33       P1 10175  1.00

> <Gold.PLP.Chemscore.Internal.Correction>
0.0170

> <Gold.Rescore>
     Score         DG    S(hbond)    S(metal)    S(lipo)     H(rot)  DE(clash)    DE(int)     intcor
     19.93     -20.75       0.99        0.00     132.41       1.38       0.42       0.40       ----

> <Gold.Chemscore.Fitness>
19.9298

> <Gold.Chemscore.DG>
-20.7504

> <Gold.Chemscore.ZeroCoef>
-5.4800

> <Gold.Chemscore.Hbond>
0.9890

> <Gold.Chemscore.Metal>
0.0000

> <Gold.Chemscore.Lipo>
132.4086

> <Gold.Chemscore.Internal_Hbond>
0.0000

> <Gold.Chemscore.DEClash>
0.4245

> <Gold.Chemscore.DEInternal>
0.3961

> <Gold.Chemscore.Rot>
1.3768

> <Gold.Chemscore.Internal.Correction>
   9.000000E+99

> <Gold.Chemscore.Hbonds>
donor molecule, donor type, donor heavy atom, donor atom, acceptor molecule, acceptor atom, score
      L1  H     6    43       P1  8028  0.79

> <Gold.Chemscore.Hbond.Weighted>
-3.3033

> <Gold.Chemscore.Metal.Weighted>
-0.0000

> <Gold.Chemscore.Lipo.Weighted>
-15.4918

> <Gold.Chemscore.Internal_Hbond.Weighted>
0.0000

> <Gold.Chemscore.DEClash.Weighted>
0.4245

> <Gold.Chemscore.DEInternal.Weighted>
0.3961

> <Gold.Chemscore.Rot.Weighted>
3.5247

> <Gold.Chemscore.Internal.Correction.Weighted>
   9.000000E+99

> <Gold.Protein.RotatedTorsions>
[ 6907 6896 6895 6894 ] final  129.69 input  -60.11 | X-H torsion
[ 7974 7965 7964 7962 ] final -155.84 input  175.53 | X-H torsion
[ 8008 7997 7996 7995 ] final    6.32 input   59.86 | X-H torsion
[ 10167 10162 10161 10158 ] final  -87.41 input  -65.29 | X-H torsion
[ 10718 10713 10712 10709 ] final   46.75 input   66.30 | X-H torsion
[ 10763 10752 10751 10750 ] final -102.20 input  -60.55 | X-H torsion
[ 11005 11000 10999 10996 ] final  172.16 input  -57.11 | X-H torsion

> <Gold.Protein.ActiveResidues>
 VAL166  LYS551  ARG553  GLY616  TRP617  ASP618  TYR619  PRO620  LYS621  CYS622 
 ASP623  PHE694  ASN695  SER759  ASP760  ASP761  ALA762  ILE779  LEU786  VAL792 
 PHE793  MET794  SER795  GLU796  ALA797  LYS798  CYS799  TRP800  GLU811  SER814 

> <Gold.Protein.RotatedAtoms>
  152.3599  133.6283  159.6006 H   0  0  0  0  0  0  0  0  0  0  0  0  # atno 6907 bound_to 6896
  150.7594  133.9440  159.3474 H   0  0  0  0  0  0  0  0  0  0  0  0  # atno 6908 bound_to 6896
  151.7280  135.0881  160.0346 H   0  0  0  0  0  0  0  0  0  0  0  0  # atno 6909 bound_to 6896
  144.7621  140.4194  143.5969 H   0  0  0  0  0  0  0  0  0  0  0  0  # atno 7974 bound_to 7965
  154.7396  140.2746  155.6385 H   0  0  0  0  0  0  0  0  0  0  0  0  # atno 8008 bound_to 7997
  156.2870  140.2700  156.2045 H   0  0  0  0  0  0  0  0  0  0  0  0  # atno 8009 bound_to 7997
  155.0276  140.0371  157.2451 H   0  0  0  0  0  0  0  0  0  0  0  0  # atno 8010 bound_to 7997
  140.3848  143.2732  151.9339 H   0  0  0  0  0  0  0  0  0  0  0  0  # atno 10167 bound_to 10162
  157.4513  130.8140  149.7792 H   0  0  0  0  0  0  0  0  0  0  0  0  # atno 10718 bound_to 10713
  154.7716  135.4869  153.9660 H   0  0  0  0  0  0  0  0  0  0  0  0  # atno 10763 bound_to 10752
  153.1375  135.6765  153.9088 H   0  0  0  0  0  0  0  0  0  0  0  0  # atno 10764 bound_to 10752
  153.8772  135.3136  155.3422 H   0  0  0  0  0  0  0  0  0  0  0  0  # atno 10765 bound_to 10752
  140.3267  134.7391  157.4104 H   0  0  0  0  0  0  0  0  0  0  0  0  # atno 11005 bound_to 11000
  145.6586  139.1577  143.2821 LP  0  0  0  0  0  0  0  0  0  0  0  0  # atno 17320 bound_to 7965
  146.1694  140.6668  142.9240 LP  0  0  0  0  0  0  0  0  0  0  0  0  # atno 17321 bound_to 7965
  139.4793  144.5784  151.7973 LP  0  0  0  0  0  0  0  0  0  0  0  0  # atno 17342 bound_to 10162
  140.4901  144.1323  150.5948 LP  0  0  0  0  0  0  0  0  0  0  0  0  # atno 17343 bound_to 10162
  155.9988  130.3892  150.2686 LP  0  0  0  0  0  0  0  0  0  0  0  0  # atno 17370 bound_to 10713
  157.0858  131.0156  151.3140 LP  0  0  0  0  0  0  0  0  0  0  0  0  # atno 17371 bound_to 10713
  140.0895  134.5620  155.8458 LP  0  0  0  0  0  0  0  0  0  0  0  0  # atno 17394 bound_to 11000
  141.2073  133.6663  156.6299 LP  0  0  0  0  0  0  0  0  0  0  0  0  # atno 17395 bound_to 11000

$$$$
