AV-unprocessed.smi:528|AV-procd|sdf|2833|dock2
  -GOLD-   2262023323D 1   1.00000     0.00000
 Structure written by MMmdl.
 45 47  0  0  0  0  0  0  0  0  1 V2000
  150.5296  141.3467  156.8903 C   0  0  0  0  0  0  0  0  0  0  0  0
  151.7337  141.1106  157.8190 C   0  0  2  0  0  0  0  0  0  0  0  0
  151.8307  139.6783  158.0973 N   0  0  0  0  0  0  0  0  0  0  0  0
  152.6023  138.8017  157.4366 C   0  0  0  0  0  0  0  0  0  0  0  0
  153.3501  139.1217  156.5114 O   0  0  0  0  0  0  0  0  0  0  0  0
  152.5103  137.3442  157.9122 C   0  0  0  0  0  0  0  0  0  0  0  0
  153.6742  136.9043  158.7005 N   0  0  0  0  0  0  0  0  0  0  0  0
  153.7526  137.3537  160.0335 C   0  0  0  0  0  0  0  0  0  0  0  0
  154.7562  137.0128  160.8647 C   0  0  0  0  0  0  0  0  0  0  0  0
  154.8423  137.5583  162.2818 C   0  0  0  0  0  0  0  0  0  0  0  0
  155.9573  137.1487  162.8869 F   0  0  0  0  0  0  0  0  0  0  0  0
  154.8280  138.8918  162.2874 F   0  0  0  0  0  0  0  0  0  0  0  0
  153.8018  137.1299  162.9952 F   0  0  0  0  0  0  0  0  0  0  0  0
  155.7972  136.1716  160.3077 C   0  0  0  0  0  0  0  0  0  0  0  0
  155.7443  135.7432  159.0313 C   0  0  0  0  0  0  0  0  0  0  0  0
  154.6345  136.1047  158.1464 C   0  0  0  0  0  0  0  0  0  0  0  0
  154.5723  135.7148  156.9801 O   0  0  0  0  0  0  0  0  0  0  0  0
  151.6327  141.8911  159.1531 C   0  0  1  0  0  0  0  0  0  0  0  0
  152.7541  141.5369  160.1629 C   0  0  0  0  0  0  0  0  0  0  0  0
  153.3575  142.9066  160.5209 C   0  0  2  0  0  0  0  0  0  0  0  0
  152.3458  143.7132  161.3548 C   0  0  0  0  0  0  0  0  0  0  0  0
  151.2799  144.0973  160.3119 C   0  0  0  0  0  0  0  0  0  0  0  0
  151.8033  143.4269  159.0269 C   0  0  1  0  0  0  0  0  0  0  0  0
  153.3086  143.6224  159.1783 C   0  0  0  0  0  0  0  0  0  0  0  0
  150.4603  142.3853  156.5703 H   0  0  0  0  0  0  0  0  0  0  0  0
  149.5920  141.0848  157.3817 H   0  0  0  0  0  0  0  0  0  0  0  0
  150.6089  140.7421  155.9861 H   0  0  0  0  0  0  0  0  0  0  0  0
  152.6338  141.4401  157.2977 H   0  0  0  0  0  0  0  0  0  0  0  0
  151.2544  139.3253  158.8475 H   0  0  0  0  0  0  0  0  0  0  0  0
  151.5922  137.2332  158.4907 H   0  0  0  0  0  0  0  0  0  0  0  0
  152.3797  136.6937  157.0450 H   0  0  0  0  0  0  0  0  0  0  0  0
  152.9440  138.0028  160.3371 H   0  0  0  0  0  0  0  0  0  0  0  0
  156.6333  135.8777  160.9252 H   0  0  0  0  0  0  0  0  0  0  0  0
  156.5375  135.1171  158.6502 H   0  0  0  0  0  0  0  0  0  0  0  0
  150.6608  141.6699  159.5979 H   0  0  0  0  0  0  0  0  0  0  0  0
  152.3721  141.0103  161.0379 H   0  0  0  0  0  0  0  0  0  0  0  0
  153.5198  140.9064  159.7084 H   0  0  0  0  0  0  0  0  0  0  0  0
  154.3474  142.8435  160.9736 H   0  0  0  0  0  0  0  0  0  0  0  0
  151.9322  143.1296  162.1780 H   0  0  0  0  0  0  0  0  0  0  0  0
  152.8099  144.6060  161.7754 H   0  0  0  0  0  0  0  0  0  0  0  0
  150.2821  143.7545  160.5874 H   0  0  0  0  0  0  0  0  0  0  0  0
  151.2372  145.1806  160.1917 H   0  0  0  0  0  0  0  0  0  0  0  0
  151.3777  143.8631  158.1243 H   0  0  0  0  0  0  0  0  0  0  0  0
  153.6047  144.6715  159.2374 H   0  0  0  0  0  0  0  0  0  0  0  0
  153.8952  143.1300  158.4012 H   0  0  0  0  0  0  0  0  0  0  0  0
  1  2  1  0  0  0  0
  1 25  1  0  0  0  0
  1 26  1  0  0  0  0
  1 27  1  0  0  0  0
  2  3  1  0  0  0  0
  2 18  1  0  0  0  0
  2 28  1  0  0  0  0
  3  4  1  0  0  0  0
  3 29  1  0  0  0  0
  4  5  2  0  0  0  0
  4  6  1  0  0  0  0
  6  7  1  0  0  0  0
  6 30  1  0  0  0  0
  6 31  1  0  0  0  0
  7 16  1  0  0  0  0
  7  8  1  0  0  0  0
  8  9  2  0  0  0  0
  8 32  1  0  0  0  0
  9 10  1  0  0  0  0
  9 14  1  0  0  0  0
 10 11  1  0  0  0  0
 10 12  1  0  0  0  0
 10 13  1  0  0  0  0
 14 15  2  0  0  0  0
 14 33  1  0  0  0  0
 15 16  1  0  0  0  0
 15 34  1  0  0  0  0
 16 17  2  0  0  0  0
 18 23  1  0  0  0  0
 18 19  1  0  0  0  0
 18 35  1  0  0  0  0
 19 20  1  0  0  0  0
 19 36  1  0  0  0  0
 19 37  1  0  0  0  0
 20 24  1  0  0  0  0
 20 21  1  0  0  0  0
 20 38  1  0  0  0  0
 21 22  1  0  0  0  0
 21 39  1  0  0  0  0
 21 40  1  0  0  0  0
 22 23  1  0  0  0  0
 22 41  1  0  0  0  0
 22 42  1  0  0  0  0
 23 24  1  0  0  0  0
 23 43  1  0  0  0  0
 24 44  1  0  0  0  0
 24 45  1  0  0  0  0
M  END
> <s_m_source_file>
AV-unprocessed.smi

> <i_m_source_file_index>
528

> <i_lp_mmshare_version>
43012

> <i_f3d_flags>
0

> <s_epik_input>
W0NIMl0xW0NIMl1bQ0BASF0oW0NIMl0yKVtDQEBIXShbQ0gyXVtDQEhdMTIpW0NASF0oW0NIM10pW05IXUMoPU8pW0NIMl1uM1tjSF1jKEMoRikoRilGKVtjSF1bY0hdYzM9Tw==

> <s_epik_cmdline>
J2VwaWtfcHl0aG9uJywgJy1waCcsICc3LjAnLCAnLXRuJywgJzgnLCAnLW1hJywgJzIwMCcsICctbWV0YWxfYmluZGluZycsICctaW1hZScsICc8aW5maWxlLm1hZT4nLCAnLW9tYWUnLCAnPG91dGZpbGUubWFlPic=

> <r_lp_tautomer_probability>
1

> <r_epik_Ionization_Penalty>
4.09479e-08

> <r_epik_Ionization_Penalty_Charging>
1.9321e-08

> <r_epik_Ionization_Penalty_Neutral>
2.16269e-08

> <r_epik_State_Penalty>
-0

> <r_epik_Charging_Adjusted_Penalty>
1.9321e-08

> <i_epik_Tot_Q>
0

> <i_epik_Tot_abs_Q>
0

> <r_epik_Metal_State_Penalty>
-0

> <b_epik_Metal_Only>
0

> <s_lp_Force_Field>
OPLS_2005

> <r_lp_Energy>
62.8308

> <b_lp_Chiralities_Consistent>
1

> <s_lp_Variant>
AV-unprocessed.smi:528-3

> <Gold.Version>
5.8.1

> <Gold.Id.Protein>
6NUR|6NUR_protein|mol2

> <Gold.PLP.Fitness>
46.7585

> <Gold.PLP.PLP>
-42.3342

> <Gold.PLP.part.hbond>
-2.0000

> <Gold.PLP.part.metal>
0.0000

> <Gold.PLP.part.buried>
-5.8937

> <Gold.PLP.part.nonpolar>
-34.1619

> <Gold.PLP.part.repulsive>
0.0842

> <Gold.PLP.ligand.clash>
0.0000

> <Gold.PLP.ligand.torsion>
0.8335

> <Gold.PLP.Chemscore.Hbond>
2.0000

> <Gold.PLP.Chemscore.CHOScore>
0.0000

> <Gold.PLP.Chemscore.Metal>
0.0000

> <Gold.Chemscore.Hbonds>
donor molecule, donor type, donor heavy atom, donor atom, acceptor molecule, acceptor atom, score
      P1  H  7997  8010       L1     5  0.68
      P1  H 10752 10763       L1    17  1.00

> <Gold.PLP.Chemscore.Internal.Correction>
0.0913

> <Gold.Rescore>
     Score         DG    S(hbond)    S(metal)    S(lipo)     H(rot)  DE(clash)    DE(int)     intcor
     20.37     -21.21       1.95        0.00     116.26       1.71       0.00       0.84       ----

> <Gold.Chemscore.Fitness>
20.3699

> <Gold.Chemscore.DG>
-21.2097

> <Gold.Chemscore.ZeroCoef>
-5.4800

> <Gold.Chemscore.Hbond>
1.9496

> <Gold.Chemscore.Metal>
0.0000

> <Gold.Chemscore.Lipo>
116.2558

> <Gold.Chemscore.Internal_Hbond>
0.0000

> <Gold.Chemscore.DEClash>
0.0000

> <Gold.Chemscore.DEInternal>
0.8398

> <Gold.Chemscore.Rot>
1.7125

> <Gold.Chemscore.Internal.Correction>
   9.000000E+99

> <Gold.Chemscore.Hbonds>
donor molecule, donor type, donor heavy atom, donor atom, acceptor molecule, acceptor atom, score
      P1  H  7997  8010       L1     5  0.68
      P1  H 10752 10763       L1    17  1.00

> <Gold.Chemscore.Hbond.Weighted>
-6.5118

> <Gold.Chemscore.Metal.Weighted>
-0.0000

> <Gold.Chemscore.Lipo.Weighted>
-13.6019

> <Gold.Chemscore.Internal_Hbond.Weighted>
0.0000

> <Gold.Chemscore.DEClash.Weighted>
0.0000

> <Gold.Chemscore.DEInternal.Weighted>
0.8398

> <Gold.Chemscore.Rot.Weighted>
4.3840

> <Gold.Chemscore.Internal.Correction.Weighted>
   9.000000E+99

> <Gold.Protein.RotatedTorsions>
[ 6907 6896 6895 6894 ] final   24.71 input  -60.11 | X-H torsion
[ 7974 7965 7964 7962 ] final   70.69 input  175.53 | X-H torsion
[ 8008 7997 7996 7995 ] final   76.60 input   59.86 | X-H torsion
[ 10167 10162 10161 10158 ] final  137.09 input  -65.29 | X-H torsion
[ 10718 10713 10712 10709 ] final -111.53 input   66.30 | X-H torsion
[ 10763 10752 10751 10750 ] final  166.78 input  -60.55 | X-H torsion
[ 11005 11000 10999 10996 ] final  -61.24 input  -57.11 | X-H torsion

> <Gold.Protein.ActiveResidues>
 VAL166  LYS551  ARG553  GLY616  TRP617  ASP618  TYR619  PRO620  LYS621  CYS622 
 ASP623  PHE694  ASN695  SER759  ASP760  ASP761  ALA762  ILE779  LEU786  VAL792 
 PHE793  MET794  SER795  GLU796  ALA797  LYS798  CYS799  TRP800  GLU811  SER814 

> <Gold.Protein.RotatedAtoms>
  151.9617  135.0120  160.0547 H   0  0  0  0  0  0  0  0  0  0  0  0  # atno 6907 bound_to 6896
  152.1863  133.4737  159.4993 H   0  0  0  0  0  0  0  0  0  0  0  0  # atno 6908 bound_to 6896
  150.6926  134.1687  159.4247 H   0  0  0  0  0  0  0  0  0  0  0  0  # atno 6909 bound_to 6896
  145.7751  139.2861  143.1298 H   0  0  0  0  0  0  0  0  0  0  0  0  # atno 7974 bound_to 7965
  155.8296  140.3466  155.5564 H   0  0  0  0  0  0  0  0  0  0  0  0  # atno 8008 bound_to 7997
  155.8256  140.0919  157.1843 H   0  0  0  0  0  0  0  0  0  0  0  0  # atno 8009 bound_to 7997
  154.4004  140.1422  156.3540 H   0  0  0  0  0  0  0  0  0  0  0  0  # atno 8010 bound_to 7997
  139.5156  144.6429  151.5520 H   0  0  0  0  0  0  0  0  0  0  0  0  # atno 10167 bound_to 10162
  156.0652  130.5872  150.8385 H   0  0  0  0  0  0  0  0  0  0  0  0  # atno 10718 bound_to 10713
  154.3440  135.2753  155.2407 H   0  0  0  0  0  0  0  0  0  0  0  0  # atno 10763 bound_to 10752
  154.4665  135.5894  153.6295 H   0  0  0  0  0  0  0  0  0  0  0  0  # atno 10764 bound_to 10752
  152.9855  135.6078  154.3644 H   0  0  0  0  0  0  0  0  0  0  0  0  # atno 10765 bound_to 10752
  141.1317  133.6628  156.5345 H   0  0  0  0  0  0  0  0  0  0  0  0  # atno 11005 bound_to 11000
  146.0131  140.8417  142.9961 LP  0  0  0  0  0  0  0  0  0  0  0  0  # atno 17320 bound_to 7965
  144.6806  140.2518  143.7330 LP  0  0  0  0  0  0  0  0  0  0  0  0  # atno 17321 bound_to 7965
  140.6203  143.9272  150.6520 LP  0  0  0  0  0  0  0  0  0  0  0  0  # atno 17342 bound_to 10162
  140.2543  143.3570  152.1379 LP  0  0  0  0  0  0  0  0  0  0  0  0  # atno 17343 bound_to 10162
  157.5689  131.0946  150.9448 LP  0  0  0  0  0  0  0  0  0  0  0  0  # atno 17370 bound_to 10713
  156.9669  130.5476  149.5288 LP  0  0  0  0  0  0  0  0  0  0  0  0  # atno 17371 bound_to 10713
  140.4189  134.7205  157.4878 LP  0  0  0  0  0  0  0  0  0  0  0  0  # atno 17394 bound_to 11000
  140.0374  134.6317  155.9025 LP  0  0  0  0  0  0  0  0  0  0  0  0  # atno 17395 bound_to 11000

$$$$
