AV-unprocessed.smi:3001|AV-procd|sdf|11432|dock1
  -GOLD-   2272016363D 1   1.00000     0.00000
 Structure written by MMmdl.
 42 43  0  0  0  0  0  0  0  0  2 V2000
  147.0238  140.8203  152.8009 C   0  0  0  0  0  0  0  0  0  0  0  0
  147.7674  140.6504  153.7543 C   0  0  0  0  0  0  0  0  0  0  0  0
  148.6556  140.4375  154.9092 C   0  0  0  0  0  0  0  0  0  0  0  0
  149.5026  139.2599  154.7566 N   0  0  0  0  0  0  0  0  0  0  0  0
  150.8420  139.2473  154.8423 C   0  0  0  0  0  0  0  0  0  0  0  0
  151.5171  140.2566  155.0504 O   0  0  0  0  0  0  0  0  0  0  0  0
  151.5156  137.8847  154.6382 C   0  0  0  0  0  0  0  0  0  0  0  0
  150.5832  136.8527  154.1906 N   0  0  0  0  0  0  0  0  0  0  0  0
  150.5270  135.6045  154.6776 C   0  0  0  0  0  0  0  0  0  0  0  0
  151.2443  135.1960  155.5910 O   0  0  0  0  0  0  0  0  0  0  0  0
  149.6123  134.8660  154.0277 N   0  0  0  0  0  0  0  0  0  0  0  0
  149.3308  133.4828  154.2077 C   0  0  0  0  0  0  0  0  0  0  0  0
  150.1824  132.6632  154.9917 C   0  0  0  0  0  0  0  0  0  0  0  0
  149.8493  131.3142  155.2151 C   0  0  0  0  0  0  0  0  0  0  0  0
  148.6596  130.8080  154.6648 C   0  0  0  0  0  0  0  0  0  0  0  0
  147.8639  131.6161  153.9344 N   0  3  0  0  0  0  0  0  0  0  0  0
  148.1372  132.9187  153.6705 C   0  0  0  0  0  0  0  0  0  0  0  0
  147.2141  133.6382  152.8773 N   0  0  0  0  0  0  0  0  0  0  0  0
  145.8970  133.9783  153.4027 C   0  0  0  0  0  0  0  0  0  0  0  0
  145.0863  134.4168  152.1863 C   0  0  0  0  0  0  0  0  0  0  0  0
  145.6274  133.5079  151.0868 C   0  0  0  0  0  0  0  0  0  0  0  0
  147.1044  133.3316  151.4544 C   0  0  0  0  0  0  0  0  0  0  0  0
  146.3722  140.9672  151.9689 H   0  0  0  0  0  0  0  0  0  0  0  0
  149.2489  141.3396  155.0651 H   0  0  0  0  0  0  0  0  0  0  0  0
  148.0310  140.3089  155.7930 H   0  0  0  0  0  0  0  0  0  0  0  0
  149.0329  138.3847  154.5749 H   0  0  0  0  0  0  0  0  0  0  0  0
  152.3418  137.9746  153.9304 H   0  0  0  0  0  0  0  0  0  0  0  0
  151.9490  137.5679  155.5871 H   0  0  0  0  0  0  0  0  0  0  0  0
  149.9610  137.1018  153.4359 H   0  0  0  0  0  0  0  0  0  0  0  0
  149.1642  135.3057  153.2371 H   0  0  0  0  0  0  0  0  0  0  0  0
  151.0794  133.0569  155.4453 H   0  0  0  0  0  0  0  0  0  0  0  0
  150.4919  130.6820  155.8105 H   0  0  0  0  0  0  0  0  0  0  0  0
  148.3197  129.7899  154.7883 H   0  0  0  0  0  0  0  0  0  0  0  0
  145.4307  133.1032  153.8571 H   0  0  0  0  0  0  0  0  0  0  0  0
  145.9581  134.7661  154.1539 H   0  0  0  0  0  0  0  0  0  0  0  0
  144.0106  134.3178  152.3340 H   0  0  0  0  0  0  0  0  0  0  0  0
  145.3024  135.4593  151.9482 H   0  0  0  0  0  0  0  0  0  0  0  0
  145.1207  132.5427  151.1288 H   0  0  0  0  0  0  0  0  0  0  0  0
  145.4860  133.9178  150.0866 H   0  0  0  0  0  0  0  0  0  0  0  0
  147.7132  134.0426  150.8953 H   0  0  0  0  0  0  0  0  0  0  0  0
  147.4541  132.3252  151.2203 H   0  0  0  0  0  0  0  0  0  0  0  0
  147.0070  131.2190  153.5491 H   0  0  0  0  0  0  0  0  0  0  0  0
  1  2  3  0  0  0  0
  1 23  1  0  0  0  0
  2  3  1  0  0  0  0
  3  4  1  0  0  0  0
  3 24  1  0  0  0  0
  3 25  1  0  0  0  0
  4  5  1  0  0  0  0
  4 26  1  0  0  0  0
  5  6  2  0  0  0  0
  5  7  1  0  0  0  0
  7  8  1  0  0  0  0
  7 27  1  0  0  0  0
  7 28  1  0  0  0  0
  8  9  1  0  0  0  0
  8 29  1  0  0  0  0
  9 10  2  0  0  0  0
  9 11  1  0  0  0  0
 11 12  1  0  0  0  0
 11 30  1  0  0  0  0
 12 17  1  0  0  0  0
 12 13  2  0  0  0  0
 13 14  1  0  0  0  0
 13 31  1  0  0  0  0
 14 15  2  0  0  0  0
 14 32  1  0  0  0  0
 15 16  1  0  0  0  0
 15 33  1  0  0  0  0
 16 17  2  0  0  0  0
 16 42  1  0  0  0  0
 17 18  1  0  0  0  0
 18 22  1  0  0  0  0
 18 19  1  0  0  0  0
 19 20  1  0  0  0  0
 19 34  1  0  0  0  0
 19 35  1  0  0  0  0
 20 21  1  0  0  0  0
 20 36  1  0  0  0  0
 20 37  1  0  0  0  0
 21 22  1  0  0  0  0
 21 38  1  0  0  0  0
 21 39  1  0  0  0  0
 22 40  1  0  0  0  0
 22 41  1  0  0  0  0
M  CHG  1  16   1
M  END
> <s_m_source_file>
AV-unprocessed.smi

> <i_m_source_file_index>
3001

> <i_lp_mmshare_version>
43012

> <i_f3d_flags>
0

> <s_epik_input>
W0NIXSNDW0NIMl1bTkhdQyg9TylbQ0gyXVtOSF1DKD1PKVtOSF1jMVtjSF1bY0hdW2NIXW5jMU4yW0NIMl1bQ0gyXVtDSDJdW0NIMl0y

> <s_epik_cmdline>
J2VwaWtfcHl0aG9uJywgJy1waCcsICc3LjAnLCAnLXRuJywgJzgnLCAnLW1hJywgJzIwMCcsICctbWV0YWxfYmluZGluZycsICctaW1hZScsICc8aW5maWxlLm1hZT4nLCAnLW9tYWUnLCAnPG91dGZpbGUubWFlPic=

> <r_lp_tautomer_probability>
0.999994

> <r_epik_Ionization_Penalty>
0.644915

> <r_epik_Ionization_Penalty_Charging>
0.644896

> <r_epik_Ionization_Penalty_Neutral>
1.90142e-05

> <r_epik_State_Penalty>
0.662902

> <r_epik_Charging_Adjusted_Penalty>
1.3078

> <i_epik_Tot_Q>
1

> <i_epik_Tot_abs_Q>
1

> <r_epik_Metal_State_Penalty>
0.837036

> <b_epik_Metal_Only>
0

> <s_lp_Force_Field>
OPLS_2005

> <r_lp_Energy>
32.9475

> <b_lp_Chiralities_Consistent>
1

> <s_lp_Variant>
AV-unprocessed.smi:3001-2

> <Gold.Version>
5.8.1

> <Gold.Id.Protein>
6NUR|6NUR_protein|mol2

> <Gold.PLP.Fitness>
45.9702

> <Gold.PLP.PLP>
-35.0249

> <Gold.PLP.part.hbond>
-5.3983

> <Gold.PLP.part.metal>
0.0000

> <Gold.PLP.part.buried>
-1.9111

> <Gold.PLP.part.nonpolar>
-27.8768

> <Gold.PLP.part.repulsive>
0.4100

> <Gold.PLP.ligand.clash>
0.0000

> <Gold.PLP.ligand.torsion>
0.4160

> <Gold.PLP.Chemscore.Hbond>
3.7929

> <Gold.PLP.Chemscore.CHOScore>
0.0000

> <Gold.PLP.Chemscore.Metal>
0.0000

> <Gold.Chemscore.Hbonds>
donor molecule, donor type, donor heavy atom, donor atom, acceptor molecule, acceptor atom, score
      L1  H     8    29       P1  7948  0.80
      L1  H    11    30       P1  7948  0.95
      P1  H  7989  7998       L1     6  0.99
      P1  H 10752 10763       L1    10  1.00

> <Gold.PLP.Chemscore.Internal.Correction>
0.3988

> <Gold.Rescore>
     Score         DG    S(hbond)    S(metal)    S(lipo)     H(rot)  DE(clash)    DE(int)     intcor
     14.58     -16.54       2.49        0.00      64.09       1.85       0.04       1.92       ----

> <Gold.Chemscore.Fitness>
14.5820

> <Gold.Chemscore.DG>
-16.5429

> <Gold.Chemscore.ZeroCoef>
-5.4800

> <Gold.Chemscore.Hbond>
2.4887

> <Gold.Chemscore.Metal>
0.0000

> <Gold.Chemscore.Lipo>
64.0917

> <Gold.Chemscore.Internal_Hbond>
0.0000

> <Gold.Chemscore.DEClash>
0.0437

> <Gold.Chemscore.DEInternal>
1.9172

> <Gold.Chemscore.Rot>
1.8547

> <Gold.Chemscore.Internal.Correction>
   9.000000E+99

> <Gold.Chemscore.Hbonds>
donor molecule, donor type, donor heavy atom, donor atom, acceptor molecule, acceptor atom, score
      L1  H     8    29       P1  7948  0.26
      L1  H    11    30       P1  7948  0.21
      P1  H  7989  7998       L1     6  0.28
      P1  H 10752 10763       L1    10  0.38

> <Gold.Chemscore.Hbond.Weighted>
-8.3121

> <Gold.Chemscore.Metal.Weighted>
-0.0000

> <Gold.Chemscore.Lipo.Weighted>
-7.4987

> <Gold.Chemscore.Internal_Hbond.Weighted>
0.0000

> <Gold.Chemscore.DEClash.Weighted>
0.0437

> <Gold.Chemscore.DEInternal.Weighted>
1.9172

> <Gold.Chemscore.Rot.Weighted>
4.7479

> <Gold.Chemscore.Internal.Correction.Weighted>
   9.000000E+99

> <Gold.Protein.RotatedTorsions>
[ 6907 6896 6895 6894 ] final  -16.80 input  -60.11 | X-H torsion
[ 7974 7965 7964 7962 ] final  100.24 input  175.53 | X-H torsion
[ 8008 7997 7996 7995 ] final  -87.61 input   59.86 | X-H torsion
[ 10167 10162 10161 10158 ] final  148.78 input  -65.29 | X-H torsion
[ 10718 10713 10712 10709 ] final   62.31 input   66.30 | X-H torsion
[ 10763 10752 10751 10750 ] final   78.26 input  -60.55 | X-H torsion
[ 11005 11000 10999 10996 ] final  135.59 input  -57.11 | X-H torsion

> <Gold.Protein.ActiveResidues>
 VAL166  LYS551  ARG553  GLY616  TRP617  ASP618  TYR619  PRO620  LYS621  CYS622 
 ASP623  PHE694  ASN695  SER759  ASP760  ASP761  ALA762  ILE779  LEU786  VAL792 
 PHE793  MET794  SER795  GLU796  ALA797  LYS798  CYS799  TRP800  GLU811  SER814 

> <Gold.Protein.RotatedAtoms>
  151.3030  135.0774  159.9245 H   0  0  0  0  0  0  0  0  0  0  0  0  # atno 6907 bound_to 6896
  152.5293  133.9814  159.7818 H   0  0  0  0  0  0  0  0  0  0  0  0  # atno 6908 bound_to 6896
  151.0104  133.5919  159.2714 H   0  0  0  0  0  0  0  0  0  0  0  0  # atno 6909 bound_to 6896
  145.3882  139.2367  143.3366 H   0  0  0  0  0  0  0  0  0  0  0  0  # atno 7974 bound_to 7965
  154.6653  140.0563  157.0106 H   0  0  0  0  0  0  0  0  0  0  0  0  # atno 8008 bound_to 7997
  155.1169  140.3243  155.4488 H   0  0  0  0  0  0  0  0  0  0  0  0  # atno 8009 bound_to 7997
  156.2635  140.2004  156.6292 H   0  0  0  0  0  0  0  0  0  0  0  0  # atno 8010 bound_to 7997
  139.4870  144.5653  151.7156 H   0  0  0  0  0  0  0  0  0  0  0  0  # atno 10167 bound_to 10162
  157.5891  130.9043  149.9572 H   0  0  0  0  0  0  0  0  0  0  0  0  # atno 10718 bound_to 10713
  153.0861  135.4883  154.8599 H   0  0  0  0  0  0  0  0  0  0  0  0  # atno 10763 bound_to 10752
  154.7212  135.3040  154.9047 H   0  0  0  0  0  0  0  0  0  0  0  0  # atno 10764 bound_to 10752
  153.9710  135.6801  153.4800 H   0  0  0  0  0  0  0  0  0  0  0  0  # atno 10765 bound_to 10752
  139.9989  134.9486  157.0028 H   0  0  0  0  0  0  0  0  0  0  0  0  # atno 11005 bound_to 11000
  146.2810  140.4561  142.8776 LP  0  0  0  0  0  0  0  0  0  0  0  0  # atno 17320 bound_to 7965
  144.8459  140.6928  143.6199 LP  0  0  0  0  0  0  0  0  0  0  0  0  # atno 17321 bound_to 7965
  140.5230  144.0849  150.6028 LP  0  0  0  0  0  0  0  0  0  0  0  0  # atno 17342 bound_to 10162
  140.3813  143.2801  152.0167 LP  0  0  0  0  0  0  0  0  0  0  0  0  # atno 17343 bound_to 10162
  156.0944  130.3660  150.0334 LP  0  0  0  0  0  0  0  0  0  0  0  0  # atno 17370 bound_to 10713
  156.8460  130.9442  151.3629 LP  0  0  0  0  0  0  0  0  0  0  0  0  # atno 17371 bound_to 10713
  140.4765  134.1333  155.7210 LP  0  0  0  0  0  0  0  0  0  0  0  0  # atno 17394 bound_to 11000
  141.1627  133.8763  157.1804 LP  0  0  0  0  0  0  0  0  0  0  0  0  # atno 17395 bound_to 11000

$$$$
