AV-unprocessed.smi:513|AV-procd|sdf|2774|dock6
  -GOLD-   2262023243D 1   1.00000     0.00000
 Structure written by MMmdl.
 42 44  0  0  0  0  0  0  0  0  3 V2000
  150.2555  137.9354  158.7108 C   0  0  0  0  0  0  0  0  0  0  0  0
  151.1459  136.8475  158.5364 O   0  0  0  0  0  0  0  0  0  0  0  0
  152.5034  137.2331  158.6660 C   0  0  0  0  0  0  0  0  0  0  0  0
  152.8581  138.1923  157.5241 C   0  0  0  0  0  0  0  0  0  0  0  0
  152.3519  139.5384  157.7826 N   0  0  0  0  0  0  0  0  0  0  0  0
  151.6157  140.3352  156.9598 C   0  0  0  0  0  0  0  0  0  0  0  0
  151.2109  139.9283  155.6868 N   0  0  0  0  0  0  0  0  0  0  0  0
  152.0522  139.1411  154.7889 C   0  0  0  0  0  0  0  0  0  0  0  0
  151.2863  137.9328  154.2197 C   0  0  0  0  0  0  0  0  0  0  0  0
  150.0501  138.3715  153.5389 N   0  3  0  0  0  0  0  0  0  0  0  0
  149.2103  139.2403  154.3892 C   0  0  0  0  0  0  0  0  0  0  0  0
  150.0423  140.4084  154.9503 C   0  0  0  0  0  0  0  0  0  0  0  0
  151.3649  141.5529  157.4432 N   0  0  0  0  0  0  0  0  0  0  0  0
  151.9744  141.5268  158.6879 C   0  0  0  0  0  0  0  0  0  0  0  0
  152.5889  140.3338  158.9093 C   0  0  0  0  0  0  0  0  0  0  0  0
  153.3726  140.0284  160.1276 C   0  0  0  0  0  0  0  0  0  0  0  0
  153.9431  138.9482  160.2623 O   0  0  0  0  0  0  0  0  0  0  0  0
  153.3736  141.0709  161.0173 N   0  5  0  0  0  0  0  0  0  0  0  0
  152.7565  142.2901  160.8381 C   0  0  0  0  0  0  0  0  0  0  0  0
  152.8114  143.1783  161.6898 O   0  0  0  0  0  0  0  0  0  0  0  0
  152.0601  142.5370  159.6842 N   0  0  0  0  0  0  0  0  0  0  0  0
  151.4026  143.8279  159.4614 C   0  0  0  0  0  0  0  0  0  0  0  0
  149.2280  137.5899  158.5981 H   0  0  0  0  0  0  0  0  0  0  0  0
  150.4325  138.7131  157.9668 H   0  0  0  0  0  0  0  0  0  0  0  0
  150.3569  138.3720  159.7052 H   0  0  0  0  0  0  0  0  0  0  0  0
  152.6700  137.7172  159.6295 H   0  0  0  0  0  0  0  0  0  0  0  0
  153.1419  136.3492  158.6249 H   0  0  0  0  0  0  0  0  0  0  0  0
  153.9334  138.2167  157.3850 H   0  0  0  0  0  0  0  0  0  0  0  0
  152.4708  137.8259  156.5754 H   0  0  0  0  0  0  0  0  0  0  0  0
  152.4118  139.7797  153.9810 H   0  0  0  0  0  0  0  0  0  0  0  0
  152.9354  138.7923  155.3256 H   0  0  0  0  0  0  0  0  0  0  0  0
  151.9095  137.3813  153.5154 H   0  0  0  0  0  0  0  0  0  0  0  0
  151.0238  137.2436  155.0237 H   0  0  0  0  0  0  0  0  0  0  0  0
  150.3135  138.8961  152.7171 H   0  0  0  0  0  0  0  0  0  0  0  0
  148.3713  139.6151  153.8030 H   0  0  0  0  0  0  0  0  0  0  0  0
  148.7928  138.6433  155.2008 H   0  0  0  0  0  0  0  0  0  0  0  0
  149.4316  141.0560  155.5784 H   0  0  0  0  0  0  0  0  0  0  0  0
  150.3863  141.0398  154.1299 H   0  0  0  0  0  0  0  0  0  0  0  0
  150.6965  144.0435  160.2647 H   0  0  0  0  0  0  0  0  0  0  0  0
  150.8466  143.8613  158.5251 H   0  0  0  0  0  0  0  0  0  0  0  0
  152.1415  144.6297  159.4325 H   0  0  0  0  0  0  0  0  0  0  0  0
  149.5170  137.5623  153.2540 H   0  0  0  0  0  0  0  0  0  0  0  0
  1  2  1  0  0  0  0
  1 23  1  0  0  0  0
  1 24  1  0  0  0  0
  1 25  1  0  0  0  0
  2  3  1  0  0  0  0
  3  4  1  0  0  0  0
  3 26  1  0  0  0  0
  3 27  1  0  0  0  0
  4  5  1  0  0  0  0
  4 28  1  0  0  0  0
  4 29  1  0  0  0  0
  5 15  1  0  0  0  0
  5  6  1  0  0  0  0
  6  7  1  0  0  0  0
  6 13  2  0  0  0  0
  7 12  1  0  0  0  0
  7  8  1  0  0  0  0
  8  9  1  0  0  0  0
  8 30  1  0  0  0  0
  8 31  1  0  0  0  0
  9 10  1  0  0  0  0
  9 32  1  0  0  0  0
  9 33  1  0  0  0  0
 10 11  1  0  0  0  0
 10 34  1  0  0  0  0
 10 42  1  0  0  0  0
 11 12  1  0  0  0  0
 11 35  1  0  0  0  0
 11 36  1  0  0  0  0
 12 37  1  0  0  0  0
 12 38  1  0  0  0  0
 13 14  1  0  0  0  0
 14 21  1  0  0  0  0
 14 15  2  0  0  0  0
 15 16  1  0  0  0  0
 16 17  2  0  0  0  0
 16 18  1  0  0  0  0
 18 19  1  0  0  0  0
 19 20  2  0  0  0  0
 19 21  1  0  0  0  0
 21 22  1  0  0  0  0
 22 39  1  0  0  0  0
 22 40  1  0  0  0  0
 22 41  1  0  0  0  0
M  CHG  1  10   1
M  CHG  1  18  -1
M  END
> <s_m_source_file>
AV-unprocessed.smi

> <i_m_source_file_index>
513

> <i_lp_mmshare_version>
43012

> <i_f3d_flags>
0

> <s_epik_input>
W0NIM11uMWMoPU8pW25IXWMoPU8pYyhjMTIpbihbQ0gyXVtDSDJdT1tDSDNdKWMobjIpTjNbQ0gyXVtDSDJdW05IXVtDSDJdW0NIMl0z

> <s_epik_cmdline>
J2VwaWtfcHl0aG9uJywgJy1waCcsICc3LjAnLCAnLXRuJywgJzgnLCAnLW1hJywgJzIwMCcsICctbWV0YWxfYmluZGluZycsICctaW1hZScsICc8aW5maWxlLm1hZT4nLCAnLW9tYWUnLCAnPG91dGZpbGUubWFlPic=

> <r_epik_Ionization_Penalty>
5.91573

> <r_epik_Ionization_Penalty_Charging>
0.0691516

> <r_epik_Ionization_Penalty_Neutral>
5.84657

> <r_epik_State_Penalty>
5.85298

> <r_epik_Charging_Adjusted_Penalty>
5.92213

> <i_epik_Tot_Q>
0

> <i_epik_Tot_abs_Q>
2

> <r_epik_Metal_State_Penalty>
1.81849

> <b_epik_Metal_Only>
1

> <s_lp_Force_Field>
OPLS_2005

> <r_lp_Energy>
49.8146

> <b_lp_Chiralities_Consistent>
1

> <s_lp_Variant>
AV-unprocessed.smi:513-3

> <Gold.Version>
5.8.1

> <Gold.Id.Protein>
6NUR|6NUR_protein|mol2

> <Gold.PLP.Fitness>
50.2465

> <Gold.PLP.PLP>
-40.6461

> <Gold.PLP.part.hbond>
-2.9669

> <Gold.PLP.part.metal>
0.0000

> <Gold.PLP.part.buried>
-3.7311

> <Gold.PLP.part.nonpolar>
-33.8315

> <Gold.PLP.part.repulsive>
0.2047

> <Gold.PLP.ligand.clash>
0.0003

> <Gold.PLP.ligand.torsion>
0.6124

> <Gold.PLP.Chemscore.Hbond>
3.4241

> <Gold.PLP.Chemscore.CHOScore>
0.0000

> <Gold.PLP.Chemscore.Metal>
0.0000

> <Gold.Chemscore.Hbonds>
donor molecule, donor type, donor heavy atom, donor atom, acceptor molecule, acceptor atom, score
      L1  H    10    34       P1  7957  0.90
      L1  H    10    42       P1  7948  1.98
      P1  H  6896  6908       L1     2  0.46

> <Gold.PLP.Chemscore.Internal.Correction>
0.5532

> <Gold.Rescore>
     Score         DG    S(hbond)    S(metal)    S(lipo)     H(rot)  DE(clash)    DE(int)     intcor
     11.14     -16.24       2.42        0.00      56.87       1.55       0.31       4.78       ----

> <Gold.Chemscore.Fitness>
11.1399

> <Gold.Chemscore.DG>
-16.2373

> <Gold.Chemscore.ZeroCoef>
-5.4800

> <Gold.Chemscore.Hbond>
2.4187

> <Gold.Chemscore.Metal>
0.0000

> <Gold.Chemscore.Lipo>
56.8656

> <Gold.Chemscore.Internal_Hbond>
0.0000

> <Gold.Chemscore.DEClash>
0.3145

> <Gold.Chemscore.DEInternal>
4.7828

> <Gold.Chemscore.Rot>
1.5526

> <Gold.Chemscore.Internal.Correction>
   9.000000E+99

> <Gold.Chemscore.Hbonds>
donor molecule, donor type, donor heavy atom, donor atom, acceptor molecule, acceptor atom, score
      L1  H    10    34       P1  7957  0.33
      L1  H    10    42       P1  7948  0.81
      P1  H  6896  6908       L1     2  0.08

> <Gold.Chemscore.Hbond.Weighted>
-8.0785

> <Gold.Chemscore.Metal.Weighted>
-0.0000

> <Gold.Chemscore.Lipo.Weighted>
-6.6533

> <Gold.Chemscore.Internal_Hbond.Weighted>
0.0000

> <Gold.Chemscore.DEClash.Weighted>
0.3145

> <Gold.Chemscore.DEInternal.Weighted>
4.7828

> <Gold.Chemscore.Rot.Weighted>
3.9745

> <Gold.Chemscore.Internal.Correction.Weighted>
   9.000000E+99

> <Gold.Protein.RotatedTorsions>
[ 6907 6896 6895 6894 ] final -142.30 input  -60.11 | X-H torsion
[ 7974 7965 7964 7962 ] final   -7.92 input  175.53 | X-H torsion
[ 8008 7997 7996 7995 ] final -163.99 input   59.86 | X-H torsion
[ 10167 10162 10161 10158 ] final   92.51 input  -65.29 | X-H torsion
[ 10718 10713 10712 10709 ] final  176.59 input   66.30 | X-H torsion
[ 10763 10752 10751 10750 ] final -117.54 input  -60.55 | X-H torsion
[ 11005 11000 10999 10996 ] final  150.26 input  -57.11 | X-H torsion

> <Gold.Protein.ActiveResidues>
 VAL166  LYS551  ARG553  GLY616  TRP617  ASP618  TYR619  PRO620  LYS621  CYS622 
 ASP623  PHE694  ASN695  SER759  ASP760  ASP761  ALA762  ILE779  LEU786  VAL792 
 PHE793  MET794  SER795  GLU796  ALA797  LYS798  CYS799  TRP800  GLU811  SER814 

> <Gold.Protein.RotatedAtoms>
  151.0852  133.5359  159.2617 H   0  0  0  0  0  0  0  0  0  0  0  0  # atno 6907 bound_to 6896
  151.2247  135.0531  159.8974 H   0  0  0  0  0  0  0  0  0  0  0  0  # atno 6908 bound_to 6896
  152.5428  134.0649  159.8222 H   0  0  0  0  0  0  0  0  0  0  0  0  # atno 6909 bound_to 6896
  146.2294  140.2391  142.8343 H   0  0  0  0  0  0  0  0  0  0  0  0  # atno 7974 bound_to 7965
  155.8292  140.0931  157.1803 H   0  0  0  0  0  0  0  0  0  0  0  0  # atno 8008 bound_to 7997
  154.3979  140.1422  156.3654 H   0  0  0  0  0  0  0  0  0  0  0  0  # atno 8009 bound_to 7997
  155.8184  140.3447  155.5502 H   0  0  0  0  0  0  0  0  0  0  0  0  # atno 8010 bound_to 7997
  139.8270  144.6705  150.9448 H   0  0  0  0  0  0  0  0  0  0  0  0  # atno 10167 bound_to 10162
  156.9179  130.9931  151.3010 H   0  0  0  0  0  0  0  0  0  0  0  0  # atno 10718 bound_to 10713
  154.8558  135.4306  154.1995 H   0  0  0  0  0  0  0  0  0  0  0  0  # atno 10763 bound_to 10752
  153.3045  135.6971  153.7178 H   0  0  0  0  0  0  0  0  0  0  0  0  # atno 10764 bound_to 10752
  153.6295  135.3487  155.3011 H   0  0  0  0  0  0  0  0  0  0  0  0  # atno 10765 bound_to 10752
  140.1116  134.8920  157.1944 H   0  0  0  0  0  0  0  0  0  0  0  0  # atno 11005 bound_to 11000
  144.9498  140.8166  143.5579 LP  0  0  0  0  0  0  0  0  0  0  0  0  # atno 17320 bound_to 7965
  145.2351  139.2097  143.5022 LP  0  0  0  0  0  0  0  0  0  0  0  0  # atno 17321 bound_to 7965
  140.7809  143.4037  151.1106 LP  0  0  0  0  0  0  0  0  0  0  0  0  # atno 17342 bound_to 10162
  139.7694  143.8517  152.3117 LP  0  0  0  0  0  0  0  0  0  0  0  0  # atno 17343 bound_to 10162
  157.5927  130.8455  149.8682 LP  0  0  0  0  0  0  0  0  0  0  0  0  # atno 17370 bound_to 10713
  156.0505  130.3718  150.1213 LP  0  0  0  0  0  0  0  0  0  0  0  0  # atno 17371 bound_to 10713
  140.3083  134.3052  155.7273 LP  0  0  0  0  0  0  0  0  0  0  0  0  # atno 17394 bound_to 11000
  141.2131  133.7634  156.9740 LP  0  0  0  0  0  0  0  0  0  0  0  0  # atno 17395 bound_to 11000

$$$$
