AV-unprocessed.smi:2788|AV-procd|sdf|10760|dock2
  -GOLD-   2272015193D 1   1.00000     0.00000
 Structure written by MMmdl.
 47 48  0  0  0  0  0  0  0  0  1 V2000
  149.3355  136.8165  158.5973 C   0  0  0  0  0  0  0  0  0  0  0  0
  149.4534  135.7186  157.5789 C   0  0  0  0  0  0  0  0  0  0  0  0
  149.5979  134.4699  157.9882 N   0  0  0  0  0  0  0  0  0  0  0  0
  149.6628  133.6912  156.8289 O   0  0  0  0  0  0  0  0  0  0  0  0
  149.5509  134.5115  155.7537 C   0  0  0  0  0  0  0  0  0  0  0  0
  149.5853  133.8629  154.4114 C   0  0  0  0  0  0  0  0  0  0  0  0
  149.4148  135.8113  156.1569 C   0  0  0  0  0  0  0  0  0  0  0  0
  149.2521  137.0442  155.3040 C   0  0  0  0  0  0  0  0  0  0  0  0
  147.7743  137.2592  154.9777 C   0  0  0  0  0  0  0  0  0  0  0  0
  146.9932  137.5632  155.8774 O   0  0  0  0  0  0  0  0  0  0  0  0
  147.4302  137.0855  153.6880 N   0  0  0  0  0  0  0  0  0  0  0  0
  146.1336  137.2156  153.0024 C   0  0  1  0  0  0  0  0  0  0  0  0
  144.9756  137.5021  153.9971 C   0  0  0  0  0  0  0  0  0  0  0  0
  146.2868  138.4923  152.1286 C   0  0  0  0  0  0  0  0  0  0  0  0
  147.4175  138.4495  151.2808 O   0  0  0  0  0  0  0  0  0  0  0  0
  145.8490  135.9453  152.1194 C   0  0  0  0  0  0  0  0  0  0  0  0
  144.5177  135.9931  151.3236 C   0  0  0  0  0  0  0  0  0  0  0  0
  144.3448  134.7701  150.4093 C   0  0  0  0  0  0  0  0  0  0  0  0
  144.4117  133.4655  151.2124 C   0  0  0  0  0  0  0  0  0  0  0  0
  145.7219  133.3847  152.0053 C   0  0  0  0  0  0  0  0  0  0  0  0
  145.9060  134.6118  152.9132 C   0  0  0  0  0  0  0  0  0  0  0  0
  149.6918  137.7668  158.2005 H   0  0  0  0  0  0  0  0  0  0  0  0
  149.9193  136.5954  159.4915 H   0  0  0  0  0  0  0  0  0  0  0  0
  148.2976  136.9521  158.9023 H   0  0  0  0  0  0  0  0  0  0  0  0
  148.5743  133.6828  154.0461 H   0  0  0  0  0  0  0  0  0  0  0  0
  150.1072  132.9067  154.4519 H   0  0  0  0  0  0  0  0  0  0  0  0
  150.0988  134.4949  153.6869 H   0  0  0  0  0  0  0  0  0  0  0  0
  149.6366  137.9338  155.8031 H   0  0  0  0  0  0  0  0  0  0  0  0
  149.8142  136.9581  154.3735 H   0  0  0  0  0  0  0  0  0  0  0  0
  148.1926  136.8305  153.0775 H   0  0  0  0  0  0  0  0  0  0  0  0
  144.0373  137.6746  153.4693 H   0  0  0  0  0  0  0  0  0  0  0  0
  145.1784  138.3925  154.5933 H   0  0  0  0  0  0  0  0  0  0  0  0
  144.7866  136.6912  154.6969 H   0  0  0  0  0  0  0  0  0  0  0  0
  145.4028  138.6327  151.5048 H   0  0  0  0  0  0  0  0  0  0  0  0
  146.3553  139.3912  152.7413 H   0  0  0  0  0  0  0  0  0  0  0  0
  147.9780  139.1813  151.4894 H   0  0  0  0  0  0  0  0  0  0  0  0
  146.6396  135.8993  151.3693 H   0  0  0  0  0  0  0  0  0  0  0  0
  143.6692  136.0343  152.0053 H   0  0  0  0  0  0  0  0  0  0  0  0
  144.4639  136.8868  150.7042 H   0  0  0  0  0  0  0  0  0  0  0  0
  143.3918  134.8324  149.8832 H   0  0  0  0  0  0  0  0  0  0  0  0
  145.1214  134.7710  149.6435 H   0  0  0  0  0  0  0  0  0  0  0  0
  143.5637  133.4111  151.8965 H   0  0  0  0  0  0  0  0  0  0  0  0
  144.3268  132.6093  150.5426 H   0  0  0  0  0  0  0  0  0  0  0  0
  145.7365  132.4741  152.6049 H   0  0  0  0  0  0  0  0  0  0  0  0
  146.5631  133.3126  151.3149 H   0  0  0  0  0  0  0  0  0  0  0  0
  146.8610  134.5028  153.4246 H   0  0  0  0  0  0  0  0  0  0  0  0
  145.1383  134.6031  153.6877 H   0  0  0  0  0  0  0  0  0  0  0  0
  1  2  1  0  0  0  0
  1 22  1  0  0  0  0
  1 23  1  0  0  0  0
  1 24  1  0  0  0  0
  2  7  1  0  0  0  0
  2  3  2  0  0  0  0
  3  4  1  0  0  0  0
  4  5  1  0  0  0  0
  5  6  1  0  0  0  0
  5  7  2  0  0  0  0
  6 25  1  0  0  0  0
  6 26  1  0  0  0  0
  6 27  1  0  0  0  0
  7  8  1  0  0  0  0
  8  9  1  0  0  0  0
  8 28  1  0  0  0  0
  8 29  1  0  0  0  0
  9 10  2  0  0  0  0
  9 11  1  0  0  0  0
 11 12  1  0  0  0  0
 11 30  1  0  0  0  0
 12 13  1  0  0  0  0
 12 14  1  0  0  0  0
 12 16  1  0  0  0  0
 13 31  1  0  0  0  0
 13 32  1  0  0  0  0
 13 33  1  0  0  0  0
 14 15  1  0  0  0  0
 14 34  1  0  0  0  0
 14 35  1  0  0  0  0
 15 36  1  0  0  0  0
 16 21  1  0  0  0  0
 16 17  1  0  0  0  0
 16 37  1  0  0  0  0
 17 18  1  0  0  0  0
 17 38  1  0  0  0  0
 17 39  1  0  0  0  0
 18 19  1  0  0  0  0
 18 40  1  0  0  0  0
 18 41  1  0  0  0  0
 19 20  1  0  0  0  0
 19 42  1  0  0  0  0
 19 43  1  0  0  0  0
 20 21  1  0  0  0  0
 20 44  1  0  0  0  0
 20 45  1  0  0  0  0
 21 46  1  0  0  0  0
 21 47  1  0  0  0  0
M  END
> <s_m_source_file>
AV-unprocessed.smi

> <i_m_source_file_index>
2788

> <i_lp_mmshare_version>
43012

> <i_f3d_flags>
0

> <s_epik_input>
W0NIM11jMW5vYyhbQ0gzXSljMVtDSDJdQyg9TylbTkhdW0NAQF0oW0NIM10pKFtDSDJdW09IXSlbQ0hdMltDSDJdW0NIMl1bQ0gyXVtDSDJdW0NIMl0y

> <s_epik_cmdline>
J2VwaWtfcHl0aG9uJywgJy1waCcsICc3LjAnLCAnLXRuJywgJzgnLCAnLW1hJywgJzIwMCcsICctbWV0YWxfYmluZGluZycsICctaW1hZScsICc8aW5maWxlLm1hZT4nLCAnLW9tYWUnLCAnPG91dGZpbGUubWFlPic=

> <r_lp_tautomer_probability>
1

> <r_epik_Ionization_Penalty>
1.3408e-07

> <r_epik_Ionization_Penalty_Charging>
0

> <r_epik_Ionization_Penalty_Neutral>
1.3408e-07

> <r_epik_State_Penalty>
-0

> <r_epik_Charging_Adjusted_Penalty>
0

> <i_epik_Tot_Q>
0

> <i_epik_Tot_abs_Q>
0

> <r_epik_Metal_State_Penalty>
-0

> <b_epik_Metal_Only>
0

> <s_lp_Force_Field>
OPLS_2005

> <r_lp_Energy>
15.0378

> <b_lp_Chiralities_Consistent>
1

> <s_lp_Variant>
AV-unprocessed.smi:2788-1

> <Gold.Version>
5.8.1

> <Gold.Id.Protein>
6NUR|6NUR_protein|mol2

> <Gold.PLP.Fitness>
38.4669

> <Gold.PLP.PLP>
-27.9883

> <Gold.PLP.part.hbond>
-4.9581

> <Gold.PLP.part.metal>
0.0000

> <Gold.PLP.part.buried>
-1.4294

> <Gold.PLP.part.nonpolar>
-21.0225

> <Gold.PLP.part.repulsive>
0.0190

> <Gold.PLP.ligand.clash>
0.0000

> <Gold.PLP.ligand.torsion>
0.6292

> <Gold.PLP.Chemscore.Hbond>
3.8800

> <Gold.PLP.Chemscore.CHOScore>
0.0000

> <Gold.PLP.Chemscore.Metal>
0.0000

> <Gold.Chemscore.Hbonds>
donor molecule, donor type, donor heavy atom, donor atom, acceptor molecule, acceptor atom, score
      L1  H    11    30       P1  7948  1.00
      L1  H    15    36       P1  7957  0.90
      P1  H  6896  6907       L1     3  1.00
      P1  H  7954  7966       L1    15  1.00

> <Gold.PLP.Chemscore.Internal.Correction>
0.0971

> <Gold.Rescore>
     Score         DG    S(hbond)    S(metal)    S(lipo)     H(rot)  DE(clash)    DE(int)     intcor
     15.44     -17.71       3.09        0.00      65.34       2.24       0.16       2.10       ----

> <Gold.Chemscore.Fitness>
15.4447

> <Gold.Chemscore.DG>
-17.7052

> <Gold.Chemscore.ZeroCoef>
-5.4800

> <Gold.Chemscore.Hbond>
3.0851

> <Gold.Chemscore.Metal>
0.0000

> <Gold.Chemscore.Lipo>
65.3374

> <Gold.Chemscore.Internal_Hbond>
0.0000

> <Gold.Chemscore.DEClash>
0.1599

> <Gold.Chemscore.DEInternal>
2.1006

> <Gold.Chemscore.Rot>
2.2357

> <Gold.Chemscore.Internal.Correction>
   9.000000E+99

> <Gold.Chemscore.Hbonds>
donor molecule, donor type, donor heavy atom, donor atom, acceptor molecule, acceptor atom, score
      L1  H    11    30       P1  7948  0.95
      L1  H    15    36       P1  7957  0.80
      P1  H  6896  6907       L1     3  0.95
      P1  H  7954  7966       L1    15  0.25

> <Gold.Chemscore.Hbond.Weighted>
-10.3042

> <Gold.Chemscore.Metal.Weighted>
-0.0000

> <Gold.Chemscore.Lipo.Weighted>
-7.6445

> <Gold.Chemscore.Internal_Hbond.Weighted>
0.0000

> <Gold.Chemscore.DEClash.Weighted>
0.1599

> <Gold.Chemscore.DEInternal.Weighted>
2.1006

> <Gold.Chemscore.Rot.Weighted>
5.7235

> <Gold.Chemscore.Internal.Correction.Weighted>
   9.000000E+99

> <Gold.Protein.RotatedTorsions>
[ 6907 6896 6895 6894 ] final  -99.46 input  -60.11 | X-H torsion
[ 7974 7965 7964 7962 ] final  129.70 input  175.53 | X-H torsion
[ 8008 7997 7996 7995 ] final   91.74 input   59.86 | X-H torsion
[ 10167 10162 10161 10158 ] final -140.11 input  -65.29 | X-H torsion
[ 10718 10713 10712 10709 ] final    7.52 input   66.30 | X-H torsion
[ 10763 10752 10751 10750 ] final -102.28 input  -60.55 | X-H torsion
[ 11005 11000 10999 10996 ] final   43.61 input  -57.11 | X-H torsion

> <Gold.Protein.ActiveResidues>
 VAL166  LYS551  ARG553  GLY616  TRP617  ASP618  TYR619  PRO620  LYS621  CYS622 
 ASP623  PHE694  ASN695  SER759  ASP760  ASP761  ALA762  ILE779  LEU786  VAL792 
 PHE793  MET794  SER795  GLU796  ALA797  LYS798  CYS799  TRP800  GLU811  SER814 

> <Gold.Protein.RotatedAtoms>
  150.7081  134.1037  159.3974 H   0  0  0  0  0  0  0  0  0  0  0  0  # atno 6907 bound_to 6896
  151.9023  135.0371  160.0516 H   0  0  0  0  0  0  0  0  0  0  0  0  # atno 6908 bound_to 6896
  152.2404  133.5095  159.5303 H   0  0  0  0  0  0  0  0  0  0  0  0  # atno 6909 bound_to 6896
  145.0259  139.4090  143.5174 H   0  0  0  0  0  0  0  0  0  0  0  0  # atno 7974 bound_to 7965
  156.0273  140.3334  155.7102 H   0  0  0  0  0  0  0  0  0  0  0  0  # atno 8008 bound_to 7997
  155.5936  140.0648  157.2770 H   0  0  0  0  0  0  0  0  0  0  0  0  # atno 8009 bound_to 7997
  154.4339  140.1823  156.1088 H   0  0  0  0  0  0  0  0  0  0  0  0  # atno 8010 bound_to 7997
  139.8314  143.7443  152.2666 H   0  0  0  0  0  0  0  0  0  0  0  0  # atno 10167 bound_to 10162
  156.9382  130.5851  149.5651 H   0  0  0  0  0  0  0  0  0  0  0  0  # atno 10718 bound_to 10713
  154.7722  135.4866  153.9671 H   0  0  0  0  0  0  0  0  0  0  0  0  # atno 10763 bound_to 10752
  153.1382  135.6767  153.9076 H   0  0  0  0  0  0  0  0  0  0  0  0  # atno 10764 bound_to 10752
  153.8759  135.3138  155.3422 H   0  0  0  0  0  0  0  0  0  0  0  0  # atno 10765 bound_to 10752
  140.1629  134.4318  155.8306 H   0  0  0  0  0  0  0  0  0  0  0  0  # atno 11005 bound_to 11000
  146.3492  139.9782  142.8698 LP  0  0  0  0  0  0  0  0  0  0  0  0  # atno 17320 bound_to 7965
  145.1835  140.9778  143.4252 LP  0  0  0  0  0  0  0  0  0  0  0  0  # atno 17321 bound_to 7965
  139.7651  144.7494  151.0306 LP  0  0  0  0  0  0  0  0  0  0  0  0  # atno 17342 bound_to 10162
  140.7806  143.4707  151.0150 LP  0  0  0  0  0  0  0  0  0  0  0  0  # atno 17343 bound_to 10162
  156.0416  130.5498  150.8784 LP  0  0  0  0  0  0  0  0  0  0  0  0  # atno 17370 bound_to 10713
  157.5802  131.0946  150.9282 LP  0  0  0  0  0  0  0  0  0  0  0  0  # atno 17371 bound_to 10713
  141.2211  133.6921  156.7626 LP  0  0  0  0  0  0  0  0  0  0  0  0  # atno 17394 bound_to 11000
  140.2468  134.8571  157.3628 LP  0  0  0  0  0  0  0  0  0  0  0  0  # atno 17395 bound_to 11000

$$$$
