AV-unprocessed.smi:1795|AV-procd|sdf|7246|dock5
  -GOLD-   22720 8493D 1   1.00000     0.00000
 Structure written by MMmdl.
 48 49  0  0  0  0  0  0  0  0  2 V2000
  145.0041  136.0252  151.2506 C   0  0  0  0  0  0  0  0  0  0  0  0
  145.0931  134.5092  151.0452 C   0  0  1  0  0  0  0  0  0  0  0  0
  144.5216  133.7272  152.2450 C   0  0  0  0  0  0  0  0  0  0  0  0
  144.5704  132.2589  152.0059 N   0  3  2  0  0  0  0  0  0  0  0  0
  145.9057  131.5825  152.1316 C   0  0  1  0  0  0  0  0  0  0  0  0
  146.5269  131.7021  153.5446 C   0  0  0  0  0  0  0  0  0  0  0  0
  145.7812  130.0913  151.7326 C   0  0  0  0  0  0  0  0  0  0  0  0
  147.0522  129.3840  151.8348 N   0  0  0  0  0  0  0  0  0  0  0  0
  147.2441  128.2778  152.5671 C   0  0  0  0  0  0  0  0  0  0  0  0
  146.3502  127.7490  153.2293 O   0  0  0  0  0  0  0  0  0  0  0  0
  148.6558  127.6758  152.5186 C   0  0  0  0  0  0  0  0  0  0  0  0
  148.7070  126.3567  151.8668 N   0  0  0  0  0  0  0  0  0  0  0  0
  148.8564  126.3399  150.4656 C   0  0  0  0  0  0  0  0  0  0  0  0
  148.9129  125.1925  149.7713 C   0  0  0  0  0  0  0  0  0  0  0  0
  148.8190  123.9491  150.4990 C   0  0  0  0  0  0  0  0  0  0  0  0
  148.6705  123.9538  151.8387 C   0  0  0  0  0  0  0  0  0  0  0  0
  148.6015  125.2062  152.6010 C   0  0  0  0  0  0  0  0  0  0  0  0
  148.4582  125.2206  153.8241 O   0  0  0  0  0  0  0  0  0  0  0  0
  143.8538  131.9581  150.7358 C   0  0  0  0  0  0  0  0  0  0  0  0
  144.4014  132.7948  149.5573 C   0  0  1  0  0  0  0  0  0  0  0  0
  143.5935  132.5739  148.2739 C   0  0  0  0  0  0  0  0  0  0  0  0
  144.3345  134.1776  149.8874 O   0  0  0  0  0  0  0  0  0  0  0  0
  145.5760  136.3372  152.1247 H   0  0  0  0  0  0  0  0  0  0  0  0
  143.9715  136.3451  151.3943 H   0  0  0  0  0  0  0  0  0  0  0  0
  145.3999  136.5594  150.3865 H   0  0  0  0  0  0  0  0  0  0  0  0
  146.1385  134.2427  150.8818 H   0  0  0  0  0  0  0  0  0  0  0  0
  145.0015  134.0127  153.1798 H   0  0  0  0  0  0  0  0  0  0  0  0
  143.4748  134.0050  152.3775 H   0  0  0  0  0  0  0  0  0  0  0  0
  146.6021  132.0620  151.4443 H   0  0  0  0  0  0  0  0  0  0  0  0
  147.4743  131.1688  153.6174 H   0  0  0  0  0  0  0  0  0  0  0  0
  145.8639  131.2918  154.3072 H   0  0  0  0  0  0  0  0  0  0  0  0
  146.7528  132.7354  153.8072 H   0  0  0  0  0  0  0  0  0  0  0  0
  145.0470  129.5979  152.3721 H   0  0  0  0  0  0  0  0  0  0  0  0
  145.4266  129.9789  150.7090 H   0  0  0  0  0  0  0  0  0  0  0  0
  147.8349  129.7581  151.3179 H   0  0  0  0  0  0  0  0  0  0  0  0
  149.3077  128.3801  152.0000 H   0  0  0  0  0  0  0  0  0  0  0  0
  149.0559  127.6112  153.5322 H   0  0  0  0  0  0  0  0  0  0  0  0
  148.9124  127.3118  149.9967 H   0  0  0  0  0  0  0  0  0  0  0  0
  149.0216  125.1996  148.6967 H   0  0  0  0  0  0  0  0  0  0  0  0
  148.8675  123.0108  149.9663 H   0  0  0  0  0  0  0  0  0  0  0  0
  148.6015  123.0136  152.3660 H   0  0  0  0  0  0  0  0  0  0  0  0
  143.8869  130.8981  150.4914 H   0  0  0  0  0  0  0  0  0  0  0  0
  142.7985  132.1929  150.8828 H   0  0  0  0  0  0  0  0  0  0  0  0
  145.4390  132.5298  149.3513 H   0  0  0  0  0  0  0  0  0  0  0  0
  143.6279  131.5292  147.9637 H   0  0  0  0  0  0  0  0  0  0  0  0
  143.9896  133.1752  147.4552 H   0  0  0  0  0  0  0  0  0  0  0  0
  142.5471  132.8482  148.4123 H   0  0  0  0  0  0  0  0  0  0  0  0
  144.0146  131.8558  152.7471 H   0  0  0  0  0  0  0  0  0  0  0  0
  1  2  1  0  0  0  0
  1 23  1  0  0  0  0
  1 24  1  0  0  0  0
  1 25  1  0  0  0  0
  2 22  1  0  0  0  0
  2  3  1  0  0  0  0
  2 26  1  0  0  0  0
  3  4  1  0  0  0  0
  3 27  1  0  0  0  0
  3 28  1  0  0  0  0
  4  5  1  0  0  0  0
  4 19  1  0  0  0  0
  4 48  1  0  0  0  0
  5  6  1  0  0  0  0
  5  7  1  0  0  0  0
  5 29  1  0  0  0  0
  6 30  1  0  0  0  0
  6 31  1  0  0  0  0
  6 32  1  0  0  0  0
  7  8  1  0  0  0  0
  7 33  1  0  0  0  0
  7 34  1  0  0  0  0
  8  9  1  0  0  0  0
  8 35  1  0  0  0  0
  9 10  2  0  0  0  0
  9 11  1  0  0  0  0
 11 12  1  0  0  0  0
 11 36  1  0  0  0  0
 11 37  1  0  0  0  0
 12 17  1  0  0  0  0
 12 13  1  0  0  0  0
 13 14  2  0  0  0  0
 13 38  1  0  0  0  0
 14 15  1  0  0  0  0
 14 39  1  0  0  0  0
 15 16  2  0  0  0  0
 15 40  1  0  0  0  0
 16 17  1  0  0  0  0
 16 41  1  0  0  0  0
 17 18  2  0  0  0  0
 19 20  1  0  0  0  0
 19 42  1  0  0  0  0
 19 43  1  0  0  0  0
 20 21  1  0  0  0  0
 20 22  1  0  0  0  0
 20 44  1  0  0  0  0
 21 45  1  0  0  0  0
 21 46  1  0  0  0  0
 21 47  1  0  0  0  0
M  CHG  1   4   1
M  END
> <s_m_source_file>
AV-unprocessed.smi

> <i_m_source_file_index>
1795

> <i_lp_mmshare_version>
43012

> <i_f3d_flags>
0

> <s_epik_input>
W0NIM11bQ0BASF0xW0NIMl1OKFtDSDJdW0NASF0oTzEpW0NIM10pW0NASF0oW0NIM10pW0NIMl1bTkhdQyg9TylbQ0gyXW4yW2NIXVtjSF1bY0hdW2NIXWMyPU8=

> <s_epik_cmdline>
J2VwaWtfcHl0aG9uJywgJy1waCcsICc3LjAnLCAnLXRuJywgJzgnLCAnLW1hJywgJzIwMCcsICctbWV0YWxfYmluZGluZycsICctaW1hZScsICc8aW5maWxlLm1hZT4nLCAnLW9tYWUnLCAnPG91dGZpbGUubWFlPic=

> <r_lp_tautomer_probability>
1

> <r_epik_Ionization_Penalty>
0.656654

> <r_epik_Ionization_Penalty_Charging>
0.656654

> <r_epik_Ionization_Penalty_Neutral>
8.90321e-08

> <r_epik_State_Penalty>
0.675641

> <r_epik_Charging_Adjusted_Penalty>
1.33229

> <i_epik_Tot_Q>
1

> <i_epik_Tot_abs_Q>
1

> <r_epik_Metal_State_Penalty>
0.675691

> <b_epik_Metal_Only>
0

> <s_lp_Force_Field>
OPLS_2005

> <r_lp_Energy>
32.8471

> <b_lp_Chiralities_Consistent>
1

> <s_lp_Variant>
AV-unprocessed.smi:1795-10

> <Gold.Version>
5.8.1

> <Gold.Id.Protein>
6NUR|6NUR_protein|mol2

> <Gold.PLP.Fitness>
45.4468

> <Gold.PLP.PLP>
-43.3194

> <Gold.PLP.part.hbond>
-1.0608

> <Gold.PLP.part.metal>
0.0000

> <Gold.PLP.part.buried>
-7.3138

> <Gold.PLP.part.nonpolar>
-35.9481

> <Gold.PLP.part.repulsive>
1.3299

> <Gold.PLP.ligand.clash>
0.0000

> <Gold.PLP.ligand.torsion>
0.4950

> <Gold.PLP.Chemscore.Hbond>
1.0000

> <Gold.PLP.Chemscore.CHOScore>
0.0000

> <Gold.PLP.Chemscore.Metal>
0.0000

> <Gold.Chemscore.Hbonds>
donor molecule, donor type, donor heavy atom, donor atom, acceptor molecule, acceptor atom, score
      L1  H     8    35       P1 10747  1.00

> <Gold.PLP.Chemscore.Internal.Correction>
0.1175

> <Gold.Rescore>
     Score         DG    S(hbond)    S(metal)    S(lipo)     H(rot)  DE(clash)    DE(int)     intcor
     15.26     -15.83       0.98        0.00     101.90       1.89       0.14       0.43       ----

> <Gold.Chemscore.Fitness>
15.2635

> <Gold.Chemscore.DG>
-15.8309

> <Gold.Chemscore.ZeroCoef>
-5.4800

> <Gold.Chemscore.Hbond>
0.9757

> <Gold.Chemscore.Metal>
0.0000

> <Gold.Chemscore.Lipo>
101.9036

> <Gold.Chemscore.Internal_Hbond>
0.0000

> <Gold.Chemscore.DEClash>
0.1366

> <Gold.Chemscore.DEInternal>
0.4308

> <Gold.Chemscore.Rot>
1.8870

> <Gold.Chemscore.Internal.Correction>
   9.000000E+99

> <Gold.Chemscore.Hbonds>
donor molecule, donor type, donor heavy atom, donor atom, acceptor molecule, acceptor atom, score
      L1  H     8    35       P1 10747  0.96

> <Gold.Chemscore.Hbond.Weighted>
-3.2589

> <Gold.Chemscore.Metal.Weighted>
-0.0000

> <Gold.Chemscore.Lipo.Weighted>
-11.9227

> <Gold.Chemscore.Internal_Hbond.Weighted>
0.0000

> <Gold.Chemscore.DEClash.Weighted>
0.1366

> <Gold.Chemscore.DEInternal.Weighted>
0.4308

> <Gold.Chemscore.Rot.Weighted>
4.8308

> <Gold.Chemscore.Internal.Correction.Weighted>
   9.000000E+99

> <Gold.Protein.RotatedTorsions>
[ 6907 6896 6895 6894 ] final -170.71 input  -60.11 | X-H torsion
[ 7974 7965 7964 7962 ] final  -19.30 input  175.53 | X-H torsion
[ 8008 7997 7996 7995 ] final   96.51 input   59.86 | X-H torsion
[ 10167 10162 10161 10158 ] final  -63.87 input  -65.29 | X-H torsion
[ 10718 10713 10712 10709 ] final -142.39 input   66.30 | X-H torsion
[ 10763 10752 10751 10750 ] final -140.02 input  -60.55 | X-H torsion
[ 11005 11000 10999 10996 ] final  -49.68 input  -57.11 | X-H torsion

> <Gold.Protein.ActiveResidues>
 VAL166  LYS551  ARG553  GLY616  TRP617  ASP618  TYR619  PRO620  LYS621  CYS622 
 ASP623  PHE694  ASN695  SER759  ASP760  ASP761  ALA762  ILE779  LEU786  VAL792 
 PHE793  MET794  SER795  GLU796  ALA797  LYS798  CYS799  TRP800  GLU811  SER814 

> <Gold.Protein.RotatedAtoms>
  151.5120  133.3483  159.2886 H   0  0  0  0  0  0  0  0  0  0  0  0  # atno 6907 bound_to 6896
  150.8706  134.8081  159.7163 H   0  0  0  0  0  0  0  0  0  0  0  0  # atno 6908 bound_to 6896
  152.4695  134.5004  159.9774 H   0  0  0  0  0  0  0  0  0  0  0  0  # atno 6909 bound_to 6896
  146.1848  140.4043  142.8480 H   0  0  0  0  0  0  0  0  0  0  0  0  # atno 7974 bound_to 7965
  156.0804  140.3271  155.7686 H   0  0  0  0  0  0  0  0  0  0  0  0  # atno 8008 bound_to 7997
  155.5162  140.0581  157.2932 H   0  0  0  0  0  0  0  0  0  0  0  0  # atno 8009 bound_to 7997
  154.4579  140.1952  156.0345 H   0  0  0  0  0  0  0  0  0  0  0  0  # atno 8010 bound_to 7997
  140.5841  143.2331  151.6281 H   0  0  0  0  0  0  0  0  0  0  0  0  # atno 10167 bound_to 10162
  156.3453  130.7659  151.1803 H   0  0  0  0  0  0  0  0  0  0  0  0  # atno 10718 bound_to 10713
  154.8591  135.3565  154.5641 H   0  0  0  0  0  0  0  0  0  0  0  0  # atno 10763 bound_to 10752
  153.6255  135.7004  153.5299 H   0  0  0  0  0  0  0  0  0  0  0  0  # atno 10764 bound_to 10752
  153.3093  135.4183  155.1281 H   0  0  0  0  0  0  0  0  0  0  0  0  # atno 10765 bound_to 10752
  141.0773  133.6662  156.3621 H   0  0  0  0  0  0  0  0  0  0  0  0  # atno 11005 bound_to 11000
  144.8378  140.6809  143.6249 LP  0  0  0  0  0  0  0  0  0  0  0  0  # atno 17320 bound_to 7965
  145.3971  139.1605  143.4198 LP  0  0  0  0  0  0  0  0  0  0  0  0  # atno 17321 bound_to 7965
  139.5187  144.3277  152.0855 LP  0  0  0  0  0  0  0  0  0  0  0  0  # atno 17342 bound_to 10162
  140.2431  144.4248  150.6252 LP  0  0  0  0  0  0  0  0  0  0  0  0  # atno 17343 bound_to 10162
  157.7453  131.0443  150.4785 LP  0  0  0  0  0  0  0  0  0  0  0  0  # atno 17370 bound_to 10713
  156.4972  130.4109  149.6373 LP  0  0  0  0  0  0  0  0  0  0  0  0  # atno 17371 bound_to 10713
  140.5545  134.5995  157.5417 LP  0  0  0  0  0  0  0  0  0  0  0  0  # atno 17394 bound_to 11000
  139.9586  134.7492  156.0287 LP  0  0  0  0  0  0  0  0  0  0  0  0  # atno 17395 bound_to 11000

$$$$
