AV-unprocessed.smi:3078|AV-procd|sdf|11734|dock5
  -GOLD-   2272017133D 1   1.00000     0.00000
 Structure written by MMmdl.
 23 23  0  0  0  0  0  0  0  0  2 V2000
  146.0794  134.7593  153.9788 C   0  0  0  0  0  0  0  0  0  0  0  0
  145.5821  134.3583  152.6802 N   0  0  0  0  0  0  0  0  0  0  0  0
  144.7392  133.3144  152.3666 C   0  0  0  0  0  0  0  0  0  0  0  0
  144.5424  133.3348  151.0127 C   0  0  0  0  0  0  0  0  0  0  0  0
  143.7073  132.4195  150.1517 C   0  0  1  0  0  0  0  0  0  0  0  0
  142.3047  132.4707  150.5954 N   0  3  0  0  0  0  0  0  0  0  0  0
  143.8049  132.7532  148.6507 C   0  0  0  0  0  0  0  0  0  0  0  0
  142.5609  132.4467  147.9705 N   0  0  0  0  0  0  0  0  0  0  0  0
  145.3239  134.4475  150.5870 C   0  0  0  0  0  0  0  0  0  0  0  0
  145.9445  135.0552  151.5844 N   0  0  0  0  0  0  0  0  0  0  0  0
  145.8631  133.9866  154.7171 H   0  0  0  0  0  0  0  0  0  0  0  0
  145.5978  135.6882  154.2852 H   0  0  0  0  0  0  0  0  0  0  0  0
  147.1583  134.9123  153.9335 H   0  0  0  0  0  0  0  0  0  0  0  0
  144.3498  132.6526  153.1265 H   0  0  0  0  0  0  0  0  0  0  0  0
  144.0275  131.3859  150.2913 H   0  0  0  0  0  0  0  0  0  0  0  0
  142.2730  132.5191  151.6037 H   0  0  0  0  0  0  0  0  0  0  0  0
  141.8215  131.6407  150.2828 H   0  0  0  0  0  0  0  0  0  0  0  0
  144.0087  133.8156  148.5143 H   0  0  0  0  0  0  0  0  0  0  0  0
  144.6216  132.2065  148.1783 H   0  0  0  0  0  0  0  0  0  0  0  0
  141.7945  132.9363  148.4106 H   0  0  0  0  0  0  0  0  0  0  0  0
  142.6006  132.7749  147.0156 H   0  0  0  0  0  0  0  0  0  0  0  0
  145.4570  134.8302  149.5858 H   0  0  0  0  0  0  0  0  0  0  0  0
  141.8578  133.2879  150.2055 H   0  0  0  0  0  0  0  0  0  0  0  0
  1  2  1  0  0  0  0
  1 11  1  0  0  0  0
  1 12  1  0  0  0  0
  1 13  1  0  0  0  0
  2 10  1  0  0  0  0
  2  3  1  0  0  0  0
  3  4  2  0  0  0  0
  3 14  1  0  0  0  0
  4  5  1  0  0  0  0
  4  9  1  0  0  0  0
  5  6  1  0  0  0  0
  5  7  1  0  0  0  0
  5 15  1  0  0  0  0
  6 16  1  0  0  0  0
  6 17  1  0  0  0  0
  6 23  1  0  0  0  0
  7  8  1  0  0  0  0
  7 18  1  0  0  0  0
  7 19  1  0  0  0  0
  8 20  1  0  0  0  0
  8 21  1  0  0  0  0
  9 10  2  0  0  0  0
  9 22  1  0  0  0  0
M  CHG  1   6   1
M  END
> <s_m_source_file>
AV-unprocessed.smi

> <i_m_source_file_index>
3078

> <i_lp_mmshare_version>
43012

> <i_f3d_flags>
0

> <s_epik_input>
W0NIM11uMVtjSF1jKFtjSF1uMSlbQ0BIXShbTkgyXSlbQ0gyXVtOSDJd

> <s_epik_cmdline>
J2VwaWtfcHl0aG9uJywgJy1waCcsICc3LjAnLCAnLXRuJywgJzgnLCAnLW1hJywgJzIwMCcsICctbWV0YWxfYmluZGluZycsICctaW1hZScsICc8aW5maWxlLm1hZT4nLCAnLW9tYWUnLCAnPG91dGZpbGUubWFlPic=

> <r_epik_Ionization_Penalty>
0.19937

> <r_epik_Ionization_Penalty_Charging>
0.0290541

> <r_epik_Ionization_Penalty_Neutral>
0.170316

> <r_epik_State_Penalty>
1.07715

> <r_epik_Charging_Adjusted_Penalty>
1.1062

> <i_epik_Tot_Q>
1

> <i_epik_Tot_abs_Q>
1

> <r_epik_Metal_State_Penalty>
1.07718

> <b_epik_Metal_Only>
0

> <s_lp_Force_Field>
OPLS_2005

> <r_lp_Energy>
0.880833

> <b_lp_Chiralities_Consistent>
1

> <s_lp_Variant>
AV-unprocessed.smi:3078-4

> <Gold.Version>
5.8.1

> <Gold.Id.Protein>
6NUR|6NUR_protein|mol2

> <Gold.PLP.Fitness>
41.4060

> <Gold.PLP.PLP>
-21.2810

> <Gold.PLP.part.hbond>
-4.9623

> <Gold.PLP.part.metal>
0.0000

> <Gold.PLP.part.buried>
-3.5218

> <Gold.PLP.part.nonpolar>
-13.5723

> <Gold.PLP.part.repulsive>
0.2840

> <Gold.PLP.ligand.clash>
0.0000

> <Gold.PLP.ligand.torsion>
0.4442

> <Gold.PLP.Chemscore.Hbond>
5.0000

> <Gold.PLP.Chemscore.CHOScore>
2.0000

> <Gold.PLP.Chemscore.Metal>
0.0000

> <Gold.Chemscore.Hbonds>
donor molecule, donor type, donor heavy atom, donor atom, acceptor molecule, acceptor atom, score
      L1  H     6    17       P1 10952  1.00
      L1  H     6    23       P1 10186  2.00
      L1  H     8    20       P1 10186  1.00
      L1  H     8    21       P1 10195  0.99
      L1  C     3    14       P1 10957  0.96
      L1  C     9    22       P1  7921  1.00

> <Gold.PLP.Chemscore.Internal.Correction>
0.0135

> <Gold.Rescore>
     Score         DG    S(hbond)    S(metal)    S(lipo)     H(rot)  DE(clash)    DE(int)     intcor
     18.91     -19.60       3.75        0.00      44.33       1.40       0.12       0.57       ----

> <Gold.Chemscore.Fitness>
18.9076

> <Gold.Chemscore.DG>
-19.5994

> <Gold.Chemscore.ZeroCoef>
-5.4800

> <Gold.Chemscore.Hbond>
3.7512

> <Gold.Chemscore.Metal>
0.0000

> <Gold.Chemscore.Lipo>
44.3253

> <Gold.Chemscore.Internal_Hbond>
0.0000

> <Gold.Chemscore.DEClash>
0.1207

> <Gold.Chemscore.DEInternal>
0.5711

> <Gold.Chemscore.Rot>
1.4045

> <Gold.Chemscore.Internal.Correction>
   9.000000E+99

> <Gold.Chemscore.Hbonds>
donor molecule, donor type, donor heavy atom, donor atom, acceptor molecule, acceptor atom, score
      L1  H     6    17       P1 10952  0.45
      L1  H     6    23       P1 10186  0.95
      L1  H     8    20       P1 10186  0.94
      L1  H     8    21       P1 10195  0.93

> <Gold.Chemscore.Hbond.Weighted>
-12.5289

> <Gold.Chemscore.Metal.Weighted>
-0.0000

> <Gold.Chemscore.Lipo.Weighted>
-5.1861

> <Gold.Chemscore.Internal_Hbond.Weighted>
0.0000

> <Gold.Chemscore.DEClash.Weighted>
0.1207

> <Gold.Chemscore.DEInternal.Weighted>
0.5711

> <Gold.Chemscore.Rot.Weighted>
3.5956

> <Gold.Chemscore.Internal.Correction.Weighted>
   9.000000E+99

> <Gold.Protein.RotatedTorsions>
[ 6907 6896 6895 6894 ] final  -74.04 input  -60.11 | X-H torsion
[ 7974 7965 7964 7962 ] final   98.81 input  175.53 | X-H torsion
[ 8008 7997 7996 7995 ] final  143.22 input   59.86 | X-H torsion
[ 10167 10162 10161 10158 ] final  159.99 input  -65.29 | X-H torsion
[ 10718 10713 10712 10709 ] final -137.81 input   66.30 | X-H torsion
[ 10763 10752 10751 10750 ] final -148.62 input  -60.55 | X-H torsion
[ 11005 11000 10999 10996 ] final -165.50 input  -57.11 | X-H torsion

> <Gold.Protein.ActiveResidues>
 VAL166  LYS551  ARG553  GLY616  TRP617  ASP618  TYR619  PRO620  LYS621  CYS622 
 ASP623  PHE694  ASN695  SER759  ASP760  ASP761  ALA762  ILE779  LEU786  VAL792 
 PHE793  MET794  SER795  GLU796  ALA797  LYS798  CYS799  TRP800  GLU811  SER814 

> <Gold.Protein.RotatedAtoms>
  150.7108  134.4928  159.5523 H   0  0  0  0  0  0  0  0  0  0  0  0  # atno 6907 bound_to 6896
  152.2542  134.8098  160.0450 H   0  0  0  0  0  0  0  0  0  0  0  0  # atno 6908 bound_to 6896
  151.8835  133.3465  159.3811 H   0  0  0  0  0  0  0  0  0  0  0  0  # atno 6909 bound_to 6896
  145.4073  139.2339  143.3267 H   0  0  0  0  0  0  0  0  0  0  0  0  # atno 7974 bound_to 7965
  156.2934  140.2268  156.4856 H   0  0  0  0  0  0  0  0  0  0  0  0  # atno 8008 bound_to 7997
  154.7815  140.0460  157.1152 H   0  0  0  0  0  0  0  0  0  0  0  0  # atno 8009 bound_to 7997
  154.9753  140.3071  155.4973 H   0  0  0  0  0  0  0  0  0  0  0  0  # atno 8010 bound_to 7997
  139.4836  144.4677  151.8619 H   0  0  0  0  0  0  0  0  0  0  0  0  # atno 10167 bound_to 10162
  156.2923  130.7382  151.1411 H   0  0  0  0  0  0  0  0  0  0  0  0  # atno 10718 bound_to 10713
  154.8223  135.3330  154.7001 H   0  0  0  0  0  0  0  0  0  0  0  0  # atno 10763 bound_to 10752
  153.7632  135.6931  153.4925 H   0  0  0  0  0  0  0  0  0  0  0  0  # atno 10764 bound_to 10752
  153.2095  135.4487  155.0312 H   0  0  0  0  0  0  0  0  0  0  0  0  # atno 10765 bound_to 10752
  140.5750  134.5199  157.5168 H   0  0  0  0  0  0  0  0  0  0  0  0  # atno 11005 bound_to 11000
  146.2722  140.4779  142.8810 LP  0  0  0  0  0  0  0  0  0  0  0  0  # atno 17320 bound_to 7965
  144.8333  140.6742  143.6277 LP  0  0  0  0  0  0  0  0  0  0  0  0  # atno 17321 bound_to 7965
  140.4144  144.2327  150.5888 LP  0  0  0  0  0  0  0  0  0  0  0  0  # atno 17342 bound_to 10162
  140.4935  143.2340  151.8783 LP  0  0  0  0  0  0  0  0  0  0  0  0  # atno 17343 bound_to 10162
  157.7346  131.0580  150.5517 LP  0  0  0  0  0  0  0  0  0  0  0  0  # atno 17370 bound_to 10713
  156.5635  130.4261  149.6052 LP  0  0  0  0  0  0  0  0  0  0  0  0  # atno 17371 bound_to 10713
  139.9344  134.7903  156.0843 LP  0  0  0  0  0  0  0  0  0  0  0  0  # atno 17394 bound_to 11000
  141.1032  133.6669  156.2803 LP  0  0  0  0  0  0  0  0  0  0  0  0  # atno 17395 bound_to 11000

$$$$
