AV-unprocessed.smi:1002|AV-procd|sdf|4359|dock6
  -GOLD-   22720 2263D 1   1.00000     0.00000
 Structure written by MMmdl.
 36 37  0  0  0  0  0  0  0  0  2 V2000
  152.6855  140.0626  157.9723 O   0  0  0  0  0  0  0  0  0  0  0  0
  152.1030  140.6138  158.9063 C   0  0  0  0  0  0  0  0  0  0  0  0
  152.8525  141.6072  159.7949 C   0  0  0  0  0  0  0  0  0  0  0  0
  152.3014  143.0094  159.6049 C   0  0  0  0  0  0  0  0  0  0  0  0
  151.5591  143.3426  158.4526 C   0  0  0  0  0  0  0  0  0  0  0  0
  151.0696  144.6579  158.3248 C   0  0  0  0  0  0  0  0  0  0  0  0
  151.2755  145.6195  159.2503 N   0  0  0  0  0  0  0  0  0  0  0  0
  151.9886  145.2946  160.3501 C   0  0  0  0  0  0  0  0  0  0  0  0
  152.5233  144.0101  160.5746 C   0  0  0  0  0  0  0  0  0  0  0  0
  150.8131  140.3978  159.2082 N   0  0  0  0  0  0  0  0  0  0  0  0
  149.9124  139.5032  158.4885 C   0  0  2  0  0  0  0  0  0  0  0  0
  150.5874  138.1295  158.3148 C   0  0  0  0  0  0  0  0  0  0  0  0
  149.7099  137.1691  157.4894 C   0  0  0  0  0  0  0  0  0  0  0  0
  149.3253  137.7574  156.1092 C   0  0  2  0  0  0  0  0  0  0  0  0
  150.5189  137.8152  155.1264 C   0  0  0  0  0  0  0  0  0  0  0  0
  151.0570  136.7336  154.8010 O   0  0  0  0  0  0  0  0  0  0  0  0
  150.9013  138.9397  154.7326 O   0  5  0  0  0  0  0  0  0  0  0  0
  148.6507  139.1374  156.3052 C   0  0  0  0  0  0  0  0  0  0  0  0
  149.5246  140.1072  157.1226 C   0  0  0  0  0  0  0  0  0  0  0  0
  152.7681  141.3134  160.8423 H   0  0  0  0  0  0  0  0  0  0  0  0
  153.9151  141.5895  159.5487 H   0  0  0  0  0  0  0  0  0  0  0  0
  151.3655  142.6082  157.6846 H   0  0  0  0  0  0  0  0  0  0  0  0
  150.4975  144.9448  157.4549 H   0  0  0  0  0  0  0  0  0  0  0  0
  152.1381  146.0823  161.0737 H   0  0  0  0  0  0  0  0  0  0  0  0
  153.0860  143.7997  161.4723 H   0  0  0  0  0  0  0  0  0  0  0  0
  150.4216  140.8944  159.9954 H   0  0  0  0  0  0  0  0  0  0  0  0
  149.0056  139.3603  159.0799 H   0  0  0  0  0  0  0  0  0  0  0  0
  151.5569  138.2512  157.8298 H   0  0  0  0  0  0  0  0  0  0  0  0
  150.7898  137.6886  159.2916 H   0  0  0  0  0  0  0  0  0  0  0  0
  150.2101  136.2061  157.3802 H   0  0  0  0  0  0  0  0  0  0  0  0
  148.7975  136.9579  158.0482 H   0  0  0  0  0  0  0  0  0  0  0  0
  148.5984  137.0881  155.6478 H   0  0  0  0  0  0  0  0  0  0  0  0
  148.3905  139.5885  155.3472 H   0  0  0  0  0  0  0  0  0  0  0  0
  147.7020  138.9947  156.8237 H   0  0  0  0  0  0  0  0  0  0  0  0
  148.9858  141.0443  157.2666 H   0  0  0  0  0  0  0  0  0  0  0  0
  150.4242  140.3575  156.5586 H   0  0  0  0  0  0  0  0  0  0  0  0
  1  2  2  0  0  0  0
  2  3  1  0  0  0  0
  2 10  1  0  0  0  0
  3  4  1  0  0  0  0
  3 20  1  0  0  0  0
  3 21  1  0  0  0  0
  4  9  1  0  0  0  0
  4  5  2  0  0  0  0
  5  6  1  0  0  0  0
  5 22  1  0  0  0  0
  6  7  2  0  0  0  0
  6 23  1  0  0  0  0
  7  8  1  0  0  0  0
  8  9  2  0  0  0  0
  8 24  1  0  0  0  0
  9 25  1  0  0  0  0
 10 11  1  0  0  0  0
 10 26  1  0  0  0  0
 11 19  1  0  0  0  0
 11 12  1  0  0  0  0
 11 27  1  0  0  0  0
 12 13  1  0  0  0  0
 12 28  1  0  0  0  0
 12 29  1  0  0  0  0
 13 14  1  0  0  0  0
 13 30  1  0  0  0  0
 13 31  1  0  0  0  0
 14 15  1  0  0  0  0
 14 18  1  0  0  0  0
 14 32  1  0  0  0  0
 15 16  2  0  0  0  0
 15 17  1  0  0  0  0
 18 19  1  0  0  0  0
 18 33  1  0  0  0  0
 18 34  1  0  0  0  0
 19 35  1  0  0  0  0
 19 36  1  0  0  0  0
M  CHG  1  17  -1
M  END
> <s_m_source_file>
AV-unprocessed.smi

> <i_m_source_file_index>
1002

> <i_lp_mmshare_version>
43012

> <i_f3d_flags>
0

> <s_epik_input>
Tz1DKFtPSF0pW0NAQEhdKFtDSDJdW0NIMl0xKVtDSDJdW0NIMl1bQ0BIXTFbTkhdQyg9TylbQ0gyXWMyW2NIXVtjSF1uW2NIXVtjSF0y

> <s_epik_cmdline>
J2VwaWtfcHl0aG9uJywgJy1waCcsICc3LjAnLCAnLXRuJywgJzgnLCAnLW1hJywgJzIwMCcsICctbWV0YWxfYmluZGluZycsICctaW1hZScsICc8aW5maWxlLm1hZT4nLCAnLW9tYWUnLCAnPG91dGZpbGUubWFlPic=

> <r_lp_tautomer_probability>
1

> <r_epik_Ionization_Penalty>
0.0065671

> <r_epik_Ionization_Penalty_Charging>
0.00222897

> <r_epik_Ionization_Penalty_Neutral>
0.00433813

> <r_epik_State_Penalty>
-0

> <r_epik_Charging_Adjusted_Penalty>
0.00222897

> <i_epik_Tot_Q>
-1

> <i_epik_Tot_abs_Q>
1

> <r_epik_Metal_State_Penalty>
-0

> <b_epik_Metal_Only>
0

> <s_lp_Force_Field>
OPLS_2005

> <r_lp_Energy>
6.9224

> <b_lp_Chiralities_Consistent>
1

> <s_lp_Variant>
AV-unprocessed.smi:1002-2

> <Gold.Version>
5.8.1

> <Gold.Id.Protein>
6NUR|6NUR_protein|mol2

> <Gold.PLP.Fitness>
48.2236

> <Gold.PLP.PLP>
-34.2254

> <Gold.PLP.part.hbond>
-4.0000

> <Gold.PLP.part.metal>
0.0000

> <Gold.PLP.part.buried>
-4.6450

> <Gold.PLP.part.nonpolar>
-26.1773

> <Gold.PLP.part.repulsive>
0.6289

> <Gold.PLP.ligand.clash>
0.0000

> <Gold.PLP.ligand.torsion>
0.5056

> <Gold.PLP.Chemscore.Hbond>
3.9920

> <Gold.PLP.Chemscore.CHOScore>
1.0000

> <Gold.PLP.Chemscore.Metal>
0.0000

> <Gold.Chemscore.Hbonds>
donor molecule, donor type, donor heavy atom, donor atom, acceptor molecule, acceptor atom, score
      P1  H  7989  7998       L1    17  0.08
      P1  H  7997  8008       L1     1  0.83
      P1  H 10752 10764       L1    16  0.75
      L1  C     6    23       P1  8028  0.94
      L1  C     6    23       P1  8029  0.02

> <Gold.PLP.Chemscore.Internal.Correction>
0.0334

> <Gold.Rescore>
     Score         DG    S(hbond)    S(metal)    S(lipo)     H(rot)  DE(clash)    DE(int)     intcor
     15.97     -20.13       2.85        0.00      85.03       1.88       0.59       3.57       ----

> <Gold.Chemscore.Fitness>
15.9730

> <Gold.Chemscore.DG>
-20.1280

> <Gold.Chemscore.ZeroCoef>
-5.4800

> <Gold.Chemscore.Hbond>
2.8501

> <Gold.Chemscore.Metal>
0.0000

> <Gold.Chemscore.Lipo>
85.0309

> <Gold.Chemscore.Internal_Hbond>
0.0000

> <Gold.Chemscore.DEClash>
0.5892

> <Gold.Chemscore.DEInternal>
3.5659

> <Gold.Chemscore.Rot>
1.8828

> <Gold.Chemscore.Internal.Correction>
   9.000000E+99

> <Gold.Chemscore.Hbonds>
donor molecule, donor type, donor heavy atom, donor atom, acceptor molecule, acceptor atom, score
      P1  H  7989  7998       L1    17  0.11
      P1  H  7997  8008       L1     1  0.80
      P1  H 10752 10764       L1    16  0.35

> <Gold.Chemscore.Hbond.Weighted>
-9.5193

> <Gold.Chemscore.Metal.Weighted>
-0.0000

> <Gold.Chemscore.Lipo.Weighted>
-9.9486

> <Gold.Chemscore.Internal_Hbond.Weighted>
0.0000

> <Gold.Chemscore.DEClash.Weighted>
0.5892

> <Gold.Chemscore.DEInternal.Weighted>
3.5659

> <Gold.Chemscore.Rot.Weighted>
4.8199

> <Gold.Chemscore.Internal.Correction.Weighted>
   9.000000E+99

> <Gold.Protein.RotatedTorsions>
[ 6907 6896 6895 6894 ] final  166.11 input  -60.11 | X-H torsion
[ 7974 7965 7964 7962 ] final  -29.70 input  175.53 | X-H torsion
[ 8008 7997 7996 7995 ] final  -74.71 input   59.86 | X-H torsion
[ 10167 10162 10161 10158 ] final   91.23 input  -65.29 | X-H torsion
[ 10718 10713 10712 10709 ] final   14.33 input   66.30 | X-H torsion
[ 10763 10752 10751 10750 ] final  -87.18 input  -60.55 | X-H torsion
[ 11005 11000 10999 10996 ] final   13.67 input  -57.11 | X-H torsion

> <Gold.Protein.ActiveResidues>
 VAL166  LYS551  ARG553  GLY616  TRP617  ASP618  TYR619  PRO620  LYS621  CYS622 
 ASP623  PHE694  ASN695  SER759  ASP760  ASP761  ALA762  ILE779  LEU786  VAL792 
 PHE793  MET794  SER795  GLU796  ALA797  LYS798  CYS799  TRP800  GLU811  SER814 

> <Gold.Protein.RotatedAtoms>
  151.8840  133.3501  159.3775 H   0  0  0  0  0  0  0  0  0  0  0  0  # atno 6907 bound_to 6896
  150.7120  134.4990  159.5561 H   0  0  0  0  0  0  0  0  0  0  0  0  # atno 6908 bound_to 6896
  152.2547  134.8096  160.0491 H   0  0  0  0  0  0  0  0  0  0  0  0  # atno 6909 bound_to 6896
  146.1197  140.5445  142.8741 H   0  0  0  0  0  0  0  0  0  0  0  0  # atno 7974 bound_to 7965
  154.5354  140.0756  156.8418 H   0  0  0  0  0  0  0  0  0  0  0  0  # atno 8008 bound_to 7997
  155.3288  140.3400  155.4221 H   0  0  0  0  0  0  0  0  0  0  0  0  # atno 8009 bound_to 7997
  156.1823  140.1656  156.8237 H   0  0  0  0  0  0  0  0  0  0  0  0  # atno 8010 bound_to 7997
  139.8395  144.6648  150.9300 H   0  0  0  0  0  0  0  0  0  0  0  0  # atno 10167 bound_to 10162
  157.0375  130.6218  149.5745 H   0  0  0  0  0  0  0  0  0  0  0  0  # atno 10718 bound_to 10713
  154.6308  135.5422  153.7678 H   0  0  0  0  0  0  0  0  0  0  0  0  # atno 10763 bound_to 10752
  153.0283  135.6435  154.1304 H   0  0  0  0  0  0  0  0  0  0  0  0  # atno 10764 bound_to 10752
  154.1234  135.2919  155.3183 H   0  0  0  0  0  0  0  0  0  0  0  0  # atno 10765 bound_to 10752
  140.4781  134.0963  155.7745 H   0  0  0  0  0  0  0  0  0  0  0  0  # atno 11005 bound_to 11000
  144.7586  140.5368  143.6751 LP  0  0  0  0  0  0  0  0  0  0  0  0  # atno 17320 bound_to 7965
  145.5491  139.1476  143.3404 LP  0  0  0  0  0  0  0  0  0  0  0  0  # atno 17321 bound_to 7965
  140.7799  143.3925  151.1285 LP  0  0  0  0  0  0  0  0  0  0  0  0  # atno 17342 bound_to 10162
  139.7573  143.8688  152.3092 LP  0  0  0  0  0  0  0  0  0  0  0  0  # atno 17343 bound_to 10162
  156.0049  130.5134  150.7794 LP  0  0  0  0  0  0  0  0  0  0  0  0  # atno 17370 bound_to 10713
  157.5130  131.0926  151.0175 LP  0  0  0  0  0  0  0  0  0  0  0  0  # atno 17371 bound_to 10713
  141.1545  133.8909  157.2014 LP  0  0  0  0  0  0  0  0  0  0  0  0  # atno 17394 bound_to 11000
  139.9843  135.0087  156.9826 LP  0  0  0  0  0  0  0  0  0  0  0  0  # atno 17395 bound_to 11000

$$$$
