AV-unprocessed.smi:2202|AV-procd|sdf|8934|dock1
  -GOLD-   2272012153D 1   1.00000     0.00000
 Structure written by MMmdl.
 43 45  0  0  0  0  0  0  0  0  2 V2000
  154.1636  138.3186  160.9123 O   0  0  0  0  0  0  0  0  0  0  0  0
  154.4739  138.8597  161.9750 C   0  0  0  0  0  0  0  0  0  0  0  0
  154.9742  140.3109  162.0105 C   0  0  0  0  0  0  0  0  0  0  0  0
  154.0911  141.2507  161.3083 N   0  0  0  0  0  0  0  0  0  0  0  0
  153.4977  142.3128  161.8879 C   0  0  0  0  0  0  0  0  0  0  0  0
  153.6500  142.7127  163.0416 O   0  0  0  0  0  0  0  0  0  0  0  0
  152.5192  142.9310  160.9007 C   0  0  1  0  0  0  0  0  0  0  0  0
  152.2598  144.4405  160.8241 C   0  0  0  0  0  0  0  0  0  0  0  0
  151.4344  144.7168  159.5628 C   0  0  0  0  0  0  0  0  0  0  0  0
  151.2865  143.8273  158.5503 C   0  0  0  0  0  0  0  0  0  0  0  0
  151.9597  142.4511  158.5218 C   0  0  0  0  0  0  0  0  0  0  0  0
  153.0734  142.4458  159.5759 C   0  0  2  0  0  0  0  0  0  0  0  0
  153.8060  141.1796  159.9928 C   0  0  0  0  0  0  0  0  0  0  0  0
  154.1316  140.2886  159.2088 O   0  0  0  0  0  0  0  0  0  0  0  0
  154.4050  138.2356  163.1606 N   0  0  0  0  0  0  0  0  0  0  0  0
  153.9556  136.8621  163.3546 C   0  0  0  0  0  0  0  0  0  0  0  0
  154.7624  136.1531  164.4556 C   0  0  0  0  0  0  0  0  0  0  0  0
  154.3231  134.7155  164.6514 C   0  0  0  0  0  0  0  0  0  0  0  0
  154.4189  133.7520  163.6240 C   0  0  0  0  0  0  0  0  0  0  0  0
  153.9848  132.4333  163.8742 C   0  0  0  0  0  0  0  0  0  0  0  0
  153.4639  132.1069  165.1437 C   0  0  0  0  0  0  0  0  0  0  0  0
  153.3894  133.1091  166.1324 C   0  0  0  0  0  0  0  0  0  0  0  0
  153.8156  134.3607  165.8544 N   0  3  0  0  0  0  0  0  0  0  0  0
  155.0876  140.6231  163.0504 H   0  0  0  0  0  0  0  0  0  0  0  0
  155.9766  140.3423  161.5797 H   0  0  0  0  0  0  0  0  0  0  0  0
  151.5626  142.4401  161.0959 H   0  0  0  0  0  0  0  0  0  0  0  0
  151.7033  144.7726  161.7009 H   0  0  0  0  0  0  0  0  0  0  0  0
  153.1896  145.0090  160.7876 H   0  0  0  0  0  0  0  0  0  0  0  0
  150.9496  145.6801  159.5028 H   0  0  0  0  0  0  0  0  0  0  0  0
  150.6685  144.0813  157.7017 H   0  0  0  0  0  0  0  0  0  0  0  0
  151.2183  141.6747  158.7132 H   0  0  0  0  0  0  0  0  0  0  0  0
  152.3777  142.2725  157.5307 H   0  0  0  0  0  0  0  0  0  0  0  0
  153.8535  143.1312  159.2357 H   0  0  0  0  0  0  0  0  0  0  0  0
  154.6828  138.7489  163.9848 H   0  0  0  0  0  0  0  0  0  0  0  0
  152.8897  136.8512  163.5902 H   0  0  0  0  0  0  0  0  0  0  0  0
  154.0698  136.3299  162.4098 H   0  0  0  0  0  0  0  0  0  0  0  0
  155.8255  136.1732  164.2110 H   0  0  0  0  0  0  0  0  0  0  0  0
  154.6561  136.6803  165.4049 H   0  0  0  0  0  0  0  0  0  0  0  0
  154.8186  134.0182  162.6561 H   0  0  0  0  0  0  0  0  0  0  0  0
  154.0501  131.6810  163.1016 H   0  0  0  0  0  0  0  0  0  0  0  0
  153.1258  131.1029  165.3554 H   0  0  0  0  0  0  0  0  0  0  0  0
  153.0047  132.9492  167.1291 H   0  0  0  0  0  0  0  0  0  0  0  0
  153.7526  135.0708  166.5846 H   0  0  0  0  0  0  0  0  0  0  0  0
  1  2  2  0  0  0  0
  2  3  1  0  0  0  0
  2 15  1  0  0  0  0
  3  4  1  0  0  0  0
  3 24  1  0  0  0  0
  3 25  1  0  0  0  0
  4 13  1  0  0  0  0
  4  5  1  0  0  0  0
  5  6  2  0  0  0  0
  5  7  1  0  0  0  0
  7 12  1  0  0  0  0
  7  8  1  0  0  0  0
  7 26  1  0  0  0  0
  8  9  1  0  0  0  0
  8 27  1  0  0  0  0
  8 28  1  0  0  0  0
  9 10  2  0  0  0  0
  9 29  1  0  0  0  0
 10 11  1  0  0  0  0
 10 30  1  0  0  0  0
 11 12  1  0  0  0  0
 11 31  1  0  0  0  0
 11 32  1  0  0  0  0
 12 13  1  0  0  0  0
 12 33  1  0  0  0  0
 13 14  2  0  0  0  0
 15 16  1  0  0  0  0
 15 34  1  0  0  0  0
 16 17  1  0  0  0  0
 16 35  1  0  0  0  0
 16 36  1  0  0  0  0
 17 18  1  0  0  0  0
 17 37  1  0  0  0  0
 17 38  1  0  0  0  0
 18 23  1  0  0  0  0
 18 19  2  0  0  0  0
 19 20  1  0  0  0  0
 19 39  1  0  0  0  0
 20 21  2  0  0  0  0
 20 40  1  0  0  0  0
 21 22  1  0  0  0  0
 21 41  1  0  0  0  0
 22 23  2  0  0  0  0
 22 42  1  0  0  0  0
 23 43  1  0  0  0  0
M  CHG  1  23   1
M  END
> <s_m_source_file>
AV-unprocessed.smi

> <i_m_source_file_index>
2202

> <i_lp_mmshare_version>
43012

> <i_f3d_flags>
0

> <s_epik_input>
W0NIMl0xW0NIXT1bQ0hdW0NIMl1bQ0BIXShbQ0BIXTEyKUMoPU8pTihDMj1PKVtDSDJdQyg9TylbTkhdW0NIMl1bQ0gyXWMzW2NIXVtjSF1bY0hdW2NIXW4z

> <s_epik_cmdline>
J2VwaWtfcHl0aG9uJywgJy1waCcsICc3LjAnLCAnLXRuJywgJzgnLCAnLW1hJywgJzIwMCcsICctbWV0YWxfYmluZGluZycsICctaW1hZScsICc8aW5maWxlLm1hZT4nLCAnLW9tYWUnLCAnPG91dGZpbGUubWFlPic=

> <r_lp_tautomer_probability>
1

> <r_epik_Ionization_Penalty>
1.90039

> <r_epik_Ionization_Penalty_Charging>
1.90039

> <r_epik_Ionization_Penalty_Neutral>
1.50224e-07

> <r_epik_State_Penalty>
2.02162

> <r_epik_Charging_Adjusted_Penalty>
3.922

> <i_epik_Tot_Q>
1

> <i_epik_Tot_abs_Q>
1

> <r_epik_Metal_State_Penalty>
2.04542

> <b_epik_Metal_Only>
0

> <s_lp_Force_Field>
OPLS_2005

> <r_lp_Energy>
26.7025

> <b_lp_Chiralities_Consistent>
1

> <s_lp_Variant>
AV-unprocessed.smi:2202-6

> <Gold.Version>
5.8.1

> <Gold.Id.Protein>
6NUR|6NUR_protein|mol2

> <Gold.PLP.Fitness>
56.6188

> <Gold.PLP.PLP>
-54.4974

> <Gold.PLP.part.hbond>
-2.0000

> <Gold.PLP.part.metal>
0.0000

> <Gold.PLP.part.buried>
-5.5808

> <Gold.PLP.part.nonpolar>
-46.9103

> <Gold.PLP.part.repulsive>
0.1581

> <Gold.PLP.ligand.clash>
0.0000

> <Gold.PLP.ligand.torsion>
0.2376

> <Gold.PLP.Chemscore.Hbond>
0.8480

> <Gold.PLP.Chemscore.CHOScore>
0.0000

> <Gold.PLP.Chemscore.Metal>
0.0000

> <Gold.Chemscore.Hbonds>
donor molecule, donor type, donor heavy atom, donor atom, acceptor molecule, acceptor atom, score
      P1  H  7997  8010       L1    14  0.71

> <Gold.PLP.Chemscore.Internal.Correction>
0.0525

> <Gold.Rescore>
     Score         DG    S(hbond)    S(metal)    S(lipo)     H(rot)  DE(clash)    DE(int)     intcor
     15.37     -18.32       0.92        0.00     126.40       1.96       0.16       2.80       ----

> <Gold.Chemscore.Fitness>
15.3732

> <Gold.Chemscore.DG>
-18.3246

> <Gold.Chemscore.ZeroCoef>
-5.4800

> <Gold.Chemscore.Hbond>
0.9221

> <Gold.Chemscore.Metal>
0.0000

> <Gold.Chemscore.Lipo>
126.4011

> <Gold.Chemscore.Internal_Hbond>
0.0000

> <Gold.Chemscore.DEClash>
0.1557

> <Gold.Chemscore.DEInternal>
2.7958

> <Gold.Chemscore.Rot>
1.9625

> <Gold.Chemscore.Internal.Correction>
   9.000000E+99

> <Gold.Chemscore.Hbonds>
donor molecule, donor type, donor heavy atom, donor atom, acceptor molecule, acceptor atom, score
      P1  H  7997  8010       L1    14  0.70

> <Gold.Chemscore.Hbond.Weighted>
-3.0797

> <Gold.Chemscore.Metal.Weighted>
-0.0000

> <Gold.Chemscore.Lipo.Weighted>
-14.7889

> <Gold.Chemscore.Internal_Hbond.Weighted>
0.0000

> <Gold.Chemscore.DEClash.Weighted>
0.1557

> <Gold.Chemscore.DEInternal.Weighted>
2.7958

> <Gold.Chemscore.Rot.Weighted>
5.0240

> <Gold.Chemscore.Internal.Correction.Weighted>
   9.000000E+99

> <Gold.Protein.RotatedTorsions>
[ 6907 6896 6895 6894 ] final -122.41 input  -60.11 | X-H torsion
[ 7974 7965 7964 7962 ] final   58.19 input  175.53 | X-H torsion
[ 8008 7997 7996 7995 ] final   12.72 input   59.86 | X-H torsion
[ 10167 10162 10161 10158 ] final  -76.01 input  -65.29 | X-H torsion
[ 10718 10713 10712 10709 ] final   59.16 input   66.30 | X-H torsion
[ 10763 10752 10751 10750 ] final  -32.98 input  -60.55 | X-H torsion
[ 11005 11000 10999 10996 ] final  -79.14 input  -57.11 | X-H torsion

> <Gold.Protein.ActiveResidues>
 VAL166  LYS551  ARG553  GLY616  TRP617  ASP618  TYR619  PRO620  LYS621  CYS622 
 ASP623  PHE694  ASN695  SER759  ASP760  ASP761  ALA762  ILE779  LEU786  VAL792 
 PHE793  MET794  SER795  GLU796  ALA797  LYS798  CYS799  TRP800  GLU811  SER814 

> <Gold.Protein.RotatedAtoms>
  150.8574  133.7695  159.3003 H   0  0  0  0  0  0  0  0  0  0  0  0  # atno 6907 bound_to 6896
  151.5348  135.1067  159.9921 H   0  0  0  0  0  0  0  0  0  0  0  0  # atno 6908 bound_to 6896
  152.4600  133.7758  159.6880 H   0  0  0  0  0  0  0  0  0  0  0  0  # atno 6909 bound_to 6896
  145.9209  139.3729  143.0479 H   0  0  0  0  0  0  0  0  0  0  0  0  # atno 7974 bound_to 7965
  154.8245  140.2889  155.5764 H   0  0  0  0  0  0  0  0  0  0  0  0  # atno 8008 bound_to 7997
  156.3000  140.2544  156.3089 H   0  0  0  0  0  0  0  0  0  0  0  0  # atno 8009 bound_to 7997
  154.9301  140.0383  157.2033 H   0  0  0  0  0  0  0  0  0  0  0  0  # atno 8010 bound_to 7997
  140.4893  143.2384  151.7932 H   0  0  0  0  0  0  0  0  0  0  0  0  # atno 10167 bound_to 10162
  157.5654  130.8867  149.9178 H   0  0  0  0  0  0  0  0  0  0  0  0  # atno 10718 bound_to 10713
  153.8228  135.6873  153.4825 H   0  0  0  0  0  0  0  0  0  0  0  0  # atno 10763 bound_to 10752
  153.1559  135.4599  154.9701 H   0  0  0  0  0  0  0  0  0  0  0  0  # atno 10764 bound_to 10752
  154.7920  135.3305  154.7698 H   0  0  0  0  0  0  0  0  0  0  0  0  # atno 10765 bound_to 10752
  141.1666  133.7093  156.8077 H   0  0  0  0  0  0  0  0  0  0  0  0  # atno 11005 bound_to 11000
  145.8551  140.9507  143.0729 LP  0  0  0  0  0  0  0  0  0  0  0  0  # atno 17320 bound_to 7965
  144.6753  140.0457  143.7480 LP  0  0  0  0  0  0  0  0  0  0  0  0  # atno 17321 bound_to 7965
  139.4848  144.4670  151.9472 LP  0  0  0  0  0  0  0  0  0  0  0  0  # atno 17342 bound_to 10162
  140.3756  144.2800  150.5914 LP  0  0  0  0  0  0  0  0  0  0  0  0  # atno 17343 bound_to 10162
  156.0702  130.3686  150.0791 LP  0  0  0  0  0  0  0  0  0  0  0  0  # atno 17370 bound_to 10713
  156.8950  130.9601  151.3583 LP  0  0  0  0  0  0  0  0  0  0  0  0  # atno 17371 bound_to 10713
  140.2210  134.8757  157.3377 LP  0  0  0  0  0  0  0  0  0  0  0  0  # atno 17394 bound_to 11000
  140.1988  134.4281  155.7674 LP  0  0  0  0  0  0  0  0  0  0  0  0  # atno 17395 bound_to 11000

$$$$
