AV-unprocessed.smi:3330|AV-procd|sdf|12808|dock4
  -GOLD-   2272019173D 1   1.00000     0.00000
 Structure written by MMmdl.
 38 39  0  0  0  0  0  0  0  0  1 V2000
  152.6595  139.4912  159.1618 C   0  0  0  0  0  0  0  0  0  0  0  0
  152.5736  141.0029  158.8754 C   0  0  1  0  0  0  0  0  0  0  0  0
  151.4398  141.2522  157.9902 N   0  0  0  0  0  0  0  0  0  0  0  0
  151.7735  141.0249  156.5918 C   0  0  0  0  0  0  0  0  0  0  0  0
  151.7183  139.5181  156.2869 C   0  0  0  0  0  0  0  0  0  0  0  0
  150.7081  139.2026  155.2691 N   0  0  0  0  0  0  0  0  0  0  0  0
  149.5554  139.8671  155.1111 C   0  0  0  0  0  0  0  0  0  0  0  0
  149.1505  140.8320  155.7588 O   0  0  0  0  0  0  0  0  0  0  0  0
  148.7940  139.2415  153.9628 C   0  0  0  0  0  0  0  0  0  0  0  0
  149.7419  138.2169  153.5834 N   0  0  0  0  0  0  0  0  0  0  0  0
  150.8348  138.2203  154.3576 C   0  0  0  0  0  0  0  0  0  0  0  0
  151.7871  137.4504  154.2404 O   0  0  0  0  0  0  0  0  0  0  0  0
  152.3880  141.8570  160.1596 C   0  0  1  0  0  0  0  0  0  0  0  0
  153.5538  141.7091  161.1549 C   0  0  0  0  0  0  0  0  0  0  0  0
  152.1900  143.2697  159.8466 N   0  0  0  0  0  0  0  0  0  0  0  0
  151.9093  144.3021  160.7175 C   0  0  0  0  0  0  0  0  0  0  0  0
  151.8128  145.4462  159.9787 C   0  0  0  0  0  0  0  0  0  0  0  0
  152.0565  145.0099  158.6469 C   0  0  0  0  0  0  0  0  0  0  0  0
  152.2830  143.7091  158.5701 N   0  0  0  0  0  0  0  0  0  0  0  0
  153.5232  139.2502  159.7804 H   0  0  0  0  0  0  0  0  0  0  0  0
  152.7652  138.9111  158.2453 H   0  0  0  0  0  0  0  0  0  0  0  0
  151.7687  139.1340  159.6795 H   0  0  0  0  0  0  0  0  0  0  0  0
  153.4926  141.3261  158.3842 H   0  0  0  0  0  0  0  0  0  0  0  0
  151.1697  142.2202  158.0937 H   0  0  0  0  0  0  0  0  0  0  0  0
  151.0867  141.5613  155.9356 H   0  0  0  0  0  0  0  0  0  0  0  0
  152.7749  141.4067  156.3936 H   0  0  0  0  0  0  0  0  0  0  0  0
  152.6949  139.1933  155.9244 H   0  0  0  0  0  0  0  0  0  0  0  0
  151.5458  138.9468  157.2009 H   0  0  0  0  0  0  0  0  0  0  0  0
  147.8483  138.8120  154.2942 H   0  0  0  0  0  0  0  0  0  0  0  0
  148.6225  139.9506  153.1532 H   0  0  0  0  0  0  0  0  0  0  0  0
  149.5846  137.5766  152.8187 H   0  0  0  0  0  0  0  0  0  0  0  0
  151.4827  141.5167  160.6656 H   0  0  0  0  0  0  0  0  0  0  0  0
  153.6180  140.6970  161.5528 H   0  0  0  0  0  0  0  0  0  0  0  0
  153.4269  142.3775  162.0070 H   0  0  0  0  0  0  0  0  0  0  0  0
  154.5100  141.9465  160.6874 H   0  0  0  0  0  0  0  0  0  0  0  0
  151.7992  144.1379  161.7794 H   0  0  0  0  0  0  0  0  0  0  0  0
  151.5986  146.4427  160.3353 H   0  0  0  0  0  0  0  0  0  0  0  0
  152.0721  145.5952  157.7395 H   0  0  0  0  0  0  0  0  0  0  0  0
  1  2  1  0  0  0  0
  1 20  1  0  0  0  0
  1 21  1  0  0  0  0
  1 22  1  0  0  0  0
  2  3  1  0  0  0  0
  2 13  1  0  0  0  0
  2 23  1  0  0  0  0
  3  4  1  0  0  0  0
  3 24  1  0  0  0  0
  4  5  1  0  0  0  0
  4 25  1  0  0  0  0
  4 26  1  0  0  0  0
  5  6  1  0  0  0  0
  5 27  1  0  0  0  0
  5 28  1  0  0  0  0
  6 11  1  0  0  0  0
  6  7  1  0  0  0  0
  7  8  2  0  0  0  0
  7  9  1  0  0  0  0
  9 10  1  0  0  0  0
  9 29  1  0  0  0  0
  9 30  1  0  0  0  0
 10 11  1  0  0  0  0
 10 31  1  0  0  0  0
 11 12  2  0  0  0  0
 13 14  1  0  0  0  0
 13 15  1  0  0  0  0
 13 32  1  0  0  0  0
 14 33  1  0  0  0  0
 14 34  1  0  0  0  0
 14 35  1  0  0  0  0
 15 19  1  0  0  0  0
 15 16  1  0  0  0  0
 16 17  2  0  0  0  0
 16 36  1  0  0  0  0
 17 18  1  0  0  0  0
 17 37  1  0  0  0  0
 18 19  2  0  0  0  0
 18 38  1  0  0  0  0
M  END
> <s_m_source_file>
AV-unprocessed.smi

> <i_m_source_file_index>
3330

> <i_lp_mmshare_version>
43012

> <i_f3d_flags>
0

> <s_epik_input>
bjFbY0hdW2NIXVtjSF1uMVtDQEBIXShbQ0gzXSlbQ0BIXShbQ0gzXSlbTkhdW0NIMl1bQ0gyXU4yQyg9TylbQ0gyXVtOSF1DMj1P

> <s_epik_cmdline>
J2VwaWtfcHl0aG9uJywgJy1waCcsICc3LjAnLCAnLXRuJywgJzgnLCAnLW1hJywgJzIwMCcsICctbWV0YWxfYmluZGluZycsICctaW1hZScsICc8aW5maWxlLm1hZT4nLCAnLW9tYWUnLCAnPG91dGZpbGUubWFlPic=

> <r_lp_tautomer_probability>
1

> <r_epik_Ionization_Penalty>
2.2997

> <r_epik_Ionization_Penalty_Charging>
0

> <r_epik_Ionization_Penalty_Neutral>
2.2997

> <r_epik_State_Penalty>
2.44917

> <r_epik_Charging_Adjusted_Penalty>
2.44917

> <i_epik_Tot_Q>
0

> <i_epik_Tot_abs_Q>
0

> <r_epik_Metal_State_Penalty>
2.52438

> <b_epik_Metal_Only>
0

> <s_lp_Force_Field>
OPLS_2005

> <r_lp_Energy>
27.2157

> <b_lp_Chiralities_Consistent>
1

> <s_lp_Variant>
AV-unprocessed.smi:3330-8

> <Gold.Version>
5.8.1

> <Gold.Id.Protein>
6NUR|6NUR_protein|mol2

> <Gold.PLP.Fitness>
47.3842

> <Gold.PLP.PLP>
-43.6266

> <Gold.PLP.part.hbond>
-3.2935

> <Gold.PLP.part.metal>
0.0000

> <Gold.PLP.part.buried>
-5.6851

> <Gold.PLP.part.nonpolar>
-36.1138

> <Gold.PLP.part.repulsive>
0.3436

> <Gold.PLP.ligand.clash>
0.0000

> <Gold.PLP.ligand.torsion>
1.1419

> <Gold.PLP.Chemscore.Hbond>
1.9760

> <Gold.PLP.Chemscore.CHOScore>
0.0000

> <Gold.PLP.Chemscore.Metal>
0.0000

> <Gold.Chemscore.Hbonds>
donor molecule, donor type, donor heavy atom, donor atom, acceptor molecule, acceptor atom, score
      L1  H    10    31       P1  7948  1.00
      P1  H 10752 10765       L1    12  0.78

> <Gold.PLP.Chemscore.Internal.Correction>
0.1134

> <Gold.Rescore>
     Score         DG    S(hbond)    S(metal)    S(lipo)     H(rot)  DE(clash)    DE(int)     intcor
     10.59     -15.97       1.92        0.00      91.62       2.60       0.30       5.08       ----

> <Gold.Chemscore.Fitness>
10.5910

> <Gold.Chemscore.DG>
-15.9686

> <Gold.Chemscore.ZeroCoef>
-5.4800

> <Gold.Chemscore.Hbond>
1.9200

> <Gold.Chemscore.Metal>
0.0000

> <Gold.Chemscore.Lipo>
91.6207

> <Gold.Chemscore.Internal_Hbond>
0.0000

> <Gold.Chemscore.DEClash>
0.2967

> <Gold.Chemscore.DEInternal>
5.0808

> <Gold.Chemscore.Rot>
2.5952

> <Gold.Chemscore.Internal.Correction>
   9.000000E+99

> <Gold.Chemscore.Hbonds>
donor molecule, donor type, donor heavy atom, donor atom, acceptor molecule, acceptor atom, score
      L1  H    10    31       P1  7948  0.65
      P1  H 10752 10765       L1    12  0.73

> <Gold.Chemscore.Hbond.Weighted>
-6.4127

> <Gold.Chemscore.Metal.Weighted>
-0.0000

> <Gold.Chemscore.Lipo.Weighted>
-10.7196

> <Gold.Chemscore.Internal_Hbond.Weighted>
0.0000

> <Gold.Chemscore.DEClash.Weighted>
0.2967

> <Gold.Chemscore.DEInternal.Weighted>
5.0808

> <Gold.Chemscore.Rot.Weighted>
6.6437

> <Gold.Chemscore.Internal.Correction.Weighted>
   9.000000E+99

> <Gold.Protein.RotatedTorsions>
[ 6907 6896 6895 6894 ] final  -54.70 input  -60.11 | X-H torsion
[ 7974 7965 7964 7962 ] final   47.15 input  175.53 | X-H torsion
[ 8008 7997 7996 7995 ] final  158.41 input   59.86 | X-H torsion
[ 10167 10162 10161 10158 ] final  115.62 input  -65.29 | X-H torsion
[ 10718 10713 10712 10709 ] final   28.69 input   66.30 | X-H torsion
[ 10763 10752 10751 10750 ] final  156.29 input  -60.55 | X-H torsion
[ 11005 11000 10999 10996 ] final -144.02 input  -57.11 | X-H torsion

> <Gold.Protein.ActiveResidues>
 VAL166  LYS551  ARG553  GLY616  TRP617  ASP618  TYR619  PRO620  LYS621  CYS622 
 ASP623  PHE694  ASN695  SER759  ASP760  ASP761  ALA762  ILE779  LEU786  VAL792 
 PHE793  MET794  SER795  GLU796  ALA797  LYS798  CYS799  TRP800  GLU811  SER814 

> <Gold.Protein.RotatedAtoms>
  150.8315  134.7570  159.6856 H   0  0  0  0  0  0  0  0  0  0  0  0  # atno 6907 bound_to 6896
  152.4418  134.5571  159.9893 H   0  0  0  0  0  0  0  0  0  0  0  0  # atno 6908 bound_to 6896
  151.5731  133.3349  159.3029 H   0  0  0  0  0  0  0  0  0  0  0  0  # atno 6909 bound_to 6896
  146.0324  139.4779  142.9829 H   0  0  0  0  0  0  0  0  0  0  0  0  # atno 7974 bound_to 7965
  156.2304  140.1859  156.7257 H   0  0  0  0  0  0  0  0  0  0  0  0  # atno 8008 bound_to 7997
  154.6012  140.0635  156.9399 H   0  0  0  0  0  0  0  0  0  0  0  0  # atno 8009 bound_to 7997
  155.2170  140.3304  155.4323 H   0  0  0  0  0  0  0  0  0  0  0  0  # atno 8010 bound_to 7997
  139.6304  144.7114  151.2444 H   0  0  0  0  0  0  0  0  0  0  0  0  # atno 10167 bound_to 10162
  157.2367  130.7050  149.6339 H   0  0  0  0  0  0  0  0  0  0  0  0  # atno 10718 bound_to 10713
  154.1820  135.2799  155.3049 H   0  0  0  0  0  0  0  0  0  0  0  0  # atno 10763 bound_to 10752
  154.5995  135.5534  153.7363 H   0  0  0  0  0  0  0  0  0  0  0  0  # atno 10764 bound_to 10752
  153.0135  135.6388  154.1959 H   0  0  0  0  0  0  0  0  0  0  0  0  # atno 10765 bound_to 10752
  140.8066  134.2794  157.4958 H   0  0  0  0  0  0  0  0  0  0  0  0  # atno 11005 bound_to 11000
  145.7019  141.0133  143.1500 LP  0  0  0  0  0  0  0  0  0  0  0  0  # atno 17320 bound_to 7965
  144.7036  139.8654  143.7437 LP  0  0  0  0  0  0  0  0  0  0  0  0  # atno 17321 bound_to 7965
  140.7436  143.6490  150.8266 LP  0  0  0  0  0  0  0  0  0  0  0  0  # atno 17342 bound_to 10162
  140.0114  143.5638  152.2837 LP  0  0  0  0  0  0  0  0  0  0  0  0  # atno 17343 bound_to 10162
  155.9672  130.4471  150.5567 LP  0  0  0  0  0  0  0  0  0  0  0  0  # atno 17370 bound_to 10713
  157.3421  131.0718  151.1779 LP  0  0  0  0  0  0  0  0  0  0  0  0  # atno 17371 bound_to 10713
  139.8717  134.9459  156.3924 LP  0  0  0  0  0  0  0  0  0  0  0  0  # atno 17394 bound_to 11000
  140.9241  133.7625  155.9942 LP  0  0  0  0  0  0  0  0  0  0  0  0  # atno 17395 bound_to 11000

$$$$
