AV-unprocessed.smi:890|AV-procd|sdf|4057|dock5
  -GOLD-   22720 1543D 1   1.00000     0.00000
 Structure written by MMmdl.
 52 55  0  0  0  0  0  0  0  0  2 V2000
  149.7976  134.5033  155.9464 O   0  0  0  0  0  0  0  0  0  0  0  0
  149.5183  134.9228  154.8237 C   0  0  0  0  0  0  0  0  0  0  0  0
  148.9776  134.1959  153.8319 N   0  0  0  0  0  0  0  0  0  0  0  0
  148.6526  132.8087  153.8201 C   0  0  0  0  0  0  0  0  0  0  0  0
  149.4461  131.8323  154.4712 C   0  0  0  0  0  0  0  0  0  0  0  0
  149.0416  130.4860  154.4408 C   0  0  0  0  0  0  0  0  0  0  0  0
  147.8506  130.1622  153.7683 C   0  0  0  0  0  0  0  0  0  0  0  0
  147.0766  131.0809  153.1562 N   0  0  0  0  0  0  0  0  0  0  0  0
  147.4560  132.3821  153.1823 C   0  0  0  0  0  0  0  0  0  0  0  0
  146.6406  133.3155  152.5074 N   0  0  0  0  0  0  0  0  0  0  0  0
  146.5760  133.0969  151.0646 C   0  0  0  0  0  0  0  0  0  0  0  0
  145.1375  133.4019  150.6412 C   0  0  0  0  0  0  0  0  0  0  0  0
  144.3376  133.1226  151.9075 C   0  0  0  0  0  0  0  0  0  0  0  0
  145.2927  133.5841  153.0062 C   0  0  0  0  0  0  0  0  0  0  0  0
  149.7410  136.1857  154.4315 N   0  0  0  0  0  0  0  0  0  0  0  0
  150.3200  137.2346  155.2659 C   0  0  2  0  0  0  0  0  0  0  0  0
  149.2061  138.1413  155.8150 C   0  0  0  0  0  0  0  0  0  0  0  0
  149.7907  139.3028  156.6365 C   0  0  0  0  0  0  0  0  0  0  0  0
  150.7568  140.0919  155.8323 N   0  3  1  0  0  0  0  0  0  0  0  0
  151.2544  141.2780  156.5628 C   0  0  0  0  0  0  0  0  0  0  0  0
  151.3424  141.0813  158.0585 C   0  0  0  0  0  0  0  0  0  0  0  0
  150.2223  141.9090  157.4680 C   0  0  0  0  0  0  0  0  0  0  0  0
  151.8650  139.2481  155.3206 C   0  0  0  0  0  0  0  0  0  0  0  0
  151.3287  138.0852  154.4699 C   0  0  0  0  0  0  0  0  0  0  0  0
  148.8756  134.6645  152.9435 H   0  0  0  0  0  0  0  0  0  0  0  0
  150.3465  132.0903  155.0067 H   0  0  0  0  0  0  0  0  0  0  0  0
  149.6284  129.7208  154.9269 H   0  0  0  0  0  0  0  0  0  0  0  0
  147.5072  129.1394  153.7244 H   0  0  0  0  0  0  0  0  0  0  0  0
  147.2870  133.7346  150.5388 H   0  0  0  0  0  0  0  0  0  0  0  0
  146.8211  132.0598  150.8290 H   0  0  0  0  0  0  0  0  0  0  0  0
  145.0452  134.4552  150.3730 H   0  0  0  0  0  0  0  0  0  0  0  0
  144.8113  132.8059  149.7886 H   0  0  0  0  0  0  0  0  0  0  0  0
  143.3781  133.6399  151.9322 H   0  0  0  0  0  0  0  0  0  0  0  0
  144.1514  132.0517  152.0013 H   0  0  0  0  0  0  0  0  0  0  0  0
  145.0639  133.1200  153.9657 H   0  0  0  0  0  0  0  0  0  0  0  0
  145.2017  134.6615  153.1482 H   0  0  0  0  0  0  0  0  0  0  0  0
  149.4838  136.4409  153.4891 H   0  0  0  0  0  0  0  0  0  0  0  0
  150.8325  136.7697  156.1109 H   0  0  0  0  0  0  0  0  0  0  0  0
  148.6138  138.5434  154.9912 H   0  0  0  0  0  0  0  0  0  0  0  0
  148.5211  137.5607  156.4341 H   0  0  0  0  0  0  0  0  0  0  0  0
  148.9821  139.9509  156.9760 H   0  0  0  0  0  0  0  0  0  0  0  0
  150.2862  138.9200  157.5302 H   0  0  0  0  0  0  0  0  0  0  0  0
  151.9847  141.8956  156.0427 H   0  0  0  0  0  0  0  0  0  0  0  0
  151.0840  140.1064  158.4676 H   0  0  0  0  0  0  0  0  0  0  0  0
  152.1285  141.6144  158.5896 H   0  0  0  0  0  0  0  0  0  0  0  0
  150.2711  142.9868  157.6098 H   0  0  0  0  0  0  0  0  0  0  0  0
  149.2207  141.4827  157.4854 H   0  0  0  0  0  0  0  0  0  0  0  0
  152.5410  139.8572  154.7192 H   0  0  0  0  0  0  0  0  0  0  0  0
  152.4477  138.8624  156.1588 H   0  0  0  0  0  0  0  0  0  0  0  0
  152.1625  137.4684  154.1327 H   0  0  0  0  0  0  0  0  0  0  0  0
  150.8540  138.4809  153.5707 H   0  0  0  0  0  0  0  0  0  0  0  0
  150.2545  140.4368  155.0267 H   0  0  0  0  0  0  0  0  0  0  0  0
  1  2  2  0  0  0  0
  2  3  1  0  0  0  0
  2 15  1  0  0  0  0
  3  4  1  0  0  0  0
  3 25  1  0  0  0  0
  4  9  1  0  0  0  0
  4  5  2  0  0  0  0
  5  6  1  0  0  0  0
  5 26  1  0  0  0  0
  6  7  2  0  0  0  0
  6 27  1  0  0  0  0
  7  8  1  0  0  0  0
  7 28  1  0  0  0  0
  8  9  2  0  0  0  0
  9 10  1  0  0  0  0
 10 14  1  0  0  0  0
 10 11  1  0  0  0  0
 11 12  1  0  0  0  0
 11 29  1  0  0  0  0
 11 30  1  0  0  0  0
 12 13  1  0  0  0  0
 12 31  1  0  0  0  0
 12 32  1  0  0  0  0
 13 14  1  0  0  0  0
 13 33  1  0  0  0  0
 13 34  1  0  0  0  0
 14 35  1  0  0  0  0
 14 36  1  0  0  0  0
 15 16  1  0  0  0  0
 15 37  1  0  0  0  0
 16 24  1  0  0  0  0
 16 17  1  0  0  0  0
 16 38  1  0  0  0  0
 17 18  1  0  0  0  0
 17 39  1  0  0  0  0
 17 40  1  0  0  0  0
 18 19  1  0  0  0  0
 18 41  1  0  0  0  0
 18 42  1  0  0  0  0
 19 20  1  0  0  0  0
 19 23  1  0  0  0  0
 19 52  1  0  0  0  0
 20 22  1  0  0  0  0
 20 21  1  0  0  0  0
 20 43  1  0  0  0  0
 21 22  1  0  0  0  0
 21 44  1  0  0  0  0
 21 45  1  0  0  0  0
 22 46  1  0  0  0  0
 22 47  1  0  0  0  0
 23 24  1  0  0  0  0
 23 48  1  0  0  0  0
 23 49  1  0  0  0  0
 24 50  1  0  0  0  0
 24 51  1  0  0  0  0
M  CHG  1  19   1
M  END
> <s_m_source_file>
AV-unprocessed.smi

> <i_m_source_file_index>
890

> <i_lp_mmshare_version>
43012

> <i_f3d_flags>
0

> <s_epik_input>
W0NIMl0xW0NIMl1bQ0hdMU4oW0NIMl1bQ0gyXTIpW0NIMl1bQ0gyXVtDSF0yW05IXUMoPU8pW05IXWMzW2NIXVtjSF1bY0hdbmMzTjRbQ0gyXVtDSDJdW0NIMl1bQ0gyXTQ=

> <s_epik_cmdline>
J2VwaWtfcHl0aG9uJywgJy1waCcsICc3LjAnLCAnLXRuJywgJzgnLCAnLW1hJywgJzIwMCcsICctbWV0YWxfYmluZGluZycsICctaW1hZScsICc8aW5maWxlLm1hZT4nLCAnLW9tYWUnLCAnPG91dGZpbGUubWFlPic=

> <r_lp_tautomer_probability>
1

> <r_epik_Ionization_Penalty>
0.193768

> <r_epik_Ionization_Penalty_Charging>
0.115549

> <r_epik_Ionization_Penalty_Neutral>
0.078219

> <r_epik_State_Penalty>
0.174811

> <r_epik_Charging_Adjusted_Penalty>
0.29036

> <i_epik_Tot_Q>
1

> <i_epik_Tot_abs_Q>
1

> <r_epik_Metal_State_Penalty>
0.169761

> <b_epik_Metal_Only>
0

> <s_lp_Force_Field>
OPLS_2005

> <r_lp_Energy>
54.8622

> <b_lp_Chiralities_Consistent>
1

> <s_lp_Variant>
AV-unprocessed.smi:890-1

> <Gold.Version>
5.8.1

> <Gold.Id.Protein>
6NUR|6NUR_protein|mol2

> <Gold.PLP.Fitness>
41.4229

> <Gold.PLP.PLP>
-37.7142

> <Gold.PLP.part.hbond>
-2.3637

> <Gold.PLP.part.metal>
0.0000

> <Gold.PLP.part.buried>
-5.0369

> <Gold.PLP.part.nonpolar>
-31.0885

> <Gold.PLP.part.repulsive>
0.4148

> <Gold.PLP.ligand.clash>
0.0000

> <Gold.PLP.ligand.torsion>
1.2417

> <Gold.PLP.Chemscore.Hbond>
1.6000

> <Gold.PLP.Chemscore.CHOScore>
0.0000

> <Gold.PLP.Chemscore.Metal>
0.0000

> <Gold.Chemscore.Hbonds>
donor molecule, donor type, donor heavy atom, donor atom, acceptor molecule, acceptor atom, score
      L1  H     3    25       P1  7948  0.65
      L1  H    15    37       P1  7948  1.00

> <Gold.PLP.Chemscore.Internal.Correction>
1.3920

> <Gold.Rescore>
     Score         DG    S(hbond)    S(metal)    S(lipo)     H(rot)  DE(clash)    DE(int)     intcor
     13.41     -15.52       1.01        0.00      86.05       1.33       0.07       2.04       ----

> <Gold.Chemscore.Fitness>
13.4069

> <Gold.Chemscore.DG>
-15.5228

> <Gold.Chemscore.ZeroCoef>
-5.4800

> <Gold.Chemscore.Hbond>
1.0115

> <Gold.Chemscore.Metal>
0.0000

> <Gold.Chemscore.Lipo>
86.0471

> <Gold.Chemscore.Internal_Hbond>
0.0000

> <Gold.Chemscore.DEClash>
0.0737

> <Gold.Chemscore.DEInternal>
2.0422

> <Gold.Chemscore.Rot>
1.3294

> <Gold.Chemscore.Internal.Correction>
   9.000000E+99

> <Gold.Chemscore.Hbonds>
donor molecule, donor type, donor heavy atom, donor atom, acceptor molecule, acceptor atom, score
      L1  H     3    25       P1  7948  0.05
      L1  H    15    37       P1  7948  0.69

> <Gold.Chemscore.Hbond.Weighted>
-3.3784

> <Gold.Chemscore.Metal.Weighted>
-0.0000

> <Gold.Chemscore.Lipo.Weighted>
-10.0675

> <Gold.Chemscore.Internal_Hbond.Weighted>
0.0000

> <Gold.Chemscore.DEClash.Weighted>
0.0737

> <Gold.Chemscore.DEInternal.Weighted>
2.0422

> <Gold.Chemscore.Rot.Weighted>
3.4032

> <Gold.Chemscore.Internal.Correction.Weighted>
   9.000000E+99

> <Gold.Protein.RotatedTorsions>
[ 6907 6896 6895 6894 ] final  168.85 input  -60.11 | X-H torsion
[ 7974 7965 7964 7962 ] final   24.40 input  175.53 | X-H torsion
[ 8008 7997 7996 7995 ] final   68.92 input   59.86 | X-H torsion
[ 10167 10162 10161 10158 ] final  -66.93 input  -65.29 | X-H torsion
[ 10718 10713 10712 10709 ] final  -86.35 input   66.30 | X-H torsion
[ 10763 10752 10751 10750 ] final  -63.53 input  -60.55 | X-H torsion
[ 11005 11000 10999 10996 ] final   22.35 input  -57.11 | X-H torsion

> <Gold.Protein.ActiveResidues>
 VAL166  LYS551  ARG553  GLY616  TRP617  ASP618  TYR619  PRO620  LYS621  CYS622 
 ASP623  PHE694  ASN695  SER759  ASP760  ASP761  ALA762  ILE779  LEU786  VAL792 
 PHE793  MET794  SER795  GLU796  ALA797  LYS798  CYS799  TRP800  GLU811  SER814 

> <Gold.Protein.RotatedAtoms>
  151.8412  133.3424  159.3643 H   0  0  0  0  0  0  0  0  0  0  0  0  # atno 6907 bound_to 6896
  150.7234  134.5390  159.5747 H   0  0  0  0  0  0  0  0  0  0  0  0  # atno 6908 bound_to 6896
  152.2864  134.7772  160.0438 H   0  0  0  0  0  0  0  0  0  0  0  0  # atno 6909 bound_to 6896
  146.1939  139.7611  142.8811 H   0  0  0  0  0  0  0  0  0  0  0  0  # atno 7974 bound_to 7965
  155.7157  140.3494  155.4993 H   0  0  0  0  0  0  0  0  0  0  0  0  # atno 8008 bound_to 7997
  155.9315  140.1085  157.1150 H   0  0  0  0  0  0  0  0  0  0  0  0  # atno 8009 bound_to 7997
  154.4086  140.1230  156.4796 H   0  0  0  0  0  0  0  0  0  0  0  0  # atno 8010 bound_to 7997
  140.5620  143.2313  151.6709 H   0  0  0  0  0  0  0  0  0  0  0  0  # atno 10167 bound_to 10162
  155.9990  130.4762  150.4702 H   0  0  0  0  0  0  0  0  0  0  0  0  # atno 10718 bound_to 10713
  154.3164  135.6205  153.5488 H   0  0  0  0  0  0  0  0  0  0  0  0  # atno 10763 bound_to 10752
  152.9824  135.5713  154.5119 H   0  0  0  0  0  0  0  0  0  0  0  0  # atno 10764 bound_to 10752
  154.4778  135.2862  155.1570 H   0  0  0  0  0  0  0  0  0  0  0  0  # atno 10765 bound_to 10752
  140.3816  134.1915  155.7663 H   0  0  0  0  0  0  0  0  0  0  0  0  # atno 11005 bound_to 11000
  145.3705  141.0342  143.3234 LP  0  0  0  0  0  0  0  0  0  0  0  0  # atno 17320 bound_to 7965
  144.8542  139.5276  143.6842 LP  0  0  0  0  0  0  0  0  0  0  0  0  # atno 17321 bound_to 7965
  139.5075  144.3645  152.0530 LP  0  0  0  0  0  0  0  0  0  0  0  0  # atno 17342 bound_to 10162
  140.2773  144.3899  150.6131 LP  0  0  0  0  0  0  0  0  0  0  0  0  # atno 17343 bound_to 10162
  157.2717  131.0588  151.2255 LP  0  0  0  0  0  0  0  0  0  0  0  0  # atno 17370 bound_to 10713
  157.3333  130.6996  149.6337 LP  0  0  0  0  0  0  0  0  0  0  0  0  # atno 17371 bound_to 10713
  141.1921  133.8179  157.0850 LP  0  0  0  0  0  0  0  0  0  0  0  0  # atno 17394 bound_to 11000
  140.0474  134.9823  157.1075 LP  0  0  0  0  0  0  0  0  0  0  0  0  # atno 17395 bound_to 11000

$$$$
