AV-unprocessed.smi:2521|AV-procd|sdf|9916|dock5
  -GOLD-   2272013553D 1   1.00000     0.00000
 Structure written by MMmdl.
 36 37  0  0  0  0  0  0  0  0  1 V2000
  144.2260  131.3538  151.1940 C   0  0  0  0  0  0  0  0  0  0  0  0
  143.7141  132.5855  150.4328 C   0  0  0  0  0  0  0  0  0  0  0  0
  143.8922  132.4709  148.9118 C   0  0  0  0  0  0  0  0  0  0  0  0
  144.2836  133.8598  150.9737 C   0  0  0  0  0  0  0  0  0  0  0  0
  143.5260  134.8340  151.4959 N   0  0  0  0  0  0  0  0  0  0  0  0
  144.2799  135.9150  151.9298 N   0  0  0  0  0  0  0  0  0  0  0  0
  145.5899  135.7260  151.7213 C   0  0  0  0  0  0  0  0  0  0  0  0
  146.5890  136.6735  152.0680 N   0  0  0  0  0  0  0  0  0  0  0  0
  146.4437  137.8310  152.7366 C   0  0  0  0  0  0  0  0  0  0  0  0
  145.3816  138.2719  153.1766 O   0  0  0  0  0  0  0  0  0  0  0  0
  147.6189  138.4609  152.8763 N   0  0  0  0  0  0  0  0  0  0  0  0
  147.8109  139.7303  153.5696 C   0  0  0  0  0  0  0  0  0  0  0  0
  148.8180  139.6084  154.7289 C   0  0  1  0  0  0  0  0  0  0  0  0
  149.9638  138.6475  154.4784 C   0  0  0  0  0  0  0  0  0  0  0  0
  150.9819  139.0994  155.5200 C   0  0  0  0  0  0  0  0  0  0  0  0
  150.7890  140.5033  155.6658 O   0  0  0  0  0  0  0  0  0  0  0  0
  149.5762  140.9004  155.0315 C   0  0  0  0  0  0  0  0  0  0  0  0
  146.0117  134.1972  150.9699 S   0  0  0  0  0  0  0  0  0  0  0  0
  144.0052  131.4315  152.2590 H   0  0  0  0  0  0  0  0  0  0  0  0
  145.3050  131.2394  151.0848 H   0  0  0  0  0  0  0  0  0  0  0  0
  143.7569  130.4413  150.8252 H   0  0  0  0  0  0  0  0  0  0  0  0
  142.6392  132.6299  150.6113 H   0  0  0  0  0  0  0  0  0  0  0  0
  143.4428  133.3219  148.3993 H   0  0  0  0  0  0  0  0  0  0  0  0
  143.4190  131.5667  148.5280 H   0  0  0  0  0  0  0  0  0  0  0  0
  144.9469  132.4349  148.6373 H   0  0  0  0  0  0  0  0  0  0  0  0
  147.5261  136.4404  151.7748 H   0  0  0  0  0  0  0  0  0  0  0  0
  148.4420  138.0286  152.4830 H   0  0  0  0  0  0  0  0  0  0  0  0
  148.1632  140.4614  152.8414 H   0  0  0  0  0  0  0  0  0  0  0  0
  146.8535  140.1017  153.9387 H   0  0  0  0  0  0  0  0  0  0  0  0
  148.2968  139.2975  155.6361 H   0  0  0  0  0  0  0  0  0  0  0  0
  149.6803  137.6007  154.5907 H   0  0  0  0  0  0  0  0  0  0  0  0
  150.3675  138.7881  153.4746 H   0  0  0  0  0  0  0  0  0  0  0  0
  150.7814  138.6203  156.4792 H   0  0  0  0  0  0  0  0  0  0  0  0
  152.0065  138.8642  155.2312 H   0  0  0  0  0  0  0  0  0  0  0  0
  149.8300  141.4264  154.1101 H   0  0  0  0  0  0  0  0  0  0  0  0
  149.0028  141.5815  155.6608 H   0  0  0  0  0  0  0  0  0  0  0  0
  1  2  1  0  0  0  0
  1 19  1  0  0  0  0
  1 20  1  0  0  0  0
  1 21  1  0  0  0  0
  2  3  1  0  0  0  0
  2  4  1  0  0  0  0
  2 22  1  0  0  0  0
  3 23  1  0  0  0  0
  3 24  1  0  0  0  0
  3 25  1  0  0  0  0
  4 18  1  0  0  0  0
  4  5  2  0  0  0  0
  5  6  1  0  0  0  0
  6  7  2  0  0  0  0
  7  8  1  0  0  0  0
  7 18  1  0  0  0  0
  8  9  1  0  0  0  0
  8 26  1  0  0  0  0
  9 10  2  0  0  0  0
  9 11  1  0  0  0  0
 11 12  1  0  0  0  0
 11 27  1  0  0  0  0
 12 13  1  0  0  0  0
 12 28  1  0  0  0  0
 12 29  1  0  0  0  0
 13 17  1  0  0  0  0
 13 14  1  0  0  0  0
 13 30  1  0  0  0  0
 14 15  1  0  0  0  0
 14 31  1  0  0  0  0
 14 32  1  0  0  0  0
 15 16  1  0  0  0  0
 15 33  1  0  0  0  0
 15 34  1  0  0  0  0
 16 17  1  0  0  0  0
 17 35  1  0  0  0  0
 17 36  1  0  0  0  0
M  END
> <s_m_source_file>
AV-unprocessed.smi

> <i_m_source_file_index>
2521

> <i_lp_mmshare_version>
43012

> <i_f3d_flags>
0

> <s_epik_input>
W0NIM11bQ0hdKFtDSDNdKWMxbm5jKHMxKVtOSF1DKD1PKVtOSF1bQ0gyXVtDQEBIXTJbQ0gyXVtDSDJdT1tDSDJdMg==

> <s_epik_cmdline>
J2VwaWtfcHl0aG9uJywgJy1waCcsICc3LjAnLCAnLXRuJywgJzgnLCAnLW1hJywgJzIwMCcsICctbWV0YWxfYmluZGluZycsICctaW1hZScsICc8aW5maWxlLm1hZT4nLCAnLW9tYWUnLCAnPG91dGZpbGUubWFlPic=

> <r_lp_tautomer_probability>
1

> <r_epik_Ionization_Penalty>
0.000452582

> <r_epik_Ionization_Penalty_Charging>
0

> <r_epik_Ionization_Penalty_Neutral>
0.000452582

> <r_epik_State_Penalty>
-0

> <r_epik_Charging_Adjusted_Penalty>
0

> <i_epik_Tot_Q>
0

> <i_epik_Tot_abs_Q>
0

> <r_epik_Metal_State_Penalty>
0.207746

> <b_epik_Metal_Only>
0

> <s_lp_Force_Field>
OPLS_2005

> <r_lp_Energy>
10.682

> <b_lp_Chiralities_Consistent>
1

> <s_lp_Variant>
AV-unprocessed.smi:2521-2

> <Gold.Version>
5.8.1

> <Gold.Id.Protein>
6NUR|6NUR_protein|mol2

> <Gold.PLP.Fitness>
38.3608

> <Gold.PLP.PLP>
-33.9906

> <Gold.PLP.part.hbond>
-3.6521

> <Gold.PLP.part.metal>
0.0000

> <Gold.PLP.part.buried>
-2.4141

> <Gold.PLP.part.nonpolar>
-30.1465

> <Gold.PLP.part.repulsive>
1.3244

> <Gold.PLP.ligand.clash>
0.0000

> <Gold.PLP.ligand.torsion>
0.3746

> <Gold.PLP.Chemscore.Hbond>
1.6796

> <Gold.PLP.Chemscore.CHOScore>
0.0000

> <Gold.PLP.Chemscore.Metal>
0.0000

> <Gold.Chemscore.Hbonds>
donor molecule, donor type, donor heavy atom, donor atom, acceptor molecule, acceptor atom, score
      L1  H     8    26       P1  7948  0.71
      L1  H    11    27       P1  7948  0.75
      P1  H  7989  7998       L1    16  0.01

> <Gold.PLP.Chemscore.Internal.Correction>
0.0807

> <Gold.Rescore>
     Score         DG    S(hbond)    S(metal)    S(lipo)     H(rot)  DE(clash)    DE(int)     intcor
     15.13     -16.86       1.66        0.00      81.46       1.45       0.24       1.49       ----

> <Gold.Chemscore.Fitness>
15.1323

> <Gold.Chemscore.DG>
-16.8586

> <Gold.Chemscore.ZeroCoef>
-5.4800

> <Gold.Chemscore.Hbond>
1.6617

> <Gold.Chemscore.Metal>
0.0000

> <Gold.Chemscore.Lipo>
81.4577

> <Gold.Chemscore.Internal_Hbond>
0.0000

> <Gold.Chemscore.DEClash>
0.2412

> <Gold.Chemscore.DEInternal>
1.4851

> <Gold.Chemscore.Rot>
1.4461

> <Gold.Chemscore.Internal.Correction>
   9.000000E+99

> <Gold.Chemscore.Hbonds>
donor molecule, donor type, donor heavy atom, donor atom, acceptor molecule, acceptor atom, score
      L1  H     8    26       P1  7948  0.71
      L1  H    11    27       P1  7948  0.75

> <Gold.Chemscore.Hbond.Weighted>
-5.5499

> <Gold.Chemscore.Metal.Weighted>
-0.0000

> <Gold.Chemscore.Lipo.Weighted>
-9.5306

> <Gold.Chemscore.Internal_Hbond.Weighted>
0.0000

> <Gold.Chemscore.DEClash.Weighted>
0.2412

> <Gold.Chemscore.DEInternal.Weighted>
1.4851

> <Gold.Chemscore.Rot.Weighted>
3.7019

> <Gold.Chemscore.Internal.Correction.Weighted>
   9.000000E+99

> <Gold.Protein.RotatedTorsions>
[ 6907 6896 6895 6894 ] final -150.83 input  -60.11 | X-H torsion
[ 7974 7965 7964 7962 ] final  131.30 input  175.53 | X-H torsion
[ 8008 7997 7996 7995 ] final   86.74 input   59.86 | X-H torsion
[ 10167 10162 10161 10158 ] final -110.54 input  -65.29 | X-H torsion
[ 10718 10713 10712 10709 ] final   73.56 input   66.30 | X-H torsion
[ 10763 10752 10751 10750 ] final -100.39 input  -60.55 | X-H torsion
[ 11005 11000 10999 10996 ] final   54.37 input  -57.11 | X-H torsion

> <Gold.Protein.ActiveResidues>
 VAL166  LYS551  ARG553  GLY616  TRP617  ASP618  TYR619  PRO620  LYS621  CYS622 
 ASP623  PHE694  ASN695  SER759  ASP760  ASP761  ALA762  ILE779  LEU786  VAL792 
 PHE793  MET794  SER795  GLU796  ALA797  LYS798  CYS799  TRP800  GLU811  SER814 

> <Gold.Protein.RotatedAtoms>
  151.2042  133.4593  159.2596 H   0  0  0  0  0  0  0  0  0  0  0  0  # atno 6907 bound_to 6896
  151.1039  134.9988  159.8472 H   0  0  0  0  0  0  0  0  0  0  0  0  # atno 6908 bound_to 6896
  152.5445  134.1967  159.8748 H   0  0  0  0  0  0  0  0  0  0  0  0  # atno 6909 bound_to 6896
  145.0087  139.4241  143.5256 H   0  0  0  0  0  0  0  0  0  0  0  0  # atno 7974 bound_to 7965
  155.9666  140.3389  155.6538 H   0  0  0  0  0  0  0  0  0  0  0  0  # atno 8008 bound_to 7997
  155.6729  140.0729  157.2531 H   0  0  0  0  0  0  0  0  0  0  0  0  # atno 8009 bound_to 7997
  154.4156  140.1688  156.1886 H   0  0  0  0  0  0  0  0  0  0  0  0  # atno 8010 bound_to 7997
  140.1433  143.4260  152.1546 H   0  0  0  0  0  0  0  0  0  0  0  0  # atno 10167 bound_to 10162
  157.6553  130.9634  150.1086 H   0  0  0  0  0  0  0  0  0  0  0  0  # atno 10718 bound_to 10713
  154.7575  135.4937  153.9402 H   0  0  0  0  0  0  0  0  0  0  0  0  # atno 10763 bound_to 10752
  153.1212  135.6732  153.9340 H   0  0  0  0  0  0  0  0  0  0  0  0  # atno 10764 bound_to 10752
  153.9071  135.3103  155.3427 H   0  0  0  0  0  0  0  0  0  0  0  0  # atno 10765 bound_to 10752
  140.0692  134.5494  155.9065 H   0  0  0  0  0  0  0  0  0  0  0  0  # atno 11005 bound_to 11000
  146.3466  139.9518  142.8728 LP  0  0  0  0  0  0  0  0  0  0  0  0  # atno 17320 bound_to 7965
  145.2053  140.9872  143.4132 LP  0  0  0  0  0  0  0  0  0  0  0  0  # atno 17321 bound_to 7965
  139.5461  144.7299  151.4579 LP  0  0  0  0  0  0  0  0  0  0  0  0  # atno 17342 bound_to 10162
  140.6747  143.8216  150.7043 LP  0  0  0  0  0  0  0  0  0  0  0  0  # atno 17343 bound_to 10162
  156.1989  130.3659  149.8813 LP  0  0  0  0  0  0  0  0  0  0  0  0  # atno 17370 bound_to 10713
  156.6722  130.8825  151.3564 LP  0  0  0  0  0  0  0  0  0  0  0  0  # atno 17371 bound_to 10713
  141.2005  133.6613  156.5900 LP  0  0  0  0  0  0  0  0  0  0  0  0  # atno 17394 bound_to 11000
  140.3653  134.7652  157.4562 LP  0  0  0  0  0  0  0  0  0  0  0  0  # atno 17395 bound_to 11000

$$$$
