AV-unprocessed.smi:2416|AV-procd|sdf|9547|dock10
  -GOLD-   2272013183D 1   1.00000     0.00000
 Structure written by MMmdl.
 40 41  0  0  0  0  0  0  0  0  1 V2000
  145.2923  138.4716  155.4331 C   0  0  0  0  0  0  0  0  0  0  0  0
  145.6187  139.7102  154.8160 O   0  0  0  0  0  0  0  0  0  0  0  0
  146.9499  139.8348  154.3128 C   0  0  2  0  0  0  0  0  0  0  0  0
  147.1648  138.8565  153.1473 C   0  0  0  0  0  0  0  0  0  0  0  0
  147.9959  139.8527  155.4423 C   0  0  0  0  0  0  0  0  0  0  0  0
  148.6638  141.0000  154.6875 C   0  0  2  0  0  0  0  0  0  0  0  0
  149.2252  142.0076  155.5809 N   0  0  0  0  0  0  0  0  0  0  0  0
  149.8525  141.7324  156.7327 C   0  0  0  0  0  0  0  0  0  0  0  0
  150.0159  140.5885  157.1582 O   0  0  0  0  0  0  0  0  0  0  0  0
  150.2693  142.8570  157.3410 N   0  0  0  0  0  0  0  0  0  0  0  0
  150.9860  142.9821  158.5612 C   0  0  0  0  0  0  0  0  0  0  0  0
  150.7706  144.1916  159.2601 C   0  0  0  0  0  0  0  0  0  0  0  0
  151.4377  144.4158  160.4805 C   0  0  0  0  0  0  0  0  0  0  0  0
  152.3046  143.4223  160.9688 C   0  0  0  0  0  0  0  0  0  0  0  0
  152.9693  143.5935  162.1361 F   0  0  0  0  0  0  0  0  0  0  0  0
  152.4635  142.2462  160.2129 C   0  0  0  0  0  0  0  0  0  0  0  0
  151.8243  142.0301  159.0434 N   0  0  0  0  0  0  0  0  0  0  0  0
  147.2732  141.3497  154.0979 C   0  0  0  0  0  0  0  0  0  0  0  0
  147.2702  141.8573  152.6523 C   0  0  0  0  0  0  0  0  0  0  0  0
  146.4105  142.3481  154.8963 C   0  0  0  0  0  0  0  0  0  0  0  0
  144.2971  138.5439  155.8713 H   0  0  0  0  0  0  0  0  0  0  0  0
  145.9869  138.2172  156.2338 H   0  0  0  0  0  0  0  0  0  0  0  0
  145.2705  137.6532  154.7141 H   0  0  0  0  0  0  0  0  0  0  0  0
  148.1197  139.0215  152.6491 H   0  0  0  0  0  0  0  0  0  0  0  0
  146.3822  138.9588  152.3953 H   0  0  0  0  0  0  0  0  0  0  0  0
  147.1698  137.8197  153.4821 H   0  0  0  0  0  0  0  0  0  0  0  0
  147.5885  140.1437  156.4125 H   0  0  0  0  0  0  0  0  0  0  0  0
  148.6013  138.9492  155.5191 H   0  0  0  0  0  0  0  0  0  0  0  0
  149.3677  140.6342  153.9363 H   0  0  0  0  0  0  0  0  0  0  0  0
  149.1324  142.9727  155.2996 H   0  0  0  0  0  0  0  0  0  0  0  0
  150.0543  143.7250  156.8729 H   0  0  0  0  0  0  0  0  0  0  0  0
  150.1011  144.9438  158.8686 H   0  0  0  0  0  0  0  0  0  0  0  0
  151.2867  145.3332  161.0299 H   0  0  0  0  0  0  0  0  0  0  0  0
  153.1199  141.4592  160.5539 H   0  0  0  0  0  0  0  0  0  0  0  0
  147.5742  142.9028  152.5931 H   0  0  0  0  0  0  0  0  0  0  0  0
  146.2794  141.7762  152.2040 H   0  0  0  0  0  0  0  0  0  0  0  0
  147.9597  141.2976  152.0205 H   0  0  0  0  0  0  0  0  0  0  0  0
  146.8126  143.3604  154.8441 H   0  0  0  0  0  0  0  0  0  0  0  0
  146.3438  142.0860  155.9523 H   0  0  0  0  0  0  0  0  0  0  0  0
  145.3904  142.3876  154.5131 H   0  0  0  0  0  0  0  0  0  0  0  0
  1  2  1  0  0  0  0
  1 21  1  0  0  0  0
  1 22  1  0  0  0  0
  1 23  1  0  0  0  0
  2  3  1  0  0  0  0
  3 18  1  0  0  0  0
  3  4  1  0  0  0  0
  3  5  1  0  0  0  0
  4 24  1  0  0  0  0
  4 25  1  0  0  0  0
  4 26  1  0  0  0  0
  5  6  1  0  0  0  0
  5 27  1  0  0  0  0
  5 28  1  0  0  0  0
  6  7  1  0  0  0  0
  6 18  1  0  0  0  0
  6 29  1  0  0  0  0
  7  8  1  0  0  0  0
  7 30  1  0  0  0  0
  8  9  2  0  0  0  0
  8 10  1  0  0  0  0
 10 11  1  0  0  0  0
 10 31  1  0  0  0  0
 11 17  1  0  0  0  0
 11 12  2  0  0  0  0
 12 13  1  0  0  0  0
 12 32  1  0  0  0  0
 13 14  2  0  0  0  0
 13 33  1  0  0  0  0
 14 15  1  0  0  0  0
 14 16  1  0  0  0  0
 16 17  2  0  0  0  0
 16 34  1  0  0  0  0
 18 19  1  0  0  0  0
 18 20  1  0  0  0  0
 19 35  1  0  0  0  0
 19 36  1  0  0  0  0
 19 37  1  0  0  0  0
 20 38  1  0  0  0  0
 20 39  1  0  0  0  0
 20 40  1  0  0  0  0
M  END
> <s_m_source_file>
AV-unprocessed.smi

> <i_m_source_file_index>
2416

> <i_lp_mmshare_version>
43012

> <i_f3d_flags>
0

> <s_epik_input>
W0NIM11PW0NAQF0xKFtDSDNdKVtDSDJdW0NASF0oQzEoW0NIM10pW0NIM10pW05IXUMoPU8pW05IXWMyW2NIXVtjSF1jKEYpW2NIXW4y

> <s_epik_cmdline>
J2VwaWtfcHl0aG9uJywgJy1waCcsICc3LjAnLCAnLXRuJywgJzgnLCAnLW1hJywgJzIwMCcsICctbWV0YWxfYmluZGluZycsICctaW1hZScsICc8aW5maWxlLm1hZT4nLCAnLW9tYWUnLCAnPG91dGZpbGUubWFlPic=

> <r_lp_tautomer_probability>
1

> <r_epik_Ionization_Penalty>
3.67756e-05

> <r_epik_Ionization_Penalty_Charging>
0

> <r_epik_Ionization_Penalty_Neutral>
3.67756e-05

> <r_epik_State_Penalty>
-0

> <r_epik_Charging_Adjusted_Penalty>
0

> <i_epik_Tot_Q>
0

> <i_epik_Tot_abs_Q>
0

> <r_epik_Metal_State_Penalty>
-0

> <b_epik_Metal_Only>
0

> <s_lp_Force_Field>
OPLS_2005

> <r_lp_Energy>
27.0586

> <b_lp_Chiralities_Consistent>
1

> <s_lp_Variant>
AV-unprocessed.smi:2416-4

> <Gold.Version>
5.8.1

> <Gold.Id.Protein>
6NUR|6NUR_protein|mol2

> <Gold.PLP.Fitness>
36.1855

> <Gold.PLP.PLP>
-30.8796

> <Gold.PLP.part.hbond>
-2.0000

> <Gold.PLP.part.metal>
0.0000

> <Gold.PLP.part.buried>
-6.7174

> <Gold.PLP.part.nonpolar>
-22.7855

> <Gold.PLP.part.repulsive>
0.4243

> <Gold.PLP.ligand.clash>
0.0000

> <Gold.PLP.ligand.torsion>
0.5313

> <Gold.PLP.Chemscore.Hbond>
2.0000

> <Gold.PLP.Chemscore.CHOScore>
0.0000

> <Gold.PLP.Chemscore.Metal>
0.0000

> <Gold.Chemscore.Hbonds>
donor molecule, donor type, donor heavy atom, donor atom, acceptor molecule, acceptor atom, score
      L1  H     7    30       P1  8028  1.00
      L1  H    10    31       P1  8028  0.99

> <Gold.PLP.Chemscore.Internal.Correction>
0.3685

> <Gold.Rescore>
     Score         DG    S(hbond)    S(metal)    S(lipo)     H(rot)  DE(clash)    DE(int)     intcor
     13.27     -18.02       1.93        0.00      79.84       1.27       1.85       2.90       ----

> <Gold.Chemscore.Fitness>
13.2705

> <Gold.Chemscore.DG>
-18.0220

> <Gold.Chemscore.ZeroCoef>
-5.4800

> <Gold.Chemscore.Hbond>
1.9282

> <Gold.Chemscore.Metal>
0.0000

> <Gold.Chemscore.Lipo>
79.8381

> <Gold.Chemscore.Internal_Hbond>
0.0000

> <Gold.Chemscore.DEClash>
1.8473

> <Gold.Chemscore.DEInternal>
2.9042

> <Gold.Chemscore.Rot>
1.2653

> <Gold.Chemscore.Internal.Correction>
   9.000000E+99

> <Gold.Chemscore.Hbonds>
donor molecule, donor type, donor heavy atom, donor atom, acceptor molecule, acceptor atom, score
      L1  H     7    30       P1  8028  0.97
      L1  H    10    31       P1  8028  0.93

> <Gold.Chemscore.Hbond.Weighted>
-6.4402

> <Gold.Chemscore.Metal.Weighted>
-0.0000

> <Gold.Chemscore.Lipo.Weighted>
-9.3411

> <Gold.Chemscore.Internal_Hbond.Weighted>
0.0000

> <Gold.Chemscore.DEClash.Weighted>
1.8473

> <Gold.Chemscore.DEInternal.Weighted>
2.9042

> <Gold.Chemscore.Rot.Weighted>
3.2392

> <Gold.Chemscore.Internal.Correction.Weighted>
   9.000000E+99

> <Gold.Protein.RotatedTorsions>
[ 6907 6896 6895 6894 ] final -152.67 input  -60.11 | X-H torsion
[ 7974 7965 7964 7962 ] final  -41.38 input  175.53 | X-H torsion
[ 8008 7997 7996 7995 ] final   81.71 input   59.86 | X-H torsion
[ 10167 10162 10161 10158 ] final -165.00 input  -65.29 | X-H torsion
[ 10718 10713 10712 10709 ] final   58.50 input   66.30 | X-H torsion
[ 10763 10752 10751 10750 ] final  -33.76 input  -60.55 | X-H torsion
[ 11005 11000 10999 10996 ] final  101.22 input  -57.11 | X-H torsion

> <Gold.Protein.ActiveResidues>
 VAL166  LYS551  ARG553  GLY616  TRP617  ASP618  TYR619  PRO620  LYS621  CYS622 
 ASP623  PHE694  ASN695  SER759  ASP760  ASP761  ALA762  ILE779  LEU786  VAL792 
 PHE793  MET794  SER795  GLU796  ALA797  LYS798  CYS799  TRP800  GLU811  SER814 

> <Gold.Protein.RotatedAtoms>
  151.2312  133.4449  159.2603 H   0  0  0  0  0  0  0  0  0  0  0  0  # atno 6907 bound_to 6896
  151.0793  134.9848  159.8358 H   0  0  0  0  0  0  0  0  0  0  0  0  # atno 6908 bound_to 6896
  152.5422  134.2252  159.8856 H   0  0  0  0  0  0  0  0  0  0  0  0  # atno 6909 bound_to 6896
  146.0217  140.6842  142.9175 H   0  0  0  0  0  0  0  0  0  0  0  0  # atno 7974 bound_to 7965
  155.9008  140.3433  155.6025 H   0  0  0  0  0  0  0  0  0  0  0  0  # atno 8008 bound_to 7997
  155.7502  140.0819  157.2224 H   0  0  0  0  0  0  0  0  0  0  0  0  # atno 8009 bound_to 7997
  154.4043  140.1554  156.2702 H   0  0  0  0  0  0  0  0  0  0  0  0  # atno 8010 bound_to 7997
  139.6212  144.0621  152.1934 H   0  0  0  0  0  0  0  0  0  0  0  0  # atno 10167 bound_to 10162
  157.5601  130.8829  149.9098 H   0  0  0  0  0  0  0  0  0  0  0  0  # atno 10718 bound_to 10713
  153.8356  135.6862  153.4809 H   0  0  0  0  0  0  0  0  0  0  0  0  # atno 10763 bound_to 10752
  153.1485  135.4628  154.9599 H   0  0  0  0  0  0  0  0  0  0  0  0  # atno 10764 bound_to 10752
  154.7868  135.3287  154.7815 H   0  0  0  0  0  0  0  0  0  0  0  0  # atno 10765 bound_to 10752
  139.8773  134.9173  156.4873 H   0  0  0  0  0  0  0  0  0  0  0  0  # atno 11005 bound_to 11000
  144.6992  140.3577  143.7170 LP  0  0  0  0  0  0  0  0  0  0  0  0  # atno 17320 bound_to 7965
  145.7183  139.1703  143.2499 LP  0  0  0  0  0  0  0  0  0  0  0  0  # atno 17321 bound_to 7965
  140.0263  144.6114  150.7524 LP  0  0  0  0  0  0  0  0  0  0  0  0  # atno 17342 bound_to 10162
  140.7383  143.2776  151.3694 LP  0  0  0  0  0  0  0  0  0  0  0  0  # atno 17343 bound_to 10162
  156.0655  130.3693  150.0888 LP  0  0  0  0  0  0  0  0  0  0  0  0  # atno 17370 bound_to 10713
  156.9053  130.9634  151.3570 LP  0  0  0  0  0  0  0  0  0  0  0  0  # atno 17371 bound_to 10713
  140.8684  133.8007  155.9338 LP  0  0  0  0  0  0  0  0  0  0  0  0  # atno 17394 bound_to 11000
  140.8978  134.2416  157.5059 LP  0  0  0  0  0  0  0  0  0  0  0  0  # atno 17395 bound_to 11000

$$$$
