AV-unprocessed.smi:701|AV-procd|sdf|3411|dock7
  -GOLD-   22720 0393D 1   1.00000     0.00000
 Structure written by MMmdl.
 49 51  0  0  0  0  0  0  0  0  1 V2000
  153.4345  138.4020  154.6388 C   0  0  0  0  0  0  0  0  0  0  0  0
  152.7348  139.5691  155.3384 C   0  0  0  0  0  0  0  0  0  0  0  0
  151.4918  139.8065  154.6992 O   0  0  0  0  0  0  0  0  0  0  0  0
  150.4034  139.1812  155.3611 C   0  0  1  0  0  0  0  0  0  0  0  0
  150.2385  139.5758  156.8315 C   0  0  0  0  0  0  0  0  0  0  0  0
  148.7300  139.6412  156.5721 C   0  0  2  0  0  0  0  0  0  0  0  0
  148.0930  138.3607  156.8835 N   0  0  0  0  0  0  0  0  0  0  0  0
  148.1835  137.7188  158.0570 C   0  0  0  0  0  0  0  0  0  0  0  0
  148.8208  138.1510  159.0180 O   0  0  0  0  0  0  0  0  0  0  0  0
  147.4054  136.4013  158.1698 C   0  0  0  0  0  0  0  0  0  0  0  0
  147.3326  135.9073  159.5518 N   0  0  0  0  0  0  0  0  0  0  0  0
  147.7902  134.6362  159.8683 C   0  0  0  0  0  0  0  0  0  0  0  0
  147.7468  134.1185  161.1189 C   0  0  0  0  0  0  0  0  0  0  0  0
  147.1996  134.8996  162.2231 C   0  0  0  0  0  0  0  0  0  0  0  0
  147.1207  134.5202  163.3894 O   0  0  0  0  0  0  0  0  0  0  0  0
  146.7457  136.1712  161.8634 N   0  0  0  0  0  0  0  0  0  0  0  0
  146.7846  136.7094  160.5763 C   0  0  0  0  0  0  0  0  0  0  0  0
  146.3522  137.8421  160.3661 O   0  0  0  0  0  0  0  0  0  0  0  0
  149.0354  139.8397  155.0577 C   0  0  0  0  0  0  0  0  0  0  0  0
  149.0940  141.3161  154.6085 C   0  0  0  0  0  0  0  0  0  0  0  0
  147.7021  141.9620  154.4905 C   0  0  0  0  0  0  0  0  0  0  0  0
  146.8034  141.1778  153.5258 C   0  0  0  0  0  0  0  0  0  0  0  0
  146.7472  139.6925  153.9038 C   0  0  0  0  0  0  0  0  0  0  0  0
  148.1611  139.0991  154.0253 C   0  0  0  0  0  0  0  0  0  0  0  0
  146.3554  136.7471  162.5952 H   0  0  0  0  0  0  0  0  0  0  0  0
  154.4004  138.1935  155.0993 H   0  0  0  0  0  0  0  0  0  0  0  0
  153.6067  138.6247  153.5855 H   0  0  0  0  0  0  0  0  0  0  0  0
  152.8330  137.4946  154.6965 H   0  0  0  0  0  0  0  0  0  0  0  0
  152.5766  139.3321  156.3914 H   0  0  0  0  0  0  0  0  0  0  0  0
  153.3628  140.4597  155.2908 H   0  0  0  0  0  0  0  0  0  0  0  0
  150.3800  138.0994  155.2130 H   0  0  0  0  0  0  0  0  0  0  0  0
  150.5592  138.8166  157.5460 H   0  0  0  0  0  0  0  0  0  0  0  0
  150.6706  140.5503  157.0638 H   0  0  0  0  0  0  0  0  0  0  0  0
  148.2656  140.5066  157.0472 H   0  0  0  0  0  0  0  0  0  0  0  0
  147.5430  137.9350  156.1517 H   0  0  0  0  0  0  0  0  0  0  0  0
  146.4027  136.5692  157.7738 H   0  0  0  0  0  0  0  0  0  0  0  0
  147.8468  135.6421  157.5207 H   0  0  0  0  0  0  0  0  0  0  0  0
  148.1999  134.0202  159.0806 H   0  0  0  0  0  0  0  0  0  0  0  0
  148.1185  133.1209  161.3030 H   0  0  0  0  0  0  0  0  0  0  0  0
  149.6949  141.9064  155.3009 H   0  0  0  0  0  0  0  0  0  0  0  0
  149.6012  141.3935  153.6459 H   0  0  0  0  0  0  0  0  0  0  0  0
  147.2307  142.0059  155.4729 H   0  0  0  0  0  0  0  0  0  0  0  0
  147.7986  142.9932  154.1500 H   0  0  0  0  0  0  0  0  0  0  0  0
  145.7991  141.6021  153.5185 H   0  0  0  0  0  0  0  0  0  0  0  0
  147.1892  141.2779  152.5105 H   0  0  0  0  0  0  0  0  0  0  0  0
  146.2146  139.5758  154.8480 H   0  0  0  0  0  0  0  0  0  0  0  0
  146.1745  139.1415  153.1575 H   0  0  0  0  0  0  0  0  0  0  0  0
  148.6426  139.1324  153.0470 H   0  0  0  0  0  0  0  0  0  0  0  0
  148.0843  138.0386  154.2652 H   0  0  0  0  0  0  0  0  0  0  0  0
  1  2  1  0  0  0  0
  1 26  1  0  0  0  0
  1 27  1  0  0  0  0
  1 28  1  0  0  0  0
  2  3  1  0  0  0  0
  2 29  1  0  0  0  0
  2 30  1  0  0  0  0
  3  4  1  0  0  0  0
  4 19  1  0  0  0  0
  4  5  1  0  0  0  0
  4 31  1  0  0  0  0
  5  6  1  0  0  0  0
  5 32  1  0  0  0  0
  5 33  1  0  0  0  0
  6  7  1  0  0  0  0
  6 19  1  0  0  0  0
  6 34  1  0  0  0  0
  7  8  1  0  0  0  0
  7 35  1  0  0  0  0
  8  9  2  0  0  0  0
  8 10  1  0  0  0  0
 10 11  1  0  0  0  0
 10 36  1  0  0  0  0
 10 37  1  0  0  0  0
 11 17  1  0  0  0  0
 11 12  1  0  0  0  0
 12 13  2  0  0  0  0
 12 38  1  0  0  0  0
 13 14  1  0  0  0  0
 13 39  1  0  0  0  0
 14 15  2  0  0  0  0
 14 16  1  0  0  0  0
 16 25  1  0  0  0  0
 16 17  1  0  0  0  0
 17 18  2  0  0  0  0
 19 24  1  0  0  0  0
 19 20  1  0  0  0  0
 20 21  1  0  0  0  0
 20 40  1  0  0  0  0
 20 41  1  0  0  0  0
 21 22  1  0  0  0  0
 21 42  1  0  0  0  0
 21 43  1  0  0  0  0
 22 23  1  0  0  0  0
 22 44  1  0  0  0  0
 22 45  1  0  0  0  0
 23 24  1  0  0  0  0
 23 46  1  0  0  0  0
 23 47  1  0  0  0  0
 24 48  1  0  0  0  0
 24 49  1  0  0  0  0
M  END
> <s_m_source_file>
AV-unprocessed.smi

> <i_m_source_file_index>
701

> <i_lp_mmshare_version>
43012

> <i_f3d_flags>
0

> <s_epik_input>
W0NIMl0xW0NIMl1bQ0gyXVtDSDJdW0NIMl1DMTJbQ0BIXShPW0NIMl1bQ0gzXSlbQ0gyXVtDQEhdMltOSF1DKD1PKVtDSDJdbjNbY0hdW2NIXWMoPU8pW25IXWMzPU8=

> <s_epik_cmdline>
J2VwaWtfcHl0aG9uJywgJy1waCcsICc3LjAnLCAnLXRuJywgJzgnLCAnLW1hJywgJzIwMCcsICctbWV0YWxfYmluZGluZycsICctaW1hZScsICc8aW5maWxlLm1hZT4nLCAnLW9tYWUnLCAnPG91dGZpbGUubWFlPic=

> <r_lp_tautomer_probability>
0.999537

> <r_epik_Ionization_Penalty>
0.00304597

> <r_epik_Ionization_Penalty_Charging>
0.00304595

> <r_epik_Ionization_Penalty_Neutral>
1.88422e-08

> <r_epik_State_Penalty>
0.00214084

> <r_epik_Charging_Adjusted_Penalty>
0.00518679

> <i_epik_Tot_Q>
0

> <i_epik_Tot_abs_Q>
0

> <r_epik_Metal_State_Penalty>
0.361872

> <b_epik_Metal_Only>
0

> <s_lp_Force_Field>
OPLS_2005

> <r_lp_Energy>
29.1408

> <b_lp_Chiralities_Consistent>
1

> <s_lp_Variant>
AV-unprocessed.smi:701-4

> <Gold.Version>
5.8.1

> <Gold.Id.Protein>
6NUR|6NUR_protein|mol2

> <Gold.PLP.Fitness>
39.1769

> <Gold.PLP.PLP>
-34.2083

> <Gold.PLP.part.hbond>
-4.6499

> <Gold.PLP.part.metal>
0.0000

> <Gold.PLP.part.buried>
-2.5428

> <Gold.PLP.part.nonpolar>
-28.4882

> <Gold.PLP.part.repulsive>
0.2188

> <Gold.PLP.ligand.clash>
0.0000

> <Gold.PLP.ligand.torsion>
0.6889

> <Gold.PLP.Chemscore.Hbond>
2.0000

> <Gold.PLP.Chemscore.CHOScore>
0.0000

> <Gold.PLP.Chemscore.Metal>
0.0000

> <Gold.Chemscore.Hbonds>
donor molecule, donor type, donor heavy atom, donor atom, acceptor molecule, acceptor atom, score
      P1  H  6934  6947       L1    18  1.00
      P1  H  7989  7998       L1     3  1.00

> <Gold.PLP.Chemscore.Internal.Correction>
0.3464

> <Gold.Rescore>
     Score         DG    S(hbond)    S(metal)    S(lipo)     H(rot)  DE(clash)    DE(int)     intcor
     11.61     -14.51       1.65        0.00      76.00       2.09       0.86       2.04       ----

> <Gold.Chemscore.Fitness>
11.6135

> <Gold.Chemscore.DG>
-14.5077

> <Gold.Chemscore.ZeroCoef>
-5.4800

> <Gold.Chemscore.Hbond>
1.6452

> <Gold.Chemscore.Metal>
0.0000

> <Gold.Chemscore.Lipo>
75.9965

> <Gold.Chemscore.Internal_Hbond>
0.0000

> <Gold.Chemscore.DEClash>
0.8571

> <Gold.Chemscore.DEInternal>
2.0372

> <Gold.Chemscore.Rot>
2.0933

> <Gold.Chemscore.Internal.Correction>
   9.000000E+99

> <Gold.Chemscore.Hbonds>
donor molecule, donor type, donor heavy atom, donor atom, acceptor molecule, acceptor atom, score
      P1  H  6934  6947       L1    18  0.89
      P1  H  7989  7998       L1     3  0.77

> <Gold.Chemscore.Hbond.Weighted>
-5.4949

> <Gold.Chemscore.Metal.Weighted>
-0.0000

> <Gold.Chemscore.Lipo.Weighted>
-8.8916

> <Gold.Chemscore.Internal_Hbond.Weighted>
0.0000

> <Gold.Chemscore.DEClash.Weighted>
0.8571

> <Gold.Chemscore.DEInternal.Weighted>
2.0372

> <Gold.Chemscore.Rot.Weighted>
5.3588

> <Gold.Chemscore.Internal.Correction.Weighted>
   9.000000E+99

> <Gold.Protein.RotatedTorsions>
[ 6907 6896 6895 6894 ] final   71.15 input  -60.11 | X-H torsion
[ 7974 7965 7964 7962 ] final  127.81 input  175.53 | X-H torsion
[ 8008 7997 7996 7995 ] final -123.63 input   59.86 | X-H torsion
[ 10167 10162 10161 10158 ] final -155.65 input  -65.29 | X-H torsion
[ 10718 10713 10712 10709 ] final   35.97 input   66.30 | X-H torsion
[ 10763 10752 10751 10750 ] final   39.76 input  -60.55 | X-H torsion
[ 11005 11000 10999 10996 ] final   21.54 input  -57.11 | X-H torsion

> <Gold.Protein.ActiveResidues>
 VAL166  LYS551  ARG553  GLY616  TRP617  ASP618  TYR619  PRO620  LYS621  CYS622 
 ASP623  PHE694  ASN695  SER759  ASP760  ASP761  ALA762  ILE779  LEU786  VAL792 
 PHE793  MET794  SER795  GLU796  ALA797  LYS798  CYS799  TRP800  GLU811  SER814 

> <Gold.Protein.RotatedAtoms>
  152.4793  134.4763  159.9651 H   0  0  0  0  0  0  0  0  0  0  0  0  # atno 6907 bound_to 6896
  151.4772  133.3549  159.2840 H   0  0  0  0  0  0  0  0  0  0  0  0  # atno 6908 bound_to 6896
  150.8853  134.8276  159.7315 H   0  0  0  0  0  0  0  0  0  0  0  0  # atno 6909 bound_to 6896
  145.0464  139.3919  143.5076 H   0  0  0  0  0  0  0  0  0  0  0  0  # atno 7974 bound_to 7965
  155.1836  140.0411  157.2887 H   0  0  0  0  0  0  0  0  0  0  0  0  # atno 8008 bound_to 7997
  154.6186  140.2495  155.7550 H   0  0  0  0  0  0  0  0  0  0  0  0  # atno 8009 bound_to 7997
  156.2421  140.2899  156.0484 H   0  0  0  0  0  0  0  0  0  0  0  0  # atno 8010 bound_to 7997
  139.6914  143.9415  152.2386 H   0  0  0  0  0  0  0  0  0  0  0  0  # atno 10167 bound_to 10162
  157.3291  130.7488  149.6836 H   0  0  0  0  0  0  0  0  0  0  0  0  # atno 10718 bound_to 10713
  152.9957  135.6211  154.2518 H   0  0  0  0  0  0  0  0  0  0  0  0  # atno 10763 bound_to 10752
  154.2256  135.2794  155.2910 H   0  0  0  0  0  0  0  0  0  0  0  0  # atno 10764 bound_to 10752
  154.5492  135.5738  153.6965 H   0  0  0  0  0  0  0  0  0  0  0  0  # atno 10765 bound_to 10752
  140.3904  134.1825  155.7662 H   0  0  0  0  0  0  0  0  0  0  0  0  # atno 11005 bound_to 11000
  146.3514  140.0092  142.8669 LP  0  0  0  0  0  0  0  0  0  0  0  0  # atno 17320 bound_to 7965
  145.1582  140.9659  143.4392 LP  0  0  0  0  0  0  0  0  0  0  0  0  # atno 17321 bound_to 7965
  139.9232  144.6787  150.8440 LP  0  0  0  0  0  0  0  0  0  0  0  0  # atno 17342 bound_to 10162
  140.7683  143.3360  151.2308 LP  0  0  0  0  0  0  0  0  0  0  0  0  # atno 17343 bound_to 10162
  155.9694  130.4200  150.4403 LP  0  0  0  0  0  0  0  0  0  0  0  0  # atno 17370 bound_to 10713
  157.2432  131.0530  151.2424 LP  0  0  0  0  0  0  0  0  0  0  0  0  # atno 17371 bound_to 10713
  141.1893  133.8242  157.0963 LP  0  0  0  0  0  0  0  0  0  0  0  0  # atno 17394 bound_to 11000
  140.0411  134.9854  157.0963 LP  0  0  0  0  0  0  0  0  0  0  0  0  # atno 17395 bound_to 11000

$$$$
