AV-unprocessed.smi:3220|AV-procd|sdf|12297|dock8
  -GOLD-   2272018143D 1   1.00000     0.00000
 Structure written by MMmdl.
 33 34  0  0  0  0  0  0  0  0  1 V2000
  149.9636  140.3252  158.0280 C   0  0  0  0  0  0  0  0  0  0  0  0
  150.2690  141.7601  157.5737 C   0  0  2  0  0  0  0  0  0  0  0  0
  150.7593  141.8025  156.1131 C   0  0  0  0  0  0  0  0  0  0  0  0
  149.7744  141.2815  155.1808 N   0  0  0  0  0  0  0  0  0  0  0  0
  148.4934  141.7351  154.9458 C   0  0  0  0  0  0  0  0  0  0  0  0
  147.9435  140.9255  153.9940 C   0  0  0  0  0  0  0  0  0  0  0  0
  148.9811  139.9971  153.7002 C   0  0  0  0  0  0  0  0  0  0  0  0
  150.0768  140.2150  154.4093 N   0  0  0  0  0  0  0  0  0  0  0  0
  151.2745  142.3541  158.4518 N   0  0  0  0  0  0  0  0  0  0  0  0
  152.4444  141.7942  158.7991 C   0  0  0  0  0  0  0  0  0  0  0  0
  152.8344  140.7181  158.3456 O   0  0  0  0  0  0  0  0  0  0  0  0
  153.3180  142.5739  159.7990 C   0  0  2  0  0  0  0  0  0  0  0  0
  153.4697  141.8749  161.1667 C   0  0  0  0  0  0  0  0  0  0  0  0
  152.8703  142.8541  162.1629 C   0  0  0  0  0  0  0  0  0  0  0  0
  151.9657  143.7141  161.2936 C   0  0  0  0  0  0  0  0  0  0  0  0
  152.7192  143.8373  160.0974 O   0  0  0  0  0  0  0  0  0  0  0  0
  149.2043  139.8671  157.3938 H   0  0  0  0  0  0  0  0  0  0  0  0
  149.5893  140.3078  159.0521 H   0  0  0  0  0  0  0  0  0  0  0  0
  150.8544  139.6975  157.9875 H   0  0  0  0  0  0  0  0  0  0  0  0
  149.3437  142.3362  157.6349 H   0  0  0  0  0  0  0  0  0  0  0  0
  151.0079  142.8244  155.8225 H   0  0  0  0  0  0  0  0  0  0  0  0
  151.6730  141.2163  156.0041 H   0  0  0  0  0  0  0  0  0  0  0  0
  148.0822  142.5824  155.4748 H   0  0  0  0  0  0  0  0  0  0  0  0
  146.9514  140.9865  153.5722 H   0  0  0  0  0  0  0  0  0  0  0  0
  148.9711  139.1769  152.9977 H   0  0  0  0  0  0  0  0  0  0  0  0
  151.0467  143.2473  158.8646 H   0  0  0  0  0  0  0  0  0  0  0  0
  154.2920  142.7476  159.3407 H   0  0  0  0  0  0  0  0  0  0  0  0
  152.9289  140.9284  161.2115 H   0  0  0  0  0  0  0  0  0  0  0  0
  154.5133  141.6623  161.4002 H   0  0  0  0  0  0  0  0  0  0  0  0
  152.3361  142.3637  162.9772 H   0  0  0  0  0  0  0  0  0  0  0  0
  153.6587  143.4708  162.5963 H   0  0  0  0  0  0  0  0  0  0  0  0
  151.0213  143.2073  161.0901 H   0  0  0  0  0  0  0  0  0  0  0  0
  151.7497  144.6861  161.7373 H   0  0  0  0  0  0  0  0  0  0  0  0
  1  2  1  0  0  0  0
  1 17  1  0  0  0  0
  1 18  1  0  0  0  0
  1 19  1  0  0  0  0
  2  3  1  0  0  0  0
  2  9  1  0  0  0  0
  2 20  1  0  0  0  0
  3  4  1  0  0  0  0
  3 21  1  0  0  0  0
  3 22  1  0  0  0  0
  4  8  1  0  0  0  0
  4  5  1  0  0  0  0
  5  6  2  0  0  0  0
  5 23  1  0  0  0  0
  6  7  1  0  0  0  0
  6 24  1  0  0  0  0
  7  8  2  0  0  0  0
  7 25  1  0  0  0  0
  9 10  1  0  0  0  0
  9 26  1  0  0  0  0
 10 11  2  0  0  0  0
 10 12  1  0  0  0  0
 12 16  1  0  0  0  0
 12 13  1  0  0  0  0
 12 27  1  0  0  0  0
 13 14  1  0  0  0  0
 13 28  1  0  0  0  0
 13 29  1  0  0  0  0
 14 15  1  0  0  0  0
 14 30  1  0  0  0  0
 14 31  1  0  0  0  0
 15 16  1  0  0  0  0
 15 32  1  0  0  0  0
 15 33  1  0  0  0  0
M  END
> <s_m_source_file>
AV-unprocessed.smi

> <i_m_source_file_index>
3220

> <i_lp_mmshare_version>
43012

> <i_f3d_flags>
0

> <s_epik_input>
bjFbY0hdW2NIXVtjSF1uMVtDSDJdW0NAQEhdKFtDSDNdKVtOSF1DKD1PKVtDQEBIXTJbQ0gyXVtDSDJdW0NIMl1PMg==

> <s_epik_cmdline>
J2VwaWtfcHl0aG9uJywgJy1waCcsICc3LjAnLCAnLXRuJywgJzgnLCAnLW1hJywgJzIwMCcsICctbWV0YWxfYmluZGluZycsICctaW1hZScsICc8aW5maWxlLm1hZT4nLCAnLW9tYWUnLCAnPG91dGZpbGUubWFlPic=

> <r_lp_tautomer_probability>
1

> <r_epik_Ionization_Penalty>
0.00033363

> <r_epik_Ionization_Penalty_Charging>
0

> <r_epik_Ionization_Penalty_Neutral>
0.00033363

> <r_epik_State_Penalty>
-0

> <r_epik_Charging_Adjusted_Penalty>
0

> <i_epik_Tot_Q>
0

> <i_epik_Tot_abs_Q>
0

> <r_epik_Metal_State_Penalty>
-0

> <b_epik_Metal_Only>
0

> <s_lp_Force_Field>
OPLS_2005

> <r_lp_Energy>
17.2779

> <b_lp_Chiralities_Consistent>
1

> <s_lp_Variant>
AV-unprocessed.smi:3220-1

> <Gold.Version>
5.8.1

> <Gold.Id.Protein>
6NUR|6NUR_protein|mol2

> <Gold.PLP.Fitness>
42.7254

> <Gold.PLP.PLP>
-34.8255

> <Gold.PLP.part.hbond>
-1.7887

> <Gold.PLP.part.metal>
0.0000

> <Gold.PLP.part.buried>
0.3336

> <Gold.PLP.part.nonpolar>
-32.5879

> <Gold.PLP.part.repulsive>
0.1778

> <Gold.PLP.ligand.clash>
0.0000

> <Gold.PLP.ligand.torsion>
0.1986

> <Gold.PLP.Chemscore.Hbond>
1.2751

> <Gold.PLP.Chemscore.CHOScore>
1.4836

> <Gold.PLP.Chemscore.Metal>
0.0000

> <Gold.Chemscore.Hbonds>
donor molecule, donor type, donor heavy atom, donor atom, acceptor molecule, acceptor atom, score
      P1  H  7989  7998       L1     8  0.99
      P1  H  7997  8009       L1    11  0.28
      L1  C     5    23       P1  8028  1.00
      L1  C     7    25       P1  7957  0.51

> <Gold.PLP.Chemscore.Internal.Correction>
0.0212

> <Gold.Rescore>
     Score         DG    S(hbond)    S(metal)    S(lipo)     H(rot)  DE(clash)    DE(int)     intcor
     12.79     -15.97       1.49        0.00      82.52       1.62       1.57       1.61       ----

> <Gold.Chemscore.Fitness>
12.7936

> <Gold.Chemscore.DG>
-15.9744

> <Gold.Chemscore.ZeroCoef>
-5.4800

> <Gold.Chemscore.Hbond>
1.4944

> <Gold.Chemscore.Metal>
0.0000

> <Gold.Chemscore.Lipo>
82.5231

> <Gold.Chemscore.Internal_Hbond>
0.0000

> <Gold.Chemscore.DEClash>
1.5696

> <Gold.Chemscore.DEInternal>
1.6111

> <Gold.Chemscore.Rot>
1.6219

> <Gold.Chemscore.Internal.Correction>
   9.000000E+99

> <Gold.Chemscore.Hbonds>
donor molecule, donor type, donor heavy atom, donor atom, acceptor molecule, acceptor atom, score
      P1  H  7989  7998       L1     8  0.27
      P1  H  7997  8009       L1    11  0.27

> <Gold.Chemscore.Hbond.Weighted>
-4.9912

> <Gold.Chemscore.Metal.Weighted>
-0.0000

> <Gold.Chemscore.Lipo.Weighted>
-9.6552

> <Gold.Chemscore.Internal_Hbond.Weighted>
0.0000

> <Gold.Chemscore.DEClash.Weighted>
1.5696

> <Gold.Chemscore.DEInternal.Weighted>
1.6111

> <Gold.Chemscore.Rot.Weighted>
4.1520

> <Gold.Chemscore.Internal.Correction.Weighted>
   9.000000E+99

> <Gold.Protein.RotatedTorsions>
[ 6907 6896 6895 6894 ] final   64.00 input  -60.11 | X-H torsion
[ 7974 7965 7964 7962 ] final   54.57 input  175.53 | X-H torsion
[ 8008 7997 7996 7995 ] final  159.32 input   59.86 | X-H torsion
[ 10167 10162 10161 10158 ] final  170.23 input  -65.29 | X-H torsion
[ 10718 10713 10712 10709 ] final   21.17 input   66.30 | X-H torsion
[ 10763 10752 10751 10750 ] final   78.19 input  -60.55 | X-H torsion
[ 11005 11000 10999 10996 ] final   88.58 input  -57.11 | X-H torsion

> <Gold.Protein.ActiveResidues>
 VAL166  LYS551  ARG553  GLY616  TRP617  ASP618  TYR619  PRO620  LYS621  CYS622 
 ASP623  PHE694  ASN695  SER759  ASP760  ASP761  ALA762  ILE779  LEU786  VAL792 
 PHE793  MET794  SER795  GLU796  ALA797  LYS798  CYS799  TRP800  GLU811  SER814 

> <Gold.Protein.RotatedAtoms>
  152.4297  134.5800  159.9945 H   0  0  0  0  0  0  0  0  0  0  0  0  # atno 6907 bound_to 6896
  151.5927  133.3359  159.3039 H   0  0  0  0  0  0  0  0  0  0  0  0  # atno 6908 bound_to 6896
  150.8189  134.7422  159.6820 H   0  0  0  0  0  0  0  0  0  0  0  0  # atno 6909 bound_to 6896
  145.9595  139.4045  143.0257 H   0  0  0  0  0  0  0  0  0  0  0  0  # atno 7974 bound_to 7965
  156.2246  140.1834  156.7394 H   0  0  0  0  0  0  0  0  0  0  0  0  # atno 8008 bound_to 7997
  154.5920  140.0649  156.9280 H   0  0  0  0  0  0  0  0  0  0  0  0  # atno 8009 bound_to 7997
  155.2320  140.3315  155.4305 H   0  0  0  0  0  0  0  0  0  0  0  0  # atno 8010 bound_to 7997
  139.5013  144.3619  151.9816 H   0  0  0  0  0  0  0  0  0  0  0  0  # atno 10167 bound_to 10162
  157.1347  130.6606  149.5962 H   0  0  0  0  0  0  0  0  0  0  0  0  # atno 10718 bound_to 10713
  153.0855  135.4886  154.8588 H   0  0  0  0  0  0  0  0  0  0  0  0  # atno 10763 bound_to 10752
  154.7205  135.3038  154.9057 H   0  0  0  0  0  0  0  0  0  0  0  0  # atno 10764 bound_to 10752
  153.9722  135.6800  153.4800 H   0  0  0  0  0  0  0  0  0  0  0  0  # atno 10765 bound_to 10752
  139.8893  134.8497  156.3020 H   0  0  0  0  0  0  0  0  0  0  0  0  # atno 11005 bound_to 11000
  145.8060  140.9748  143.0974 LP  0  0  0  0  0  0  0  0  0  0  0  0  # atno 17320 bound_to 7965
  144.6812  139.9861  143.7484 LP  0  0  0  0  0  0  0  0  0  0  0  0  # atno 17321 bound_to 7965
  140.3055  144.3598  150.6048 LP  0  0  0  0  0  0  0  0  0  0  0  0  # atno 17342 bound_to 10162
  140.5840  143.2171  151.7376 LP  0  0  0  0  0  0  0  0  0  0  0  0  # atno 17343 bound_to 10162
  155.9800  130.4798  150.6751 LP  0  0  0  0  0  0  0  0  0  0  0  0  # atno 17370 bound_to 10713
  157.4361  131.0855  151.0991 LP  0  0  0  0  0  0  0  0  0  0  0  0  # atno 17371 bound_to 10713
  140.9907  133.7211  156.0809 LP  0  0  0  0  0  0  0  0  0  0  0  0  # atno 17394 bound_to 11000
  140.7629  134.3919  157.5522 LP  0  0  0  0  0  0  0  0  0  0  0  0  # atno 17395 bound_to 11000

$$$$
