AV-unprocessed.smi:216|AV-procd|sdf|1658|dock2
  -GOLD-   2262020 53D 1   1.00000     0.00000
 Structure written by MMmdl.
 65 69  0  0  0  0  0  0  0  0  1 V2000
  153.5435  142.1548  162.1025 C   0  0  0  0  0  0  0  0  0  0  0  0
  152.7624  141.5913  160.8958 C   0  0  2  0  0  0  0  0  0  0  0  0
  153.6191  140.5251  160.1830 C   0  0  0  0  0  0  0  0  0  0  0  0
  152.8469  139.8524  159.0452 C   0  0  0  0  0  0  0  0  0  0  0  0
  152.3188  140.8518  158.1208 N   0  0  0  0  0  0  0  0  0  0  0  0
  151.8657  140.4036  156.9212 C   0  0  0  0  0  0  0  0  0  0  0  0
  152.6714  139.6431  156.1314 N   0  0  0  0  0  0  0  0  0  0  0  0
  152.2347  139.1947  154.9513 C   0  0  0  0  0  0  0  0  0  0  0  0
  151.0463  139.3827  154.3761 N   0  0  0  0  0  0  0  0  0  0  0  0
  150.2310  140.1430  155.1613 C   0  0  0  0  0  0  0  0  0  0  0  0
  150.5599  140.6928  156.4330 C   0  0  0  0  0  0  0  0  0  0  0  0
  149.4869  141.4297  156.9180 N   0  0  0  0  0  0  0  0  0  0  0  0
  148.5731  141.3122  155.9947 C   0  0  0  0  0  0  0  0  0  0  0  0
  148.9293  140.5427  154.9102 N   0  0  0  0  0  0  0  0  0  0  0  0
  148.1083  140.2523  153.7431 C   0  0  0  0  0  0  0  0  0  0  0  0
  147.1323  139.0494  153.9101 C   0  0  0  0  0  0  0  0  0  0  0  0
  146.4992  138.6529  152.5451 C   0  0  0  0  0  0  0  0  0  0  0  0
  147.4607  138.1675  151.6294 O   0  0  0  0  0  0  0  0  0  0  0  0
  147.9185  137.8680  154.5321 C   0  0  0  0  0  0  0  0  0  0  0  0
  147.0066  136.7267  155.0170 C   0  0  0  0  0  0  0  0  0  0  0  0
  146.0603  137.2283  155.9515 O   0  0  0  0  0  0  0  0  0  0  0  0
  145.1953  138.2050  155.3878 C   0  0  0  0  0  0  0  0  0  0  0  0
  146.0095  139.4218  154.9112 C   0  0  0  0  0  0  0  0  0  0  0  0
  151.4739  141.8706  158.7447 C   0  0  0  0  0  0  0  0  0  0  0  0
  152.1988  142.6499  159.8835 C   0  0  0  0  0  0  0  0  0  0  0  0
  151.1556  143.5591  160.5958 C   0  0  0  0  0  0  0  0  0  0  0  0
  150.6275  144.7079  159.7173 C   0  0  0  0  0  0  0  0  0  0  0  0
  151.7797  145.5726  159.1909 C   0  0  0  0  0  0  0  0  0  0  0  0
  152.8061  144.7195  158.4354 C   0  0  0  0  0  0  0  0  0  0  0  0
  153.3251  143.5565  159.3014 C   0  0  0  0  0  0  0  0  0  0  0  0
  154.4640  142.6530  161.8006 H   0  0  0  0  0  0  0  0  0  0  0  0
  153.8305  141.3481  162.7774 H   0  0  0  0  0  0  0  0  0  0  0  0
  152.9576  142.8549  162.6951 H   0  0  0  0  0  0  0  0  0  0  0  0
  151.9019  141.0663  161.3140 H   0  0  0  0  0  0  0  0  0  0  0  0
  154.5334  140.9728  159.7929 H   0  0  0  0  0  0  0  0  0  0  0  0
  153.9367  139.7626  160.8947 H   0  0  0  0  0  0  0  0  0  0  0  0
  153.5073  139.1627  158.5175 H   0  0  0  0  0  0  0  0  0  0  0  0
  152.0227  139.2652  159.4530 H   0  0  0  0  0  0  0  0  0  0  0  0
  152.9383  138.5994  154.3884 H   0  0  0  0  0  0  0  0  0  0  0  0
  147.6054  141.7845  156.0815 H   0  0  0  0  0  0  0  0  0  0  0  0
  147.5522  141.1568  153.4931 H   0  0  0  0  0  0  0  0  0  0  0  0
  148.7779  140.0805  152.8991 H   0  0  0  0  0  0  0  0  0  0  0  0
  145.7411  137.8805  152.6626 H   0  0  0  0  0  0  0  0  0  0  0  0
  145.9888  139.5023  152.0909 H   0  0  0  0  0  0  0  0  0  0  0  0
  147.9109  137.4369  152.0259 H   0  0  0  0  0  0  0  0  0  0  0  0
  148.6551  137.4795  153.8283 H   0  0  0  0  0  0  0  0  0  0  0  0
  148.4897  138.2265  155.3897 H   0  0  0  0  0  0  0  0  0  0  0  0
  146.4973  136.2369  154.1867 H   0  0  0  0  0  0  0  0  0  0  0  0
  147.6052  135.9600  155.5090 H   0  0  0  0  0  0  0  0  0  0  0  0
  144.6112  137.7691  154.5770 H   0  0  0  0  0  0  0  0  0  0  0  0
  144.4815  138.5161  156.1507 H   0  0  0  0  0  0  0  0  0  0  0  0
  146.4508  139.8938  155.7901 H   0  0  0  0  0  0  0  0  0  0  0  0
  145.3349  140.1600  154.4766 H   0  0  0  0  0  0  0  0  0  0  0  0
  151.0891  142.5562  157.9927 H   0  0  0  0  0  0  0  0  0  0  0  0
  150.5985  141.3634  159.1530 H   0  0  0  0  0  0  0  0  0  0  0  0
  150.3170  142.9607  160.9534 H   0  0  0  0  0  0  0  0  0  0  0  0
  151.5935  144.0158  161.4816 H   0  0  0  0  0  0  0  0  0  0  0  0
  150.0442  144.3161  158.8842 H   0  0  0  0  0  0  0  0  0  0  0  0
  149.9428  145.3272  160.2975 H   0  0  0  0  0  0  0  0  0  0  0  0
  151.3914  146.3542  158.5375 H   0  0  0  0  0  0  0  0  0  0  0  0
  152.2681  146.0784  160.0246 H   0  0  0  0  0  0  0  0  0  0  0  0
  152.3596  144.3406  157.5184 H   0  0  0  0  0  0  0  0  0  0  0  0
  153.6432  145.3446  158.1236 H   0  0  0  0  0  0  0  0  0  0  0  0
  153.9035  143.9957  160.1128 H   0  0  0  0  0  0  0  0  0  0  0  0
  154.0311  142.9682  158.7155 H   0  0  0  0  0  0  0  0  0  0  0  0
  1  2  1  0  0  0  0
  1 31  1  0  0  0  0
  1 32  1  0  0  0  0
  1 33  1  0  0  0  0
  2 25  1  0  0  0  0
  2  3  1  0  0  0  0
  2 34  1  0  0  0  0
  3  4  1  0  0  0  0
  3 35  1  0  0  0  0
  3 36  1  0  0  0  0
  4  5  1  0  0  0  0
  4 37  1  0  0  0  0
  4 38  1  0  0  0  0
  5  6  1  0  0  0  0
  5 24  1  0  0  0  0
  6 11  1  0  0  0  0
  6  7  2  0  0  0  0
  7  8  1  0  0  0  0
  8  9  2  0  0  0  0
  8 39  1  0  0  0  0
  9 10  1  0  0  0  0
 10 14  1  0  0  0  0
 10 11  2  0  0  0  0
 11 12  1  0  0  0  0
 12 13  2  0  0  0  0
 13 14  1  0  0  0  0
 13 40  1  0  0  0  0
 14 15  1  0  0  0  0
 15 16  1  0  0  0  0
 15 41  1  0  0  0  0
 15 42  1  0  0  0  0
 16 23  1  0  0  0  0
 16 17  1  0  0  0  0
 16 19  1  0  0  0  0
 17 18  1  0  0  0  0
 17 43  1  0  0  0  0
 17 44  1  0  0  0  0
 18 45  1  0  0  0  0
 19 20  1  0  0  0  0
 19 46  1  0  0  0  0
 19 47  1  0  0  0  0
 20 21  1  0  0  0  0
 20 48  1  0  0  0  0
 20 49  1  0  0  0  0
 21 22  1  0  0  0  0
 22 23  1  0  0  0  0
 22 50  1  0  0  0  0
 22 51  1  0  0  0  0
 23 52  1  0  0  0  0
 23 53  1  0  0  0  0
 24 25  1  0  0  0  0
 24 54  1  0  0  0  0
 24 55  1  0  0  0  0
 25 30  1  0  0  0  0
 25 26  1  0  0  0  0
 26 27  1  0  0  0  0
 26 56  1  0  0  0  0
 26 57  1  0  0  0  0
 27 28  1  0  0  0  0
 27 58  1  0  0  0  0
 27 59  1  0  0  0  0
 28 29  1  0  0  0  0
 28 60  1  0  0  0  0
 28 61  1  0  0  0  0
 29 30  1  0  0  0  0
 29 62  1  0  0  0  0
 29 63  1  0  0  0  0
 30 64  1  0  0  0  0
 30 65  1  0  0  0  0
M  END
> <s_m_source_file>
AV-unprocessed.smi

> <i_m_source_file_index>
216

> <i_lp_mmshare_version>
43012

> <i_f3d_flags>
0

> <s_epik_input>
W0NIMl0xW0NIMl1bQ0gyXVtDSDJdW0NIMl1DMTJbQ0BIXShbQ0gzXSlbQ0gyXVtDSDJdTihbQ0gyXTIpYyhuW2NIXW4zKWMoYzM0KW5bY0hdbjRbQ0gyXUM1KFtDSDJdW09IXSlbQ0gyXVtDSDJdT1tDSDJdW0NIMl01

> <s_epik_cmdline>
J2VwaWtfcHl0aG9uJywgJy1waCcsICc3LjAnLCAnLXRuJywgJzgnLCAnLW1hJywgJzIwMCcsICctbWV0YWxfYmluZGluZycsICctaW1hZScsICc8aW5maWxlLm1hZT4nLCAnLW9tYWUnLCAnPG91dGZpbGUubWFlPic=

> <r_lp_tautomer_probability>
1

> <r_epik_Ionization_Penalty>
0.00291566

> <r_epik_Ionization_Penalty_Charging>
0

> <r_epik_Ionization_Penalty_Neutral>
0.00291566

> <r_epik_State_Penalty>
0.00199166

> <r_epik_Charging_Adjusted_Penalty>
0.00199166

> <i_epik_Tot_Q>
0

> <i_epik_Tot_abs_Q>
0

> <r_epik_Metal_State_Penalty>
-0

> <b_epik_Metal_Only>
0

> <s_lp_Force_Field>
OPLS_2005

> <r_lp_Energy>
50.3698

> <b_lp_Chiralities_Consistent>
1

> <s_lp_Variant>
AV-unprocessed.smi:216-1

> <Gold.Version>
5.8.1

> <Gold.Id.Protein>
6NUR|6NUR_protein|mol2

> <Gold.PLP.Fitness>
63.3021

> <Gold.PLP.PLP>
-55.6919

> <Gold.PLP.part.hbond>
-4.6597

> <Gold.PLP.part.metal>
0.0000

> <Gold.PLP.part.buried>
-4.0608

> <Gold.PLP.part.nonpolar>
-47.9358

> <Gold.PLP.part.repulsive>
0.2228

> <Gold.PLP.ligand.clash>
0.5481

> <Gold.PLP.ligand.torsion>
0.6140

> <Gold.PLP.Chemscore.Hbond>
3.0140

> <Gold.PLP.Chemscore.CHOScore>
0.0000

> <Gold.PLP.Chemscore.Metal>
0.0000

> <Gold.Chemscore.Hbonds>
donor molecule, donor type, donor heavy atom, donor atom, acceptor molecule, acceptor atom, score
      L1  H    18    45       P1  7948  0.93
      P1  H  7954  7966       L1    18  0.75
      P1  H  7989  7998       L1     9  0.36
      P1  H  7997  8009       L1     7  1.00

> <Gold.PLP.Chemscore.Internal.Correction>
0.3443

> <Gold.Rescore>
     Score         DG    S(hbond)    S(metal)    S(lipo)     H(rot)  DE(clash)    DE(int)     intcor
     20.13     -22.40       1.75        0.00     142.73       2.20       0.28       2.00       ----

> <Gold.Chemscore.Fitness>
20.1251

> <Gold.Chemscore.DG>
-22.4043

> <Gold.Chemscore.ZeroCoef>
-5.4800

> <Gold.Chemscore.Hbond>
1.7549

> <Gold.Chemscore.Metal>
0.0000

> <Gold.Chemscore.Lipo>
142.7331

> <Gold.Chemscore.Internal_Hbond>
0.0000

> <Gold.Chemscore.DEClash>
0.2833

> <Gold.Chemscore.DEInternal>
1.9959

> <Gold.Chemscore.Rot>
2.2019

> <Gold.Chemscore.Internal.Correction>
   9.000000E+99

> <Gold.Chemscore.Hbonds>
donor molecule, donor type, donor heavy atom, donor atom, acceptor molecule, acceptor atom, score
      L1  H    18    45       P1  7948  0.87
      P1  H  7954  7966       L1    18  0.09
      P1  H  7997  8009       L1     7  0.73

> <Gold.Chemscore.Hbond.Weighted>
-5.8615

> <Gold.Chemscore.Metal.Weighted>
-0.0000

> <Gold.Chemscore.Lipo.Weighted>
-16.6998

> <Gold.Chemscore.Internal_Hbond.Weighted>
0.0000

> <Gold.Chemscore.DEClash.Weighted>
0.2833

> <Gold.Chemscore.DEInternal.Weighted>
1.9959

> <Gold.Chemscore.Rot.Weighted>
5.6370

> <Gold.Chemscore.Internal.Correction.Weighted>
   9.000000E+99

> <Gold.Protein.RotatedTorsions>
[ 6907 6896 6895 6894 ] final  109.60 input  -60.11 | X-H torsion
[ 7974 7965 7964 7962 ] final   87.22 input  175.53 | X-H torsion
[ 8008 7997 7996 7995 ] final -162.80 input   59.86 | X-H torsion
[ 10167 10162 10161 10158 ] final -113.93 input  -65.29 | X-H torsion
[ 10718 10713 10712 10709 ] final  -50.96 input   66.30 | X-H torsion
[ 10763 10752 10751 10750 ] final   80.53 input  -60.55 | X-H torsion
[ 11005 11000 10999 10996 ] final  -18.14 input  -57.11 | X-H torsion

> <Gold.Protein.ActiveResidues>
 VAL166  LYS551  ARG553  GLY616  TRP617  ASP618  TYR619  PRO620  LYS621  CYS622 
 ASP623  PHE694  ASN695  SER759  ASP760  ASP761  ALA762  ILE779  LEU786  VAL792 
 PHE793  MET794  SER795  GLU796  ALA797  LYS798  CYS799  TRP800  GLU811  SER814 

> <Gold.Protein.RotatedAtoms>
  152.5059  133.8920  159.7398 H   0  0  0  0  0  0  0  0  0  0  0  0  # atno 6907 bound_to 6896
  150.9357  133.6706  159.2808 H   0  0  0  0  0  0  0  0  0  0  0  0  # atno 6908 bound_to 6896
  151.4035  135.0979  159.9616 H   0  0  0  0  0  0  0  0  0  0  0  0  # atno 6909 bound_to 6896
  145.5619  139.2305  143.2454 H   0  0  0  0  0  0  0  0  0  0  0  0  # atno 7974 bound_to 7965
  155.8121  140.0907  157.1898 H   0  0  0  0  0  0  0  0  0  0  0  0  # atno 8008 bound_to 7997
  154.3980  140.1453  156.3458 H   0  0  0  0  0  0  0  0  0  0  0  0  # atno 8009 bound_to 7997
  155.8355  140.3441  155.5601 H   0  0  0  0  0  0  0  0  0  0  0  0  # atno 8010 bound_to 7997
  140.1064  143.4566  152.1780 H   0  0  0  0  0  0  0  0  0  0  0  0  # atno 10167 bound_to 10162
  156.1753  130.4150  149.9586 H   0  0  0  0  0  0  0  0  0  0  0  0  # atno 10718 bound_to 10713
  153.1041  135.4799  154.8920 H   0  0  0  0  0  0  0  0  0  0  0  0  # atno 10763 bound_to 10752
  154.7411  135.3082  154.8729 H   0  0  0  0  0  0  0  0  0  0  0  0  # atno 10764 bound_to 10752
  153.9337  135.6842  153.4798 H   0  0  0  0  0  0  0  0  0  0  0  0  # atno 10765 bound_to 10752
  140.8238  133.8048  155.9687 H   0  0  0  0  0  0  0  0  0  0  0  0  # atno 11005 bound_to 11000
  146.1845  140.6444  142.9174 LP  0  0  0  0  0  0  0  0  0  0  0  0  # atno 17320 bound_to 7965
  144.7479  140.5115  143.6823 LP  0  0  0  0  0  0  0  0  0  0  0  0  # atno 17321 bound_to 7965
  139.5643  144.7425  151.4067 LP  0  0  0  0  0  0  0  0  0  0  0  0  # atno 17342 bound_to 10162
  140.6949  143.7772  150.7312 LP  0  0  0  0  0  0  0  0  0  0  0  0  # atno 17343 bound_to 10162
  156.7373  130.9066  151.3630 LP  0  0  0  0  0  0  0  0  0  0  0  0  # atno 17370 bound_to 10713
  157.6831  130.9159  150.0318 LP  0  0  0  0  0  0  0  0  0  0  0  0  # atno 17371 bound_to 10713
  140.9071  134.2307  157.5008 LP  0  0  0  0  0  0  0  0  0  0  0  0  # atno 17394 bound_to 11000
  139.8707  134.9733  156.4804 LP  0  0  0  0  0  0  0  0  0  0  0  0  # atno 17395 bound_to 11000

$$$$
