AV-unprocessed.smi:26|AV-procd|sdf|186|dock5
  -GOLD-   2262015453D 1   1.00000     0.00000
 Structure written by MMmdl.
 58 61  0  0  0  0  0  0  0  0  1 V2000
  148.2602  140.7546  157.3549 C   0  0  0  0  0  0  0  0  0  0  0  0
  149.0335  139.6925  156.6393 C   0  0  0  0  0  0  0  0  0  0  0  0
  148.8905  138.3397  156.7165 C   0  0  0  0  0  0  0  0  0  0  0  0
  149.8529  137.7325  155.8663 C   0  0  0  0  0  0  0  0  0  0  0  0
  150.0974  136.2839  155.6410 C   0  0  0  0  0  0  0  0  0  0  0  0
  151.1278  135.8447  155.1278 O   0  0  0  0  0  0  0  0  0  0  0  0
  148.9729  135.3345  156.0965 C   0  0  0  0  0  0  0  0  0  0  0  0
  148.4698  134.4875  155.0215 N   0  0  0  0  0  0  0  0  0  0  0  0
  149.0465  133.2014  154.8687 C   0  0  0  0  0  0  0  0  0  0  0  0
  149.9427  132.7935  155.6098 O   0  0  0  0  0  0  0  0  0  0  0  0
  148.5035  132.4208  153.7625 C   0  0  0  0  0  0  0  0  0  0  0  0
  148.9794  131.1870  153.5232 F   0  0  0  0  0  0  0  0  0  0  0  0
  147.5312  132.9186  152.9688 C   0  0  0  0  0  0  0  0  0  0  0  0
  146.9867  134.1801  153.1405 N   0  0  0  0  0  0  0  0  0  0  0  0
  145.9145  134.7022  152.2108 C   0  0  1  0  0  0  0  0  0  0  0  0
  145.9881  133.9821  150.8594 C   0  0  0  0  0  0  0  0  0  0  0  0
  144.9474  132.8954  151.0243 C   0  0  0  0  0  0  0  0  0  0  0  0
  143.9096  133.5944  151.8942 C   0  0  0  0  0  0  0  0  0  0  0  0
  144.6596  134.4335  152.7678 O   0  0  0  0  0  0  0  0  0  0  0  0
  147.4625  135.0135  154.1765 C   0  0  0  0  0  0  0  0  0  0  0  0
  147.0236  136.1568  154.3214 O   0  0  0  0  0  0  0  0  0  0  0  0
  150.5642  138.7441  155.2616 C   0  0  0  0  0  0  0  0  0  0  0  0
  151.6857  138.6523  154.2633 C   0  0  0  0  0  0  0  0  0  0  0  0
  150.0695  139.9638  155.7468 N   0  0  0  0  0  0  0  0  0  0  0  0
  150.5384  141.3164  155.4042 C   0  0  1  0  0  0  0  0  0  0  0  0
  149.4328  142.1333  154.7045 C   0  0  0  0  0  0  0  0  0  0  0  0
  151.2472  141.9998  156.5782 C   0  0  0  0  0  0  0  0  0  0  0  0
  151.4572  143.3969  156.5346 C   0  0  0  0  0  0  0  0  0  0  0  0
  152.0947  144.0614  157.5998 C   0  0  0  0  0  0  0  0  0  0  0  0
  152.5254  143.3354  158.7254 C   0  0  0  0  0  0  0  0  0  0  0  0
  152.3148  141.9454  158.7844 C   0  0  0  0  0  0  0  0  0  0  0  0
  151.6765  141.2806  157.7193 C   0  0  0  0  0  0  0  0  0  0  0  0
  147.5053  140.3130  158.0060 H   0  0  0  0  0  0  0  0  0  0  0  0
  147.7458  141.4071  156.6490 H   0  0  0  0  0  0  0  0  0  0  0  0
  148.9161  141.3647  157.9765 H   0  0  0  0  0  0  0  0  0  0  0  0
  148.1642  137.8356  157.3371 H   0  0  0  0  0  0  0  0  0  0  0  0
  149.3106  134.6844  156.9050 H   0  0  0  0  0  0  0  0  0  0  0  0
  148.1330  135.8957  156.5090 H   0  0  0  0  0  0  0  0  0  0  0  0
  147.1752  132.2956  152.1621 H   0  0  0  0  0  0  0  0  0  0  0  0
  146.0599  135.7815  152.1451 H   0  0  0  0  0  0  0  0  0  0  0  0
  145.6900  134.6806  150.0766 H   0  0  0  0  0  0  0  0  0  0  0  0
  146.9896  133.6104  150.6392 H   0  0  0  0  0  0  0  0  0  0  0  0
  144.5412  132.5438  150.0758 H   0  0  0  0  0  0  0  0  0  0  0  0
  145.3724  132.0412  151.5527 H   0  0  0  0  0  0  0  0  0  0  0  0
  143.2585  134.2184  151.2804 H   0  0  0  0  0  0  0  0  0  0  0  0
  143.2851  132.8943  152.4494 H   0  0  0  0  0  0  0  0  0  0  0  0
  151.4033  138.0122  153.4276 H   0  0  0  0  0  0  0  0  0  0  0  0
  152.5750  138.2252  154.7267 H   0  0  0  0  0  0  0  0  0  0  0  0
  151.9700  139.6073  153.8340 H   0  0  0  0  0  0  0  0  0  0  0  0
  151.3262  141.2245  154.6596 H   0  0  0  0  0  0  0  0  0  0  0  0
  149.8267  143.0695  154.3086 H   0  0  0  0  0  0  0  0  0  0  0  0
  148.6025  142.3760  155.3658 H   0  0  0  0  0  0  0  0  0  0  0  0
  149.0226  141.5777  153.8606 H   0  0  0  0  0  0  0  0  0  0  0  0
  151.1290  143.9673  155.6780 H   0  0  0  0  0  0  0  0  0  0  0  0
  152.2525  145.1287  157.5529 H   0  0  0  0  0  0  0  0  0  0  0  0
  153.0145  143.8442  159.5429 H   0  0  0  0  0  0  0  0  0  0  0  0
  152.6427  141.3869  159.6488 H   0  0  0  0  0  0  0  0  0  0  0  0
  151.5297  140.2142  157.7956 H   0  0  0  0  0  0  0  0  0  0  0  0
  1  2  1  0  0  0  0
  1 33  1  0  0  0  0
  1 34  1  0  0  0  0
  1 35  1  0  0  0  0
  2 24  1  0  0  0  0
  2  3  2  0  0  0  0
  3  4  1  0  0  0  0
  3 36  1  0  0  0  0
  4  5  1  0  0  0  0
  4 22  2  0  0  0  0
  5  6  2  0  0  0  0
  5  7  1  0  0  0  0
  7  8  1  0  0  0  0
  7 37  1  0  0  0  0
  7 38  1  0  0  0  0
  8 20  1  0  0  0  0
  8  9  1  0  0  0  0
  9 10  2  0  0  0  0
  9 11  1  0  0  0  0
 11 12  1  0  0  0  0
 11 13  2  0  0  0  0
 13 14  1  0  0  0  0
 13 39  1  0  0  0  0
 14 15  1  0  0  0  0
 14 20  1  0  0  0  0
 15 19  1  0  0  0  0
 15 16  1  0  0  0  0
 15 40  1  0  0  0  0
 16 17  1  0  0  0  0
 16 41  1  0  0  0  0
 16 42  1  0  0  0  0
 17 18  1  0  0  0  0
 17 43  1  0  0  0  0
 17 44  1  0  0  0  0
 18 19  1  0  0  0  0
 18 45  1  0  0  0  0
 18 46  1  0  0  0  0
 20 21  2  0  0  0  0
 22 23  1  0  0  0  0
 22 24  1  0  0  0  0
 23 47  1  0  0  0  0
 23 48  1  0  0  0  0
 23 49  1  0  0  0  0
 24 25  1  0  0  0  0
 25 26  1  0  0  0  0
 25 27  1  0  0  0  0
 25 50  1  0  0  0  0
 26 51  1  0  0  0  0
 26 52  1  0  0  0  0
 26 53  1  0  0  0  0
 27 32  1  0  0  0  0
 27 28  2  0  0  0  0
 28 29  1  0  0  0  0
 28 54  1  0  0  0  0
 29 30  2  0  0  0  0
 29 55  1  0  0  0  0
 30 31  1  0  0  0  0
 30 56  1  0  0  0  0
 31 32  2  0  0  0  0
 31 57  1  0  0  0  0
 32 58  1  0  0  0  0
M  END
> <s_m_source_file>
AV-unprocessed.smi

> <i_m_source_file_index>
26

> <i_lp_mmshare_version>
43012

> <i_f3d_flags>
0

> <s_epik_input>
W2NIXTFbY0hdW2NIXVtjSF1bY0hdYzFbQ0BASF0oW0NIM10pbjJjKFtDSDNdKWMoW2NIXWMyW0NIM10pQyg9TylbQ0gyXW4zYyg9TyljKEYpW2NIXW4oYzM9TylbQ0BASF00W0NIMl1bQ0gyXVtDSDJdTzQ=

> <s_epik_cmdline>
J2VwaWtfcHl0aG9uJywgJy1waCcsICc3LjAnLCAnLXRuJywgJzgnLCAnLW1hJywgJzIwMCcsICctbWV0YWxfYmluZGluZycsICctaW1hZScsICc8aW5maWxlLm1hZT4nLCAnLW9tYWUnLCAnPG91dGZpbGUubWFlPic=

> <r_lp_tautomer_probability>
1

> <r_epik_Ionization_Penalty>
5.02402e-09

> <r_epik_Ionization_Penalty_Charging>
5.01743e-09

> <r_epik_Ionization_Penalty_Neutral>
6.58831e-12

> <r_epik_State_Penalty>
-0

> <r_epik_Charging_Adjusted_Penalty>
5.01743e-09

> <i_epik_Tot_Q>
0

> <i_epik_Tot_abs_Q>
0

> <r_epik_Metal_State_Penalty>
-0

> <b_epik_Metal_Only>
0

> <s_epik_Chemistry_Notes>
This compound contains an acetal/aminal-like group ( X-CH(R)-Y where X, Y are N, S, or O) that may be acid/base labile, releasing an aldehyde.

> <s_lp_Force_Field>
OPLS_2005

> <r_lp_Energy>
50.594

> <b_lp_Chiralities_Consistent>
1

> <s_lp_Variant>
AV-unprocessed.smi:26-4

> <Gold.Version>
5.8.1

> <Gold.Id.Protein>
6NUR|6NUR_protein|mol2

> <Gold.PLP.Fitness>
52.8654

> <Gold.PLP.PLP>
-50.1659

> <Gold.PLP.part.hbond>
-1.0000

> <Gold.PLP.part.metal>
0.0000

> <Gold.PLP.part.buried>
-2.8477

> <Gold.PLP.part.nonpolar>
-44.6570

> <Gold.PLP.part.repulsive>
0.7592

> <Gold.PLP.ligand.clash>
0.0000

> <Gold.PLP.ligand.torsion>
1.8224

> <Gold.PLP.Chemscore.Hbond>
1.0000

> <Gold.PLP.Chemscore.CHOScore>
1.0000

> <Gold.PLP.Chemscore.Metal>
0.0000

> <Gold.Chemscore.Hbonds>
donor molecule, donor type, donor heavy atom, donor atom, acceptor molecule, acceptor atom, score
      P1  H 10752 10763       L1     6  1.00

> <Gold.PLP.Chemscore.Internal.Correction>
0.3444

> <Gold.Rescore>
     Score         DG    S(hbond)    S(metal)    S(lipo)     H(rot)  DE(clash)    DE(int)     intcor
     15.00     -18.10       0.96        0.00     120.60       1.84       0.53       2.58       ----

> <Gold.Chemscore.Fitness>
14.9964

> <Gold.Chemscore.DG>
-18.1039

> <Gold.Chemscore.ZeroCoef>
-5.4800

> <Gold.Chemscore.Hbond>
0.9621

> <Gold.Chemscore.Metal>
0.0000

> <Gold.Chemscore.Lipo>
120.6010

> <Gold.Chemscore.Internal_Hbond>
0.0000

> <Gold.Chemscore.DEClash>
0.5260

> <Gold.Chemscore.DEInternal>
2.5815

> <Gold.Chemscore.Rot>
1.8359

> <Gold.Chemscore.Internal.Correction>
   9.000000E+99

> <Gold.Chemscore.Hbonds>
donor molecule, donor type, donor heavy atom, donor atom, acceptor molecule, acceptor atom, score
      P1  H 10752 10763       L1     6  0.98

> <Gold.Chemscore.Hbond.Weighted>
-3.2136

> <Gold.Chemscore.Metal.Weighted>
-0.0000

> <Gold.Chemscore.Lipo.Weighted>
-14.1103

> <Gold.Chemscore.Internal_Hbond.Weighted>
0.0000

> <Gold.Chemscore.DEClash.Weighted>
0.5260

> <Gold.Chemscore.DEInternal.Weighted>
2.5815

> <Gold.Chemscore.Rot.Weighted>
4.7000

> <Gold.Chemscore.Internal.Correction.Weighted>
   9.000000E+99

> <Gold.Protein.RotatedTorsions>
[ 6907 6896 6895 6894 ] final -129.76 input  -60.11 | X-H torsion
[ 7974 7965 7964 7962 ] final  117.44 input  175.53 | X-H torsion
[ 8008 7997 7996 7995 ] final   68.23 input   59.86 | X-H torsion
[ 10167 10162 10161 10158 ] final -168.76 input  -65.29 | X-H torsion
[ 10718 10713 10712 10709 ] final  125.47 input   66.30 | X-H torsion
[ 10763 10752 10751 10750 ] final   76.67 input  -60.55 | X-H torsion
[ 11005 11000 10999 10996 ] final  -34.10 input  -57.11 | X-H torsion

> <Gold.Protein.ActiveResidues>
 VAL166  LYS551  ARG553  GLY616  TRP617  ASP618  TYR619  PRO620  LYS621  CYS622 
 ASP623  PHE694  ASN695  SER759  ASP760  ASP761  ALA762  ILE779  LEU786  VAL792 
 PHE793  MET794  SER795  GLU796  ALA797  LYS798  CYS799  TRP800  GLU811  SER814 

> <Gold.Protein.RotatedAtoms>
  150.9323  133.6752  159.2807 H   0  0  0  0  0  0  0  0  0  0  0  0  # atno 6907 bound_to 6896
  151.4170  135.0991  159.9612 H   0  0  0  0  0  0  0  0  0  0  0  0  # atno 6908 bound_to 6896
  152.5031  133.8783  159.7388 H   0  0  0  0  0  0  0  0  0  0  0  0  # atno 6909 bound_to 6896
  145.1674  139.3121  143.4486 H   0  0  0  0  0  0  0  0  0  0  0  0  # atno 7974 bound_to 7965
  155.7051  140.3495  155.4949 H   0  0  0  0  0  0  0  0  0  0  0  0  # atno 8008 bound_to 7997
  155.9406  140.1101  157.1081 H   0  0  0  0  0  0  0  0  0  0  0  0  # atno 8009 bound_to 7997
  154.4102  140.1213  156.4908 H   0  0  0  0  0  0  0  0  0  0  0  0  # atno 8010 bound_to 7997
  139.5965  144.1101  152.1695 H   0  0  0  0  0  0  0  0  0  0  0  0  # atno 10167 bound_to 10162
  157.5500  131.1094  150.8717 H   0  0  0  0  0  0  0  0  0  0  0  0  # atno 10718 bound_to 10713
  153.0742  135.4943  154.8370 H   0  0  0  0  0  0  0  0  0  0  0  0  # atno 10763 bound_to 10752
  154.7065  135.3011  154.9265 H   0  0  0  0  0  0  0  0  0  0  0  0  # atno 10764 bound_to 10752
  153.9972  135.6771  153.4810 H   0  0  0  0  0  0  0  0  0  0  0  0  # atno 10765 bound_to 10752
  140.9688  133.7121  156.1490 H   0  0  0  0  0  0  0  0  0  0  0  0  # atno 11005 bound_to 11000
  146.3474  140.1806  142.8589 LP  0  0  0  0  0  0  0  0  0  0  0  0  # atno 17320 bound_to 7965
  145.0268  140.8839  143.5133 LP  0  0  0  0  0  0  0  0  0  0  0  0  # atno 17321 bound_to 7965
  140.0687  144.5797  150.7208 LP  0  0  0  0  0  0  0  0  0  0  0  0  # atno 17342 bound_to 10162
  140.7216  143.2594  151.4260 LP  0  0  0  0  0  0  0  0  0  0  0  0  # atno 17343 bound_to 10162
  156.9245  130.5327  149.5279 LP  0  0  0  0  0  0  0  0  0  0  0  0  # atno 17370 bound_to 10713
  156.0569  130.5629  150.9110 LP  0  0  0  0  0  0  0  0  0  0  0  0  # atno 17371 bound_to 10713
  140.7359  134.4203  157.5560 LP  0  0  0  0  0  0  0  0  0  0  0  0  # atno 17394 bound_to 11000
  139.8904  134.8804  156.2369 LP  0  0  0  0  0  0  0  0  0  0  0  0  # atno 17395 bound_to 11000

$$$$
