AV-unprocessed.smi:1474|AV-procd|sdf|5974|dock9
  -GOLD-   22720 6 63D 1   1.00000     0.00000
 Structure written by MMmdl.
 43 44  0  0  0  0  0  0  0  0  1 V2000
  154.0443  139.3802  159.9091 C   0  0  0  0  0  0  0  0  0  0  0  0
  154.2245  139.0796  158.5364 O   0  0  0  0  0  0  0  0  0  0  0  0
  153.3580  138.0512  158.0876 C   0  0  0  0  0  0  0  0  0  0  0  0
  153.6460  137.7637  156.6119 C   0  0  0  0  0  0  0  0  0  0  0  0
  153.0745  138.8032  155.8235 O   0  0  0  0  0  0  0  0  0  0  0  0
  151.7312  138.7330  155.5155 C   0  0  0  0  0  0  0  0  0  0  0  0
  150.9548  137.7207  156.1159 C   0  0  0  0  0  0  0  0  0  0  0  0
  149.5867  137.6345  155.7948 C   0  0  0  0  0  0  0  0  0  0  0  0
  149.0402  138.5663  154.8894 C   0  0  0  0  0  0  0  0  0  0  0  0
  147.5779  138.4971  154.4887 C   0  0  0  0  0  0  0  0  0  0  0  0
  147.2817  137.3232  153.6766 N   0  0  0  0  0  0  0  0  0  0  0  0
  146.1040  136.6790  153.6629 C   0  0  0  0  0  0  0  0  0  0  0  0
  145.1633  136.9899  154.3942 O   0  0  0  0  0  0  0  0  0  0  0  0
  145.9773  135.5072  152.6711 C   0  0  2  0  0  0  0  0  0  0  0  0
  145.0632  135.8556  151.4817 C   0  0  0  0  0  0  0  0  0  0  0  0
  143.5778  135.9676  151.8745 C   0  0  0  0  0  0  0  0  0  0  0  0
  143.1039  134.8520  152.8179 C   0  0  0  0  0  0  0  0  0  0  0  0
  141.8998  134.6535  152.9608 O   0  0  0  0  0  0  0  0  0  0  0  0
  144.0186  134.1422  153.5018 N   0  0  0  0  0  0  0  0  0  0  0  0
  145.4724  134.2061  153.3358 C   0  0  0  0  0  0  0  0  0  0  0  0
  149.8957  139.5468  154.3452 C   0  0  0  0  0  0  0  0  0  0  0  0
  151.2088  139.6337  154.6459 N   0  0  0  0  0  0  0  0  0  0  0  0
  154.7353  140.1694  160.2052 H   0  0  0  0  0  0  0  0  0  0  0  0
  154.2423  138.5082  160.5336 H   0  0  0  0  0  0  0  0  0  0  0  0
  153.0300  139.7294  160.1063 H   0  0  0  0  0  0  0  0  0  0  0  0
  153.5132  137.1478  158.6798 H   0  0  0  0  0  0  0  0  0  0  0  0
  152.3173  138.3543  158.2129 H   0  0  0  0  0  0  0  0  0  0  0  0
  154.7238  137.7110  156.4502 H   0  0  0  0  0  0  0  0  0  0  0  0
  153.2142  136.7999  156.3366 H   0  0  0  0  0  0  0  0  0  0  0  0
  151.4023  137.0190  156.8043 H   0  0  0  0  0  0  0  0  0  0  0  0
  148.9702  136.8632  156.2324 H   0  0  0  0  0  0  0  0  0  0  0  0
  146.9671  138.4552  155.3909 H   0  0  0  0  0  0  0  0  0  0  0  0
  147.2858  139.4073  153.9618 H   0  0  0  0  0  0  0  0  0  0  0  0
  148.0089  137.0007  153.0546 H   0  0  0  0  0  0  0  0  0  0  0  0
  146.9783  135.3093  152.2838 H   0  0  0  0  0  0  0  0  0  0  0  0
  145.3888  136.7873  151.0168 H   0  0  0  0  0  0  0  0  0  0  0  0
  145.1713  135.0881  150.7142 H   0  0  0  0  0  0  0  0  0  0  0  0
  143.3992  136.9200  152.3747 H   0  0  0  0  0  0  0  0  0  0  0  0
  142.9569  135.9718  150.9780 H   0  0  0  0  0  0  0  0  0  0  0  0
  143.6726  133.4470  154.1474 H   0  0  0  0  0  0  0  0  0  0  0  0
  145.7699  133.3514  152.7274 H   0  0  0  0  0  0  0  0  0  0  0  0
  145.9424  134.0613  154.3095 H   0  0  0  0  0  0  0  0  0  0  0  0
  149.5207  140.2742  153.6406 H   0  0  0  0  0  0  0  0  0  0  0  0
  1  2  1  0  0  0  0
  1 23  1  0  0  0  0
  1 24  1  0  0  0  0
  1 25  1  0  0  0  0
  2  3  1  0  0  0  0
  3  4  1  0  0  0  0
  3 26  1  0  0  0  0
  3 27  1  0  0  0  0
  4  5  1  0  0  0  0
  4 28  1  0  0  0  0
  4 29  1  0  0  0  0
  5  6  1  0  0  0  0
  6 22  1  0  0  0  0
  6  7  2  0  0  0  0
  7  8  1  0  0  0  0
  7 30  1  0  0  0  0
  8  9  2  0  0  0  0
  8 31  1  0  0  0  0
  9 10  1  0  0  0  0
  9 21  1  0  0  0  0
 10 11  1  0  0  0  0
 10 32  1  0  0  0  0
 10 33  1  0  0  0  0
 11 12  1  0  0  0  0
 11 34  1  0  0  0  0
 12 13  2  0  0  0  0
 12 14  1  0  0  0  0
 14 20  1  0  0  0  0
 14 15  1  0  0  0  0
 14 35  1  0  0  0  0
 15 16  1  0  0  0  0
 15 36  1  0  0  0  0
 15 37  1  0  0  0  0
 16 17  1  0  0  0  0
 16 38  1  0  0  0  0
 16 39  1  0  0  0  0
 17 18  2  0  0  0  0
 17 19  1  0  0  0  0
 19 20  1  0  0  0  0
 19 40  1  0  0  0  0
 20 41  1  0  0  0  0
 20 42  1  0  0  0  0
 21 22  2  0  0  0  0
 21 43  1  0  0  0  0
M  END
> <s_m_source_file>
AV-unprocessed.smi

> <i_m_source_file_index>
1474

> <i_lp_mmshare_version>
43012

> <i_f3d_flags>
0

> <s_epik_input>
W0NIM11PW0NIMl1bQ0gyXU9jMVtjSF1bY0hdYyhbY0hdbjEpW0NIMl1bTkhdQyg9TylbQ0BASF0yW0NIMl1bQ0gyXUMoPU8pW05IXVtDSDJdMg==

> <s_epik_cmdline>
J2VwaWtfcHl0aG9uJywgJy1waCcsICc3LjAnLCAnLXRuJywgJzgnLCAnLW1hJywgJzIwMCcsICctbWV0YWxfYmluZGluZycsICctaW1hZScsICc8aW5maWxlLm1hZT4nLCAnLW9tYWUnLCAnPG91dGZpbGUubWFlPic=

> <r_lp_tautomer_probability>
1

> <r_epik_Ionization_Penalty>
6.19599e-05

> <r_epik_Ionization_Penalty_Charging>
0

> <r_epik_Ionization_Penalty_Neutral>
6.19599e-05

> <r_epik_State_Penalty>
-0

> <r_epik_Charging_Adjusted_Penalty>
0

> <i_epik_Tot_Q>
0

> <i_epik_Tot_abs_Q>
0

> <r_epik_Metal_State_Penalty>
-0

> <b_epik_Metal_Only>
0

> <s_lp_Force_Field>
OPLS_2005

> <r_lp_Energy>
10.5341

> <b_lp_Chiralities_Consistent>
1

> <s_lp_Variant>
AV-unprocessed.smi:1474-1

> <Gold.Version>
5.8.1

> <Gold.Id.Protein>
6NUR|6NUR_protein|mol2

> <Gold.PLP.Fitness>
40.3666

> <Gold.PLP.PLP>
-25.0336

> <Gold.PLP.part.hbond>
-5.0000

> <Gold.PLP.part.metal>
0.0000

> <Gold.PLP.part.buried>
-3.8775

> <Gold.PLP.part.nonpolar>
-16.4602

> <Gold.PLP.part.repulsive>
0.3869

> <Gold.PLP.ligand.clash>
0.4777

> <Gold.PLP.ligand.torsion>
0.6949

> <Gold.PLP.Chemscore.Hbond>
4.7280

> <Gold.PLP.Chemscore.CHOScore>
0.9651

> <Gold.PLP.Chemscore.Metal>
0.0000

> <Gold.Chemscore.Hbonds>
donor molecule, donor type, donor heavy atom, donor atom, acceptor molecule, acceptor atom, score
      L1  H    11    34       P1  7948  1.00
      L1  H    19    40       P1 10957  0.93
      P1  H  7989  7998       L1    22  0.90
      P1  H  7997  8008       L1     5  0.72
      P1  H  7997  8010       L1     2  1.00
      L1  C    21    43       P1  7957  0.90

> <Gold.PLP.Chemscore.Internal.Correction>
0.1210

> <Gold.Rescore>
     Score         DG    S(hbond)    S(metal)    S(lipo)     H(rot)  DE(clash)    DE(int)     intcor
     16.27     -17.03       3.62        0.00      50.40       2.52       0.01       0.75       ----

> <Gold.Chemscore.Fitness>
16.2686

> <Gold.Chemscore.DG>
-17.0318

> <Gold.Chemscore.ZeroCoef>
-5.4800

> <Gold.Chemscore.Hbond>
3.6246

> <Gold.Chemscore.Metal>
0.0000

> <Gold.Chemscore.Lipo>
50.4021

> <Gold.Chemscore.Internal_Hbond>
0.0000

> <Gold.Chemscore.DEClash>
0.0106

> <Gold.Chemscore.DEInternal>
0.7525

> <Gold.Chemscore.Rot>
2.5201

> <Gold.Chemscore.Internal.Correction>
   9.000000E+99

> <Gold.Chemscore.Hbonds>
donor molecule, donor type, donor heavy atom, donor atom, acceptor molecule, acceptor atom, score
      L1  H    11    34       P1  7948  1.00
      L1  H    19    40       P1 10957  0.88
      P1  H  7989  7998       L1    22  0.18
      P1  H  7997  8008       L1     5  0.27
      P1  H  7997  8010       L1     2  0.93

> <Gold.Chemscore.Hbond.Weighted>
-12.1061

> <Gold.Chemscore.Metal.Weighted>
-0.0000

> <Gold.Chemscore.Lipo.Weighted>
-5.8970

> <Gold.Chemscore.Internal_Hbond.Weighted>
0.0000

> <Gold.Chemscore.DEClash.Weighted>
0.0106

> <Gold.Chemscore.DEInternal.Weighted>
0.7525

> <Gold.Chemscore.Rot.Weighted>
6.4514

> <Gold.Chemscore.Internal.Correction.Weighted>
   9.000000E+99

> <Gold.Protein.RotatedTorsions>
[ 6907 6896 6895 6894 ] final   12.92 input  -60.11 | X-H torsion
[ 7974 7965 7964 7962 ] final  159.10 input  175.53 | X-H torsion
[ 8008 7997 7996 7995 ] final   -6.57 input   59.86 | X-H torsion
[ 10167 10162 10161 10158 ] final   80.90 input  -65.29 | X-H torsion
[ 10718 10713 10712 10709 ] final  154.58 input   66.30 | X-H torsion
[ 10763 10752 10751 10750 ] final   43.74 input  -60.55 | X-H torsion
[ 11005 11000 10999 10996 ] final  126.57 input  -57.11 | X-H torsion

> <Gold.Protein.ActiveResidues>
 VAL166  LYS551  ARG553  GLY616  TRP617  ASP618  TYR619  PRO620  LYS621  CYS622 
 ASP623  PHE694  ASN695  SER759  ASP760  ASP761  ALA762  ILE779  LEU786  VAL792 
 PHE793  MET794  SER795  GLU796  ALA797  LYS798  CYS799  TRP800  GLU811  SER814 

> <Gold.Protein.RotatedAtoms>
  151.7781  135.0769  160.0369 H   0  0  0  0  0  0  0  0  0  0  0  0  # atno 6907 bound_to 6896
  152.3242  133.5882  159.5774 H   0  0  0  0  0  0  0  0  0  0  0  0  # atno 6908 bound_to 6896
  150.7386  133.9881  159.3640 H   0  0  0  0  0  0  0  0  0  0  0  0  # atno 6909 bound_to 6896
  144.7809  139.7570  143.6260 H   0  0  0  0  0  0  0  0  0  0  0  0  # atno 7974 bound_to 7965
  154.5924  140.2429  155.7903 H   0  0  0  0  0  0  0  0  0  0  0  0  # atno 8008 bound_to 7997
  156.2256  140.2983  156.0013 H   0  0  0  0  0  0  0  0  0  0  0  0  # atno 8009 bound_to 7997
  155.2351  140.0405  157.2958 H   0  0  0  0  0  0  0  0  0  0  0  0  # atno 8010 bound_to 7997
  139.9449  144.6065  150.8216 H   0  0  0  0  0  0  0  0  0  0  0  0  # atno 10167 bound_to 10162
  157.2297  131.0736  151.1860 H   0  0  0  0  0  0  0  0  0  0  0  0  # atno 10718 bound_to 10713
  152.9854  135.6092  154.3161 H   0  0  0  0  0  0  0  0  0  0  0  0  # atno 10763 bound_to 10752
  154.2874  135.2775  155.2672 H   0  0  0  0  0  0  0  0  0  0  0  0  # atno 10764 bound_to 10752
  154.4983  135.5873  153.6568 H   0  0  0  0  0  0  0  0  0  0  0  0  # atno 10765 bound_to 10752
  139.9463  134.9629  156.8727 H   0  0  0  0  0  0  0  0  0  0  0  0  # atno 11005 bound_to 11000
  146.2016  139.5314  142.9739 LP  0  0  0  0  0  0  0  0  0  0  0  0  # atno 17320 bound_to 7965
  145.6054  141.0348  143.1996 LP  0  0  0  0  0  0  0  0  0  0  0  0  # atno 17321 bound_to 7965
  140.7600  143.3141  151.2774 LP  0  0  0  0  0  0  0  0  0  0  0  0  # atno 17342 bound_to 10162
  139.6674  144.0080  152.2732 LP  0  0  0  0  0  0  0  0  0  0  0  0  # atno 17343 bound_to 10162
  157.3490  130.7072  149.6429 LP  0  0  0  0  0  0  0  0  0  0  0  0  # atno 17370 bound_to 10713
  155.9676  130.4258  150.4669 LP  0  0  0  0  0  0  0  0  0  0  0  0  # atno 17371 bound_to 10713
  140.5827  134.0337  155.7470 LP  0  0  0  0  0  0  0  0  0  0  0  0  # atno 17394 bound_to 11000
  141.1114  133.9610  157.2903 LP  0  0  0  0  0  0  0  0  0  0  0  0  # atno 17395 bound_to 11000

$$$$
