AV-unprocessed.smi:2731|AV-procd|sdf|10531|dock8
  -GOLD-   2272014573D 1   1.00000     0.00000
 Structure written by MMmdl.
 46 47  0  0  0  0  0  0  0  0  2 V2000
  150.0516  141.5275  155.5613 C   0  0  0  0  0  0  0  0  0  0  0  0
  150.6013  142.0417  156.8487 C   0  0  0  0  0  0  0  0  0  0  0  0
  150.2449  143.2246  157.4169 N   0  3  0  0  0  0  0  0  0  0  0  0
  150.9246  143.4156  158.5566 N   0  0  0  0  0  0  0  0  0  0  0  0
  150.6875  144.6380  159.3251 C   0  0  0  0  0  0  0  0  0  0  0  0
  151.7568  142.3608  158.7901 C   0  0  0  0  0  0  0  0  0  0  0  0
  152.6755  142.2367  159.9622 C   0  0  0  0  0  0  0  0  0  0  0  0
  151.5607  141.4936  157.7074 C   0  0  0  0  0  0  0  0  0  0  0  0
  152.2855  140.1934  157.4822 C   0  0  0  0  0  0  0  0  0  0  0  0
  151.9272  139.0955  158.5043 C   0  0  0  0  0  0  0  0  0  0  0  0
  150.5435  138.6434  158.3761 N   0  0  0  0  0  0  0  0  0  0  0  0
  150.0024  137.6047  159.0320 C   0  0  0  0  0  0  0  0  0  0  0  0
  150.6447  136.8861  159.7996 O   0  0  0  0  0  0  0  0  0  0  0  0
  148.5066  137.3625  158.7918 C   0  0  0  0  0  0  0  0  0  0  0  0
  147.9747  136.2606  159.6048 N   0  0  0  0  0  0  0  0  0  0  0  0
  147.0946  136.6176  160.7246 C   0  0  0  0  0  0  0  0  0  0  0  0
  147.5335  135.8973  162.0109 C   0  0  0  0  0  0  0  0  0  0  0  0
  147.6808  134.3750  161.8116 C   0  0  0  0  0  0  0  0  0  0  0  0
  147.7022  133.9249  160.3337 C   0  0  0  0  0  0  0  0  0  0  0  0
  148.3204  134.9692  159.3953 C   0  0  0  0  0  0  0  0  0  0  0  0
  149.0815  134.6039  158.4997 O   0  0  0  0  0  0  0  0  0  0  0  0
  150.7796  141.6675  154.7620 H   0  0  0  0  0  0  0  0  0  0  0  0
  149.1367  142.0576  155.2952 H   0  0  0  0  0  0  0  0  0  0  0  0
  149.8241  140.4650  155.6440 H   0  0  0  0  0  0  0  0  0  0  0  0
  150.0039  144.4154  160.1447 H   0  0  0  0  0  0  0  0  0  0  0  0
  150.2534  145.4058  158.6831 H   0  0  0  0  0  0  0  0  0  0  0  0
  151.6338  145.0012  159.7264 H   0  0  0  0  0  0  0  0  0  0  0  0
  153.6965  142.4721  159.6620 H   0  0  0  0  0  0  0  0  0  0  0  0
  152.6538  141.2206  160.3552 H   0  0  0  0  0  0  0  0  0  0  0  0
  152.3831  142.9153  160.7634 H   0  0  0  0  0  0  0  0  0  0  0  0
  152.0804  139.8182  156.4796 H   0  0  0  0  0  0  0  0  0  0  0  0
  153.3624  140.3621  157.5087 H   0  0  0  0  0  0  0  0  0  0  0  0
  152.5813  138.2355  158.3592 H   0  0  0  0  0  0  0  0  0  0  0  0
  152.1190  139.4498  159.5184 H   0  0  0  0  0  0  0  0  0  0  0  0
  149.9478  139.1728  157.7557 H   0  0  0  0  0  0  0  0  0  0  0  0
  147.9530  138.2745  159.0205 H   0  0  0  0  0  0  0  0  0  0  0  0
  148.3462  137.1806  157.7279 H   0  0  0  0  0  0  0  0  0  0  0  0
  147.0965  137.6949  160.8934 H   0  0  0  0  0  0  0  0  0  0  0  0
  146.0695  136.3456  160.4694 H   0  0  0  0  0  0  0  0  0  0  0  0
  148.4954  136.3067  162.3235 H   0  0  0  0  0  0  0  0  0  0  0  0
  146.8374  136.1078  162.8231 H   0  0  0  0  0  0  0  0  0  0  0  0
  148.5874  134.0343  162.3130 H   0  0  0  0  0  0  0  0  0  0  0  0
  146.8577  133.8665  162.3145 H   0  0  0  0  0  0  0  0  0  0  0  0
  148.2245  132.9724  160.2366 H   0  0  0  0  0  0  0  0  0  0  0  0
  146.6807  133.7514  159.9928 H   0  0  0  0  0  0  0  0  0  0  0  0
  149.5793  143.9101  157.0830 H   0  0  0  0  0  0  0  0  0  0  0  0
  1  2  1  0  0  0  0
  1 22  1  0  0  0  0
  1 23  1  0  0  0  0
  1 24  1  0  0  0  0
  2  8  1  0  0  0  0
  2  3  2  0  0  0  0
  3  4  1  0  0  0  0
  3 46  1  0  0  0  0
  4  5  1  0  0  0  0
  4  6  1  0  0  0  0
  5 25  1  0  0  0  0
  5 26  1  0  0  0  0
  5 27  1  0  0  0  0
  6  7  1  0  0  0  0
  6  8  2  0  0  0  0
  7 28  1  0  0  0  0
  7 29  1  0  0  0  0
  7 30  1  0  0  0  0
  8  9  1  0  0  0  0
  9 10  1  0  0  0  0
  9 31  1  0  0  0  0
  9 32  1  0  0  0  0
 10 11  1  0  0  0  0
 10 33  1  0  0  0  0
 10 34  1  0  0  0  0
 11 12  1  0  0  0  0
 11 35  1  0  0  0  0
 12 13  2  0  0  0  0
 12 14  1  0  0  0  0
 14 15  1  0  0  0  0
 14 36  1  0  0  0  0
 14 37  1  0  0  0  0
 15 20  1  0  0  0  0
 15 16  1  0  0  0  0
 16 17  1  0  0  0  0
 16 38  1  0  0  0  0
 16 39  1  0  0  0  0
 17 18  1  0  0  0  0
 17 40  1  0  0  0  0
 17 41  1  0  0  0  0
 18 19  1  0  0  0  0
 18 42  1  0  0  0  0
 18 43  1  0  0  0  0
 19 20  1  0  0  0  0
 19 44  1  0  0  0  0
 19 45  1  0  0  0  0
 20 21  2  0  0  0  0
M  CHG  1   3   1
M  END
> <s_m_source_file>
AV-unprocessed.smi

> <i_m_source_file_index>
2731

> <i_lp_mmshare_version>
43012

> <i_f3d_flags>
0

> <s_epik_input>
W0NIM11jMW5uKFtDSDNdKWMoW0NIM10pYzFbQ0gyXVtDSDJdW05IXUMoPU8pW0NIMl1OMltDSDJdW0NIMl1bQ0gyXVtDSDJdQzI9Tw==

> <s_epik_cmdline>
J2VwaWtfcHl0aG9uJywgJy1waCcsICc3LjAnLCAnLXRuJywgJzgnLCAnLW1hJywgJzIwMCcsICctbWV0YWxfYmluZGluZycsICctaW1hZScsICc8aW5maWxlLm1hZT4nLCAnLW9tYWUnLCAnPG91dGZpbGUubWFlPic=

> <r_lp_tautomer_probability>
1

> <r_epik_Ionization_Penalty>
2.35701

> <r_epik_Ionization_Penalty_Charging>
2.357

> <r_epik_Ionization_Penalty_Neutral>
2.49505e-07

> <r_epik_State_Penalty>
2.51177

> <r_epik_Charging_Adjusted_Penalty>
4.86877

> <i_epik_Tot_Q>
1

> <i_epik_Tot_abs_Q>
1

> <r_epik_Metal_State_Penalty>
2.52284

> <b_epik_Metal_Only>
0

> <s_lp_Force_Field>
OPLS_2005

> <r_lp_Energy>
19.064

> <b_lp_Chiralities_Consistent>
1

> <s_lp_Variant>
AV-unprocessed.smi:2731-2

> <Gold.Version>
5.8.1

> <Gold.Id.Protein>
6NUR|6NUR_protein|mol2

> <Gold.PLP.Fitness>
49.8888

> <Gold.PLP.PLP>
-39.2484

> <Gold.PLP.part.hbond>
-3.0000

> <Gold.PLP.part.metal>
0.0000

> <Gold.PLP.part.buried>
-1.7180

> <Gold.PLP.part.nonpolar>
-32.4924

> <Gold.PLP.part.repulsive>
0.1289

> <Gold.PLP.ligand.clash>
0.0000

> <Gold.PLP.ligand.torsion>
0.2129

> <Gold.PLP.Chemscore.Hbond>
3.6800

> <Gold.PLP.Chemscore.CHOScore>
0.0000

> <Gold.PLP.Chemscore.Metal>
0.0000

> <Gold.Chemscore.Hbonds>
donor molecule, donor type, donor heavy atom, donor atom, acceptor molecule, acceptor atom, score
      L1  H     3    46       P1  8028  1.89
      P1  H  6896  6907       L1    21  0.96
      P1  H  6896  6908       L1    13  0.76

> <Gold.PLP.Chemscore.Internal.Correction>
0.0262

> <Gold.Rescore>
     Score         DG    S(hbond)    S(metal)    S(lipo)     H(rot)  DE(clash)    DE(int)     intcor
     19.06     -20.55       2.54        0.00      96.76       1.85       1.14       0.34       ----

> <Gold.Chemscore.Fitness>
19.0629

> <Gold.Chemscore.DG>
-20.5457

> <Gold.Chemscore.ZeroCoef>
-5.4800

> <Gold.Chemscore.Hbond>
2.5392

> <Gold.Chemscore.Metal>
0.0000

> <Gold.Chemscore.Lipo>
96.7610

> <Gold.Chemscore.Internal_Hbond>
0.0000

> <Gold.Chemscore.DEClash>
1.1439

> <Gold.Chemscore.DEInternal>
0.3389

> <Gold.Chemscore.Rot>
1.8501

> <Gold.Chemscore.Internal.Correction>
   9.000000E+99

> <Gold.Chemscore.Hbonds>
donor molecule, donor type, donor heavy atom, donor atom, acceptor molecule, acceptor atom, score
      L1  H     3    46       P1  8028  0.68
      P1  H  6896  6907       L1    21  0.60
      P1  H  6896  6908       L1    13  0.73

> <Gold.Chemscore.Hbond.Weighted>
-8.4809

> <Gold.Chemscore.Metal.Weighted>
-0.0000

> <Gold.Chemscore.Lipo.Weighted>
-11.3210

> <Gold.Chemscore.Internal_Hbond.Weighted>
0.0000

> <Gold.Chemscore.DEClash.Weighted>
1.1439

> <Gold.Chemscore.DEInternal.Weighted>
0.3389

> <Gold.Chemscore.Rot.Weighted>
4.7362

> <Gold.Chemscore.Internal.Correction.Weighted>
   9.000000E+99

> <Gold.Protein.RotatedTorsions>
[ 6907 6896 6895 6894 ] final -111.52 input  -60.11 | X-H torsion
[ 7974 7965 7964 7962 ] final   74.17 input  175.53 | X-H torsion
[ 8008 7997 7996 7995 ] final  109.25 input   59.86 | X-H torsion
[ 10167 10162 10161 10158 ] final  -62.56 input  -65.29 | X-H torsion
[ 10718 10713 10712 10709 ] final  136.26 input   66.30 | X-H torsion
[ 10763 10752 10751 10750 ] final   59.45 input  -60.55 | X-H torsion
[ 11005 11000 10999 10996 ] final -110.06 input  -57.11 | X-H torsion

> <Gold.Protein.ActiveResidues>
 VAL166  LYS551  ARG553  GLY616  TRP617  ASP618  TYR619  PRO620  LYS621  CYS622 
 ASP623  PHE694  ASN695  SER759  ASP760  ASP761  ALA762  ILE779  LEU786  VAL792 
 PHE793  MET794  SER795  GLU796  ALA797  LYS798  CYS799  TRP800  GLU811  SER814 

> <Gold.Protein.RotatedAtoms>
  150.7696  133.9224  159.3401 H   0  0  0  0  0  0  0  0  0  0  0  0  # atno 6907 bound_to 6896
  151.7113  135.0910  160.0277 H   0  0  0  0  0  0  0  0  0  0  0  0  # atno 6908 bound_to 6896
  152.3707  133.6377  159.6121 H   0  0  0  0  0  0  0  0  0  0  0  0  # atno 6909 bound_to 6896
  145.7317  139.2686  143.1537 H   0  0  0  0  0  0  0  0  0  0  0  0  # atno 7974 bound_to 7965
  156.1965  140.3061  155.9437 H   0  0  0  0  0  0  0  0  0  0  0  0  # atno 8008 bound_to 7997
  155.3054  140.0448  157.3049 H   0  0  0  0  0  0  0  0  0  0  0  0  # atno 8009 bound_to 7997
  154.5516  140.2293  155.8485 H   0  0  0  0  0  0  0  0  0  0  0  0  # atno 8010 bound_to 7997
  140.5930  143.2345  151.6097 H   0  0  0  0  0  0  0  0  0  0  0  0  # atno 10167 bound_to 10162
  157.4485  131.1064  151.0061 H   0  0  0  0  0  0  0  0  0  0  0  0  # atno 10718 bound_to 10713
  152.9895  135.5571  154.5715 H   0  0  0  0  0  0  0  0  0  0  0  0  # atno 10763 bound_to 10752
  154.5115  135.2802  155.1341 H   0  0  0  0  0  0  0  0  0  0  0  0  # atno 10764 bound_to 10752
  154.2731  135.6359  153.5371 H   0  0  0  0  0  0  0  0  0  0  0  0  # atno 10765 bound_to 10752
  141.0813  133.9215  157.2283 H   0  0  0  0  0  0  0  0  0  0  0  0  # atno 11005 bound_to 11000
  146.0531  140.8048  142.9771 LP  0  0  0  0  0  0  0  0  0  0  0  0  # atno 17320 bound_to 7965
  144.6891  140.3083  143.7252 LP  0  0  0  0  0  0  0  0  0  0  0  0  # atno 17321 bound_to 7965
  139.5240  144.3116  152.0987 LP  0  0  0  0  0  0  0  0  0  0  0  0  # atno 17342 bound_to 10162
  140.2284  144.4394  150.6311 LP  0  0  0  0  0  0  0  0  0  0  0  0  # atno 17343 bound_to 10162
  157.0900  130.5938  149.5437 LP  0  0  0  0  0  0  0  0  0  0  0  0  # atno 17370 bound_to 10713
  155.9977  130.5049  150.7544 LP  0  0  0  0  0  0  0  0  0  0  0  0  # atno 17371 bound_to 10713
  139.9627  135.0150  156.9304 LP  0  0  0  0  0  0  0  0  0  0  0  0  # atno 17394 bound_to 11000
  140.5463  134.0671  155.7356 LP  0  0  0  0  0  0  0  0  0  0  0  0  # atno 17395 bound_to 11000

$$$$
