AV-unprocessed.smi:679|AV-procd|sdf|3320|dock9
  -GOLD-   22720 0283D 1   1.00000     0.00000
 Structure written by MMmdl.
 41 43  0  0  0  0  0  0  0  0  1 V2000
  151.5756  144.2404  158.2203 C   0  0  0  0  0  0  0  0  0  0  0  0
  151.5159  142.7465  158.5457 C   0  0  0  0  0  0  0  0  0  0  0  0
  150.6031  142.1256  157.6572 O   0  0  0  0  0  0  0  0  0  0  0  0
  150.9140  140.7652  157.4012 C   0  0  1  0  0  0  0  0  0  0  0  0
  150.6446  139.8151  158.5719 C   0  0  0  0  0  0  0  0  0  0  0  0
  150.1723  138.8158  157.5136 C   0  0  1  0  0  0  0  0  0  0  0  0
  149.0389  138.0184  157.9697 N   0  0  0  0  0  0  0  0  0  0  0  0
  149.1395  136.9169  158.7279 C   0  0  0  0  0  0  0  0  0  0  0  0
  150.2158  136.4586  159.1127 O   0  0  0  0  0  0  0  0  0  0  0  0
  147.8256  136.2236  159.0982 C   0  0  0  0  0  0  0  0  0  0  0  0
  147.5181  136.3778  160.5083 N   0  0  0  0  0  0  0  0  0  0  0  0
  148.0053  135.7590  161.5857 C   0  0  0  0  0  0  0  0  0  0  0  0
  147.4519  136.2106  162.7011 N   0  0  0  0  0  0  0  0  0  0  0  0
  146.5671  137.1738  162.2455 N   0  0  0  0  0  0  0  0  0  0  0  0
  146.6024  137.2781  160.9451 N   0  0  0  0  0  0  0  0  0  0  0  0
  149.8101  140.0223  156.6078 C   0  0  0  0  0  0  0  0  0  0  0  0
  148.3934  140.6102  156.6606 C   0  0  0  0  0  0  0  0  0  0  0  0
  148.2694  141.5591  155.4663 C   0  0  0  0  0  0  0  0  0  0  0  0
  149.2889  141.0592  154.4373 C   0  0  0  0  0  0  0  0  0  0  0  0
  150.0217  139.8895  155.1033 C   0  0  0  0  0  0  0  0  0  0  0  0
  152.2684  144.7574  158.8845 H   0  0  0  0  0  0  0  0  0  0  0  0
  150.5952  144.7040  158.3318 H   0  0  0  0  0  0  0  0  0  0  0  0
  151.9089  144.4038  157.1952 H   0  0  0  0  0  0  0  0  0  0  0  0
  152.5064  142.3017  158.4392 H   0  0  0  0  0  0  0  0  0  0  0  0
  151.1981  142.6033  159.5793 H   0  0  0  0  0  0  0  0  0  0  0  0
  151.9052  140.6252  156.9630 H   0  0  0  0  0  0  0  0  0  0  0  0
  151.5327  139.5100  159.1256 H   0  0  0  0  0  0  0  0  0  0  0  0
  149.8510  140.1653  159.2346 H   0  0  0  0  0  0  0  0  0  0  0  0
  151.0020  138.2262  157.1158 H   0  0  0  0  0  0  0  0  0  0  0  0
  148.1185  138.3281  157.6931 H   0  0  0  0  0  0  0  0  0  0  0  0
  146.9972  136.6195  158.5080 H   0  0  0  0  0  0  0  0  0  0  0  0
  147.9040  135.1598  158.8710 H   0  0  0  0  0  0  0  0  0  0  0  0
  148.7607  134.9879  161.5530 H   0  0  0  0  0  0  0  0  0  0  0  0
  147.6477  139.8221  156.5526 H   0  0  0  0  0  0  0  0  0  0  0  0
  148.1773  141.1198  157.6001 H   0  0  0  0  0  0  0  0  0  0  0  0
  147.2544  141.5770  155.0681 H   0  0  0  0  0  0  0  0  0  0  0  0
  148.5211  142.5762  155.7692 H   0  0  0  0  0  0  0  0  0  0  0  0
  148.8097  140.7467  153.5090 H   0  0  0  0  0  0  0  0  0  0  0  0
  149.9904  141.8575  154.1920 H   0  0  0  0  0  0  0  0  0  0  0  0
  151.0771  139.8758  154.8300 H   0  0  0  0  0  0  0  0  0  0  0  0
  149.5965  138.9496  154.7499 H   0  0  0  0  0  0  0  0  0  0  0  0
  1  2  1  0  0  0  0
  1 21  1  0  0  0  0
  1 22  1  0  0  0  0
  1 23  1  0  0  0  0
  2  3  1  0  0  0  0
  2 24  1  0  0  0  0
  2 25  1  0  0  0  0
  3  4  1  0  0  0  0
  4 16  1  0  0  0  0
  4  5  1  0  0  0  0
  4 26  1  0  0  0  0
  5  6  1  0  0  0  0
  5 27  1  0  0  0  0
  5 28  1  0  0  0  0
  6  7  1  0  0  0  0
  6 16  1  0  0  0  0
  6 29  1  0  0  0  0
  7  8  1  0  0  0  0
  7 30  1  0  0  0  0
  8  9  2  0  0  0  0
  8 10  1  0  0  0  0
 10 11  1  0  0  0  0
 10 31  1  0  0  0  0
 10 32  1  0  0  0  0
 11 15  1  0  0  0  0
 11 12  1  0  0  0  0
 12 13  2  0  0  0  0
 12 33  1  0  0  0  0
 13 14  1  0  0  0  0
 14 15  2  0  0  0  0
 16 20  1  0  0  0  0
 16 17  1  0  0  0  0
 17 18  1  0  0  0  0
 17 34  1  0  0  0  0
 17 35  1  0  0  0  0
 18 19  1  0  0  0  0
 18 36  1  0  0  0  0
 18 37  1  0  0  0  0
 19 20  1  0  0  0  0
 19 38  1  0  0  0  0
 19 39  1  0  0  0  0
 20 40  1  0  0  0  0
 20 41  1  0  0  0  0
M  END
> <s_m_source_file>
AV-unprocessed.smi

> <i_m_source_file_index>
679

> <i_lp_mmshare_version>
43012

> <i_f3d_flags>
0

> <s_epik_input>
W0NIMl0xW0NIMl1bQ0gyXVtDSDJdQzEyW0NASF0oT1tDSDJdW0NIM10pW0NIMl1bQ0BIXTJbTkhdQyg9TylbQ0gyXW4zW2NIXW5ubjM=

> <s_epik_cmdline>
J2VwaWtfcHl0aG9uJywgJy1waCcsICc3LjAnLCAnLXRuJywgJzgnLCAnLW1hJywgJzIwMCcsICctbWV0YWxfYmluZGluZycsICctaW1hZScsICc8aW5maWxlLm1hZT4nLCAnLW9tYWUnLCAnPG91dGZpbGUubWFlPic=

> <r_lp_tautomer_probability>
1

> <r_epik_Ionization_Penalty>
7.96741e-07

> <r_epik_Ionization_Penalty_Charging>
0

> <r_epik_Ionization_Penalty_Neutral>
7.96741e-07

> <r_epik_State_Penalty>
-0

> <r_epik_Charging_Adjusted_Penalty>
0

> <i_epik_Tot_Q>
0

> <i_epik_Tot_abs_Q>
0

> <r_epik_Metal_State_Penalty>
-0

> <b_epik_Metal_Only>
0

> <s_lp_Force_Field>
OPLS_2005

> <r_lp_Energy>
38.413

> <b_lp_Chiralities_Consistent>
1

> <s_lp_Variant>
AV-unprocessed.smi:679-2

> <Gold.Version>
5.8.1

> <Gold.Id.Protein>
6NUR|6NUR_protein|mol2

> <Gold.PLP.Fitness>
36.3157

> <Gold.PLP.PLP>
-31.4734

> <Gold.PLP.part.hbond>
-4.3178

> <Gold.PLP.part.metal>
0.0000

> <Gold.PLP.part.buried>
-5.6762

> <Gold.PLP.part.nonpolar>
-23.2312

> <Gold.PLP.part.repulsive>
0.1950

> <Gold.PLP.ligand.clash>
0.0000

> <Gold.PLP.ligand.torsion>
0.7394

> <Gold.PLP.Chemscore.Hbond>
2.0000

> <Gold.PLP.Chemscore.CHOScore>
0.0000

> <Gold.PLP.Chemscore.Metal>
0.0000

> <Gold.Chemscore.Hbonds>
donor molecule, donor type, donor heavy atom, donor atom, acceptor molecule, acceptor atom, score
      P1  H  6896  6908       L1     9  1.00
      P1  H  6934  6947       L1    15  0.75

> <Gold.PLP.Chemscore.Internal.Correction>
0.3212

> <Gold.Rescore>
     Score         DG    S(hbond)    S(metal)    S(lipo)     H(rot)  DE(clash)    DE(int)     intcor
     11.55     -12.25       1.71        0.00      61.93       2.41       0.19       0.51       ----

> <Gold.Chemscore.Fitness>
11.5539

> <Gold.Chemscore.DG>
-12.2549

> <Gold.Chemscore.ZeroCoef>
-5.4800

> <Gold.Chemscore.Hbond>
1.7054

> <Gold.Chemscore.Metal>
0.0000

> <Gold.Chemscore.Lipo>
61.9274

> <Gold.Chemscore.Internal_Hbond>
0.0000

> <Gold.Chemscore.DEClash>
0.1865

> <Gold.Chemscore.DEInternal>
0.5145

> <Gold.Chemscore.Rot>
2.4089

> <Gold.Chemscore.Internal.Correction>
   9.000000E+99

> <Gold.Chemscore.Hbonds>
donor molecule, donor type, donor heavy atom, donor atom, acceptor molecule, acceptor atom, score
      P1  H  6896  6908       L1     9  1.00
      P1  H  6934  6947       L1    15  0.08

> <Gold.Chemscore.Hbond.Weighted>
-5.6962

> <Gold.Chemscore.Metal.Weighted>
-0.0000

> <Gold.Chemscore.Lipo.Weighted>
-7.2455

> <Gold.Chemscore.Internal_Hbond.Weighted>
0.0000

> <Gold.Chemscore.DEClash.Weighted>
0.1865

> <Gold.Chemscore.DEInternal.Weighted>
0.5145

> <Gold.Chemscore.Rot.Weighted>
6.1668

> <Gold.Chemscore.Internal.Correction.Weighted>
   9.000000E+99

> <Gold.Protein.RotatedTorsions>
[ 6907 6896 6895 6894 ] final -151.19 input  -60.11 | X-H torsion
[ 7974 7965 7964 7962 ] final  -72.62 input  175.53 | X-H torsion
[ 8008 7997 7996 7995 ] final   -8.64 input   59.86 | X-H torsion
[ 10167 10162 10161 10158 ] final -111.78 input  -65.29 | X-H torsion
[ 10718 10713 10712 10709 ] final   93.23 input   66.30 | X-H torsion
[ 10763 10752 10751 10750 ] final   -5.23 input  -60.55 | X-H torsion
[ 11005 11000 10999 10996 ] final -178.02 input  -57.11 | X-H torsion

> <Gold.Protein.ActiveResidues>
 VAL166  LYS551  ARG553  GLY616  TRP617  ASP618  TYR619  PRO620  LYS621  CYS622 
 ASP623  PHE694  ASN695  SER759  ASP760  ASP761  ALA762  ILE779  LEU786  VAL792 
 PHE793  MET794  SER795  GLU796  ALA797  LYS798  CYS799  TRP800  GLU811  SER814 

> <Gold.Protein.RotatedAtoms>
  151.2095  133.4564  159.2597 H   0  0  0  0  0  0  0  0  0  0  0  0  # atno 6907 bound_to 6896
  151.0990  134.9961  159.8449 H   0  0  0  0  0  0  0  0  0  0  0  0  # atno 6908 bound_to 6896
  152.5441  134.2023  159.8770 H   0  0  0  0  0  0  0  0  0  0  0  0  # atno 6909 bound_to 6896
  145.6628  140.9247  143.0925 H   0  0  0  0  0  0  0  0  0  0  0  0  # atno 7974 bound_to 7965
  154.5722  140.2376  155.8175 H   0  0  0  0  0  0  0  0  0  0  0  0  # atno 8008 bound_to 7997
  156.2115  140.3024  155.9701 H   0  0  0  0  0  0  0  0  0  0  0  0  # atno 8009 bound_to 7997
  155.2692  140.0417  157.2996 H   0  0  0  0  0  0  0  0  0  0  0  0  # atno 8010 bound_to 7997
  140.1299  143.4369  152.1634 H   0  0  0  0  0  0  0  0  0  0  0  0  # atno 10167 bound_to 10162
  157.6955  131.0471  150.4002 H   0  0  0  0  0  0  0  0  0  0  0  0  # atno 10718 bound_to 10713
  153.3956  135.7003  153.6463 H   0  0  0  0  0  0  0  0  0  0  0  0  # atno 10763 bound_to 10752
  153.5017  135.3651  155.2544 H   0  0  0  0  0  0  0  0  0  0  0  0  # atno 10764 bound_to 10752
  154.8706  135.4113  154.3281 H   0  0  0  0  0  0  0  0  0  0  0  0  # atno 10765 bound_to 10752
  140.4344  134.6489  157.4728 H   0  0  0  0  0  0  0  0  0  0  0  0  # atno 11005 bound_to 11000
  144.7083  139.8470  143.7423 LP  0  0  0  0  0  0  0  0  0  0  0  0  # atno 17320 bound_to 7965
  146.1111  139.4116  143.0287 LP  0  0  0  0  0  0  0  0  0  0  0  0  # atno 17321 bound_to 7965
  139.5525  144.7348  151.4393 LP  0  0  0  0  0  0  0  0  0  0  0  0  # atno 17342 bound_to 10162
  140.6823  143.8054  150.7138 LP  0  0  0  0  0  0  0  0  0  0  0  0  # atno 17343 bound_to 10162
  156.4396  130.3989  149.6706 LP  0  0  0  0  0  0  0  0  0  0  0  0  # atno 17370 bound_to 10713
  156.3894  130.7619  151.2619 LP  0  0  0  0  0  0  0  0  0  0  0  0  # atno 17371 bound_to 10713
  140.0112  134.6688  155.9378 LP  0  0  0  0  0  0  0  0  0  0  0  0  # atno 17394 bound_to 11000
  141.1732  133.6538  156.4729 LP  0  0  0  0  0  0  0  0  0  0  0  0  # atno 17395 bound_to 11000

$$$$
