AV-unprocessed.smi:2114|AV-procd|sdf|8621|dock3
  -GOLD-   2272011363D 1   1.00000     0.00000
 Structure written by MMmdl.
 47 48  0  0  0  0  0  0  0  0  1 V2000
  153.9859  136.8175  164.5782 C   0  0  0  0  0  0  0  0  0  0  0  0
  155.3943  136.6753  164.5274 O   0  0  0  0  0  0  0  0  0  0  0  0
  156.0446  137.3022  165.6214 C   0  0  0  0  0  0  0  0  0  0  0  0
  156.8645  138.4993  165.1138 C   0  0  2  0  0  0  0  0  0  0  0  0
  157.1841  139.4880  166.2434 C   0  0  0  0  0  0  0  0  0  0  0  0
  156.1263  139.1946  164.0618 N   0  0  0  0  0  0  0  0  0  0  0  0
  156.3876  139.1325  162.7455 C   0  0  0  0  0  0  0  0  0  0  0  0
  157.3330  138.5095  162.2623 O   0  0  0  0  0  0  0  0  0  0  0  0
  155.4709  139.9353  161.8692 C   0  0  0  0  0  0  0  0  0  0  0  0
  155.4486  139.7639  160.4669 C   0  0  0  0  0  0  0  0  0  0  0  0
  154.5894  140.5676  159.6933 C   0  0  0  0  0  0  0  0  0  0  0  0
  153.7818  141.5216  160.3457 C   0  0  0  0  0  0  0  0  0  0  0  0
  152.9328  142.3315  159.5787 N   0  0  0  0  0  0  0  0  0  0  0  0
  152.0252  141.5875  158.7162 C   0  0  0  0  0  0  0  0  0  0  0  0
  151.2640  142.5570  157.7938 C   0  0  1  0  0  0  0  0  0  0  0  0
  150.2161  141.8340  156.9411 C   0  0  0  0  0  0  0  0  0  0  0  0
  150.5915  143.5373  158.5857 O   0  0  0  0  0  0  0  0  0  0  0  0
  151.4389  144.2920  159.4568 C   0  0  2  0  0  0  0  0  0  0  0  0
  152.3199  145.2925  158.6875 C   0  0  0  0  0  0  0  0  0  0  0  0
  152.2423  143.3432  160.3680 C   0  0  0  0  0  0  0  0  0  0  0  0
  153.8033  141.6991  161.6880 N   0  0  0  0  0  0  0  0  0  0  0  0
  154.6327  140.9278  162.4234 C   0  0  0  0  0  0  0  0  0  0  0  0
  153.5362  136.3217  163.7181 H   0  0  0  0  0  0  0  0  0  0  0  0
  153.6952  137.8685  164.5501 H   0  0  0  0  0  0  0  0  0  0  0  0
  153.5754  136.3641  165.4813 H   0  0  0  0  0  0  0  0  0  0  0  0
  155.3129  137.6287  166.3625 H   0  0  0  0  0  0  0  0  0  0  0  0
  156.7028  136.5812  166.1089 H   0  0  0  0  0  0  0  0  0  0  0  0
  157.8149  138.1251  164.7295 H   0  0  0  0  0  0  0  0  0  0  0  0
  157.7461  139.0027  167.0418 H   0  0  0  0  0  0  0  0  0  0  0  0
  156.2745  139.9013  166.6805 H   0  0  0  0  0  0  0  0  0  0  0  0
  157.7862  140.3200  165.8770 H   0  0  0  0  0  0  0  0  0  0  0  0
  155.3405  139.7548  164.3581 H   0  0  0  0  0  0  0  0  0  0  0  0
  156.0811  139.0355  159.9806 H   0  0  0  0  0  0  0  0  0  0  0  0
  154.5560  140.4550  158.6193 H   0  0  0  0  0  0  0  0  0  0  0  0
  152.5904  140.8685  158.1214 H   0  0  0  0  0  0  0  0  0  0  0  0
  151.3202  141.0199  159.3255 H   0  0  0  0  0  0  0  0  0  0  0  0
  151.9660  143.0488  157.1200 H   0  0  0  0  0  0  0  0  0  0  0  0
  150.6801  141.0820  156.3023 H   0  0  0  0  0  0  0  0  0  0  0  0
  149.6877  142.5365  156.2961 H   0  0  0  0  0  0  0  0  0  0  0  0
  149.4756  141.3332  157.5655 H   0  0  0  0  0  0  0  0  0  0  0  0
  150.7759  144.8795  160.0925 H   0  0  0  0  0  0  0  0  0  0  0  0
  152.8648  145.9365  159.3781 H   0  0  0  0  0  0  0  0  0  0  0  0
  151.7128  145.9340  158.0488 H   0  0  0  0  0  0  0  0  0  0  0  0
  153.0588  144.7960  158.0592 H   0  0  0  0  0  0  0  0  0  0  0  0
  151.5641  142.8499  161.0662 H   0  0  0  0  0  0  0  0  0  0  0  0
  152.9590  143.9075  160.9665 H   0  0  0  0  0  0  0  0  0  0  0  0
  154.6179  141.1098  163.4883 H   0  0  0  0  0  0  0  0  0  0  0  0
  1  2  1  0  0  0  0
  1 23  1  0  0  0  0
  1 24  1  0  0  0  0
  1 25  1  0  0  0  0
  2  3  1  0  0  0  0
  3  4  1  0  0  0  0
  3 26  1  0  0  0  0
  3 27  1  0  0  0  0
  4  5  1  0  0  0  0
  4  6  1  0  0  0  0
  4 28  1  0  0  0  0
  5 29  1  0  0  0  0
  5 30  1  0  0  0  0
  5 31  1  0  0  0  0
  6  7  1  0  0  0  0
  6 32  1  0  0  0  0
  7  8  2  0  0  0  0
  7  9  1  0  0  0  0
  9 22  1  0  0  0  0
  9 10  2  0  0  0  0
 10 11  1  0  0  0  0
 10 33  1  0  0  0  0
 11 12  2  0  0  0  0
 11 34  1  0  0  0  0
 12 13  1  0  0  0  0
 12 21  1  0  0  0  0
 13 20  1  0  0  0  0
 13 14  1  0  0  0  0
 14 15  1  0  0  0  0
 14 35  1  0  0  0  0
 14 36  1  0  0  0  0
 15 16  1  0  0  0  0
 15 17  1  0  0  0  0
 15 37  1  0  0  0  0
 16 38  1  0  0  0  0
 16 39  1  0  0  0  0
 16 40  1  0  0  0  0
 17 18  1  0  0  0  0
 18 19  1  0  0  0  0
 18 20  1  0  0  0  0
 18 41  1  0  0  0  0
 19 42  1  0  0  0  0
 19 43  1  0  0  0  0
 19 44  1  0  0  0  0
 20 45  1  0  0  0  0
 20 46  1  0  0  0  0
 21 22  2  0  0  0  0
 22 47  1  0  0  0  0
M  END
> <s_m_source_file>
AV-unprocessed.smi

> <i_m_source_file_index>
2114

> <i_lp_mmshare_version>
43012

> <i_f3d_flags>
0

> <s_epik_input>
W0NIM11PW0NIMl1bQ0BIXShbQ0gzXSlbTkhdQyg9TyljMVtjSF1bY0hdYyhuW2NIXTEpTjJbQ0gyXVtDQEBIXShbQ0gzXSlPW0NAQEhdKFtDSDNdKVtDSDJdMg==

> <s_epik_cmdline>
J2VwaWtfcHl0aG9uJywgJy1waCcsICc3LjAnLCAnLXRuJywgJzgnLCAnLW1hJywgJzIwMCcsICctbWV0YWxfYmluZGluZycsICctaW1hZScsICc8aW5maWxlLm1hZT4nLCAnLW9tYWUnLCAnPG91dGZpbGUubWFlPic=

> <r_lp_tautomer_probability>
1

> <r_epik_Ionization_Penalty>
1.92915e-05

> <r_epik_Ionization_Penalty_Charging>
0

> <r_epik_Ionization_Penalty_Neutral>
1.92915e-05

> <r_epik_State_Penalty>
-0

> <r_epik_Charging_Adjusted_Penalty>
0

> <i_epik_Tot_Q>
0

> <i_epik_Tot_abs_Q>
0

> <r_epik_Metal_State_Penalty>
-0

> <b_epik_Metal_Only>
0

> <s_lp_Force_Field>
OPLS_2005

> <r_lp_Energy>
24.3529

> <b_lp_Chiralities_Consistent>
1

> <s_lp_Variant>
AV-unprocessed.smi:2114-5

> <Gold.Version>
5.8.1

> <Gold.Id.Protein>
6NUR|6NUR_protein|mol2

> <Gold.PLP.Fitness>
36.6081

> <Gold.PLP.PLP>
-38.2472

> <Gold.PLP.part.hbond>
0.0000

> <Gold.PLP.part.metal>
0.0000

> <Gold.PLP.part.buried>
-3.7979

> <Gold.PLP.part.nonpolar>
-34.6631

> <Gold.PLP.part.repulsive>
0.2171

> <Gold.PLP.ligand.clash>
0.0000

> <Gold.PLP.ligand.torsion>
0.8778

> <Gold.PLP.Chemscore.Hbond>
0.0000

> <Gold.PLP.Chemscore.CHOScore>
0.0000

> <Gold.PLP.Chemscore.Metal>
0.0000

> <Gold.PLP.Chemscore.Internal.Correction>
0.1165

> <Gold.Rescore>
     Score         DG    S(hbond)    S(metal)    S(lipo)     H(rot)  DE(clash)    DE(int)     intcor
     13.83     -14.68       0.00        0.00     111.99       1.52       0.16       0.70       ----

> <Gold.Chemscore.Fitness>
13.8277

> <Gold.Chemscore.DG>
-14.6844

> <Gold.Chemscore.ZeroCoef>
-5.4800

> <Gold.Chemscore.Hbond>
0.0000

> <Gold.Chemscore.Metal>
0.0000

> <Gold.Chemscore.Lipo>
111.9862

> <Gold.Chemscore.Internal_Hbond>
0.0000

> <Gold.Chemscore.DEClash>
0.1562

> <Gold.Chemscore.DEInternal>
0.7006

> <Gold.Chemscore.Rot>
1.5226

> <Gold.Chemscore.Internal.Correction>
   9.000000E+99

> <Gold.Chemscore.Hbond.Weighted>
-0.0000

> <Gold.Chemscore.Metal.Weighted>
-0.0000

> <Gold.Chemscore.Lipo.Weighted>
-13.1024

> <Gold.Chemscore.Internal_Hbond.Weighted>
0.0000

> <Gold.Chemscore.DEClash.Weighted>
0.1562

> <Gold.Chemscore.DEInternal.Weighted>
0.7006

> <Gold.Chemscore.Rot.Weighted>
3.8980

> <Gold.Chemscore.Internal.Correction.Weighted>
   9.000000E+99

> <Gold.Protein.RotatedTorsions>
[ 6907 6896 6895 6894 ] final   72.93 input  -60.11 | X-H torsion
[ 7974 7965 7964 7962 ] final   52.75 input  175.53 | X-H torsion
[ 8008 7997 7996 7995 ] final  120.58 input   59.86 | X-H torsion
[ 10167 10162 10161 10158 ] final -158.02 input  -65.29 | X-H torsion
[ 10718 10713 10712 10709 ] final  164.43 input   66.30 | X-H torsion
[ 10763 10752 10751 10750 ] final -163.06 input  -60.55 | X-H torsion
[ 11005 11000 10999 10996 ] final  -22.97 input  -57.11 | X-H torsion

> <Gold.Protein.ActiveResidues>
 VAL166  LYS551  ARG553  GLY616  TRP617  ASP618  TYR619  PRO620  LYS621  CYS622 
 ASP623  PHE694  ASN695  SER759  ASP760  ASP761  ALA762  ILE779  LEU786  VAL792 
 PHE793  MET794  SER795  GLU796  ALA797  LYS798  CYS799  TRP800  GLU811  SER814 

> <Gold.Protein.RotatedAtoms>
  152.4895  134.4498  159.9570 H   0  0  0  0  0  0  0  0  0  0  0  0  # atno 6907 bound_to 6896
  151.4488  133.3617  159.2800 H   0  0  0  0  0  0  0  0  0  0  0  0  # atno 6908 bound_to 6896
  150.9036  134.8474  159.7437 H   0  0  0  0  0  0  0  0  0  0  0  0  # atno 6909 bound_to 6896
  145.9781  139.4215  143.0149 H   0  0  0  0  0  0  0  0  0  0  0  0  # atno 7974 bound_to 7965
  156.2649  140.2827  156.1172 H   0  0  0  0  0  0  0  0  0  0  0  0  # atno 8008 bound_to 7997
  155.1194  140.0392  157.2763 H   0  0  0  0  0  0  0  0  0  0  0  0  # atno 8009 bound_to 7997
  154.6682  140.2582  155.7041 H   0  0  0  0  0  0  0  0  0  0  0  0  # atno 8010 bound_to 7997
  139.6725  143.9721  152.2291 H   0  0  0  0  0  0  0  0  0  0  0  0  # atno 10167 bound_to 10162
  157.0945  131.0426  151.2523 H   0  0  0  0  0  0  0  0  0  0  0  0  # atno 10718 bound_to 10713
  154.7157  135.3015  154.9127 H   0  0  0  0  0  0  0  0  0  0  0  0  # atno 10763 bound_to 10752
  154.0014  135.6706  153.4763 H   0  0  0  0  0  0  0  0  0  0  0  0  # atno 10764 bound_to 10752
  153.0792  135.5018  154.8383 H   0  0  0  0  0  0  0  0  0  0  0  0  # atno 10765 bound_to 10752
  140.8707  133.7722  156.0183 H   0  0  0  0  0  0  0  0  0  0  0  0  # atno 11005 bound_to 11000
  145.7809  140.9856  143.1100 LP  0  0  0  0  0  0  0  0  0  0  0  0  # atno 17320 bound_to 7965
  144.6854  139.9563  143.7479 LP  0  0  0  0  0  0  0  0  0  0  0  0  # atno 17321 bound_to 7965
  139.9489  144.6633  150.8192 LP  0  0  0  0  0  0  0  0  0  0  0  0  # atno 17342 bound_to 10162
  140.7623  143.3195  151.2654 LP  0  0  0  0  0  0  0  0  0  0  0  0  # atno 17343 bound_to 10162
  157.4693  130.7699  149.7308 LP  0  0  0  0  0  0  0  0  0  0  0  0  # atno 17370 bound_to 10713
  155.9889  130.3955  150.3096 LP  0  0  0  0  0  0  0  0  0  0  0  0  # atno 17371 bound_to 10713
  140.8576  134.2879  157.5248 LP  0  0  0  0  0  0  0  0  0  0  0  0  # atno 17394 bound_to 11000
  139.8712  134.9501  156.4046 LP  0  0  0  0  0  0  0  0  0  0  0  0  # atno 17395 bound_to 11000

$$$$
