AV-unprocessed.smi:1184|AV-procd|sdf|4970|dock9
  -GOLD-   22720 3563D 1   1.00000     0.00000
 Structure written by MMmdl.
 43 44  0  0  0  0  0  0  0  0  2 V2000
  144.2843  132.8899  149.8627 C   0  0  0  0  0  0  0  0  0  0  0  0
  143.4456  132.3652  151.0359 C   0  0  0  0  0  0  0  0  0  0  0  0
  143.6622  133.1534  152.2717 N   0  3  2  0  0  0  0  0  0  0  0  0
  143.0137  134.4817  152.2597 C   0  0  0  0  0  0  0  0  0  0  0  0
  143.8509  135.3456  153.1976 C   0  0  0  0  0  0  0  0  0  0  0  0
  145.2696  134.8512  152.9207 C   0  0  1  0  0  0  0  0  0  0  0  0
  146.2931  135.1694  154.0274 C   0  0  0  0  0  0  0  0  0  0  0  0
  147.5264  134.4082  153.8641 N   0  0  0  0  0  0  0  0  0  0  0  0
  147.8870  133.3543  154.6134 C   0  0  0  0  0  0  0  0  0  0  0  0
  147.1991  132.9110  155.5325 O   0  0  0  0  0  0  0  0  0  0  0  0
  149.2203  132.6903  154.2667 C   0  0  0  0  0  0  0  0  0  0  0  0
  150.0355  132.4755  155.5171 C   0  0  0  0  0  0  0  0  0  0  0  0
  150.7046  131.2879  155.9315 C   0  0  0  0  0  0  0  0  0  0  0  0
  150.7718  129.9592  155.2345 C   0  0  0  0  0  0  0  0  0  0  0  0
  151.3290  131.4494  157.0858 N   0  0  0  0  0  0  0  0  0  0  0  0
  151.0830  132.7700  157.4730 O   0  0  0  0  0  0  0  0  0  0  0  0
  150.3137  133.3602  156.5234 C   0  0  0  0  0  0  0  0  0  0  0  0
  149.9381  134.7836  156.7633 C   0  0  0  0  0  0  0  0  0  0  0  0
  145.0823  133.3497  152.6568 C   0  0  0  0  0  0  0  0  0  0  0  0
  144.1475  132.2624  148.9818 H   0  0  0  0  0  0  0  0  0  0  0  0
  145.3471  132.8892  150.1066 H   0  0  0  0  0  0  0  0  0  0  0  0
  144.0036  133.9066  149.5872 H   0  0  0  0  0  0  0  0  0  0  0  0
  142.3856  132.3586  150.7780 H   0  0  0  0  0  0  0  0  0  0  0  0
  143.7285  131.3293  151.2287 H   0  0  0  0  0  0  0  0  0  0  0  0
  143.0487  134.9017  151.2528 H   0  0  0  0  0  0  0  0  0  0  0  0
  141.9681  134.4215  152.5632 H   0  0  0  0  0  0  0  0  0  0  0  0
  143.7280  136.4128  153.0095 H   0  0  0  0  0  0  0  0  0  0  0  0
  143.5733  135.1493  154.2344 H   0  0  0  0  0  0  0  0  0  0  0  0
  145.6028  135.3083  151.9871 H   0  0  0  0  0  0  0  0  0  0  0  0
  146.5469  136.2297  154.0106 H   0  0  0  0  0  0  0  0  0  0  0  0
  145.8624  134.9723  155.0106 H   0  0  0  0  0  0  0  0  0  0  0  0
  148.1570  134.7076  153.1344 H   0  0  0  0  0  0  0  0  0  0  0  0
  149.0269  131.7455  153.7573 H   0  0  0  0  0  0  0  0  0  0  0  0
  149.7469  133.3164  153.5457 H   0  0  0  0  0  0  0  0  0  0  0  0
  149.8581  129.7616  154.6740 H   0  0  0  0  0  0  0  0  0  0  0  0
  150.9046  129.1414  155.9431 H   0  0  0  0  0  0  0  0  0  0  0  0
  151.6045  129.9304  154.5320 H   0  0  0  0  0  0  0  0  0  0  0  0
  149.6068  135.2638  155.8427 H   0  0  0  0  0  0  0  0  0  0  0  0
  150.7862  135.3487  157.1497 H   0  0  0  0  0  0  0  0  0  0  0  0
  149.1277  134.8497  157.4892 H   0  0  0  0  0  0  0  0  0  0  0  0
  145.2719  132.7631  153.5566 H   0  0  0  0  0  0  0  0  0  0  0  0
  145.7774  133.0056  151.8896 H   0  0  0  0  0  0  0  0  0  0  0  0
  143.2327  132.6414  153.0292 H   0  0  0  0  0  0  0  0  0  0  0  0
  1  2  1  0  0  0  0
  1 20  1  0  0  0  0
  1 21  1  0  0  0  0
  1 22  1  0  0  0  0
  2  3  1  0  0  0  0
  2 23  1  0  0  0  0
  2 24  1  0  0  0  0
  3 19  1  0  0  0  0
  3  4  1  0  0  0  0
  3 43  1  0  0  0  0
  4  5  1  0  0  0  0
  4 25  1  0  0  0  0
  4 26  1  0  0  0  0
  5  6  1  0  0  0  0
  5 27  1  0  0  0  0
  5 28  1  0  0  0  0
  6  7  1  0  0  0  0
  6 19  1  0  0  0  0
  6 29  1  0  0  0  0
  7  8  1  0  0  0  0
  7 30  1  0  0  0  0
  7 31  1  0  0  0  0
  8  9  1  0  0  0  0
  8 32  1  0  0  0  0
  9 10  2  0  0  0  0
  9 11  1  0  0  0  0
 11 12  1  0  0  0  0
 11 33  1  0  0  0  0
 11 34  1  0  0  0  0
 12 17  2  0  0  0  0
 12 13  1  0  0  0  0
 13 14  1  0  0  0  0
 13 15  2  0  0  0  0
 14 35  1  0  0  0  0
 14 36  1  0  0  0  0
 14 37  1  0  0  0  0
 15 16  1  0  0  0  0
 16 17  1  0  0  0  0
 17 18  1  0  0  0  0
 18 38  1  0  0  0  0
 18 39  1  0  0  0  0
 18 40  1  0  0  0  0
 19 41  1  0  0  0  0
 19 42  1  0  0  0  0
M  CHG  1   3   1
M  END
> <s_m_source_file>
AV-unprocessed.smi

> <i_m_source_file_index>
1184

> <i_lp_mmshare_version>
43012

> <i_f3d_flags>
0

> <s_epik_input>
W0NIM11bQ0gyXU4xW0NIMl1bQ0gyXVtDQEhdKFtDSDJdMSlbQ0gyXVtOSF1DKD1PKVtDSDJdYzJjKFtDSDNdKW5vYzJbQ0gzXQ==

> <s_epik_cmdline>
J2VwaWtfcHl0aG9uJywgJy1waCcsICc3LjAnLCAnLXRuJywgJzgnLCAnLW1hJywgJzIwMCcsICctbWV0YWxfYmluZGluZycsICctaW1hZScsICc8aW5maWxlLm1hZT4nLCAnLW9tYWUnLCAnPG91dGZpbGUubWFlPic=

> <r_epik_Ionization_Penalty>
0.000590726

> <r_epik_Ionization_Penalty_Charging>
0.000590692

> <r_epik_Ionization_Penalty_Neutral>
3.44741e-08

> <r_epik_State_Penalty>
0.000371644

> <r_epik_Charging_Adjusted_Penalty>
0.000962336

> <i_epik_Tot_Q>
1

> <i_epik_Tot_abs_Q>
1

> <r_epik_Metal_State_Penalty>
-0

> <b_epik_Metal_Only>
0

> <s_lp_Force_Field>
OPLS_2005

> <r_lp_Energy>
22.2982

> <b_lp_Chiralities_Consistent>
1

> <s_lp_Variant>
AV-unprocessed.smi:1184-2

> <Gold.Version>
5.8.1

> <Gold.Id.Protein>
6NUR|6NUR_protein|mol2

> <Gold.PLP.Fitness>
39.7700

> <Gold.PLP.PLP>
-28.9728

> <Gold.PLP.part.hbond>
-2.9561

> <Gold.PLP.part.metal>
0.0000

> <Gold.PLP.part.buried>
-5.4739

> <Gold.PLP.part.nonpolar>
-22.1864

> <Gold.PLP.part.repulsive>
0.0016

> <Gold.PLP.ligand.clash>
0.0000

> <Gold.PLP.ligand.torsion>
0.5043

> <Gold.PLP.Chemscore.Hbond>
3.9265

> <Gold.PLP.Chemscore.CHOScore>
0.0000

> <Gold.PLP.Chemscore.Metal>
0.0000

> <Gold.Chemscore.Hbonds>
donor molecule, donor type, donor heavy atom, donor atom, acceptor molecule, acceptor atom, score
      L1  H     3    43       P1 10957  1.80
      L1  H     8    32       P1  7948  0.81
      P1  H  6896  6909       L1    16  1.00

> <Gold.PLP.Chemscore.Internal.Correction>
0.0264

> <Gold.Rescore>
     Score         DG    S(hbond)    S(metal)    S(lipo)     H(rot)  DE(clash)    DE(int)     intcor
     16.74     -17.34       2.69        0.00      61.02       1.67       0.00       0.60       ----

> <Gold.Chemscore.Fitness>
16.7432

> <Gold.Chemscore.DG>
-17.3441

> <Gold.Chemscore.ZeroCoef>
-5.4800

> <Gold.Chemscore.Hbond>
2.6933

> <Gold.Chemscore.Metal>
0.0000

> <Gold.Chemscore.Lipo>
61.0226

> <Gold.Chemscore.Internal_Hbond>
0.0000

> <Gold.Chemscore.DEClash>
0.0015

> <Gold.Chemscore.DEInternal>
0.5994

> <Gold.Chemscore.Rot>
1.6684

> <Gold.Chemscore.Internal.Correction>
   9.000000E+99

> <Gold.Chemscore.Hbonds>
donor molecule, donor type, donor heavy atom, donor atom, acceptor molecule, acceptor atom, score
      L1  H     3    43       P1 10957  0.17
      L1  H     8    32       P1  7948  0.61
      P1  H  6896  6909       L1    16  0.94

> <Gold.Chemscore.Hbond.Weighted>
-8.9957

> <Gold.Chemscore.Metal.Weighted>
-0.0000

> <Gold.Chemscore.Lipo.Weighted>
-7.1396

> <Gold.Chemscore.Internal_Hbond.Weighted>
0.0000

> <Gold.Chemscore.DEClash.Weighted>
0.0015

> <Gold.Chemscore.DEInternal.Weighted>
0.5994

> <Gold.Chemscore.Rot.Weighted>
4.2712

> <Gold.Chemscore.Internal.Correction.Weighted>
   9.000000E+99

> <Gold.Protein.RotatedTorsions>
[ 6907 6896 6895 6894 ] final  -46.33 input  -60.11 | X-H torsion
[ 7974 7965 7964 7962 ] final  -49.89 input  175.53 | X-H torsion
[ 8008 7997 7996 7995 ] final  -23.95 input   59.86 | X-H torsion
[ 10167 10162 10161 10158 ] final   27.56 input  -65.29 | X-H torsion
[ 10718 10713 10712 10709 ] final   54.97 input   66.30 | X-H torsion
[ 10763 10752 10751 10750 ] final  -31.62 input  -60.55 | X-H torsion
[ 11005 11000 10999 10996 ] final  -22.18 input  -57.11 | X-H torsion

> <Gold.Protein.ActiveResidues>
 VAL166  LYS551  ARG553  GLY616  TRP617  ASP618  TYR619  PRO620  LYS621  CYS622 
 ASP623  PHE694  ASN695  SER759  ASP760  ASP761  ALA762  ILE779  LEU786  VAL792 
 PHE793  MET794  SER795  GLU796  ALA797  LYS798  CYS799  TRP800  GLU811  SER814 

> <Gold.Protein.RotatedAtoms>
  150.9124  134.8541  159.7433 H   0  0  0  0  0  0  0  0  0  0  0  0  # atno 6907 bound_to 6896
  152.4951  134.4340  159.9531 H   0  0  0  0  0  0  0  0  0  0  0  0  # atno 6908 bound_to 6896
  151.4381  133.3612  159.2813 H   0  0  0  0  0  0  0  0  0  0  0  0  # atno 6909 bound_to 6896
  145.9357  140.7709  142.9577 H   0  0  0  0  0  0  0  0  0  0  0  0  # atno 7974 bound_to 7965
  154.4556  140.1967  156.0389 H   0  0  0  0  0  0  0  0  0  0  0  0  # atno 8008 bound_to 7997
  156.0739  140.3280  155.7582 H   0  0  0  0  0  0  0  0  0  0  0  0  # atno 8009 bound_to 7997
  155.5219  140.0570  157.2896 H   0  0  0  0  0  0  0  0  0  0  0  0  # atno 8010 bound_to 7997
  140.4927  144.0440  150.6303 H   0  0  0  0  0  0  0  0  0  0  0  0  # atno 10167 bound_to 10162
  157.5304  130.8626  149.8680 H   0  0  0  0  0  0  0  0  0  0  0  0  # atno 10718 bound_to 10713
  153.8004  135.6890  153.4856 H   0  0  0  0  0  0  0  0  0  0  0  0  # atno 10763 bound_to 10752
  153.1692  135.4549  154.9878 H   0  0  0  0  0  0  0  0  0  0  0  0  # atno 10764 bound_to 10752
  154.8009  135.3337  154.7493 H   0  0  0  0  0  0  0  0  0  0  0  0  # atno 10765 bound_to 10752
  140.8632  133.7773  156.0099 H   0  0  0  0  0  0  0  0  0  0  0  0  # atno 11005 bound_to 11000
  144.6771  140.2198  143.7367 LP  0  0  0  0  0  0  0  0  0  0  0  0  # atno 17320 bound_to 7965
  145.8367  139.2111  143.1851 LP  0  0  0  0  0  0  0  0  0  0  0  0  # atno 17321 bound_to 7965
  140.3714  143.2852  152.0274 LP  0  0  0  0  0  0  0  0  0  0  0  0  # atno 17342 bound_to 10162
  139.4855  144.6227  151.7225 LP  0  0  0  0  0  0  0  0  0  0  0  0  # atno 17343 bound_to 10162
  156.0418  130.3737  150.1416 LP  0  0  0  0  0  0  0  0  0  0  0  0  # atno 17370 bound_to 10713
  156.9600  130.9802  151.3481 LP  0  0  0  0  0  0  0  0  0  0  0  0  # atno 17371 bound_to 10713
  140.8659  134.2785  157.5213 LP  0  0  0  0  0  0  0  0  0  0  0  0  # atno 17394 bound_to 11000
  139.8708  134.9542  156.4168 LP  0  0  0  0  0  0  0  0  0  0  0  0  # atno 17395 bound_to 11000

$$$$
