AV-unprocessed.smi:166|AV-procd|sdf|1391|dock3
  -GOLD-   2262019133D 1   1.00000     0.00000
 Structure written by MMmdl.
 54 58  0  0  0  0  0  0  0  0  1 V2000
  145.9225  138.8978  153.6093 O   0  0  0  0  0  0  0  0  0  0  0  0
  146.8014  139.5201  154.5310 C   0  0  2  0  0  0  0  0  0  0  0  0
  148.2626  139.3229  154.0622 C   0  0  0  0  0  0  0  0  0  0  0  0
  149.2530  139.6522  155.0757 N   0  0  0  0  0  0  0  0  0  0  0  0
  149.3246  140.8082  155.8206 C   0  0  0  0  0  0  0  0  0  0  0  0
  150.3119  140.8617  156.6724 N   0  0  0  0  0  0  0  0  0  0  0  0
  150.9667  139.6471  156.5082 C   0  0  0  0  0  0  0  0  0  0  0  0
  152.1072  139.0409  157.1062 C   0  0  0  0  0  0  0  0  0  0  0  0
  152.8662  139.6093  158.0659 N   0  0  0  0  0  0  0  0  0  0  0  0
  153.2929  138.6637  159.0928 C   0  0  0  0  0  0  0  0  0  0  0  0
  154.3416  139.3050  160.0157 C   0  0  0  0  0  0  0  0  0  0  0  0
  153.8164  140.6242  160.6032 C   0  0  0  0  0  0  0  0  0  0  0  0
  153.3681  141.5763  159.4804 C   0  0  2  0  0  0  0  0  0  0  0  0
  152.8077  142.7288  160.0958 O   0  0  0  0  0  0  0  0  0  0  0  0
  152.6470  143.8400  159.2274 C   0  0  0  0  0  0  0  0  0  0  0  0
  151.7692  144.8669  159.9095 C   0  0  0  0  0  0  0  0  0  0  0  0
  150.7745  144.4385  160.9644 C   0  0  0  0  0  0  0  0  0  0  0  0
  150.2854  144.9287  159.6257 C   0  0  0  0  0  0  0  0  0  0  0  0
  152.3385  140.8750  158.5696 C   0  0  0  0  0  0  0  0  0  0  0  0
  152.4574  137.7974  156.6968 N   0  0  0  0  0  0  0  0  0  0  0  0
  151.7418  137.1804  155.7515 C   0  0  0  0  0  0  0  0  0  0  0  0
  150.6624  137.6201  155.1002 N   0  0  0  0  0  0  0  0  0  0  0  0
  150.3077  138.8709  155.5144 C   0  0  0  0  0  0  0  0  0  0  0  0
  146.5453  138.9252  155.9114 C   0  0  0  0  0  0  0  0  0  0  0  0
  145.4812  139.8470  156.4904 C   0  0  0  0  0  0  0  0  0  0  0  0
  145.9010  141.1225  156.0389 O   0  0  0  0  0  0  0  0  0  0  0  0
  146.3707  140.9931  154.7012 C   0  0  0  0  0  0  0  0  0  0  0  0
  145.0333  139.0986  153.8586 H   0  0  0  0  0  0  0  0  0  0  0  0
  148.4224  138.2886  153.7539 H   0  0  0  0  0  0  0  0  0  0  0  0
  148.4594  139.9363  153.1819 H   0  0  0  0  0  0  0  0  0  0  0  0
  148.6170  141.6174  155.7133 H   0  0  0  0  0  0  0  0  0  0  0  0
  152.4281  138.3473  159.6778 H   0  0  0  0  0  0  0  0  0  0  0  0
  153.7079  137.7695  158.6254 H   0  0  0  0  0  0  0  0  0  0  0  0
  154.6059  138.6154  160.8178 H   0  0  0  0  0  0  0  0  0  0  0  0
  155.2566  139.4938  159.4529 H   0  0  0  0  0  0  0  0  0  0  0  0
  152.9765  140.4173  161.2681 H   0  0  0  0  0  0  0  0  0  0  0  0
  154.5876  141.0970  161.2121 H   0  0  0  0  0  0  0  0  0  0  0  0
  154.2461  141.8592  158.8963 H   0  0  0  0  0  0  0  0  0  0  0  0
  153.6137  144.2834  158.9837 H   0  0  0  0  0  0  0  0  0  0  0  0
  152.1690  143.5417  158.2946 H   0  0  0  0  0  0  0  0  0  0  0  0
  152.2670  145.8173  160.0936 H   0  0  0  0  0  0  0  0  0  0  0  0
  150.6828  143.3743  161.1734 H   0  0  0  0  0  0  0  0  0  0  0  0
  150.6378  145.0953  161.8211 H   0  0  0  0  0  0  0  0  0  0  0  0
  149.8237  145.9132  159.5869 H   0  0  0  0  0  0  0  0  0  0  0  0
  149.8680  144.1911  158.9428 H   0  0  0  0  0  0  0  0  0  0  0  0
  152.0775  141.5125  157.7245 H   0  0  0  0  0  0  0  0  0  0  0  0
  151.4214  140.6943  159.1312 H   0  0  0  0  0  0  0  0  0  0  0  0
  152.0820  136.1922  155.4788 H   0  0  0  0  0  0  0  0  0  0  0  0
  146.2403  137.8781  155.8906 H   0  0  0  0  0  0  0  0  0  0  0  0
  147.4440  138.9952  156.5261 H   0  0  0  0  0  0  0  0  0  0  0  0
  144.4956  139.6165  156.0828 H   0  0  0  0  0  0  0  0  0  0  0  0
  145.4275  139.8010  157.5781 H   0  0  0  0  0  0  0  0  0  0  0  0
  147.1932  141.6924  154.5554 H   0  0  0  0  0  0  0  0  0  0  0  0
  145.5776  141.2721  154.0053 H   0  0  0  0  0  0  0  0  0  0  0  0
  1  2  1  0  0  0  0
  1 28  1  0  0  0  0
  2 27  1  0  0  0  0
  2  3  1  0  0  0  0
  2 24  1  0  0  0  0
  3  4  1  0  0  0  0
  3 29  1  0  0  0  0
  3 30  1  0  0  0  0
  4 23  1  0  0  0  0
  4  5  1  0  0  0  0
  5  6  2  0  0  0  0
  5 31  1  0  0  0  0
  6  7  1  0  0  0  0
  7 23  2  0  0  0  0
  7  8  1  0  0  0  0
  8  9  1  0  0  0  0
  8 20  2  0  0  0  0
  9 19  1  0  0  0  0
  9 10  1  0  0  0  0
 10 11  1  0  0  0  0
 10 32  1  0  0  0  0
 10 33  1  0  0  0  0
 11 12  1  0  0  0  0
 11 34  1  0  0  0  0
 11 35  1  0  0  0  0
 12 13  1  0  0  0  0
 12 36  1  0  0  0  0
 12 37  1  0  0  0  0
 13 14  1  0  0  0  0
 13 19  1  0  0  0  0
 13 38  1  0  0  0  0
 14 15  1  0  0  0  0
 15 16  1  0  0  0  0
 15 39  1  0  0  0  0
 15 40  1  0  0  0  0
 16 18  1  0  0  0  0
 16 17  1  0  0  0  0
 16 41  1  0  0  0  0
 17 18  1  0  0  0  0
 17 42  1  0  0  0  0
 17 43  1  0  0  0  0
 18 44  1  0  0  0  0
 18 45  1  0  0  0  0
 19 46  1  0  0  0  0
 19 47  1  0  0  0  0
 20 21  1  0  0  0  0
 21 22  2  0  0  0  0
 21 48  1  0  0  0  0
 22 23  1  0  0  0  0
 24 25  1  0  0  0  0
 24 49  1  0  0  0  0
 24 50  1  0  0  0  0
 25 26  1  0  0  0  0
 25 51  1  0  0  0  0
 25 52  1  0  0  0  0
 26 27  1  0  0  0  0
 27 53  1  0  0  0  0
 27 54  1  0  0  0  0
M  END
> <s_m_source_file>
AV-unprocessed.smi

> <i_m_source_file_index>
166

> <i_lp_mmshare_version>
43012

> <i_f3d_flags>
0

> <s_epik_input>
W0NIMl0xT1tDSDJdW0NIMl1bQ0BAXTEoW09IXSlbQ0gyXW4oW2NIXW4yKWMoYzIzKW5bY0hdbmMzTjRbQ0gyXVtDSDJdW0NIMl1bQ0BIXShbQ0gyXTQpT1tDSDJdW0NIXTVbQ0gyXVtDSDJdNQ==

> <s_epik_cmdline>
J2VwaWtfcHl0aG9uJywgJy1waCcsICc3LjAnLCAnLXRuJywgJzgnLCAnLW1hJywgJzIwMCcsICctbWV0YWxfYmluZGluZycsICctaW1hZScsICc8aW5maWxlLm1hZT4nLCAnLW9tYWUnLCAnPG91dGZpbGUubWFlPic=

> <r_lp_tautomer_probability>
1

> <r_epik_Ionization_Penalty>
0.00342552

> <r_epik_Ionization_Penalty_Charging>
0

> <r_epik_Ionization_Penalty_Neutral>
0.00342552

> <r_epik_State_Penalty>
0.0022204

> <r_epik_Charging_Adjusted_Penalty>
0.0022204

> <i_epik_Tot_Q>
0

> <i_epik_Tot_abs_Q>
0

> <r_epik_Metal_State_Penalty>
-0

> <b_epik_Metal_Only>
0

> <s_lp_Force_Field>
OPLS_2005

> <r_lp_Energy>
47.9091

> <b_lp_Chiralities_Consistent>
1

> <s_lp_Variant>
AV-unprocessed.smi:166-4

> <Gold.Version>
5.8.1

> <Gold.Id.Protein>
6NUR|6NUR_protein|mol2

> <Gold.PLP.Fitness>
54.7849

> <Gold.PLP.PLP>
-47.2014

> <Gold.PLP.part.hbond>
-2.0000

> <Gold.PLP.part.metal>
0.0000

> <Gold.PLP.part.buried>
-3.6473

> <Gold.PLP.part.nonpolar>
-42.0091

> <Gold.PLP.part.repulsive>
0.4145

> <Gold.PLP.ligand.clash>
0.0000

> <Gold.PLP.ligand.torsion>
1.1554

> <Gold.PLP.Chemscore.Hbond>
2.0000

> <Gold.PLP.Chemscore.CHOScore>
1.0000

> <Gold.PLP.Chemscore.Metal>
0.0000

> <Gold.Chemscore.Hbonds>
donor molecule, donor type, donor heavy atom, donor atom, acceptor molecule, acceptor atom, score
      L1  H     1    28       P1 10175  0.06
      P1  H  7997  8008       L1     9  0.68

> <Gold.PLP.Chemscore.Internal.Correction>
0.8944

> <Gold.Rescore>
     Score         DG    S(hbond)    S(metal)    S(lipo)     H(rot)  DE(clash)    DE(int)     intcor
     11.82     -15.98       0.97        0.00     120.82       2.68       1.54       2.62       ----

> <Gold.Chemscore.Fitness>
11.8175

> <Gold.Chemscore.DG>
-15.9836

> <Gold.Chemscore.ZeroCoef>
-5.4800

> <Gold.Chemscore.Hbond>
0.9677

> <Gold.Chemscore.Metal>
0.0000

> <Gold.Chemscore.Lipo>
120.8246

> <Gold.Chemscore.Internal_Hbond>
0.0000

> <Gold.Chemscore.DEClash>
1.5426

> <Gold.Chemscore.DEInternal>
2.6236

> <Gold.Chemscore.Rot>
2.6817

> <Gold.Chemscore.Internal.Correction>
   9.000000E+99

> <Gold.Chemscore.Hbonds>
donor molecule, donor type, donor heavy atom, donor atom, acceptor molecule, acceptor atom, score
      L1  H     1    28       P1 10175  0.07
      P1  H  7997  8008       L1     9  0.04

> <Gold.Chemscore.Hbond.Weighted>
-3.2322

> <Gold.Chemscore.Metal.Weighted>
-0.0000

> <Gold.Chemscore.Lipo.Weighted>
-14.1365

> <Gold.Chemscore.Internal_Hbond.Weighted>
0.0000

> <Gold.Chemscore.DEClash.Weighted>
1.5426

> <Gold.Chemscore.DEInternal.Weighted>
2.6236

> <Gold.Chemscore.Rot.Weighted>
6.8651

> <Gold.Chemscore.Internal.Correction.Weighted>
   9.000000E+99

> <Gold.Protein.RotatedTorsions>
[ 6907 6896 6895 6894 ] final   48.40 input  -60.11 | X-H torsion
[ 7974 7965 7964 7962 ] final  -81.27 input  175.53 | X-H torsion
[ 8008 7997 7996 7995 ] final  -69.95 input   59.86 | X-H torsion
[ 10167 10162 10161 10158 ] final  -38.97 input  -65.29 | X-H torsion
[ 10718 10713 10712 10709 ] final -129.13 input   66.30 | X-H torsion
[ 10763 10752 10751 10750 ] final  -92.21 input  -60.55 | X-H torsion
[ 11005 11000 10999 10996 ] final  -65.34 input  -57.11 | X-H torsion

> <Gold.Protein.ActiveResidues>
 VAL166  LYS551  ARG553  GLY616  TRP617  ASP618  TYR619  PRO620  LYS621  CYS622 
 ASP623  PHE694  ASN695  SER759  ASP760  ASP761  ALA762  ILE779  LEU786  VAL792 
 PHE793  MET794  SER795  GLU796  ALA797  LYS798  CYS799  TRP800  GLU811  SER814 

> <Gold.Protein.RotatedAtoms>
  152.2790  134.7849  160.0399 H   0  0  0  0  0  0  0  0  0  0  0  0  # atno 6907 bound_to 6896
  151.8435  133.3422  159.3658 H   0  0  0  0  0  0  0  0  0  0  0  0  # atno 6908 bound_to 6896
  150.7182  134.5297  159.5738 H   0  0  0  0  0  0  0  0  0  0  0  0  # atno 6909 bound_to 6896
  145.5489  140.9499  143.1510 H   0  0  0  0  0  0  0  0  0  0  0  0  # atno 7974 bound_to 7965
  154.4976  140.0844  156.7729 H   0  0  0  0  0  0  0  0  0  0  0  0  # atno 8008 bound_to 7997
  155.4080  140.3440  155.4243 H   0  0  0  0  0  0  0  0  0  0  0  0  # atno 8009 bound_to 7997
  156.1414  140.1530  156.8903 H   0  0  0  0  0  0  0  0  0  0  0  0  # atno 8010 bound_to 7997
  140.7077  143.3243  151.2717 H   0  0  0  0  0  0  0  0  0  0  0  0  # atno 10167 bound_to 10162
  156.2017  130.6861  151.0547 H   0  0  0  0  0  0  0  0  0  0  0  0  # atno 10718 bound_to 10713
  154.6838  135.5239  153.8299 H   0  0  0  0  0  0  0  0  0  0  0  0  # atno 10763 bound_to 10752
  153.0583  135.6559  154.0533 H   0  0  0  0  0  0  0  0  0  0  0  0  # atno 10764 bound_to 10752
  154.0417  135.2976  155.3334 H   0  0  0  0  0  0  0  0  0  0  0  0  # atno 10765 bound_to 10752
  141.1451  133.6680  156.5971 H   0  0  0  0  0  0  0  0  0  0  0  0  # atno 11005 bound_to 11000
  144.7539  139.7123  143.7262 LP  0  0  0  0  0  0  0  0  0  0  0  0  # atno 17320 bound_to 7965
  146.1930  139.5181  142.9792 LP  0  0  0  0  0  0  0  0  0  0  0  0  # atno 17321 bound_to 7965
  139.6707  144.0025  152.2751 LP  0  0  0  0  0  0  0  0  0  0  0  0  # atno 17342 bound_to 10162
  139.9623  144.6549  150.8068 LP  0  0  0  0  0  0  0  0  0  0  0  0  # atno 17343 bound_to 10162
  157.6989  131.0783  150.6882 LP  0  0  0  0  0  0  0  0  0  0  0  0  # atno 17370 bound_to 10713
  156.6939  130.4603  149.5592 LP  0  0  0  0  0  0  0  0  0  0  0  0  # atno 17371 bound_to 10713
  140.3717  134.7600  157.4603 LP  0  0  0  0  0  0  0  0  0  0  0  0  # atno 17394 bound_to 11000
  140.0705  134.5869  155.8647 LP  0  0  0  0  0  0  0  0  0  0  0  0  # atno 17395 bound_to 11000

$$$$
