AV-unprocessed.smi:3220|AV-procd|sdf|12297|dock9
  -GOLD-   2272018143D 1   1.00000     0.00000
 Structure written by MMmdl.
 33 34  0  0  0  0  0  0  0  0  1 V2000
  151.6648  144.0722  158.9253 C   0  0  0  0  0  0  0  0  0  0  0  0
  151.6668  142.5717  158.5986 C   0  0  2  0  0  0  0  0  0  0  0  0
  153.0980  142.0015  158.5507 C   0  0  0  0  0  0  0  0  0  0  0  0
  153.6010  141.6508  159.8678 N   0  0  0  0  0  0  0  0  0  0  0  0
  154.5111  140.6707  160.2041 C   0  0  0  0  0  0  0  0  0  0  0  0
  154.6646  140.7064  161.5602 C   0  0  0  0  0  0  0  0  0  0  0  0
  153.8001  141.7597  161.9700 C   0  0  0  0  0  0  0  0  0  0  0  0
  153.1678  142.3254  160.9547 N   0  0  0  0  0  0  0  0  0  0  0  0
  150.9987  142.3425  157.3195 N   0  0  0  0  0  0  0  0  0  0  0  0
  151.0930  141.2317  156.5712 C   0  0  0  0  0  0  0  0  0  0  0  0
  151.7175  140.2327  156.9284 O   0  0  0  0  0  0  0  0  0  0  0  0
  150.3571  141.2408  155.2187 C   0  0  2  0  0  0  0  0  0  0  0  0
  148.8256  141.0966  155.3448 C   0  0  0  0  0  0  0  0  0  0  0  0
  148.5018  139.8124  154.5987 C   0  0  0  0  0  0  0  0  0  0  0  0
  149.8302  139.0717  154.6021 C   0  0  0  0  0  0  0  0  0  0  0  0
  150.7666  140.1235  154.4263 O   0  0  0  0  0  0  0  0  0  0  0  0
  152.1471  144.2648  159.8839 H   0  0  0  0  0  0  0  0  0  0  0  0
  150.6476  144.4604  158.9865 H   0  0  0  0  0  0  0  0  0  0  0  0
  152.1956  144.6454  158.1644 H   0  0  0  0  0  0  0  0  0  0  0  0
  151.1248  142.0540  159.3923 H   0  0  0  0  0  0  0  0  0  0  0  0
  153.1356  141.1148  157.9159 H   0  0  0  0  0  0  0  0  0  0  0  0
  153.7803  142.7298  158.1098 H   0  0  0  0  0  0  0  0  0  0  0  0
  154.9631  140.0321  159.4593 H   0  0  0  0  0  0  0  0  0  0  0  0
  155.2973  140.0760  162.1671 H   0  0  0  0  0  0  0  0  0  0  0  0
  153.6143  142.1279  162.9682 H   0  0  0  0  0  0  0  0  0  0  0  0
  150.4511  143.1063  156.9497 H   0  0  0  0  0  0  0  0  0  0  0  0
  150.6194  142.1587  154.6917 H   0  0  0  0  0  0  0  0  0  0  0  0
  148.5008  141.0099  156.3827 H   0  0  0  0  0  0  0  0  0  0  0  0
  148.3008  141.9486  154.9119 H   0  0  0  0  0  0  0  0  0  0  0  0
  147.6953  139.2410  155.0593 H   0  0  0  0  0  0  0  0  0  0  0  0
  148.2119  140.0432  153.5728 H   0  0  0  0  0  0  0  0  0  0  0  0
  149.9997  138.5763  155.5592 H   0  0  0  0  0  0  0  0  0  0  0  0
  149.9037  138.3282  153.8084 H   0  0  0  0  0  0  0  0  0  0  0  0
  1  2  1  0  0  0  0
  1 17  1  0  0  0  0
  1 18  1  0  0  0  0
  1 19  1  0  0  0  0
  2  3  1  0  0  0  0
  2  9  1  0  0  0  0
  2 20  1  0  0  0  0
  3  4  1  0  0  0  0
  3 21  1  0  0  0  0
  3 22  1  0  0  0  0
  4  8  1  0  0  0  0
  4  5  1  0  0  0  0
  5  6  2  0  0  0  0
  5 23  1  0  0  0  0
  6  7  1  0  0  0  0
  6 24  1  0  0  0  0
  7  8  2  0  0  0  0
  7 25  1  0  0  0  0
  9 10  1  0  0  0  0
  9 26  1  0  0  0  0
 10 11  2  0  0  0  0
 10 12  1  0  0  0  0
 12 16  1  0  0  0  0
 12 13  1  0  0  0  0
 12 27  1  0  0  0  0
 13 14  1  0  0  0  0
 13 28  1  0  0  0  0
 13 29  1  0  0  0  0
 14 15  1  0  0  0  0
 14 30  1  0  0  0  0
 14 31  1  0  0  0  0
 15 16  1  0  0  0  0
 15 32  1  0  0  0  0
 15 33  1  0  0  0  0
M  END
> <s_m_source_file>
AV-unprocessed.smi

> <i_m_source_file_index>
3220

> <i_lp_mmshare_version>
43012

> <i_f3d_flags>
0

> <s_epik_input>
bjFbY0hdW2NIXVtjSF1uMVtDSDJdW0NAQEhdKFtDSDNdKVtOSF1DKD1PKVtDQEBIXTJbQ0gyXVtDSDJdW0NIMl1PMg==

> <s_epik_cmdline>
J2VwaWtfcHl0aG9uJywgJy1waCcsICc3LjAnLCAnLXRuJywgJzgnLCAnLW1hJywgJzIwMCcsICctbWV0YWxfYmluZGluZycsICctaW1hZScsICc8aW5maWxlLm1hZT4nLCAnLW9tYWUnLCAnPG91dGZpbGUubWFlPic=

> <r_lp_tautomer_probability>
1

> <r_epik_Ionization_Penalty>
0.00033363

> <r_epik_Ionization_Penalty_Charging>
0

> <r_epik_Ionization_Penalty_Neutral>
0.00033363

> <r_epik_State_Penalty>
-0

> <r_epik_Charging_Adjusted_Penalty>
0

> <i_epik_Tot_Q>
0

> <i_epik_Tot_abs_Q>
0

> <r_epik_Metal_State_Penalty>
-0

> <b_epik_Metal_Only>
0

> <s_lp_Force_Field>
OPLS_2005

> <r_lp_Energy>
17.2779

> <b_lp_Chiralities_Consistent>
1

> <s_lp_Variant>
AV-unprocessed.smi:3220-1

> <Gold.Version>
5.8.1

> <Gold.Id.Protein>
6NUR|6NUR_protein|mol2

> <Gold.PLP.Fitness>
42.7101

> <Gold.PLP.PLP>
-39.1272

> <Gold.PLP.part.hbond>
-2.0000

> <Gold.PLP.part.metal>
0.0000

> <Gold.PLP.part.buried>
-5.1146

> <Gold.PLP.part.nonpolar>
-31.0675

> <Gold.PLP.part.repulsive>
0.1946

> <Gold.PLP.ligand.clash>
0.0000

> <Gold.PLP.ligand.torsion>
1.2191

> <Gold.PLP.Chemscore.Hbond>
2.0000

> <Gold.PLP.Chemscore.CHOScore>
0.0000

> <Gold.PLP.Chemscore.Metal>
0.0000

> <Gold.Chemscore.Hbonds>
donor molecule, donor type, donor heavy atom, donor atom, acceptor molecule, acceptor atom, score
      P1  H  7989  7998       L1    16  0.72

> <Gold.PLP.Chemscore.Internal.Correction>
0.0212

> <Gold.Rescore>
     Score         DG    S(hbond)    S(metal)    S(lipo)     H(rot)  DE(clash)    DE(int)     intcor
     15.13     -18.10       1.93        0.00      88.32       1.62       0.03       2.94       ----

> <Gold.Chemscore.Fitness>
15.1314

> <Gold.Chemscore.DG>
-18.1017

> <Gold.Chemscore.ZeroCoef>
-5.4800

> <Gold.Chemscore.Hbond>
1.9284

> <Gold.Chemscore.Metal>
0.0000

> <Gold.Chemscore.Lipo>
88.3156

> <Gold.Chemscore.Internal_Hbond>
0.0000

> <Gold.Chemscore.DEClash>
0.0322

> <Gold.Chemscore.DEInternal>
2.9381

> <Gold.Chemscore.Rot>
1.6219

> <Gold.Chemscore.Internal.Correction>
   9.000000E+99

> <Gold.Chemscore.Hbonds>
donor molecule, donor type, donor heavy atom, donor atom, acceptor molecule, acceptor atom, score
      P1  H  7989  7998       L1    16  0.12

> <Gold.Chemscore.Hbond.Weighted>
-6.4407

> <Gold.Chemscore.Metal.Weighted>
-0.0000

> <Gold.Chemscore.Lipo.Weighted>
-10.3329

> <Gold.Chemscore.Internal_Hbond.Weighted>
0.0000

> <Gold.Chemscore.DEClash.Weighted>
0.0322

> <Gold.Chemscore.DEInternal.Weighted>
2.9381

> <Gold.Chemscore.Rot.Weighted>
4.1520

> <Gold.Chemscore.Internal.Correction.Weighted>
   9.000000E+99

> <Gold.Protein.RotatedTorsions>
[ 6907 6896 6895 6894 ] final  120.36 input  -60.11 | X-H torsion
[ 7974 7965 7964 7962 ] final  114.88 input  175.53 | X-H torsion
[ 8008 7997 7996 7995 ] final  174.23 input   59.86 | X-H torsion
[ 10167 10162 10161 10158 ] final  -58.41 input  -65.29 | X-H torsion
[ 10718 10713 10712 10709 ] final  129.00 input   66.30 | X-H torsion
[ 10763 10752 10751 10750 ] final   53.27 input  -60.55 | X-H torsion
[ 11005 11000 10999 10996 ] final  -50.85 input  -57.11 | X-H torsion

> <Gold.Protein.ActiveResidues>
 VAL166  LYS551  ARG553  GLY616  TRP617  ASP618  TYR619  PRO620  LYS621  CYS622 
 ASP623  PHE694  ASN695  SER759  ASP760  ASP761  ALA762  ILE779  LEU786  VAL792 
 PHE793  MET794  SER795  GLU796  ALA797  LYS798  CYS799  TRP800  GLU811  SER814 

> <Gold.Protein.RotatedAtoms>
  152.4403  133.7436  159.6654 H   0  0  0  0  0  0  0  0  0  0  0  0  # atno 6907 bound_to 6896
  150.8293  133.8107  159.3111 H   0  0  0  0  0  0  0  0  0  0  0  0  # atno 6908 bound_to 6896
  151.5766  135.1063  160.0059 H   0  0  0  0  0  0  0  0  0  0  0  0  # atno 6909 bound_to 6896
  145.1989  139.2962  143.4329 H   0  0  0  0  0  0  0  0  0  0  0  0  # atno 7974 bound_to 7965
  156.0995  140.1440  156.9486 H   0  0  0  0  0  0  0  0  0  0  0  0  # atno 8008 bound_to 7997
  154.4693  140.0915  156.7149 H   0  0  0  0  0  0  0  0  0  0  0  0  # atno 8009 bound_to 7997
  155.4784  140.3444  155.4338 H   0  0  0  0  0  0  0  0  0  0  0  0  # atno 8010 bound_to 7997
  140.6199  143.2415  151.5507 H   0  0  0  0  0  0  0  0  0  0  0  0  # atno 10167 bound_to 10162
  157.5194  131.1098  150.9176 H   0  0  0  0  0  0  0  0  0  0  0  0  # atno 10718 bound_to 10713
  152.9794  135.5784  154.4714 H   0  0  0  0  0  0  0  0  0  0  0  0  # atno 10763 bound_to 10752
  154.4276  135.2773  155.1936 H   0  0  0  0  0  0  0  0  0  0  0  0  # atno 10764 bound_to 10752
  154.3658  135.6179  153.5768 H   0  0  0  0  0  0  0  0  0  0  0  0  # atno 10765 bound_to 10752
  141.0839  133.6647  156.3791 H   0  0  0  0  0  0  0  0  0  0  0  0  # atno 11005 bound_to 11000
  146.3421  140.2227  142.8591 LP  0  0  0  0  0  0  0  0  0  0  0  0  # atno 17320 bound_to 7965
  144.9967  140.8595  143.5306 LP  0  0  0  0  0  0  0  0  0  0  0  0  # atno 17321 bound_to 7965
  139.5429  144.2597  152.1387 LP  0  0  0  0  0  0  0  0  0  0  0  0  # atno 17342 bound_to 10162
  140.1815  144.4839  150.6526 LP  0  0  0  0  0  0  0  0  0  0  0  0  # atno 17343 bound_to 10162
  156.9791  130.5520  149.5295 LP  0  0  0  0  0  0  0  0  0  0  0  0  # atno 17370 bound_to 10713
  156.0343  130.5432  150.8613 LP  0  0  0  0  0  0  0  0  0  0  0  0  # atno 17371 bound_to 10713
  140.5408  134.6122  157.5379 LP  0  0  0  0  0  0  0  0  0  0  0  0  # atno 17394 bound_to 11000
  139.9655  134.7381  156.0148 LP  0  0  0  0  0  0  0  0  0  0  0  0  # atno 17395 bound_to 11000

$$$$
