AV-unprocessed.smi:49|AV-procd|sdf|480|dock1
  -GOLD-   2262016343D 1   1.00000     0.00000
 Structure written by MMmdl.
 28 29  0  0  0  0  0  0  0  0  2 V2000
  152.6621  143.3254  158.9239 C   0  0  0  0  0  0  0  0  0  0  0  0
  151.5940  143.6979  157.8901 C   0  0  0  0  0  0  0  0  0  0  0  0
  151.1488  142.5271  157.0768 C   0  0  0  0  0  0  0  0  0  0  0  0
  150.2429  142.6465  156.0954 N   0  0  0  0  0  0  0  0  0  0  0  0
  150.1158  141.3892  155.6465 C   0  0  0  0  0  0  0  0  0  0  0  0
  149.1910  141.0520  154.5150 C   0  0  1  0  0  0  0  0  0  0  0  0
  148.1021  140.0307  154.8515 C   0  0  0  0  0  0  0  0  0  0  0  0
  146.9544  140.4746  153.9495 C   0  0  1  0  0  0  0  0  0  0  0  0
  145.7027  140.0209  154.4189 O   0  0  0  0  0  0  0  0  0  0  0  0
  147.0616  142.0037  153.9724 C   0  0  0  0  0  0  0  0  0  0  0  0
  148.4898  142.3121  154.1894 N   0  3  0  0  0  0  0  0  0  0  0  0
  150.8968  140.5215  156.3025 N   0  0  0  0  0  0  0  0  0  0  0  0
  151.5711  141.2715  157.2499 N   0  0  0  0  0  0  0  0  0  0  0  0
  149.7584  140.7323  153.6395 H   0  0  0  0  0  0  0  0  0  0  0  0
  147.1196  140.1068  152.9358 H   0  0  0  0  0  0  0  0  0  0  0  0
  149.7748  143.4819  155.7745 H   0  0  0  0  0  0  0  0  0  0  0  0
  152.9675  144.1999  159.4986 H   0  0  0  0  0  0  0  0  0  0  0  0
  153.5509  142.9175  158.4415 H   0  0  0  0  0  0  0  0  0  0  0  0
  152.2889  142.5788  159.6254 H   0  0  0  0  0  0  0  0  0  0  0  0
  150.7289  144.1349  158.3905 H   0  0  0  0  0  0  0  0  0  0  0  0
  151.9819  144.4633  157.2170 H   0  0  0  0  0  0  0  0  0  0  0  0
  148.4159  138.9990  154.6904 H   0  0  0  0  0  0  0  0  0  0  0  0
  147.8031  140.1324  155.8967 H   0  0  0  0  0  0  0  0  0  0  0  0
  145.0461  140.2053  153.7640 H   0  0  0  0  0  0  0  0  0  0  0  0
  146.6837  142.4633  153.0590 H   0  0  0  0  0  0  0  0  0  0  0  0
  146.5022  142.4173  154.8130 H   0  0  0  0  0  0  0  0  0  0  0  0
  148.5722  142.9511  154.9681 H   0  0  0  0  0  0  0  0  0  0  0  0
  148.8964  142.7269  153.3633 H   0  0  0  0  0  0  0  0  0  0  0  0
  1  2  1  0  0  0  0
  1 17  1  0  0  0  0
  1 18  1  0  0  0  0
  1 19  1  0  0  0  0
  2 20  1  0  0  0  0
  2 21  1  0  0  0  0
  2  3  1  0  0  0  0
  3  4  1  0  0  0  0
  3 13  2  0  0  0  0
  4 16  1  0  0  0  0
  4  5  1  0  0  0  0
  5 12  2  0  0  0  0
  5  6  1  0  0  0  0
  6 14  1  0  0  0  0
  6 11  1  0  0  0  0
  6  7  1  0  0  0  0
  7  8  1  0  0  0  0
  7 22  1  0  0  0  0
  7 23  1  0  0  0  0
  8 15  1  0  0  0  0
  8  9  1  0  0  0  0
  8 10  1  0  0  0  0
  9 24  1  0  0  0  0
 10 11  1  0  0  0  0
 10 25  1  0  0  0  0
 10 26  1  0  0  0  0
 11 27  1  0  0  0  0
 11 28  1  0  0  0  0
 12 13  1  0  0  0  0
M  CHG  1  11   1
M  END
> <s_m_source_file>
AV-unprocessed.smi

> <i_m_source_file_index>
49

> <i_lp_mmshare_version>
43012

> <i_f3d_flags>
0

> <s_epik_input>
W0NIM11bQ0gyXWMxbmMobltuSF0xKVtDQEBIXTJbQ0gyXVtDQEBIXShbT0hdKVtDSDJdW05IXTI=

> <s_epik_cmdline>
J2VwaWtfcHl0aG9uJywgJy1waCcsICc3LjAnLCAnLXRuJywgJzgnLCAnLW1hJywgJzIwMCcsICctbWV0YWxfYmluZGluZycsICctaW1hZScsICc8aW5maWxlLm1hZT4nLCAnLW9tYWUnLCAnPG91dGZpbGUubWFlPic=

> <r_lp_tautomer_probability>
0.0517155

> <r_epik_Ionization_Penalty>
0.939819

> <r_epik_Ionization_Penalty_Charging>
0.0688988

> <r_epik_Ionization_Penalty_Neutral>
0.87092

> <r_epik_State_Penalty>
2.1224

> <r_epik_Charging_Adjusted_Penalty>
2.1913

> <i_epik_Tot_Q>
1

> <i_epik_Tot_abs_Q>
1

> <r_epik_Metal_State_Penalty>
2.39725

> <b_epik_Metal_Only>
0

> <s_lp_Force_Field>
OPLS_2005

> <r_lp_Energy>
21.0642

> <b_lp_Chiralities_Consistent>
1

> <s_lp_Variant>
AV-unprocessed.smi:49-18

> <Gold.Version>
5.8.1

> <Gold.Id.Protein>
6NUR|6NUR_protein|mol2

> <Gold.PLP.Fitness>
37.3879

> <Gold.PLP.PLP>
-25.4200

> <Gold.PLP.part.hbond>
-2.9575

> <Gold.PLP.part.metal>
0.0000

> <Gold.PLP.part.buried>
-5.0893

> <Gold.PLP.part.nonpolar>
-19.6611

> <Gold.PLP.part.repulsive>
2.5531

> <Gold.PLP.ligand.clash>
0.0000

> <Gold.PLP.ligand.torsion>
0.0227

> <Gold.PLP.Chemscore.Hbond>
4.0000

> <Gold.PLP.Chemscore.CHOScore>
0.0000

> <Gold.PLP.Chemscore.Metal>
0.0000

> <Gold.Chemscore.Hbonds>
donor molecule, donor type, donor heavy atom, donor atom, acceptor molecule, acceptor atom, score
      L1  H     4    16       P1  8028  0.99
      L1  H     9    24       P1 10175  1.00
      L1  H    11    27       P1  8028  1.98

> <Gold.PLP.Chemscore.Internal.Correction>
0.0132

> <Gold.Rescore>
     Score         DG    S(hbond)    S(metal)    S(lipo)     H(rot)  DE(clash)    DE(int)     intcor
     15.15     -16.39       2.94        0.00      50.70       1.89       1.20       0.04       ----

> <Gold.Chemscore.Fitness>
15.1476

> <Gold.Chemscore.DG>
-16.3908

> <Gold.Chemscore.ZeroCoef>
-5.4800

> <Gold.Chemscore.Hbond>
2.9380

> <Gold.Chemscore.Metal>
0.0000

> <Gold.Chemscore.Lipo>
50.7008

> <Gold.Chemscore.Internal_Hbond>
0.0000

> <Gold.Chemscore.DEClash>
1.2000

> <Gold.Chemscore.DEInternal>
0.0432

> <Gold.Chemscore.Rot>
1.8883

> <Gold.Chemscore.Internal.Correction>
   9.000000E+99

> <Gold.Chemscore.Hbonds>
donor molecule, donor type, donor heavy atom, donor atom, acceptor molecule, acceptor atom, score
      L1  H     4    16       P1  8028  0.92
      L1  H     9    24       P1 10175  1.00
      L1  H    11    27       P1  8028  0.94

> <Gold.Chemscore.Hbond.Weighted>
-9.8128

> <Gold.Chemscore.Metal.Weighted>
-0.0000

> <Gold.Chemscore.Lipo.Weighted>
-5.9320

> <Gold.Chemscore.Internal_Hbond.Weighted>
0.0000

> <Gold.Chemscore.DEClash.Weighted>
1.2000

> <Gold.Chemscore.DEInternal.Weighted>
0.0432

> <Gold.Chemscore.Rot.Weighted>
4.8340

> <Gold.Chemscore.Internal.Correction.Weighted>
   9.000000E+99

> <Gold.Protein.RotatedTorsions>
[ 6907 6896 6895 6894 ] final -158.91 input  -60.11 | X-H torsion
[ 7974 7965 7964 7962 ] final  136.25 input  175.53 | X-H torsion
[ 8008 7997 7996 7995 ] final  150.53 input   59.86 | X-H torsion
[ 10167 10162 10161 10158 ] final -131.57 input  -65.29 | X-H torsion
[ 10718 10713 10712 10709 ] final -124.19 input   66.30 | X-H torsion
[ 10763 10752 10751 10750 ] final    6.70 input  -60.55 | X-H torsion
[ 11005 11000 10999 10996 ] final  -52.58 input  -57.11 | X-H torsion

> <Gold.Protein.ActiveResidues>
 VAL166  LYS551  ARG553  GLY616  TRP617  ASP618  TYR619  PRO620  LYS621  CYS622 
 ASP623  PHE694  ASN695  SER759  ASP760  ASP761  ALA762  ILE779  LEU786  VAL792 
 PHE793  MET794  SER795  GLU796  ALA797  LYS798  CYS799  TRP800  GLU811  SER814 

> <Gold.Protein.RotatedAtoms>
  151.3254  133.4022  159.2657 H   0  0  0  0  0  0  0  0  0  0  0  0  # atno 6907 bound_to 6896
  150.9999  134.9314  159.7958 H   0  0  0  0  0  0  0  0  0  0  0  0  # atno 6908 bound_to 6896
  152.5272  134.3219  159.9204 H   0  0  0  0  0  0  0  0  0  0  0  0  # atno 6909 bound_to 6896
  144.9583  139.4739  143.5492 H   0  0  0  0  0  0  0  0  0  0  0  0  # atno 7974 bound_to 7965
  156.2712  140.2072  156.6031 H   0  0  0  0  0  0  0  0  0  0  0  0  # atno 8008 bound_to 7997
  154.6891  140.0532  157.0368 H   0  0  0  0  0  0  0  0  0  0  0  0  # atno 8009 bound_to 7997
  155.0892  140.3194  155.4581 H   0  0  0  0  0  0  0  0  0  0  0  0  # atno 8010 bound_to 7997
  139.9175  143.6421  152.2561 H   0  0  0  0  0  0  0  0  0  0  0  0  # atno 10167 bound_to 10162
  156.1567  130.6573  150.9991 H   0  0  0  0  0  0  0  0  0  0  0  0  # atno 10718 bound_to 10713
  153.2447  135.6907  153.7744 H   0  0  0  0  0  0  0  0  0  0  0  0  # atno 10763 bound_to 10752
  153.6860  135.3320  155.3191 H   0  0  0  0  0  0  0  0  0  0  0  0  # atno 10764 bound_to 10752
  154.8370  135.4534  154.1383 H   0  0  0  0  0  0  0  0  0  0  0  0  # atno 10765 bound_to 10752
  141.0932  133.6629  156.4045 H   0  0  0  0  0  0  0  0  0  0  0  0  # atno 11005 bound_to 11000
  146.3344  139.8716  142.8839 LP  0  0  0  0  0  0  0  0  0  0  0  0  # atno 17320 bound_to 7965
  145.2738  141.0117  143.3756 LP  0  0  0  0  0  0  0  0  0  0  0  0  # atno 17321 bound_to 7965
  139.6889  144.7649  151.1473 LP  0  0  0  0  0  0  0  0  0  0  0  0  # atno 17342 bound_to 10162
  140.7670  143.5617  150.9092 LP  0  0  0  0  0  0  0  0  0  0  0  0  # atno 17343 bound_to 10162
  157.6700  131.0863  150.7635 LP  0  0  0  0  0  0  0  0  0  0  0  0  # atno 17370 bound_to 10713
  156.7700  130.4825  149.5420 LP  0  0  0  0  0  0  0  0  0  0  0  0  # atno 17371 bound_to 10713
  140.5203  134.6310  157.5316 LP  0  0  0  0  0  0  0  0  0  0  0  0  # atno 17394 bound_to 11000
  139.9762  134.7212  155.9945 LP  0  0  0  0  0  0  0  0  0  0  0  0  # atno 17395 bound_to 11000

$$$$
