AV-unprocessed.smi:1120|AV-procd|sdf|4820|dock5
  -GOLD-   22720 3373D 1   1.00000     0.00000
 Structure written by MMmdl.
 49 50  0  0  0  0  0  0  0  0  2 V2000
  146.2448  131.3769  155.9514 C   0  0  0  0  0  0  0  0  0  0  0  0
  147.0259  132.5532  155.3486 C   0  0  2  0  0  0  0  0  0  0  0  0
  148.3335  132.0807  154.6836 C   0  0  0  0  0  0  0  0  0  0  0  0
  149.1189  133.2559  154.0790 C   0  0  0  0  0  0  0  0  0  0  0  0
  149.4035  134.3370  155.1352 C   0  0  1  0  0  0  0  0  0  0  0  0
  150.0880  135.4712  154.5119 N   0  0  0  0  0  0  0  0  0  0  0  0
  150.7602  136.7531  155.4540 S   0  0  0  0  0  0  0  0  0  0  0  0
  149.6387  137.4439  156.1086 O   0  0  0  0  0  0  0  0  0  0  0  0
  151.8473  136.1730  156.2582 O   0  0  0  0  0  0  0  0  0  0  0  0
  151.4820  137.8819  154.1758 C   0  0  0  0  0  0  0  0  0  0  0  0
  151.9553  139.1898  154.8087 C   0  0  0  0  0  0  0  0  0  0  0  0
  153.1448  139.5016  154.7622 O   0  0  0  0  0  0  0  0  0  0  0  0
  151.0176  139.9451  155.4009 N   0  0  0  0  0  0  0  0  0  0  0  0
  151.2625  141.2303  156.0431 C   0  0  0  0  0  0  0  0  0  0  0  0
  150.6280  141.2951  157.4427 C   0  0  0  0  0  0  0  0  0  0  0  0
  151.1511  142.4643  158.2536 C   0  0  0  0  0  0  0  0  0  0  0  0
  152.0730  142.2922  159.3087 C   0  0  0  0  0  0  0  0  0  0  0  0
  152.5119  143.4214  160.0313 C   0  0  0  0  0  0  0  0  0  0  0  0
  152.0195  144.6968  159.6850 C   0  0  0  0  0  0  0  0  0  0  0  0
  151.0988  144.8107  158.6234 C   0  0  0  0  0  0  0  0  0  0  0  0
  150.7024  143.7052  157.9552 N   0  3  0  0  0  0  0  0  0  0  0  0
  148.1050  134.8133  155.8100 C   0  0  0  0  0  0  0  0  0  0  0  0
  147.3206  133.6341  156.4068 C   0  0  0  0  0  0  0  0  0  0  0  0
  146.8152  130.8829  156.7387 H   0  0  0  0  0  0  0  0  0  0  0  0
  146.0109  130.6304  155.1922 H   0  0  0  0  0  0  0  0  0  0  0  0
  145.3019  131.7124  156.3842 H   0  0  0  0  0  0  0  0  0  0  0  0
  146.3992  133.0013  154.5761 H   0  0  0  0  0  0  0  0  0  0  0  0
  148.9565  131.5681  155.4178 H   0  0  0  0  0  0  0  0  0  0  0  0
  148.1133  131.3511  153.9036 H   0  0  0  0  0  0  0  0  0  0  0  0
  150.0556  132.8926  153.6543 H   0  0  0  0  0  0  0  0  0  0  0  0
  148.5498  133.6842  153.2526 H   0  0  0  0  0  0  0  0  0  0  0  0
  150.0560  133.9087  155.8971 H   0  0  0  0  0  0  0  0  0  0  0  0
  149.7678  135.7356  153.5809 H   0  0  0  0  0  0  0  0  0  0  0  0
  152.2896  137.3748  153.6492 H   0  0  0  0  0  0  0  0  0  0  0  0
  150.7006  138.0996  153.4472 H   0  0  0  0  0  0  0  0  0  0  0  0
  150.0656  139.6084  155.3994 H   0  0  0  0  0  0  0  0  0  0  0  0
  152.3413  141.3701  156.1153 H   0  0  0  0  0  0  0  0  0  0  0  0
  150.8846  142.0376  155.4135 H   0  0  0  0  0  0  0  0  0  0  0  0
  149.5432  141.3800  157.3644 H   0  0  0  0  0  0  0  0  0  0  0  0
  150.8240  140.3694  157.9857 H   0  0  0  0  0  0  0  0  0  0  0  0
  152.4379  141.3079  159.5643 H   0  0  0  0  0  0  0  0  0  0  0  0
  153.2169  143.3096  160.8420 H   0  0  0  0  0  0  0  0  0  0  0  0
  152.3426  145.5739  160.2264 H   0  0  0  0  0  0  0  0  0  0  0  0
  150.6703  145.7449  158.2911 H   0  0  0  0  0  0  0  0  0  0  0  0
  148.3315  135.5336  156.5961 H   0  0  0  0  0  0  0  0  0  0  0  0
  147.4787  135.3334  155.0838 H   0  0  0  0  0  0  0  0  0  0  0  0
  146.3875  133.9986  156.8378 H   0  0  0  0  0  0  0  0  0  0  0  0
  147.8906  133.1994  157.2293 H   0  0  0  0  0  0  0  0  0  0  0  0
  150.0350  143.8115  157.1910 H   0  0  0  0  0  0  0  0  0  0  0  0
  1  2  1  0  0  0  0
  1 24  1  0  0  0  0
  1 25  1  0  0  0  0
  1 26  1  0  0  0  0
  2 23  1  0  0  0  0
  2  3  1  0  0  0  0
  2 27  1  0  0  0  0
  3  4  1  0  0  0  0
  3 28  1  0  0  0  0
  3 29  1  0  0  0  0
  4  5  1  0  0  0  0
  4 30  1  0  0  0  0
  4 31  1  0  0  0  0
  5  6  1  0  0  0  0
  5 22  1  0  0  0  0
  5 32  1  0  0  0  0
  6  7  1  0  0  0  0
  6 33  1  0  0  0  0
  7  8  2  0  0  0  0
  7  9  2  0  0  0  0
  7 10  1  0  0  0  0
 10 11  1  0  0  0  0
 10 34  1  0  0  0  0
 10 35  1  0  0  0  0
 11 12  2  0  0  0  0
 11 13  1  0  0  0  0
 13 14  1  0  0  0  0
 13 36  1  0  0  0  0
 14 15  1  0  0  0  0
 14 37  1  0  0  0  0
 14 38  1  0  0  0  0
 15 16  1  0  0  0  0
 15 39  1  0  0  0  0
 15 40  1  0  0  0  0
 16 21  1  0  0  0  0
 16 17  2  0  0  0  0
 17 18  1  0  0  0  0
 17 41  1  0  0  0  0
 18 19  2  0  0  0  0
 18 42  1  0  0  0  0
 19 20  1  0  0  0  0
 19 43  1  0  0  0  0
 20 21  2  0  0  0  0
 20 44  1  0  0  0  0
 21 49  1  0  0  0  0
 22 23  1  0  0  0  0
 22 45  1  0  0  0  0
 22 46  1  0  0  0  0
 23 47  1  0  0  0  0
 23 48  1  0  0  0  0
M  CHG  1  21   1
M  END
> <s_m_source_file>
AV-unprocessed.smi

> <i_m_source_file_index>
1120

> <i_lp_mmshare_version>
43012

> <i_f3d_flags>
0

> <s_epik_input>
W0NIM11bQ0BASF0xW0NIMl1bQ0gyXVtDQEhdKFtDSDJdW0NIMl0xKVtOSF1TKD1PKSg9TylbQ0gyXUMoPU8pW05IXVtDSDJdW0NIMl1jMltjSF1bY0hdW2NIXVtjSF1uMg==

> <s_epik_cmdline>
J2VwaWtfcHl0aG9uJywgJy1waCcsICc3LjAnLCAnLXRuJywgJzgnLCAnLW1hJywgJzIwMCcsICctbWV0YWxfYmluZGluZycsICctaW1hZScsICc8aW5maWxlLm1hZT4nLCAnLW9tYWUnLCAnPG91dGZpbGUubWFlPic=

> <r_epik_Ionization_Penalty>
1.97387

> <r_epik_Ionization_Penalty_Charging>
1.97382

> <r_epik_Ionization_Penalty_Neutral>
4.57635e-05

> <r_epik_State_Penalty>
2.10057

> <r_epik_Charging_Adjusted_Penalty>
4.07439

> <i_epik_Tot_Q>
1

> <i_epik_Tot_abs_Q>
1

> <r_epik_Metal_State_Penalty>
2.15877

> <b_epik_Metal_Only>
0

> <s_lp_Force_Field>
OPLS_2005

> <r_lp_Energy>
9.01473

> <b_lp_Chiralities_Consistent>
1

> <s_lp_Variant>
AV-unprocessed.smi:1120-3

> <Gold.Version>
5.8.1

> <Gold.Id.Protein>
6NUR|6NUR_protein|mol2

> <Gold.PLP.Fitness>
54.7792

> <Gold.PLP.PLP>
-41.6798

> <Gold.PLP.part.hbond>
-5.4096

> <Gold.PLP.part.metal>
0.0000

> <Gold.PLP.part.buried>
-4.6704

> <Gold.PLP.part.nonpolar>
-31.8143

> <Gold.PLP.part.repulsive>
0.2865

> <Gold.PLP.ligand.clash>
0.0000

> <Gold.PLP.ligand.torsion>
1.1027

> <Gold.PLP.Chemscore.Hbond>
4.7000

> <Gold.PLP.Chemscore.CHOScore>
0.0000

> <Gold.PLP.Chemscore.Metal>
0.0000

> <Gold.Chemscore.Hbonds>
donor molecule, donor type, donor heavy atom, donor atom, acceptor molecule, acceptor atom, score
      L1  H     6    33       P1  7948  0.70
      L1  H    21    49       P1  8028  1.66
      P1  H  7997  8009       L1    12  1.00
      P1  H 10752 10763       L1     9  1.00

> <Gold.PLP.Chemscore.Internal.Correction>
1.2049

> <Gold.Rescore>
     Score         DG    S(hbond)    S(metal)    S(lipo)     H(rot)  DE(clash)    DE(int)     intcor
     21.31     -23.89       3.74        0.00      95.46       2.05       0.53       2.05       ----

> <Gold.Chemscore.Fitness>
21.3092

> <Gold.Chemscore.DG>
-23.8902

> <Gold.Chemscore.ZeroCoef>
-5.4800

> <Gold.Chemscore.Hbond>
3.7366

> <Gold.Chemscore.Metal>
0.0000

> <Gold.Chemscore.Lipo>
95.4559

> <Gold.Chemscore.Internal_Hbond>
0.0000

> <Gold.Chemscore.DEClash>
0.5264

> <Gold.Chemscore.DEInternal>
2.0545

> <Gold.Chemscore.Rot>
2.0463

> <Gold.Chemscore.Internal.Correction>
   9.000000E+99

> <Gold.Chemscore.Hbonds>
donor molecule, donor type, donor heavy atom, donor atom, acceptor molecule, acceptor atom, score
      L1  H     6    33       P1  7948  0.07
      L1  H    21    49       P1  8028  0.74
      P1  H  7997  8009       L1    12  0.99
      P1  H 10752 10763       L1     9  0.70

> <Gold.Chemscore.Hbond.Weighted>
-12.4804

> <Gold.Chemscore.Metal.Weighted>
-0.0000

> <Gold.Chemscore.Lipo.Weighted>
-11.1683

> <Gold.Chemscore.Internal_Hbond.Weighted>
0.0000

> <Gold.Chemscore.DEClash.Weighted>
0.5264

> <Gold.Chemscore.DEInternal.Weighted>
2.0545

> <Gold.Chemscore.Rot.Weighted>
5.2386

> <Gold.Chemscore.Internal.Correction.Weighted>
   9.000000E+99

> <Gold.Protein.RotatedTorsions>
[ 6907 6896 6895 6894 ] final  -22.50 input  -60.11 | X-H torsion
[ 7974 7965 7964 7962 ] final    7.52 input  175.53 | X-H torsion
[ 8008 7997 7996 7995 ] final -116.84 input   59.86 | X-H torsion
[ 10167 10162 10161 10158 ] final  -46.37 input  -65.29 | X-H torsion
[ 10718 10713 10712 10709 ] final  -89.60 input   66.30 | X-H torsion
[ 10763 10752 10751 10750 ] final   91.84 input  -60.55 | X-H torsion
[ 11005 11000 10999 10996 ] final -130.69 input  -57.11 | X-H torsion

> <Gold.Protein.ActiveResidues>
 VAL166  LYS551  ARG553  GLY616  TRP617  ASP618  TYR619  PRO620  LYS621  CYS622 
 ASP623  PHE694  ASN695  SER759  ASP760  ASP761  ALA762  ILE779  LEU786  VAL792 
 PHE793  MET794  SER795  GLU796  ALA797  LYS798  CYS799  TRP800  GLU811  SER814 

> <Gold.Protein.RotatedAtoms>
  151.2178  135.0506  159.8936 H   0  0  0  0  0  0  0  0  0  0  0  0  # atno 6907 bound_to 6896
  152.5418  134.0674  159.8189 H   0  0  0  0  0  0  0  0  0  0  0  0  # atno 6908 bound_to 6896
  151.0836  133.5322  159.2651 H   0  0  0  0  0  0  0  0  0  0  0  0  # atno 6909 bound_to 6896
  146.2426  140.0070  142.8410 H   0  0  0  0  0  0  0  0  0  0  0  0  # atno 7974 bound_to 7965
  155.0743  140.0393  157.2618 H   0  0  0  0  0  0  0  0  0  0  0  0  # atno 8008 bound_to 7997
  154.6958  140.2663  155.6743 H   0  0  0  0  0  0  0  0  0  0  0  0  # atno 8009 bound_to 7997
  156.2744  140.2750  156.1551 H   0  0  0  0  0  0  0  0  0  0  0  0  # atno 8010 bound_to 7997
  140.6820  143.2834  151.3773 H   0  0  0  0  0  0  0  0  0  0  0  0  # atno 10167 bound_to 10162
  155.9985  130.4878  150.5196 H   0  0  0  0  0  0  0  0  0  0  0  0  # atno 10718 bound_to 10713
  153.2126  135.4383  155.0397 H   0  0  0  0  0  0  0  0  0  0  0  0  # atno 10763 bound_to 10752
  154.8208  135.3337  154.7046 H   0  0  0  0  0  0  0  0  0  0  0  0  # atno 10764 bound_to 10752
  153.7483  135.7000  153.5007 H   0  0  0  0  0  0  0  0  0  0  0  0  # atno 10765 bound_to 10752
  140.9324  134.1302  157.4223 H   0  0  0  0  0  0  0  0  0  0  0  0  # atno 11005 bound_to 11000
  145.1362  140.9546  143.4515 LP  0  0  0  0  0  0  0  0  0  0  0  0  # atno 17320 bound_to 7965
  145.0339  139.3317  143.6010 LP  0  0  0  0  0  0  0  0  0  0  0  0  # atno 17321 bound_to 7965
  139.6149  144.1022  152.2336 LP  0  0  0  0  0  0  0  0  0  0  0  0  # atno 17342 bound_to 10162
  140.0448  144.5979  150.7382 LP  0  0  0  0  0  0  0  0  0  0  0  0  # atno 17343 bound_to 10162
  157.3159  131.0672  151.1967 LP  0  0  0  0  0  0  0  0  0  0  0  0  # atno 17370 bound_to 10713
  157.2897  130.6790  149.6108 LP  0  0  0  0  0  0  0  0  0  0  0  0  # atno 17371 bound_to 10713
  139.8799  135.0009  156.6039 LP  0  0  0  0  0  0  0  0  0  0  0  0  # atno 17394 bound_to 11000
  140.7845  133.8633  155.8595 LP  0  0  0  0  0  0  0  0  0  0  0  0  # atno 17395 bound_to 11000

$$$$
