AV-unprocessed.smi:2365|AV-procd|sdf|9419|dock7
  -GOLD-   2272013 53D 1   1.00000     0.00000
 Structure written by MMmdl.
 29 30  0  0  0  0  0  0  0  0  1 V2000
  149.6332  138.9743  154.0980 C   0  0  0  0  0  0  0  0  0  0  0  0
  149.8653  139.7294  155.4106 C   0  0  2  0  0  0  0  0  0  0  0  0
  148.7891  140.7553  155.7453 C   0  0  0  0  0  0  0  0  0  0  0  0
  149.5043  141.6975  156.6992 C   0  0  0  0  0  0  0  0  0  0  0  0
  150.9993  141.5123  156.3680 C   0  0  1  0  0  0  0  0  0  0  0  0
  151.8360  141.0426  157.5724 C   0  0  0  0  0  0  0  0  0  0  0  0
  152.4718  139.9917  157.4921 O   0  0  0  0  0  0  0  0  0  0  0  0
  151.8171  141.8316  158.6628 N   0  0  0  0  0  0  0  0  0  0  0  0
  152.5211  141.6634  159.8856 C   0  0  0  0  0  0  0  0  0  0  0  0
  153.3117  140.5242  160.1737 C   0  0  0  0  0  0  0  0  0  0  0  0
  153.9642  140.3471  161.3419 N   0  0  0  0  0  0  0  0  0  0  0  0
  153.8492  141.3067  162.2830 C   0  0  0  0  0  0  0  0  0  0  0  0
  153.0783  142.4727  162.1103 C   0  0  0  0  0  0  0  0  0  0  0  0
  152.9850  143.6424  163.3785 Cl  0  0  0  0  0  0  0  0  0  0  0  0
  152.3952  142.6526  160.8879 C   0  0  0  0  0  0  0  0  0  0  0  0
  151.4298  144.0650  160.6190 Cl  0  0  0  0  0  0  0  0  0  0  0  0
  151.0311  140.5347  155.3251 O   0  0  0  0  0  0  0  0  0  0  0  0
  148.7200  138.3812  154.1450 H   0  0  0  0  0  0  0  0  0  0  0  0
  150.4610  138.2962  153.8894 H   0  0  0  0  0  0  0  0  0  0  0  0
  149.5451  139.6611  153.2560 H   0  0  0  0  0  0  0  0  0  0  0  0
  149.9786  139.0229  156.2349 H   0  0  0  0  0  0  0  0  0  0  0  0
  148.4932  141.2986  154.8468 H   0  0  0  0  0  0  0  0  0  0  0  0
  147.8953  140.3065  156.1794 H   0  0  0  0  0  0  0  0  0  0  0  0
  149.1797  142.7289  156.5583 H   0  0  0  0  0  0  0  0  0  0  0  0
  149.2740  141.4218  157.7296 H   0  0  0  0  0  0  0  0  0  0  0  0
  151.4309  142.4388  155.9882 H   0  0  0  0  0  0  0  0  0  0  0  0
  151.3214  142.7060  158.5605 H   0  0  0  0  0  0  0  0  0  0  0  0
  153.4165  139.7143  159.4683 H   0  0  0  0  0  0  0  0  0  0  0  0
  154.3853  141.1359  163.2050 H   0  0  0  0  0  0  0  0  0  0  0  0
  1  2  1  0  0  0  0
  1 18  1  0  0  0  0
  1 19  1  0  0  0  0
  1 20  1  0  0  0  0
  2 17  1  0  0  0  0
  2  3  1  0  0  0  0
  2 21  1  0  0  0  0
  3  4  1  0  0  0  0
  3 22  1  0  0  0  0
  3 23  1  0  0  0  0
  4  5  1  0  0  0  0
  4 24  1  0  0  0  0
  4 25  1  0  0  0  0
  5  6  1  0  0  0  0
  5 17  1  0  0  0  0
  5 26  1  0  0  0  0
  6  7  2  0  0  0  0
  6  8  1  0  0  0  0
  8  9  1  0  0  0  0
  8 27  1  0  0  0  0
  9 15  1  0  0  0  0
  9 10  2  0  0  0  0
 10 11  1  0  0  0  0
 10 28  1  0  0  0  0
 11 12  2  0  0  0  0
 12 13  1  0  0  0  0
 12 29  1  0  0  0  0
 13 14  1  0  0  0  0
 13 15  2  0  0  0  0
 15 16  1  0  0  0  0
M  END
> <s_m_source_file>
AV-unprocessed.smi

> <i_m_source_file_index>
2365

> <i_lp_mmshare_version>
43012

> <i_f3d_flags>
0

> <s_epik_input>
W0NIM11bQ0BASF0xW0NIMl1bQ0gyXVtDQEhdKE8xKUMoPU8pW05IXWMyW2NIXW5bY0hdYyhDbCljMkNs

> <s_epik_cmdline>
J2VwaWtfcHl0aG9uJywgJy1waCcsICc3LjAnLCAnLXRuJywgJzgnLCAnLW1hJywgJzIwMCcsICctbWV0YWxfYmluZGluZycsICctaW1hZScsICc8aW5maWxlLm1hZT4nLCAnLW9tYWUnLCAnPG91dGZpbGUubWFlPic=

> <r_lp_tautomer_probability>
1

> <r_epik_Ionization_Penalty>
7.32461e-06

> <r_epik_Ionization_Penalty_Charging>
0

> <r_epik_Ionization_Penalty_Neutral>
7.32461e-06

> <r_epik_State_Penalty>
-0

> <r_epik_Charging_Adjusted_Penalty>
0

> <i_epik_Tot_Q>
0

> <i_epik_Tot_abs_Q>
0

> <r_epik_Metal_State_Penalty>
-0

> <b_epik_Metal_Only>
0

> <s_lp_Force_Field>
OPLS_2005

> <r_lp_Energy>
23.4255

> <b_lp_Chiralities_Consistent>
1

> <s_lp_Variant>
AV-unprocessed.smi:2365-1

> <Gold.Version>
5.8.1

> <Gold.Id.Protein>
6NUR|6NUR_protein|mol2

> <Gold.PLP.Fitness>
42.5340

> <Gold.PLP.PLP>
-36.7462

> <Gold.PLP.part.hbond>
-2.0000

> <Gold.PLP.part.metal>
0.0000

> <Gold.PLP.part.buried>
-3.6798

> <Gold.PLP.part.nonpolar>
-30.2918

> <Gold.PLP.part.repulsive>
0.1263

> <Gold.PLP.ligand.clash>
0.0000

> <Gold.PLP.ligand.torsion>
0.0254

> <Gold.PLP.Chemscore.Hbond>
1.9440

> <Gold.PLP.Chemscore.CHOScore>
0.0000

> <Gold.PLP.Chemscore.Metal>
0.0000

> <Gold.Chemscore.Hbonds>
donor molecule, donor type, donor heavy atom, donor atom, acceptor molecule, acceptor atom, score
      P1  H  7989  7998       L1    17  0.94
      P1  H  7997  8009       L1     7  0.88

> <Gold.PLP.Chemscore.Internal.Correction>
0.0066

> <Gold.Rescore>
     Score         DG    S(hbond)    S(metal)    S(lipo)     H(rot)  DE(clash)    DE(int)     intcor
     19.56     -21.26       1.89        0.00     102.97       1.00       0.20       1.51       ----

> <Gold.Chemscore.Fitness>
19.5592

> <Gold.Chemscore.DG>
-21.2647

> <Gold.Chemscore.ZeroCoef>
-5.4800

> <Gold.Chemscore.Hbond>
1.8852

> <Gold.Chemscore.Metal>
0.0000

> <Gold.Chemscore.Lipo>
102.9743

> <Gold.Chemscore.Internal_Hbond>
0.0000

> <Gold.Chemscore.DEClash>
0.1988

> <Gold.Chemscore.DEInternal>
1.5067

> <Gold.Chemscore.Rot>
1.0000

> <Gold.Chemscore.Internal.Correction>
   9.000000E+99

> <Gold.Chemscore.Hbonds>
donor molecule, donor type, donor heavy atom, donor atom, acceptor molecule, acceptor atom, score
      P1  H  7989  7998       L1    17  0.81
      P1  H  7997  8009       L1     7  0.80

> <Gold.Chemscore.Hbond.Weighted>
-6.2967

> <Gold.Chemscore.Metal.Weighted>
-0.0000

> <Gold.Chemscore.Lipo.Weighted>
-12.0480

> <Gold.Chemscore.Internal_Hbond.Weighted>
0.0000

> <Gold.Chemscore.DEClash.Weighted>
0.1988

> <Gold.Chemscore.DEInternal.Weighted>
1.5067

> <Gold.Chemscore.Rot.Weighted>
2.5600

> <Gold.Chemscore.Internal.Correction.Weighted>
   9.000000E+99

> <Gold.Protein.RotatedTorsions>
[ 6907 6896 6895 6894 ] final  144.79 input  -60.11 | X-H torsion
[ 7974 7965 7964 7962 ] final   69.75 input  175.53 | X-H torsion
[ 8008 7997 7996 7995 ] final -179.76 input   59.86 | X-H torsion
[ 10167 10162 10161 10158 ] final -176.83 input  -65.29 | X-H torsion
[ 10718 10713 10712 10709 ] final -174.17 input   66.30 | X-H torsion
[ 10763 10752 10751 10750 ] final  156.59 input  -60.55 | X-H torsion
[ 11005 11000 10999 10996 ] final  122.16 input  -57.11 | X-H torsion

> <Gold.Protein.ActiveResidues>
 VAL166  LYS551  ARG553  GLY616  TRP617  ASP618  TYR619  PRO620  LYS621  CYS622 
 ASP623  PHE694  ASN695  SER759  ASP760  ASP761  ALA762  ILE779  LEU786  VAL792 
 PHE793  MET794  SER795  GLU796  ALA797  LYS798  CYS799  TRP800  GLU811  SER814 

> <Gold.Protein.RotatedAtoms>
  152.1892  133.4761  159.4998 H   0  0  0  0  0  0  0  0  0  0  0  0  # atno 6907 bound_to 6896
  150.6948  134.1735  159.4230 H   0  0  0  0  0  0  0  0  0  0  0  0  # atno 6908 bound_to 6896
  151.9649  135.0105  160.0600 H   0  0  0  0  0  0  0  0  0  0  0  0  # atno 6909 bound_to 6896
  145.7866  139.2913  143.1234 H   0  0  0  0  0  0  0  0  0  0  0  0  # atno 7974 bound_to 7965
  156.0342  140.1289  157.0226 H   0  0  0  0  0  0  0  0  0  0  0  0  # atno 8008 bound_to 7997
  154.4363  140.1043  156.6213 H   0  0  0  0  0  0  0  0  0  0  0  0  # atno 8009 bound_to 7997
  155.5763  140.3467  155.4530 H   0  0  0  0  0  0  0  0  0  0  0  0  # atno 8010 bound_to 7997
  139.5510  144.2109  152.1077 H   0  0  0  0  0  0  0  0  0  0  0  0  # atno 10167 bound_to 10162
  156.7811  130.9484  151.3120 H   0  0  0  0  0  0  0  0  0  0  0  0  # atno 10718 bound_to 10713
  154.1868  135.2797  155.3035 H   0  0  0  0  0  0  0  0  0  0  0  0  # atno 10763 bound_to 10752
  154.5960  135.5545  153.7329 H   0  0  0  0  0  0  0  0  0  0  0  0  # atno 10764 bound_to 10752
  153.0123  135.6380  154.2007 H   0  0  0  0  0  0  0  0  0  0  0  0  # atno 10765 bound_to 10752
  139.9256  134.9640  156.8067 H   0  0  0  0  0  0  0  0  0  0  0  0  # atno 11005 bound_to 11000
  146.0019  140.8512  143.0014 LP  0  0  0  0  0  0  0  0  0  0  0  0  # atno 17320 bound_to 7965
  144.6788  140.2365  143.7349 LP  0  0  0  0  0  0  0  0  0  0  0  0  # atno 17321 bound_to 7965
  140.1604  144.5031  150.6635 LP  0  0  0  0  0  0  0  0  0  0  0  0  # atno 17342 bound_to 10162
  140.6773  143.2310  151.5476 LP  0  0  0  0  0  0  0  0  0  0  0  0  # atno 17343 bound_to 10162
  157.6646  130.8996  149.9903 LP  0  0  0  0  0  0  0  0  0  0  0  0  # atno 17370 bound_to 10713
  156.1217  130.3645  149.9876 LP  0  0  0  0  0  0  0  0  0  0  0  0  # atno 17371 bound_to 10713
  140.6345  133.9875  155.7678 LP  0  0  0  0  0  0  0  0  0  0  0  0  # atno 17394 bound_to 11000
  141.0811  134.0060  157.3384 LP  0  0  0  0  0  0  0  0  0  0  0  0  # atno 17395 bound_to 11000

$$$$
