AV-unprocessed.smi:203|AV-procd|sdf|1584|dock6
  -GOLD-   2262019473D 1   1.00000     0.00000
 Structure written by MMmdl.
 57 61  0  0  0  0  0  0  0  0  1 V2000
  150.7926  142.0028  154.3637 O   0  0  0  0  0  0  0  0  0  0  0  0
  150.6544  141.9737  155.5841 C   0  0  0  0  0  0  0  0  0  0  0  0
  150.9054  140.7349  156.4259 C   0  0  0  0  0  0  0  0  0  0  0  0
  150.8172  141.2540  157.8743 C   0  0  1  0  0  0  0  0  0  0  0  0
  152.1729  141.2085  158.6486 C   0  0  1  0  0  0  0  0  0  0  0  0
  152.2217  142.2041  159.8373 C   0  0  0  0  0  0  0  0  0  0  0  0
  153.5687  142.1454  160.5703 C   0  0  0  0  0  0  0  0  0  0  0  0
  153.8543  140.7102  161.0257 C   0  0  0  0  0  0  0  0  0  0  0  0
  153.8013  139.7491  159.8307 C   0  0  0  0  0  0  0  0  0  0  0  0
  152.5289  139.8568  159.1183 N   0  0  0  0  0  0  0  0  0  0  0  0
  152.4052  138.8550  158.2195 C   0  0  0  0  0  0  0  0  0  0  0  0
  153.5239  138.4817  157.5516 N   0  0  0  0  0  0  0  0  0  0  0  0
  153.4722  137.4717  156.6781 C   0  0  0  0  0  0  0  0  0  0  0  0
  152.4267  136.7143  156.3378 N   0  0  0  0  0  0  0  0  0  0  0  0
  151.2991  137.0960  157.0037 C   0  0  0  0  0  0  0  0  0  0  0  0
  151.1957  138.1580  157.9441 C   0  0  0  0  0  0  0  0  0  0  0  0
  149.8885  138.2614  158.4036 N   0  0  0  0  0  0  0  0  0  0  0  0
  149.2591  137.2997  157.7864 C   0  0  0  0  0  0  0  0  0  0  0  0
  150.0370  136.5316  156.9496 N   0  0  0  0  0  0  0  0  0  0  0  0
  149.6056  135.3824  156.1745 C   0  0  0  0  0  0  0  0  0  0  0  0
  150.2392  135.3184  154.7644 C   0  0  2  0  0  0  0  0  0  0  0  0
  149.8714  136.4827  154.0540 O   0  0  0  0  0  0  0  0  0  0  0  0
  149.9102  134.0801  153.8952 C   0  0  2  0  0  0  0  0  0  0  0  0
  148.5209  134.0361  153.2551 C   0  0  0  0  0  0  0  0  0  0  0  0
  148.3714  132.5573  152.9758 C   0  0  0  0  0  0  0  0  0  0  0  0
  149.0387  131.9323  154.1983 C   0  0  0  0  0  0  0  0  0  0  0  0
  150.0332  132.8608  154.6238 O   0  0  0  0  0  0  0  0  0  0  0  0
  150.2037  142.6674  157.7590 C   0  0  0  0  0  0  0  0  0  0  0  0
  150.2671  142.9928  156.3478 N   0  0  0  0  0  0  0  0  0  0  0  0
  150.1221  140.0042  156.2225 H   0  0  0  0  0  0  0  0  0  0  0  0
  151.8633  140.2729  156.1876 H   0  0  0  0  0  0  0  0  0  0  0  0
  150.0958  140.6142  158.3823 H   0  0  0  0  0  0  0  0  0  0  0  0
  152.9524  141.5160  157.9509 H   0  0  0  0  0  0  0  0  0  0  0  0
  152.0521  143.2251  159.4972 H   0  0  0  0  0  0  0  0  0  0  0  0
  151.4258  141.9850  160.5492 H   0  0  0  0  0  0  0  0  0  0  0  0
  154.3649  142.4897  159.9090 H   0  0  0  0  0  0  0  0  0  0  0  0
  153.5599  142.8179  161.4284 H   0  0  0  0  0  0  0  0  0  0  0  0
  154.8311  140.6553  161.5067 H   0  0  0  0  0  0  0  0  0  0  0  0
  153.1201  140.4077  161.7734 H   0  0  0  0  0  0  0  0  0  0  0  0
  154.6196  139.9703  159.1437 H   0  0  0  0  0  0  0  0  0  0  0  0
  153.9482  138.7261  160.1809 H   0  0  0  0  0  0  0  0  0  0  0  0
  154.4036  137.2303  156.1879 H   0  0  0  0  0  0  0  0  0  0  0  0
  148.2072  137.1106  157.9436 H   0  0  0  0  0  0  0  0  0  0  0  0
  149.8438  134.4796  156.7386 H   0  0  0  0  0  0  0  0  0  0  0  0
  148.5186  135.4155  156.0956 H   0  0  0  0  0  0  0  0  0  0  0  0
  151.3230  135.3621  154.8741 H   0  0  0  0  0  0  0  0  0  0  0  0
  149.8173  136.2689  153.1352 H   0  0  0  0  0  0  0  0  0  0  0  0
  150.6512  134.0118  153.0964 H   0  0  0  0  0  0  0  0  0  0  0  0
  147.7459  134.3556  153.9503 H   0  0  0  0  0  0  0  0  0  0  0  0
  148.4474  134.6499  152.3571 H   0  0  0  0  0  0  0  0  0  0  0  0
  147.3346  132.2449  152.8508 H   0  0  0  0  0  0  0  0  0  0  0  0
  148.9205  132.2910  152.0716 H   0  0  0  0  0  0  0  0  0  0  0  0
  148.3146  131.8059  155.0035 H   0  0  0  0  0  0  0  0  0  0  0  0
  149.4728  130.9562  153.9815 H   0  0  0  0  0  0  0  0  0  0  0  0
  149.1605  142.6639  158.0771 H   0  0  0  0  0  0  0  0  0  0  0  0
  150.7260  143.4154  158.3556 H   0  0  0  0  0  0  0  0  0  0  0  0
  150.0448  143.9115  155.9925 H   0  0  0  0  0  0  0  0  0  0  0  0
  1  2  2  0  0  0  0
  2 29  1  0  0  0  0
  2  3  1  0  0  0  0
  3  4  1  0  0  0  0
  3 30  1  0  0  0  0
  3 31  1  0  0  0  0
  4  5  1  0  0  0  0
  4 28  1  0  0  0  0
  4 32  1  0  0  0  0
  5 10  1  0  0  0  0
  5  6  1  0  0  0  0
  5 33  1  0  0  0  0
  6  7  1  0  0  0  0
  6 34  1  0  0  0  0
  6 35  1  0  0  0  0
  7  8  1  0  0  0  0
  7 36  1  0  0  0  0
  7 37  1  0  0  0  0
  8  9  1  0  0  0  0
  8 38  1  0  0  0  0
  8 39  1  0  0  0  0
  9 10  1  0  0  0  0
  9 40  1  0  0  0  0
  9 41  1  0  0  0  0
 10 11  1  0  0  0  0
 11 16  1  0  0  0  0
 11 12  2  0  0  0  0
 12 13  1  0  0  0  0
 13 14  2  0  0  0  0
 13 42  1  0  0  0  0
 14 15  1  0  0  0  0
 15 19  1  0  0  0  0
 15 16  2  0  0  0  0
 16 17  1  0  0  0  0
 17 18  2  0  0  0  0
 18 19  1  0  0  0  0
 18 43  1  0  0  0  0
 19 20  1  0  0  0  0
 20 21  1  0  0  0  0
 20 44  1  0  0  0  0
 20 45  1  0  0  0  0
 21 22  1  0  0  0  0
 21 23  1  0  0  0  0
 21 46  1  0  0  0  0
 22 47  1  0  0  0  0
 23 27  1  0  0  0  0
 23 24  1  0  0  0  0
 23 48  1  0  0  0  0
 24 25  1  0  0  0  0
 24 49  1  0  0  0  0
 24 50  1  0  0  0  0
 25 26  1  0  0  0  0
 25 51  1  0  0  0  0
 25 52  1  0  0  0  0
 26 27  1  0  0  0  0
 26 53  1  0  0  0  0
 26 54  1  0  0  0  0
 28 29  1  0  0  0  0
 28 55  1  0  0  0  0
 28 56  1  0  0  0  0
 29 57  1  0  0  0  0
M  END
> <s_m_source_file>
AV-unprocessed.smi

> <i_m_source_file_index>
203

> <i_lp_mmshare_version>
43012

> <i_f3d_flags>
0

> <s_epik_input>
Tz1DMVtDSDJdW0NASF0oW0NIMl1bTkhdMSlbQ0BASF0yW0NIMl1bQ0gyXVtDSDJdW0NIMl1OMmMobltjSF1uMyljKGMzNCluW2NIXW40W0NIMl1bQ0BIXShbT0hdKVtDQEBIXTVbQ0gyXVtDSDJdW0NIMl1PNQ==

> <s_epik_cmdline>
J2VwaWtfcHl0aG9uJywgJy1waCcsICc3LjAnLCAnLXRuJywgJzgnLCAnLW1hJywgJzIwMCcsICctbWV0YWxfYmluZGluZycsICctaW1hZScsICc8aW5maWxlLm1hZT4nLCAnLW9tYWUnLCAnPG91dGZpbGUubWFlPic=

> <r_lp_tautomer_probability>
1

> <r_epik_Ionization_Penalty>
0.00175146

> <r_epik_Ionization_Penalty_Charging>
0

> <r_epik_Ionization_Penalty_Neutral>
0.00175146

> <r_epik_State_Penalty>
0.00109045

> <r_epik_Charging_Adjusted_Penalty>
0.00109045

> <i_epik_Tot_Q>
0

> <i_epik_Tot_abs_Q>
0

> <r_epik_Metal_State_Penalty>
-0

> <b_epik_Metal_Only>
0

> <s_lp_Force_Field>
OPLS_2005

> <r_lp_Energy>
54.964

> <b_lp_Chiralities_Consistent>
1

> <s_lp_Variant>
AV-unprocessed.smi:203-3

> <Gold.Version>
5.8.1

> <Gold.Id.Protein>
6NUR|6NUR_protein|mol2

> <Gold.PLP.Fitness>
53.3211

> <Gold.PLP.PLP>
-43.4193

> <Gold.PLP.part.hbond>
-5.4572

> <Gold.PLP.part.metal>
0.0000

> <Gold.PLP.part.buried>
-5.4479

> <Gold.PLP.part.nonpolar>
-32.9360

> <Gold.PLP.part.repulsive>
0.1794

> <Gold.PLP.ligand.clash>
0.0000

> <Gold.PLP.ligand.torsion>
1.5072

> <Gold.PLP.Chemscore.Hbond>
4.2184

> <Gold.PLP.Chemscore.CHOScore>
0.0000

> <Gold.PLP.Chemscore.Metal>
0.0000

> <Gold.Chemscore.Hbonds>
donor molecule, donor type, donor heavy atom, donor atom, acceptor molecule, acceptor atom, score
      L1  H    22    47       P1  7948  0.59
      L1  H    29    57       P1  8028  0.65
      P1  H  7997  8010       L1    12  1.00
      P1  H  8011  8017       L1     1  0.06
      P1  H 10752 10763       L1    14  1.00

> <Gold.PLP.Chemscore.Internal.Correction>
0.2611

> <Gold.Rescore>
     Score         DG    S(hbond)    S(metal)    S(lipo)     H(rot)  DE(clash)    DE(int)     intcor
     16.31     -20.31       3.33        0.00      91.10       2.72       1.87       2.13       ----

> <Gold.Chemscore.Fitness>
16.3091

> <Gold.Chemscore.DG>
-20.3119

> <Gold.Chemscore.ZeroCoef>
-5.4800

> <Gold.Chemscore.Hbond>
3.3319

> <Gold.Chemscore.Metal>
0.0000

> <Gold.Chemscore.Lipo>
91.1023

> <Gold.Chemscore.Internal_Hbond>
0.0000

> <Gold.Chemscore.DEClash>
1.8730

> <Gold.Chemscore.DEInternal>
2.1299

> <Gold.Chemscore.Rot>
2.7171

> <Gold.Chemscore.Internal.Correction>
   9.000000E+99

> <Gold.Chemscore.Hbonds>
donor molecule, donor type, donor heavy atom, donor atom, acceptor molecule, acceptor atom, score
      L1  H    22    47       P1  7948  0.05
      L1  H    29    57       P1  8028  0.62
      P1  H  7989  7998       L1     1  0.03
      P1  H  7997  8010       L1    12  0.65
      P1  H  8011  8017       L1     1  0.06
      P1  H 10752 10763       L1    14  0.38

> <Gold.Chemscore.Hbond.Weighted>
-11.1286

> <Gold.Chemscore.Metal.Weighted>
-0.0000

> <Gold.Chemscore.Lipo.Weighted>
-10.6590

> <Gold.Chemscore.Internal_Hbond.Weighted>
0.0000

> <Gold.Chemscore.DEClash.Weighted>
1.8730

> <Gold.Chemscore.DEInternal.Weighted>
2.1299

> <Gold.Chemscore.Rot.Weighted>
6.9557

> <Gold.Chemscore.Internal.Correction.Weighted>
   9.000000E+99

> <Gold.Protein.RotatedTorsions>
[ 6907 6896 6895 6894 ] final -173.79 input  -60.11 | X-H torsion
[ 7974 7965 7964 7962 ] final  150.63 input  175.53 | X-H torsion
[ 8008 7997 7996 7995 ] final   47.02 input   59.86 | X-H torsion
[ 10167 10162 10161 10158 ] final   75.57 input  -65.29 | X-H torsion
[ 10718 10713 10712 10709 ] final   57.06 input   66.30 | X-H torsion
[ 10763 10752 10751 10750 ] final   91.23 input  -60.55 | X-H torsion
[ 11005 11000 10999 10996 ] final  -17.22 input  -57.11 | X-H torsion

> <Gold.Protein.ActiveResidues>
 VAL166  LYS551  ARG553  GLY616  TRP617  ASP618  TYR619  PRO620  LYS621  CYS622 
 ASP623  PHE694  ASN695  SER759  ASP760  ASP761  ALA762  ILE779  LEU786  VAL792 
 PHE793  MET794  SER795  GLU796  ALA797  LYS798  CYS799  TRP800  GLU811  SER814 

> <Gold.Protein.RotatedAtoms>
  151.5618  133.3402  159.2972 H   0  0  0  0  0  0  0  0  0  0  0  0  # atno 6907 bound_to 6896
  150.8418  134.7715  159.6949 H   0  0  0  0  0  0  0  0  0  0  0  0  # atno 6908 bound_to 6896
  152.4484  134.5453  159.9902 H   0  0  0  0  0  0  0  0  0  0  0  0  # atno 6909 bound_to 6896
  144.8350  139.6433  143.6042 H   0  0  0  0  0  0  0  0  0  0  0  0  # atno 7974 bound_to 7965
  155.3621  140.3419  155.4241 H   0  0  0  0  0  0  0  0  0  0  0  0  # atno 8008 bound_to 7997
  156.1708  140.1631  156.8485 H   0  0  0  0  0  0  0  0  0  0  0  0  # atno 8009 bound_to 7997
  154.5231  140.0762  156.8191 H   0  0  0  0  0  0  0  0  0  0  0  0  # atno 8010 bound_to 7997
  140.0015  144.5683  150.7733 H   0  0  0  0  0  0  0  0  0  0  0  0  # atno 10167 bound_to 10162
  157.5483  130.8747  149.8924 H   0  0  0  0  0  0  0  0  0  0  0  0  # atno 10718 bound_to 10713
  153.2060  135.4405  155.0323 H   0  0  0  0  0  0  0  0  0  0  0  0  # atno 10763 bound_to 10752
  154.8174  135.3321  154.7140 H   0  0  0  0  0  0  0  0  0  0  0  0  # atno 10764 bound_to 10752
  153.7582  135.6993  153.4987 H   0  0  0  0  0  0  0  0  0  0  0  0  # atno 10765 bound_to 10752
  140.8147  133.8114  155.9598 H   0  0  0  0  0  0  0  0  0  0  0  0  # atno 11005 bound_to 11000
  146.2650  139.6498  142.9336 LP  0  0  0  0  0  0  0  0  0  0  0  0  # atno 17320 bound_to 7965
  145.4814  141.0438  143.2644 LP  0  0  0  0  0  0  0  0  0  0  0  0  # atno 17321 bound_to 7965
  140.7417  143.2821  151.3567 LP  0  0  0  0  0  0  0  0  0  0  0  0  # atno 17342 bound_to 10162
  139.6268  144.0798  152.2441 LP  0  0  0  0  0  0  0  0  0  0  0  0  # atno 17343 bound_to 10162
  156.0554  130.3709  150.1103 LP  0  0  0  0  0  0  0  0  0  0  0  0  # atno 17370 bound_to 10713
  156.9277  130.9704  151.3538 LP  0  0  0  0  0  0  0  0  0  0  0  0  # atno 17371 bound_to 10713
  140.9162  134.2199  157.4955 LP  0  0  0  0  0  0  0  0  0  0  0  0  # atno 17394 bound_to 11000
  139.8712  134.9772  156.4950 LP  0  0  0  0  0  0  0  0  0  0  0  0  # atno 17395 bound_to 11000

$$$$
