AV-unprocessed.smi:2718|AV-procd|sdf|10488|dock6
  -GOLD-   2272014533D 1   1.00000     0.00000
 Structure written by MMmdl.
 47 48  0  0  0  0  0  0  0  0  1 V2000
  153.0597  143.3323  159.8780 C   0  0  0  0  0  0  0  0  0  0  0  0
  151.8354  143.0424  159.0323 C   0  0  0  0  0  0  0  0  0  0  0  0
  150.7827  144.1376  159.0440 C   0  0  0  0  0  0  0  0  0  0  0  0
  151.7176  141.9005  158.3279 C   0  0  0  0  0  0  0  0  0  0  0  0
  150.5764  141.5194  157.4458 C   0  0  2  0  0  0  0  0  0  0  0  0
  149.9107  140.1502  157.4646 C   0  0  2  0  0  0  0  0  0  0  0  0
  150.4165  139.0557  158.3630 C   0  0  0  0  0  0  0  0  0  0  0  0
  151.4195  139.1421  159.0713 O   0  0  0  0  0  0  0  0  0  0  0  0
  149.6573  137.9503  158.3232 N   0  0  0  0  0  0  0  0  0  0  0  0
  149.9153  136.7035  159.0405 C   0  0  0  0  0  0  0  0  0  0  0  0
  148.6940  135.7583  159.1227 C   0  0  2  0  0  0  0  0  0  0  0  0
  147.6379  136.1026  158.0629 C   0  0  0  0  0  0  0  0  0  0  0  0
  148.0912  135.6880  160.5002 C   0  0  0  0  0  0  0  0  0  0  0  0
  147.6949  136.7643  161.1929 N   0  0  0  0  0  0  0  0  0  0  0  0
  147.1978  136.2792  162.3855 N   0  0  0  0  0  0  0  0  0  0  0  0
  147.3278  134.9571  162.2891 C   0  0  0  0  0  0  0  0  0  0  0  0
  147.8684  134.5216  161.1417 N   0  0  0  0  0  0  0  0  0  0  0  0
  148.1265  133.1573  160.7274 C   0  0  0  0  0  0  0  0  0  0  0  0
  150.7114  140.5969  156.2428 C   0  0  0  0  0  0  0  0  0  0  0  0
  149.9323  140.9224  154.9795 C   0  0  0  0  0  0  0  0  0  0  0  0
  152.0528  139.9831  155.8442 C   0  0  0  0  0  0  0  0  0  0  0  0
  153.5592  144.2333  159.5214 H   0  0  0  0  0  0  0  0  0  0  0  0
  153.7765  142.5111  159.8428 H   0  0  0  0  0  0  0  0  0  0  0  0
  152.7752  143.4879  160.9184 H   0  0  0  0  0  0  0  0  0  0  0  0
  150.5077  144.3839  160.0690 H   0  0  0  0  0  0  0  0  0  0  0  0
  149.8717  143.8505  158.5197 H   0  0  0  0  0  0  0  0  0  0  0  0
  151.1752  145.0397  158.5743 H   0  0  0  0  0  0  0  0  0  0  0  0
  152.5243  141.1862  158.3902 H   0  0  0  0  0  0  0  0  0  0  0  0
  149.8987  142.3621  157.3218 H   0  0  0  0  0  0  0  0  0  0  0  0
  148.8277  140.1657  157.3480 H   0  0  0  0  0  0  0  0  0  0  0  0
  148.8424  137.9643  157.7270 H   0  0  0  0  0  0  0  0  0  0  0  0
  150.7241  136.2015  158.5091 H   0  0  0  0  0  0  0  0  0  0  0  0
  150.2961  136.9237  160.0390 H   0  0  0  0  0  0  0  0  0  0  0  0
  149.0599  134.7646  158.8678 H   0  0  0  0  0  0  0  0  0  0  0  0
  146.8252  135.3755  158.0705 H   0  0  0  0  0  0  0  0  0  0  0  0
  148.0713  136.1032  157.0625 H   0  0  0  0  0  0  0  0  0  0  0  0
  147.2049  137.0877  158.2388 H   0  0  0  0  0  0  0  0  0  0  0  0
  147.0151  134.2877  163.0770 H   0  0  0  0  0  0  0  0  0  0  0  0
  147.7803  132.4605  161.4912 H   0  0  0  0  0  0  0  0  0  0  0  0
  149.1965  133.0150  160.5759 H   0  0  0  0  0  0  0  0  0  0  0  0
  147.6001  132.9495  159.7956 H   0  0  0  0  0  0  0  0  0  0  0  0
  149.7575  140.0173  154.3970 H   0  0  0  0  0  0  0  0  0  0  0  0
  150.4838  141.6333  154.3634 H   0  0  0  0  0  0  0  0  0  0  0  0
  148.9652  141.3639  155.2222 H   0  0  0  0  0  0  0  0  0  0  0  0
  151.8948  139.0131  155.3717 H   0  0  0  0  0  0  0  0  0  0  0  0
  152.7219  139.8408  156.6894 H   0  0  0  0  0  0  0  0  0  0  0  0
  152.5664  140.6303  155.1328 H   0  0  0  0  0  0  0  0  0  0  0  0
  1  2  1  0  0  0  0
  1 22  1  0  0  0  0
  1 23  1  0  0  0  0
  1 24  1  0  0  0  0
  2  3  1  0  0  0  0
  2  4  2  0  0  0  0
  3 25  1  0  0  0  0
  3 26  1  0  0  0  0
  3 27  1  0  0  0  0
  4  5  1  0  0  0  0
  4 28  1  0  0  0  0
  5 19  1  0  0  0  0
  5  6  1  0  0  0  0
  5 29  1  0  0  0  0
  6  7  1  0  0  0  0
  6 19  1  0  0  0  0
  6 30  1  0  0  0  0
  7  8  2  0  0  0  0
  7  9  1  0  0  0  0
  9 10  1  0  0  0  0
  9 31  1  0  0  0  0
 10 11  1  0  0  0  0
 10 32  1  0  0  0  0
 10 33  1  0  0  0  0
 11 12  1  0  0  0  0
 11 13  1  0  0  0  0
 11 34  1  0  0  0  0
 12 35  1  0  0  0  0
 12 36  1  0  0  0  0
 12 37  1  0  0  0  0
 13 17  1  0  0  0  0
 13 14  2  0  0  0  0
 14 15  1  0  0  0  0
 15 16  2  0  0  0  0
 16 17  1  0  0  0  0
 16 38  1  0  0  0  0
 17 18  1  0  0  0  0
 18 39  1  0  0  0  0
 18 40  1  0  0  0  0
 18 41  1  0  0  0  0
 19 20  1  0  0  0  0
 19 21  1  0  0  0  0
 20 42  1  0  0  0  0
 20 43  1  0  0  0  0
 20 44  1  0  0  0  0
 21 45  1  0  0  0  0
 21 46  1  0  0  0  0
 21 47  1  0  0  0  0
M  END
> <s_m_source_file>
AV-unprocessed.smi

> <i_m_source_file_index>
2718

> <i_lp_mmshare_version>
43012

> <i_f3d_flags>
0

> <s_epik_input>
W0NIM11DKFtDSDNdKT1bQ0hdW0NAQEhdKEMxKFtDSDNdKVtDSDNdKVtDQEhdMUMoPU8pW05IXVtDSDJdW0NASF0oW0NIM10pYzJubltjSF1uMltDSDNd

> <s_epik_cmdline>
J2VwaWtfcHl0aG9uJywgJy1waCcsICc3LjAnLCAnLXRuJywgJzgnLCAnLW1hJywgJzIwMCcsICctbWV0YWxfYmluZGluZycsICctaW1hZScsICc8aW5maWxlLm1hZT4nLCAnLW9tYWUnLCAnPG91dGZpbGUubWFlPic=

> <r_lp_tautomer_probability>
1

> <r_epik_Ionization_Penalty>
0.000449586

> <r_epik_Ionization_Penalty_Charging>
0

> <r_epik_Ionization_Penalty_Neutral>
0.000449586

> <r_epik_State_Penalty>
0.000243372

> <r_epik_Charging_Adjusted_Penalty>
0.000243372

> <i_epik_Tot_Q>
0

> <i_epik_Tot_abs_Q>
0

> <r_epik_Metal_State_Penalty>
-0

> <b_epik_Metal_Only>
0

> <s_lp_Force_Field>
OPLS_2005

> <r_lp_Energy>
15.3261

> <b_lp_Chiralities_Consistent>
1

> <s_lp_Variant>
AV-unprocessed.smi:2718-3

> <Gold.Version>
5.8.1

> <Gold.Id.Protein>
6NUR|6NUR_protein|mol2

> <Gold.PLP.Fitness>
44.8575

> <Gold.PLP.PLP>
-41.7736

> <Gold.PLP.part.hbond>
-2.0051

> <Gold.PLP.part.metal>
0.0000

> <Gold.PLP.part.buried>
-5.1793

> <Gold.PLP.part.nonpolar>
-35.0497

> <Gold.PLP.part.repulsive>
0.1665

> <Gold.PLP.ligand.clash>
0.0191

> <Gold.PLP.ligand.torsion>
1.2749

> <Gold.PLP.Chemscore.Hbond>
1.7760

> <Gold.PLP.Chemscore.CHOScore>
0.0000

> <Gold.PLP.Chemscore.Metal>
0.0000

> <Gold.Chemscore.Hbonds>
donor molecule, donor type, donor heavy atom, donor atom, acceptor molecule, acceptor atom, score
      P1  H  6931  6943       L1    14  0.76
      P1  H  6934  6947       L1    14  0.24

> <Gold.PLP.Chemscore.Internal.Correction>
0.3249

> <Gold.Rescore>
     Score         DG    S(hbond)    S(metal)    S(lipo)     H(rot)  DE(clash)    DE(int)     intcor
     12.78     -15.61       1.44        0.00      88.12       1.95       0.00       2.83       ----

> <Gold.Chemscore.Fitness>
12.7787

> <Gold.Chemscore.DG>
-15.6092

> <Gold.Chemscore.ZeroCoef>
-5.4800

> <Gold.Chemscore.Hbond>
1.4429

> <Gold.Chemscore.Metal>
0.0000

> <Gold.Chemscore.Lipo>
88.1239

> <Gold.Chemscore.Internal_Hbond>
0.0000

> <Gold.Chemscore.DEClash>
0.0029

> <Gold.Chemscore.DEInternal>
2.8276

> <Gold.Chemscore.Rot>
1.9533

> <Gold.Chemscore.Internal.Correction>
   9.000000E+99

> <Gold.Chemscore.Hbonds>
donor molecule, donor type, donor heavy atom, donor atom, acceptor molecule, acceptor atom, score
      P1  H  6931  6943       L1    14  0.23
      P1  H  6934  6947       L1    14  0.19

> <Gold.Chemscore.Hbond.Weighted>
-4.8192

> <Gold.Chemscore.Metal.Weighted>
-0.0000

> <Gold.Chemscore.Lipo.Weighted>
-10.3105

> <Gold.Chemscore.Internal_Hbond.Weighted>
0.0000

> <Gold.Chemscore.DEClash.Weighted>
0.0029

> <Gold.Chemscore.DEInternal.Weighted>
2.8276

> <Gold.Chemscore.Rot.Weighted>
5.0005

> <Gold.Chemscore.Internal.Correction.Weighted>
   9.000000E+99

> <Gold.Protein.RotatedTorsions>
[ 6907 6896 6895 6894 ] final -132.84 input  -60.11 | X-H torsion
[ 7974 7965 7964 7962 ] final   81.11 input  175.53 | X-H torsion
[ 8008 7997 7996 7995 ] final   36.31 input   59.86 | X-H torsion
[ 10167 10162 10161 10158 ] final -148.11 input  -65.29 | X-H torsion
[ 10718 10713 10712 10709 ] final -163.73 input   66.30 | X-H torsion
[ 10763 10752 10751 10750 ] final -161.81 input  -60.55 | X-H torsion
[ 11005 11000 10999 10996 ] final   13.63 input  -57.11 | X-H torsion

> <Gold.Protein.ActiveResidues>
 VAL166  LYS551  ARG553  GLY616  TRP617  ASP618  TYR619  PRO620  LYS621  CYS622 
 ASP623  PHE694  ASN695  SER759  ASP760  ASP761  ALA762  ILE779  LEU786  VAL792 
 PHE793  MET794  SER795  GLU796  ALA797  LYS798  CYS799  TRP800  GLU811  SER814 

> <Gold.Protein.RotatedAtoms>
  150.9671  133.6384  159.2744 H   0  0  0  0  0  0  0  0  0  0  0  0  # atno 6907 bound_to 6896
  151.3686  135.0917  159.9467 H   0  0  0  0  0  0  0  0  0  0  0  0  # atno 6908 bound_to 6896
  152.5169  133.9230  159.7598 H   0  0  0  0  0  0  0  0  0  0  0  0  # atno 6909 bound_to 6896
  145.6424  139.2428  143.2023 H   0  0  0  0  0  0  0  0  0  0  0  0  # atno 7974 bound_to 7965
  155.1853  140.3303  155.4368 H   0  0  0  0  0  0  0  0  0  0  0  0  # atno 8008 bound_to 7997
  156.2462  140.1919  156.6899 H   0  0  0  0  0  0  0  0  0  0  0  0  # atno 8009 bound_to 7997
  154.6243  140.0591  156.9639 H   0  0  0  0  0  0  0  0  0  0  0  0  # atno 8010 bound_to 7997
  139.7561  143.8446  152.2597 H   0  0  0  0  0  0  0  0  0  0  0  0  # atno 10167 bound_to 10162
  156.6288  130.8921  151.2973 H   0  0  0  0  0  0  0  0  0  0  0  0  # atno 10718 bound_to 10713
  154.7270  135.3038  154.8954 H   0  0  0  0  0  0  0  0  0  0  0  0  # atno 10763 bound_to 10752
  153.9808  135.6730  153.4754 H   0  0  0  0  0  0  0  0  0  0  0  0  # atno 10764 bound_to 10752
  153.0884  135.4972  154.8562 H   0  0  0  0  0  0  0  0  0  0  0  0  # atno 10765 bound_to 10752
  140.4786  134.0958  155.7746 H   0  0  0  0  0  0  0  0  0  0  0  0  # atno 11005 bound_to 11000
  146.1270  140.7236  142.9430 LP  0  0  0  0  0  0  0  0  0  0  0  0  # atno 17320 bound_to 7965
  144.7152  140.4185  143.7050 LP  0  0  0  0  0  0  0  0  0  0  0  0  # atno 17321 bound_to 7965
  139.8439  144.7197  150.9297 LP  0  0  0  0  0  0  0  0  0  0  0  0  # atno 17342 bound_to 10162
  140.7803  143.3959  151.1230 LP  0  0  0  0  0  0  0  0  0  0  0  0  # atno 17343 bound_to 10162
  157.7206  130.9553  150.1423 LP  0  0  0  0  0  0  0  0  0  0  0  0  # atno 17370 bound_to 10713
  156.2251  130.3677  149.8510 LP  0  0  0  0  0  0  0  0  0  0  0  0  # atno 17371 bound_to 10713
  141.1542  133.8913  157.2020 LP  0  0  0  0  0  0  0  0  0  0  0  0  # atno 17394 bound_to 11000
  139.9840  135.0088  156.9819 LP  0  0  0  0  0  0  0  0  0  0  0  0  # atno 17395 bound_to 11000

$$$$
