AV-unprocessed.smi:845|AV-procd|sdf|3932|dock6
  -GOLD-   22720 1393D 1   1.00000     0.00000
 Structure written by MMmdl.
 42 43  0  0  0  0  0  0  0  0  3 V2000
  144.1627  132.5720  150.6603 C   0  0  0  0  0  0  0  0  0  0  0  0
  145.5788  132.9732  150.2003 C   0  0  0  0  0  0  0  0  0  0  0  0
  146.1754  131.8216  149.3684 C   0  0  0  0  0  0  0  0  0  0  0  0
  146.4819  133.3911  151.3972 C   0  0  1  0  0  0  0  0  0  0  0  0
  145.7614  134.3649  152.3771 C   0  0  0  0  0  0  0  0  0  0  0  0
  146.6681  135.1805  153.1782 N   0  0  0  0  0  0  0  0  0  0  0  0
  146.5540  135.4178  154.4922 C   0  0  0  0  0  0  0  0  0  0  0  0
  145.6341  134.9046  155.1329 O   0  0  0  0  0  0  0  0  0  0  0  0
  147.5009  136.2532  154.9733 N   0  5  0  0  0  0  0  0  0  0  0  0
  147.5917  137.5073  154.5023 C   0  0  0  0  0  0  0  0  0  0  0  0
  146.5323  138.2083  154.0830 N   0  0  0  0  0  0  0  0  0  0  0  0
  146.8563  139.4927  153.6427 C   0  0  0  0  0  0  0  0  0  0  0  0
  148.1928  139.7784  153.7359 C   0  0  0  0  0  0  0  0  0  0  0  0
  149.0898  138.4345  154.3834 S   0  0  0  0  0  0  0  0  0  0  0  0
  147.0451  132.1689  152.0538 N   0  3  0  0  0  0  0  0  0  0  0  0
  148.0628  132.4140  153.1055 C   0  0  0  0  0  0  0  0  0  0  0  0
  148.7350  131.0888  153.4991 C   0  0  0  0  0  0  0  0  0  0  0  0
  147.7469  130.1568  153.9252 O   0  0  0  0  0  0  0  0  0  0  0  0
  146.8094  129.8580  152.8969 C   0  0  0  0  0  0  0  0  0  0  0  0
  146.0670  131.1393  152.4839 C   0  0  0  0  0  0  0  0  0  0  0  0
  144.1968  131.7397  151.3642 H   0  0  0  0  0  0  0  0  0  0  0  0
  143.5476  132.2639  149.8143 H   0  0  0  0  0  0  0  0  0  0  0  0
  143.6394  133.3969  151.1439 H   0  0  0  0  0  0  0  0  0  0  0  0
  145.4742  133.8277  149.5308 H   0  0  0  0  0  0  0  0  0  0  0  0
  146.4079  130.9588  149.9936 H   0  0  0  0  0  0  0  0  0  0  0  0
  147.0867  132.1205  148.8516 H   0  0  0  0  0  0  0  0  0  0  0  0
  145.4784  131.4923  148.5971 H   0  0  0  0  0  0  0  0  0  0  0  0
  147.3212  133.9347  150.9607 H   0  0  0  0  0  0  0  0  0  0  0  0
  145.1036  135.0441  151.8353 H   0  0  0  0  0  0  0  0  0  0  0  0
  145.1164  133.8097  153.0582 H   0  0  0  0  0  0  0  0  0  0  0  0
  147.4419  135.6138  152.6957 H   0  0  0  0  0  0  0  0  0  0  0  0
  146.0707  140.1383  153.2795 H   0  0  0  0  0  0  0  0  0  0  0  0
  148.7014  140.6914  153.4658 H   0  0  0  0  0  0  0  0  0  0  0  0
  148.8169  133.1145  152.7451 H   0  0  0  0  0  0  0  0  0  0  0  0
  147.6070  132.8560  153.9896 H   0  0  0  0  0  0  0  0  0  0  0  0
  149.3026  130.6771  152.6631 H   0  0  0  0  0  0  0  0  0  0  0  0
  149.4408  131.2531  154.3136 H   0  0  0  0  0  0  0  0  0  0  0  0
  147.3198  129.4113  152.0420 H   0  0  0  0  0  0  0  0  0  0  0  0
  146.1013  129.1171  153.2682 H   0  0  0  0  0  0  0  0  0  0  0  0
  145.4786  131.5022  153.3271 H   0  0  0  0  0  0  0  0  0  0  0  0
  145.3712  130.9170  151.6749 H   0  0  0  0  0  0  0  0  0  0  0  0
  147.5735  131.7304  151.3135 H   0  0  0  0  0  0  0  0  0  0  0  0
  1  2  1  0  0  0  0
  1 21  1  0  0  0  0
  1 22  1  0  0  0  0
  1 23  1  0  0  0  0
  2  3  1  0  0  0  0
  2  4  1  0  0  0  0
  2 24  1  0  0  0  0
  3 25  1  0  0  0  0
  3 26  1  0  0  0  0
  3 27  1  0  0  0  0
  4  5  1  0  0  0  0
  4 15  1  0  0  0  0
  4 28  1  0  0  0  0
  5  6  1  0  0  0  0
  5 29  1  0  0  0  0
  5 30  1  0  0  0  0
  6  7  1  0  0  0  0
  6 31  1  0  0  0  0
  7  8  2  0  0  0  0
  7  9  1  0  0  0  0
  9 10  1  0  0  0  0
 10 14  1  0  0  0  0
 10 11  2  0  0  0  0
 11 12  1  0  0  0  0
 12 13  2  0  0  0  0
 12 32  1  0  0  0  0
 13 14  1  0  0  0  0
 13 33  1  0  0  0  0
 15 20  1  0  0  0  0
 15 16  1  0  0  0  0
 15 42  1  0  0  0  0
 16 17  1  0  0  0  0
 16 34  1  0  0  0  0
 16 35  1  0  0  0  0
 17 18  1  0  0  0  0
 17 36  1  0  0  0  0
 17 37  1  0  0  0  0
 18 19  1  0  0  0  0
 19 20  1  0  0  0  0
 19 38  1  0  0  0  0
 19 39  1  0  0  0  0
 20 40  1  0  0  0  0
 20 41  1  0  0  0  0
M  CHG  1   9  -1
M  CHG  1  15   1
M  END
> <s_m_source_file>
AV-unprocessed.smi

> <i_m_source_file_index>
845

> <i_lp_mmshare_version>
43012

> <i_f3d_flags>
0

> <s_epik_input>
W0NIMl0xW0NIMl1PW0NIMl1bQ0gyXU4xW0NASF0oW0NIXShbQ0gzXSlbQ0gzXSlbQ0gyXVtOSF1DKD1PKVtOSF1jMm5bY0hdW2NIXXMy

> <s_epik_cmdline>
J2VwaWtfcHl0aG9uJywgJy1waCcsICc3LjAnLCAnLXRuJywgJzgnLCAnLW1hJywgJzIwMCcsICctbWV0YWxfYmluZGluZycsICctaW1hZScsICc8aW5maWxlLm1hZT4nLCAnLW9tYWUnLCAnPG91dGZpbGUubWFlPic=

> <r_lp_tautomer_probability>
0.999

> <r_epik_Ionization_Penalty>
7.97104

> <r_epik_Ionization_Penalty_Charging>
6.58021

> <r_epik_Ionization_Penalty_Neutral>
1.39083

> <r_epik_State_Penalty>
6.69807

> <r_epik_Charging_Adjusted_Penalty>
13.2783

> <i_epik_Tot_Q>
0

> <i_epik_Tot_abs_Q>
2

> <r_epik_Metal_State_Penalty>
2.62985

> <b_epik_Metal_Only>
1

> <s_lp_Force_Field>
OPLS_2005

> <r_lp_Energy>
19.9677

> <b_lp_Chiralities_Consistent>
1

> <s_lp_Variant>
AV-unprocessed.smi:845-6

> <Gold.Version>
5.8.1

> <Gold.Id.Protein>
6NUR|6NUR_protein|mol2

> <Gold.PLP.Fitness>
35.7156

> <Gold.PLP.PLP>
-28.0425

> <Gold.PLP.part.hbond>
-2.0000

> <Gold.PLP.part.metal>
0.0000

> <Gold.PLP.part.buried>
-0.3286

> <Gold.PLP.part.nonpolar>
-25.8651

> <Gold.PLP.part.repulsive>
0.3308

> <Gold.PLP.ligand.clash>
0.0000

> <Gold.PLP.ligand.torsion>
1.4086

> <Gold.PLP.Chemscore.Hbond>
2.0000

> <Gold.PLP.Chemscore.CHOScore>
1.3635

> <Gold.PLP.Chemscore.Metal>
0.0000

> <Gold.Chemscore.Hbonds>
donor molecule, donor type, donor heavy atom, donor atom, acceptor molecule, acceptor atom, score
      L1  H     6    31       P1  7948  1.00
      L1  H    15    42       P1 10747  1.00
      L1  C    12    32       P1 10175  0.97
      L1  C    13    33       P1  7957  0.38

> <Gold.PLP.Chemscore.Internal.Correction>
0.4000

> <Gold.Rescore>
     Score         DG    S(hbond)    S(metal)    S(lipo)     H(rot)  DE(clash)    DE(int)     intcor
     15.20     -17.59       1.99        0.00      85.35       1.76       0.16       2.23       ----

> <Gold.Chemscore.Fitness>
15.1958

> <Gold.Chemscore.DG>
-17.5866

> <Gold.Chemscore.ZeroCoef>
-5.4800

> <Gold.Chemscore.Hbond>
1.9858

> <Gold.Chemscore.Metal>
0.0000

> <Gold.Chemscore.Lipo>
85.3456

> <Gold.Chemscore.Internal_Hbond>
0.0000

> <Gold.Chemscore.DEClash>
0.1644

> <Gold.Chemscore.DEInternal>
2.2264

> <Gold.Chemscore.Rot>
1.7623

> <Gold.Chemscore.Internal.Correction>
   9.000000E+99

> <Gold.Chemscore.Hbonds>
donor molecule, donor type, donor heavy atom, donor atom, acceptor molecule, acceptor atom, score
      L1  H     6    31       P1  7948  1.00
      L1  H    15    42       P1 10747  0.99

> <Gold.Chemscore.Hbond.Weighted>
-6.6327

> <Gold.Chemscore.Metal.Weighted>
-0.0000

> <Gold.Chemscore.Lipo.Weighted>
-9.9854

> <Gold.Chemscore.Internal_Hbond.Weighted>
0.0000

> <Gold.Chemscore.DEClash.Weighted>
0.1644

> <Gold.Chemscore.DEInternal.Weighted>
2.2264

> <Gold.Chemscore.Rot.Weighted>
4.5116

> <Gold.Chemscore.Internal.Correction.Weighted>
   9.000000E+99

> <Gold.Protein.RotatedTorsions>
[ 6907 6896 6895 6894 ] final  -58.16 input  -60.11 | X-H torsion
[ 7974 7965 7964 7962 ] final -133.06 input  175.53 | X-H torsion
[ 8008 7997 7996 7995 ] final  119.55 input   59.86 | X-H torsion
[ 10167 10162 10161 10158 ] final -178.77 input  -65.29 | X-H torsion
[ 10718 10713 10712 10709 ] final   -6.79 input   66.30 | X-H torsion
[ 10763 10752 10751 10750 ] final  111.09 input  -60.55 | X-H torsion
[ 11005 11000 10999 10996 ] final  -48.06 input  -57.11 | X-H torsion

> <Gold.Protein.ActiveResidues>
 VAL166  LYS551  ARG553  GLY616  TRP617  ASP618  TYR619  PRO620  LYS621  CYS622 
 ASP623  PHE694  ASN695  SER759  ASP760  ASP761  ALA762  ILE779  LEU786  VAL792 
 PHE793  MET794  SER795  GLU796  ALA797  LYS798  CYS799  TRP800  GLU811  SER814 

> <Gold.Protein.RotatedAtoms>
  150.8029  134.7134  159.6616 H   0  0  0  0  0  0  0  0  0  0  0  0  # atno 6907 bound_to 6896
  152.4147  134.6060  160.0022 H   0  0  0  0  0  0  0  0  0  0  0  0  # atno 6908 bound_to 6896
  151.6292  133.3296  159.3141 H   0  0  0  0  0  0  0  0  0  0  0  0  # atno 6909 bound_to 6896
  144.9228  140.7034  143.4955 H   0  0  0  0  0  0  0  0  0  0  0  0  # atno 7974 bound_to 7965
  156.2601  140.2850  156.1009 H   0  0  0  0  0  0  0  0  0  0  0  0  # atno 8008 bound_to 7997
  155.1361  140.0394  157.2804 H   0  0  0  0  0  0  0  0  0  0  0  0  # atno 8009 bound_to 7997
  154.6564  140.2556  155.7163 H   0  0  0  0  0  0  0  0  0  0  0  0  # atno 8010 bound_to 7997
  139.5417  144.2346  152.0907 H   0  0  0  0  0  0  0  0  0  0  0  0  # atno 10167 bound_to 10162
  156.7267  130.5167  149.5855 H   0  0  0  0  0  0  0  0  0  0  0  0  # atno 10718 bound_to 10713
  153.4584  135.3728  155.2324 H   0  0  0  0  0  0  0  0  0  0  0  0  # atno 10763 bound_to 10752
  154.8757  135.3902  154.3954 H   0  0  0  0  0  0  0  0  0  0  0  0  # atno 10764 bound_to 10752
  153.4524  135.7085  153.6165 H   0  0  0  0  0  0  0  0  0  0  0  0  # atno 10765 bound_to 10752
  141.0678  133.6688  156.3386 H   0  0  0  0  0  0  0  0  0  0  0  0  # atno 11005 bound_to 11000
  145.3268  139.1771  143.4558 LP  0  0  0  0  0  0  0  0  0  0  0  0  # atno 17320 bound_to 7965
  146.3212  140.3293  142.8639 LP  0  0  0  0  0  0  0  0  0  0  0  0  # atno 17321 bound_to 7965
  140.1826  144.4830  150.6520 LP  0  0  0  0  0  0  0  0  0  0  0  0  # atno 17342 bound_to 10162
  140.6649  143.2264  151.5767 LP  0  0  0  0  0  0  0  0  0  0  0  0  # atno 17343 bound_to 10162
  156.1557  130.6340  151.0654 LP  0  0  0  0  0  0  0  0  0  0  0  0  # atno 17370 bound_to 10713
  157.6876  131.0820  150.7199 LP  0  0  0  0  0  0  0  0  0  0  0  0  # atno 17371 bound_to 10713
  140.5737  134.5815  157.5463 LP  0  0  0  0  0  0  0  0  0  0  0  0  # atno 17394 bound_to 11000
  139.9493  134.7645  156.0486 LP  0  0  0  0  0  0  0  0  0  0  0  0  # atno 17395 bound_to 11000

$$$$
