AV-unprocessed.smi:3291|AV-procd|sdf|12620|dock10
  -GOLD-   2272018553D 1   1.00000     0.00000
 Structure written by MMmdl.
 43 45  0  0  0  0  0  0  0  0  2 V2000
  151.2721  130.3168  155.4023 C   0  0  0  0  0  0  0  0  0  0  0  0
  150.8139  131.6150  156.0031 C   0  0  0  0  0  0  0  0  0  0  0  0
  151.2896  131.9917  157.1767 N   0  0  0  0  0  0  0  0  0  0  0  0
  150.6813  133.2169  157.4596 O   0  0  0  0  0  0  0  0  0  0  0  0
  149.8529  133.5359  156.4333 C   0  0  0  0  0  0  0  0  0  0  0  0
  149.1173  134.8279  156.5654 C   0  0  0  0  0  0  0  0  0  0  0  0
  149.8930  132.5625  155.4679 C   0  0  0  0  0  0  0  0  0  0  0  0
  149.1622  132.4721  154.1447 C   0  0  1  0  0  0  0  0  0  0  0  0
  148.4450  131.1210  154.0070 C   0  0  0  0  0  0  0  0  0  0  0  0
  148.1904  133.6488  153.9399 C   0  0  0  0  0  0  0  0  0  0  0  0
  147.6769  133.6862  152.5536 N   0  3  0  0  0  0  0  0  0  0  0  0
  146.2392  133.3774  152.4031 C   0  0  0  0  0  0  0  0  0  0  0  0
  146.0706  132.3685  151.2816 C   0  0  0  0  0  0  0  0  0  0  0  0
  144.7568  131.6551  151.0605 C   0  0  0  0  0  0  0  0  0  0  0  0
  145.9537  130.8909  151.5741 C   0  0  0  0  0  0  0  0  0  0  0  0
  145.4457  134.6442  152.1180 C   0  0  0  0  0  0  0  0  0  0  0  0
  144.2063  134.6218  151.2515 C   0  0  0  0  0  0  0  0  0  0  0  0
  145.4643  135.2844  150.7481 C   0  0  0  0  0  0  0  0  0  0  0  0
  150.4349  129.6304  155.2759 H   0  0  0  0  0  0  0  0  0  0  0  0
  152.0150  129.8204  156.0276 H   0  0  0  0  0  0  0  0  0  0  0  0
  151.7214  130.4776  154.4223 H   0  0  0  0  0  0  0  0  0  0  0  0
  148.0907  134.7343  156.2132 H   0  0  0  0  0  0  0  0  0  0  0  0
  149.6055  135.6102  155.9851 H   0  0  0  0  0  0  0  0  0  0  0  0
  149.0831  135.1540  157.6051 H   0  0  0  0  0  0  0  0  0  0  0  0
  149.8862  132.5187  153.3302 H   0  0  0  0  0  0  0  0  0  0  0  0
  149.1504  130.2939  154.0945 H   0  0  0  0  0  0  0  0  0  0  0  0
  147.9566  131.0329  153.0364 H   0  0  0  0  0  0  0  0  0  0  0  0
  147.6814  130.9882  154.7734 H   0  0  0  0  0  0  0  0  0  0  0  0
  147.3455  133.5566  154.6237 H   0  0  0  0  0  0  0  0  0  0  0  0
  148.6862  134.5878  154.1806 H   0  0  0  0  0  0  0  0  0  0  0  0
  147.8526  134.6014  152.1640 H   0  0  0  0  0  0  0  0  0  0  0  0
  145.8734  132.9257  153.3270 H   0  0  0  0  0  0  0  0  0  0  0  0
  146.6157  132.6296  150.3759 H   0  0  0  0  0  0  0  0  0  0  0  0
  143.9471  131.8385  151.7637 H   0  0  0  0  0  0  0  0  0  0  0  0
  144.4492  131.4776  150.0318 H   0  0  0  0  0  0  0  0  0  0  0  0
  146.4429  130.2025  150.8877 H   0  0  0  0  0  0  0  0  0  0  0  0
  145.9368  130.5772  152.6160 H   0  0  0  0  0  0  0  0  0  0  0  0
  145.4322  135.3446  152.9517 H   0  0  0  0  0  0  0  0  0  0  0  0
  143.9217  133.6769  150.7929 H   0  0  0  0  0  0  0  0  0  0  0  0
  143.3791  135.2655  151.5438 H   0  0  0  0  0  0  0  0  0  0  0  0
  145.4761  136.3715  150.7020 H   0  0  0  0  0  0  0  0  0  0  0  0
  146.0043  134.7790  149.9502 H   0  0  0  0  0  0  0  0  0  0  0  0
  148.1982  133.0064  152.0186 H   0  0  0  0  0  0  0  0  0  0  0  0
  1  2  1  0  0  0  0
  1 19  1  0  0  0  0
  1 20  1  0  0  0  0
  1 21  1  0  0  0  0
  2  7  1  0  0  0  0
  2  3  2  0  0  0  0
  3  4  1  0  0  0  0
  4  5  1  0  0  0  0
  5  6  1  0  0  0  0
  5  7  2  0  0  0  0
  6 22  1  0  0  0  0
  6 23  1  0  0  0  0
  6 24  1  0  0  0  0
  7  8  1  0  0  0  0
  8  9  1  0  0  0  0
  8 10  1  0  0  0  0
  8 25  1  0  0  0  0
  9 26  1  0  0  0  0
  9 27  1  0  0  0  0
  9 28  1  0  0  0  0
 10 11  1  0  0  0  0
 10 29  1  0  0  0  0
 10 30  1  0  0  0  0
 11 12  1  0  0  0  0
 11 31  1  0  0  0  0
 11 43  1  0  0  0  0
 12 13  1  0  0  0  0
 12 16  1  0  0  0  0
 12 32  1  0  0  0  0
 13 15  1  0  0  0  0
 13 14  1  0  0  0  0
 13 33  1  0  0  0  0
 14 15  1  0  0  0  0
 14 34  1  0  0  0  0
 14 35  1  0  0  0  0
 15 36  1  0  0  0  0
 15 37  1  0  0  0  0
 16 18  1  0  0  0  0
 16 17  1  0  0  0  0
 16 38  1  0  0  0  0
 17 18  1  0  0  0  0
 17 39  1  0  0  0  0
 17 40  1  0  0  0  0
 18 41  1  0  0  0  0
 18 42  1  0  0  0  0
M  CHG  1  11   1
M  END
> <s_m_source_file>
AV-unprocessed.smi

> <i_m_source_file_index>
3291

> <i_lp_mmshare_version>
43012

> <i_f3d_flags>
0

> <s_epik_input>
W0NIM11jMW5vYyhbQ0gzXSljMVtDQEhdKFtDSDNdKVtDSDJdW05IXVtDSF0oW0NIXTJbQ0gyXVtDSDJdMilbQ0hdM1tDSDJdW0NIMl0z

> <s_epik_cmdline>
J2VwaWtfcHl0aG9uJywgJy1waCcsICc3LjAnLCAnLXRuJywgJzgnLCAnLW1hJywgJzIwMCcsICctbWV0YWxfYmluZGluZycsICctaW1hZScsICc8aW5maWxlLm1hZT4nLCAnLW9tYWUnLCAnPG91dGZpbGUubWFlPic=

> <r_lp_tautomer_probability>
1

> <r_epik_Ionization_Penalty>
0.000158108

> <r_epik_Ionization_Penalty_Charging>
0.000158108

> <r_epik_Ionization_Penalty_Neutral>
1.14678e-10

> <r_epik_State_Penalty>
-0

> <r_epik_Charging_Adjusted_Penalty>
0.000158108

> <i_epik_Tot_Q>
1

> <i_epik_Tot_abs_Q>
1

> <r_epik_Metal_State_Penalty>
-0

> <b_epik_Metal_Only>
0

> <s_lp_Force_Field>
OPLS_2005

> <r_lp_Energy>
24.4944

> <b_lp_Chiralities_Consistent>
1

> <s_lp_Variant>
AV-unprocessed.smi:3291-2

> <Gold.Version>
5.8.1

> <Gold.Id.Protein>
6NUR|6NUR_protein|mol2

> <Gold.PLP.Fitness>
40.7551

> <Gold.PLP.PLP>
-34.1429

> <Gold.PLP.part.hbond>
-2.0000

> <Gold.PLP.part.metal>
0.0000

> <Gold.PLP.part.buried>
-4.8807

> <Gold.PLP.part.nonpolar>
-28.0354

> <Gold.PLP.part.repulsive>
0.0152

> <Gold.PLP.ligand.clash>
0.0000

> <Gold.PLP.ligand.torsion>
2.2606

> <Gold.PLP.Chemscore.Hbond>
2.9760

> <Gold.PLP.Chemscore.CHOScore>
0.0000

> <Gold.PLP.Chemscore.Metal>
0.0000

> <Gold.Chemscore.Hbonds>
donor molecule, donor type, donor heavy atom, donor atom, acceptor molecule, acceptor atom, score
      L1  H    11    31       P1  7948  2.00
      P1  H  6896  6909       L1     4  0.93

> <Gold.PLP.Chemscore.Internal.Correction>
2.2054

> <Gold.Rescore>
     Score         DG    S(hbond)    S(metal)    S(lipo)     H(rot)  DE(clash)    DE(int)     intcor
     13.92     -17.13       1.85        0.00      79.66       1.50       0.02       3.18       ----

> <Gold.Chemscore.Fitness>
13.9214

> <Gold.Chemscore.DG>
-17.1290

> <Gold.Chemscore.ZeroCoef>
-5.4800

> <Gold.Chemscore.Hbond>
1.8481

> <Gold.Chemscore.Metal>
0.0000

> <Gold.Chemscore.Lipo>
79.6603

> <Gold.Chemscore.Internal_Hbond>
0.0000

> <Gold.Chemscore.DEClash>
0.0249

> <Gold.Chemscore.DEInternal>
3.1827

> <Gold.Chemscore.Rot>
1.5015

> <Gold.Chemscore.Internal.Correction>
   9.000000E+99

> <Gold.Chemscore.Hbonds>
donor molecule, donor type, donor heavy atom, donor atom, acceptor molecule, acceptor atom, score
      L1  H    11    31       P1  7948  0.43
      P1  H  6896  6909       L1     4  0.23

> <Gold.Chemscore.Hbond.Weighted>
-6.1725

> <Gold.Chemscore.Metal.Weighted>
-0.0000

> <Gold.Chemscore.Lipo.Weighted>
-9.3203

> <Gold.Chemscore.Internal_Hbond.Weighted>
0.0000

> <Gold.Chemscore.DEClash.Weighted>
0.0249

> <Gold.Chemscore.DEInternal.Weighted>
3.1827

> <Gold.Chemscore.Rot.Weighted>
3.8438

> <Gold.Chemscore.Internal.Correction.Weighted>
   9.000000E+99

> <Gold.Protein.RotatedTorsions>
[ 6907 6896 6895 6894 ] final  -31.42 input  -60.11 | X-H torsion
[ 7974 7965 7964 7962 ] final  -96.67 input  175.53 | X-H torsion
[ 8008 7997 7996 7995 ] final  -99.12 input   59.86 | X-H torsion
[ 10167 10162 10161 10158 ] final  -62.18 input  -65.29 | X-H torsion
[ 10718 10713 10712 10709 ] final  133.60 input   66.30 | X-H torsion
[ 10763 10752 10751 10750 ] final  173.11 input  -60.55 | X-H torsion
[ 11005 11000 10999 10996 ] final  -19.26 input  -57.11 | X-H torsion

> <Gold.Protein.ActiveResidues>
 VAL166  LYS551  ARG553  GLY616  TRP617  ASP618  TYR619  PRO620  LYS621  CYS622 
 ASP623  PHE694  ASN695  SER759  ASP760  ASP761  ALA762  ILE779  LEU786  VAL792 
 PHE793  MET794  SER795  GLU796  ALA797  LYS798  CYS799  TRP800  GLU811  SER814 

> <Gold.Protein.RotatedAtoms>
  151.0922  134.9923  159.8408 H   0  0  0  0  0  0  0  0  0  0  0  0  # atno 6907 bound_to 6896
  152.5430  134.2051  159.8737 H   0  0  0  0  0  0  0  0  0  0  0  0  # atno 6908 bound_to 6896
  151.2088  133.4524  159.2631 H   0  0  0  0  0  0  0  0  0  0  0  0  # atno 6909 bound_to 6896
  145.3438  140.9464  143.2593 H   0  0  0  0  0  0  0  0  0  0  0  0  # atno 7974 bound_to 7965
  154.8105  140.0450  157.1339 H   0  0  0  0  0  0  0  0  0  0  0  0  # atno 8008 bound_to 7997
  154.9374  140.3048  155.5117 H   0  0  0  0  0  0  0  0  0  0  0  0  # atno 8009 bound_to 7997
  156.2971  140.2312  156.4440 H   0  0  0  0  0  0  0  0  0  0  0  0  # atno 8010 bound_to 7997
  140.5956  143.2350  151.6042 H   0  0  0  0  0  0  0  0  0  0  0  0  # atno 10167 bound_to 10162
  157.4756  131.1083  150.9747 H   0  0  0  0  0  0  0  0  0  0  0  0  # atno 10718 bound_to 10713
  154.4355  135.2761  155.1883 H   0  0  0  0  0  0  0  0  0  0  0  0  # atno 10763 bound_to 10752
  154.3772  135.6095  153.5775 H   0  0  0  0  0  0  0  0  0  0  0  0  # atno 10764 bound_to 10752
  152.9838  135.5871  154.4673 H   0  0  0  0  0  0  0  0  0  0  0  0  # atno 10765 bound_to 10752
  140.8349  133.7969  155.9798 H   0  0  0  0  0  0  0  0  0  0  0  0  # atno 11005 bound_to 11000
  144.8770  139.4957  143.6741 LP  0  0  0  0  0  0  0  0  0  0  0  0  # atno 17320 bound_to 7965
  146.2996  139.7386  142.9101 LP  0  0  0  0  0  0  0  0  0  0  0  0  # atno 17321 bound_to 7965
  139.5256  144.3069  152.1026 LP  0  0  0  0  0  0  0  0  0  0  0  0  # atno 17342 bound_to 10162
  140.2241  144.4436  150.6329 LP  0  0  0  0  0  0  0  0  0  0  0  0  # atno 17343 bound_to 10162
  157.0497  130.5782  149.5368 LP  0  0  0  0  0  0  0  0  0  0  0  0  # atno 17370 bound_to 10713
  156.0095  130.5185  150.7942 LP  0  0  0  0  0  0  0  0  0  0  0  0  # atno 17371 bound_to 10713
  140.8958  134.2439  157.5069 LP  0  0  0  0  0  0  0  0  0  0  0  0  # atno 17394 bound_to 11000
  139.8704  134.9683  156.4627 LP  0  0  0  0  0  0  0  0  0  0  0  0  # atno 17395 bound_to 11000

$$$$
