AV-unprocessed.smi:252|AV-procd|sdf|1941|dock9
  -GOLD-   2262021 73D 1   1.00000     0.00000
 Structure written by MMmdl.
 56 59  0  0  0  0  0  0  0  0  1 V2000
  145.5037  132.6339  151.2778 C   0  0  0  0  0  0  0  0  0  0  0  0
  146.9655  132.8322  151.7085 C   0  0  0  0  0  0  0  0  0  0  0  0
  147.1290  133.1772  153.1924 C   0  0  0  0  0  0  0  0  0  0  0  0
  146.4487  132.6178  154.0534 O   0  0  0  0  0  0  0  0  0  0  0  0
  148.0470  134.1140  153.4756 N   0  0  0  0  0  0  0  0  0  0  0  0
  148.3689  134.6005  154.8131 C   0  0  1  0  0  0  0  0  0  0  0  0
  148.7401  133.4159  155.7243 C   0  0  0  0  0  0  0  0  0  0  0  0
  149.1725  133.9186  157.1108 C   0  0  0  0  0  0  0  0  0  0  0  0
  150.3060  134.9498  156.9908 C   0  0  0  0  0  0  0  0  0  0  0  0
  149.9183  136.0374  156.0972 N   0  0  0  0  0  0  0  0  0  0  0  0
  150.7825  137.0737  156.1107 C   0  0  0  0  0  0  0  0  0  0  0  0
  152.0800  136.8815  155.7539 N   0  0  0  0  0  0  0  0  0  0  0  0
  152.9334  137.9105  155.7705 C   0  0  0  0  0  0  0  0  0  0  0  0
  152.7023  139.1833  156.1019 N   0  0  0  0  0  0  0  0  0  0  0  0
  151.3996  139.3725  156.4599 C   0  0  0  0  0  0  0  0  0  0  0  0
  150.3821  138.3794  156.4939 C   0  0  0  0  0  0  0  0  0  0  0  0
  149.1805  138.9382  156.9108 N   0  0  0  0  0  0  0  0  0  0  0  0
  149.4719  140.1947  157.1139 C   0  0  0  0  0  0  0  0  0  0  0  0
  150.7814  140.5408  156.8663 N   0  0  0  0  0  0  0  0  0  0  0  0
  151.3783  141.8586  157.0107 C   0  0  0  0  0  0  0  0  0  0  0  0
  151.5417  142.3436  158.4858 C   0  0  1  0  0  0  0  0  0  0  0  0
  150.3217  142.8520  159.0088 O   0  0  0  0  0  0  0  0  0  0  0  0
  152.0292  141.2433  159.4421 C   0  0  0  0  0  0  0  0  0  0  0  0
  153.2489  141.8404  160.1465 C   0  0  0  0  0  0  0  0  0  0  0  0
  153.1314  143.2381  159.9452 O   0  0  0  0  0  0  0  0  0  0  0  0
  152.6363  143.4241  158.6300 C   0  0  2  0  0  0  0  0  0  0  0  0
  152.2098  144.8815  158.3895 C   0  0  0  0  0  0  0  0  0  0  0  0
  149.5265  135.6176  154.7543 C   0  0  0  0  0  0  0  0  0  0  0  0
  145.4455  132.3825  150.2186 H   0  0  0  0  0  0  0  0  0  0  0  0
  144.9166  133.5397  151.4338 H   0  0  0  0  0  0  0  0  0  0  0  0
  145.0305  131.8240  151.8343 H   0  0  0  0  0  0  0  0  0  0  0  0
  147.5330  131.9249  151.4980 H   0  0  0  0  0  0  0  0  0  0  0  0
  147.4145  133.6285  151.1138 H   0  0  0  0  0  0  0  0  0  0  0  0
  148.5581  134.5235  152.7071 H   0  0  0  0  0  0  0  0  0  0  0  0
  147.4894  135.0906  155.2358 H   0  0  0  0  0  0  0  0  0  0  0  0
  147.8952  132.7333  155.8224 H   0  0  0  0  0  0  0  0  0  0  0  0
  149.5546  132.8438  155.2774 H   0  0  0  0  0  0  0  0  0  0  0  0
  148.3192  134.3726  157.6165 H   0  0  0  0  0  0  0  0  0  0  0  0
  149.4923  133.0815  157.7316 H   0  0  0  0  0  0  0  0  0  0  0  0
  150.5500  135.3489  157.9765 H   0  0  0  0  0  0  0  0  0  0  0  0
  151.2070  134.4675  156.6081 H   0  0  0  0  0  0  0  0  0  0  0  0
  153.9469  137.6813  155.4759 H   0  0  0  0  0  0  0  0  0  0  0  0
  148.7356  140.9079  157.4544 H   0  0  0  0  0  0  0  0  0  0  0  0
  152.3365  141.8399  156.4916 H   0  0  0  0  0  0  0  0  0  0  0  0
  150.7649  142.5577  156.4411 H   0  0  0  0  0  0  0  0  0  0  0  0
  150.4615  143.0881  159.9131 H   0  0  0  0  0  0  0  0  0  0  0  0
  151.2614  140.9736  160.1692 H   0  0  0  0  0  0  0  0  0  0  0  0
  152.3128  140.3213  158.9343 H   0  0  0  0  0  0  0  0  0  0  0  0
  153.2873  141.5913  161.2070 H   0  0  0  0  0  0  0  0  0  0  0  0
  154.1708  141.4893  159.6804 H   0  0  0  0  0  0  0  0  0  0  0  0
  153.4628  143.1936  157.9548 H   0  0  0  0  0  0  0  0  0  0  0  0
  151.7888  145.0062  157.3916 H   0  0  0  0  0  0  0  0  0  0  0  0
  153.0659  145.5509  158.4741 H   0  0  0  0  0  0  0  0  0  0  0  0
  151.4652  145.2127  159.1134 H   0  0  0  0  0  0  0  0  0  0  0  0
  150.3855  135.1740  154.2484 H   0  0  0  0  0  0  0  0  0  0  0  0
  149.2289  136.4909  154.1718 H   0  0  0  0  0  0  0  0  0  0  0  0
  1  2  1  0  0  0  0
  1 29  1  0  0  0  0
  1 30  1  0  0  0  0
  1 31  1  0  0  0  0
  2  3  1  0  0  0  0
  2 32  1  0  0  0  0
  2 33  1  0  0  0  0
  3  4  2  0  0  0  0
  3  5  1  0  0  0  0
  5  6  1  0  0  0  0
  5 34  1  0  0  0  0
  6 28  1  0  0  0  0
  6  7  1  0  0  0  0
  6 35  1  0  0  0  0
  7  8  1  0  0  0  0
  7 36  1  0  0  0  0
  7 37  1  0  0  0  0
  8  9  1  0  0  0  0
  8 38  1  0  0  0  0
  8 39  1  0  0  0  0
  9 10  1  0  0  0  0
  9 40  1  0  0  0  0
  9 41  1  0  0  0  0
 10 11  1  0  0  0  0
 10 28  1  0  0  0  0
 11 16  1  0  0  0  0
 11 12  2  0  0  0  0
 12 13  1  0  0  0  0
 13 14  2  0  0  0  0
 13 42  1  0  0  0  0
 14 15  1  0  0  0  0
 15 19  1  0  0  0  0
 15 16  2  0  0  0  0
 16 17  1  0  0  0  0
 17 18  2  0  0  0  0
 18 19  1  0  0  0  0
 18 43  1  0  0  0  0
 19 20  1  0  0  0  0
 20 21  1  0  0  0  0
 20 44  1  0  0  0  0
 20 45  1  0  0  0  0
 21 26  1  0  0  0  0
 21 22  1  0  0  0  0
 21 23  1  0  0  0  0
 22 46  1  0  0  0  0
 23 24  1  0  0  0  0
 23 47  1  0  0  0  0
 23 48  1  0  0  0  0
 24 25  1  0  0  0  0
 24 49  1  0  0  0  0
 24 50  1  0  0  0  0
 25 26  1  0  0  0  0
 26 27  1  0  0  0  0
 26 51  1  0  0  0  0
 27 52  1  0  0  0  0
 27 53  1  0  0  0  0
 27 54  1  0  0  0  0
 28 55  1  0  0  0  0
 28 56  1  0  0  0  0
M  END
> <s_m_source_file>
AV-unprocessed.smi

> <i_m_source_file_index>
252

> <i_lp_mmshare_version>
43012

> <i_f3d_flags>
0

> <s_epik_input>
W0NIM11bQ0gyXUMoPU8pW05IXVtDQEBIXTFbQ0gyXVtDSDJdW0NIMl1OKFtDSDJdMSljKG5bY0hdbjIpYyhjMjMpbltjSF1uM1tDSDJdW0NAQF00KFtPSF0pW0NIMl1bQ0gyXU9bQ0BIXTRbQ0gzXQ==

> <s_epik_cmdline>
J2VwaWtfcHl0aG9uJywgJy1waCcsICc3LjAnLCAnLXRuJywgJzgnLCAnLW1hJywgJzIwMCcsICctbWV0YWxfYmluZGluZycsICctaW1hZScsICc8aW5maWxlLm1hZT4nLCAnLW9tYWUnLCAnPG91dGZpbGUubWFlPic=

> <r_lp_tautomer_probability>
1

> <r_epik_Ionization_Penalty>
0.00182575

> <r_epik_Ionization_Penalty_Charging>
0

> <r_epik_Ionization_Penalty_Neutral>
0.00182575

> <r_epik_State_Penalty>
0.00104524

> <r_epik_Charging_Adjusted_Penalty>
0.00104524

> <i_epik_Tot_Q>
0

> <i_epik_Tot_abs_Q>
0

> <r_epik_Metal_State_Penalty>
-0

> <b_epik_Metal_Only>
0

> <s_lp_Force_Field>
OPLS_2005

> <r_lp_Energy>
42.5457

> <b_lp_Chiralities_Consistent>
1

> <s_lp_Variant>
AV-unprocessed.smi:252-6

> <Gold.Version>
5.8.1

> <Gold.Id.Protein>
6NUR|6NUR_protein|mol2

> <Gold.PLP.Fitness>
47.8332

> <Gold.PLP.PLP>
-40.7044

> <Gold.PLP.part.hbond>
-3.9598

> <Gold.PLP.part.metal>
0.0000

> <Gold.PLP.part.buried>
-4.3935

> <Gold.PLP.part.nonpolar>
-33.0155

> <Gold.PLP.part.repulsive>
0.1770

> <Gold.PLP.ligand.clash>
0.0000

> <Gold.PLP.ligand.torsion>
0.8365

> <Gold.PLP.Chemscore.Hbond>
2.8640

> <Gold.PLP.Chemscore.CHOScore>
0.0000

> <Gold.PLP.Chemscore.Metal>
0.0000

> <Gold.Chemscore.Hbonds>
donor molecule, donor type, donor heavy atom, donor atom, acceptor molecule, acceptor atom, score
      L1  H     5    34       P1  7948  0.66
      P1  H  7997  8009       L1    14  1.00
      P1  H 10752 10764       L1    12  0.88

> <Gold.PLP.Chemscore.Internal.Correction>
0.2097

> <Gold.Rescore>
     Score         DG    S(hbond)    S(metal)    S(lipo)     H(rot)  DE(clash)    DE(int)     intcor
     13.73     -17.04       2.10        0.00      97.95       2.70       1.00       2.31       ----

> <Gold.Chemscore.Fitness>
13.7285

> <Gold.Chemscore.DG>
-17.0438

> <Gold.Chemscore.ZeroCoef>
-5.4800

> <Gold.Chemscore.Hbond>
2.1035

> <Gold.Chemscore.Metal>
0.0000

> <Gold.Chemscore.Lipo>
97.9542

> <Gold.Chemscore.Internal_Hbond>
0.0000

> <Gold.Chemscore.DEClash>
1.0026

> <Gold.Chemscore.DEInternal>
2.3127

> <Gold.Chemscore.Rot>
2.7041

> <Gold.Chemscore.Internal.Correction>
   9.000000E+99

> <Gold.Chemscore.Hbonds>
donor molecule, donor type, donor heavy atom, donor atom, acceptor molecule, acceptor atom, score
      L1  H     5    34       P1  7948  0.08
      P1  H  7997  8009       L1    14  0.74
      P1  H 10752 10764       L1    12  0.34

> <Gold.Chemscore.Hbond.Weighted>
-7.0256

> <Gold.Chemscore.Metal.Weighted>
-0.0000

> <Gold.Chemscore.Lipo.Weighted>
-11.4606

> <Gold.Chemscore.Internal_Hbond.Weighted>
0.0000

> <Gold.Chemscore.DEClash.Weighted>
1.0026

> <Gold.Chemscore.DEInternal.Weighted>
2.3127

> <Gold.Chemscore.Rot.Weighted>
6.9225

> <Gold.Chemscore.Internal.Correction.Weighted>
   9.000000E+99

> <Gold.Protein.RotatedTorsions>
[ 6907 6896 6895 6894 ] final    8.48 input  -60.11 | X-H torsion
[ 7974 7965 7964 7962 ] final   40.34 input  175.53 | X-H torsion
[ 8008 7997 7996 7995 ] final -166.30 input   59.86 | X-H torsion
[ 10167 10162 10161 10158 ] final   76.29 input  -65.29 | X-H torsion
[ 10718 10713 10712 10709 ] final   -6.91 input   66.30 | X-H torsion
[ 10763 10752 10751 10750 ] final  -58.87 input  -60.55 | X-H torsion
[ 11005 11000 10999 10996 ] final  -94.73 input  -57.11 | X-H torsion

> <Gold.Protein.ActiveResidues>
 VAL166  LYS551  ARG553  GLY616  TRP617  ASP618  TYR619  PRO620  LYS621  CYS622 
 ASP623  PHE694  ASN695  SER759  ASP760  ASP761  ALA762  ILE779  LEU786  VAL792 
 PHE793  MET794  SER795  GLU796  ALA797  LYS798  CYS799  TRP800  GLU811  SER814 

> <Gold.Protein.RotatedAtoms>
  151.7067  135.0920  160.0260 H   0  0  0  0  0  0  0  0  0  0  0  0  # atno 6907 bound_to 6896
  152.3687  133.6386  159.6079 H   0  0  0  0  0  0  0  0  0  0  0  0  # atno 6908 bound_to 6896
  150.7657  133.9222  159.3443 H   0  0  0  0  0  0  0  0  0  0  0  0  # atno 6909 bound_to 6896
  146.0912  139.5544  142.9474 H   0  0  0  0  0  0  0  0  0  0  0  0  # atno 7974 bound_to 7965
  155.8618  140.0979  157.1608 H   0  0  0  0  0  0  0  0  0  0  0  0  # atno 8008 bound_to 7997
  154.3991  140.1363  156.4033 H   0  0  0  0  0  0  0  0  0  0  0  0  # atno 8009 bound_to 7997
  155.7848  140.3457  155.5319 H   0  0  0  0  0  0  0  0  0  0  0  0  # atno 8010 bound_to 7997
  139.9938  144.5737  150.7795 H   0  0  0  0  0  0  0  0  0  0  0  0  # atno 10167 bound_to 10162
  156.7249  130.5162  149.5859 H   0  0  0  0  0  0  0  0  0  0  0  0  # atno 10718 bound_to 10713
  154.2449  135.6336  153.5220 H   0  0  0  0  0  0  0  0  0  0  0  0  # atno 10763 bound_to 10752
  152.9923  135.5551  154.5870 H   0  0  0  0  0  0  0  0  0  0  0  0  # atno 10764 bound_to 10752
  154.5384  135.2893  155.1092 H   0  0  0  0  0  0  0  0  0  0  0  0  # atno 10765 bound_to 10752
  141.1462  133.7976  157.0338 H   0  0  0  0  0  0  0  0  0  0  0  0  # atno 11005 bound_to 11000
  145.6034  141.0351  143.2006 LP  0  0  0  0  0  0  0  0  0  0  0  0  # atno 17320 bound_to 7965
  144.7362  139.7580  143.7328 LP  0  0  0  0  0  0  0  0  0  0  0  0  # atno 17321 bound_to 7965
  140.7445  143.2861  151.3460 LP  0  0  0  0  0  0  0  0  0  0  0  0  # atno 17342 bound_to 10162
  139.6320  144.0702  152.2484 LP  0  0  0  0  0  0  0  0  0  0  0  0  # atno 17343 bound_to 10162
  156.1569  130.6347  151.0668 LP  0  0  0  0  0  0  0  0  0  0  0  0  # atno 17370 bound_to 10713
  157.6883  131.0818  150.7181 LP  0  0  0  0  0  0  0  0  0  0  0  0  # atno 17371 bound_to 10713
  140.0737  134.9688  157.1510 LP  0  0  0  0  0  0  0  0  0  0  0  0  # atno 17394 bound_to 11000
  140.3674  134.2427  155.7181 LP  0  0  0  0  0  0  0  0  0  0  0  0  # atno 17395 bound_to 11000

$$$$
