AV-unprocessed.smi:2564|AV-procd|sdf|10062|dock4
  -GOLD-   2272014103D 1   1.00000     0.00000
 Structure written by MMmdl.
 29 30  0  0  0  0  0  0  0  0  2 V2000
  152.3195  144.3274  158.9700 C   0  0  0  0  0  0  0  0  0  0  0  0
  152.6637  143.2671  159.8284 C   0  0  0  0  0  0  0  0  0  0  0  0
  152.3280  141.9832  159.5700 N   0  0  0  0  0  0  0  0  0  0  0  0
  151.6415  141.6804  158.4625 N   0  0  0  0  0  0  0  0  0  0  0  0
  151.2768  142.6528  157.5892 C   0  0  0  0  0  0  0  0  0  0  0  0
  150.5557  142.3021  156.4401 N   0  0  0  0  0  0  0  0  0  0  0  0
  150.8528  141.0657  155.7306 C   0  0  0  0  0  0  0  0  0  0  0  0
  149.5930  140.4566  155.1005 C   0  0  2  0  0  0  0  0  0  0  0  0
  149.9193  139.1861  154.2905 C   0  0  0  0  0  0  0  0  0  0  0  0
  148.7023  138.6765  153.6285 N   0  3  0  0  0  0  0  0  0  0  0  0
  148.0615  139.7139  152.7973 C   0  0  0  0  0  0  0  0  0  0  0  0
  147.7990  140.9741  153.6384 C   0  0  0  0  0  0  0  0  0  0  0  0
  149.0203  141.4201  154.2186 O   0  0  0  0  0  0  0  0  0  0  0  0
  151.5987  144.0073  157.8065 C   0  0  0  0  0  0  0  0  0  0  0  0
  152.5978  145.3458  159.1968 H   0  0  0  0  0  0  0  0  0  0  0  0
  153.2168  143.4500  160.7376 H   0  0  0  0  0  0  0  0  0  0  0  0
  149.9242  142.9695  156.0213 H   0  0  0  0  0  0  0  0  0  0  0  0
  151.6064  141.2520  154.9641 H   0  0  0  0  0  0  0  0  0  0  0  0
  151.2824  140.3568  156.4397 H   0  0  0  0  0  0  0  0  0  0  0  0
  148.8801  140.2100  155.8901 H   0  0  0  0  0  0  0  0  0  0  0  0
  150.6754  139.3996  153.5335 H   0  0  0  0  0  0  0  0  0  0  0  0
  150.3245  138.4093  154.9394 H   0  0  0  0  0  0  0  0  0  0  0  0
  148.9397  137.8819  153.0519 H   0  0  0  0  0  0  0  0  0  0  0  0
  148.7127  139.9518  151.9552 H   0  0  0  0  0  0  0  0  0  0  0  0
  147.1303  139.3246  152.3851 H   0  0  0  0  0  0  0  0  0  0  0  0
  147.3931  141.7678  153.0109 H   0  0  0  0  0  0  0  0  0  0  0  0
  147.0626  140.7769  154.4191 H   0  0  0  0  0  0  0  0  0  0  0  0
  151.3042  144.7761  157.1073 H   0  0  0  0  0  0  0  0  0  0  0  0
  148.0479  138.3832  154.3401 H   0  0  0  0  0  0  0  0  0  0  0  0
  1 14  1  0  0  0  0
  1  2  2  0  0  0  0
  1 15  1  0  0  0  0
  2  3  1  0  0  0  0
  2 16  1  0  0  0  0
  3  4  2  0  0  0  0
  4  5  1  0  0  0  0
  5  6  1  0  0  0  0
  5 14  2  0  0  0  0
  6  7  1  0  0  0  0
  6 17  1  0  0  0  0
  7  8  1  0  0  0  0
  7 18  1  0  0  0  0
  7 19  1  0  0  0  0
  8 13  1  0  0  0  0
  8  9  1  0  0  0  0
  8 20  1  0  0  0  0
  9 10  1  0  0  0  0
  9 21  1  0  0  0  0
  9 22  1  0  0  0  0
 10 11  1  0  0  0  0
 10 23  1  0  0  0  0
 10 29  1  0  0  0  0
 11 12  1  0  0  0  0
 11 24  1  0  0  0  0
 11 25  1  0  0  0  0
 12 13  1  0  0  0  0
 12 26  1  0  0  0  0
 12 27  1  0  0  0  0
 14 28  1  0  0  0  0
M  CHG  1  10   1
M  END
> <s_m_source_file>
AV-unprocessed.smi

> <i_m_source_file_index>
2564

> <i_lp_mmshare_version>
43012

> <i_f3d_flags>
0

> <s_epik_input>
W2NIXTFbY0hdW2NIXW5uYzFbTkhdW0NIMl1bQ0BASF0yW0NIMl1bTkhdW0NIMl1bQ0gyXU8y

> <s_epik_cmdline>
J2VwaWtfcHl0aG9uJywgJy1waCcsICc3LjAnLCAnLXRuJywgJzgnLCAnLW1hJywgJzIwMCcsICctbWV0YWxfYmluZGluZycsICctaW1hZScsICc8aW5maWxlLm1hZT4nLCAnLW9tYWUnLCAnPG91dGZpbGUubWFlPic=

> <r_lp_tautomer_probability>
0.999978

> <r_epik_Ionization_Penalty>
0.0278973

> <r_epik_Ionization_Penalty_Charging>
0.00959556

> <r_epik_Ionization_Penalty_Neutral>
0.0183017

> <r_epik_State_Penalty>
0.0323017

> <r_epik_Charging_Adjusted_Penalty>
0.0418973

> <i_epik_Tot_Q>
1

> <i_epik_Tot_abs_Q>
1

> <r_epik_Metal_State_Penalty>
0.0301524

> <b_epik_Metal_Only>
0

> <s_lp_Force_Field>
OPLS_2005

> <r_lp_Energy>
19.9275

> <b_lp_Chiralities_Consistent>
1

> <s_lp_Variant>
AV-unprocessed.smi:2564-1

> <Gold.Version>
5.8.1

> <Gold.Id.Protein>
6NUR|6NUR_protein|mol2

> <Gold.PLP.Fitness>
38.7514

> <Gold.PLP.PLP>
-29.2733

> <Gold.PLP.part.hbond>
-4.2749

> <Gold.PLP.part.metal>
0.0000

> <Gold.PLP.part.buried>
3.6790

> <Gold.PLP.part.nonpolar>
-28.2295

> <Gold.PLP.part.repulsive>
0.3330

> <Gold.PLP.ligand.clash>
0.0000

> <Gold.PLP.ligand.torsion>
0.4627

> <Gold.PLP.Chemscore.Hbond>
3.4673

> <Gold.PLP.Chemscore.CHOScore>
0.0000

> <Gold.PLP.Chemscore.Metal>
0.0000

> <Gold.Chemscore.Hbonds>
donor molecule, donor type, donor heavy atom, donor atom, acceptor molecule, acceptor atom, score
      L1  H     6    17       P1  8028  0.91
      L1  H    10    23       P1  7948  2.00
      P1  H  8011  8017       L1    13  0.20

> <Gold.PLP.Chemscore.Internal.Correction>
0.0015

> <Gold.Rescore>
     Score         DG    S(hbond)    S(metal)    S(lipo)     H(rot)  DE(clash)    DE(int)     intcor
     15.48     -18.54       2.11        0.00      80.42       1.33       2.55       0.51       ----

> <Gold.Chemscore.Fitness>
15.4834

> <Gold.Chemscore.DG>
-18.5449

> <Gold.Chemscore.ZeroCoef>
-5.4800

> <Gold.Chemscore.Hbond>
2.1102

> <Gold.Chemscore.Metal>
0.0000

> <Gold.Chemscore.Lipo>
80.4215

> <Gold.Chemscore.Internal_Hbond>
0.0000

> <Gold.Chemscore.DEClash>
2.5531

> <Gold.Chemscore.DEInternal>
0.5084

> <Gold.Chemscore.Rot>
1.3251

> <Gold.Chemscore.Internal.Correction>
   9.000000E+99

> <Gold.Chemscore.Hbonds>
donor molecule, donor type, donor heavy atom, donor atom, acceptor molecule, acceptor atom, score
      L1  H     6    17       P1  8028  0.87
      L1  H    10    23       P1  7948  0.95
      P1  H  8011  8017       L1    13  0.03

> <Gold.Chemscore.Hbond.Weighted>
-7.0480

> <Gold.Chemscore.Metal.Weighted>
-0.0000

> <Gold.Chemscore.Lipo.Weighted>
-9.4093

> <Gold.Chemscore.Internal_Hbond.Weighted>
0.0000

> <Gold.Chemscore.DEClash.Weighted>
2.5531

> <Gold.Chemscore.DEInternal.Weighted>
0.5084

> <Gold.Chemscore.Rot.Weighted>
3.3924

> <Gold.Chemscore.Internal.Correction.Weighted>
   9.000000E+99

> <Gold.Protein.RotatedTorsions>
[ 6907 6896 6895 6894 ] final  111.34 input  -60.11 | X-H torsion
[ 7974 7965 7964 7962 ] final  154.34 input  175.53 | X-H torsion
[ 8008 7997 7996 7995 ] final  106.06 input   59.86 | X-H torsion
[ 10167 10162 10161 10158 ] final  -19.26 input  -65.29 | X-H torsion
[ 10718 10713 10712 10709 ] final -148.36 input   66.30 | X-H torsion
[ 10763 10752 10751 10750 ] final  -78.71 input  -60.55 | X-H torsion
[ 11005 11000 10999 10996 ] final  -41.19 input  -57.11 | X-H torsion

> <Gold.Protein.ActiveResidues>
 VAL166  LYS551  ARG553  GLY616  TRP617  ASP618  TYR619  PRO620  LYS621  CYS622 
 ASP623  PHE694  ASN695  SER759  ASP760  ASP761  ALA762  ILE779  LEU786  VAL792 
 PHE793  MET794  SER795  GLU796  ALA797  LYS798  CYS799  TRP800  GLU811  SER814 

> <Gold.Protein.RotatedAtoms>
  152.4974  133.8672  159.7279 H   0  0  0  0  0  0  0  0  0  0  0  0  # atno 6907 bound_to 6896
  150.9168  133.6920  159.2848 H   0  0  0  0  0  0  0  0  0  0  0  0  # atno 6908 bound_to 6896
  151.4311  135.1014  159.9695 H   0  0  0  0  0  0  0  0  0  0  0  0  # atno 6909 bound_to 6896
  144.8095  139.6920  143.6147 H   0  0  0  0  0  0  0  0  0  0  0  0  # atno 7974 bound_to 7965
  156.1711  140.3119  155.8976 H   0  0  0  0  0  0  0  0  0  0  0  0  # atno 8008 bound_to 7997
  155.3584  140.0475  157.3063 H   0  0  0  0  0  0  0  0  0  0  0  0  # atno 8009 bound_to 7997
  154.5242  140.2208  155.8930 H   0  0  0  0  0  0  0  0  0  0  0  0  # atno 8010 bound_to 7997
  140.7266  143.4836  151.0084 H   0  0  0  0  0  0  0  0  0  0  0  0  # atno 10167 bound_to 10162
  156.4193  130.8021  151.2243 H   0  0  0  0  0  0  0  0  0  0  0  0  # atno 10718 bound_to 10713
  154.5293  135.5720  153.6746 H   0  0  0  0  0  0  0  0  0  0  0  0  # atno 10763 bound_to 10752
  152.9935  135.6201  154.2650 H   0  0  0  0  0  0  0  0  0  0  0  0  # atno 10764 bound_to 10752
  154.2575  135.2857  155.2771 H   0  0  0  0  0  0  0  0  0  0  0  0  # atno 10765 bound_to 10752
  141.0229  133.6855  156.2424 H   0  0  0  0  0  0  0  0  0  0  0  0  # atno 11005 bound_to 11000
  146.2392  139.5966  142.9503 LP  0  0  0  0  0  0  0  0  0  0  0  0  # atno 17320 bound_to 7965
  145.5357  141.0424  143.2358 LP  0  0  0  0  0  0  0  0  0  0  0  0  # atno 17321 bound_to 7965
  139.8536  143.7406  152.3177 LP  0  0  0  0  0  0  0  0  0  0  0  0  # atno 17342 bound_to 10162
  139.7596  144.7510  151.0383 LP  0  0  0  0  0  0  0  0  0  0  0  0  # atno 17343 bound_to 10162
  157.7508  131.0233  150.3828 LP  0  0  0  0  0  0  0  0  0  0  0  0  # atno 17370 bound_to 10713
  156.4142  130.3940  149.6870 LP  0  0  0  0  0  0  0  0  0  0  0  0  # atno 17371 bound_to 10713
  140.6542  134.5035  157.5579 LP  0  0  0  0  0  0  0  0  0  0  0  0  # atno 17394 bound_to 11000
  139.9157  134.8251  156.1375 LP  0  0  0  0  0  0  0  0  0  0  0  0  # atno 17395 bound_to 11000

$$$$
