AV-unprocessed.smi:554|AV-procd|sdf|2909|dock3
  -GOLD-   2262023403D 1   1.00000     0.00000
 Structure written by MMmdl.
 27 28  0  0  0  0  0  0  0  0  1 V2000
  152.4813  143.0491  161.6833 C   0  0  0  0  0  0  0  0  0  0  0  0
  152.7723  142.7749  160.2240 C   0  0  1  0  0  0  0  0  0  0  0  0
  152.3049  141.4963  159.5696 C   0  0  0  0  0  0  0  0  0  0  0  0
  151.6613  142.8114  159.1971 C   0  0  2  0  0  0  0  0  0  0  0  0
  151.8844  143.4094  157.8211 C   0  0  0  0  0  0  0  0  0  0  0  0
  150.7890  143.2096  156.8813 N   0  0  0  0  0  0  0  0  0  0  0  0
  150.4140  142.0236  156.3812 C   0  0  0  0  0  0  0  0  0  0  0  0
  150.9572  140.9589  156.6778 O   0  0  0  0  0  0  0  0  0  0  0  0
  149.3841  142.1594  155.5275 N   0  0  0  0  0  0  0  0  0  0  0  0
  148.7093  141.1464  154.7967 C   0  0  0  0  0  0  0  0  0  0  0  0
  147.4993  141.2920  154.2440 N   0  0  0  0  0  0  0  0  0  0  0  0
  147.0806  140.1331  153.5856 C   0  0  0  0  0  0  0  0  0  0  0  0
  147.9908  139.1073  153.6472 C   0  0  0  0  0  0  0  0  0  0  0  0
  149.4189  139.5593  154.5393 S   0  0  0  0  0  0  0  0  0  0  0  0
  151.5053  142.6529  161.9656 H   0  0  0  0  0  0  0  0  0  0  0  0
  152.4871  144.1233  161.8687 H   0  0  0  0  0  0  0  0  0  0  0  0
  153.2411  142.5827  162.3105 H   0  0  0  0  0  0  0  0  0  0  0  0
  153.7414  143.1472  159.8975 H   0  0  0  0  0  0  0  0  0  0  0  0
  152.9712  141.0334  158.8445 H   0  0  0  0  0  0  0  0  0  0  0  0
  151.7178  140.8039  160.1696 H   0  0  0  0  0  0  0  0  0  0  0  0
  150.6511  142.9562  159.5764 H   0  0  0  0  0  0  0  0  0  0  0  0
  152.1068  144.4737  157.9134 H   0  0  0  0  0  0  0  0  0  0  0  0
  152.7741  142.9484  157.3917 H   0  0  0  0  0  0  0  0  0  0  0  0
  150.2866  144.0338  156.5854 H   0  0  0  0  0  0  0  0  0  0  0  0
  149.0441  143.0983  155.3802 H   0  0  0  0  0  0  0  0  0  0  0  0
  146.1173  140.1255  153.0975 H   0  0  0  0  0  0  0  0  0  0  0  0
  147.9080  138.1177  153.2230 H   0  0  0  0  0  0  0  0  0  0  0  0
  1  2  1  0  0  0  0
  1 15  1  0  0  0  0
  1 16  1  0  0  0  0
  1 17  1  0  0  0  0
  2  4  1  0  0  0  0
  2  3  1  0  0  0  0
  2 18  1  0  0  0  0
  3  4  1  0  0  0  0
  3 19  1  0  0  0  0
  3 20  1  0  0  0  0
  4  5  1  0  0  0  0
  4 21  1  0  0  0  0
  5  6  1  0  0  0  0
  5 22  1  0  0  0  0
  5 23  1  0  0  0  0
  6  7  1  0  0  0  0
  6 24  1  0  0  0  0
  7  8  2  0  0  0  0
  7  9  1  0  0  0  0
  9 10  1  0  0  0  0
  9 25  1  0  0  0  0
 10 14  1  0  0  0  0
 10 11  2  0  0  0  0
 11 12  1  0  0  0  0
 12 13  2  0  0  0  0
 12 26  1  0  0  0  0
 13 14  1  0  0  0  0
 13 27  1  0  0  0  0
M  END
> <s_m_source_file>
AV-unprocessed.smi

> <i_m_source_file_index>
554

> <i_lp_mmshare_version>
43012

> <i_f3d_flags>
0

> <s_epik_input>
W0NIM11bQ0BASF0xW0NIMl1bQ0BIXTFbQ0gyXVtOSF1DKD1PKVtOSF1jMm5bY0hdW2NIXXMy

> <s_epik_cmdline>
J2VwaWtfcHl0aG9uJywgJy1waCcsICc3LjAnLCAnLXRuJywgJzgnLCAnLW1hJywgJzIwMCcsICctbWV0YWxfYmluZGluZycsICctaW1hZScsICc8aW5maWxlLm1hZT4nLCAnLW9tYWUnLCAnPG91dGZpbGUubWFlPic=

> <r_lp_tautomer_probability>
0.999

> <r_epik_Ionization_Penalty>
0.00042678

> <r_epik_Ionization_Penalty_Charging>
0

> <r_epik_Ionization_Penalty_Neutral>
0.00042678

> <r_epik_State_Penalty>
0.000177984

> <r_epik_Charging_Adjusted_Penalty>
0.000177984

> <i_epik_Tot_Q>
0

> <i_epik_Tot_abs_Q>
0

> <r_epik_Metal_State_Penalty>
-0

> <b_epik_Metal_Only>
0

> <s_lp_Force_Field>
OPLS_2005

> <r_lp_Energy>
12.8371

> <b_lp_Chiralities_Consistent>
1

> <s_lp_Variant>
AV-unprocessed.smi:554-4

> <Gold.Version>
5.8.1

> <Gold.Id.Protein>
6NUR|6NUR_protein|mol2

> <Gold.PLP.Fitness>
41.4566

> <Gold.PLP.PLP>
-29.7568

> <Gold.PLP.part.hbond>
-2.0000

> <Gold.PLP.part.metal>
0.0000

> <Gold.PLP.part.buried>
-4.0821

> <Gold.PLP.part.nonpolar>
-24.6769

> <Gold.PLP.part.repulsive>
0.3741

> <Gold.PLP.ligand.clash>
0.0000

> <Gold.PLP.ligand.torsion>
0.4011

> <Gold.PLP.Chemscore.Hbond>
1.9920

> <Gold.PLP.Chemscore.CHOScore>
1.9948

> <Gold.PLP.Chemscore.Metal>
0.0000

> <Gold.Chemscore.Hbonds>
donor molecule, donor type, donor heavy atom, donor atom, acceptor molecule, acceptor atom, score
      L1  H     6    24       P1  8028  0.98
      L1  H     9    25       P1  8028  1.00
      L1  C    12    26       P1 10175  0.99
      L1  C    13    27       P1  7948  0.98

> <Gold.PLP.Chemscore.Internal.Correction>
0.5418

> <Gold.Rescore>
     Score         DG    S(hbond)    S(metal)    S(lipo)     H(rot)  DE(clash)    DE(int)     intcor
     15.89     -17.45       1.93        0.00      75.19       1.28       0.18       1.38       ----

> <Gold.Chemscore.Fitness>
15.8866

> <Gold.Chemscore.DG>
-17.4484

> <Gold.Chemscore.ZeroCoef>
-5.4800

> <Gold.Chemscore.Hbond>
1.9297

> <Gold.Chemscore.Metal>
0.0000

> <Gold.Chemscore.Lipo>
75.1875

> <Gold.Chemscore.Internal_Hbond>
0.0000

> <Gold.Chemscore.DEClash>
0.1803

> <Gold.Chemscore.DEInternal>
1.3815

> <Gold.Chemscore.Rot>
1.2788

> <Gold.Chemscore.Internal.Correction>
   9.000000E+99

> <Gold.Chemscore.Hbonds>
donor molecule, donor type, donor heavy atom, donor atom, acceptor molecule, acceptor atom, score
      L1  H     6    24       P1  8028  0.93
      L1  H     9    25       P1  8028  0.99

> <Gold.Chemscore.Hbond.Weighted>
-6.4453

> <Gold.Chemscore.Metal.Weighted>
-0.0000

> <Gold.Chemscore.Lipo.Weighted>
-8.7969

> <Gold.Chemscore.Internal_Hbond.Weighted>
0.0000

> <Gold.Chemscore.DEClash.Weighted>
0.1803

> <Gold.Chemscore.DEInternal.Weighted>
1.3815

> <Gold.Chemscore.Rot.Weighted>
3.2738

> <Gold.Chemscore.Internal.Correction.Weighted>
   9.000000E+99

> <Gold.Protein.RotatedTorsions>
[ 6907 6896 6895 6894 ] final   95.01 input  -60.11 | X-H torsion
[ 7974 7965 7964 7962 ] final -170.15 input  175.53 | X-H torsion
[ 8008 7997 7996 7995 ] final  149.82 input   59.86 | X-H torsion
[ 10167 10162 10161 10158 ] final   65.62 input  -65.29 | X-H torsion
[ 10718 10713 10712 10709 ] final -179.72 input   66.30 | X-H torsion
[ 10763 10752 10751 10750 ] final   -6.22 input  -60.55 | X-H torsion
[ 11005 11000 10999 10996 ] final  -54.09 input  -57.11 | X-H torsion

> <Gold.Protein.ActiveResidues>
 VAL166  LYS551  ARG553  GLY616  TRP617  ASP618  TYR619  PRO620  LYS621  CYS622 
 ASP623  PHE694  ASN695  SER759  ASP760  ASP761  ALA762  ILE779  LEU786  VAL792 
 PHE793  MET794  SER795  GLU796  ALA797  LYS798  CYS799  TRP800  GLU811  SER814 

> <Gold.Protein.RotatedAtoms>
  152.5446  134.1106  159.8356 H   0  0  0  0  0  0  0  0  0  0  0  0  # atno 6907 bound_to 6896
  151.1173  133.5122  159.2611 H   0  0  0  0  0  0  0  0  0  0  0  0  # atno 6908 bound_to 6896
  151.1818  135.0374  159.8850 H   0  0  0  0  0  0  0  0  0  0  0  0  # atno 6909 bound_to 6896
  144.7174  140.2115  143.6327 H   0  0  0  0  0  0  0  0  0  0  0  0  # atno 7974 bound_to 7965
  156.2740  140.2091  156.5919 H   0  0  0  0  0  0  0  0  0  0  0  0  # atno 8008 bound_to 7997
  154.6976  140.0524  157.0449 H   0  0  0  0  0  0  0  0  0  0  0  0  # atno 8009 bound_to 7997
  155.0780  140.3183  155.4613 H   0  0  0  0  0  0  0  0  0  0  0  0  # atno 8010 bound_to 7997
  140.1093  144.4833  150.6988 H   0  0  0  0  0  0  0  0  0  0  0  0  # atno 10167 bound_to 10162
  156.8633  130.9759  151.3081 H   0  0  0  0  0  0  0  0  0  0  0  0  # atno 10718 bound_to 10713
  153.4094  135.7007  153.6370 H   0  0  0  0  0  0  0  0  0  0  0  0  # atno 10763 bound_to 10752
  153.4871  135.3681  155.2472 H   0  0  0  0  0  0  0  0  0  0  0  0  # atno 10764 bound_to 10752
  154.8716  135.4080  154.3443 H   0  0  0  0  0  0  0  0  0  0  0  0  # atno 10765 bound_to 10752
  141.1008  133.6618  156.4269 H   0  0  0  0  0  0  0  0  0  0  0  0  # atno 11005 bound_to 11000
  145.8586  139.2211  143.1730 LP  0  0  0  0  0  0  0  0  0  0  0  0  # atno 17320 bound_to 7965
  146.0194  140.8362  142.9931 LP  0  0  0  0  0  0  0  0  0  0  0  0  # atno 17321 bound_to 7965
  140.6935  143.2389  151.5066 LP  0  0  0  0  0  0  0  0  0  0  0  0  # atno 17342 bound_to 10162
  139.5628  144.2114  152.1718 LP  0  0  0  0  0  0  0  0  0  0  0  0  # atno 17343 bound_to 10162
  157.6238  130.8675  149.9153 LP  0  0  0  0  0  0  0  0  0  0  0  0  # atno 17370 bound_to 10713
  156.0765  130.3678  150.0667 LP  0  0  0  0  0  0  0  0  0  0  0  0  # atno 17371 bound_to 10713
  140.5025  134.6472  157.5254 LP  0  0  0  0  0  0  0  0  0  0  0  0  # atno 17394 bound_to 11000
  139.9860  134.7061  155.9774 LP  0  0  0  0  0  0  0  0  0  0  0  0  # atno 17395 bound_to 11000

$$$$
