AV-unprocessed.smi:224|AV-procd|sdf|1707|dock9
  -GOLD-   2262020173D 1   1.00000     0.00000
 Structure written by MMmdl.
 56 59  0  0  0  0  0  0  0  0  2 V2000
  148.0448  126.6337  150.7654 C   0  0  0  0  0  0  0  0  0  0  0  0
  148.4942  127.9263  151.4631 C   0  0  2  0  0  0  0  0  0  0  0  0
  149.4204  127.5838  152.4727 O   0  0  0  0  0  0  0  0  0  0  0  0
  147.3267  128.6977  152.1139 C   0  0  0  0  0  0  0  0  0  0  0  0
  147.6804  130.1069  152.4504 N   0  3  2  0  0  0  0  0  0  0  0  0
  148.5141  130.1761  153.6849 C   0  0  0  0  0  0  0  0  0  0  0  0
  148.9479  131.6123  154.0092 C   0  0  0  0  0  0  0  0  0  0  0  0
  147.7831  132.4796  154.1100 N   0  0  0  0  0  0  0  0  0  0  0  0
  147.1951  132.5695  155.3331 C   0  0  0  0  0  0  0  0  0  0  0  0
  145.8404  132.5130  155.4372 N   0  0  0  0  0  0  0  0  0  0  0  0
  145.2481  132.5900  156.6322 C   0  0  0  0  0  0  0  0  0  0  0  0
  145.8103  132.7279  157.8334 N   0  0  0  0  0  0  0  0  0  0  0  0
  147.1685  132.8003  157.7387 C   0  0  0  0  0  0  0  0  0  0  0  0
  147.9349  132.7285  156.5405 C   0  0  0  0  0  0  0  0  0  0  0  0
  149.2872  132.8490  156.8401 N   0  0  0  0  0  0  0  0  0  0  0  0
  149.3182  132.9750  158.1388 C   0  0  0  0  0  0  0  0  0  0  0  0
  148.0895  132.9628  158.7590 N   0  0  0  0  0  0  0  0  0  0  0  0
  147.8336  133.0912  160.1857 C   0  0  0  0  0  0  0  0  0  0  0  0
  147.2020  134.4477  160.5752 C   0  0  1  0  0  0  0  0  0  0  0  0
  145.8953  134.5195  160.0305 O   0  0  0  0  0  0  0  0  0  0  0  0
  147.1139  134.6872  162.0796 C   0  0  0  0  0  0  0  0  0  0  0  0
  147.2593  136.1980  162.1907 C   0  0  0  0  0  0  0  0  0  0  0  0
  148.2456  136.4844  161.2139 O   0  0  0  0  0  0  0  0  0  0  0  0
  148.0052  135.6649  160.0742 C   0  0  0  0  0  0  0  0  0  0  0  0
  146.9497  132.4686  152.9116 C   0  0  0  0  0  0  0  0  0  0  0  0
  146.5093  131.0414  152.5016 C   0  0  1  0  0  0  0  0  0  0  0  0
  145.7595  131.1427  151.1574 C   0  0  0  0  0  0  0  0  0  0  0  0
  147.3592  126.8454  149.9446 H   0  0  0  0  0  0  0  0  0  0  0  0
  147.5369  125.9615  151.4577 H   0  0  0  0  0  0  0  0  0  0  0  0
  148.8971  126.0978  150.3461 H   0  0  0  0  0  0  0  0  0  0  0  0
  149.0278  128.5549  150.7515 H   0  0  0  0  0  0  0  0  0  0  0  0
  150.2963  127.7020  152.1375 H   0  0  0  0  0  0  0  0  0  0  0  0
  146.4897  128.6501  151.4220 H   0  0  0  0  0  0  0  0  0  0  0  0
  146.9879  128.1886  153.0179 H   0  0  0  0  0  0  0  0  0  0  0  0
  147.9504  129.7666  154.5249 H   0  0  0  0  0  0  0  0  0  0  0  0
  149.4084  129.5641  153.5804 H   0  0  0  0  0  0  0  0  0  0  0  0
  149.5425  131.6176  154.9215 H   0  0  0  0  0  0  0  0  0  0  0  0
  149.5962  131.9930  153.2194 H   0  0  0  0  0  0  0  0  0  0  0  0
  144.1695  132.5341  156.6247 H   0  0  0  0  0  0  0  0  0  0  0  0
  150.2440  133.0893  158.6843 H   0  0  0  0  0  0  0  0  0  0  0  0
  147.1798  132.2730  160.4904 H   0  0  0  0  0  0  0  0  0  0  0  0
  148.7742  132.9441  160.7184 H   0  0  0  0  0  0  0  0  0  0  0  0
  145.3987  135.1517  160.5274 H   0  0  0  0  0  0  0  0  0  0  0  0
  146.1997  134.3053  162.5358 H   0  0  0  0  0  0  0  0  0  0  0  0
  147.9587  134.2197  162.5863 H   0  0  0  0  0  0  0  0  0  0  0  0
  146.3269  136.7035  161.9346 H   0  0  0  0  0  0  0  0  0  0  0  0
  147.5691  136.5221  163.1844 H   0  0  0  0  0  0  0  0  0  0  0  0
  148.9613  135.3798  159.6340 H   0  0  0  0  0  0  0  0  0  0  0  0
  147.4592  136.2370  159.3221 H   0  0  0  0  0  0  0  0  0  0  0  0
  146.0828  133.1180  153.0429 H   0  0  0  0  0  0  0  0  0  0  0  0
  147.5330  132.9147  152.1050 H   0  0  0  0  0  0  0  0  0  0  0  0
  145.8153  130.6612  153.2526 H   0  0  0  0  0  0  0  0  0  0  0  0
  145.0279  131.9510  151.1844 H   0  0  0  0  0  0  0  0  0  0  0  0
  145.1981  130.2419  150.9145 H   0  0  0  0  0  0  0  0  0  0  0  0
  146.4445  131.3504  150.3347 H   0  0  0  0  0  0  0  0  0  0  0  0
  148.2596  130.4423  151.6942 H   0  0  0  0  0  0  0  0  0  0  0  0
  1  2  1  0  0  0  0
  1 28  1  0  0  0  0
  1 29  1  0  0  0  0
  1 30  1  0  0  0  0
  2  3  1  0  0  0  0
  2  4  1  0  0  0  0
  2 31  1  0  0  0  0
  3 32  1  0  0  0  0
  4  5  1  0  0  0  0
  4 33  1  0  0  0  0
  4 34  1  0  0  0  0
  5 26  1  0  0  0  0
  5  6  1  0  0  0  0
  5 56  1  0  0  0  0
  6  7  1  0  0  0  0
  6 35  1  0  0  0  0
  6 36  1  0  0  0  0
  7  8  1  0  0  0  0
  7 37  1  0  0  0  0
  7 38  1  0  0  0  0
  8  9  1  0  0  0  0
  8 25  1  0  0  0  0
  9 14  1  0  0  0  0
  9 10  2  0  0  0  0
 10 11  1  0  0  0  0
 11 12  2  0  0  0  0
 11 39  1  0  0  0  0
 12 13  1  0  0  0  0
 13 17  1  0  0  0  0
 13 14  2  0  0  0  0
 14 15  1  0  0  0  0
 15 16  2  0  0  0  0
 16 17  1  0  0  0  0
 16 40  1  0  0  0  0
 17 18  1  0  0  0  0
 18 19  1  0  0  0  0
 18 41  1  0  0  0  0
 18 42  1  0  0  0  0
 19 24  1  0  0  0  0
 19 20  1  0  0  0  0
 19 21  1  0  0  0  0
 20 43  1  0  0  0  0
 21 22  1  0  0  0  0
 21 44  1  0  0  0  0
 21 45  1  0  0  0  0
 22 23  1  0  0  0  0
 22 46  1  0  0  0  0
 22 47  1  0  0  0  0
 23 24  1  0  0  0  0
 24 48  1  0  0  0  0
 24 49  1  0  0  0  0
 25 26  1  0  0  0  0
 25 50  1  0  0  0  0
 25 51  1  0  0  0  0
 26 27  1  0  0  0  0
 26 52  1  0  0  0  0
 27 53  1  0  0  0  0
 27 54  1  0  0  0  0
 27 55  1  0  0  0  0
M  CHG  1   5   1
M  END
> <s_m_source_file>
AV-unprocessed.smi

> <i_m_source_file_index>
224

> <i_lp_mmshare_version>
43012

> <i_f3d_flags>
0

> <s_epik_input>
W0NIM11bQ0BIXShbT0hdKVtDSDJdTjFbQ0gyXVtDSDJdTihbQ0gyXVtDQEhdMVtDSDNdKWMobltjSF1uMiljKGMyMyluW2NIXW4zW0NIMl1bQ0BAXTQoW09IXSlbQ0gyXVtDSDJdT1tDSDJdNA==

> <s_epik_cmdline>
J2VwaWtfcHl0aG9uJywgJy1waCcsICc3LjAnLCAnLXRuJywgJzgnLCAnLW1hJywgJzIwMCcsICctbWV0YWxfYmluZGluZycsICctaW1hZScsICc8aW5maWxlLm1hZT4nLCAnLW9tYWUnLCAnPG91dGZpbGUubWFlPic=

> <r_lp_tautomer_probability>
1

> <r_epik_Ionization_Penalty>
0.00516958

> <r_epik_Ionization_Penalty_Charging>
0.00509693

> <r_epik_Ionization_Penalty_Neutral>
7.26542e-05

> <r_epik_State_Penalty>
-0

> <r_epik_Charging_Adjusted_Penalty>
0.00509693

> <i_epik_Tot_Q>
1

> <i_epik_Tot_abs_Q>
1

> <r_epik_Metal_State_Penalty>
-0

> <b_epik_Metal_Only>
0

> <s_lp_Force_Field>
OPLS_2005

> <r_lp_Energy>
50.3284

> <b_lp_Chiralities_Consistent>
1

> <s_lp_Variant>
AV-unprocessed.smi:224-1

> <Gold.Version>
5.8.1

> <Gold.Id.Protein>
6NUR|6NUR_protein|mol2

> <Gold.PLP.Fitness>
47.6427

> <Gold.PLP.PLP>
-36.6183

> <Gold.PLP.part.hbond>
-3.0000

> <Gold.PLP.part.metal>
0.0000

> <Gold.PLP.part.buried>
-2.7997

> <Gold.PLP.part.nonpolar>
-30.7145

> <Gold.PLP.part.repulsive>
0.2418

> <Gold.PLP.ligand.clash>
0.0000

> <Gold.PLP.ligand.torsion>
0.7458

> <Gold.PLP.Chemscore.Hbond>
3.0000

> <Gold.PLP.Chemscore.CHOScore>
0.9745

> <Gold.PLP.Chemscore.Metal>
0.0000

> <Gold.Chemscore.Hbonds>
donor molecule, donor type, donor heavy atom, donor atom, acceptor molecule, acceptor atom, score
      L1  H     3    32       P1 10737  1.00
      L1  H     5    56       P1 10747  1.00
      P1  H  6931  6943       L1    23  0.94
      L1  C    11    39       P1 10957  0.98

> <Gold.PLP.Chemscore.Internal.Correction>
0.5924

> <Gold.Rescore>
     Score         DG    S(hbond)    S(metal)    S(lipo)     H(rot)  DE(clash)    DE(int)     intcor
     15.62     -16.84       2.70        0.00      93.41       3.36       0.38       0.84       ----

> <Gold.Chemscore.Fitness>
15.6159

> <Gold.Chemscore.DG>
-16.8354

> <Gold.Chemscore.ZeroCoef>
-5.4800

> <Gold.Chemscore.Hbond>
2.7037

> <Gold.Chemscore.Metal>
0.0000

> <Gold.Chemscore.Lipo>
93.4141

> <Gold.Chemscore.Internal_Hbond>
0.0000

> <Gold.Chemscore.DEClash>
0.3800

> <Gold.Chemscore.DEInternal>
0.8395

> <Gold.Chemscore.Rot>
3.3611

> <Gold.Chemscore.Internal.Correction>
   9.000000E+99

> <Gold.Chemscore.Hbonds>
donor molecule, donor type, donor heavy atom, donor atom, acceptor molecule, acceptor atom, score
      L1  H     3    32       P1 10737  1.00
      L1  H     5    56       P1 10747  0.97
      P1  H  6931  6943       L1    23  0.31

> <Gold.Chemscore.Hbond.Weighted>
-9.0304

> <Gold.Chemscore.Metal.Weighted>
-0.0000

> <Gold.Chemscore.Lipo.Weighted>
-10.9294

> <Gold.Chemscore.Internal_Hbond.Weighted>
0.0000

> <Gold.Chemscore.DEClash.Weighted>
0.3800

> <Gold.Chemscore.DEInternal.Weighted>
0.8395

> <Gold.Chemscore.Rot.Weighted>
8.6045

> <Gold.Chemscore.Internal.Correction.Weighted>
   9.000000E+99

> <Gold.Protein.RotatedTorsions>
[ 6907 6896 6895 6894 ] final  135.09 input  -60.11 | X-H torsion
[ 7974 7965 7964 7962 ] final   46.55 input  175.53 | X-H torsion
[ 8008 7997 7996 7995 ] final  -23.28 input   59.86 | X-H torsion
[ 10167 10162 10161 10158 ] final   74.46 input  -65.29 | X-H torsion
[ 10718 10713 10712 10709 ] final   40.92 input   66.30 | X-H torsion
[ 10763 10752 10751 10750 ] final   64.14 input  -60.55 | X-H torsion
[ 11005 11000 10999 10996 ] final  160.58 input  -57.11 | X-H torsion

> <Gold.Protein.ActiveResidues>
 VAL166  LYS551  ARG553  GLY616  TRP617  ASP618  TYR619  PRO620  LYS621  CYS622 
 ASP623  PHE694  ASN695  SER759  ASP760  ASP761  ALA762  ILE779  LEU786  VAL792 
 PHE793  MET794  SER795  GLU796  ALA797  LYS798  CYS799  TRP800  GLU811  SER814 

> <Gold.Protein.RotatedAtoms>
  152.3043  133.5687  159.5638 H   0  0  0  0  0  0  0  0  0  0  0  0  # atno 6907 bound_to 6896
  150.7292  134.0246  159.3722 H   0  0  0  0  0  0  0  0  0  0  0  0  # atno 6908 bound_to 6896
  151.8144  135.0671  160.0468 H   0  0  0  0  0  0  0  0  0  0  0  0  # atno 6909 bound_to 6896
  146.0379  139.4844  142.9796 H   0  0  0  0  0  0  0  0  0  0  0  0  # atno 7974 bound_to 7965
  154.4594  140.1985  156.0287 H   0  0  0  0  0  0  0  0  0  0  0  0  # atno 8008 bound_to 7997
  156.0811  140.3271  155.7666 H   0  0  0  0  0  0  0  0  0  0  0  0  # atno 8009 bound_to 7997
  155.5110  140.0562  157.2914 H   0  0  0  0  0  0  0  0  0  0  0  0  # atno 8010 bound_to 7997
  140.0135  144.5596  150.7639 H   0  0  0  0  0  0  0  0  0  0  0  0  # atno 10167 bound_to 10162
  157.3876  130.7788  149.7243 H   0  0  0  0  0  0  0  0  0  0  0  0  # atno 10718 bound_to 10713
  153.0044  135.5404  154.6463 H   0  0  0  0  0  0  0  0  0  0  0  0  # atno 10763 bound_to 10752
  154.5706  135.2841  155.0833 H   0  0  0  0  0  0  0  0  0  0  0  0  # atno 10764 bound_to 10752
  154.2000  135.6485  153.5137 H   0  0  0  0  0  0  0  0  0  0  0  0  # atno 10765 bound_to 10752
  140.2073  134.8293  157.3083 H   0  0  0  0  0  0  0  0  0  0  0  0  # atno 11005 bound_to 11000
  145.6933  141.0158  143.1544 LP  0  0  0  0  0  0  0  0  0  0  0  0  # atno 17320 bound_to 7965
  144.7060  139.8558  143.7429 LP  0  0  0  0  0  0  0  0  0  0  0  0  # atno 17321 bound_to 7965
  140.7372  143.2762  151.3735 LP  0  0  0  0  0  0  0  0  0  0  0  0  # atno 17342 bound_to 10162
  139.6189  144.0947  152.2372 LP  0  0  0  0  0  0  0  0  0  0  0  0  # atno 17343 bound_to 10162
  155.9790  130.4044  150.3611 LP  0  0  0  0  0  0  0  0  0  0  0  0  # atno 17370 bound_to 10713
  157.1723  131.0372  151.2789 LP  0  0  0  0  0  0  0  0  0  0  0  0  # atno 17371 bound_to 10713
  140.1988  134.4280  155.7674 LP  0  0  0  0  0  0  0  0  0  0  0  0  # atno 17394 bound_to 11000
  141.2227  133.7062  156.8150 LP  0  0  0  0  0  0  0  0  0  0  0  0  # atno 17395 bound_to 11000

$$$$
