AV-unprocessed.smi:36|AV-procd|sdf|300|dock9
  -GOLD-   2262016103D 1   1.00000     0.00000
 Structure written by MMmdl.
 63 66  0  0  0  0  0  0  0  0  2 V2000
  152.5769  127.2918  155.8209 C   0  0  0  0  0  0  0  0  0  0  0  0
  152.4612  128.6482  155.1060 C   0  0  0  0  0  0  0  0  0  0  0  0
  153.7531  128.9400  154.3240 C   0  0  0  0  0  0  0  0  0  0  0  0
  151.2642  128.6307  154.1410 C   0  0  0  0  0  0  0  0  0  0  0  0
  152.1970  130.0272  156.4009 Si  0  0  0  0  0  0  0  0  0  0  0  0
  150.4948  129.8806  157.2316 C   0  0  0  0  0  0  0  0  0  0  0  0
  153.5602  129.9866  157.7264 C   0  0  0  0  0  0  0  0  0  0  0  0
  152.2635  131.5173  155.6013 O   0  0  0  0  0  0  0  0  0  0  0  0
  152.0654  132.7542  156.2537 C   0  0  0  0  0  0  0  0  0  0  0  0
  150.5735  132.9602  156.5511 C   0  0  1  0  0  0  0  0  0  0  0  0
  150.4594  134.1691  157.3040 O   0  0  0  0  0  0  0  0  0  0  0  0
  149.5559  135.0294  156.6881 C   0  0  1  0  0  0  0  0  0  0  0  0
  150.0190  136.4325  156.8945 N   0  0  0  0  0  0  0  0  0  0  0  0
  150.3740  137.0203  158.0542 C   0  0  0  0  0  0  0  0  0  0  0  0
  150.7641  138.2923  158.0027 N   0  0  0  0  0  0  0  0  0  0  0  0
  150.6559  138.5645  156.6467 C   0  0  0  0  0  0  0  0  0  0  0  0
  150.9059  139.7367  155.8816 C   0  0  0  0  0  0  0  0  0  0  0  0
  151.3405  140.8810  156.4299 N   0  5  0  0  0  0  0  0  0  0  0  0
  152.0804  140.8490  157.5672 C   0  0  0  0  0  0  0  0  0  0  0  0
  152.7576  139.9152  158.0028 O   0  0  0  0  0  0  0  0  0  0  0  0
  151.9693  142.1082  158.3850 C   0  0  0  0  0  0  0  0  0  0  0  0
  151.1109  143.1472  157.9577 C   0  0  0  0  0  0  0  0  0  0  0  0
  150.9750  144.3236  158.7202 C   0  0  0  0  0  0  0  0  0  0  0  0
  151.6897  144.4707  159.9235 C   0  0  0  0  0  0  0  0  0  0  0  0
  152.5362  143.4374  160.3668 C   0  0  0  0  0  0  0  0  0  0  0  0
  152.6723  142.2604  159.6052 C   0  0  0  0  0  0  0  0  0  0  0  0
  150.7048  139.6524  154.5418 N   0  0  0  0  0  0  0  0  0  0  0  0
  150.2767  138.5097  153.9933 C   0  0  0  0  0  0  0  0  0  0  0  0
  149.9945  137.3470  154.5881 N   0  0  0  0  0  0  0  0  0  0  0  0
  150.2004  137.4166  155.9359 C   0  0  0  0  0  0  0  0  0  0  0  0
  149.5398  134.6606  155.2090 C   0  0  0  0  0  0  0  0  0  0  0  0
  149.7178  133.1586  155.2850 C   0  0  2  0  0  0  0  0  0  0  0  0
  148.4666  132.5168  155.4344 O   0  0  0  0  0  0  0  0  0  0  0  0
  152.7274  126.4801  155.1084 H   0  0  0  0  0  0  0  0  0  0  0  0
  151.6760  127.0652  156.3916 H   0  0  0  0  0  0  0  0  0  0  0  0
  153.4177  127.2787  156.5148 H   0  0  0  0  0  0  0  0  0  0  0  0
  154.6233  128.9478  154.9807 H   0  0  0  0  0  0  0  0  0  0  0  0
  153.7064  129.9110  153.8296 H   0  0  0  0  0  0  0  0  0  0  0  0
  153.9300  128.1871  153.5552 H   0  0  0  0  0  0  0  0  0  0  0  0
  151.3869  127.8687  153.3705 H   0  0  0  0  0  0  0  0  0  0  0  0
  151.1471  129.5914  153.6387 H   0  0  0  0  0  0  0  0  0  0  0  0
  150.3326  128.4184  154.6662 H   0  0  0  0  0  0  0  0  0  0  0  0
  150.3837  128.9303  157.7529 H   0  0  0  0  0  0  0  0  0  0  0  0
  149.6863  129.9496  156.5044 H   0  0  0  0  0  0  0  0  0  0  0  0
  150.3397  130.6728  157.9639 H   0  0  0  0  0  0  0  0  0  0  0  0
  153.5551  129.0453  158.2754 H   0  0  0  0  0  0  0  0  0  0  0  0
  153.4358  130.7863  158.4562 H   0  0  0  0  0  0  0  0  0  0  0  0
  154.5513  130.0998  157.2882 H   0  0  0  0  0  0  0  0  0  0  0  0
  152.6384  132.7530  157.1812 H   0  0  0  0  0  0  0  0  0  0  0  0
  152.4509  133.5703  155.6431 H   0  0  0  0  0  0  0  0  0  0  0  0
  150.2073  132.1245  157.1497 H   0  0  0  0  0  0  0  0  0  0  0  0
  148.5760  134.9617  157.1629 H   0  0  0  0  0  0  0  0  0  0  0  0
  150.3415  136.4854  158.9920 H   0  0  0  0  0  0  0  0  0  0  0  0
  150.5540  143.0501  157.0372 H   0  0  0  0  0  0  0  0  0  0  0  0
  150.3210  145.1133  158.3811 H   0  0  0  0  0  0  0  0  0  0  0  0
  151.5853  145.3726  160.5081 H   0  0  0  0  0  0  0  0  0  0  0  0
  153.0803  143.5453  161.2933 H   0  0  0  0  0  0  0  0  0  0  0  0
  153.3197  141.4753  159.9688 H   0  0  0  0  0  0  0  0  0  0  0  0
  150.1387  138.5300  152.9227 H   0  0  0  0  0  0  0  0  0  0  0  0
  148.6206  134.9878  154.7218 H   0  0  0  0  0  0  0  0  0  0  0  0
  150.3920  135.1114  154.6999 H   0  0  0  0  0  0  0  0  0  0  0  0
  150.1933  132.7639  154.3874 H   0  0  0  0  0  0  0  0  0  0  0  0
  147.9548  133.0010  156.0641 H   0  0  0  0  0  0  0  0  0  0  0  0
  1  2  1  0  0  0  0
  1 34  1  0  0  0  0
  1 35  1  0  0  0  0
  1 36  1  0  0  0  0
  2  3  1  0  0  0  0
  2  4  1  0  0  0  0
  2  5  1  0  0  0  0
  3 37  1  0  0  0  0
  3 38  1  0  0  0  0
  3 39  1  0  0  0  0
  4 40  1  0  0  0  0
  4 41  1  0  0  0  0
  4 42  1  0  0  0  0
  5  6  1  0  0  0  0
  5  7  1  0  0  0  0
  5  8  1  0  0  0  0
  6 43  1  0  0  0  0
  6 44  1  0  0  0  0
  6 45  1  0  0  0  0
  7 46  1  0  0  0  0
  7 47  1  0  0  0  0
  7 48  1  0  0  0  0
  8  9  1  0  0  0  0
  9 10  1  0  0  0  0
  9 49  1  0  0  0  0
  9 50  1  0  0  0  0
 10 32  1  0  0  0  0
 10 11  1  0  0  0  0
 10 51  1  0  0  0  0
 11 12  1  0  0  0  0
 12 13  1  0  0  0  0
 12 31  1  0  0  0  0
 12 52  1  0  0  0  0
 13 30  1  0  0  0  0
 13 14  1  0  0  0  0
 14 15  2  0  0  0  0
 14 53  1  0  0  0  0
 15 16  1  0  0  0  0
 16 30  2  0  0  0  0
 16 17  1  0  0  0  0
 17 18  1  0  0  0  0
 17 27  2  0  0  0  0
 18 19  1  0  0  0  0
 19 20  2  0  0  0  0
 19 21  1  0  0  0  0
 21 26  1  0  0  0  0
 21 22  2  0  0  0  0
 22 23  1  0  0  0  0
 22 54  1  0  0  0  0
 23 24  2  0  0  0  0
 23 55  1  0  0  0  0
 24 25  1  0  0  0  0
 24 56  1  0  0  0  0
 25 26  2  0  0  0  0
 25 57  1  0  0  0  0
 26 58  1  0  0  0  0
 27 28  1  0  0  0  0
 28 29  2  0  0  0  0
 28 59  1  0  0  0  0
 29 30  1  0  0  0  0
 31 32  1  0  0  0  0
 31 60  1  0  0  0  0
 31 61  1  0  0  0  0
 32 33  1  0  0  0  0
 32 62  1  0  0  0  0
 33 63  1  0  0  0  0
M  CHG  1  18  -1
M  END
> <s_m_source_file>
AV-unprocessed.smi

> <i_m_source_file_index>
36

> <i_lp_mmshare_version>
43012

> <i_f3d_flags>
0

> <s_epik_input>
W0NIM11DKFtDSDNdKShbQ0gzXSlbU2ldKFtDSDNdKShbQ0gzXSlPW0NIMl1bQ0BASF0xT1tDQEhdKFtDSDJdW0NASF0xW09IXSluKFtjSF1uMiljKGMyMyluW2NIXW5jM1tOSF1DKD1PKWM0W2NIXVtjSF1bY0hdW2NIXVtjSF00

> <s_epik_cmdline>
J2VwaWtfcHl0aG9uJywgJy1waCcsICc3LjAnLCAnLXRuJywgJzgnLCAnLW1hJywgJzIwMCcsICctbWV0YWxfYmluZGluZycsICctaW1hZScsICc8aW5maWxlLm1hZT4nLCAnLW9tYWUnLCAnPG91dGZpbGUubWFlPic=

> <r_lp_tautomer_probability>
1

> <r_epik_Ionization_Penalty>
4.75685

> <r_epik_Ionization_Penalty_Charging>
3.55822

> <r_epik_Ionization_Penalty_Neutral>
1.19863

> <r_epik_State_Penalty>
3.564

> <r_epik_Charging_Adjusted_Penalty>
7.12222

> <i_epik_Tot_Q>
-1

> <i_epik_Tot_abs_Q>
1

> <r_epik_Metal_State_Penalty>
0.523258

> <b_epik_Metal_Only>
1

> <s_epik_Chemistry_Notes>
This compound contains an acetal/aminal-like group ( X-CH(R)-Y where X, Y are N, S, or O) that may be acid/base labile, releasing an aldehyde.

> <s_lp_Force_Field>
OPLS_2005

> <r_lp_Energy>
29.6254

> <b_lp_Chiralities_Consistent>
1

> <s_lp_Variant>
AV-unprocessed.smi:36-22

> <Gold.Version>
5.8.1

> <Gold.Id.Protein>
6NUR|6NUR_protein|mol2

> <Gold.PLP.Fitness>
55.2289

> <Gold.PLP.PLP>
-43.5990

> <Gold.PLP.part.hbond>
-3.0000

> <Gold.PLP.part.metal>
0.0000

> <Gold.PLP.part.buried>
-6.9285

> <Gold.PLP.part.nonpolar>
-34.3299

> <Gold.PLP.part.repulsive>
0.3107

> <Gold.PLP.ligand.clash>
0.2656

> <Gold.PLP.ligand.torsion>
0.6957

> <Gold.PLP.Chemscore.Hbond>
2.8160

> <Gold.PLP.Chemscore.CHOScore>
1.4181

> <Gold.PLP.Chemscore.Metal>
0.0000

> <Gold.Chemscore.Hbonds>
donor molecule, donor type, donor heavy atom, donor atom, acceptor molecule, acceptor atom, score
      P1  H  6896  6907       L1    11  0.70
      P1  H  7989  7998       L1    27  1.00
      P1  H  7997  8008       L1    20  0.89
      L1  C    28    59       P1  7948  0.34
      L1  C    28    59       P1  7957  1.00

> <Gold.PLP.Chemscore.Internal.Correction>
0.5845

> <Gold.Rescore>
     Score         DG    S(hbond)    S(metal)    S(lipo)     H(rot)  DE(clash)    DE(int)     intcor
     13.20     -19.13       2.40        0.00     106.70       2.67       0.05       5.88       ----

> <Gold.Chemscore.Fitness>
13.1968

> <Gold.Chemscore.DG>
-19.1291

> <Gold.Chemscore.ZeroCoef>
-5.4800

> <Gold.Chemscore.Hbond>
2.3954

> <Gold.Chemscore.Metal>
0.0000

> <Gold.Chemscore.Lipo>
106.7018

> <Gold.Chemscore.Internal_Hbond>
0.0000

> <Gold.Chemscore.DEClash>
0.0486

> <Gold.Chemscore.DEInternal>
5.8837

> <Gold.Chemscore.Rot>
2.6702

> <Gold.Chemscore.Internal.Correction>
   9.000000E+99

> <Gold.Chemscore.Hbonds>
donor molecule, donor type, donor heavy atom, donor atom, acceptor molecule, acceptor atom, score
      P1  H  6896  6907       L1    11  0.57
      P1  H  7989  7998       L1    27  0.91
      P1  H  7997  8008       L1    20  0.42

> <Gold.Chemscore.Hbond.Weighted>
-8.0008

> <Gold.Chemscore.Metal.Weighted>
-0.0000

> <Gold.Chemscore.Lipo.Weighted>
-12.4841

> <Gold.Chemscore.Internal_Hbond.Weighted>
0.0000

> <Gold.Chemscore.DEClash.Weighted>
0.0486

> <Gold.Chemscore.DEInternal.Weighted>
5.8837

> <Gold.Chemscore.Rot.Weighted>
6.8358

> <Gold.Chemscore.Internal.Correction.Weighted>
   9.000000E+99

> <Gold.Protein.RotatedTorsions>
[ 6907 6896 6895 6894 ] final -113.49 input  -60.11 | X-H torsion
[ 7974 7965 7964 7962 ] final  -76.59 input  175.53 | X-H torsion
[ 8008 7997 7996 7995 ] final  -84.81 input   59.86 | X-H torsion
[ 10167 10162 10161 10158 ] final  101.03 input  -65.29 | X-H torsion
[ 10718 10713 10712 10709 ] final -103.71 input   66.30 | X-H torsion
[ 10763 10752 10751 10750 ] final -164.66 input  -60.55 | X-H torsion
[ 11005 11000 10999 10996 ] final   25.02 input  -57.11 | X-H torsion

> <Gold.Protein.ActiveResidues>
 VAL166  LYS551  ARG553  GLY616  TRP617  ASP618  TYR619  PRO620  LYS621  CYS622 
 ASP623  PHE694  ASN695  SER759  ASP760  ASP761  ALA762  ILE779  LEU786  VAL792 
 PHE793  MET794  SER795  GLU796  ALA797  LYS798  CYS799  TRP800  GLU811  SER814 

> <Gold.Protein.RotatedAtoms>
  150.7833  133.8937  159.3320 H   0  0  0  0  0  0  0  0  0  0  0  0  # atno 6907 bound_to 6896
  151.6794  135.0962  160.0222 H   0  0  0  0  0  0  0  0  0  0  0  0  # atno 6908 bound_to 6896
  152.3890  133.6614  159.6258 H   0  0  0  0  0  0  0  0  0  0  0  0  # atno 6909 bound_to 6896
  145.6109  140.9387  143.1190 H   0  0  0  0  0  0  0  0  0  0  0  0  # atno 7974 bound_to 7965
  154.6338  140.0600  156.9764 H   0  0  0  0  0  0  0  0  0  0  0  0  # atno 8008 bound_to 7997
  155.1624  140.3284  155.4390 H   0  0  0  0  0  0  0  0  0  0  0  0  # atno 8009 bound_to 7997
  156.2496  140.1928  156.6730 H   0  0  0  0  0  0  0  0  0  0  0  0  # atno 8010 bound_to 7997
  139.7474  144.6994  151.0484 H   0  0  0  0  0  0  0  0  0  0  0  0  # atno 10167 bound_to 10162
  156.0276  130.5480  150.7292 H   0  0  0  0  0  0  0  0  0  0  0  0  # atno 10718 bound_to 10713
  154.7007  135.2987  154.9345 H   0  0  0  0  0  0  0  0  0  0  0  0  # atno 10763 bound_to 10752
  154.0278  135.6674  153.4782 H   0  0  0  0  0  0  0  0  0  0  0  0  # atno 10764 bound_to 10752
  153.0679  135.5077  154.8149 H   0  0  0  0  0  0  0  0  0  0  0  0  # atno 10765 bound_to 10752
  140.3523  134.2215  155.7679 H   0  0  0  0  0  0  0  0  0  0  0  0  # atno 11005 bound_to 11000
  144.7270  139.7843  143.7361 LP  0  0  0  0  0  0  0  0  0  0  0  0  # atno 17320 bound_to 7965
  146.1505  139.4587  143.0051 LP  0  0  0  0  0  0  0  0  0  0  0  0  # atno 17321 bound_to 7965
  140.7794  143.4850  150.9967 LP  0  0  0  0  0  0  0  0  0  0  0  0  # atno 17342 bound_to 10162
  139.8538  143.7403  152.3177 LP  0  0  0  0  0  0  0  0  0  0  0  0  # atno 17343 bound_to 10162
  157.4888  131.0909  151.0451 LP  0  0  0  0  0  0  0  0  0  0  0  0  # atno 17370 bound_to 10713
  157.0863  130.5924  149.5430 LP  0  0  0  0  0  0  0  0  0  0  0  0  # atno 17371 bound_to 10713
  141.2008  133.7977  157.0470 LP  0  0  0  0  0  0  0  0  0  0  0  0  # atno 17394 bound_to 11000
  140.0693  134.9711  157.1439 LP  0  0  0  0  0  0  0  0  0  0  0  0  # atno 17395 bound_to 11000

$$$$
