AV-unprocessed.smi:1372|AV-procd|sdf|5582|dock10
  -GOLD-   22720 5183D 1   1.00000     0.00000
 Structure written by MMmdl.
 41 43  0  0  0  0  0  0  0  0  1 V2000
  152.2914  137.5610  159.1875 C   0  0  0  0  0  0  0  0  0  0  0  0
  153.1891  137.9598  157.6327 S   0  0  0  0  0  0  0  0  0  0  0  0
  154.5014  138.5199  157.9905 O   0  0  0  0  0  0  0  0  0  0  0  0
  153.1146  136.7907  156.7436 O   0  0  0  0  0  0  0  0  0  0  0  0
  152.1396  139.3106  156.9316 C   0  0  0  0  0  0  0  0  0  0  0  0
  152.1175  140.5274  157.8156 C   0  0  0  0  0  0  0  0  0  0  0  0
  152.6414  140.5348  159.0432 N   0  0  0  0  0  0  0  0  0  0  0  0
  152.4056  141.8242  159.4747 C   0  0  0  0  0  0  0  0  0  0  0  0
  152.7333  142.4603  160.6933 C   0  0  0  0  0  0  0  0  0  0  0  0
  152.3815  143.8087  160.9115 C   0  0  0  0  0  0  0  0  0  0  0  0
  151.6976  144.5376  159.9170 C   0  0  0  0  0  0  0  0  0  0  0  0
  151.3615  143.9215  158.6962 C   0  0  0  0  0  0  0  0  0  0  0  0
  151.7168  142.5761  158.4832 C   0  0  0  0  0  0  0  0  0  0  0  0
  151.5418  141.6941  157.4214 N   0  0  0  0  0  0  0  0  0  0  0  0
  150.8682  142.0063  156.1668 C   0  0  0  0  0  0  0  0  0  0  0  0
  149.8769  140.9045  155.7391 C   0  0  2  0  0  0  0  0  0  0  0  0
  150.3772  140.2911  154.5684 O   0  0  0  0  0  0  0  0  0  0  0  0
  148.4590  141.4288  155.5568 C   0  0  0  0  0  0  0  0  0  0  0  0
  147.7217  141.8627  156.6794 C   0  0  0  0  0  0  0  0  0  0  0  0
  146.4159  142.3655  156.5211 C   0  0  0  0  0  0  0  0  0  0  0  0
  145.8412  142.4436  155.2381 C   0  0  0  0  0  0  0  0  0  0  0  0
  146.5716  142.0143  154.1138 C   0  0  0  0  0  0  0  0  0  0  0  0
  147.8756  141.5062  154.2722 C   0  0  0  0  0  0  0  0  0  0  0  0
  152.8197  136.7678  159.7160 H   0  0  0  0  0  0  0  0  0  0  0  0
  151.2820  137.2258  158.9494 H   0  0  0  0  0  0  0  0  0  0  0  0
  152.2427  138.4472  159.8198 H   0  0  0  0  0  0  0  0  0  0  0  0
  152.5469  139.5529  155.9534 H   0  0  0  0  0  0  0  0  0  0  0  0
  151.1262  138.9341  156.7955 H   0  0  0  0  0  0  0  0  0  0  0  0
  153.2568  141.9095  161.4607 H   0  0  0  0  0  0  0  0  0  0  0  0
  152.6370  144.2853  161.8466 H   0  0  0  0  0  0  0  0  0  0  0  0
  151.4313  145.5698  160.0918 H   0  0  0  0  0  0  0  0  0  0  0  0
  150.8381  144.4768  157.9323 H   0  0  0  0  0  0  0  0  0  0  0  0
  150.3796  142.9783  156.2309 H   0  0  0  0  0  0  0  0  0  0  0  0
  151.6411  142.1164  155.4048 H   0  0  0  0  0  0  0  0  0  0  0  0
  149.8593  140.1264  156.5034 H   0  0  0  0  0  0  0  0  0  0  0  0
  149.6623  140.1820  153.9599 H   0  0  0  0  0  0  0  0  0  0  0  0
  148.1591  141.8191  157.6663 H   0  0  0  0  0  0  0  0  0  0  0  0
  145.8587  142.6999  157.3837 H   0  0  0  0  0  0  0  0  0  0  0  0
  144.8421  142.8353  155.1171 H   0  0  0  0  0  0  0  0  0  0  0  0
  146.1324  142.0770  153.1291 H   0  0  0  0  0  0  0  0  0  0  0  0
  148.4298  141.1863  153.4018 H   0  0  0  0  0  0  0  0  0  0  0  0
  1  2  1  0  0  0  0
  1 24  1  0  0  0  0
  1 25  1  0  0  0  0
  1 26  1  0  0  0  0
  2  3  2  0  0  0  0
  2  4  2  0  0  0  0
  2  5  1  0  0  0  0
  5  6  1  0  0  0  0
  5 27  1  0  0  0  0
  5 28  1  0  0  0  0
  6 14  1  0  0  0  0
  6  7  2  0  0  0  0
  7  8  1  0  0  0  0
  8 13  2  0  0  0  0
  8  9  1  0  0  0  0
  9 10  2  0  0  0  0
  9 29  1  0  0  0  0
 10 11  1  0  0  0  0
 10 30  1  0  0  0  0
 11 12  2  0  0  0  0
 11 31  1  0  0  0  0
 12 13  1  0  0  0  0
 12 32  1  0  0  0  0
 13 14  1  0  0  0  0
 14 15  1  0  0  0  0
 15 16  1  0  0  0  0
 15 33  1  0  0  0  0
 15 34  1  0  0  0  0
 16 17  1  0  0  0  0
 16 18  1  0  0  0  0
 16 35  1  0  0  0  0
 17 36  1  0  0  0  0
 18 23  1  0  0  0  0
 18 19  2  0  0  0  0
 19 20  1  0  0  0  0
 19 37  1  0  0  0  0
 20 21  2  0  0  0  0
 20 38  1  0  0  0  0
 21 22  1  0  0  0  0
 21 39  1  0  0  0  0
 22 23  2  0  0  0  0
 22 40  1  0  0  0  0
 23 41  1  0  0  0  0
M  END
> <s_m_source_file>
AV-unprocessed.smi

> <i_m_source_file_index>
1372

> <i_lp_mmshare_version>
43012

> <i_f3d_flags>
0

> <s_epik_input>
W2NIXTFbY0hdW2NIXVtjSF1jKGMxMiluKGMobjIpW0NIMl1TKD1PKSg9TylbQ0gzXSlbQ0gyXVtDQEhdKFtPSF0pYzNbY0hdW2NIXVtjSF1bY0hdW2NIXTM=

> <s_epik_cmdline>
J2VwaWtfcHl0aG9uJywgJy1waCcsICc3LjAnLCAnLXRuJywgJzgnLCAnLW1hJywgJzIwMCcsICctbWV0YWxfYmluZGluZycsICctaW1hZScsICc8aW5maWxlLm1hZT4nLCAnLW9tYWUnLCAnPG91dGZpbGUubWFlPic=

> <r_epik_Ionization_Penalty>
0.0151431

> <r_epik_Ionization_Penalty_Charging>
0

> <r_epik_Ionization_Penalty_Neutral>
0.0151431

> <r_epik_State_Penalty>
0.0118835

> <r_epik_Charging_Adjusted_Penalty>
0.0118835

> <i_epik_Tot_Q>
0

> <i_epik_Tot_abs_Q>
0

> <r_epik_Metal_State_Penalty>
1.20034e-05

> <b_epik_Metal_Only>
0

> <s_lp_Force_Field>
OPLS_2005

> <r_lp_Energy>
10.1971

> <b_lp_Chiralities_Consistent>
1

> <s_lp_Variant>
AV-unprocessed.smi:1372-1

> <Gold.Version>
5.8.1

> <Gold.Id.Protein>
6NUR|6NUR_protein|mol2

> <Gold.PLP.Fitness>
53.5552

> <Gold.PLP.PLP>
-46.8790

> <Gold.PLP.part.hbond>
-3.0000

> <Gold.PLP.part.metal>
0.0000

> <Gold.PLP.part.buried>
-6.5978

> <Gold.PLP.part.nonpolar>
-37.3032

> <Gold.PLP.part.repulsive>
0.0000

> <Gold.PLP.ligand.clash>
0.0000

> <Gold.PLP.ligand.torsion>
1.2181

> <Gold.PLP.Chemscore.Hbond>
3.0000

> <Gold.PLP.Chemscore.CHOScore>
0.0000

> <Gold.PLP.Chemscore.Metal>
0.0000

> <Gold.Chemscore.Hbonds>
donor molecule, donor type, donor heavy atom, donor atom, acceptor molecule, acceptor atom, score
      P1  H  7989  7998       L1    17  1.00
      P1  H  7997  8010       L1     3  0.99
      P1  H 10752 10765       L1     4  0.96

> <Gold.PLP.Chemscore.Internal.Correction>
0.1123

> <Gold.Rescore>
     Score         DG    S(hbond)    S(metal)    S(lipo)     H(rot)  DE(clash)    DE(int)     intcor
     17.70     -22.08       2.66        0.00     117.00       2.33       0.24       4.15       ----

> <Gold.Chemscore.Fitness>
17.6956

> <Gold.Chemscore.DG>
-22.0850

> <Gold.Chemscore.ZeroCoef>
-5.4800

> <Gold.Chemscore.Hbond>
2.6594

> <Gold.Chemscore.Metal>
0.0000

> <Gold.Chemscore.Lipo>
117.0006

> <Gold.Chemscore.Internal_Hbond>
0.0000

> <Gold.Chemscore.DEClash>
0.2369

> <Gold.Chemscore.DEInternal>
4.1525

> <Gold.Chemscore.Rot>
2.3306

> <Gold.Chemscore.Internal.Correction>
   9.000000E+99

> <Gold.Chemscore.Hbonds>
donor molecule, donor type, donor heavy atom, donor atom, acceptor molecule, acceptor atom, score
      P1  H  7989  7998       L1    17  0.25
      P1  H  7997  8010       L1     3  0.85
      P1  H 10752 10765       L1     4  0.86

> <Gold.Chemscore.Hbond.Weighted>
-8.8823

> <Gold.Chemscore.Metal.Weighted>
-0.0000

> <Gold.Chemscore.Lipo.Weighted>
-13.6891

> <Gold.Chemscore.Internal_Hbond.Weighted>
0.0000

> <Gold.Chemscore.DEClash.Weighted>
0.2369

> <Gold.Chemscore.DEInternal.Weighted>
4.1525

> <Gold.Chemscore.Rot.Weighted>
5.9664

> <Gold.Chemscore.Internal.Correction.Weighted>
   9.000000E+99

> <Gold.Protein.RotatedTorsions>
[ 6907 6896 6895 6894 ] final   99.82 input  -60.11 | X-H torsion
[ 7974 7965 7964 7962 ] final   95.22 input  175.53 | X-H torsion
[ 8008 7997 7996 7995 ] final   14.26 input   59.86 | X-H torsion
[ 10167 10162 10161 10158 ] final  102.15 input  -65.29 | X-H torsion
[ 10718 10713 10712 10709 ] final  136.81 input   66.30 | X-H torsion
[ 10763 10752 10751 10750 ] final -126.87 input  -60.55 | X-H torsion
[ 11005 11000 10999 10996 ] final  140.87 input  -57.11 | X-H torsion

> <Gold.Protein.ActiveResidues>
 VAL166  LYS551  ARG553  GLY616  TRP617  ASP618  TYR619  PRO620  LYS621  CYS622 
 ASP623  PHE694  ASN695  SER759  ASP760  ASP761  ALA762  ILE779  LEU786  VAL792 
 PHE793  MET794  SER795  GLU796  ALA797  LYS798  CYS799  TRP800  GLU811  SER814 

> <Gold.Protein.RotatedAtoms>
  152.5384  134.0370  159.8050 H   0  0  0  0  0  0  0  0  0  0  0  0  # atno 6907 bound_to 6896
  151.0532  133.5599  159.2647 H   0  0  0  0  0  0  0  0  0  0  0  0  # atno 6908 bound_to 6896
  151.2525  135.0634  159.9121 H   0  0  0  0  0  0  0  0  0  0  0  0  # atno 6909 bound_to 6896
  145.4551  139.2290  143.3018 H   0  0  0  0  0  0  0  0  0  0  0  0  # atno 7974 bound_to 7965
  154.8460  140.2922  155.5629 H   0  0  0  0  0  0  0  0  0  0  0  0  # atno 8008 bound_to 7997
  156.3014  140.2505  156.3342 H   0  0  0  0  0  0  0  0  0  0  0  0  # atno 8009 bound_to 7997
  154.9073  140.0389  157.1916 H   0  0  0  0  0  0  0  0  0  0  0  0  # atno 8010 bound_to 7997
  139.7375  144.7020  151.0626 H   0  0  0  0  0  0  0  0  0  0  0  0  # atno 10167 bound_to 10162
  157.4428  131.1059  151.0124 H   0  0  0  0  0  0  0  0  0  0  0  0  # atno 10718 bound_to 10713
  154.8749  135.3981  154.3501 H   0  0  0  0  0  0  0  0  0  0  0  0  # atno 10763 bound_to 10752
  153.4288  135.7024  153.6250 H   0  0  0  0  0  0  0  0  0  0  0  0  # atno 10764 bound_to 10752
  153.4880  135.3754  155.2447 H   0  0  0  0  0  0  0  0  0  0  0  0  # atno 10765 bound_to 10752
  140.0359  134.9329  157.0751 H   0  0  0  0  0  0  0  0  0  0  0  0  # atno 11005 bound_to 11000
  146.2482  140.5314  142.8904 LP  0  0  0  0  0  0  0  0  0  0  0  0  # atno 17320 bound_to 7965
  144.8037  140.6261  143.6461 LP  0  0  0  0  0  0  0  0  0  0  0  0  # atno 17321 bound_to 7965
  140.7781  143.4965  150.9825 LP  0  0  0  0  0  0  0  0  0  0  0  0  # atno 17342 bound_to 10162
  139.8654  143.7261  152.3170 LP  0  0  0  0  0  0  0  0  0  0  0  0  # atno 17343 bound_to 10162
  157.0981  130.5970  149.5454 LP  0  0  0  0  0  0  0  0  0  0  0  0  # atno 17370 bound_to 10713
  155.9955  130.5022  150.7462 LP  0  0  0  0  0  0  0  0  0  0  0  0  # atno 17371 bound_to 10713
  140.4148  134.1942  155.7163 LP  0  0  0  0  0  0  0  0  0  0  0  0  # atno 17394 bound_to 11000
  141.1857  133.8318  157.1095 LP  0  0  0  0  0  0  0  0  0  0  0  0  # atno 17395 bound_to 11000

$$$$
