AV-unprocessed.smi:2268|AV-procd|sdf|9151|dock6
  -GOLD-   2272012353D 1   1.00000     0.00000
 Structure written by MMmdl.
 37 38  0  0  0  0  0  0  0  0  1 V2000
  151.7247  144.3799  160.0730 C   0  0  0  0  0  0  0  0  0  0  0  0
  152.2581  142.9625  159.9512 C   0  0  0  0  0  0  0  0  0  0  0  0
  153.2523  142.5360  160.8583 C   0  0  0  0  0  0  0  0  0  0  0  0
  153.7664  141.2280  160.7948 C   0  0  0  0  0  0  0  0  0  0  0  0
  154.7184  140.8302  161.6716 F   0  0  0  0  0  0  0  0  0  0  0  0
  153.2864  140.3335  159.8226 C   0  0  0  0  0  0  0  0  0  0  0  0
  152.2970  140.7503  158.9131 C   0  0  0  0  0  0  0  0  0  0  0  0
  151.7787  142.0657  158.9590 C   0  0  0  0  0  0  0  0  0  0  0  0
  150.6986  142.4773  157.9587 C   0  0  1  0  0  0  0  0  0  0  0  0
  151.0763  143.6316  157.2333 O   0  0  0  0  0  0  0  0  0  0  0  0
  150.4132  141.3312  156.9613 C   0  0  0  0  0  0  0  0  0  0  0  0
  149.0670  141.4216  156.3687 N   0  0  0  0  0  0  0  0  0  0  0  0
  148.0253  141.7808  157.2405 C   0  0  0  0  0  0  0  0  0  0  0  0
  146.8050  141.8978  156.8309 N   0  0  0  0  0  0  0  0  0  0  0  0
  146.4956  141.6639  155.4881 C   0  0  0  0  0  0  0  0  0  0  0  0
  145.0333  141.8283  155.1136 C   0  0  0  0  0  0  0  0  0  0  0  0
  147.4576  141.3118  154.5921 C   0  0  0  0  0  0  0  0  0  0  0  0
  147.1791  141.0430  153.1184 C   0  0  0  0  0  0  0  0  0  0  0  0
  148.8518  141.1742  155.0443 C   0  0  0  0  0  0  0  0  0  0  0  0
  149.7697  140.8571  154.2858 O   0  0  0  0  0  0  0  0  0  0  0  0
  152.1177  144.8776  160.9601 H   0  0  0  0  0  0  0  0  0  0  0  0
  150.6377  144.3768  160.1517 H   0  0  0  0  0  0  0  0  0  0  0  0
  152.0114  144.9723  159.2040 H   0  0  0  0  0  0  0  0  0  0  0  0
  153.6253  143.2122  161.6138 H   0  0  0  0  0  0  0  0  0  0  0  0
  153.6749  139.3269  159.7744 H   0  0  0  0  0  0  0  0  0  0  0  0
  151.9344  140.0475  158.1774 H   0  0  0  0  0  0  0  0  0  0  0  0
  149.7877  142.7431  158.4931 H   0  0  0  0  0  0  0  0  0  0  0  0
  150.3050  143.9963  156.8267 H   0  0  0  0  0  0  0  0  0  0  0  0
  151.1947  141.2824  156.2005 H   0  0  0  0  0  0  0  0  0  0  0  0
  150.4936  140.3763  157.4852 H   0  0  0  0  0  0  0  0  0  0  0  0
  148.3201  141.9548  158.2768 H   0  0  0  0  0  0  0  0  0  0  0  0
  144.9186  142.6013  154.3534 H   0  0  0  0  0  0  0  0  0  0  0  0
  144.4318  142.1172  155.9765 H   0  0  0  0  0  0  0  0  0  0  0  0
  144.6316  140.8925  154.7243 H   0  0  0  0  0  0  0  0  0  0  0  0
  147.4645  140.0221  152.8626 H   0  0  0  0  0  0  0  0  0  0  0  0
  147.7607  141.7229  152.4953 H   0  0  0  0  0  0  0  0  0  0  0  0
  146.1315  141.1666  152.8490 H   0  0  0  0  0  0  0  0  0  0  0  0
  1  2  1  0  0  0  0
  1 21  1  0  0  0  0
  1 22  1  0  0  0  0
  1 23  1  0  0  0  0
  2  8  1  0  0  0  0
  2  3  2  0  0  0  0
  3  4  1  0  0  0  0
  3 24  1  0  0  0  0
  4  5  1  0  0  0  0
  4  6  2  0  0  0  0
  6  7  1  0  0  0  0
  6 25  1  0  0  0  0
  7  8  2  0  0  0  0
  7 26  1  0  0  0  0
  8  9  1  0  0  0  0
  9 10  1  0  0  0  0
  9 11  1  0  0  0  0
  9 27  1  0  0  0  0
 10 28  1  0  0  0  0
 11 12  1  0  0  0  0
 11 29  1  0  0  0  0
 11 30  1  0  0  0  0
 12 19  1  0  0  0  0
 12 13  1  0  0  0  0
 13 14  2  0  0  0  0
 13 31  1  0  0  0  0
 14 15  1  0  0  0  0
 15 16  1  0  0  0  0
 15 17  2  0  0  0  0
 16 32  1  0  0  0  0
 16 33  1  0  0  0  0
 16 34  1  0  0  0  0
 17 18  1  0  0  0  0
 17 19  1  0  0  0  0
 18 35  1  0  0  0  0
 18 36  1  0  0  0  0
 18 37  1  0  0  0  0
 19 20  2  0  0  0  0
M  END
> <s_m_source_file>
AV-unprocessed.smi

> <i_m_source_file_index>
2268

> <i_lp_mmshare_version>
43012

> <i_f3d_flags>
0

> <s_epik_input>
W0NIM11jMVtjSF1jKEYpW2NIXVtjSF1jMVtDQEhdKFtPSF0pW0NIMl1uMltjSF1uYyhbQ0gzXSljKFtDSDNdKWMyPU8=

> <s_epik_cmdline>
J2VwaWtfcHl0aG9uJywgJy1waCcsICc3LjAnLCAnLXRuJywgJzgnLCAnLW1hJywgJzIwMCcsICctbWV0YWxfYmluZGluZycsICctaW1hZScsICc8aW5maWxlLm1hZT4nLCAnLW9tYWUnLCAnPG91dGZpbGUubWFlPic=

> <r_lp_tautomer_probability>
1

> <r_epik_Ionization_Penalty>
5.07449e-05

> <r_epik_Ionization_Penalty_Charging>
7.56727e-08

> <r_epik_Ionization_Penalty_Neutral>
5.06692e-05

> <r_epik_State_Penalty>
-0

> <r_epik_Charging_Adjusted_Penalty>
7.56727e-08

> <i_epik_Tot_Q>
0

> <i_epik_Tot_abs_Q>
0

> <r_epik_Metal_State_Penalty>
-0

> <b_epik_Metal_Only>
0

> <s_lp_Force_Field>
OPLS_2005

> <r_lp_Energy>
20.6014

> <b_lp_Chiralities_Consistent>
1

> <s_lp_Variant>
AV-unprocessed.smi:2268-2

> <Gold.Version>
5.8.1

> <Gold.Id.Protein>
6NUR|6NUR_protein|mol2

> <Gold.PLP.Fitness>
46.4554

> <Gold.PLP.PLP>
-42.5566

> <Gold.PLP.part.hbond>
-2.0000

> <Gold.PLP.part.metal>
0.0000

> <Gold.PLP.part.buried>
-4.7401

> <Gold.PLP.part.nonpolar>
-35.9804

> <Gold.PLP.part.repulsive>
0.2859

> <Gold.PLP.ligand.clash>
0.0000

> <Gold.PLP.ligand.torsion>
0.5151

> <Gold.PLP.Chemscore.Hbond>
1.6400

> <Gold.PLP.Chemscore.CHOScore>
0.0000

> <Gold.PLP.Chemscore.Metal>
0.0000

> <Gold.Chemscore.Hbonds>
donor molecule, donor type, donor heavy atom, donor atom, acceptor molecule, acceptor atom, score
      L1  H    10    28       P1  8028  1.00
      P1  H  7989  7998       L1    20  0.61

> <Gold.PLP.Chemscore.Internal.Correction>
0.0089

> <Gold.Rescore>
     Score         DG    S(hbond)    S(metal)    S(lipo)     H(rot)  DE(clash)    DE(int)     intcor
     17.45     -18.63       1.75        0.00     105.90       1.98       0.69       0.49       ----

> <Gold.Chemscore.Fitness>
17.4498

> <Gold.Chemscore.DG>
-18.6331

> <Gold.Chemscore.ZeroCoef>
-5.4800

> <Gold.Chemscore.Hbond>
1.7479

> <Gold.Chemscore.Metal>
0.0000

> <Gold.Chemscore.Lipo>
105.8965

> <Gold.Chemscore.Internal_Hbond>
0.0000

> <Gold.Chemscore.DEClash>
0.6894

> <Gold.Chemscore.DEInternal>
0.4939

> <Gold.Chemscore.Rot>
1.9823

> <Gold.Chemscore.Internal.Correction>
   9.000000E+99

> <Gold.Chemscore.Hbonds>
donor molecule, donor type, donor heavy atom, donor atom, acceptor molecule, acceptor atom, score
      L1  H    10    28       P1  8028  0.98
      P1  H  7989  7998       L1    20  0.58
      P1  H  8011  8017       L1    20  0.01

> <Gold.Chemscore.Hbond.Weighted>
-5.8380

> <Gold.Chemscore.Metal.Weighted>
-0.0000

> <Gold.Chemscore.Lipo.Weighted>
-12.3899

> <Gold.Chemscore.Internal_Hbond.Weighted>
0.0000

> <Gold.Chemscore.DEClash.Weighted>
0.6894

> <Gold.Chemscore.DEInternal.Weighted>
0.4939

> <Gold.Chemscore.Rot.Weighted>
5.0748

> <Gold.Chemscore.Internal.Correction.Weighted>
   9.000000E+99

> <Gold.Protein.RotatedTorsions>
[ 6907 6896 6895 6894 ] final   44.68 input  -60.11 | X-H torsion
[ 7974 7965 7964 7962 ] final  101.05 input  175.53 | X-H torsion
[ 8008 7997 7996 7995 ] final -139.06 input   59.86 | X-H torsion
[ 10167 10162 10161 10158 ] final  143.02 input  -65.29 | X-H torsion
[ 10718 10713 10712 10709 ] final  148.58 input   66.30 | X-H torsion
[ 10763 10752 10751 10750 ] final  -29.26 input  -60.55 | X-H torsion
[ 11005 11000 10999 10996 ] final   45.75 input  -57.11 | X-H torsion

> <Gold.Protein.ActiveResidues>
 VAL166  LYS551  ARG553  GLY616  TRP617  ASP618  TYR619  PRO620  LYS621  CYS622 
 ASP623  PHE694  ASN695  SER759  ASP760  ASP761  ALA762  ILE779  LEU786  VAL792 
 PHE793  MET794  SER795  GLU796  ALA797  LYS798  CYS799  TRP800  GLU811  SER814 

> <Gold.Protein.RotatedAtoms>
  152.2355  134.8280  160.0467 H   0  0  0  0  0  0  0  0  0  0  0  0  # atno 6907 bound_to 6896
  151.9014  133.3534  159.3840 H   0  0  0  0  0  0  0  0  0  0  0  0  # atno 6908 bound_to 6896
  150.7038  134.4750  159.5487 H   0  0  0  0  0  0  0  0  0  0  0  0  # atno 6909 bound_to 6896
  145.3774  139.2386  143.3422 H   0  0  0  0  0  0  0  0  0  0  0  0  # atno 7974 bound_to 7965
  155.4387  140.0530  157.3012 H   0  0  0  0  0  0  0  0  0  0  0  0  # atno 8008 bound_to 7997
  154.4828  140.2088  155.9682 H   0  0  0  0  0  0  0  0  0  0  0  0  # atno 8009 bound_to 7997
  156.1230  140.3185  155.8241 H   0  0  0  0  0  0  0  0  0  0  0  0  # atno 8010 bound_to 7997
  139.4980  144.6068  151.6360 H   0  0  0  0  0  0  0  0  0  0  0  0  # atno 10167 bound_to 10162
  157.3068  131.0881  151.1347 H   0  0  0  0  0  0  0  0  0  0  0  0  # atno 10718 bound_to 10713
  153.7618  135.6918  153.4924 H   0  0  0  0  0  0  0  0  0  0  0  0  # atno 10763 bound_to 10752
  153.1933  135.4463  155.0175 H   0  0  0  0  0  0  0  0  0  0  0  0  # atno 10764 bound_to 10752
  154.8150  135.3395  154.7133 H   0  0  0  0  0  0  0  0  0  0  0  0  # atno 10765 bound_to 10752
  140.1431  134.4557  155.8435 H   0  0  0  0  0  0  0  0  0  0  0  0  # atno 11005 bound_to 11000
  146.2858  140.4435  142.8758 LP  0  0  0  0  0  0  0  0  0  0  0  0  # atno 17320 bound_to 7965
  144.8532  140.7032  143.6155 LP  0  0  0  0  0  0  0  0  0  0  0  0  # atno 17321 bound_to 7965
  140.5732  144.0073  150.6228 LP  0  0  0  0  0  0  0  0  0  0  0  0  # atno 17342 bound_to 10162
  140.3197  143.3145  152.0796 LP  0  0  0  0  0  0  0  0  0  0  0  0  # atno 17343 bound_to 10162
  157.2685  130.6693  149.6008 LP  0  0  0  0  0  0  0  0  0  0  0  0  # atno 17370 bound_to 10713
  155.9675  130.4486  150.5627 LP  0  0  0  0  0  0  0  0  0  0  0  0  # atno 17371 bound_to 10713
  141.2189  133.6841  156.7284 LP  0  0  0  0  0  0  0  0  0  0  0  0  # atno 17394 bound_to 11000
  140.2697  134.8402  157.3835 LP  0  0  0  0  0  0  0  0  0  0  0  0  # atno 17395 bound_to 11000

$$$$
