AV-unprocessed.smi:814|AV-procd|sdf|3823|dock9
  -GOLD-   22720 1263D 1   1.00000     0.00000
 Structure written by MMmdl.
 36 37  0  0  0  0  0  0  0  0  1 V2000
  152.4124  143.5395  161.2130 C   0  0  0  0  0  0  0  0  0  0  0  0
  152.0355  143.5730  159.8130 N   0  0  0  0  0  0  0  0  0  0  0  0
  151.6969  144.7075  159.0872 C   0  0  0  0  0  0  0  0  0  0  0  0
  151.4019  144.2866  157.8130 C   0  0  0  0  0  0  0  0  0  0  0  0
  151.5536  142.9064  157.7368 N   0  0  0  0  0  0  0  0  0  0  0  0
  151.9389  142.5387  158.9552 C   0  0  0  0  0  0  0  0  0  0  0  0
  152.2037  141.1180  159.3477 C   0  0  0  0  0  0  0  0  0  0  0  0
  152.1991  140.1678  158.1396 C   0  0  0  0  0  0  0  0  0  0  0  0
  150.9561  140.2647  157.3833 N   0  0  0  0  0  0  0  0  0  0  0  0
  150.8666  140.2615  156.0443 C   0  0  0  0  0  0  0  0  0  0  0  0
  151.8459  140.1671  155.3036 O   0  0  0  0  0  0  0  0  0  0  0  0
  149.4569  140.3874  155.4509 C   0  0  2  0  0  0  0  0  0  0  0  0
  149.1014  139.1593  154.5811 C   0  0  0  0  0  0  0  0  0  0  0  0
  147.8279  139.3731  153.7819 C   0  0  0  0  0  0  0  0  0  0  0  0
  147.2739  140.5814  153.5830 C   0  0  0  0  0  0  0  0  0  0  0  0
  147.8611  141.8707  154.1299 C   0  0  0  0  0  0  0  0  0  0  0  0
  149.3047  141.6872  154.6351 C   0  0  0  0  0  0  0  0  0  0  0  0
  152.2716  144.5224  161.6637 H   0  0  0  0  0  0  0  0  0  0  0  0
  153.4611  143.2557  161.3053 H   0  0  0  0  0  0  0  0  0  0  0  0
  151.7951  142.8171  161.7471 H   0  0  0  0  0  0  0  0  0  0  0  0
  151.6906  145.6944  159.5260 H   0  0  0  0  0  0  0  0  0  0  0  0
  151.0937  144.8642  156.9540 H   0  0  0  0  0  0  0  0  0  0  0  0
  153.1711  141.0783  159.8500 H   0  0  0  0  0  0  0  0  0  0  0  0
  151.4671  140.7980  160.0851 H   0  0  0  0  0  0  0  0  0  0  0  0
  153.0220  140.4160  157.4689 H   0  0  0  0  0  0  0  0  0  0  0  0
  152.3628  139.1381  158.4626 H   0  0  0  0  0  0  0  0  0  0  0  0
  150.1022  140.3489  157.9156 H   0  0  0  0  0  0  0  0  0  0  0  0
  148.7434  140.4319  156.2760 H   0  0  0  0  0  0  0  0  0  0  0  0
  149.9020  138.9232  153.8783 H   0  0  0  0  0  0  0  0  0  0  0  0
  148.9695  138.2832  155.2171 H   0  0  0  0  0  0  0  0  0  0  0  0
  147.3693  138.4950  153.3512 H   0  0  0  0  0  0  0  0  0  0  0  0
  146.3584  140.6651  153.0162 H   0  0  0  0  0  0  0  0  0  0  0  0
  147.8340  142.6363  153.3540 H   0  0  0  0  0  0  0  0  0  0  0  0
  147.2188  142.2165  154.9403 H   0  0  0  0  0  0  0  0  0  0  0  0
  149.5963  142.5541  155.2300 H   0  0  0  0  0  0  0  0  0  0  0  0
  149.9812  141.6615  153.7791 H   0  0  0  0  0  0  0  0  0  0  0  0
  1  2  1  0  0  0  0
  1 18  1  0  0  0  0
  1 19  1  0  0  0  0
  1 20  1  0  0  0  0
  2  6  1  0  0  0  0
  2  3  1  0  0  0  0
  3  4  2  0  0  0  0
  3 21  1  0  0  0  0
  4  5  1  0  0  0  0
  4 22  1  0  0  0  0
  5  6  2  0  0  0  0
  6  7  1  0  0  0  0
  7  8  1  0  0  0  0
  7 23  1  0  0  0  0
  7 24  1  0  0  0  0
  8  9  1  0  0  0  0
  8 25  1  0  0  0  0
  8 26  1  0  0  0  0
  9 10  1  0  0  0  0
  9 27  1  0  0  0  0
 10 11  2  0  0  0  0
 10 12  1  0  0  0  0
 12 17  1  0  0  0  0
 12 13  1  0  0  0  0
 12 28  1  0  0  0  0
 13 14  1  0  0  0  0
 13 29  1  0  0  0  0
 13 30  1  0  0  0  0
 14 15  2  0  0  0  0
 14 31  1  0  0  0  0
 15 16  1  0  0  0  0
 15 32  1  0  0  0  0
 16 17  1  0  0  0  0
 16 33  1  0  0  0  0
 16 34  1  0  0  0  0
 17 35  1  0  0  0  0
 17 36  1  0  0  0  0
M  END
> <s_m_source_file>
AV-unprocessed.smi

> <i_m_source_file_index>
814

> <i_lp_mmshare_version>
43012

> <i_f3d_flags>
0

> <s_epik_input>
W0NIM11uMVtjSF1bY0hdbmMxW0NIMl1bQ0gyXVtOSF1DKD1PKVtDQEBIXTJbQ0gyXVtDSF09W0NIXVtDSDJdW0NIMl0y

> <s_epik_cmdline>
J2VwaWtfcHl0aG9uJywgJy1waCcsICc3LjAnLCAnLXRuJywgJzgnLCAnLW1hJywgJzIwMCcsICctbWV0YWxfYmluZGluZycsICctaW1hZScsICc8aW5maWxlLm1hZT4nLCAnLW9tYWUnLCAnPG91dGZpbGUubWFlPic=

> <r_lp_tautomer_probability>
1

> <r_epik_Ionization_Penalty>
1.21249

> <r_epik_Ionization_Penalty_Charging>
1.21249

> <r_epik_Ionization_Penalty_Neutral>
1.60917e-08

> <r_epik_State_Penalty>
1.27906

> <r_epik_Charging_Adjusted_Penalty>
2.49154

> <i_epik_Tot_Q>
0

> <i_epik_Tot_abs_Q>
0

> <r_epik_Metal_State_Penalty>
0.409603

> <b_epik_Metal_Only>
0

> <s_lp_Force_Field>
OPLS_2005

> <r_lp_Energy>
6.39824

> <b_lp_Chiralities_Consistent>
1

> <s_lp_Variant>
AV-unprocessed.smi:814-3

> <Gold.Version>
5.8.1

> <Gold.Id.Protein>
6NUR|6NUR_protein|mol2

> <Gold.PLP.Fitness>
44.4638

> <Gold.PLP.PLP>
-39.3863

> <Gold.PLP.part.hbond>
-1.0000

> <Gold.PLP.part.metal>
0.0000

> <Gold.PLP.part.buried>
-2.7185

> <Gold.PLP.part.nonpolar>
-35.8108

> <Gold.PLP.part.repulsive>
0.1303

> <Gold.PLP.ligand.clash>
0.0000

> <Gold.PLP.ligand.torsion>
0.2192

> <Gold.PLP.Chemscore.Hbond>
0.8320

> <Gold.PLP.Chemscore.CHOScore>
0.9986

> <Gold.PLP.Chemscore.Metal>
0.0000

> <Gold.Chemscore.Hbonds>
donor molecule, donor type, donor heavy atom, donor atom, acceptor molecule, acceptor atom, score
      P1  H  7989  7998       L1    11  0.85
      L1  C     4    22       P1  8028  0.98

> <Gold.PLP.Chemscore.Internal.Correction>
0.0240

> <Gold.Rescore>
     Score         DG    S(hbond)    S(metal)    S(lipo)     H(rot)  DE(clash)    DE(int)     intcor
     14.82     -15.06       0.88        0.00      91.35       1.58       0.09       0.16       ----

> <Gold.Chemscore.Fitness>
14.8154

> <Gold.Chemscore.DG>
-15.0644

> <Gold.Chemscore.ZeroCoef>
-5.4800

> <Gold.Chemscore.Hbond>
0.8812

> <Gold.Chemscore.Metal>
0.0000

> <Gold.Chemscore.Lipo>
91.3522

> <Gold.Chemscore.Internal_Hbond>
0.0000

> <Gold.Chemscore.DEClash>
0.0853

> <Gold.Chemscore.DEInternal>
0.1637

> <Gold.Chemscore.Rot>
1.5809

> <Gold.Chemscore.Internal.Correction>
   9.000000E+99

> <Gold.Chemscore.Hbonds>
donor molecule, donor type, donor heavy atom, donor atom, acceptor molecule, acceptor atom, score
      P1  H  7989  7998       L1    11  0.78

> <Gold.Chemscore.Hbond.Weighted>
-2.9433

> <Gold.Chemscore.Metal.Weighted>
-0.0000

> <Gold.Chemscore.Lipo.Weighted>
-10.6882

> <Gold.Chemscore.Internal_Hbond.Weighted>
0.0000

> <Gold.Chemscore.DEClash.Weighted>
0.0853

> <Gold.Chemscore.DEInternal.Weighted>
0.1637

> <Gold.Chemscore.Rot.Weighted>
4.0472

> <Gold.Chemscore.Internal.Correction.Weighted>
   9.000000E+99

> <Gold.Protein.RotatedTorsions>
[ 6907 6896 6895 6894 ] final  177.38 input  -60.11 | X-H torsion
[ 7974 7965 7964 7962 ] final   89.12 input  175.53 | X-H torsion
[ 8008 7997 7996 7995 ] final  -24.39 input   59.86 | X-H torsion
[ 10167 10162 10161 10158 ] final  132.11 input  -65.29 | X-H torsion
[ 10718 10713 10712 10709 ] final -117.00 input   66.30 | X-H torsion
[ 10763 10752 10751 10750 ] final -178.20 input  -60.55 | X-H torsion
[ 11005 11000 10999 10996 ] final  110.44 input  -57.11 | X-H torsion

> <Gold.Protein.ActiveResidues>
 VAL166  LYS551  ARG553  GLY616  TRP617  ASP618  TYR619  PRO620  LYS621  CYS622 
 ASP623  PHE694  ASN695  SER759  ASP760  ASP761  ALA762  ILE779  LEU786  VAL792 
 PHE793  MET794  SER795  GLU796  ALA797  LYS798  CYS799  TRP800  GLU811  SER814 

> <Gold.Protein.RotatedAtoms>
  151.7050  133.3311  159.3275 H   0  0  0  0  0  0  0  0  0  0  0  0  # atno 6907 bound_to 6896
  150.7719  134.6582  159.6335 H   0  0  0  0  0  0  0  0  0  0  0  0  # atno 6908 bound_to 6896
  152.3746  134.6685  160.0216 H   0  0  0  0  0  0  0  0  0  0  0  0  # atno 6909 bound_to 6896
  145.5366  139.2286  143.2589 H   0  0  0  0  0  0  0  0  0  0  0  0  # atno 7974 bound_to 7965
  154.4532  140.1955  156.0458 H   0  0  0  0  0  0  0  0  0  0  0  0  # atno 8008 bound_to 7997
  156.0691  140.3287  155.7526 H   0  0  0  0  0  0  0  0  0  0  0  0  # atno 8009 bound_to 7997
  155.5291  140.0576  157.2883 H   0  0  0  0  0  0  0  0  0  0  0  0  # atno 8010 bound_to 7997
  139.5354  144.6676  151.4805 H   0  0  0  0  0  0  0  0  0  0  0  0  # atno 10167 bound_to 10162
  156.1003  130.6166  150.9108 H   0  0  0  0  0  0  0  0  0  0  0  0  # atno 10718 bound_to 10713
  154.5506  135.2812  155.1012 H   0  0  0  0  0  0  0  0  0  0  0  0  # atno 10763 bound_to 10752
  154.2459  135.6348  153.5227 H   0  0  0  0  0  0  0  0  0  0  0  0  # atno 10764 bound_to 10752
  153.0002  135.5571  154.6071 H   0  0  0  0  0  0  0  0  0  0  0  0  # atno 10765 bound_to 10752
  139.8882  134.9484  156.6280 H   0  0  0  0  0  0  0  0  0  0  0  0  # atno 11005 bound_to 11000
  146.2009  140.6185  142.9103 LP  0  0  0  0  0  0  0  0  0  0  0  0  # atno 17320 bound_to 7965
  144.7598  140.5395  143.6743 LP  0  0  0  0  0  0  0  0  0  0  0  0  # atno 17321 bound_to 7965
  140.6557  143.8604  150.6833 LP  0  0  0  0  0  0  0  0  0  0  0  0  # atno 17342 bound_to 10162
  140.1983  143.3980  152.1811 LP  0  0  0  0  0  0  0  0  0  0  0  0  # atno 17343 bound_to 10162
  157.6171  131.0932  150.8690 LP  0  0  0  0  0  0  0  0  0  0  0  0  # atno 17370 bound_to 10713
  156.8819  130.5182  149.5290 LP  0  0  0  0  0  0  0  0  0  0  0  0  # atno 17371 bound_to 10713
  140.7688  133.8755  155.8476 LP  0  0  0  0  0  0  0  0  0  0  0  0  # atno 17394 bound_to 11000
  140.9859  134.1343  157.4452 LP  0  0  0  0  0  0  0  0  0  0  0  0  # atno 17395 bound_to 11000

$$$$
