AV-unprocessed.smi:1965|AV-procd|sdf|7939|dock7
  -GOLD-   2272010103D 1   1.00000     0.00000
 Structure written by MMmdl.
 37 39  0  0  0  0  0  0  0  0  2 V2000
  148.0080  138.4532  158.7919 O   0  0  0  0  0  0  0  0  0  0  0  0
  148.4019  137.3533  158.4080 C   0  0  0  0  0  0  0  0  0  0  0  0
  148.3747  136.2795  159.2259 N   0  0  0  0  0  0  0  0  0  0  0  0
  147.9398  136.1293  160.5751 C   0  0  0  0  0  0  0  0  0  0  0  0
  147.6811  137.1352  161.4210 N   0  0  0  0  0  0  0  0  0  0  0  0
  147.2856  136.6781  162.6807 C   0  0  0  0  0  0  0  0  0  0  0  0
  147.2542  135.3101  162.7818 C   0  0  0  0  0  0  0  0  0  0  0  0
  147.7220  134.5382  161.2907 S   0  0  0  0  0  0  0  0  0  0  0  0
  148.8832  137.1472  157.1712 N   0  0  0  0  0  0  0  0  0  0  0  0
  149.0058  138.1576  156.1256 C   0  0  1  0  0  0  0  0  0  0  0  0
  150.4258  138.2903  155.5883 C   0  0  0  0  0  0  0  0  0  0  0  0
  150.1984  138.9802  154.2422 C   0  0  0  0  0  0  0  0  0  0  0  0
  148.9014  138.4726  153.7382 N   0  3  2  0  0  0  0  0  0  0  0  0
  148.1031  139.4664  152.9794 C   0  0  0  0  0  0  0  0  0  0  0  0
  146.7851  138.8426  152.4836 C   0  0  0  0  0  0  0  0  0  0  0  0
  146.0071  138.1075  153.5951 C   0  0  0  0  0  0  0  0  0  0  0  0
  146.7017  138.2079  154.9620 C   0  0  0  0  0  0  0  0  0  0  0  0
  148.1918  137.8082  154.8684 C   0  0  2  0  0  0  0  0  0  0  0  0
  148.7485  135.4355  158.8162 H   0  0  0  0  0  0  0  0  0  0  0  0
  147.0461  137.3974  163.4498 H   0  0  0  0  0  0  0  0  0  0  0  0
  146.9865  134.7120  163.6403 H   0  0  0  0  0  0  0  0  0  0  0  0
  149.1860  136.2111  156.9399 H   0  0  0  0  0  0  0  0  0  0  0  0
  148.7009  139.1355  156.5046 H   0  0  0  0  0  0  0  0  0  0  0  0
  151.0806  138.8582  156.2499 H   0  0  0  0  0  0  0  0  0  0  0  0
  150.8701  137.3054  155.4333 H   0  0  0  0  0  0  0  0  0  0  0  0
  150.1405  140.0588  154.3980 H   0  0  0  0  0  0  0  0  0  0  0  0
  151.0040  138.7892  153.5329 H   0  0  0  0  0  0  0  0  0  0  0  0
  147.8943  140.3311  153.6114 H   0  0  0  0  0  0  0  0  0  0  0  0
  148.6855  139.8303  152.1323 H   0  0  0  0  0  0  0  0  0  0  0  0
  146.1590  139.6197  152.0437 H   0  0  0  0  0  0  0  0  0  0  0  0
  147.0005  138.1409  151.6767 H   0  0  0  0  0  0  0  0  0  0  0  0
  144.9921  138.4999  153.6661 H   0  0  0  0  0  0  0  0  0  0  0  0
  145.9055  137.0560  153.3239 H   0  0  0  0  0  0  0  0  0  0  0  0
  146.6103  139.2282  155.3371 H   0  0  0  0  0  0  0  0  0  0  0  0
  146.1875  137.5746  155.6853 H   0  0  0  0  0  0  0  0  0  0  0  0
  148.2612  136.7357  154.6780 H   0  0  0  0  0  0  0  0  0  0  0  0
  149.1180  137.7311  153.0874 H   0  0  0  0  0  0  0  0  0  0  0  0
  1  2  2  0  0  0  0
  2  3  1  0  0  0  0
  2  9  1  0  0  0  0
  3  4  1  0  0  0  0
  3 19  1  0  0  0  0
  4  8  1  0  0  0  0
  4  5  2  0  0  0  0
  5  6  1  0  0  0  0
  6  7  2  0  0  0  0
  6 20  1  0  0  0  0
  7  8  1  0  0  0  0
  7 21  1  0  0  0  0
  9 10  1  0  0  0  0
  9 22  1  0  0  0  0
 10 18  1  0  0  0  0
 10 11  1  0  0  0  0
 10 23  1  0  0  0  0
 11 12  1  0  0  0  0
 11 24  1  0  0  0  0
 11 25  1  0  0  0  0
 12 13  1  0  0  0  0
 12 26  1  0  0  0  0
 12 27  1  0  0  0  0
 13 18  1  0  0  0  0
 13 14  1  0  0  0  0
 13 37  1  0  0  0  0
 14 15  1  0  0  0  0
 14 28  1  0  0  0  0
 14 29  1  0  0  0  0
 15 16  1  0  0  0  0
 15 30  1  0  0  0  0
 15 31  1  0  0  0  0
 16 17  1  0  0  0  0
 16 32  1  0  0  0  0
 16 33  1  0  0  0  0
 17 18  1  0  0  0  0
 17 34  1  0  0  0  0
 17 35  1  0  0  0  0
 18 36  1  0  0  0  0
M  CHG  1  13   1
M  END
> <s_m_source_file>
AV-unprocessed.smi

> <i_m_source_file_index>
1965

> <i_lp_mmshare_version>
43012

> <i_f3d_flags>
0

> <s_epik_input>
czFbY0hdW2NIXW5jMVtOSF1DKD1PKVtOSF1bQ0BIXShbQ0gyXVtDSDJdMilbQ0BASF0oTjIzKVtDSDJdW0NIMl1bQ0gyXVtDSDJdMw==

> <s_epik_cmdline>
J2VwaWtfcHl0aG9uJywgJy1waCcsICc3LjAnLCAnLXRuJywgJzgnLCAnLW1hJywgJzIwMCcsICctbWV0YWxfYmluZGluZycsICctaW1hZScsICc8aW5maWxlLm1hZT4nLCAnLW9tYWUnLCAnPG91dGZpbGUubWFlPic=

> <r_lp_tautomer_probability>
1

> <r_epik_Ionization_Penalty>
0.00125962

> <r_epik_Ionization_Penalty_Charging>
0.00107044

> <r_epik_Ionization_Penalty_Neutral>
0.000189176

> <r_epik_State_Penalty>
-0

> <r_epik_Charging_Adjusted_Penalty>
0.00107044

> <i_epik_Tot_Q>
1

> <i_epik_Tot_abs_Q>
1

> <r_epik_Metal_State_Penalty>
0.0179285

> <b_epik_Metal_Only>
0

> <s_lp_Force_Field>
OPLS_2005

> <r_lp_Energy>
40.5286

> <b_lp_Chiralities_Consistent>
1

> <s_lp_Variant>
AV-unprocessed.smi:1965-8

> <Gold.Version>
5.8.1

> <Gold.Id.Protein>
6NUR|6NUR_protein|mol2

> <Gold.PLP.Fitness>
38.1541

> <Gold.PLP.PLP>
-26.7418

> <Gold.PLP.part.hbond>
-4.8016

> <Gold.PLP.part.metal>
0.0000

> <Gold.PLP.part.buried>
0.3843

> <Gold.PLP.part.nonpolar>
-23.2321

> <Gold.PLP.part.repulsive>
0.1885

> <Gold.PLP.ligand.clash>
0.0000

> <Gold.PLP.ligand.torsion>
0.0458

> <Gold.PLP.Chemscore.Hbond>
3.8320

> <Gold.PLP.Chemscore.CHOScore>
0.0000

> <Gold.PLP.Chemscore.Metal>
0.0000

> <Gold.Chemscore.Hbonds>
donor molecule, donor type, donor heavy atom, donor atom, acceptor molecule, acceptor atom, score
      L1  H    13    37       P1  7948  2.00
      P1  H  6931  6943       L1     5  1.00
      P1  H  6934  6947       L1     5  0.82

> <Gold.PLP.Chemscore.Internal.Correction>
0.0078

> <Gold.Rescore>
     Score         DG    S(hbond)    S(metal)    S(lipo)     H(rot)  DE(clash)    DE(int)     intcor
     15.03     -17.87       2.29        0.00      62.44       1.00       1.64       1.21       ----

> <Gold.Chemscore.Fitness>
15.0287

> <Gold.Chemscore.DG>
-17.8710

> <Gold.Chemscore.ZeroCoef>
-5.4800

> <Gold.Chemscore.Hbond>
2.2890

> <Gold.Chemscore.Metal>
0.0000

> <Gold.Chemscore.Lipo>
62.4421

> <Gold.Chemscore.Internal_Hbond>
0.0000

> <Gold.Chemscore.DEClash>
1.6367

> <Gold.Chemscore.DEInternal>
1.2056

> <Gold.Chemscore.Rot>
1.0000

> <Gold.Chemscore.Internal.Correction>
   9.000000E+99

> <Gold.Chemscore.Hbonds>
donor molecule, donor type, donor heavy atom, donor atom, acceptor molecule, acceptor atom, score
      L1  H    13    37       P1  7948  0.99
      P1  H  6931  6943       L1     5  0.24
      P1  H  6934  6947       L1     5  0.73

> <Gold.Chemscore.Hbond.Weighted>
-7.6453

> <Gold.Chemscore.Metal.Weighted>
-0.0000

> <Gold.Chemscore.Lipo.Weighted>
-7.3057

> <Gold.Chemscore.Internal_Hbond.Weighted>
0.0000

> <Gold.Chemscore.DEClash.Weighted>
1.6367

> <Gold.Chemscore.DEInternal.Weighted>
1.2056

> <Gold.Chemscore.Rot.Weighted>
2.5600

> <Gold.Chemscore.Internal.Correction.Weighted>
   9.000000E+99

> <Gold.Protein.RotatedTorsions>
[ 6907 6896 6895 6894 ] final  130.83 input  -60.11 | X-H torsion
[ 7974 7965 7964 7962 ] final  -34.32 input  175.53 | X-H torsion
[ 8008 7997 7996 7995 ] final  -27.28 input   59.86 | X-H torsion
[ 10167 10162 10161 10158 ] final  120.02 input  -65.29 | X-H torsion
[ 10718 10713 10712 10709 ] final -156.39 input   66.30 | X-H torsion
[ 10763 10752 10751 10750 ] final  -74.16 input  -60.55 | X-H torsion
[ 11005 11000 10999 10996 ] final  -86.46 input  -57.11 | X-H torsion

> <Gold.Protein.ActiveResidues>
 VAL166  LYS551  ARG553  GLY616  TRP617  ASP618  TYR619  PRO620  LYS621  CYS622 
 ASP623  PHE694  ASN695  SER759  ASP760  ASP761  ALA762  ILE779  LEU786  VAL792 
 PHE793  MET794  SER795  GLU796  ALA797  LYS798  CYS799  TRP800  GLU811  SER814 

> <Gold.Protein.RotatedAtoms>
  152.3487  133.6153  159.5928 H   0  0  0  0  0  0  0  0  0  0  0  0  # atno 6907 bound_to 6896
  150.7524  133.9609  159.3524 H   0  0  0  0  0  0  0  0  0  0  0  0  # atno 6908 bound_to 6896
  151.7463  135.0843  160.0375 H   0  0  0  0  0  0  0  0  0  0  0  0  # atno 6909 bound_to 6896
  146.0839  140.6024  142.8895 H   0  0  0  0  0  0  0  0  0  0  0  0  # atno 7974 bound_to 7965
  154.4384  140.1876  156.0908 H   0  0  0  0  0  0  0  0  0  0  0  0  # atno 8008 bound_to 7997
  156.0367  140.3324  155.7173 H   0  0  0  0  0  0  0  0  0  0  0  0  # atno 8009 bound_to 7997
  155.5760  140.0617  157.2786 H   0  0  0  0  0  0  0  0  0  0  0  0  # atno 8010 bound_to 7997
  139.6009  144.7056  151.3065 H   0  0  0  0  0  0  0  0  0  0  0  0  # atno 10167 bound_to 10162
  156.5259  130.8499  151.2699 H   0  0  0  0  0  0  0  0  0  0  0  0  # atno 10718 bound_to 10713
  154.4693  135.5873  153.6311 H   0  0  0  0  0  0  0  0  0  0  0  0  # atno 10763 bound_to 10752
  152.9832  135.6063  154.3386 H   0  0  0  0  0  0  0  0  0  0  0  0  # atno 10764 bound_to 10752
  154.3267  135.2843  155.2472 H   0  0  0  0  0  0  0  0  0  0  0  0  # atno 10765 bound_to 10752
  141.1630  133.7456  156.9164 H   0  0  0  0  0  0  0  0  0  0  0  0  # atno 11005 bound_to 11000
  144.7312  140.4677  143.6936 LP  0  0  0  0  0  0  0  0  0  0  0  0  # atno 17320 bound_to 7965
  145.6166  139.1519  143.3046 LP  0  0  0  0  0  0  0  0  0  0  0  0  # atno 17321 bound_to 7965
  140.7249  143.7033  150.7827 LP  0  0  0  0  0  0  0  0  0  0  0  0  # atno 17342 bound_to 10162
  140.0609  143.5156  152.2628 LP  0  0  0  0  0  0  0  0  0  0  0  0  # atno 17343 bound_to 10162
  157.7429  130.9901  150.2554 LP  0  0  0  0  0  0  0  0  0  0  0  0  # atno 17370 bound_to 10713
  156.3105  130.3771  149.7666 LP  0  0  0  0  0  0  0  0  0  0  0  0  # atno 17371 bound_to 10713
  140.1481  134.9248  157.2557 LP  0  0  0  0  0  0  0  0  0  0  0  0  # atno 17394 bound_to 11000
  140.2755  134.3410  155.7359 LP  0  0  0  0  0  0  0  0  0  0  0  0  # atno 17395 bound_to 11000

$$$$
