AV-unprocessed.smi:2404|AV-procd|sdf|9511|dock4
  -GOLD-   2272013143D 1   1.00000     0.00000
 Structure written by MMmdl.
 42 42  0  0  0  0  0  0  0  0  2 V2000
  150.4409  141.6809  156.4337 C   0  0  0  0  0  0  0  0  0  0  0  0
  149.8198  140.2849  156.6287 C   0  0  0  0  0  0  0  0  0  0  0  0
  150.8156  139.1161  156.8960 C   0  0  0  0  0  0  0  0  0  0  0  0
  151.4339  139.2113  158.3305 C   0  0  0  0  0  0  0  0  0  0  0  0
  152.0497  140.5667  158.7184 C   0  0  0  0  0  0  0  0  0  0  0  0
  150.0441  137.7716  156.7150 C   0  0  0  0  0  0  0  0  0  0  0  0
  148.8911  137.6469  157.6049 N   0  0  0  0  0  0  0  0  0  0  0  0
  148.8452  136.9462  158.7482 C   0  0  0  0  0  0  0  0  0  0  0  0
  149.8312  136.4372  159.2805 O   0  0  0  0  0  0  0  0  0  0  0  0
  147.4596  136.7622  159.3708 C   0  0  0  0  0  0  0  0  0  0  0  0
  147.3059  135.4164  159.9050 N   0  0  0  0  0  0  0  0  0  0  0  0
  147.5720  134.3584  159.1082 N   0  0  0  0  0  0  0  0  0  0  0  0
  147.3994  133.2992  159.8810 C   0  0  0  0  0  0  0  0  0  0  0  0
  147.6447  131.9301  159.3200 C   0  0  0  0  0  0  0  0  0  0  0  0
  146.9928  133.6531  161.1978 C   0  0  0  0  0  0  0  0  0  0  0  0
  146.9460  135.0184  161.1809 C   0  0  0  0  0  0  0  0  0  0  0  0
  146.6064  135.9842  162.2684 C   0  0  0  0  0  0  0  0  0  0  0  0
  151.9543  139.1693  155.8338 C   0  0  0  0  0  0  0  0  0  0  0  0
  153.1443  139.1994  156.2216 O   0  0  0  0  0  0  0  0  0  0  0  0
  151.6114  139.1609  154.6301 O   0  5  0  0  0  0  0  0  0  0  0  0
  149.6632  142.4170  156.2297 H   0  0  0  0  0  0  0  0  0  0  0  0
  151.1366  141.7048  155.5948 H   0  0  0  0  0  0  0  0  0  0  0  0
  150.9737  142.0137  157.3239 H   0  0  0  0  0  0  0  0  0  0  0  0
  149.0962  140.3404  157.4419 H   0  0  0  0  0  0  0  0  0  0  0  0
  149.2195  140.0582  155.7462 H   0  0  0  0  0  0  0  0  0  0  0  0
  150.6773  138.9669  159.0766 H   0  0  0  0  0  0  0  0  0  0  0  0
  152.2049  138.4499  158.4542 H   0  0  0  0  0  0  0  0  0  0  0  0
  152.4325  140.5278  159.7383 H   0  0  0  0  0  0  0  0  0  0  0  0
  151.3193  141.3737  158.6817 H   0  0  0  0  0  0  0  0  0  0  0  0
  152.8846  140.8336  158.0717 H   0  0  0  0  0  0  0  0  0  0  0  0
  149.7555  137.6278  155.6735 H   0  0  0  0  0  0  0  0  0  0  0  0
  150.7043  136.9326  156.9393 H   0  0  0  0  0  0  0  0  0  0  0  0
  148.0207  138.0259  157.2582 H   0  0  0  0  0  0  0  0  0  0  0  0
  147.3061  137.4825  160.1751 H   0  0  0  0  0  0  0  0  0  0  0  0
  146.6913  136.9501  158.6192 H   0  0  0  0  0  0  0  0  0  0  0  0
  147.4375  131.1579  160.0611 H   0  0  0  0  0  0  0  0  0  0  0  0
  148.6829  131.8176  159.0062 H   0  0  0  0  0  0  0  0  0  0  0  0
  147.0098  131.7395  158.4545 H   0  0  0  0  0  0  0  0  0  0  0  0
  146.7824  133.0024  162.0334 H   0  0  0  0  0  0  0  0  0  0  0  0
  146.2742  135.4595  163.1643 H   0  0  0  0  0  0  0  0  0  0  0  0
  145.8068  136.6567  161.9579 H   0  0  0  0  0  0  0  0  0  0  0  0
  147.4738  136.5877  162.5367 H   0  0  0  0  0  0  0  0  0  0  0  0
  1  2  1  0  0  0  0
  1 21  1  0  0  0  0
  1 22  1  0  0  0  0
  1 23  1  0  0  0  0
  2  3  1  0  0  0  0
  2 24  1  0  0  0  0
  2 25  1  0  0  0  0
  3  4  1  0  0  0  0
  3  6  1  0  0  0  0
  3 18  1  0  0  0  0
  4  5  1  0  0  0  0
  4 26  1  0  0  0  0
  4 27  1  0  0  0  0
  5 28  1  0  0  0  0
  5 29  1  0  0  0  0
  5 30  1  0  0  0  0
  6  7  1  0  0  0  0
  6 31  1  0  0  0  0
  6 32  1  0  0  0  0
  7  8  1  0  0  0  0
  7 33  1  0  0  0  0
  8  9  2  0  0  0  0
  8 10  1  0  0  0  0
 10 11  1  0  0  0  0
 10 34  1  0  0  0  0
 10 35  1  0  0  0  0
 11 16  1  0  0  0  0
 11 12  1  0  0  0  0
 12 13  2  0  0  0  0
 13 14  1  0  0  0  0
 13 15  1  0  0  0  0
 14 36  1  0  0  0  0
 14 37  1  0  0  0  0
 14 38  1  0  0  0  0
 15 16  2  0  0  0  0
 15 39  1  0  0  0  0
 16 17  1  0  0  0  0
 17 40  1  0  0  0  0
 17 41  1  0  0  0  0
 17 42  1  0  0  0  0
 18 19  2  0  0  0  0
 18 20  1  0  0  0  0
M  CHG  1  20  -1
M  END
> <s_m_source_file>
AV-unprocessed.smi

> <i_m_source_file_index>
2404

> <i_lp_mmshare_version>
43012

> <i_f3d_flags>
0

> <s_epik_input>
W0NIM11bQ0gyXUMoW0NIMl1bQ0gzXSkoQyg9TylbT0hdKVtDSDJdW05IXUMoPU8pW0NIMl1uMW5jKFtDSDNdKVtjSF1jMVtDSDNd

> <s_epik_cmdline>
J2VwaWtfcHl0aG9uJywgJy1waCcsICc3LjAnLCAnLXRuJywgJzgnLCAnLW1hJywgJzIwMCcsICctbWV0YWxfYmluZGluZycsICctaW1hZScsICc8aW5maWxlLm1hZT4nLCAnLW9tYWUnLCAnPG91dGZpbGUubWFlPic=

> <r_lp_tautomer_probability>
1

> <r_epik_Ionization_Penalty>
0.00271888

> <r_epik_Ionization_Penalty_Charging>
0.00235221

> <r_epik_Ionization_Penalty_Neutral>
0.000366676

> <r_epik_State_Penalty>
-0

> <r_epik_Charging_Adjusted_Penalty>
0.00235221

> <i_epik_Tot_Q>
-1

> <i_epik_Tot_abs_Q>
1

> <r_epik_Metal_State_Penalty>
-0

> <b_epik_Metal_Only>
0

> <s_lp_Force_Field>
OPLS_2005

> <r_lp_Energy>
2.14996

> <b_lp_Chiralities_Consistent>
1

> <s_lp_Variant>
AV-unprocessed.smi:2404-1

> <Gold.Version>
5.8.1

> <Gold.Id.Protein>
6NUR|6NUR_protein|mol2

> <Gold.PLP.Fitness>
43.6237

> <Gold.PLP.PLP>
-32.8837

> <Gold.PLP.part.hbond>
-3.0000

> <Gold.PLP.part.metal>
0.0000

> <Gold.PLP.part.buried>
-5.5745

> <Gold.PLP.part.nonpolar>
-25.7058

> <Gold.PLP.part.repulsive>
0.1930

> <Gold.PLP.ligand.clash>
0.0000

> <Gold.PLP.ligand.torsion>
0.6975

> <Gold.PLP.Chemscore.Hbond>
4.0000

> <Gold.PLP.Chemscore.CHOScore>
0.0000

> <Gold.PLP.Chemscore.Metal>
0.0000

> <Gold.Chemscore.Hbonds>
donor molecule, donor type, donor heavy atom, donor atom, acceptor molecule, acceptor atom, score
      P1  H  6896  6909       L1     9  1.00
      P1  H  7989  7998       L1    20  0.98
      P1  H  7997  8010       L1    19  1.92

> <Gold.PLP.Chemscore.Internal.Correction>
0.1351

> <Gold.Rescore>
     Score         DG    S(hbond)    S(metal)    S(lipo)     H(rot)  DE(clash)    DE(int)     intcor
     15.88     -16.86       2.97        0.00      65.35       2.42       0.02       0.96       ----

> <Gold.Chemscore.Fitness>
15.8761

> <Gold.Chemscore.DG>
-16.8563

> <Gold.Chemscore.ZeroCoef>
-5.4800

> <Gold.Chemscore.Hbond>
2.9686

> <Gold.Chemscore.Metal>
0.0000

> <Gold.Chemscore.Lipo>
65.3499

> <Gold.Chemscore.Internal_Hbond>
0.0000

> <Gold.Chemscore.DEClash>
0.0202

> <Gold.Chemscore.DEInternal>
0.9600

> <Gold.Chemscore.Rot>
2.4159

> <Gold.Chemscore.Internal.Correction>
   9.000000E+99

> <Gold.Chemscore.Hbonds>
donor molecule, donor type, donor heavy atom, donor atom, acceptor molecule, acceptor atom, score
      P1  H  6896  6909       L1     9  1.00
      P1  H  7989  7998       L1    20  0.90
      P1  H  7997  8010       L1    19  0.90

> <Gold.Chemscore.Hbond.Weighted>
-9.9152

> <Gold.Chemscore.Metal.Weighted>
-0.0000

> <Gold.Chemscore.Lipo.Weighted>
-7.6459

> <Gold.Chemscore.Internal_Hbond.Weighted>
0.0000

> <Gold.Chemscore.DEClash.Weighted>
0.0202

> <Gold.Chemscore.DEInternal.Weighted>
0.9600

> <Gold.Chemscore.Rot.Weighted>
6.1848

> <Gold.Chemscore.Internal.Correction.Weighted>
   9.000000E+99

> <Gold.Protein.RotatedTorsions>
[ 6907 6896 6895 6894 ] final   79.29 input  -60.11 | X-H torsion
[ 7974 7965 7964 7962 ] final  114.98 input  175.53 | X-H torsion
[ 8008 7997 7996 7995 ] final   81.59 input   59.86 | X-H torsion
[ 10167 10162 10161 10158 ] final  178.49 input  -65.29 | X-H torsion
[ 10718 10713 10712 10709 ] final -149.29 input   66.30 | X-H torsion
[ 10763 10752 10751 10750 ] final   45.02 input  -60.55 | X-H torsion
[ 11005 11000 10999 10996 ] final  100.41 input  -57.11 | X-H torsion

> <Gold.Protein.ActiveResidues>
 VAL166  LYS551  ARG553  GLY616  TRP617  ASP618  TYR619  PRO620  LYS621  CYS622 
 ASP623  PHE694  ASN695  SER759  ASP760  ASP761  ALA762  ILE779  LEU786  VAL792 
 PHE793  MET794  SER795  GLU796  ALA797  LYS798  CYS799  TRP800  GLU811  SER814 

> <Gold.Protein.RotatedAtoms>
  152.5193  134.3533  159.9258 H   0  0  0  0  0  0  0  0  0  0  0  0  # atno 6907 bound_to 6896
  151.3484  133.3928  159.2685 H   0  0  0  0  0  0  0  0  0  0  0  0  # atno 6908 bound_to 6896
  150.9747  134.9132  159.7866 H   0  0  0  0  0  0  0  0  0  0  0  0  # atno 6909 bound_to 6896
  145.1977  139.2968  143.4335 H   0  0  0  0  0  0  0  0  0  0  0  0  # atno 7974 bound_to 7965
  155.8992  140.3434  155.6013 H   0  0  0  0  0  0  0  0  0  0  0  0  # atno 8008 bound_to 7997
  155.7520  140.0821  157.2215 H   0  0  0  0  0  0  0  0  0  0  0  0  # atno 8009 bound_to 7997
  154.4041  140.1551  156.2722 H   0  0  0  0  0  0  0  0  0  0  0  0  # atno 8010 bound_to 7997
  139.5296  144.2674  152.0657 H   0  0  0  0  0  0  0  0  0  0  0  0  # atno 10167 bound_to 10162
  156.4313  130.8077  151.2304 H   0  0  0  0  0  0  0  0  0  0  0  0  # atno 10718 bound_to 10713
  152.9831  135.6052  154.3368 H   0  0  0  0  0  0  0  0  0  0  0  0  # atno 10763 bound_to 10752
  154.3068  135.2772  155.2587 H   0  0  0  0  0  0  0  0  0  0  0  0  # atno 10764 bound_to 10752
  154.4814  135.5916  153.6448 H   0  0  0  0  0  0  0  0  0  0  0  0  # atno 10765 bound_to 10752
  139.8771  134.9139  156.4752 H   0  0  0  0  0  0  0  0  0  0  0  0  # atno 11005 bound_to 11000
  146.3424  140.2211  142.8591 LP  0  0  0  0  0  0  0  0  0  0  0  0  # atno 17320 bound_to 7965
  144.9979  140.8605  143.5300 LP  0  0  0  0  0  0  0  0  0  0  0  0  # atno 17321 bound_to 7965
  140.2135  144.4538  150.6375 LP  0  0  0  0  0  0  0  0  0  0  0  0  # atno 17342 bound_to 10162
  140.6465  143.2214  151.6174 LP  0  0  0  0  0  0  0  0  0  0  0  0  # atno 17343 bound_to 10162
  157.7508  131.0197  150.3680 LP  0  0  0  0  0  0  0  0  0  0  0  0  # atno 17370 bound_to 10713
  156.4018  130.3917  149.6954 LP  0  0  0  0  0  0  0  0  0  0  0  0  # atno 17371 bound_to 10713
  140.8767  133.7948  155.9422 LP  0  0  0  0  0  0  0  0  0  0  0  0  # atno 17394 bound_to 11000
  140.8897  134.2511  157.5101 LP  0  0  0  0  0  0  0  0  0  0  0  0  # atno 17395 bound_to 11000

$$$$
