AV-unprocessed.smi:2245|AV-procd|sdf|9078|dock4
  -GOLD-   2272012283D 1   1.00000     0.00000
 Structure written by MMmdl.
 45 46  0  0  0  0  0  0  0  0  2 V2000
  151.8451  145.2404  160.3849 C   0  0  0  0  0  0  0  0  0  0  0  0
  151.8879  143.9809  159.5454 C   0  0  0  0  0  0  0  0  0  0  0  0
  152.7381  142.9130  159.8903 C   0  0  0  0  0  0  0  0  0  0  0  0
  152.7302  141.7660  159.0726 C   0  0  0  0  0  0  0  0  0  0  0  0
  153.6188  140.5801  159.3844 C   0  0  0  0  0  0  0  0  0  0  0  0
  151.9466  141.6460  157.9797 N   0  0  0  0  0  0  0  0  0  0  0  0
  151.1238  142.6685  157.6375 C   0  0  0  0  0  0  0  0  0  0  0  0
  150.2605  142.6408  156.5101 N   0  0  0  0  0  0  0  0  0  0  0  0
  150.1007  141.6540  155.6107 C   0  0  0  0  0  0  0  0  0  0  0  0
  150.7143  140.5864  155.6052 O   0  0  0  0  0  0  0  0  0  0  0  0
  149.1668  141.9709  154.7020 N   0  0  0  0  0  0  0  0  0  0  0  0
  148.7471  141.1154  153.5965 C   0  0  0  0  0  0  0  0  0  0  0  0
  147.3994  140.4189  153.8721 C   0  0  2  0  0  0  0  0  0  0  0  0
  147.4238  139.4623  155.0630 C   0  0  0  0  0  0  0  0  0  0  0  0
  146.2690  138.4863  154.7986 C   0  0  0  0  0  0  0  0  0  0  0  0
  145.8857  138.6485  153.3752 N   0  3  2  0  0  0  0  0  0  0  0  0
  145.6189  137.3904  152.6370 C   0  0  0  0  0  0  0  0  0  0  0  0
  144.4206  136.6125  153.2085 C   0  0  0  0  0  0  0  0  0  0  0  0
  143.4740  137.4771  153.5703 F   0  0  0  0  0  0  0  0  0  0  0  0
  143.9089  135.7794  152.3029 F   0  0  0  0  0  0  0  0  0  0  0  0
  144.7978  135.9174  154.2814 F   0  0  0  0  0  0  0  0  0  0  0  0
  146.8993  139.5165  152.7442 C   0  0  0  0  0  0  0  0  0  0  0  0
  151.0706  143.8544  158.4037 C   0  0  0  0  0  0  0  0  0  0  0  0
  152.7256  145.3170  161.0237 H   0  0  0  0  0  0  0  0  0  0  0  0
  150.9590  145.2387  161.0201 H   0  0  0  0  0  0  0  0  0  0  0  0
  151.8107  146.1243  159.7476 H   0  0  0  0  0  0  0  0  0  0  0  0
  153.3783  142.9712  160.7587 H   0  0  0  0  0  0  0  0  0  0  0  0
  154.2431  140.7714  160.2575 H   0  0  0  0  0  0  0  0  0  0  0  0
  154.2731  140.3634  158.5394 H   0  0  0  0  0  0  0  0  0  0  0  0
  153.0132  139.6960  159.5861 H   0  0  0  0  0  0  0  0  0  0  0  0
  149.6914  143.4641  156.3812 H   0  0  0  0  0  0  0  0  0  0  0  0
  148.7185  142.8726  154.7760 H   0  0  0  0  0  0  0  0  0  0  0  0
  148.6733  141.7362  152.7030 H   0  0  0  0  0  0  0  0  0  0  0  0
  149.5211  140.3735  153.3927 H   0  0  0  0  0  0  0  0  0  0  0  0
  146.6361  141.1741  154.0671 H   0  0  0  0  0  0  0  0  0  0  0  0
  148.3656  138.9118  155.0822 H   0  0  0  0  0  0  0  0  0  0  0  0
  147.3242  139.9804  156.0173 H   0  0  0  0  0  0  0  0  0  0  0  0
  146.5773  137.4658  155.0298 H   0  0  0  0  0  0  0  0  0  0  0  0
  145.4058  138.7208  155.4223 H   0  0  0  0  0  0  0  0  0  0  0  0
  145.3970  137.6450  151.5995 H   0  0  0  0  0  0  0  0  0  0  0  0
  146.5147  136.7678  152.6175 H   0  0  0  0  0  0  0  0  0  0  0  0
  146.4777  140.0798  151.9110 H   0  0  0  0  0  0  0  0  0  0  0  0
  147.7203  138.9072  152.3615 H   0  0  0  0  0  0  0  0  0  0  0  0
  150.4096  144.6614  158.1216 H   0  0  0  0  0  0  0  0  0  0  0  0
  145.0279  139.1823  153.3723 H   0  0  0  0  0  0  0  0  0  0  0  0
  1  2  1  0  0  0  0
  1 24  1  0  0  0  0
  1 25  1  0  0  0  0
  1 26  1  0  0  0  0
  2 23  1  0  0  0  0
  2  3  2  0  0  0  0
  3  4  1  0  0  0  0
  3 27  1  0  0  0  0
  4  5  1  0  0  0  0
  4  6  2  0  0  0  0
  5 28  1  0  0  0  0
  5 29  1  0  0  0  0
  5 30  1  0  0  0  0
  6  7  1  0  0  0  0
  7  8  1  0  0  0  0
  7 23  2  0  0  0  0
  8  9  1  0  0  0  0
  8 31  1  0  0  0  0
  9 10  2  0  0  0  0
  9 11  1  0  0  0  0
 11 12  1  0  0  0  0
 11 32  1  0  0  0  0
 12 13  1  0  0  0  0
 12 33  1  0  0  0  0
 12 34  1  0  0  0  0
 13 22  1  0  0  0  0
 13 14  1  0  0  0  0
 13 35  1  0  0  0  0
 14 15  1  0  0  0  0
 14 36  1  0  0  0  0
 14 37  1  0  0  0  0
 15 16  1  0  0  0  0
 15 38  1  0  0  0  0
 15 39  1  0  0  0  0
 16 17  1  0  0  0  0
 16 22  1  0  0  0  0
 16 45  1  0  0  0  0
 17 18  1  0  0  0  0
 17 40  1  0  0  0  0
 17 41  1  0  0  0  0
 18 19  1  0  0  0  0
 18 20  1  0  0  0  0
 18 21  1  0  0  0  0
 22 42  1  0  0  0  0
 22 43  1  0  0  0  0
 23 44  1  0  0  0  0
M  CHG  1  16   1
M  END
> <s_m_source_file>
AV-unprocessed.smi

> <i_m_source_file_index>
2245

> <i_lp_mmshare_version>
43012

> <i_f3d_flags>
0

> <s_epik_input>
W0NIM11jMVtjSF1jKFtDSDNdKW5jKFtjSF0xKVtOSF1DKD1PKVtOSF1bQ0gyXVtDQEBIXTJbQ0gyXVtDSDJdTihbQ0gyXTIpW0NIMl1DKEYpKEYpRg==

> <s_epik_cmdline>
J2VwaWtfcHl0aG9uJywgJy1waCcsICc3LjAnLCAnLXRuJywgJzgnLCAnLW1hJywgJzIwMCcsICctbWV0YWxfYmluZGluZycsICctaW1hZScsICc8aW5maWxlLm1hZT4nLCAnLW9tYWUnLCAnPG91dGZpbGUubWFlPic=

> <r_epik_Ionization_Penalty>
0.628315

> <r_epik_Ionization_Penalty_Charging>
0.628113

> <r_epik_Ionization_Penalty_Neutral>
0.000202271

> <r_epik_State_Penalty>
0.644725

> <r_epik_Charging_Adjusted_Penalty>
1.27284

> <i_epik_Tot_Q>
1

> <i_epik_Tot_abs_Q>
1

> <r_epik_Metal_State_Penalty>
0.644752

> <b_epik_Metal_Only>
0

> <s_lp_Force_Field>
OPLS_2005

> <r_lp_Energy>
28.9213

> <b_lp_Chiralities_Consistent>
1

> <s_lp_Variant>
AV-unprocessed.smi:2245-3

> <Gold.Version>
5.8.1

> <Gold.Id.Protein>
6NUR|6NUR_protein|mol2

> <Gold.PLP.Fitness>
51.7595

> <Gold.PLP.PLP>
-39.8342

> <Gold.PLP.part.hbond>
-3.4859

> <Gold.PLP.part.metal>
0.0000

> <Gold.PLP.part.buried>
-0.5285

> <Gold.PLP.part.nonpolar>
-35.7178

> <Gold.PLP.part.repulsive>
0.7871

> <Gold.PLP.ligand.clash>
0.0000

> <Gold.PLP.ligand.torsion>
0.4589

> <Gold.PLP.Chemscore.Hbond>
4.1171

> <Gold.PLP.Chemscore.CHOScore>
0.0000

> <Gold.PLP.Chemscore.Metal>
0.0000

> <Gold.Chemscore.Hbonds>
donor molecule, donor type, donor heavy atom, donor atom, acceptor molecule, acceptor atom, score
      L1  H     8    31       P1  8028  1.00
      L1  H    11    32       P1  8028  0.87
      L1  H    16    45       P1 10175  1.82
      P1  H  7989  7998       L1    10  0.21

> <Gold.PLP.Chemscore.Internal.Correction>
0.4919

> <Gold.Rescore>
     Score         DG    S(hbond)    S(metal)    S(lipo)     H(rot)  DE(clash)    DE(int)     intcor
     19.12     -22.25       2.88        0.00      96.54       1.61       1.25       1.88       ----

> <Gold.Chemscore.Fitness>
19.1203

> <Gold.Chemscore.DG>
-22.2526

> <Gold.Chemscore.ZeroCoef>
-5.4800

> <Gold.Chemscore.Hbond>
2.8774

> <Gold.Chemscore.Metal>
0.0000

> <Gold.Chemscore.Lipo>
96.5356

> <Gold.Chemscore.Internal_Hbond>
0.0000

> <Gold.Chemscore.DEClash>
1.2521

> <Gold.Chemscore.DEInternal>
1.8801

> <Gold.Chemscore.Rot>
1.6143

> <Gold.Chemscore.Internal.Correction>
   9.000000E+99

> <Gold.Chemscore.Hbonds>
donor molecule, donor type, donor heavy atom, donor atom, acceptor molecule, acceptor atom, score
      L1  H     8    31       P1  8028  1.00
      L1  H    11    32       P1  8028  0.80
      L1  H    16    45       P1 10175  0.84
      P1  H  7989  7998       L1    10  0.03

> <Gold.Chemscore.Hbond.Weighted>
-9.6104

> <Gold.Chemscore.Metal.Weighted>
-0.0000

> <Gold.Chemscore.Lipo.Weighted>
-11.2947

> <Gold.Chemscore.Internal_Hbond.Weighted>
0.0000

> <Gold.Chemscore.DEClash.Weighted>
1.2521

> <Gold.Chemscore.DEInternal.Weighted>
1.8801

> <Gold.Chemscore.Rot.Weighted>
4.1325

> <Gold.Chemscore.Internal.Correction.Weighted>
   9.000000E+99

> <Gold.Protein.RotatedTorsions>
[ 6907 6896 6895 6894 ] final  128.47 input  -60.11 | X-H torsion
[ 7974 7965 7964 7962 ] final   28.03 input  175.53 | X-H torsion
[ 8008 7997 7996 7995 ] final  -88.76 input   59.86 | X-H torsion
[ 10167 10162 10161 10158 ] final  167.68 input  -65.29 | X-H torsion
[ 10718 10713 10712 10709 ] final   27.28 input   66.30 | X-H torsion
[ 10763 10752 10751 10750 ] final   79.17 input  -60.55 | X-H torsion
[ 11005 11000 10999 10996 ] final -160.42 input  -57.11 | X-H torsion

> <Gold.Protein.ActiveResidues>
 VAL166  LYS551  ARG553  GLY616  TRP617  ASP618  TYR619  PRO620  LYS621  CYS622 
 ASP623  PHE694  ASN695  SER759  ASP760  ASP761  ALA762  ILE779  LEU786  VAL792 
 PHE793  MET794  SER795  GLU796  ALA797  LYS798  CYS799  TRP800  GLU811  SER814 

> <Gold.Protein.RotatedAtoms>
  152.3716  133.6426  159.6091 H   0  0  0  0  0  0  0  0  0  0  0  0  # atno 6907 bound_to 6896
  150.7673  133.9261  159.3421 H   0  0  0  0  0  0  0  0  0  0  0  0  # atno 6908 bound_to 6896
  151.7083  135.0918  160.0314 H   0  0  0  0  0  0  0  0  0  0  0  0  # atno 6909 bound_to 6896
  146.1751  139.7111  142.8940 H   0  0  0  0  0  0  0  0  0  0  0  0  # atno 7974 bound_to 7965
  154.6786  140.0550  157.0242 H   0  0  0  0  0  0  0  0  0  0  0  0  # atno 8008 bound_to 7997
  155.0984  140.3226  155.4535 H   0  0  0  0  0  0  0  0  0  0  0  0  # atno 8009 bound_to 7997
  156.2685  140.2035  156.6111 H   0  0  0  0  0  0  0  0  0  0  0  0  # atno 8010 bound_to 7997
  139.4950  144.3896  151.9532 H   0  0  0  0  0  0  0  0  0  0  0  0  # atno 10167 bound_to 10162
  157.2180  130.6965  149.6257 H   0  0  0  0  0  0  0  0  0  0  0  0  # atno 10718 bound_to 10713
  153.0932  135.4849  154.8729 H   0  0  0  0  0  0  0  0  0  0  0  0  # atno 10763 bound_to 10752
  154.7293  135.3056  154.8920 H   0  0  0  0  0  0  0  0  0  0  0  0  # atno 10764 bound_to 10752
  153.9560  135.6818  153.4798 H   0  0  0  0  0  0  0  0  0  0  0  0  # atno 10765 bound_to 10752
  140.6317  134.4644  157.5230 H   0  0  0  0  0  0  0  0  0  0  0  0  # atno 11005 bound_to 11000
  145.4233  141.0408  143.2951 LP  0  0  0  0  0  0  0  0  0  0  0  0  # atno 17320 bound_to 7965
  144.8224  139.5769  143.6981 LP  0  0  0  0  0  0  0  0  0  0  0  0  # atno 17321 bound_to 7965
  140.3333  144.3290  150.5982 LP  0  0  0  0  0  0  0  0  0  0  0  0  # atno 17342 bound_to 10162
  140.5627  143.2190  151.7738 LP  0  0  0  0  0  0  0  0  0  0  0  0  # atno 17343 bound_to 10162
  155.9684  130.4529  150.5792 LP  0  0  0  0  0  0  0  0  0  0  0  0  # atno 17370 bound_to 10713
  157.3605  131.0749  151.1641 LP  0  0  0  0  0  0  0  0  0  0  0  0  # atno 17371 bound_to 10713
  139.9113  134.8338  156.1517 LP  0  0  0  0  0  0  0  0  0  0  0  0  # atno 17394 bound_to 11000
  141.0670  133.6814  156.2065 LP  0  0  0  0  0  0  0  0  0  0  0  0  # atno 17395 bound_to 11000

$$$$
