AV-unprocessed.smi:1173|AV-procd|sdf|4945|dock9
  -GOLD-   22720 3533D 1   1.00000     0.00000
 Structure written by MMmdl.
 37 38  0  0  0  0  0  0  0  0  1 V2000
  149.0301  142.1567  156.0532 C   0  0  0  0  0  0  0  0  0  0  0  0
  149.6713  141.2663  155.0782 N   0  0  0  0  0  0  0  0  0  0  0  0
  149.1523  141.3171  153.7012 C   0  0  0  0  0  0  0  0  0  0  0  0
  147.6227  141.2071  153.6295 C   0  0  0  0  0  0  0  0  0  0  0  0
  147.0700  141.3441  152.4220 N   0  0  0  0  0  0  0  0  0  0  0  0
  146.9460  141.0205  154.6397 O   0  0  0  0  0  0  0  0  0  0  0  0
  150.7035  140.4466  155.4020 C   0  0  0  0  0  0  0  0  0  0  0  0
  151.3013  139.7510  154.5800 O   0  0  0  0  0  0  0  0  0  0  0  0
  151.1277  140.3908  156.8404 C   0  0  0  0  0  0  0  0  0  0  0  0
  151.3442  141.5724  157.4607 N   0  0  0  0  0  0  0  0  0  0  0  0
  151.7316  141.5555  158.7426 C   0  0  0  0  0  0  0  0  0  0  0  0
  151.9478  142.7895  159.3703 N   0  0  0  0  0  0  0  0  0  0  0  0
  152.1390  144.0216  158.6002 C   0  0  0  0  0  0  0  0  0  0  0  0
  151.6481  145.2459  159.3912 C   0  0  0  0  0  0  0  0  0  0  0  0
  152.2938  145.2925  160.6571 O   0  0  0  0  0  0  0  0  0  0  0  0
  151.9881  144.1459  161.4405 C   0  0  0  0  0  0  0  0  0  0  0  0
  152.4905  142.8783  160.7287 C   0  0  0  0  0  0  0  0  0  0  0  0
  151.9272  140.4459  159.4673 N   0  0  0  0  0  0  0  0  0  0  0  0
  151.7285  139.2552  158.8634 C   0  0  0  0  0  0  0  0  0  0  0  0
  151.3226  139.1638  157.5187 C   0  0  0  0  0  0  0  0  0  0  0  0
  151.1046  137.6214  156.7668 Cl  0  0  0  0  0  0  0  0  0  0  0  0
  148.4937  141.5827  156.8087 H   0  0  0  0  0  0  0  0  0  0  0  0
  148.3035  142.8248  155.5904 H   0  0  0  0  0  0  0  0  0  0  0  0
  149.7677  142.7845  156.5552 H   0  0  0  0  0  0  0  0  0  0  0  0
  149.4498  142.2449  153.2118 H   0  0  0  0  0  0  0  0  0  0  0  0
  149.6000  140.5242  153.0988 H   0  0  0  0  0  0  0  0  0  0  0  0
  146.0678  141.2842  152.3149 H   0  0  0  0  0  0  0  0  0  0  0  0
  147.6580  141.5109  151.6180 H   0  0  0  0  0  0  0  0  0  0  0  0
  153.1995  144.1264  158.3689 H   0  0  0  0  0  0  0  0  0  0  0  0
  151.6086  143.9975  157.6487 H   0  0  0  0  0  0  0  0  0  0  0  0
  151.8766  146.1607  158.8440 H   0  0  0  0  0  0  0  0  0  0  0  0
  150.5651  145.2159  159.5220 H   0  0  0  0  0  0  0  0  0  0  0  0
  152.4694  144.2438  162.4137 H   0  0  0  0  0  0  0  0  0  0  0  0
  150.9135  144.0899  161.6221 H   0  0  0  0  0  0  0  0  0  0  0  0
  152.2146  142.0168  161.3363 H   0  0  0  0  0  0  0  0  0  0  0  0
  153.5793  142.8890  160.6685 H   0  0  0  0  0  0  0  0  0  0  0  0
  151.9011  138.3700  159.4573 H   0  0  0  0  0  0  0  0  0  0  0  0
  1  2  1  0  0  0  0
  1 22  1  0  0  0  0
  1 23  1  0  0  0  0
  1 24  1  0  0  0  0
  2  3  1  0  0  0  0
  2  7  1  0  0  0  0
  3  4  1  0  0  0  0
  3 25  1  0  0  0  0
  3 26  1  0  0  0  0
  4  5  1  0  0  0  0
  4  6  2  0  0  0  0
  5 27  1  0  0  0  0
  5 28  1  0  0  0  0
  7  8  2  0  0  0  0
  7  9  1  0  0  0  0
  9 20  1  0  0  0  0
  9 10  2  0  0  0  0
 10 11  1  0  0  0  0
 11 12  1  0  0  0  0
 11 18  2  0  0  0  0
 12 17  1  0  0  0  0
 12 13  1  0  0  0  0
 13 14  1  0  0  0  0
 13 29  1  0  0  0  0
 13 30  1  0  0  0  0
 14 15  1  0  0  0  0
 14 31  1  0  0  0  0
 14 32  1  0  0  0  0
 15 16  1  0  0  0  0
 16 17  1  0  0  0  0
 16 33  1  0  0  0  0
 16 34  1  0  0  0  0
 17 35  1  0  0  0  0
 17 36  1  0  0  0  0
 18 19  1  0  0  0  0
 19 20  2  0  0  0  0
 19 37  1  0  0  0  0
 20 21  1  0  0  0  0
M  END
> <s_m_source_file>
AV-unprocessed.smi

> <i_m_source_file_index>
1173

> <i_lp_mmshare_version>
43012

> <i_f3d_flags>
0

> <s_epik_input>
W05IMl1DKD1PKVtDSDJdTihbQ0gzXSlDKD1PKWMxbmMobltjSF1jMUNsKU4yW0NIMl1bQ0gyXU9bQ0gyXVtDSDJdMg==

> <s_epik_cmdline>
J2VwaWtfcHl0aG9uJywgJy1waCcsICc3LjAnLCAnLXRuJywgJzgnLCAnLW1hJywgJzIwMCcsICctbWV0YWxfYmluZGluZycsICctaW1hZScsICc8aW5maWxlLm1hZT4nLCAnLW9tYWUnLCAnPG91dGZpbGUubWFlPic=

> <r_lp_tautomer_probability>
1

> <r_epik_Ionization_Penalty>
9.52456e-08

> <r_epik_Ionization_Penalty_Charging>
0

> <r_epik_Ionization_Penalty_Neutral>
9.52456e-08

> <r_epik_State_Penalty>
-0

> <r_epik_Charging_Adjusted_Penalty>
0

> <i_epik_Tot_Q>
0

> <i_epik_Tot_abs_Q>
0

> <r_epik_Metal_State_Penalty>
-0

> <b_epik_Metal_Only>
0

> <s_lp_Force_Field>
OPLS_2005

> <r_lp_Energy>
19.8888

> <b_lp_Chiralities_Consistent>
1

> <s_lp_Variant>
AV-unprocessed.smi:1173-1

> <Gold.Version>
5.8.1

> <Gold.Id.Protein>
6NUR|6NUR_protein|mol2

> <Gold.PLP.Fitness>
44.6954

> <Gold.PLP.PLP>
-39.1332

> <Gold.PLP.part.hbond>
-2.0000

> <Gold.PLP.part.metal>
0.0000

> <Gold.PLP.part.buried>
-3.2906

> <Gold.PLP.part.nonpolar>
-33.5478

> <Gold.PLP.part.repulsive>
0.3652

> <Gold.PLP.ligand.clash>
0.0000

> <Gold.PLP.ligand.torsion>
1.0740

> <Gold.PLP.Chemscore.Hbond>
2.0000

> <Gold.PLP.Chemscore.CHOScore>
0.0000

> <Gold.PLP.Chemscore.Metal>
0.0000

> <Gold.Chemscore.Hbonds>
donor molecule, donor type, donor heavy atom, donor atom, acceptor molecule, acceptor atom, score
      P1  H  7989  7998       L1     8  1.00

> <Gold.PLP.Chemscore.Internal.Correction>
1.7101

> <Gold.Rescore>
     Score         DG    S(hbond)    S(metal)    S(lipo)     H(rot)  DE(clash)    DE(int)     intcor
     12.65     -16.83       1.77        0.00      80.10       1.54       0.13       4.04       ----

> <Gold.Chemscore.Fitness>
12.6540

> <Gold.Chemscore.DG>
-16.8271

> <Gold.Chemscore.ZeroCoef>
-5.4800

> <Gold.Chemscore.Hbond>
1.7700

> <Gold.Chemscore.Metal>
0.0000

> <Gold.Chemscore.Lipo>
80.1010

> <Gold.Chemscore.Internal_Hbond>
0.0000

> <Gold.Chemscore.DEClash>
0.1329

> <Gold.Chemscore.DEInternal>
4.0403

> <Gold.Chemscore.Rot>
1.5377

> <Gold.Chemscore.Internal.Correction>
   9.000000E+99

> <Gold.Chemscore.Hbonds>
donor molecule, donor type, donor heavy atom, donor atom, acceptor molecule, acceptor atom, score
      L1  H     5    28       P1  7957  0.02
      P1  H  7989  7998       L1     8  0.25

> <Gold.Chemscore.Hbond.Weighted>
-5.9119

> <Gold.Chemscore.Metal.Weighted>
-0.0000

> <Gold.Chemscore.Lipo.Weighted>
-9.3718

> <Gold.Chemscore.Internal_Hbond.Weighted>
0.0000

> <Gold.Chemscore.DEClash.Weighted>
0.1329

> <Gold.Chemscore.DEInternal.Weighted>
4.0403

> <Gold.Chemscore.Rot.Weighted>
3.9366

> <Gold.Chemscore.Internal.Correction.Weighted>
   9.000000E+99

> <Gold.Protein.RotatedTorsions>
[ 6907 6896 6895 6894 ] final -129.51 input  -60.11 | X-H torsion
[ 7974 7965 7964 7962 ] final   17.46 input  175.53 | X-H torsion
[ 8008 7997 7996 7995 ] final   46.21 input   59.86 | X-H torsion
[ 10167 10162 10161 10158 ] final   48.03 input  -65.29 | X-H torsion
[ 10718 10713 10712 10709 ] final   20.85 input   66.30 | X-H torsion
[ 10763 10752 10751 10750 ] final   23.15 input  -60.55 | X-H torsion
[ 11005 11000 10999 10996 ] final    5.17 input  -57.11 | X-H torsion

> <Gold.Protein.ActiveResidues>
 VAL166  LYS551  ARG553  GLY616  TRP617  ASP618  TYR619  PRO620  LYS621  CYS622 
 ASP623  PHE694  ASN695  SER759  ASP760  ASP761  ALA762  ILE779  LEU786  VAL792 
 PHE793  MET794  SER795  GLU796  ALA797  LYS798  CYS799  TRP800  GLU811  SER814 

> <Gold.Protein.RotatedAtoms>
  150.9295  133.6784  159.2813 H   0  0  0  0  0  0  0  0  0  0  0  0  # atno 6907 bound_to 6896
  151.4211  135.0996  159.9624 H   0  0  0  0  0  0  0  0  0  0  0  0  # atno 6908 bound_to 6896
  152.5019  133.8746  159.7371 H   0  0  0  0  0  0  0  0  0  0  0  0  # atno 6909 bound_to 6896
  146.2218  139.8599  142.8606 H   0  0  0  0  0  0  0  0  0  0  0  0  # atno 7974 bound_to 7965
  155.3487  140.3412  155.4239 H   0  0  0  0  0  0  0  0  0  0  0  0  # atno 8008 bound_to 7997
  156.1775  140.1652  156.8370 H   0  0  0  0  0  0  0  0  0  0  0  0  # atno 8009 bound_to 7997
  154.5298  140.0748  156.8307 H   0  0  0  0  0  0  0  0  0  0  0  0  # atno 8010 bound_to 7997
  140.2975  144.2973  150.6226 H   0  0  0  0  0  0  0  0  0  0  0  0  # atno 10167 bound_to 10162
  157.1302  130.6588  149.5949 H   0  0  0  0  0  0  0  0  0  0  0  0  # atno 10718 bound_to 10713
  153.0860  135.6633  153.9947 H   0  0  0  0  0  0  0  0  0  0  0  0  # atno 10763 bound_to 10752
  153.9557  135.2979  155.3437 H   0  0  0  0  0  0  0  0  0  0  0  0  # atno 10764 bound_to 10752
  154.7268  135.5140  153.8972 H   0  0  0  0  0  0  0  0  0  0  0  0  # atno 10765 bound_to 10752
  140.5737  134.0078  155.8019 H   0  0  0  0  0  0  0  0  0  0  0  0  # atno 11005 bound_to 11000
  145.2715  141.0110  143.3769 LP  0  0  0  0  0  0  0  0  0  0  0  0  # atno 17320 bound_to 7965
  144.9220  139.4400  143.6536 LP  0  0  0  0  0  0  0  0  0  0  0  0  # atno 17321 bound_to 7965
  140.5679  143.2184  151.7651 LP  0  0  0  0  0  0  0  0  0  0  0  0  # atno 17342 bound_to 10162
  139.4923  144.4258  151.9928 LP  0  0  0  0  0  0  0  0  0  0  0  0  # atno 17343 bound_to 10162
  155.9809  130.4813  150.6800 LP  0  0  0  0  0  0  0  0  0  0  0  0  # atno 17370 bound_to 10713
  157.4399  131.0860  151.0954 LP  0  0  0  0  0  0  0  0  0  0  0  0  # atno 17371 bound_to 10713
  141.1040  133.9723  157.3030 LP  0  0  0  0  0  0  0  0  0  0  0  0  # atno 17394 bound_to 11000
  139.9349  135.0197  156.8524 LP  0  0  0  0  0  0  0  0  0  0  0  0  # atno 17395 bound_to 11000

$$$$
