AV-unprocessed.smi:999|AV-procd|sdf|4353|dock8
  -GOLD-   22720 2253D 1   1.00000     0.00000
 Structure written by MMmdl.
 37 38  0  0  0  0  0  0  0  0  2 V2000
  153.9440  141.7591  160.2760 C   0  0  0  0  0  0  0  0  0  0  0  0
  152.4734  141.9482  159.8501 C   0  0  2  0  0  0  0  0  0  0  0  0
  152.1002  141.1047  158.6212 C   0  0  0  0  0  0  0  0  0  0  0  0
  152.9230  140.3486  158.1029 O   0  0  0  0  0  0  0  0  0  0  0  0
  150.8453  141.2481  158.1671 N   0  0  0  0  0  0  0  0  0  0  0  0
  150.2719  140.5544  157.0189 C   0  0  2  0  0  0  0  0  0  0  0  0
  150.3954  139.0336  157.2319 C   0  0  0  0  0  0  0  0  0  0  0  0
  149.8917  138.2470  156.0072 C   0  0  0  0  0  0  0  0  0  0  0  0
  150.6118  138.6656  154.7022 C   0  0  2  0  0  0  0  0  0  0  0  0
  152.0837  138.1912  154.6566 C   0  0  0  0  0  0  0  0  0  0  0  0
  152.3014  136.9596  154.6276 O   0  0  0  0  0  0  0  0  0  0  0  0
  152.9793  139.0646  154.6812 O   0  5  0  0  0  0  0  0  0  0  0  0
  150.4689  140.1947  154.5027 C   0  0  0  0  0  0  0  0  0  0  0  0
  150.9737  140.9961  155.7175 C   0  0  0  0  0  0  0  0  0  0  0  0
  152.1329  143.3481  159.6229 N   0  0  0  0  0  0  0  0  0  0  0  0
  152.3256  144.4158  160.4764 C   0  0  0  0  0  0  0  0  0  0  0  0
  151.8174  145.5271  159.8674 C   0  0  0  0  0  0  0  0  0  0  0  0
  151.3123  145.0338  158.6328 C   0  0  0  0  0  0  0  0  0  0  0  0
  151.4922  143.7309  158.4938 N   0  0  0  0  0  0  0  0  0  0  0  0
  154.1595  140.7104  160.4834 H   0  0  0  0  0  0  0  0  0  0  0  0
  154.1602  142.3217  161.1844 H   0  0  0  0  0  0  0  0  0  0  0  0
  154.6420  142.0923  159.5071 H   0  0  0  0  0  0  0  0  0  0  0  0
  151.8561  141.6019  160.6810 H   0  0  0  0  0  0  0  0  0  0  0  0
  150.2361  141.8874  158.6564 H   0  0  0  0  0  0  0  0  0  0  0  0
  149.2103  140.7979  156.9453 H   0  0  0  0  0  0  0  0  0  0  0  0
  151.4342  138.7702  157.4363 H   0  0  0  0  0  0  0  0  0  0  0  0
  149.8275  138.7357  158.1139 H   0  0  0  0  0  0  0  0  0  0  0  0
  149.9908  137.1757  156.1857 H   0  0  0  0  0  0  0  0  0  0  0  0
  148.8217  138.4219  155.8907 H   0  0  0  0  0  0  0  0  0  0  0  0
  150.1165  138.1682  153.8677 H   0  0  0  0  0  0  0  0  0  0  0  0
  150.9825  140.5234  153.5984 H   0  0  0  0  0  0  0  0  0  0  0  0
  149.4169  140.4309  154.3385 H   0  0  0  0  0  0  0  0  0  0  0  0
  150.8054  142.0595  155.5442 H   0  0  0  0  0  0  0  0  0  0  0  0
  152.0528  140.8720  155.8179 H   0  0  0  0  0  0  0  0  0  0  0  0
  152.8040  144.2966  161.4376 H   0  0  0  0  0  0  0  0  0  0  0  0
  151.8027  146.5374  160.2482 H   0  0  0  0  0  0  0  0  0  0  0  0
  150.8187  145.5784  157.8415 H   0  0  0  0  0  0  0  0  0  0  0  0
  1  2  1  0  0  0  0
  1 20  1  0  0  0  0
  1 21  1  0  0  0  0
  1 22  1  0  0  0  0
  2  3  1  0  0  0  0
  2 15  1  0  0  0  0
  2 23  1  0  0  0  0
  3  4  2  0  0  0  0
  3  5  1  0  0  0  0
  5  6  1  0  0  0  0
  5 24  1  0  0  0  0
  6 14  1  0  0  0  0
  6  7  1  0  0  0  0
  6 25  1  0  0  0  0
  7  8  1  0  0  0  0
  7 26  1  0  0  0  0
  7 27  1  0  0  0  0
  8  9  1  0  0  0  0
  8 28  1  0  0  0  0
  8 29  1  0  0  0  0
  9 10  1  0  0  0  0
  9 13  1  0  0  0  0
  9 30  1  0  0  0  0
 10 11  2  0  0  0  0
 10 12  1  0  0  0  0
 13 14  1  0  0  0  0
 13 31  1  0  0  0  0
 13 32  1  0  0  0  0
 14 33  1  0  0  0  0
 14 34  1  0  0  0  0
 15 19  1  0  0  0  0
 15 16  1  0  0  0  0
 16 17  2  0  0  0  0
 16 35  1  0  0  0  0
 17 18  1  0  0  0  0
 17 36  1  0  0  0  0
 18 19  2  0  0  0  0
 18 37  1  0  0  0  0
M  CHG  1  12  -1
M  END
> <s_m_source_file>
AV-unprocessed.smi

> <i_m_source_file_index>
999

> <i_lp_mmshare_version>
43012

> <i_f3d_flags>
0

> <s_epik_input>
bjFbY0hdW2NIXVtjSF1uMVtDQEhdKFtDSDNdKUMoPU8pW05IXVtDQEBIXTJbQ0gyXVtDSDJdW0NAQEhdKEMoPU8pW09IXSlbQ0gyXVtDSDJdMg==

> <s_epik_cmdline>
J2VwaWtfcHl0aG9uJywgJy1waCcsICc3LjAnLCAnLXRuJywgJzgnLCAnLW1hJywgJzIwMCcsICctbWV0YWxfYmluZGluZycsICctaW1hZScsICc8aW5maWxlLm1hZT4nLCAnLW9tYWUnLCAnPG91dGZpbGUubWFlPic=

> <r_lp_tautomer_probability>
1

> <r_epik_Ionization_Penalty>
0.00221712

> <r_epik_Ionization_Penalty_Charging>
0.00217268

> <r_epik_Ionization_Penalty_Neutral>
4.44343e-05

> <r_epik_State_Penalty>
0.0014925

> <r_epik_Charging_Adjusted_Penalty>
0.00366518

> <i_epik_Tot_Q>
-1

> <i_epik_Tot_abs_Q>
1

> <r_epik_Metal_State_Penalty>
-0

> <b_epik_Metal_Only>
0

> <s_lp_Force_Field>
OPLS_2005

> <r_lp_Energy>
7.42219

> <b_lp_Chiralities_Consistent>
1

> <s_lp_Variant>
AV-unprocessed.smi:999-3

> <Gold.Version>
5.8.1

> <Gold.Id.Protein>
6NUR|6NUR_protein|mol2

> <Gold.PLP.Fitness>
52.2496

> <Gold.PLP.PLP>
-39.2521

> <Gold.PLP.part.hbond>
-3.0000

> <Gold.PLP.part.metal>
0.0000

> <Gold.PLP.part.buried>
-4.5492

> <Gold.PLP.part.nonpolar>
-31.9299

> <Gold.PLP.part.repulsive>
0.4546

> <Gold.PLP.ligand.clash>
0.0000

> <Gold.PLP.ligand.torsion>
0.3140

> <Gold.PLP.Chemscore.Hbond>
3.5010

> <Gold.PLP.Chemscore.CHOScore>
0.9971

> <Gold.PLP.Chemscore.Metal>
0.0000

> <Gold.Chemscore.Hbonds>
donor molecule, donor type, donor heavy atom, donor atom, acceptor molecule, acceptor atom, score
      P1  H  7997  8008       L1     4  0.90
      P1  H 10752 10763       L1    11  1.40

> <Gold.PLP.Chemscore.Internal.Correction>
0.1312

> <Gold.Rescore>
     Score         DG    S(hbond)    S(metal)    S(lipo)     H(rot)  DE(clash)    DE(int)     intcor
     14.33     -19.01       2.74        0.00      80.78       1.98       0.78       3.90       ----

> <Gold.Chemscore.Fitness>
14.3256

> <Gold.Chemscore.DG>
-19.0084

> <Gold.Chemscore.ZeroCoef>
-5.4800

> <Gold.Chemscore.Hbond>
2.7364

> <Gold.Chemscore.Metal>
0.0000

> <Gold.Chemscore.Lipo>
80.7774

> <Gold.Chemscore.Internal_Hbond>
0.0000

> <Gold.Chemscore.DEClash>
0.7815

> <Gold.Chemscore.DEInternal>
3.9012

> <Gold.Chemscore.Rot>
1.9774

> <Gold.Chemscore.Internal.Correction>
   9.000000E+99

> <Gold.Chemscore.Hbonds>
donor molecule, donor type, donor heavy atom, donor atom, acceptor molecule, acceptor atom, score
      P1  H  7997  8008       L1     4  0.85
      P1  H 10752 10763       L1    11  0.68

> <Gold.Chemscore.Hbond.Weighted>
-9.1395

> <Gold.Chemscore.Metal.Weighted>
-0.0000

> <Gold.Chemscore.Lipo.Weighted>
-9.4510

> <Gold.Chemscore.Internal_Hbond.Weighted>
0.0000

> <Gold.Chemscore.DEClash.Weighted>
0.7815

> <Gold.Chemscore.DEInternal.Weighted>
3.9012

> <Gold.Chemscore.Rot.Weighted>
5.0620

> <Gold.Chemscore.Internal.Correction.Weighted>
   9.000000E+99

> <Gold.Protein.RotatedTorsions>
[ 6907 6896 6895 6894 ] final  -18.94 input  -60.11 | X-H torsion
[ 7974 7965 7964 7962 ] final -115.76 input  175.53 | X-H torsion
[ 8008 7997 7996 7995 ] final  -78.98 input   59.86 | X-H torsion
[ 10167 10162 10161 10158 ] final -171.27 input  -65.29 | X-H torsion
[ 10718 10713 10712 10709 ] final  102.19 input   66.30 | X-H torsion
[ 10763 10752 10751 10750 ] final   40.87 input  -60.55 | X-H torsion
[ 11005 11000 10999 10996 ] final   97.60 input  -57.11 | X-H torsion

> <Gold.Protein.ActiveResidues>
 VAL166  LYS551  ARG553  GLY616  TRP617  ASP618  TYR619  PRO620  LYS621  CYS622 
 ASP623  PHE694  ASN695  SER759  ASP760  ASP761  ALA762  ILE779  LEU786  VAL792 
 PHE793  MET794  SER795  GLU796  ALA797  LYS798  CYS799  TRP800  GLU811  SER814 

> <Gold.Protein.RotatedAtoms>
  151.2706  135.0683  159.9132 H   0  0  0  0  0  0  0  0  0  0  0  0  # atno 6907 bound_to 6896
  152.5351  134.0134  159.7959 H   0  0  0  0  0  0  0  0  0  0  0  0  # atno 6908 bound_to 6896
  151.0372  133.5688  159.2685 H   0  0  0  0  0  0  0  0  0  0  0  0  # atno 6909 bound_to 6896
  145.1047  140.8574  143.3905 H   0  0  0  0  0  0  0  0  0  0  0  0  # atno 7974 bound_to 7965
  154.5741  140.0685  156.9008 H   0  0  0  0  0  0  0  0  0  0  0  0  # atno 8008 bound_to 7997
  155.2580  140.3356  155.4257 H   0  0  0  0  0  0  0  0  0  0  0  0  # atno 8009 bound_to 7997
  156.2141  140.1771  156.7614 H   0  0  0  0  0  0  0  0  0  0  0  0  # atno 8010 bound_to 7997
  139.5812  144.1419  152.1517 H   0  0  0  0  0  0  0  0  0  0  0  0  # atno 10167 bound_to 10162
  157.6809  131.0746  150.5366 H   0  0  0  0  0  0  0  0  0  0  0  0  # atno 10718 bound_to 10713
  152.9924  135.6178  154.2695 H   0  0  0  0  0  0  0  0  0  0  0  0  # atno 10763 bound_to 10752
  154.2429  135.2788  155.2848 H   0  0  0  0  0  0  0  0  0  0  0  0  # atno 10764 bound_to 10752
  154.5354  135.5776  153.6852 H   0  0  0  0  0  0  0  0  0  0  0  0  # atno 10765 bound_to 10752
  139.8775  134.9009  156.4331 H   0  0  0  0  0  0  0  0  0  0  0  0  # atno 11005 bound_to 11000
  145.0916  139.2886  143.5732 LP  0  0  0  0  0  0  0  0  0  0  0  0  # atno 17320 bound_to 7965
  146.3528  140.0454  142.8640 LP  0  0  0  0  0  0  0  0  0  0  0  0  # atno 17321 bound_to 7965
  140.0973  144.5570  150.7013 LP  0  0  0  0  0  0  0  0  0  0  0  0  # atno 17342 bound_to 10162
  140.7090  143.2490  151.4639 LP  0  0  0  0  0  0  0  0  0  0  0  0  # atno 17343 bound_to 10162
  156.5674  130.4271  149.6035 LP  0  0  0  0  0  0  0  0  0  0  0  0  # atno 17370 bound_to 10713
  156.2769  130.7049  151.1862 LP  0  0  0  0  0  0  0  0  0  0  0  0  # atno 17371 bound_to 10713
  140.9052  133.7751  155.9727 LP  0  0  0  0  0  0  0  0  0  0  0  0  # atno 17394 bound_to 11000
  140.8607  134.2844  157.5236 LP  0  0  0  0  0  0  0  0  0  0  0  0  # atno 17395 bound_to 11000

$$$$
