AV-unprocessed.smi:789|AV-procd|sdf|3739|dock8
  -GOLD-   22720 1173D 1   1.00000     0.00000
 Structure written by MMmdl.
 34 35  0  0  0  0  0  0  0  0  1 V2000
  150.9383  137.6166  154.2573 C   0  0  0  0  0  0  0  0  0  0  0  0
  150.4608  139.0083  154.5494 C   0  0  0  0  0  0  0  0  0  0  0  0
  151.0519  139.9759  155.4128 C   0  0  0  0  0  0  0  0  0  0  0  0
  150.2037  141.0427  155.2948 C   0  0  0  0  0  0  0  0  0  0  0  0
  150.2735  142.2584  155.8979 N   0  0  0  0  0  0  0  0  0  0  0  0
  150.9873  142.6319  156.9782 C   0  0  0  0  0  0  0  0  0  0  0  0
  151.7419  141.8965  157.6118 O   0  0  0  0  0  0  0  0  0  0  0  0
  150.8024  143.9153  157.3380 N   0  0  0  0  0  0  0  0  0  0  0  0
  151.4168  144.6393  158.4544 C   0  0  0  0  0  0  0  0  0  0  0  0
  152.8688  144.1722  158.6726 C   0  0  0  0  0  0  0  0  0  0  0  0
  153.0143  143.9246  160.1747 C   0  0  0  0  0  0  0  0  0  0  0  0
  151.6180  143.5075  160.6239 C   0  0  0  0  0  0  0  0  0  0  0  0
  150.6800  144.3753  159.7847 C   0  0  0  0  0  0  0  0  0  0  0  0
  149.1913  140.7125  154.4197 N   0  0  0  0  0  0  0  0  0  0  0  0
  148.0563  141.4925  153.9645 C   0  0  0  0  0  0  0  0  0  0  0  0
  149.3561  139.4531  153.9613 N   0  0  0  0  0  0  0  0  0  0  0  0
  151.8143  137.3669  154.8562 H   0  0  0  0  0  0  0  0  0  0  0  0
  151.2118  137.5079  153.2077 H   0  0  0  0  0  0  0  0  0  0  0  0
  150.1648  136.8810  154.4797 H   0  0  0  0  0  0  0  0  0  0  0  0
  151.9472  139.8816  156.0084 H   0  0  0  0  0  0  0  0  0  0  0  0
  149.6928  142.9747  155.4874 H   0  0  0  0  0  0  0  0  0  0  0  0
  150.1461  144.4452  156.7828 H   0  0  0  0  0  0  0  0  0  0  0  0
  151.4189  145.7106  158.2439 H   0  0  0  0  0  0  0  0  0  0  0  0
  153.0567  143.2375  158.1414 H   0  0  0  0  0  0  0  0  0  0  0  0
  153.5946  144.8997  158.3078 H   0  0  0  0  0  0  0  0  0  0  0  0
  153.7721  143.1754  160.4056 H   0  0  0  0  0  0  0  0  0  0  0  0
  153.2984  144.8514  160.6748 H   0  0  0  0  0  0  0  0  0  0  0  0
  151.4555  142.4551  160.3871 H   0  0  0  0  0  0  0  0  0  0  0  0
  151.4641  143.6365  161.6956 H   0  0  0  0  0  0  0  0  0  0  0  0
  150.5143  145.3245  160.2960 H   0  0  0  0  0  0  0  0  0  0  0  0
  149.7026  143.9081  159.6577 H   0  0  0  0  0  0  0  0  0  0  0  0
  148.0028  142.4429  154.4956 H   0  0  0  0  0  0  0  0  0  0  0  0
  147.1339  140.9394  154.1435 H   0  0  0  0  0  0  0  0  0  0  0  0
  148.1522  141.6897  152.8965 H   0  0  0  0  0  0  0  0  0  0  0  0
  1  2  1  0  0  0  0
  1 17  1  0  0  0  0
  1 18  1  0  0  0  0
  1 19  1  0  0  0  0
  2 16  2  0  0  0  0
  2  3  1  0  0  0  0
  3  4  2  0  0  0  0
  3 20  1  0  0  0  0
  4  5  1  0  0  0  0
  4 14  1  0  0  0  0
  5  6  1  0  0  0  0
  5 21  1  0  0  0  0
  6  7  2  0  0  0  0
  6  8  1  0  0  0  0
  8  9  1  0  0  0  0
  8 22  1  0  0  0  0
  9 13  1  0  0  0  0
  9 10  1  0  0  0  0
  9 23  1  0  0  0  0
 10 11  1  0  0  0  0
 10 24  1  0  0  0  0
 10 25  1  0  0  0  0
 11 12  1  0  0  0  0
 11 26  1  0  0  0  0
 11 27  1  0  0  0  0
 12 13  1  0  0  0  0
 12 28  1  0  0  0  0
 12 29  1  0  0  0  0
 13 30  1  0  0  0  0
 13 31  1  0  0  0  0
 14 15  1  0  0  0  0
 14 16  1  0  0  0  0
 15 32  1  0  0  0  0
 15 33  1  0  0  0  0
 15 34  1  0  0  0  0
M  END
> <s_m_source_file>
AV-unprocessed.smi

> <i_m_source_file_index>
789

> <i_lp_mmshare_version>
43012

> <i_f3d_flags>
0

> <s_epik_input>
W0NIM11jMVtjSF1jKG4objEpW0NIM10pW05IXUMoPU8pW05IXVtDSF0yW0NIMl1bQ0gyXVtDSDJdW0NIMl0y

> <s_epik_cmdline>
J2VwaWtfcHl0aG9uJywgJy1waCcsICc3LjAnLCAnLXRuJywgJzgnLCAnLW1hJywgJzIwMCcsICctbWV0YWxfYmluZGluZycsICctaW1hZScsICc8aW5maWxlLm1hZT4nLCAnLW9tYWUnLCAnPG91dGZpbGUubWFlPic=

> <r_lp_tautomer_probability>
1

> <r_epik_Ionization_Penalty>
0.000101808

> <r_epik_Ionization_Penalty_Charging>
0

> <r_epik_Ionization_Penalty_Neutral>
0.000101808

> <r_epik_State_Penalty>
-0

> <r_epik_Charging_Adjusted_Penalty>
0

> <i_epik_Tot_Q>
0

> <i_epik_Tot_abs_Q>
0

> <r_epik_Metal_State_Penalty>
-0

> <b_epik_Metal_Only>
0

> <s_lp_Force_Field>
OPLS_2005

> <r_lp_Energy>
29.7198

> <b_lp_Chiralities_Consistent>
1

> <s_lp_Variant>
AV-unprocessed.smi:789-1

> <Gold.Version>
5.8.1

> <Gold.Id.Protein>
6NUR|6NUR_protein|mol2

> <Gold.PLP.Fitness>
41.3065

> <Gold.PLP.PLP>
-36.2159

> <Gold.PLP.part.hbond>
-2.0000

> <Gold.PLP.part.metal>
0.0000

> <Gold.PLP.part.buried>
-4.6373

> <Gold.PLP.part.nonpolar>
-31.4172

> <Gold.PLP.part.repulsive>
1.1732

> <Gold.PLP.ligand.clash>
0.0000

> <Gold.PLP.ligand.torsion>
0.3958

> <Gold.PLP.Chemscore.Hbond>
1.9600

> <Gold.PLP.Chemscore.CHOScore>
0.0000

> <Gold.PLP.Chemscore.Metal>
0.0000

> <Gold.Chemscore.Hbonds>
donor molecule, donor type, donor heavy atom, donor atom, acceptor molecule, acceptor atom, score
      L1  H     5    21       P1  8028  0.96
      L1  H     8    22       P1  8028  1.00

> <Gold.PLP.Chemscore.Internal.Correction>
0.0022

> <Gold.Rescore>
     Score         DG    S(hbond)    S(metal)    S(lipo)     H(rot)  DE(clash)    DE(int)     intcor
     16.46     -19.29       1.88        0.00      86.28       1.00       0.04       2.79       ----

> <Gold.Chemscore.Fitness>
16.4627

> <Gold.Chemscore.DG>
-19.2888

> <Gold.Chemscore.ZeroCoef>
-5.4800

> <Gold.Chemscore.Hbond>
1.8784

> <Gold.Chemscore.Metal>
0.0000

> <Gold.Chemscore.Lipo>
86.2820

> <Gold.Chemscore.Internal_Hbond>
0.0000

> <Gold.Chemscore.DEClash>
0.0385

> <Gold.Chemscore.DEInternal>
2.7876

> <Gold.Chemscore.Rot>
1.0000

> <Gold.Chemscore.Internal.Correction>
   9.000000E+99

> <Gold.Chemscore.Hbonds>
donor molecule, donor type, donor heavy atom, donor atom, acceptor molecule, acceptor atom, score
      L1  H     5    21       P1  8028  0.92
      L1  H     8    22       P1  8028  0.88

> <Gold.Chemscore.Hbond.Weighted>
-6.2738

> <Gold.Chemscore.Metal.Weighted>
-0.0000

> <Gold.Chemscore.Lipo.Weighted>
-10.0950

> <Gold.Chemscore.Internal_Hbond.Weighted>
0.0000

> <Gold.Chemscore.DEClash.Weighted>
0.0385

> <Gold.Chemscore.DEInternal.Weighted>
2.7876

> <Gold.Chemscore.Rot.Weighted>
2.5600

> <Gold.Chemscore.Internal.Correction.Weighted>
   9.000000E+99

> <Gold.Protein.RotatedTorsions>
[ 6907 6896 6895 6894 ] final   78.31 input  -60.11 | X-H torsion
[ 7974 7965 7964 7962 ] final  111.61 input  175.53 | X-H torsion
[ 8008 7997 7996 7995 ] final -131.80 input   59.86 | X-H torsion
[ 10167 10162 10161 10158 ] final  165.01 input  -65.29 | X-H torsion
[ 10718 10713 10712 10709 ] final  -32.76 input   66.30 | X-H torsion
[ 10763 10752 10751 10750 ] final   90.27 input  -60.55 | X-H torsion
[ 11005 11000 10999 10996 ] final  -42.39 input  -57.11 | X-H torsion

> <Gold.Protein.ActiveResidues>
 VAL166  LYS551  ARG553  GLY616  TRP617  ASP618  TYR619  PRO620  LYS621  CYS622 
 ASP623  PHE694  ASN695  SER759  ASP760  ASP761  ALA762  ILE779  LEU786  VAL792 
 PHE793  MET794  SER795  GLU796  ALA797  LYS798  CYS799  TRP800  GLU811  SER814 

> <Gold.Protein.RotatedAtoms>
  152.5154  134.3683  159.9308 H   0  0  0  0  0  0  0  0  0  0  0  0  # atno 6907 bound_to 6896
  151.3637  133.3874  159.2700 H   0  0  0  0  0  0  0  0  0  0  0  0  # atno 6908 bound_to 6896
  150.9632  134.9036  159.7801 H   0  0  0  0  0  0  0  0  0  0  0  0  # atno 6909 bound_to 6896
  145.2400  139.2783  143.4123 H   0  0  0  0  0  0  0  0  0  0  0  0  # atno 7974 bound_to 7965
  155.3184  140.0461  157.3038 H   0  0  0  0  0  0  0  0  0  0  0  0  # atno 8008 bound_to 7997
  154.5394  140.2283  155.8633 H   0  0  0  0  0  0  0  0  0  0  0  0  # atno 8009 bound_to 7997
  156.1866  140.3061  155.9257 H   0  0  0  0  0  0  0  0  0  0  0  0  # atno 8010 bound_to 7997
  139.4898  144.4176  151.9224 H   0  0  0  0  0  0  0  0  0  0  0  0  # atno 10167 bound_to 10162
  156.3709  130.4339  149.7546 H   0  0  0  0  0  0  0  0  0  0  0  0  # atno 10718 bound_to 10713
  153.1957  135.4440  155.0205 H   0  0  0  0  0  0  0  0  0  0  0  0  # atno 10763 bound_to 10752
  154.8117  135.3297  154.7288 H   0  0  0  0  0  0  0  0  0  0  0  0  # atno 10764 bound_to 10752
  153.7738  135.6982  153.4956 H   0  0  0  0  0  0  0  0  0  0  0  0  # atno 10765 bound_to 10752
  141.0312  133.6819  156.2588 H   0  0  0  0  0  0  0  0  0  0  0  0  # atno 11005 bound_to 11000
  146.3331  140.2760  142.8608 LP  0  0  0  0  0  0  0  0  0  0  0  0  # atno 17320 bound_to 7965
  144.9598  140.8263  143.5521 LP  0  0  0  0  0  0  0  0  0  0  0  0  # atno 17321 bound_to 7965
  140.3620  144.2962  150.5932 LP  0  0  0  0  0  0  0  0  0  0  0  0  # atno 17342 bound_to 10162
  140.5395  143.2226  151.8108 LP  0  0  0  0  0  0  0  0  0  0  0  0  # atno 17343 bound_to 10162
  156.4673  130.7980  151.2999 LP  0  0  0  0  0  0  0  0  0  0  0  0  # atno 17370 bound_to 10713
  157.7484  131.0047  150.3085 LP  0  0  0  0  0  0  0  0  0  0  0  0  # atno 17371 bound_to 10713
  140.6402  134.5173  157.5569 LP  0  0  0  0  0  0  0  0  0  0  0  0  # atno 17394 bound_to 11000
  139.9209  134.8150  156.1214 LP  0  0  0  0  0  0  0  0  0  0  0  0  # atno 17395 bound_to 11000

$$$$
