AV-unprocessed.smi:964|AV-procd|sdf|4279|dock1
  -GOLD-   22720 2183D 1   1.00000     0.00000
 Structure written by MMmdl.
 20 20  0  0  0  0  0  0  0  0  2 V2000
  148.8303  132.5346  153.4452 C   0  0  0  0  0  0  0  0  0  0  0  0
  147.6134  132.9839  152.7095 C   0  0  0  0  0  0  0  0  0  0  0  0
  147.2053  132.3819  151.5832 N   0  0  0  0  0  0  0  0  0  0  0  0
  146.1018  133.0723  151.2593 C   0  0  0  0  0  0  0  0  0  0  0  0
  145.2922  132.7581  150.0440 C   0  0  0  0  0  0  0  0  0  0  0  0
  143.7846  132.7387  150.3316 C   0  0  0  0  0  0  0  0  0  0  0  0
  143.0050  132.5395  149.0984 N   0  3  0  0  0  0  0  0  0  0  0  0
  145.8278  134.0574  152.1195 N   0  0  0  0  0  0  0  0  0  0  0  0
  146.8254  133.9983  153.0779 N   0  0  0  0  0  0  0  0  0  0  0  0
  147.6250  131.5986  151.1037 H   0  0  0  0  0  0  0  0  0  0  0  0
  148.9404  133.0913  154.3763 H   0  0  0  0  0  0  0  0  0  0  0  0
  149.7187  132.6973  152.8345 H   0  0  0  0  0  0  0  0  0  0  0  0
  148.7550  131.4732  153.6823 H   0  0  0  0  0  0  0  0  0  0  0  0
  145.6127  131.7886  149.6598 H   0  0  0  0  0  0  0  0  0  0  0  0
  145.5185  133.4910  149.2679 H   0  0  0  0  0  0  0  0  0  0  0  0
  143.5420  131.9362  151.0293 H   0  0  0  0  0  0  0  0  0  0  0  0
  143.4748  133.6748  150.7970 H   0  0  0  0  0  0  0  0  0  0  0  0
  143.6347  132.4412  148.3145 H   0  0  0  0  0  0  0  0  0  0  0  0
  142.4045  133.3375  148.9469 H   0  0  0  0  0  0  0  0  0  0  0  0
  142.4414  131.7057  149.1833 H   0  0  0  0  0  0  0  0  0  0  0  0
  1 11  1  0  0  0  0
  1 12  1  0  0  0  0
  1 13  1  0  0  0  0
  1  2  1  0  0  0  0
  2  3  1  0  0  0  0
  2  9  2  0  0  0  0
  3 10  1  0  0  0  0
  3  4  1  0  0  0  0
  4  8  2  0  0  0  0
  4  5  1  0  0  0  0
  5  6  1  0  0  0  0
  5 14  1  0  0  0  0
  5 15  1  0  0  0  0
  6  7  1  0  0  0  0
  6 16  1  0  0  0  0
  6 17  1  0  0  0  0
  7 18  1  0  0  0  0
  7 19  1  0  0  0  0
  7 20  1  0  0  0  0
  8  9  1  0  0  0  0
M  CHG  1   7   1
M  END
> <s_m_source_file>
AV-unprocessed.smi

> <i_m_source_file_index>
964

> <i_lp_mmshare_version>
43012

> <i_f3d_flags>
0

> <s_epik_input>
W0NIM11jMW5jKG5bbkhdMSlbQ0gyXVtDSDJdW05IMl0=

> <s_epik_cmdline>
J2VwaWtfcHl0aG9uJywgJy1waCcsICc3LjAnLCAnLXRuJywgJzgnLCAnLW1hJywgJzIwMCcsICctbWV0YWxfYmluZGluZycsICctaW1hZScsICc8aW5maWxlLm1hZT4nLCAnLW9tYWUnLCAnPG91dGZpbGUubWFlPic=

> <r_lp_tautomer_probability>
0.0517155

> <r_epik_Ionization_Penalty>
0.0139864

> <r_epik_Ionization_Penalty_Charging>
0.00465044

> <r_epik_Ionization_Penalty_Neutral>
0.00933595

> <r_epik_State_Penalty>
2.23303

> <r_epik_Charging_Adjusted_Penalty>
2.23768

> <i_epik_Tot_Q>
1

> <i_epik_Tot_abs_Q>
1

> <r_epik_Metal_State_Penalty>
2.43351

> <b_epik_Metal_Only>
0

> <s_lp_Force_Field>
OPLS_2005

> <r_lp_Energy>
2.69796

> <b_lp_Chiralities_Consistent>
1

> <s_lp_Variant>
AV-unprocessed.smi:964-3

> <Gold.Version>
5.8.1

> <Gold.Id.Protein>
6NUR|6NUR_protein|mol2

> <Gold.PLP.Fitness>
31.2646

> <Gold.PLP.PLP>
-19.6585

> <Gold.PLP.part.hbond>
-3.0000

> <Gold.PLP.part.metal>
0.0000

> <Gold.PLP.part.buried>
-4.4044

> <Gold.PLP.part.nonpolar>
-12.6054

> <Gold.PLP.part.repulsive>
0.4171

> <Gold.PLP.ligand.clash>
0.0000

> <Gold.PLP.ligand.torsion>
0.1841

> <Gold.PLP.Chemscore.Hbond>
3.9913

> <Gold.PLP.Chemscore.CHOScore>
0.0000

> <Gold.PLP.Chemscore.Metal>
0.0000

> <Gold.Chemscore.Hbonds>
donor molecule, donor type, donor heavy atom, donor atom, acceptor molecule, acceptor atom, score
      L1  H     3    10       P1 10747  1.00
      L1  H     7    19       P1 10186  1.98
      L1  H     7    20       P1 10952  0.71

> <Gold.PLP.Chemscore.Internal.Correction>
0.0005

> <Gold.Rescore>
     Score         DG    S(hbond)    S(metal)    S(lipo)     H(rot)  DE(clash)    DE(int)     intcor
     14.35     -14.65       2.98        0.00      26.29       1.51       0.00       0.30       ----

> <Gold.Chemscore.Fitness>
14.3509

> <Gold.Chemscore.DG>
-14.6488

> <Gold.Chemscore.ZeroCoef>
-5.4800

> <Gold.Chemscore.Hbond>
2.9804

> <Gold.Chemscore.Metal>
0.0000

> <Gold.Chemscore.Lipo>
26.2855

> <Gold.Chemscore.Internal_Hbond>
0.0000

> <Gold.Chemscore.DEClash>
0.0000

> <Gold.Chemscore.DEInternal>
0.2980

> <Gold.Chemscore.Rot>
1.5082

> <Gold.Chemscore.Internal.Correction>
   9.000000E+99

> <Gold.Chemscore.Hbonds>
donor molecule, donor type, donor heavy atom, donor atom, acceptor molecule, acceptor atom, score
      L1  H     3    10       P1 10747  0.95
      L1  H     7    19       P1 10186  0.93
      L1  H     7    20       P1 10952  0.71

> <Gold.Chemscore.Hbond.Weighted>
-9.9545

> <Gold.Chemscore.Metal.Weighted>
-0.0000

> <Gold.Chemscore.Lipo.Weighted>
-3.0754

> <Gold.Chemscore.Internal_Hbond.Weighted>
0.0000

> <Gold.Chemscore.DEClash.Weighted>
0.0000

> <Gold.Chemscore.DEInternal.Weighted>
0.2980

> <Gold.Chemscore.Rot.Weighted>
3.8611

> <Gold.Chemscore.Internal.Correction.Weighted>
   9.000000E+99

> <Gold.Protein.RotatedTorsions>
[ 6907 6896 6895 6894 ] final  136.06 input  -60.11 | X-H torsion
[ 7974 7965 7964 7962 ] final -152.66 input  175.53 | X-H torsion
[ 8008 7997 7996 7995 ] final   43.06 input   59.86 | X-H torsion
[ 10167 10162 10161 10158 ] final -152.61 input  -65.29 | X-H torsion
[ 10718 10713 10712 10709 ] final -159.57 input   66.30 | X-H torsion
[ 10763 10752 10751 10750 ] final  155.92 input  -60.55 | X-H torsion
[ 11005 11000 10999 10996 ] final   62.95 input  -57.11 | X-H torsion

> <Gold.Protein.ActiveResidues>
 VAL166  LYS551  ARG553  GLY616  TRP617  ASP618  TYR619  PRO620  LYS621  CYS622 
 ASP623  PHE694  ASN695  SER759  ASP760  ASP761  ALA762  ILE779  LEU786  VAL792 
 PHE793  MET794  SER795  GLU796  ALA797  LYS798  CYS799  TRP800  GLU811  SER814 

> <Gold.Protein.RotatedAtoms>
  152.2935  133.5585  159.5572 H   0  0  0  0  0  0  0  0  0  0  0  0  # atno 6907 bound_to 6896
  150.7246  134.0394  159.3769 H   0  0  0  0  0  0  0  0  0  0  0  0  # atno 6908 bound_to 6896
  151.8298  135.0625  160.0486 H   0  0  0  0  0  0  0  0  0  0  0  0  # atno 6909 bound_to 6896
  144.7782  140.4632  143.5858 H   0  0  0  0  0  0  0  0  0  0  0  0  # atno 7974 bound_to 7965
  155.2965  140.3382  155.4250 H   0  0  0  0  0  0  0  0  0  0  0  0  # atno 8008 bound_to 7997
  156.2022  140.1737  156.7916 H   0  0  0  0  0  0  0  0  0  0  0  0  # atno 8009 bound_to 7997
  154.5573  140.0694  156.8748 H   0  0  0  0  0  0  0  0  0  0  0  0  # atno 8010 bound_to 7997
  139.7167  143.9022  152.2488 H   0  0  0  0  0  0  0  0  0  0  0  0  # atno 10167 bound_to 10162
  156.5700  130.8684  151.2835 H   0  0  0  0  0  0  0  0  0  0  0  0  # atno 10718 bound_to 10713
  154.1761  135.2802  155.3066 H   0  0  0  0  0  0  0  0  0  0  0  0  # atno 10763 bound_to 10752
  154.6038  135.5521  153.7405 H   0  0  0  0  0  0  0  0  0  0  0  0  # atno 10764 bound_to 10752
  153.0151  135.6398  154.1901 H   0  0  0  0  0  0  0  0  0  0  0  0  # atno 10765 bound_to 10752
  140.0057  134.6373  155.9858 H   0  0  0  0  0  0  0  0  0  0  0  0  # atno 11005 bound_to 11000
  145.6125  139.1515  143.3068 LP  0  0  0  0  0  0  0  0  0  0  0  0  # atno 17320 bound_to 7965
  146.1975  140.6240  142.9117 LP  0  0  0  0  0  0  0  0  0  0  0  0  # atno 17321 bound_to 7965
  139.8906  144.6967  150.8774 LP  0  0  0  0  0  0  0  0  0  0  0  0  # atno 17342 bound_to 10162
  140.7745  143.3589  151.1866 LP  0  0  0  0  0  0  0  0  0  0  0  0  # atno 17343 bound_to 10162
  157.7350  130.9755  150.2059 LP  0  0  0  0  0  0  0  0  0  0  0  0  # atno 17370 bound_to 10713
  156.2723  130.3723  149.8019 LP  0  0  0  0  0  0  0  0  0  0  0  0  # atno 17371 bound_to 10713
  141.1675  133.6537  156.4533 LP  0  0  0  0  0  0  0  0  0  0  0  0  # atno 17394 bound_to 11000
  140.4645  134.6811  157.5101 LP  0  0  0  0  0  0  0  0  0  0  0  0  # atno 17395 bound_to 11000

$$$$
