AV-unprocessed.smi:158|AV-procd|sdf|1328|dock1
  -GOLD-   2262019 23D 1   1.00000     0.00000
 Structure written by MMmdl.
 31 33  0  0  0  0  0  0  0  0  1 V2000
  145.3663  135.2496  150.3692 N   0  0  0  0  0  0  0  0  0  0  0  0
  145.5335  135.8541  151.5537 C   0  0  0  0  0  0  0  0  0  0  0  0
  145.1863  135.1809  152.6756 N   0  0  0  0  0  0  0  0  0  0  0  0
  145.3388  135.7474  153.8794 C   0  0  0  0  0  0  0  0  0  0  0  0
  144.8643  134.7976  155.2381 Cl  0  0  0  0  0  0  0  0  0  0  0  0
  145.8173  136.9676  154.1474 N   0  0  0  0  0  0  0  0  0  0  0  0
  146.1665  137.6475  153.0176 C   0  0  0  0  0  0  0  0  0  0  0  0
  146.0571  137.1631  151.6876 C   0  0  0  0  0  0  0  0  0  0  0  0
  146.5088  138.1264  150.7957 N   0  0  0  0  0  0  0  0  0  0  0  0
  146.8657  139.1227  151.5626 C   0  0  0  0  0  0  0  0  0  0  0  0
  146.6835  138.9199  152.9156 N   0  0  0  0  0  0  0  0  0  0  0  0
  146.9830  139.8303  154.0652 C   0  0  1  0  0  0  0  0  0  0  0  0
  148.0359  139.2826  154.8019 O   0  0  0  0  0  0  0  0  0  0  0  0
  149.2569  139.9193  154.4357 C   0  0  2  0  0  0  0  0  0  0  0  0
  150.3461  139.6937  155.4982 C   0  0  0  0  0  0  0  0  0  0  0  0
  151.5883  140.1651  155.0214 O   0  0  0  0  0  0  0  0  0  0  0  0
  148.8110  141.3733  154.2377 C   0  0  2  0  0  0  0  0  0  0  0  0
  148.6740  142.0311  155.4860 O   0  0  0  0  0  0  0  0  0  0  0  0
  147.4687  141.1919  153.5427 C   0  0  2  0  0  0  0  0  0  0  0  0
  146.5933  142.1593  153.8225 F   0  0  0  0  0  0  0  0  0  0  0  0
  146.0622  139.8645  154.6487 H   0  0  0  0  0  0  0  0  0  0  0  0
  149.5895  139.5302  153.4713 H   0  0  0  0  0  0  0  0  0  0  0  0
  149.5135  141.9367  153.6230 H   0  0  0  0  0  0  0  0  0  0  0  0
  147.5970  141.1592  152.4594 H   0  0  0  0  0  0  0  0  0  0  0  0
  145.6192  135.7328  149.5191 H   0  0  0  0  0  0  0  0  0  0  0  0
  144.9906  134.3132  150.3285 H   0  0  0  0  0  0  0  0  0  0  0  0
  147.2729  140.0360  151.1532 H   0  0  0  0  0  0  0  0  0  0  0  0
  150.1102  140.2539  156.4035 H   0  0  0  0  0  0  0  0  0  0  0  0
  150.4227  138.6416  155.7747 H   0  0  0  0  0  0  0  0  0  0  0  0
  152.2787  139.7140  155.4829 H   0  0  0  0  0  0  0  0  0  0  0  0
  148.6811  142.9644  155.3382 H   0  0  0  0  0  0  0  0  0  0  0  0
  1  2  1  0  0  0  0
  1 25  1  0  0  0  0
  1 26  1  0  0  0  0
  2  8  1  0  0  0  0
  2  3  2  0  0  0  0
  3  4  1  0  0  0  0
  4  5  1  0  0  0  0
  4  6  2  0  0  0  0
  6  7  1  0  0  0  0
  7 11  1  0  0  0  0
  7  8  2  0  0  0  0
  8  9  1  0  0  0  0
  9 10  2  0  0  0  0
 10 11  1  0  0  0  0
 10 27  1  0  0  0  0
 11 12  1  0  0  0  0
 12 21  1  0  0  0  0
 12 19  1  0  0  0  0
 12 13  1  0  0  0  0
 13 14  1  0  0  0  0
 14 22  1  0  0  0  0
 14 15  1  0  0  0  0
 14 17  1  0  0  0  0
 15 16  1  0  0  0  0
 15 28  1  0  0  0  0
 15 29  1  0  0  0  0
 16 30  1  0  0  0  0
 17 23  1  0  0  0  0
 17 18  1  0  0  0  0
 17 19  1  0  0  0  0
 18 31  1  0  0  0  0
 19 24  1  0  0  0  0
 19 20  1  0  0  0  0
M  END
> <s_m_source_file>
AV-unprocessed.smi

> <i_m_source_file_index>
158

> <i_lp_mmshare_version>
43012

> <i_f3d_flags>
0

> <s_epik_input>
Q2xjKG4xKW5jKFtOSDJdKWMoYzEyKW5bY0hdbjJbQ0BASF0zT1tDQEhdKFtDSDJdW09IXSlbQ0BASF0oW09IXSlbQ0BASF0zRg==

> <s_epik_cmdline>
J2VwaWtfcHl0aG9uJywgJy1waCcsICc3LjAnLCAnLXRuJywgJzgnLCAnLW1hJywgJzIwMCcsICctbWV0YWxfYmluZGluZycsICctaW1hZScsICc8aW5maWxlLm1hZT4nLCAnLW9tYWUnLCAnPG91dGZpbGUubWFlPic=

> <r_lp_tautomer_probability>
1

> <r_epik_Ionization_Penalty>
6.51543e-05

> <r_epik_Ionization_Penalty_Charging>
0

> <r_epik_Ionization_Penalty_Neutral>
6.51543e-05

> <r_epik_State_Penalty>
-0

> <r_epik_Charging_Adjusted_Penalty>
0

> <i_epik_Tot_Q>
0

> <i_epik_Tot_abs_Q>
0

> <r_epik_Metal_State_Penalty>
-0

> <b_epik_Metal_Only>
0

> <s_epik_Chemistry_Notes>
This compound contains an acetal/aminal-like group ( X-CH(R)-Y where X, Y are N, S, or O) that may be acid/base labile, releasing an aldehyde.

> <s_lp_Force_Field>
OPLS_2005

> <r_lp_Energy>
37.0626

> <b_lp_Chiralities_Consistent>
1

> <s_lp_Variant>
AV-unprocessed.smi:158-6

> <Gold.Version>
5.8.1

> <Gold.Id.Protein>
6NUR|6NUR_protein|mol2

> <Gold.PLP.Fitness>
42.4503

> <Gold.PLP.PLP>
-30.7085

> <Gold.PLP.part.hbond>
-4.0000

> <Gold.PLP.part.metal>
0.0000

> <Gold.PLP.part.buried>
-1.3325

> <Gold.PLP.part.nonpolar>
-28.0812

> <Gold.PLP.part.repulsive>
2.6058

> <Gold.PLP.ligand.clash>
0.0000

> <Gold.PLP.ligand.torsion>
0.1316

> <Gold.PLP.Chemscore.Hbond>
3.3508

> <Gold.PLP.Chemscore.CHOScore>
0.6445

> <Gold.PLP.Chemscore.Metal>
0.0000

> <Gold.Chemscore.Hbonds>
donor molecule, donor type, donor heavy atom, donor atom, acceptor molecule, acceptor atom, score
      L1  H     1    25       P1  7921  0.39
      L1  H    18    31       P1  8028  1.00
      P1  H  7954  7966       L1     9  0.90
      P1  H  7989  7998       L1    16  1.00
      L1  C    10    27       P1  7957  0.66

> <Gold.PLP.Chemscore.Internal.Correction>
0.0191

> <Gold.Rescore>
     Score         DG    S(hbond)    S(metal)    S(lipo)     H(rot)  DE(clash)    DE(int)     intcor
      7.78      -9.96       2.45        0.00      36.63       3.12       2.09       0.09       ----

> <Gold.Chemscore.Fitness>
7.7849

> <Gold.Chemscore.DG>
-9.9589

> <Gold.Chemscore.ZeroCoef>
-5.4800

> <Gold.Chemscore.Hbond>
2.4516

> <Gold.Chemscore.Metal>
0.0000

> <Gold.Chemscore.Lipo>
36.6292

> <Gold.Chemscore.Internal_Hbond>
0.0000

> <Gold.Chemscore.DEClash>
2.0888

> <Gold.Chemscore.DEInternal>
0.0852

> <Gold.Chemscore.Rot>
3.1230

> <Gold.Chemscore.Internal.Correction>
   9.000000E+99

> <Gold.Chemscore.Hbonds>
donor molecule, donor type, donor heavy atom, donor atom, acceptor molecule, acceptor atom, score
      L1  H     1    25       P1  7921  0.38
      L1  H    18    31       P1  8028  1.00
      P1  H  7954  7966       L1     9  0.17
      P1  H  7989  7998       L1    16  0.91

> <Gold.Chemscore.Hbond.Weighted>
-8.1883

> <Gold.Chemscore.Metal.Weighted>
-0.0000

> <Gold.Chemscore.Lipo.Weighted>
-4.2856

> <Gold.Chemscore.Internal_Hbond.Weighted>
0.0000

> <Gold.Chemscore.DEClash.Weighted>
2.0888

> <Gold.Chemscore.DEInternal.Weighted>
0.0852

> <Gold.Chemscore.Rot.Weighted>
7.9950

> <Gold.Chemscore.Internal.Correction.Weighted>
   9.000000E+99

> <Gold.Protein.RotatedTorsions>
[ 6907 6896 6895 6894 ] final -160.26 input  -60.11 | X-H torsion
[ 7974 7965 7964 7962 ] final -178.96 input  175.53 | X-H torsion
[ 8008 7997 7996 7995 ] final  124.86 input   59.86 | X-H torsion
[ 10167 10162 10161 10158 ] final   31.69 input  -65.29 | X-H torsion
[ 10718 10713 10712 10709 ] final   69.60 input   66.30 | X-H torsion
[ 10763 10752 10751 10750 ] final  -55.94 input  -60.55 | X-H torsion
[ 11005 11000 10999 10996 ] final  -25.01 input  -57.11 | X-H torsion

> <Gold.Protein.ActiveResidues>
 VAL166  LYS551  ARG553  GLY616  TRP617  ASP618  TYR619  PRO620  LYS621  CYS622 
 ASP623  PHE694  ASN695  SER759  ASP760  ASP761  ALA762  ILE779  LEU786  VAL792 
 PHE793  MET794  SER795  GLU796  ALA797  LYS798  CYS799  TRP800  GLU811  SER814 

> <Gold.Protein.RotatedAtoms>
  151.3463  133.3942  159.2675 H   0  0  0  0  0  0  0  0  0  0  0  0  # atno 6907 bound_to 6896
  150.9837  134.9188  159.7869 H   0  0  0  0  0  0  0  0  0  0  0  0  # atno 6908 bound_to 6896
  152.5225  134.3427  159.9275 H   0  0  0  0  0  0  0  0  0  0  0  0  # atno 6909 bound_to 6896
  144.7133  140.0790  143.6426 H   0  0  0  0  0  0  0  0  0  0  0  0  # atno 7974 bound_to 7965
  156.2815  140.2730  156.1856 H   0  0  0  0  0  0  0  0  0  0  0  0  # atno 8008 bound_to 7997
  155.0512  140.0386  157.2562 H   0  0  0  0  0  0  0  0  0  0  0  0  # atno 8009 bound_to 7997
  154.7194  140.2684  155.6561 H   0  0  0  0  0  0  0  0  0  0  0  0  # atno 8010 bound_to 7997
  140.4566  144.0969  150.6203 H   0  0  0  0  0  0  0  0  0  0  0  0  # atno 10167 bound_to 10162
  157.6355  130.9434  150.0536 H   0  0  0  0  0  0  0  0  0  0  0  0  # atno 10718 bound_to 10713
  154.1988  135.6414  153.5081 H   0  0  0  0  0  0  0  0  0  0  0  0  # atno 10763 bound_to 10752
  153.0017  135.5446  154.6337 H   0  0  0  0  0  0  0  0  0  0  0  0  # atno 10764 bound_to 10752
  154.5745  135.2919  155.0768 H   0  0  0  0  0  0  0  0  0  0  0  0  # atno 10765 bound_to 10752
  140.8899  133.7596  156.0407 H   0  0  0  0  0  0  0  0  0  0  0  0  # atno 11005 bound_to 11000
  145.9718  139.2875  143.1094 LP  0  0  0  0  0  0  0  0  0  0  0  0  # atno 17320 bound_to 7965
  145.9108  140.9181  143.0455 LP  0  0  0  0  0  0  0  0  0  0  0  0  # atno 17321 bound_to 7965
  140.4144  143.2641  151.9793 LP  0  0  0  0  0  0  0  0  0  0  0  0  # atno 17342 bound_to 10162
  139.4802  144.5887  151.7809 LP  0  0  0  0  0  0  0  0  0  0  0  0  # atno 17343 bound_to 10162
  156.1590  130.3643  149.9327 LP  0  0  0  0  0  0  0  0  0  0  0  0  # atno 17370 bound_to 10713
  156.7329  130.9050  151.3627 LP  0  0  0  0  0  0  0  0  0  0  0  0  # atno 17371 bound_to 10713
  140.8360  134.3123  157.5331 LP  0  0  0  0  0  0  0  0  0  0  0  0  # atno 17394 bound_to 11000
  139.8728  134.9390  156.3729 LP  0  0  0  0  0  0  0  0  0  0  0  0  # atno 17395 bound_to 11000

$$$$
