AV-unprocessed.smi:224|AV-procd|sdf|1707|dock8
  -GOLD-   2262020173D 1   1.00000     0.00000
 Structure written by MMmdl.
 56 59  0  0  0  0  0  0  0  0  2 V2000
  145.2594  134.0728  152.6218 C   0  0  0  0  0  0  0  0  0  0  0  0
  145.9675  133.9911  153.9823 C   0  0  2  0  0  0  0  0  0  0  0  0
  145.0237  133.5749  154.9469 O   0  0  0  0  0  0  0  0  0  0  0  0
  146.5633  135.3411  154.4341 C   0  0  0  0  0  0  0  0  0  0  0  0
  147.6268  135.1874  155.4684 N   0  3  2  0  0  0  0  0  0  0  0  0
  147.6422  136.3470  156.4059 C   0  0  0  0  0  0  0  0  0  0  0  0
  148.6834  136.1748  157.5206 C   0  0  0  0  0  0  0  0  0  0  0  0
  150.0010  135.9422  156.9473 N   0  0  0  0  0  0  0  0  0  0  0  0
  150.7455  137.0449  156.6653 C   0  0  0  0  0  0  0  0  0  0  0  0
  152.0306  136.9028  156.2439 N   0  0  0  0  0  0  0  0  0  0  0  0
  152.7719  137.9755  155.9534 C   0  0  0  0  0  0  0  0  0  0  0  0
  152.4339  139.2639  156.0175 N   0  0  0  0  0  0  0  0  0  0  0  0
  151.1513  139.4180  156.4531 C   0  0  0  0  0  0  0  0  0  0  0  0
  150.2456  138.3731  156.7940 C   0  0  0  0  0  0  0  0  0  0  0  0
  149.0338  138.9172  157.2043 N   0  0  0  0  0  0  0  0  0  0  0  0
  149.2102  140.2064  157.1029 C   0  0  0  0  0  0  0  0  0  0  0  0
  150.4556  140.5956  156.6650 N   0  0  0  0  0  0  0  0  0  0  0  0
  150.9220  141.9600  156.4691 C   0  0  0  0  0  0  0  0  0  0  0  0
  150.8989  142.8070  157.7626 C   0  0  1  0  0  0  0  0  0  0  0  0
  149.5562  143.1433  158.0678 O   0  0  0  0  0  0  0  0  0  0  0  0
  151.5124  142.1130  158.9752 C   0  0  0  0  0  0  0  0  0  0  0  0
  152.0901  143.2735  159.7726 C   0  0  0  0  0  0  0  0  0  0  0  0
  152.6176  144.1111  158.7581 O   0  0  0  0  0  0  0  0  0  0  0  0
  151.7148  144.1112  157.6566 C   0  0  0  0  0  0  0  0  0  0  0  0
  150.0435  134.7966  156.0436 C   0  0  0  0  0  0  0  0  0  0  0  0
  148.9866  134.8851  154.9148 C   0  0  1  0  0  0  0  0  0  0  0  0
  149.0329  133.5666  154.1155 C   0  0  0  0  0  0  0  0  0  0  0  0
  145.9558  134.3487  151.8296 H   0  0  0  0  0  0  0  0  0  0  0  0
  144.4577  134.8120  152.6319 H   0  0  0  0  0  0  0  0  0  0  0  0
  144.8222  133.1115  152.3490 H   0  0  0  0  0  0  0  0  0  0  0  0
  146.7353  133.2195  153.9449 H   0  0  0  0  0  0  0  0  0  0  0  0
  144.3041  133.1481  154.5069 H   0  0  0  0  0  0  0  0  0  0  0  0
  146.9412  135.8358  153.5430 H   0  0  0  0  0  0  0  0  0  0  0  0
  145.7800  135.9951  154.8214 H   0  0  0  0  0  0  0  0  0  0  0  0
  147.8534  137.2604  155.8472 H   0  0  0  0  0  0  0  0  0  0  0  0
  146.6657  136.4819  156.8679 H   0  0  0  0  0  0  0  0  0  0  0  0
  148.6686  137.0468  158.1727 H   0  0  0  0  0  0  0  0  0  0  0  0
  148.4217  135.3207  158.1460 H   0  0  0  0  0  0  0  0  0  0  0  0
  153.7801  137.7728  155.6235 H   0  0  0  0  0  0  0  0  0  0  0  0
  148.4340  140.9152  157.3539 H   0  0  0  0  0  0  0  0  0  0  0  0
  151.9349  141.9202  156.0663 H   0  0  0  0  0  0  0  0  0  0  0  0
  150.3060  142.4269  155.6993 H   0  0  0  0  0  0  0  0  0  0  0  0
  149.1394  143.4548  157.2788 H   0  0  0  0  0  0  0  0  0  0  0  0
  150.8055  141.5068  159.5428 H   0  0  0  0  0  0  0  0  0  0  0  0
  152.3320  141.4644  158.6643 H   0  0  0  0  0  0  0  0  0  0  0  0
  151.3089  143.8027  160.3204 H   0  0  0  0  0  0  0  0  0  0  0  0
  152.8596  142.9611  160.4788 H   0  0  0  0  0  0  0  0  0  0  0  0
  152.2860  144.1703  156.7295 H   0  0  0  0  0  0  0  0  0  0  0  0
  151.0809  144.9982  157.7045 H   0  0  0  0  0  0  0  0  0  0  0  0
  151.0447  134.6751  155.6272 H   0  0  0  0  0  0  0  0  0  0  0  0
  149.8623  133.9028  156.6418 H   0  0  0  0  0  0  0  0  0  0  0  0
  149.2597  135.7012  154.2444 H   0  0  0  0  0  0  0  0  0  0  0  0
  150.0622  133.2966  153.8770 H   0  0  0  0  0  0  0  0  0  0  0  0
  148.5134  133.6295  153.1607 H   0  0  0  0  0  0  0  0  0  0  0  0
  148.6029  132.7415  154.6844 H   0  0  0  0  0  0  0  0  0  0  0  0
  147.3736  134.3784  156.0174 H   0  0  0  0  0  0  0  0  0  0  0  0
  1  2  1  0  0  0  0
  1 28  1  0  0  0  0
  1 29  1  0  0  0  0
  1 30  1  0  0  0  0
  2  3  1  0  0  0  0
  2  4  1  0  0  0  0
  2 31  1  0  0  0  0
  3 32  1  0  0  0  0
  4  5  1  0  0  0  0
  4 33  1  0  0  0  0
  4 34  1  0  0  0  0
  5 26  1  0  0  0  0
  5  6  1  0  0  0  0
  5 56  1  0  0  0  0
  6  7  1  0  0  0  0
  6 35  1  0  0  0  0
  6 36  1  0  0  0  0
  7  8  1  0  0  0  0
  7 37  1  0  0  0  0
  7 38  1  0  0  0  0
  8  9  1  0  0  0  0
  8 25  1  0  0  0  0
  9 14  1  0  0  0  0
  9 10  2  0  0  0  0
 10 11  1  0  0  0  0
 11 12  2  0  0  0  0
 11 39  1  0  0  0  0
 12 13  1  0  0  0  0
 13 17  1  0  0  0  0
 13 14  2  0  0  0  0
 14 15  1  0  0  0  0
 15 16  2  0  0  0  0
 16 17  1  0  0  0  0
 16 40  1  0  0  0  0
 17 18  1  0  0  0  0
 18 19  1  0  0  0  0
 18 41  1  0  0  0  0
 18 42  1  0  0  0  0
 19 24  1  0  0  0  0
 19 20  1  0  0  0  0
 19 21  1  0  0  0  0
 20 43  1  0  0  0  0
 21 22  1  0  0  0  0
 21 44  1  0  0  0  0
 21 45  1  0  0  0  0
 22 23  1  0  0  0  0
 22 46  1  0  0  0  0
 22 47  1  0  0  0  0
 23 24  1  0  0  0  0
 24 48  1  0  0  0  0
 24 49  1  0  0  0  0
 25 26  1  0  0  0  0
 25 50  1  0  0  0  0
 25 51  1  0  0  0  0
 26 27  1  0  0  0  0
 26 52  1  0  0  0  0
 27 53  1  0  0  0  0
 27 54  1  0  0  0  0
 27 55  1  0  0  0  0
M  CHG  1   5   1
M  END
> <s_m_source_file>
AV-unprocessed.smi

> <i_m_source_file_index>
224

> <i_lp_mmshare_version>
43012

> <i_f3d_flags>
0

> <s_epik_input>
W0NIM11bQ0BIXShbT0hdKVtDSDJdTjFbQ0gyXVtDSDJdTihbQ0gyXVtDQEhdMVtDSDNdKWMobltjSF1uMiljKGMyMyluW2NIXW4zW0NIMl1bQ0BAXTQoW09IXSlbQ0gyXVtDSDJdT1tDSDJdNA==

> <s_epik_cmdline>
J2VwaWtfcHl0aG9uJywgJy1waCcsICc3LjAnLCAnLXRuJywgJzgnLCAnLW1hJywgJzIwMCcsICctbWV0YWxfYmluZGluZycsICctaW1hZScsICc8aW5maWxlLm1hZT4nLCAnLW9tYWUnLCAnPG91dGZpbGUubWFlPic=

> <r_lp_tautomer_probability>
1

> <r_epik_Ionization_Penalty>
0.00516958

> <r_epik_Ionization_Penalty_Charging>
0.00509693

> <r_epik_Ionization_Penalty_Neutral>
7.26542e-05

> <r_epik_State_Penalty>
-0

> <r_epik_Charging_Adjusted_Penalty>
0.00509693

> <i_epik_Tot_Q>
1

> <i_epik_Tot_abs_Q>
1

> <r_epik_Metal_State_Penalty>
-0

> <b_epik_Metal_Only>
0

> <s_lp_Force_Field>
OPLS_2005

> <r_lp_Energy>
50.3284

> <b_lp_Chiralities_Consistent>
1

> <s_lp_Variant>
AV-unprocessed.smi:224-1

> <Gold.Version>
5.8.1

> <Gold.Id.Protein>
6NUR|6NUR_protein|mol2

> <Gold.PLP.Fitness>
44.1403

> <Gold.PLP.PLP>
-35.0002

> <Gold.PLP.part.hbond>
-3.7782

> <Gold.PLP.part.metal>
0.0000

> <Gold.PLP.part.buried>
-6.7046

> <Gold.PLP.part.nonpolar>
-25.9639

> <Gold.PLP.part.repulsive>
0.0169

> <Gold.PLP.ligand.clash>
0.0000

> <Gold.PLP.ligand.torsion>
0.9154

> <Gold.PLP.Chemscore.Hbond>
3.4595

> <Gold.PLP.Chemscore.CHOScore>
0.0000

> <Gold.PLP.Chemscore.Metal>
0.0000

> <Gold.Chemscore.Hbonds>
donor molecule, donor type, donor heavy atom, donor atom, acceptor molecule, acceptor atom, score
      L1  H     3    32       P1 10957  0.59
      L1  H    20    43       P1  8028  0.94
      P1  H  7997  8009       L1    12  0.71
      P1  H 10752 10763       L1    10  0.57

> <Gold.PLP.Chemscore.Internal.Correction>
0.5924

> <Gold.Rescore>
     Score         DG    S(hbond)    S(metal)    S(lipo)     H(rot)  DE(clash)    DE(int)     intcor
      9.60     -13.21       2.16        0.00      77.97       3.36       0.10       3.51       ----

> <Gold.Chemscore.Fitness>
9.6027

> <Gold.Chemscore.DG>
-13.2148

> <Gold.Chemscore.ZeroCoef>
-5.4800

> <Gold.Chemscore.Hbond>
2.1608

> <Gold.Chemscore.Metal>
0.0000

> <Gold.Chemscore.Lipo>
77.9681

> <Gold.Chemscore.Internal_Hbond>
0.0000

> <Gold.Chemscore.DEClash>
0.1004

> <Gold.Chemscore.DEInternal>
3.5117

> <Gold.Chemscore.Rot>
3.3611

> <Gold.Chemscore.Internal.Correction>
   9.000000E+99

> <Gold.Chemscore.Hbonds>
donor molecule, donor type, donor heavy atom, donor atom, acceptor molecule, acceptor atom, score
      L1  H     3    32       P1 10957  0.58
      L1  H    20    43       P1  8028  0.49
      P1  H  7997  8009       L1    12  0.18
      P1  H 10752 10763       L1    10  0.10

> <Gold.Chemscore.Hbond.Weighted>
-7.2170

> <Gold.Chemscore.Metal.Weighted>
-0.0000

> <Gold.Chemscore.Lipo.Weighted>
-9.1223

> <Gold.Chemscore.Internal_Hbond.Weighted>
0.0000

> <Gold.Chemscore.DEClash.Weighted>
0.1004

> <Gold.Chemscore.DEInternal.Weighted>
3.5117

> <Gold.Chemscore.Rot.Weighted>
8.6045

> <Gold.Chemscore.Internal.Correction.Weighted>
   9.000000E+99

> <Gold.Protein.RotatedTorsions>
[ 6907 6896 6895 6894 ] final  -55.35 input  -60.11 | X-H torsion
[ 7974 7965 7964 7962 ] final -173.63 input  175.53 | X-H torsion
[ 8008 7997 7996 7995 ] final -145.08 input   59.86 | X-H torsion
[ 10167 10162 10161 10158 ] final  110.49 input  -65.29 | X-H torsion
[ 10718 10713 10712 10709 ] final  -64.69 input   66.30 | X-H torsion
[ 10763 10752 10751 10750 ] final   90.45 input  -60.55 | X-H torsion
[ 11005 11000 10999 10996 ] final  149.27 input  -57.11 | X-H torsion

> <Gold.Protein.ActiveResidues>
 VAL166  LYS551  ARG553  GLY616  TRP617  ASP618  TYR619  PRO620  LYS621  CYS622 
 ASP623  PHE694  ASN695  SER759  ASP760  ASP761  ALA762  ILE779  LEU786  VAL792 
 PHE793  MET794  SER795  GLU796  ALA797  LYS798  CYS799  TRP800  GLU811  SER814 

> <Gold.Protein.RotatedAtoms>
  150.8259  134.7490  159.6812 H   0  0  0  0  0  0  0  0  0  0  0  0  # atno 6907 bound_to 6896
  152.4370  134.5663  159.9918 H   0  0  0  0  0  0  0  0  0  0  0  0  # atno 6908 bound_to 6896
  151.5835  133.3337  159.3049 H   0  0  0  0  0  0  0  0  0  0  0  0  # atno 6909 bound_to 6896
  144.7136  140.1593  143.6377 H   0  0  0  0  0  0  0  0  0  0  0  0  # atno 7974 bound_to 7965
  155.5373  140.0605  157.2877 H   0  0  0  0  0  0  0  0  0  0  0  0  # atno 8008 bound_to 7997
  154.4464  140.1925  156.0599 H   0  0  0  0  0  0  0  0  0  0  0  0  # atno 8009 bound_to 7997
  156.0610  140.3272  155.7465 H   0  0  0  0  0  0  0  0  0  0  0  0  # atno 8010 bound_to 7997
  139.6684  144.7126  151.1733 H   0  0  0  0  0  0  0  0  0  0  0  0  # atno 10167 bound_to 10162
  156.0714  130.4237  150.1456 H   0  0  0  0  0  0  0  0  0  0  0  0  # atno 10718 bound_to 10713
  153.1977  135.4433  155.0227 H   0  0  0  0  0  0  0  0  0  0  0  0  # atno 10763 bound_to 10752
  154.8128  135.3302  154.7261 H   0  0  0  0  0  0  0  0  0  0  0  0  # atno 10764 bound_to 10752
  153.7709  135.6984  153.4962 H   0  0  0  0  0  0  0  0  0  0  0  0  # atno 10765 bound_to 10752
  140.1030  134.8971  157.1825 H   0  0  0  0  0  0  0  0  0  0  0  0  # atno 11005 bound_to 11000
  145.9045  139.2450  143.1474 LP  0  0  0  0  0  0  0  0  0  0  0  0  # atno 17320 bound_to 7965
  145.9778  140.8708  143.0130 LP  0  0  0  0  0  0  0  0  0  0  0  0  # atno 17321 bound_to 7965
  140.7608  143.5882  150.8823 LP  0  0  0  0  0  0  0  0  0  0  0  0  # atno 17342 bound_to 10162
  139.9545  143.6233  152.3020 LP  0  0  0  0  0  0  0  0  0  0  0  0  # atno 17343 bound_to 10162
  156.9506  130.9773  151.3499 LP  0  0  0  0  0  0  0  0  0  0  0  0  # atno 17370 bound_to 10713
  157.5786  130.8361  149.8491 LP  0  0  0  0  0  0  0  0  0  0  0  0  # atno 17371 bound_to 10713
  140.3193  134.2934  155.7249 LP  0  0  0  0  0  0  0  0  0  0  0  0  # atno 17394 bound_to 11000
  141.2111  133.7700  156.9889 LP  0  0  0  0  0  0  0  0  0  0  0  0  # atno 17395 bound_to 11000

$$$$
