AV-unprocessed.smi:193|AV-procd|sdf|1511|dock9
  -GOLD-   2262019343D 1   1.00000     0.00000
 Structure written by MMmdl.
 62 66  0  0  0  0  0  0  0  0  2 V2000
  146.8834  139.5692  151.3128 C   0  0  0  0  0  0  0  0  0  0  0  0
  147.0573  138.4170  152.3157 C   0  0  1  0  0  0  0  0  0  0  0  0
  147.0596  138.9816  153.7510 C   0  0  0  0  0  0  0  0  0  0  0  0
  147.7248  138.1233  154.7336 N   0  0  0  0  0  0  0  0  0  0  0  0
  148.1970  138.6984  155.8709 C   0  0  0  0  0  0  0  0  0  0  0  0
  148.7692  137.9080  156.8177 N   0  0  0  0  0  0  0  0  0  0  0  0
  149.2508  138.4404  157.9445 C   0  0  0  0  0  0  0  0  0  0  0  0
  149.2608  139.7188  158.3242 N   0  0  0  0  0  0  0  0  0  0  0  0
  148.6801  140.5184  157.3848 C   0  0  0  0  0  0  0  0  0  0  0  0
  148.1263  140.0961  156.1426 C   0  0  0  0  0  0  0  0  0  0  0  0
  147.6103  141.1935  155.4616 N   0  0  0  0  0  0  0  0  0  0  0  0
  147.8577  142.2050  156.2484 C   0  0  0  0  0  0  0  0  0  0  0  0
  148.5040  141.8904  157.4219 N   0  0  0  0  0  0  0  0  0  0  0  0
  148.8995  142.8152  158.4732 C   0  0  0  0  0  0  0  0  0  0  0  0
  150.4095  143.1597  158.4706 C   0  0  0  0  0  0  0  0  0  0  0  0
  150.7726  143.4933  157.1418 O   0  0  0  0  0  0  0  0  0  0  0  0
  150.6826  144.3817  159.3703 C   0  0  0  0  0  0  0  0  0  0  0  0
  152.1877  144.6583  159.5344 C   0  0  0  0  0  0  0  0  0  0  0  0
  152.8456  143.4971  160.0257 O   0  0  0  0  0  0  0  0  0  0  0  0
  152.7608  142.3960  159.1294 C   0  0  0  0  0  0  0  0  0  0  0  0
  151.2913  141.9806  158.9372 C   0  0  0  0  0  0  0  0  0  0  0  0
  147.6657  136.6632  154.6729 C   0  0  0  0  0  0  0  0  0  0  0  0
  146.3044  136.1229  154.2139 C   0  0  0  0  0  0  0  0  0  0  0  0
  146.2148  136.0622  152.7355 N   0  3  1  0  0  0  0  0  0  0  0  0
  145.2470  135.0346  152.2887 C   0  0  1  0  0  0  0  0  0  0  0  0
  144.8069  135.2021  150.8524 C   0  0  0  0  0  0  0  0  0  0  0  0
  145.7871  134.1092  151.2200 C   0  0  2  0  0  0  0  0  0  0  0  0
  145.3627  132.6579  151.1677 C   0  0  0  0  0  0  0  0  0  0  0  0
  145.9362  137.3760  152.1056 C   0  0  0  0  0  0  0  0  0  0  0  0
  145.9349  140.0863  151.4615 H   0  0  0  0  0  0  0  0  0  0  0  0
  146.9081  139.2072  150.2844 H   0  0  0  0  0  0  0  0  0  0  0  0
  147.6822  140.3047  151.4149 H   0  0  0  0  0  0  0  0  0  0  0  0
  148.0245  137.9589  152.1029 H   0  0  0  0  0  0  0  0  0  0  0  0
  147.5871  139.9370  153.7411 H   0  0  0  0  0  0  0  0  0  0  0  0
  146.0424  139.1978  154.0800 H   0  0  0  0  0  0  0  0  0  0  0  0
  149.6918  137.7424  158.6408 H   0  0  0  0  0  0  0  0  0  0  0  0
  147.5768  143.2165  155.9925 H   0  0  0  0  0  0  0  0  0  0  0  0
  148.3031  143.7228  158.3701 H   0  0  0  0  0  0  0  0  0  0  0  0
  148.6178  142.3771  159.4315 H   0  0  0  0  0  0  0  0  0  0  0  0
  150.0803  144.0140  156.7642 H   0  0  0  0  0  0  0  0  0  0  0  0
  150.1796  145.2665  158.9778 H   0  0  0  0  0  0  0  0  0  0  0  0
  150.2571  144.2029  160.3587 H   0  0  0  0  0  0  0  0  0  0  0  0
  152.6363  144.9738  158.5912 H   0  0  0  0  0  0  0  0  0  0  0  0
  152.3401  145.4723  160.2432 H   0  0  0  0  0  0  0  0  0  0  0  0
  153.2251  142.6523  158.1761 H   0  0  0  0  0  0  0  0  0  0  0  0
  153.3310  141.5641  159.5427 H   0  0  0  0  0  0  0  0  0  0  0  0
  150.9122  141.6031  159.8878 H   0  0  0  0  0  0  0  0  0  0  0  0
  151.2358  141.1493  158.2334 H   0  0  0  0  0  0  0  0  0  0  0  0
  148.4702  136.2860  154.0406 H   0  0  0  0  0  0  0  0  0  0  0  0
  147.8459  136.2567  155.6685 H   0  0  0  0  0  0  0  0  0  0  0  0
  146.2183  135.1061  154.5999 H   0  0  0  0  0  0  0  0  0  0  0  0
  145.4719  136.6804  154.6463 H   0  0  0  0  0  0  0  0  0  0  0  0
  144.5479  134.6704  153.0399 H   0  0  0  0  0  0  0  0  0  0  0  0
  143.7903  134.9042  150.6032 H   0  0  0  0  0  0  0  0  0  0  0  0
  145.1919  136.0500  150.2887 H   0  0  0  0  0  0  0  0  0  0  0  0
  146.8176  134.2710  150.9074 H   0  0  0  0  0  0  0  0  0  0  0  0
  144.3264  132.5453  151.4881 H   0  0  0  0  0  0  0  0  0  0  0  0
  145.9958  132.0592  151.8226 H   0  0  0  0  0  0  0  0  0  0  0  0
  145.4557  132.2774  150.1503 H   0  0  0  0  0  0  0  0  0  0  0  0
  144.9784  137.7630  152.4578 H   0  0  0  0  0  0  0  0  0  0  0  0
  145.8180  137.2076  151.0344 H   0  0  0  0  0  0  0  0  0  0  0  0
  147.1180  135.7585  152.4012 H   0  0  0  0  0  0  0  0  0  0  0  0
  1  2  1  0  0  0  0
  1 30  1  0  0  0  0
  1 31  1  0  0  0  0
  1 32  1  0  0  0  0
  2 29  1  0  0  0  0
  2  3  1  0  0  0  0
  2 33  1  0  0  0  0
  3  4  1  0  0  0  0
  3 34  1  0  0  0  0
  3 35  1  0  0  0  0
  4  5  1  0  0  0  0
  4 22  1  0  0  0  0
  5 10  1  0  0  0  0
  5  6  2  0  0  0  0
  6  7  1  0  0  0  0
  7  8  2  0  0  0  0
  7 36  1  0  0  0  0
  8  9  1  0  0  0  0
  9 13  1  0  0  0  0
  9 10  2  0  0  0  0
 10 11  1  0  0  0  0
 11 12  2  0  0  0  0
 12 13  1  0  0  0  0
 12 37  1  0  0  0  0
 13 14  1  0  0  0  0
 14 15  1  0  0  0  0
 14 38  1  0  0  0  0
 14 39  1  0  0  0  0
 15 21  1  0  0  0  0
 15 16  1  0  0  0  0
 15 17  1  0  0  0  0
 16 40  1  0  0  0  0
 17 18  1  0  0  0  0
 17 41  1  0  0  0  0
 17 42  1  0  0  0  0
 18 19  1  0  0  0  0
 18 43  1  0  0  0  0
 18 44  1  0  0  0  0
 19 20  1  0  0  0  0
 20 21  1  0  0  0  0
 20 45  1  0  0  0  0
 20 46  1  0  0  0  0
 21 47  1  0  0  0  0
 21 48  1  0  0  0  0
 22 23  1  0  0  0  0
 22 49  1  0  0  0  0
 22 50  1  0  0  0  0
 23 24  1  0  0  0  0
 23 51  1  0  0  0  0
 23 52  1  0  0  0  0
 24 25  1  0  0  0  0
 24 29  1  0  0  0  0
 24 62  1  0  0  0  0
 25 27  1  0  0  0  0
 25 26  1  0  0  0  0
 25 53  1  0  0  0  0
 26 27  1  0  0  0  0
 26 54  1  0  0  0  0
 26 55  1  0  0  0  0
 27 28  1  0  0  0  0
 27 56  1  0  0  0  0
 28 57  1  0  0  0  0
 28 58  1  0  0  0  0
 28 59  1  0  0  0  0
 29 60  1  0  0  0  0
 29 61  1  0  0  0  0
M  CHG  1  24   1
M  END
> <s_m_source_file>
AV-unprocessed.smi

> <i_m_source_file_index>
193

> <i_lp_mmshare_version>
43012

> <i_f3d_flags>
0

> <s_epik_input>
W0NIM11bQ0BASF0xW0NIMl1bQ0BIXTFOKFtDSDJdMilbQ0gyXVtDSDJdTihbQ0gyXVtDQEhdMltDSDNdKWMobltjSF1uMyljKGMzNCluW2NIXW40W0NIMl1DNShbT0hdKVtDSDJdW0NIMl1PW0NIMl1bQ0gyXTU=

> <s_epik_cmdline>
J2VwaWtfcHl0aG9uJywgJy1waCcsICc3LjAnLCAnLXRuJywgJzgnLCAnLW1hJywgJzIwMCcsICctbWV0YWxfYmluZGluZycsICctaW1hZScsICc8aW5maWxlLm1hZT4nLCAnLW9tYWUnLCAnPG91dGZpbGUubWFlPic=

> <r_lp_tautomer_probability>
1

> <r_epik_Ionization_Penalty>
0.0540825

> <r_epik_Ionization_Penalty_Charging>
0.0538476

> <r_epik_Ionization_Penalty_Neutral>
0.000234891

> <r_epik_State_Penalty>
0.0200719

> <r_epik_Charging_Adjusted_Penalty>
0.0739194

> <i_epik_Tot_Q>
1

> <i_epik_Tot_abs_Q>
1

> <r_epik_Metal_State_Penalty>
0.0199414

> <b_epik_Metal_Only>
0

> <s_lp_Force_Field>
OPLS_2005

> <r_lp_Energy>
53.3477

> <b_lp_Chiralities_Consistent>
1

> <s_lp_Variant>
AV-unprocessed.smi:193-16

> <Gold.Version>
5.8.1

> <Gold.Id.Protein>
6NUR|6NUR_protein|mol2

> <Gold.PLP.Fitness>
46.7786

> <Gold.PLP.PLP>
-37.0717

> <Gold.PLP.part.hbond>
-2.2679

> <Gold.PLP.part.metal>
0.0000

> <Gold.PLP.part.buried>
1.1081

> <Gold.PLP.part.nonpolar>
-35.2287

> <Gold.PLP.part.repulsive>
0.0718

> <Gold.PLP.ligand.clash>
0.0000

> <Gold.PLP.ligand.torsion>
1.2186

> <Gold.PLP.Chemscore.Hbond>
3.0000

> <Gold.PLP.Chemscore.CHOScore>
0.6153

> <Gold.PLP.Chemscore.Metal>
0.0000

> <Gold.Chemscore.Hbonds>
donor molecule, donor type, donor heavy atom, donor atom, acceptor molecule, acceptor atom, score
      L1  H    16    40       P1  8028  1.00
      L1  H    24    62       P1  7948  1.98
      L1  C    12    37       P1  8028  0.60

> <Gold.PLP.Chemscore.Internal.Correction>
1.2981

> <Gold.Rescore>
     Score         DG    S(hbond)    S(metal)    S(lipo)     H(rot)  DE(clash)    DE(int)     intcor
     15.23     -19.86       1.97        0.00     108.96       1.93       2.08       2.55       ----

> <Gold.Chemscore.Fitness>
15.2334

> <Gold.Chemscore.DG>
-19.8594

> <Gold.Chemscore.ZeroCoef>
-5.4800

> <Gold.Chemscore.Hbond>
1.9670

> <Gold.Chemscore.Metal>
0.0000

> <Gold.Chemscore.Lipo>
108.9566

> <Gold.Chemscore.Internal_Hbond>
0.0000

> <Gold.Chemscore.DEClash>
2.0799

> <Gold.Chemscore.DEInternal>
2.5460

> <Gold.Chemscore.Rot>
1.9290

> <Gold.Chemscore.Internal.Correction>
   9.000000E+99

> <Gold.Chemscore.Hbonds>
donor molecule, donor type, donor heavy atom, donor atom, acceptor molecule, acceptor atom, score
      L1  H    16    40       P1  8028  0.99
      L1  H    24    62       P1  7948  0.92

> <Gold.Chemscore.Hbond.Weighted>
-6.5697

> <Gold.Chemscore.Metal.Weighted>
-0.0000

> <Gold.Chemscore.Lipo.Weighted>
-12.7479

> <Gold.Chemscore.Internal_Hbond.Weighted>
0.0000

> <Gold.Chemscore.DEClash.Weighted>
2.0799

> <Gold.Chemscore.DEInternal.Weighted>
2.5460

> <Gold.Chemscore.Rot.Weighted>
4.9383

> <Gold.Chemscore.Internal.Correction.Weighted>
   9.000000E+99

> <Gold.Protein.RotatedTorsions>
[ 6907 6896 6895 6894 ] final  160.90 input  -60.11 | X-H torsion
[ 7974 7965 7964 7962 ] final   84.87 input  175.53 | X-H torsion
[ 8008 7997 7996 7995 ] final  -37.79 input   59.86 | X-H torsion
[ 10167 10162 10161 10158 ] final -152.37 input  -65.29 | X-H torsion
[ 10718 10713 10712 10709 ] final   46.60 input   66.30 | X-H torsion
[ 10763 10752 10751 10750 ] final  -60.70 input  -60.55 | X-H torsion
[ 11005 11000 10999 10996 ] final   -8.58 input  -57.11 | X-H torsion

> <Gold.Protein.ActiveResidues>
 VAL166  LYS551  ARG553  GLY616  TRP617  ASP618  TYR619  PRO620  LYS621  CYS622 
 ASP623  PHE694  ASN695  SER759  ASP760  ASP761  ALA762  ILE779  LEU786  VAL792 
 PHE793  MET794  SER795  GLU796  ALA797  LYS798  CYS799  TRP800  GLU811  SER814 

> <Gold.Protein.RotatedAtoms>
  151.9637  133.3703  159.4044 H   0  0  0  0  0  0  0  0  0  0  0  0  # atno 6907 bound_to 6896
  150.6960  134.4213  159.5215 H   0  0  0  0  0  0  0  0  0  0  0  0  # atno 6908 bound_to 6896
  152.1906  134.8675  160.0568 H   0  0  0  0  0  0  0  0  0  0  0  0  # atno 6909 bound_to 6896
  145.5930  139.2341  143.2288 H   0  0  0  0  0  0  0  0  0  0  0  0  # atno 7974 bound_to 7965
  154.4047  140.1595  156.2594 H   0  0  0  0  0  0  0  0  0  0  0  0  # atno 8008 bound_to 7997
  155.9050  140.3431  155.6033 H   0  0  0  0  0  0  0  0  0  0  0  0  # atno 8009 bound_to 7997
  155.7403  140.0791  157.2239 H   0  0  0  0  0  0  0  0  0  0  0  0  # atno 8010 bound_to 7997
  139.7187  143.8992  152.2495 H   0  0  0  0  0  0  0  0  0  0  0  0  # atno 10167 bound_to 10162
  157.4498  130.8132  149.7777 H   0  0  0  0  0  0  0  0  0  0  0  0  # atno 10718 bound_to 10713
  154.2732  135.6286  153.5318 H   0  0  0  0  0  0  0  0  0  0  0  0  # atno 10763 bound_to 10752
  152.9877  135.5615  154.5577 H   0  0  0  0  0  0  0  0  0  0  0  0  # atno 10764 bound_to 10752
  154.5152  135.2879  155.1285 H   0  0  0  0  0  0  0  0  0  0  0  0  # atno 10765 bound_to 10752
  140.7250  133.8797  155.8849 H   0  0  0  0  0  0  0  0  0  0  0  0  # atno 11005 bound_to 11000
  146.1633  140.6756  142.9267 LP  0  0  0  0  0  0  0  0  0  0  0  0  # atno 17320 bound_to 7965
  144.7343  140.4762  143.6915 LP  0  0  0  0  0  0  0  0  0  0  0  0  # atno 17321 bound_to 7965
  139.8882  144.6980  150.8801 LP  0  0  0  0  0  0  0  0  0  0  0  0  # atno 17342 bound_to 10162
  140.7749  143.3607  151.1833 LP  0  0  0  0  0  0  0  0  0  0  0  0  # atno 17343 bound_to 10162
  155.9982  130.3895  150.2709 LP  0  0  0  0  0  0  0  0  0  0  0  0  # atno 17370 bound_to 10713
  157.0880  131.0162  151.3132 LP  0  0  0  0  0  0  0  0  0  0  0  0  # atno 17371 bound_to 10713
  140.9971  134.1200  157.4353 LP  0  0  0  0  0  0  0  0  0  0  0  0  # atno 17394 bound_to 11000
  139.8839  135.0057  156.6334 LP  0  0  0  0  0  0  0  0  0  0  0  0  # atno 17395 bound_to 11000

$$$$
