AV-unprocessed.smi:2967|AV-procd|sdf|11326|dock3
  -GOLD-   2272016233D 1   1.00000     0.00000
 Structure written by MMmdl.
 38 39  0  0  0  0  0  0  0  0  1 V2000
  150.8391  140.5022  155.2115 O   0  0  0  0  0  0  0  0  0  0  0  0
  150.0428  141.4342  155.3343 C   0  0  0  0  0  0  0  0  0  0  0  0
  148.7816  141.5145  154.4619 C   0  0  0  0  0  0  0  0  0  0  0  0
  147.9105  140.3365  154.5882 N   0  0  0  0  0  0  0  0  0  0  0  0
  147.4375  139.6917  153.4540 C   0  0  0  0  0  0  0  0  0  0  0  0
  146.6278  138.6074  153.4957 C   0  0  0  0  0  0  0  0  0  0  0  0
  146.2029  138.0517  154.7760 C   0  0  0  0  0  0  0  0  0  0  0  0
  145.4747  137.0718  154.9170 O   0  0  0  0  0  0  0  0  0  0  0  0
  146.6960  138.7304  155.8936 N   0  0  0  0  0  0  0  0  0  0  0  0
  147.5291  139.8498  155.8577 C   0  0  0  0  0  0  0  0  0  0  0  0
  147.9034  140.3759  156.9053 O   0  0  0  0  0  0  0  0  0  0  0  0
  150.2004  142.4238  156.2272 N   0  0  0  0  0  0  0  0  0  0  0  0
  151.3164  142.5604  157.1605 C   0  0  0  0  0  0  0  0  0  0  0  0
  150.9904  141.7643  158.4414 C   0  0  0  0  0  0  0  0  0  0  0  0
  152.2121  141.5511  159.3513 C   0  0  0  0  0  0  0  0  0  0  0  0
  152.4944  142.6761  160.3627 C   0  0  0  0  0  0  0  0  0  0  0  0
  152.2944  144.1171  159.8618 C   0  0  0  0  0  0  0  0  0  0  0  0
  152.7137  144.3702  158.4051 C   0  0  0  0  0  0  0  0  0  0  0  0
  151.5915  144.0593  157.3997 C   0  0  0  0  0  0  0  0  0  0  0  0
  146.4250  138.3839  156.8025 H   0  0  0  0  0  0  0  0  0  0  0  0
  148.2355  142.4180  154.7371 H   0  0  0  0  0  0  0  0  0  0  0  0
  149.0688  141.6587  153.4182 H   0  0  0  0  0  0  0  0  0  0  0  0
  147.7232  140.0713  152.4831 H   0  0  0  0  0  0  0  0  0  0  0  0
  146.2918  138.1492  152.5769 H   0  0  0  0  0  0  0  0  0  0  0  0
  149.4941  143.1446  156.2595 H   0  0  0  0  0  0  0  0  0  0  0  0
  152.2024  142.1129  156.7059 H   0  0  0  0  0  0  0  0  0  0  0  0
  150.1698  142.2234  158.9941 H   0  0  0  0  0  0  0  0  0  0  0  0
  150.6320  140.7776  158.1435 H   0  0  0  0  0  0  0  0  0  0  0  0
  152.0752  140.6268  159.9136 H   0  0  0  0  0  0  0  0  0  0  0  0
  153.0970  141.3803  158.7368 H   0  0  0  0  0  0  0  0  0  0  0  0
  151.8666  142.5325  161.2430 H   0  0  0  0  0  0  0  0  0  0  0  0
  153.5202  142.5615  160.7151 H   0  0  0  0  0  0  0  0  0  0  0  0
  151.2520  144.4090  159.9951 H   0  0  0  0  0  0  0  0  0  0  0  0
  152.8618  144.7807  160.5155 H   0  0  0  0  0  0  0  0  0  0  0  0
  152.9589  145.4284  158.3070 H   0  0  0  0  0  0  0  0  0  0  0  0
  153.6280  143.8296  158.1574 H   0  0  0  0  0  0  0  0  0  0  0  0
  151.8596  144.5157  156.4458 H   0  0  0  0  0  0  0  0  0  0  0  0
  150.6743  144.5592  157.7145 H   0  0  0  0  0  0  0  0  0  0  0  0
  1  2  2  0  0  0  0
  2  3  1  0  0  0  0
  2 12  1  0  0  0  0
  3  4  1  0  0  0  0
  3 21  1  0  0  0  0
  3 22  1  0  0  0  0
  4 10  1  0  0  0  0
  4  5  1  0  0  0  0
  5  6  2  0  0  0  0
  5 23  1  0  0  0  0
  6  7  1  0  0  0  0
  6 24  1  0  0  0  0
  7  8  2  0  0  0  0
  7  9  1  0  0  0  0
  9 20  1  0  0  0  0
  9 10  1  0  0  0  0
 10 11  2  0  0  0  0
 12 13  1  0  0  0  0
 12 25  1  0  0  0  0
 13 19  1  0  0  0  0
 13 14  1  0  0  0  0
 13 26  1  0  0  0  0
 14 15  1  0  0  0  0
 14 27  1  0  0  0  0
 14 28  1  0  0  0  0
 15 16  1  0  0  0  0
 15 29  1  0  0  0  0
 15 30  1  0  0  0  0
 16 17  1  0  0  0  0
 16 31  1  0  0  0  0
 16 32  1  0  0  0  0
 17 18  1  0  0  0  0
 17 33  1  0  0  0  0
 17 34  1  0  0  0  0
 18 19  1  0  0  0  0
 18 35  1  0  0  0  0
 18 36  1  0  0  0  0
 19 37  1  0  0  0  0
 19 38  1  0  0  0  0
M  END
> <s_m_source_file>
AV-unprocessed.smi

> <i_m_source_file_index>
2967

> <i_lp_mmshare_version>
43012

> <i_f3d_flags>
0

> <s_epik_input>
W0NIMl0xW0NIMl1bQ0gyXVtDSDJdW0NIMl1bQ0gyXVtDSF0xW05IXUMoPU8pW0NIMl1uMltjSF1bY0hdYyg9TylbbkhdYzI9Tw==

> <s_epik_cmdline>
J2VwaWtfcHl0aG9uJywgJy1waCcsICc3LjAnLCAnLXRuJywgJzgnLCAnLW1hJywgJzIwMCcsICctbWV0YWxfYmluZGluZycsICctaW1hZScsICc8aW5maWxlLm1hZT4nLCAnLW9tYWUnLCAnPG91dGZpbGUubWFlPic=

> <r_lp_tautomer_probability>
0.999537

> <r_epik_Ionization_Penalty>
0.00321433

> <r_epik_Ionization_Penalty_Charging>
0.00321431

> <r_epik_Ionization_Penalty_Neutral>
2.02148e-08

> <r_epik_State_Penalty>
0.00226744

> <r_epik_Charging_Adjusted_Penalty>
0.00548175

> <i_epik_Tot_Q>
0

> <i_epik_Tot_abs_Q>
0

> <r_epik_Metal_State_Penalty>
0.364272

> <b_epik_Metal_Only>
0

> <s_lp_Force_Field>
OPLS_2005

> <r_lp_Energy>
14.3008

> <b_lp_Chiralities_Consistent>
1

> <s_lp_Variant>
AV-unprocessed.smi:2967-1

> <Gold.Version>
5.8.1

> <Gold.Id.Protein>
6NUR|6NUR_protein|mol2

> <Gold.PLP.Fitness>
43.9879

> <Gold.PLP.PLP>
-35.9735

> <Gold.PLP.part.hbond>
-2.0000

> <Gold.PLP.part.metal>
0.0000

> <Gold.PLP.part.buried>
-4.0018

> <Gold.PLP.part.nonpolar>
-29.9535

> <Gold.PLP.part.repulsive>
0.2022

> <Gold.PLP.ligand.clash>
0.0000

> <Gold.PLP.ligand.torsion>
0.4772

> <Gold.PLP.Chemscore.Hbond>
1.9840

> <Gold.PLP.Chemscore.CHOScore>
1.0000

> <Gold.PLP.Chemscore.Metal>
0.0000

> <Gold.Chemscore.Hbonds>
donor molecule, donor type, donor heavy atom, donor atom, acceptor molecule, acceptor atom, score
      L1  H    12    25       P1  8028  0.98
      P1  H  7989  7998       L1     1  0.99
      L1  C     5    23       P1  7957  1.00

> <Gold.PLP.Chemscore.Internal.Correction>
0.0169

> <Gold.Rescore>
     Score         DG    S(hbond)    S(metal)    S(lipo)     H(rot)  DE(clash)    DE(int)     intcor
     16.36     -17.86       1.62        0.00      96.47       1.69       0.50       1.01       ----

> <Gold.Chemscore.Fitness>
16.3604

> <Gold.Chemscore.DG>
-17.8617

> <Gold.Chemscore.ZeroCoef>
-5.4800

> <Gold.Chemscore.Hbond>
1.6212

> <Gold.Chemscore.Metal>
0.0000

> <Gold.Chemscore.Lipo>
96.4662

> <Gold.Chemscore.Internal_Hbond>
0.0000

> <Gold.Chemscore.DEClash>
0.4954

> <Gold.Chemscore.DEInternal>
1.0059

> <Gold.Chemscore.Rot>
1.6874

> <Gold.Chemscore.Internal.Correction>
   9.000000E+99

> <Gold.Chemscore.Hbonds>
donor molecule, donor type, donor heavy atom, donor atom, acceptor molecule, acceptor atom, score
      L1  H    12    25       P1  8028  0.93
      P1  H  7989  7998       L1     1  0.33

> <Gold.Chemscore.Hbond.Weighted>
-5.4149

> <Gold.Chemscore.Metal.Weighted>
-0.0000

> <Gold.Chemscore.Lipo.Weighted>
-11.2865

> <Gold.Chemscore.Internal_Hbond.Weighted>
0.0000

> <Gold.Chemscore.DEClash.Weighted>
0.4954

> <Gold.Chemscore.DEInternal.Weighted>
1.0059

> <Gold.Chemscore.Rot.Weighted>
4.3198

> <Gold.Chemscore.Internal.Correction.Weighted>
   9.000000E+99

> <Gold.Protein.RotatedTorsions>
[ 6907 6896 6895 6894 ] final   37.32 input  -60.11 | X-H torsion
[ 7974 7965 7964 7962 ] final  138.61 input  175.53 | X-H torsion
[ 8008 7997 7996 7995 ] final -158.57 input   59.86 | X-H torsion
[ 10167 10162 10161 10158 ] final -147.42 input  -65.29 | X-H torsion
[ 10718 10713 10712 10709 ] final  172.52 input   66.30 | X-H torsion
[ 10763 10752 10751 10750 ] final -130.19 input  -60.55 | X-H torsion
[ 11005 11000 10999 10996 ] final  101.00 input  -57.11 | X-H torsion

> <Gold.Protein.ActiveResidues>
 VAL166  LYS551  ARG553  GLY616  TRP617  ASP618  TYR619  PRO620  LYS621  CYS622 
 ASP623  PHE694  ASN695  SER759  ASP760  ASP761  ALA762  ILE779  LEU786  VAL792 
 PHE793  MET794  SER795  GLU796  ALA797  LYS798  CYS799  TRP800  GLU811  SER814 

> <Gold.Protein.RotatedAtoms>
  152.1416  134.9058  160.0553 H   0  0  0  0  0  0  0  0  0  0  0  0  # atno 6907 bound_to 6896
  152.0124  133.3861  159.4233 H   0  0  0  0  0  0  0  0  0  0  0  0  # atno 6908 bound_to 6896
  150.6865  134.3637  159.5005 H   0  0  0  0  0  0  0  0  0  0  0  0  # atno 6909 bound_to 6896
  144.9356  139.4993  143.5597 H   0  0  0  0  0  0  0  0  0  0  0  0  # atno 7974 bound_to 7965
  155.7496  140.0825  157.2207 H   0  0  0  0  0  0  0  0  0  0  0  0  # atno 8008 bound_to 7997
  154.4013  140.1563  156.2764 H   0  0  0  0  0  0  0  0  0  0  0  0  # atno 8009 bound_to 7997
  155.8943  140.3413  155.5982 H   0  0  0  0  0  0  0  0  0  0  0  0  # atno 8010 bound_to 7997
  139.7624  143.8358  152.2609 H   0  0  0  0  0  0  0  0  0  0  0  0  # atno 10167 bound_to 10162
  156.9777  131.0109  151.2889 H   0  0  0  0  0  0  0  0  0  0  0  0  # atno 10718 bound_to 10713
  154.8756  135.3870  154.4043 H   0  0  0  0  0  0  0  0  0  0  0  0  # atno 10763 bound_to 10752
  153.4764  135.7030  153.5968 H   0  0  0  0  0  0  0  0  0  0  0  0  # atno 10764 bound_to 10752
  153.4403  135.3857  155.2192 H   0  0  0  0  0  0  0  0  0  0  0  0  # atno 10765 bound_to 10752
  139.8772  134.9164  156.4840 H   0  0  0  0  0  0  0  0  0  0  0  0  # atno 11005 bound_to 11000
  146.3265  139.8338  142.8903 LP  0  0  0  0  0  0  0  0  0  0  0  0  # atno 17320 bound_to 7965
  145.3072  141.0210  143.3575 LP  0  0  0  0  0  0  0  0  0  0  0  0  # atno 17321 bound_to 7965
  139.8368  144.7228  150.9381 LP  0  0  0  0  0  0  0  0  0  0  0  0  # atno 17342 bound_to 10162
  140.7808  143.4020  151.1134 LP  0  0  0  0  0  0  0  0  0  0  0  0  # atno 17343 bound_to 10162
  157.5548  130.8206  149.8190 LP  0  0  0  0  0  0  0  0  0  0  0  0  # atno 17370 bound_to 10713
  156.0257  130.3780  150.1831 LP  0  0  0  0  0  0  0  0  0  0  0  0  # atno 17371 bound_to 10713
  140.8706  133.7991  155.9361 LP  0  0  0  0  0  0  0  0  0  0  0  0  # atno 17394 bound_to 11000
  140.8956  134.2442  157.5070 LP  0  0  0  0  0  0  0  0  0  0  0  0  # atno 17395 bound_to 11000

$$$$
