AV-unprocessed.smi:1585|AV-procd|sdf|6371|dock2
  -GOLD-   22720 6593D 1   1.00000     0.00000
 Structure written by MMmdl.
 42 43  0  0  0  0  0  0  0  0  3 V2000
  147.3470  135.3927  162.5605 C   0  0  0  0  0  0  0  0  0  0  0  0
  147.8540  135.7842  161.2147 C   0  0  0  0  0  0  0  0  0  0  0  0
  148.0397  135.0881  160.0540 C   0  0  0  0  0  0  0  0  0  0  0  0
  148.5626  136.0687  159.1674 C   0  0  0  0  0  0  0  0  0  0  0  0
  148.9028  135.8730  157.8840 N   0  5  0  0  0  0  0  0  0  0  0  0
  148.9500  134.6201  157.3770 C   0  0  0  0  0  0  0  0  0  0  0  0
  149.4959  133.6408  157.8904 O   0  0  0  0  0  0  0  0  0  0  0  0
  148.3279  134.4931  156.1980 N   0  0  0  0  0  0  0  0  0  0  0  0
  148.2458  133.2615  155.4239 C   0  0  0  0  0  0  0  0  0  0  0  0
  147.3841  133.4614  154.1656 C   0  0  2  0  0  0  0  0  0  0  0  0
  147.5247  134.8045  153.7450 O   0  0  0  0  0  0  0  0  0  0  0  0
  145.8909  133.2181  154.4649 C   0  0  0  0  0  0  0  0  0  0  0  0
  145.1333  132.7500  153.2759 N   0  3  0  0  0  0  0  0  0  0  0  0
  145.7571  131.5559  152.6484 C   0  0  0  0  0  0  0  0  0  0  0  0
  144.8799  130.9998  151.5142 C   0  0  0  0  0  0  0  0  0  0  0  0
  144.5895  132.0787  150.4632 C   0  0  0  0  0  0  0  0  0  0  0  0
  143.9784  133.3142  151.1368 C   0  0  0  0  0  0  0  0  0  0  0  0
  144.8777  133.8222  152.2763 C   0  0  0  0  0  0  0  0  0  0  0  0
  148.6677  137.2589  159.7347 N   0  0  0  0  0  0  0  0  0  0  0  0
  148.2221  137.0834  161.0503 O   0  0  0  0  0  0  0  0  0  0  0  0
  146.5324  134.6738  162.4723 H   0  0  0  0  0  0  0  0  0  0  0  0
  146.9736  136.2597  163.1060 H   0  0  0  0  0  0  0  0  0  0  0  0
  148.1399  134.9357  163.1524 H   0  0  0  0  0  0  0  0  0  0  0  0
  147.8400  134.0435  159.8690 H   0  0  0  0  0  0  0  0  0  0  0  0
  147.8919  135.3165  155.8096 H   0  0  0  0  0  0  0  0  0  0  0  0
  149.2604  132.9885  155.1283 H   0  0  0  0  0  0  0  0  0  0  0  0
  147.8671  132.4450  156.0413 H   0  0  0  0  0  0  0  0  0  0  0  0
  147.7313  132.7948  153.3764 H   0  0  0  0  0  0  0  0  0  0  0  0
  148.1265  134.8274  153.0156 H   0  0  0  0  0  0  0  0  0  0  0  0
  145.7738  132.4917  155.2704 H   0  0  0  0  0  0  0  0  0  0  0  0
  145.4594  134.1502  154.8339 H   0  0  0  0  0  0  0  0  0  0  0  0
  146.7456  131.8184  152.2677 H   0  0  0  0  0  0  0  0  0  0  0  0
  145.9023  130.7778  153.3987 H   0  0  0  0  0  0  0  0  0  0  0  0
  145.3718  130.1466  151.0465 H   0  0  0  0  0  0  0  0  0  0  0  0
  143.9411  130.6278  151.9269 H   0  0  0  0  0  0  0  0  0  0  0  0
  145.5131  132.3552  149.9528 H   0  0  0  0  0  0  0  0  0  0  0  0
  143.9137  131.6909  149.7002 H   0  0  0  0  0  0  0  0  0  0  0  0
  143.8281  134.1033  150.3995 H   0  0  0  0  0  0  0  0  0  0  0  0
  142.9919  133.0670  151.5313 H   0  0  0  0  0  0  0  0  0  0  0  0
  144.3959  134.6780  152.7471 H   0  0  0  0  0  0  0  0  0  0  0  0
  145.8266  134.1788  151.8725 H   0  0  0  0  0  0  0  0  0  0  0  0
  144.2336  132.4471  153.6218 H   0  0  0  0  0  0  0  0  0  0  0  0
  1  2  1  0  0  0  0
  1 21  1  0  0  0  0
  1 22  1  0  0  0  0
  1 23  1  0  0  0  0
  2 20  1  0  0  0  0
  2  3  2  0  0  0  0
  3  4  1  0  0  0  0
  3 24  1  0  0  0  0
  4  5  1  0  0  0  0
  4 19  2  0  0  0  0
  5  6  1  0  0  0  0
  6  7  2  0  0  0  0
  6  8  1  0  0  0  0
  8  9  1  0  0  0  0
  8 25  1  0  0  0  0
  9 10  1  0  0  0  0
  9 26  1  0  0  0  0
  9 27  1  0  0  0  0
 10 11  1  0  0  0  0
 10 12  1  0  0  0  0
 10 28  1  0  0  0  0
 11 29  1  0  0  0  0
 12 13  1  0  0  0  0
 12 30  1  0  0  0  0
 12 31  1  0  0  0  0
 13 18  1  0  0  0  0
 13 14  1  0  0  0  0
 13 42  1  0  0  0  0
 14 15  1  0  0  0  0
 14 32  1  0  0  0  0
 14 33  1  0  0  0  0
 15 16  1  0  0  0  0
 15 34  1  0  0  0  0
 15 35  1  0  0  0  0
 16 17  1  0  0  0  0
 16 36  1  0  0  0  0
 16 37  1  0  0  0  0
 17 18  1  0  0  0  0
 17 38  1  0  0  0  0
 17 39  1  0  0  0  0
 18 40  1  0  0  0  0
 18 41  1  0  0  0  0
 19 20  1  0  0  0  0
M  CHG  1   5  -1
M  CHG  1  13   1
M  END
> <s_m_source_file>
AV-unprocessed.smi

> <i_m_source_file_index>
1585

> <i_lp_mmshare_version>
43012

> <i_f3d_flags>
0

> <s_epik_input>
W0NIM11jMVtjSF1jKG5vMSlbTkhdQyg9TylbTkhdW0NIMl1bQ0BIXShbT0hdKVtDSDJdTjJbQ0gyXVtDSDJdW0NIMl1bQ0gyXVtDSDJdMg==

> <s_epik_cmdline>
J2VwaWtfcHl0aG9uJywgJy1waCcsICc3LjAnLCAnLXRuJywgJzgnLCAnLW1hJywgJzIwMCcsICctbWV0YWxfYmluZGluZycsICctaW1hZScsICc8aW5maWxlLm1hZT4nLCAnLW9tYWUnLCAnPG91dGZpbGUubWFlPic=

> <r_epik_Ionization_Penalty>
6.29903

> <r_epik_Ionization_Penalty_Charging>
6.29893

> <r_epik_Ionization_Penalty_Neutral>
0.000107719

> <r_epik_State_Penalty>
6.29786

> <r_epik_Charging_Adjusted_Penalty>
12.5968

> <i_epik_Tot_Q>
0

> <i_epik_Tot_abs_Q>
2

> <r_epik_Metal_State_Penalty>
2.22942

> <b_epik_Metal_Only>
1

> <s_lp_Force_Field>
OPLS_2005

> <r_lp_Energy>
8.76377

> <b_lp_Chiralities_Consistent>
1

> <s_lp_Variant>
AV-unprocessed.smi:1585-3

> <Gold.Version>
5.8.1

> <Gold.Id.Protein>
6NUR|6NUR_protein|mol2

> <Gold.PLP.Fitness>
44.2991

> <Gold.PLP.PLP>
-30.9504

> <Gold.PLP.part.hbond>
-7.0000

> <Gold.PLP.part.metal>
0.0000

> <Gold.PLP.part.buried>
-4.4799

> <Gold.PLP.part.nonpolar>
-20.0235

> <Gold.PLP.part.repulsive>
0.0003

> <Gold.PLP.ligand.clash>
0.0000

> <Gold.PLP.ligand.torsion>
1.1771

> <Gold.PLP.Chemscore.Hbond>
5.1238

> <Gold.PLP.Chemscore.CHOScore>
0.0000

> <Gold.PLP.Chemscore.Metal>
0.0000

> <Gold.Chemscore.Hbonds>
donor molecule, donor type, donor heavy atom, donor atom, acceptor molecule, acceptor atom, score
      L1  H    11    29       P1  7948  0.77
      L1  H    13    42       P1 10957  1.89
      P1  H  6896  6909       L1     7  1.00
      P1  H  6931  6943       L1    20  1.00
      P1  H  6934  6947       L1    20  0.17

> <Gold.PLP.Chemscore.Internal.Correction>
0.3314

> <Gold.Rescore>
     Score         DG    S(hbond)    S(metal)    S(lipo)     H(rot)  DE(clash)    DE(int)     intcor
     16.84     -18.04       3.46        0.00      62.13       2.45       0.02       1.18       ----

> <Gold.Chemscore.Fitness>
16.8412

> <Gold.Chemscore.DG>
-18.0414

> <Gold.Chemscore.ZeroCoef>
-5.4800

> <Gold.Chemscore.Hbond>
3.4593

> <Gold.Chemscore.Metal>
0.0000

> <Gold.Chemscore.Lipo>
62.1263

> <Gold.Chemscore.Internal_Hbond>
0.0000

> <Gold.Chemscore.DEClash>
0.0174

> <Gold.Chemscore.DEInternal>
1.1827

> <Gold.Chemscore.Rot>
2.4459

> <Gold.Chemscore.Internal.Correction>
   9.000000E+99

> <Gold.Chemscore.Hbonds>
donor molecule, donor type, donor heavy atom, donor atom, acceptor molecule, acceptor atom, score
      L1  H    11    29       P1  7948  0.64
      L1  H    13    42       P1 10957  0.27
      P1  H  6896  6909       L1     7  0.99
      P1  H  6931  6943       L1    20  0.38
      P1  H  6934  6947       L1    20  0.01

> <Gold.Chemscore.Hbond.Weighted>
-11.5541

> <Gold.Chemscore.Metal.Weighted>
-0.0000

> <Gold.Chemscore.Lipo.Weighted>
-7.2688

> <Gold.Chemscore.Internal_Hbond.Weighted>
0.0000

> <Gold.Chemscore.DEClash.Weighted>
0.0174

> <Gold.Chemscore.DEInternal.Weighted>
1.1827

> <Gold.Chemscore.Rot.Weighted>
6.2615

> <Gold.Chemscore.Internal.Correction.Weighted>
   9.000000E+99

> <Gold.Protein.RotatedTorsions>
[ 6907 6896 6895 6894 ] final   -1.34 input  -60.11 | X-H torsion
[ 7974 7965 7964 7962 ] final  160.79 input  175.53 | X-H torsion
[ 8008 7997 7996 7995 ] final   79.70 input   59.86 | X-H torsion
[ 10167 10162 10161 10158 ] final   18.69 input  -65.29 | X-H torsion
[ 10718 10713 10712 10709 ] final -103.68 input   66.30 | X-H torsion
[ 10763 10752 10751 10750 ] final   98.74 input  -60.55 | X-H torsion
[ 11005 11000 10999 10996 ] final  140.01 input  -57.11 | X-H torsion

> <Gold.Protein.ActiveResidues>
 VAL166  LYS551  ARG553  GLY616  TRP617  ASP618  TYR619  PRO620  LYS621  CYS622 
 ASP623  PHE694  ASN695  SER759  ASP760  ASP761  ALA762  ILE779  LEU786  VAL792 
 PHE793  MET794  SER795  GLU796  ALA797  LYS798  CYS799  TRP800  GLU811  SER814 

> <Gold.Protein.RotatedAtoms>
  151.5476  135.1068  159.9941 H   0  0  0  0  0  0  0  0  0  0  0  0  # atno 6907 bound_to 6896
  152.4506  133.7618  159.6761 H   0  0  0  0  0  0  0  0  0  0  0  0  # atno 6908 bound_to 6896
  150.8434  133.7833  159.3076 H   0  0  0  0  0  0  0  0  0  0  0  0  # atno 6909 bound_to 6896
  144.7719  139.7806  143.6294 H   0  0  0  0  0  0  0  0  0  0  0  0  # atno 7974 bound_to 7965
  155.8733  140.3448  155.5836 H   0  0  0  0  0  0  0  0  0  0  0  0  # atno 8008 bound_to 7997
  155.7803  140.0857  157.2082 H   0  0  0  0  0  0  0  0  0  0  0  0  # atno 8009 bound_to 7997
  154.4019  140.1502  156.3032 H   0  0  0  0  0  0  0  0  0  0  0  0  # atno 8010 bound_to 7997
  140.5635  143.9294  150.6659 H   0  0  0  0  0  0  0  0  0  0  0  0  # atno 10167 bound_to 10162
  156.0274  130.5478  150.7287 H   0  0  0  0  0  0  0  0  0  0  0  0  # atno 10718 bound_to 10713
  153.2928  135.4137  155.1182 H   0  0  0  0  0  0  0  0  0  0  0  0  # atno 10763 bound_to 10752
  154.8526  135.3522  154.5958 H   0  0  0  0  0  0  0  0  0  0  0  0  # atno 10764 bound_to 10752
  153.6381  135.7058  153.5309 H   0  0  0  0  0  0  0  0  0  0  0  0  # atno 10765 bound_to 10752
  140.0296  134.9358  157.0637 H   0  0  0  0  0  0  0  0  0  0  0  0  # atno 11005 bound_to 11000
  146.1871  139.5092  142.9829 LP  0  0  0  0  0  0  0  0  0  0  0  0  # atno 17320 bound_to 7965
  145.6299  141.0306  143.1869 LP  0  0  0  0  0  0  0  0  0  0  0  0  # atno 17321 bound_to 7965
  140.2751  143.3428  152.1202 LP  0  0  0  0  0  0  0  0  0  0  0  0  # atno 17342 bound_to 10162
  139.5081  144.6844  151.5925 LP  0  0  0  0  0  0  0  0  0  0  0  0  # atno 17343 bound_to 10162
  157.4885  131.0909  151.0455 LP  0  0  0  0  0  0  0  0  0  0  0  0  # atno 17370 bound_to 10713
  157.0868  130.5926  149.5431 LP  0  0  0  0  0  0  0  0  0  0  0  0  # atno 17371 bound_to 10713
  140.4248  134.1843  155.7165 LP  0  0  0  0  0  0  0  0  0  0  0  0  # atno 17394 bound_to 11000
  141.1823  133.8387  157.1213 LP  0  0  0  0  0  0  0  0  0  0  0  0  # atno 17395 bound_to 11000

$$$$
