AV-unprocessed.smi:14|AV-procd|sdf|77|dock2
  -GOLD-   2262015203D 1   1.00000     0.00000
 Structure written by MMmdl.
 57 60  0  0  0  0  0  0  0  0  1 V2000
  139.9820  135.6653  153.9265 N   0  0  0  0  0  0  0  0  0  0  0  0
  141.0045  135.3556  153.4824 C   0  0  0  0  0  0  0  0  0  0  0  0
  142.3044  134.9624  152.9176 C   0  0  0  0  0  0  0  0  0  0  0  0
  143.1151  136.1334  152.3350 C   0  0  0  0  0  0  0  0  0  0  0  0
  144.5246  135.8171  152.1063 N   0  0  0  0  0  0  0  0  0  0  0  0
  144.8481  134.8204  151.0828 C   0  0  0  0  0  0  0  0  0  0  0  0
  144.7490  133.3646  151.5924 C   0  0  2  0  0  0  0  0  0  0  0  0
  145.9404  132.5066  151.2012 C   0  0  0  0  0  0  0  0  0  0  0  0
  145.5897  132.0470  149.7872 C   0  0  0  0  0  0  0  0  0  0  0  0
  144.1694  132.1093  149.6895 O   0  0  0  0  0  0  0  0  0  0  0  0
  143.6189  132.5976  150.9076 C   0  0  0  0  0  0  0  0  0  0  0  0
  145.2960  135.8723  153.2219 C   0  0  0  0  0  0  0  0  0  0  0  0
  145.2188  134.8808  154.1492 N   0  0  0  0  0  0  0  0  0  0  0  0
  145.9648  134.9342  155.2563 C   0  0  0  0  0  0  0  0  0  0  0  0
  146.8355  135.8736  155.6310 N   0  0  0  0  0  0  0  0  0  0  0  0
  146.9158  136.8721  154.7054 C   0  0  0  0  0  0  0  0  0  0  0  0
  146.1899  136.9472  153.4834 C   0  0  0  0  0  0  0  0  0  0  0  0
  146.5475  138.0965  152.7899 N   0  0  0  0  0  0  0  0  0  0  0  0
  147.4298  138.6709  153.5604 C   0  0  0  0  0  0  0  0  0  0  0  0
  147.6983  138.0141  154.7408 N   0  0  0  0  0  0  0  0  0  0  0  0
  148.6380  138.4273  155.7738 C   0  0  0  0  0  0  0  0  0  0  0  0
  149.9034  139.1826  155.2568 C   0  0  0  0  0  0  0  0  0  0  0  0
  150.5676  138.3255  154.1434 C   0  0  0  0  0  0  0  0  0  0  0  0
  151.0067  137.0591  154.5941 O   0  0  0  0  0  0  0  0  0  0  0  0
  149.4715  140.5593  154.6879 C   0  0  0  0  0  0  0  0  0  0  0  0
  149.0440  141.5504  155.7879 C   0  0  0  0  0  0  0  0  0  0  0  0
  150.0834  141.6981  156.7479 O   0  0  0  0  0  0  0  0  0  0  0  0
  150.4065  140.4826  157.4120 C   0  0  0  0  0  0  0  0  0  0  0  0
  150.9248  139.4532  156.3919 C   0  0  0  0  0  0  0  0  0  0  0  0
  142.8700  134.4967  153.7248 H   0  0  0  0  0  0  0  0  0  0  0  0
  142.1343  134.1894  152.1678 H   0  0  0  0  0  0  0  0  0  0  0  0
  142.6678  136.4542  151.3937 H   0  0  0  0  0  0  0  0  0  0  0  0
  143.0363  136.9916  153.0013 H   0  0  0  0  0  0  0  0  0  0  0  0
  144.1866  134.9536  150.2262 H   0  0  0  0  0  0  0  0  0  0  0  0
  145.8557  135.0098  150.7112 H   0  0  0  0  0  0  0  0  0  0  0  0
  144.6026  133.3573  152.6727 H   0  0  0  0  0  0  0  0  0  0  0  0
  146.8976  133.0260  151.2550 H   0  0  0  0  0  0  0  0  0  0  0  0
  145.9976  131.6414  151.8632 H   0  0  0  0  0  0  0  0  0  0  0  0
  146.0186  132.7218  149.0457 H   0  0  0  0  0  0  0  0  0  0  0  0
  145.9571  131.0415  149.5807 H   0  0  0  0  0  0  0  0  0  0  0  0
  143.3215  131.7436  151.5175 H   0  0  0  0  0  0  0  0  0  0  0  0
  142.7317  133.2066  150.7311 H   0  0  0  0  0  0  0  0  0  0  0  0
  145.8459  134.1065  155.9399 H   0  0  0  0  0  0  0  0  0  0  0  0
  147.9092  139.5995  153.2874 H   0  0  0  0  0  0  0  0  0  0  0  0
  148.0986  139.0563  156.4833 H   0  0  0  0  0  0  0  0  0  0  0  0
  148.9088  137.5337  156.3335 H   0  0  0  0  0  0  0  0  0  0  0  0
  149.8723  138.1498  153.3229 H   0  0  0  0  0  0  0  0  0  0  0  0
  151.4269  138.8495  153.7237 H   0  0  0  0  0  0  0  0  0  0  0  0
  151.3151  136.5655  153.8496 H   0  0  0  0  0  0  0  0  0  0  0  0
  150.2972  141.0180  154.1433 H   0  0  0  0  0  0  0  0  0  0  0  0
  148.6667  140.4374  153.9622 H   0  0  0  0  0  0  0  0  0  0  0  0
  148.8423  142.5261  155.3457 H   0  0  0  0  0  0  0  0  0  0  0  0
  148.1215  141.2395  156.2779 H   0  0  0  0  0  0  0  0  0  0  0  0
  151.1781  140.6879  158.1540 H   0  0  0  0  0  0  0  0  0  0  0  0
  149.5407  140.1091  157.9591 H   0  0  0  0  0  0  0  0  0  0  0  0
  151.2117  138.5306  156.8949 H   0  0  0  0  0  0  0  0  0  0  0  0
  151.8481  139.8512  155.9701 H   0  0  0  0  0  0  0  0  0  0  0  0
  1  2  3  0  0  0  0
  2  3  1  0  0  0  0
  3  4  1  0  0  0  0
  3 30  1  0  0  0  0
  3 31  1  0  0  0  0
  4  5  1  0  0  0  0
  4 32  1  0  0  0  0
  4 33  1  0  0  0  0
  5  6  1  0  0  0  0
  5 12  1  0  0  0  0
  6  7  1  0  0  0  0
  6 34  1  0  0  0  0
  6 35  1  0  0  0  0
  7 11  1  0  0  0  0
  7  8  1  0  0  0  0
  7 36  1  0  0  0  0
  8  9  1  0  0  0  0
  8 37  1  0  0  0  0
  8 38  1  0  0  0  0
  9 10  1  0  0  0  0
  9 39  1  0  0  0  0
  9 40  1  0  0  0  0
 10 11  1  0  0  0  0
 11 41  1  0  0  0  0
 11 42  1  0  0  0  0
 12 17  1  0  0  0  0
 12 13  2  0  0  0  0
 13 14  1  0  0  0  0
 14 15  2  0  0  0  0
 14 43  1  0  0  0  0
 15 16  1  0  0  0  0
 16 20  1  0  0  0  0
 16 17  2  0  0  0  0
 17 18  1  0  0  0  0
 18 19  2  0  0  0  0
 19 20  1  0  0  0  0
 19 44  1  0  0  0  0
 20 21  1  0  0  0  0
 21 22  1  0  0  0  0
 21 45  1  0  0  0  0
 21 46  1  0  0  0  0
 22 29  1  0  0  0  0
 22 23  1  0  0  0  0
 22 25  1  0  0  0  0
 23 24  1  0  0  0  0
 23 47  1  0  0  0  0
 23 48  1  0  0  0  0
 24 49  1  0  0  0  0
 25 26  1  0  0  0  0
 25 50  1  0  0  0  0
 25 51  1  0  0  0  0
 26 27  1  0  0  0  0
 26 52  1  0  0  0  0
 26 53  1  0  0  0  0
 27 28  1  0  0  0  0
 28 29  1  0  0  0  0
 28 54  1  0  0  0  0
 28 55  1  0  0  0  0
 29 56  1  0  0  0  0
 29 57  1  0  0  0  0
M  END
> <s_m_source_file>
AV-unprocessed.smi

> <i_m_source_file_index>
14

> <i_lp_mmshare_version>
43012

> <i_f3d_flags>
0

> <s_epik_input>
W0NIMl0xT1tDSDJdW0NIMl1bQ0BIXTFbQ0gyXU4oW0NIMl1bQ0gyXUMjTiljKG5bY0hdbjIpYyhjMjMpbltjSF1uM1tDSDJdQzQoW0NIMl1bT0hdKVtDSDJdW0NIMl1PW0NIMl1bQ0gyXTQ=

> <s_epik_cmdline>
J2VwaWtfcHl0aG9uJywgJy1waCcsICc3LjAnLCAnLXRuJywgJzgnLCAnLW1hJywgJzIwMCcsICctbWV0YWxfYmluZGluZycsICctaW1hZScsICc8aW5maWxlLm1hZT4nLCAnLW9tYWUnLCAnPG91dGZpbGUubWFlPic=

> <r_lp_tautomer_probability>
1

> <r_epik_Ionization_Penalty>
0.000542547

> <r_epik_Ionization_Penalty_Charging>
0

> <r_epik_Ionization_Penalty_Neutral>
0.000542547

> <r_epik_State_Penalty>
0.000265709

> <r_epik_Charging_Adjusted_Penalty>
0.000265709

> <i_epik_Tot_Q>
0

> <i_epik_Tot_abs_Q>
0

> <r_epik_Metal_State_Penalty>
-0

> <b_epik_Metal_Only>
0

> <s_lp_Force_Field>
OPLS_2005

> <r_lp_Energy>
44.4286

> <b_lp_Chiralities_Consistent>
1

> <s_lp_Variant>
AV-unprocessed.smi:14-1

> <Gold.Version>
5.8.1

> <Gold.Id.Protein>
6NUR|6NUR_protein|mol2

> <Gold.PLP.Fitness>
48.4873

> <Gold.PLP.PLP>
-43.4398

> <Gold.PLP.part.hbond>
-4.1221

> <Gold.PLP.part.metal>
0.0000

> <Gold.PLP.part.buried>
-4.7858

> <Gold.PLP.part.nonpolar>
-35.0723

> <Gold.PLP.part.repulsive>
1.2333

> <Gold.PLP.ligand.clash>
0.0000

> <Gold.PLP.ligand.torsion>
2.8479

> <Gold.PLP.Chemscore.Hbond>
2.1856

> <Gold.PLP.Chemscore.CHOScore>
0.8747

> <Gold.PLP.Chemscore.Metal>
0.0000

> <Gold.Chemscore.Hbonds>
donor molecule, donor type, donor heavy atom, donor atom, acceptor molecule, acceptor atom, score
      P1  H 10785 10796       L1    10  0.08
      P1  H 11000 11005       L1     1  0.54
      L1  C    19    44       P1  7957  0.42

> <Gold.PLP.Chemscore.Internal.Correction>
1.5625

> <Gold.Rescore>
     Score         DG    S(hbond)    S(metal)    S(lipo)     H(rot)  DE(clash)    DE(int)     intcor
     10.02     -15.32       2.21        0.00      92.33       3.26       0.14       5.16       ----

> <Gold.Chemscore.Fitness>
10.0200

> <Gold.Chemscore.DG>
-15.3216

> <Gold.Chemscore.ZeroCoef>
-5.4800

> <Gold.Chemscore.Hbond>
2.2073

> <Gold.Chemscore.Metal>
0.0000

> <Gold.Chemscore.Lipo>
92.3313

> <Gold.Chemscore.Internal_Hbond>
0.0000

> <Gold.Chemscore.DEClash>
0.1421

> <Gold.Chemscore.DEInternal>
5.1595

> <Gold.Chemscore.Rot>
3.2553

> <Gold.Chemscore.Internal.Correction>
   9.000000E+99

> <Gold.Chemscore.Hbonds>
donor molecule, donor type, donor heavy atom, donor atom, acceptor molecule, acceptor atom, score
      L1  H    24    49       P1  7949  0.05
      P1  H 10785 10796       L1    10  0.08
      P1  H 11000 11005       L1     1  0.12

> <Gold.Chemscore.Hbond.Weighted>
-7.3724

> <Gold.Chemscore.Metal.Weighted>
-0.0000

> <Gold.Chemscore.Lipo.Weighted>
-10.8028

> <Gold.Chemscore.Internal_Hbond.Weighted>
0.0000

> <Gold.Chemscore.DEClash.Weighted>
0.1421

> <Gold.Chemscore.DEInternal.Weighted>
5.1595

> <Gold.Chemscore.Rot.Weighted>
8.3336

> <Gold.Chemscore.Internal.Correction.Weighted>
   9.000000E+99

> <Gold.Protein.RotatedTorsions>
[ 6907 6896 6895 6894 ] final  -28.03 input  -60.11 | X-H torsion
[ 7974 7965 7964 7962 ] final   16.01 input  175.53 | X-H torsion
[ 8008 7997 7996 7995 ] final   13.18 input   59.86 | X-H torsion
[ 10167 10162 10161 10158 ] final   40.72 input  -65.29 | X-H torsion
[ 10718 10713 10712 10709 ] final   92.30 input   66.30 | X-H torsion
[ 10763 10752 10751 10750 ] final  152.01 input  -60.55 | X-H torsion
[ 11005 11000 10999 10996 ] final   52.64 input  -57.11 | X-H torsion

> <Gold.Protein.ActiveResidues>
 VAL166  LYS551  ARG553  GLY616  TRP617  ASP618  TYR619  PRO620  LYS621  CYS622 
 ASP623  PHE694  ASN695  SER759  ASP760  ASP761  ALA762  ILE779  LEU786  VAL792 
 PHE793  MET794  SER795  GLU796  ALA797  LYS798  CYS799  TRP800  GLU811  SER814 

> <Gold.Protein.RotatedAtoms>
  151.1386  135.0168  159.8615 H   0  0  0  0  0  0  0  0  0  0  0  0  # atno 6907 bound_to 6896
  152.5452  134.1526  159.8534 H   0  0  0  0  0  0  0  0  0  0  0  0  # atno 6908 bound_to 6896
  151.1599  133.4806  159.2627 H   0  0  0  0  0  0  0  0  0  0  0  0  # atno 6909 bound_to 6896
  146.2262  139.8810  142.8571 H   0  0  0  0  0  0  0  0  0  0  0  0  # atno 7974 bound_to 7965
  154.8309  140.2899  155.5723 H   0  0  0  0  0  0  0  0  0  0  0  0  # atno 8008 bound_to 7997
  156.3005  140.2532  156.3164 H   0  0  0  0  0  0  0  0  0  0  0  0  # atno 8009 bound_to 7997
  154.9233  140.0385  157.1998 H   0  0  0  0  0  0  0  0  0  0  0  0  # atno 8010 bound_to 7997
  140.3714  144.2099  150.6133 H   0  0  0  0  0  0  0  0  0  0  0  0  # atno 10167 bound_to 10162
  157.6959  131.0438  150.3860 H   0  0  0  0  0  0  0  0  0  0  0  0  # atno 10718 bound_to 10713
  154.1130  135.2838  155.3226 H   0  0  0  0  0  0  0  0  0  0  0  0  # atno 10763 bound_to 10752
  154.6476  135.5380  153.7867 H   0  0  0  0  0  0  0  0  0  0  0  0  # atno 10764 bound_to 10752
  153.0339  135.6502  154.1288 H   0  0  0  0  0  0  0  0  0  0  0  0  # atno 10765 bound_to 10752
  140.0833  134.5309  155.8925 H   0  0  0  0  0  0  0  0  0  0  0  0  # atno 11005 bound_to 11000
  145.2512  141.0045  143.3880 LP  0  0  0  0  0  0  0  0  0  0  0  0  # atno 17320 bound_to 7965
  144.9373  139.4230  143.6466 LP  0  0  0  0  0  0  0  0  0  0  0  0  # atno 17321 bound_to 7965
  140.5029  143.2312  151.8651 LP  0  0  0  0  0  0  0  0  0  0  0  0  # atno 17342 bound_to 10162
  139.4803  144.5039  151.9024 LP  0  0  0  0  0  0  0  0  0  0  0  0  # atno 17343 bound_to 10162
  156.4269  130.3964  149.6787 LP  0  0  0  0  0  0  0  0  0  0  0  0  # atno 17370 bound_to 10713
  156.4018  130.7678  151.2686 LP  0  0  0  0  0  0  0  0  0  0  0  0  # atno 17371 bound_to 10713
  141.2054  133.6646  156.6178 LP  0  0  0  0  0  0  0  0  0  0  0  0  # atno 17394 bound_to 11000
  140.3457  134.7811  157.4430 LP  0  0  0  0  0  0  0  0  0  0  0  0  # atno 17395 bound_to 11000

$$$$
