AV-unprocessed.smi:599|AV-procd|sdf|3029|dock3
  -GOLD-   2262023543D 1   1.00000     0.00000
 Structure written by MMmdl.
 36 37  0  0  0  0  0  0  0  0  1 V2000
  147.0923  138.4082  154.8529 N   0  0  0  0  0  0  0  0  0  0  0  0
  147.4834  139.4952  154.9185 C   0  0  0  0  0  0  0  0  0  0  0  0
  147.9815  140.8821  155.0025 C   0  0  0  0  0  0  0  0  0  0  0  0
  149.4161  140.9300  155.2847 N   0  0  0  0  0  0  0  0  0  0  0  0
  150.0323  140.3545  156.3292 C   0  0  0  0  0  0  0  0  0  0  0  0
  149.4385  139.6935  157.1816 O   0  0  0  0  0  0  0  0  0  0  0  0
  151.5533  140.5453  156.4052 C   0  0  0  0  0  0  0  0  0  0  0  0
  151.9934  141.1656  157.6660 N   0  0  0  0  0  0  0  0  0  0  0  0
  151.5209  142.4633  157.9441 C   0  0  0  0  0  0  0  0  0  0  0  0
  151.8415  143.1352  159.0667 C   0  0  0  0  0  0  0  0  0  0  0  0
  151.3683  144.5597  159.3106 C   0  0  0  0  0  0  0  0  0  0  0  0
  150.0382  144.6371  159.2668 F   0  0  0  0  0  0  0  0  0  0  0  0
  151.7752  145.0069  160.4993 F   0  0  0  0  0  0  0  0  0  0  0  0
  151.8616  145.3670  158.3727 F   0  0  0  0  0  0  0  0  0  0  0  0
  152.7389  142.4636  159.9863 C   0  0  0  0  0  0  0  0  0  0  0  0
  153.2113  141.2285  159.7286 C   0  0  0  0  0  0  0  0  0  0  0  0
  152.8411  140.5048  158.5103 C   0  0  0  0  0  0  0  0  0  0  0  0
  153.2661  139.3757  158.2636 O   0  0  0  0  0  0  0  0  0  0  0  0
  147.6946  141.6193  153.6876 C   0  0  0  0  0  0  0  0  0  0  0  0
  146.2312  142.0473  153.7873 C   0  0  0  0  0  0  0  0  0  0  0  0
  145.9983  142.3416  155.2717 C   0  0  0  0  0  0  0  0  0  0  0  0
  147.1686  141.6973  156.0304 C   0  0  0  0  0  0  0  0  0  0  0  0
  149.9858  141.4478  154.6315 H   0  0  0  0  0  0  0  0  0  0  0  0
  152.0241  139.5706  156.2721 H   0  0  0  0  0  0  0  0  0  0  0  0
  151.8914  141.1431  155.5563 H   0  0  0  0  0  0  0  0  0  0  0  0
  150.8875  142.8844  157.1767 H   0  0  0  0  0  0  0  0  0  0  0  0
  153.0356  142.9577  160.8998 H   0  0  0  0  0  0  0  0  0  0  0  0
  153.8773  140.7583  160.4373 H   0  0  0  0  0  0  0  0  0  0  0  0
  148.3191  142.5111  153.6083 H   0  0  0  0  0  0  0  0  0  0  0  0
  147.8895  141.0054  152.8074 H   0  0  0  0  0  0  0  0  0  0  0  0
  146.0025  142.9024  153.1505 H   0  0  0  0  0  0  0  0  0  0  0  0
  145.5890  141.2231  153.4742 H   0  0  0  0  0  0  0  0  0  0  0  0
  145.9798  143.4167  155.4543 H   0  0  0  0  0  0  0  0  0  0  0  0
  145.0393  141.9392  155.5997 H   0  0  0  0  0  0  0  0  0  0  0  0
  146.8243  141.0801  156.8614 H   0  0  0  0  0  0  0  0  0  0  0  0
  147.7830  142.4905  156.4600 H   0  0  0  0  0  0  0  0  0  0  0  0
  1  2  3  0  0  0  0
  2  3  1  0  0  0  0
  3 22  1  0  0  0  0
  3  4  1  0  0  0  0
  3 19  1  0  0  0  0
  4  5  1  0  0  0  0
  4 23  1  0  0  0  0
  5  6  2  0  0  0  0
  5  7  1  0  0  0  0
  7  8  1  0  0  0  0
  7 24  1  0  0  0  0
  7 25  1  0  0  0  0
  8 17  1  0  0  0  0
  8  9  1  0  0  0  0
  9 10  2  0  0  0  0
  9 26  1  0  0  0  0
 10 11  1  0  0  0  0
 10 15  1  0  0  0  0
 11 12  1  0  0  0  0
 11 13  1  0  0  0  0
 11 14  1  0  0  0  0
 15 16  2  0  0  0  0
 15 27  1  0  0  0  0
 16 17  1  0  0  0  0
 16 28  1  0  0  0  0
 17 18  2  0  0  0  0
 19 20  1  0  0  0  0
 19 29  1  0  0  0  0
 19 30  1  0  0  0  0
 20 21  1  0  0  0  0
 20 31  1  0  0  0  0
 20 32  1  0  0  0  0
 21 22  1  0  0  0  0
 21 33  1  0  0  0  0
 21 34  1  0  0  0  0
 22 35  1  0  0  0  0
 22 36  1  0  0  0  0
M  END
> <s_m_source_file>
AV-unprocessed.smi

> <i_m_source_file_index>
599

> <i_lp_mmshare_version>
43012

> <i_f3d_flags>
0

> <s_epik_input>
W0NIMl0xW0NIMl1bQ0gyXVtDSDJdQzEoQyNOKVtOSF1DKD1PKVtDSDJdbjJbY0hdYyhDKEYpKEYpRilbY0hdW2NIXWMyPU8=

> <s_epik_cmdline>
J2VwaWtfcHl0aG9uJywgJy1waCcsICc3LjAnLCAnLXRuJywgJzgnLCAnLW1hJywgJzIwMCcsICctbWV0YWxfYmluZGluZycsICctaW1hZScsICc8aW5maWxlLm1hZT4nLCAnLW9tYWUnLCAnPG91dGZpbGUubWFlPic=

> <r_lp_tautomer_probability>
1

> <r_epik_Ionization_Penalty>
4.74739e-07

> <r_epik_Ionization_Penalty_Charging>
1.48482e-08

> <r_epik_Ionization_Penalty_Neutral>
4.59891e-07

> <r_epik_State_Penalty>
-0

> <r_epik_Charging_Adjusted_Penalty>
1.48482e-08

> <i_epik_Tot_Q>
0

> <i_epik_Tot_abs_Q>
0

> <r_epik_Metal_State_Penalty>
-0

> <b_epik_Metal_Only>
0

> <s_lp_Force_Field>
OPLS_2005

> <r_lp_Energy>
29.4695

> <b_lp_Chiralities_Consistent>
1

> <s_lp_Variant>
AV-unprocessed.smi:599-1

> <Gold.Version>
5.8.1

> <Gold.Id.Protein>
6NUR|6NUR_protein|mol2

> <Gold.PLP.Fitness>
46.1372

> <Gold.PLP.PLP>
-44.3884

> <Gold.PLP.part.hbond>
-1.0000

> <Gold.PLP.part.metal>
0.0000

> <Gold.PLP.part.buried>
-5.8644

> <Gold.PLP.part.nonpolar>
-37.3781

> <Gold.PLP.part.repulsive>
0.2110

> <Gold.PLP.ligand.clash>
0.0000

> <Gold.PLP.ligand.torsion>
0.1324

> <Gold.PLP.Chemscore.Hbond>
0.6500

> <Gold.PLP.Chemscore.CHOScore>
0.0000

> <Gold.PLP.Chemscore.Metal>
0.0000

> <Gold.Chemscore.Hbonds>
donor molecule, donor type, donor heavy atom, donor atom, acceptor molecule, acceptor atom, score
      P1  H  7997  8008       L1    18  0.65

> <Gold.PLP.Chemscore.Internal.Correction>
0.0636

> <Gold.Rescore>
     Score         DG    S(hbond)    S(metal)    S(lipo)     H(rot)  DE(clash)    DE(int)     intcor
     11.97     -13.53       0.85        0.00      80.90       1.66       0.49       1.07       ----

> <Gold.Chemscore.Fitness>
11.9737

> <Gold.Chemscore.DG>
-13.5347

> <Gold.Chemscore.ZeroCoef>
-5.4800

> <Gold.Chemscore.Hbond>
0.8498

> <Gold.Chemscore.Metal>
0.0000

> <Gold.Chemscore.Lipo>
80.9017

> <Gold.Chemscore.Internal_Hbond>
0.0000

> <Gold.Chemscore.DEClash>
0.4888

> <Gold.Chemscore.DEInternal>
1.0722

> <Gold.Chemscore.Rot>
1.6599

> <Gold.Chemscore.Internal.Correction>
   9.000000E+99

> <Gold.Chemscore.Hbonds>
donor molecule, donor type, donor heavy atom, donor atom, acceptor molecule, acceptor atom, score
      P1  H  7997  8008       L1    18  0.06

> <Gold.Chemscore.Hbond.Weighted>
-2.8384

> <Gold.Chemscore.Metal.Weighted>
-0.0000

> <Gold.Chemscore.Lipo.Weighted>
-9.4655

> <Gold.Chemscore.Internal_Hbond.Weighted>
0.0000

> <Gold.Chemscore.DEClash.Weighted>
0.4888

> <Gold.Chemscore.DEInternal.Weighted>
1.0722

> <Gold.Chemscore.Rot.Weighted>
4.2492

> <Gold.Chemscore.Internal.Correction.Weighted>
   9.000000E+99

> <Gold.Protein.RotatedTorsions>
[ 6907 6896 6895 6894 ] final  -70.13 input  -60.11 | X-H torsion
[ 7974 7965 7964 7962 ] final   32.89 input  175.53 | X-H torsion
[ 8008 7997 7996 7995 ] final  -78.96 input   59.86 | X-H torsion
[ 10167 10162 10161 10158 ] final    3.88 input  -65.29 | X-H torsion
[ 10718 10713 10712 10709 ] final  -72.94 input   66.30 | X-H torsion
[ 10763 10752 10751 10750 ] final  -42.31 input  -60.55 | X-H torsion
[ 11005 11000 10999 10996 ] final   45.64 input  -57.11 | X-H torsion

> <Gold.Protein.ActiveResidues>
 VAL166  LYS551  ARG553  GLY616  TRP617  ASP618  TYR619  PRO620  LYS621  CYS622 
 ASP623  PHE694  ASN695  SER759  ASP760  ASP761  ALA762  ILE779  LEU786  VAL792 
 PHE793  MET794  SER795  GLU796  ALA797  LYS798  CYS799  TRP800  GLU811  SER814 

> <Gold.Protein.RotatedAtoms>
  150.7272  134.5497  159.5788 H   0  0  0  0  0  0  0  0  0  0  0  0  # atno 6907 bound_to 6896
  152.2987  134.7633  160.0371 H   0  0  0  0  0  0  0  0  0  0  0  0  # atno 6908 bound_to 6896
  151.8221  133.3360  159.3624 H   0  0  0  0  0  0  0  0  0  0  0  0  # atno 6909 bound_to 6896
  146.1457  139.6468  142.9133 H   0  0  0  0  0  0  0  0  0  0  0  0  # atno 7974 bound_to 7965
  154.5739  140.0686  156.9005 H   0  0  0  0  0  0  0  0  0  0  0  0  # atno 8008 bound_to 7997
  155.2585  140.3357  155.4257 H   0  0  0  0  0  0  0  0  0  0  0  0  # atno 8009 bound_to 7997
  156.2139  140.1770  156.7618 H   0  0  0  0  0  0  0  0  0  0  0  0  # atno 8010 bound_to 7997
  140.6563  143.7418  150.7660 H   0  0  0  0  0  0  0  0  0  0  0  0  # atno 10167 bound_to 10162
  156.0300  130.4383  150.2668 H   0  0  0  0  0  0  0  0  0  0  0  0  # atno 10718 bound_to 10713
  153.9769  135.6721  153.4749 H   0  0  0  0  0  0  0  0  0  0  0  0  # atno 10763 bound_to 10752
  153.0766  135.4945  154.8414 H   0  0  0  0  0  0  0  0  0  0  0  0  # atno 10764 bound_to 10752
  154.7187  135.3112  154.9044 H   0  0  0  0  0  0  0  0  0  0  0  0  # atno 10765 bound_to 10752
  140.1441  134.4545  155.8428 H   0  0  0  0  0  0  0  0  0  0  0  0  # atno 11005 bound_to 11000
  145.4943  141.0438  143.2576 LP  0  0  0  0  0  0  0  0  0  0  0  0  # atno 17320 bound_to 7965
  144.7843  139.6459  143.7141 LP  0  0  0  0  0  0  0  0  0  0  0  0  # atno 17321 bound_to 7965
  140.1079  143.4727  152.2387 LP  0  0  0  0  0  0  0  0  0  0  0  0  # atno 17342 bound_to 10162
  139.5786  144.7500  151.3698 LP  0  0  0  0  0  0  0  0  0  0  0  0  # atno 17343 bound_to 10162
  157.0771  131.0133  151.3170 LP  0  0  0  0  0  0  0  0  0  0  0  0  # atno 17370 bound_to 10713
  157.4956  130.7848  149.7551 LP  0  0  0  0  0  0  0  0  0  0  0  0  # atno 17371 bound_to 10713
  141.2190  133.6845  156.7302 LP  0  0  0  0  0  0  0  0  0  0  0  0  # atno 17394 bound_to 11000
  140.2685  134.8411  157.3825 LP  0  0  0  0  0  0  0  0  0  0  0  0  # atno 17395 bound_to 11000

$$$$
