AV-unprocessed.smi:1603|AV-procd|sdf|6445|dock7
  -GOLD-   22720 7 93D 1   1.00000     0.00000
 Structure written by MMmdl.
 44 46  0  0  0  0  0  0  0  0  1 V2000
  153.4221  139.4842  158.3674 O   0  0  0  0  0  0  0  0  0  0  0  0
  153.0774  140.5439  158.8914 C   0  0  0  0  0  0  0  0  0  0  0  0
  153.5886  141.0063  160.1909 C   0  0  0  0  0  0  0  0  0  0  0  0
  154.6167  140.1339  160.9063 C   0  0  0  0  0  0  0  0  0  0  0  0
  154.2687  138.8463  160.8904 F   0  0  0  0  0  0  0  0  0  0  0  0
  155.8098  140.2420  160.3206 F   0  0  0  0  0  0  0  0  0  0  0  0
  154.7428  140.5060  162.1810 F   0  0  0  0  0  0  0  0  0  0  0  0
  153.1553  142.1790  160.7139 C   0  0  0  0  0  0  0  0  0  0  0  0
  152.1820  142.9817  160.0019 C   0  0  0  0  0  0  0  0  0  0  0  0
  151.6429  144.2801  160.5306 C   0  0  0  0  0  0  0  0  0  0  0  0
  150.5138  145.0215  159.8516 C   0  0  0  0  0  0  0  0  0  0  0  0
  151.9130  145.5929  159.8333 C   0  0  0  0  0  0  0  0  0  0  0  0
  151.7433  142.5793  158.8572 N   0  0  0  0  0  0  0  0  0  0  0  0
  152.1850  141.3940  158.3015 N   0  0  0  0  0  0  0  0  0  0  0  0
  151.5908  141.1041  156.9884 C   0  0  0  0  0  0  0  0  0  0  0  0
  150.6316  139.8935  157.0288 C   0  0  2  0  0  0  0  0  0  0  0  0
  151.4315  138.7276  157.0306 O   0  0  0  0  0  0  0  0  0  0  0  0
  149.6572  139.8296  155.8304 C   0  0  0  0  0  0  0  0  0  0  0  0
  148.8100  141.0087  155.6551 N   0  0  0  0  0  0  0  0  0  0  0  0
  148.2694  141.0675  154.3013 C   0  0  0  0  0  0  0  0  0  0  0  0
  147.3751  142.3018  154.0925 C   0  0  0  0  0  0  0  0  0  0  0  0
  146.3246  142.2956  155.0534 O   0  0  0  0  0  0  0  0  0  0  0  0
  146.8066  142.2833  156.3932 C   0  0  0  0  0  0  0  0  0  0  0  0
  147.7051  141.0529  156.6101 C   0  0  0  0  0  0  0  0  0  0  0  0
  153.5233  142.5372  161.6637 H   0  0  0  0  0  0  0  0  0  0  0  0
  151.6507  144.2858  161.6190 H   0  0  0  0  0  0  0  0  0  0  0  0
  150.1262  144.6277  158.9138 H   0  0  0  0  0  0  0  0  0  0  0  0
  149.7800  145.5102  160.4894 H   0  0  0  0  0  0  0  0  0  0  0  0
  152.1111  146.4609  160.4588 H   0  0  0  0  0  0  0  0  0  0  0  0
  152.4503  145.5680  158.8869 H   0  0  0  0  0  0  0  0  0  0  0  0
  151.0838  141.9708  156.5612 H   0  0  0  0  0  0  0  0  0  0  0  0
  152.4099  140.8914  156.2984 H   0  0  0  0  0  0  0  0  0  0  0  0
  150.0730  139.9143  157.9658 H   0  0  0  0  0  0  0  0  0  0  0  0
  152.3052  138.9630  156.7582 H   0  0  0  0  0  0  0  0  0  0  0  0
  150.2473  139.7217  154.9220 H   0  0  0  0  0  0  0  0  0  0  0  0
  149.0487  138.9251  155.8799 H   0  0  0  0  0  0  0  0  0  0  0  0
  149.0843  141.0883  153.5769 H   0  0  0  0  0  0  0  0  0  0  0  0
  147.6909  140.1657  154.0943 H   0  0  0  0  0  0  0  0  0  0  0  0
  147.9568  143.2204  154.1834 H   0  0  0  0  0  0  0  0  0  0  0  0
  146.9432  142.2926  153.0919 H   0  0  0  0  0  0  0  0  0  0  0  0
  147.3568  143.2034  156.5966 H   0  0  0  0  0  0  0  0  0  0  0  0
  145.9586  142.2589  157.0776 H   0  0  0  0  0  0  0  0  0  0  0  0
  147.1044  140.1463  156.5230 H   0  0  0  0  0  0  0  0  0  0  0  0
  148.0890  141.0768  157.6297 H   0  0  0  0  0  0  0  0  0  0  0  0
  1  2  2  0  0  0  0
  2 14  1  0  0  0  0
  2  3  1  0  0  0  0
  3  4  1  0  0  0  0
  3  8  2  0  0  0  0
  4  5  1  0  0  0  0
  4  6  1  0  0  0  0
  4  7  1  0  0  0  0
  8  9  1  0  0  0  0
  8 25  1  0  0  0  0
  9 10  1  0  0  0  0
  9 13  2  0  0  0  0
 10 12  1  0  0  0  0
 10 11  1  0  0  0  0
 10 26  1  0  0  0  0
 11 12  1  0  0  0  0
 11 27  1  0  0  0  0
 11 28  1  0  0  0  0
 12 29  1  0  0  0  0
 12 30  1  0  0  0  0
 13 14  1  0  0  0  0
 14 15  1  0  0  0  0
 15 16  1  0  0  0  0
 15 31  1  0  0  0  0
 15 32  1  0  0  0  0
 16 17  1  0  0  0  0
 16 18  1  0  0  0  0
 16 33  1  0  0  0  0
 17 34  1  0  0  0  0
 18 19  1  0  0  0  0
 18 35  1  0  0  0  0
 18 36  1  0  0  0  0
 19 24  1  0  0  0  0
 19 20  1  0  0  0  0
 20 21  1  0  0  0  0
 20 37  1  0  0  0  0
 20 38  1  0  0  0  0
 21 22  1  0  0  0  0
 21 39  1  0  0  0  0
 21 40  1  0  0  0  0
 22 23  1  0  0  0  0
 23 24  1  0  0  0  0
 23 41  1  0  0  0  0
 23 42  1  0  0  0  0
 24 43  1  0  0  0  0
 24 44  1  0  0  0  0
M  END
> <s_m_source_file>
AV-unprocessed.smi

> <i_m_source_file_index>
1603

> <i_lp_mmshare_version>
43012

> <i_f3d_flags>
0

> <s_epik_input>
Tz1jMWMoQyhGKShGKUYpW2NIXWMoW0NIXTJbQ0gyXVtDSDJdMilubjFbQ0gyXVtDQEhdKFtPSF0pW0NIMl1OM1tDSDJdW0NIMl1PW0NIMl1bQ0gyXTM=

> <s_epik_cmdline>
J2VwaWtfcHl0aG9uJywgJy1waCcsICc3LjAnLCAnLXRuJywgJzgnLCAnLW1hJywgJzIwMCcsICctbWV0YWxfYmluZGluZycsICctaW1hZScsICc8aW5maWxlLm1hZT4nLCAnLW9tYWUnLCAnPG91dGZpbGUubWFlPic=

> <r_lp_tautomer_probability>
1

> <r_epik_Ionization_Penalty>
0.450313

> <r_epik_Ionization_Penalty_Charging>
7.22079e-10

> <r_epik_Ionization_Penalty_Neutral>
0.450313

> <r_epik_State_Penalty>
0.45306

> <r_epik_Charging_Adjusted_Penalty>
0.45306

> <i_epik_Tot_Q>
0

> <i_epik_Tot_abs_Q>
0

> <r_epik_Metal_State_Penalty>
0.45306

> <b_epik_Metal_Only>
0

> <s_lp_Force_Field>
OPLS_2005

> <r_lp_Energy>
49.46

> <b_lp_Chiralities_Consistent>
1

> <s_lp_Variant>
AV-unprocessed.smi:1603-3

> <Gold.Version>
5.8.1

> <Gold.Id.Protein>
6NUR|6NUR_protein|mol2

> <Gold.PLP.Fitness>
47.7520

> <Gold.PLP.PLP>
-46.6444

> <Gold.PLP.part.hbond>
-1.0000

> <Gold.PLP.part.metal>
0.0000

> <Gold.PLP.part.buried>
-5.9354

> <Gold.PLP.part.nonpolar>
-38.8795

> <Gold.PLP.part.repulsive>
0.2541

> <Gold.PLP.ligand.clash>
0.6013

> <Gold.PLP.ligand.torsion>
1.0262

> <Gold.PLP.Chemscore.Hbond>
1.0000

> <Gold.PLP.Chemscore.CHOScore>
0.0000

> <Gold.PLP.Chemscore.Metal>
0.0000

> <Gold.Chemscore.Hbonds>
donor molecule, donor type, donor heavy atom, donor atom, acceptor molecule, acceptor atom, score
      P1  H  7997  8008       L1     1  1.00

> <Gold.PLP.Chemscore.Internal.Correction>
0.7613

> <Gold.Rescore>
     Score         DG    S(hbond)    S(metal)    S(lipo)     H(rot)  DE(clash)    DE(int)     intcor
     12.33     -14.69       0.98        0.00     103.93       2.43       0.15       2.21       ----

> <Gold.Chemscore.Fitness>
12.3324

> <Gold.Chemscore.DG>
-14.6903

> <Gold.Chemscore.ZeroCoef>
-5.4800

> <Gold.Chemscore.Hbond>
0.9774

> <Gold.Chemscore.Metal>
0.0000

> <Gold.Chemscore.Lipo>
103.9262

> <Gold.Chemscore.Internal_Hbond>
0.0000

> <Gold.Chemscore.DEClash>
0.1484

> <Gold.Chemscore.DEInternal>
2.2095

> <Gold.Chemscore.Rot>
2.4272

> <Gold.Chemscore.Internal.Correction>
   9.000000E+99

> <Gold.Chemscore.Hbonds>
donor molecule, donor type, donor heavy atom, donor atom, acceptor molecule, acceptor atom, score
      P1  H  7997  8008       L1     1  0.39

> <Gold.Chemscore.Hbond.Weighted>
-3.2645

> <Gold.Chemscore.Metal.Weighted>
-0.0000

> <Gold.Chemscore.Lipo.Weighted>
-12.1594

> <Gold.Chemscore.Internal_Hbond.Weighted>
0.0000

> <Gold.Chemscore.DEClash.Weighted>
0.1484

> <Gold.Chemscore.DEInternal.Weighted>
2.2095

> <Gold.Chemscore.Rot.Weighted>
6.2135

> <Gold.Chemscore.Internal.Correction.Weighted>
   9.000000E+99

> <Gold.Protein.RotatedTorsions>
[ 6907 6896 6895 6894 ] final -120.56 input  -60.11 | X-H torsion
[ 7974 7965 7964 7962 ] final   72.17 input  175.53 | X-H torsion
[ 8008 7997 7996 7995 ] final  -78.46 input   59.86 | X-H torsion
[ 10167 10162 10161 10158 ] final  -18.43 input  -65.29 | X-H torsion
[ 10718 10713 10712 10709 ] final  -49.09 input   66.30 | X-H torsion
[ 10763 10752 10751 10750 ] final  -68.60 input  -60.55 | X-H torsion
[ 11005 11000 10999 10996 ] final  100.33 input  -57.11 | X-H torsion

> <Gold.Protein.ActiveResidues>
 VAL166  LYS551  ARG553  GLY616  TRP617  ASP618  TYR619  PRO620  LYS621  CYS622 
 ASP623  PHE694  ASN695  SER759  ASP760  ASP761  ALA762  ILE779  LEU786  VAL792 
 PHE793  MET794  SER795  GLU796  ALA797  LYS798  CYS799  TRP800  GLU811  SER814 

> <Gold.Protein.RotatedAtoms>
  150.8404  133.7944  159.3062 H   0  0  0  0  0  0  0  0  0  0  0  0  # atno 6907 bound_to 6896
  151.5647  135.1063  159.9990 H   0  0  0  0  0  0  0  0  0  0  0  0  # atno 6908 bound_to 6896
  152.4469  133.7511  159.6751 H   0  0  0  0  0  0  0  0  0  0  0  0  # atno 6909 bound_to 6896
  145.7568  139.2783  143.1400 H   0  0  0  0  0  0  0  0  0  0  0  0  # atno 7974 bound_to 7965
  154.5692  140.0694  156.8938 H   0  0  0  0  0  0  0  0  0  0  0  0  # atno 8008 bound_to 7997
  155.2666  140.3362  155.4250 H   0  0  0  0  0  0  0  0  0  0  0  0  # atno 8009 bound_to 7997
  156.2105  140.1757  156.7691 H   0  0  0  0  0  0  0  0  0  0  0  0  # atno 8010 bound_to 7997
  140.7258  143.4918  150.9982 H   0  0  0  0  0  0  0  0  0  0  0  0  # atno 10167 bound_to 10162
  156.1926  130.4153  149.9350 H   0  0  0  0  0  0  0  0  0  0  0  0  # atno 10718 bound_to 10713
  154.3914  135.6052  153.5845 H   0  0  0  0  0  0  0  0  0  0  0  0  # atno 10763 bound_to 10752
  152.9787  135.5884  154.4293 H   0  0  0  0  0  0  0  0  0  0  0  0  # atno 10764 bound_to 10752
  154.4077  135.2844  155.2034 H   0  0  0  0  0  0  0  0  0  0  0  0  # atno 10765 bound_to 10752
  139.8771  134.9135  156.4740 H   0  0  0  0  0  0  0  0  0  0  0  0  # atno 11005 bound_to 11000
  146.0303  140.8264  142.9879 LP  0  0  0  0  0  0  0  0  0  0  0  0  # atno 17320 bound_to 7965
  144.6838  140.2760  143.7299 LP  0  0  0  0  0  0  0  0  0  0  0  0  # atno 17321 bound_to 7965
  139.8622  143.7299  152.3172 LP  0  0  0  0  0  0  0  0  0  0  0  0  # atno 17342 bound_to 10162
  139.7519  144.7532  151.0494 LP  0  0  0  0  0  0  0  0  0  0  0  0  # atno 17343 bound_to 10162
  156.7085  130.8961  151.3607 LP  0  0  0  0  0  0  0  0  0  0  0  0  # atno 17370 bound_to 10713
  157.6938  130.9261  150.0588 LP  0  0  0  0  0  0  0  0  0  0  0  0  # atno 17371 bound_to 10713
  140.8775  133.7942  155.9431 LP  0  0  0  0  0  0  0  0  0  0  0  0  # atno 17394 bound_to 11000
  140.8888  134.2520  157.5105 LP  0  0  0  0  0  0  0  0  0  0  0  0  # atno 17395 bound_to 11000

$$$$
