AV-unprocessed.smi:2999|AV-procd|sdf|11425|dock10
  -GOLD-   2272016353D 1   1.00000     0.00000
 Structure written by MMmdl.
 37 39  0  0  0  0  0  0  0  0  3 V2000
  149.8202  135.2033  156.3185 O   0  0  0  0  0  0  0  0  0  0  0  0
  150.2043  135.1118  155.1504 C   0  0  0  0  0  0  0  0  0  0  0  0
  149.8132  134.0761  154.3985 N   0  0  0  0  0  0  0  0  0  0  0  0
  148.9261  133.0047  154.8329 C   0  0  0  0  0  0  0  0  0  0  0  0
  148.4218  132.1888  153.6335 C   0  0  2  0  0  0  0  0  0  0  0  0
  147.6589  133.0476  152.6017 C   0  0  0  0  0  0  0  0  0  0  0  0
  147.1350  132.1976  151.5091 N   0  3  2  0  0  0  0  0  0  0  0  0
  146.4316  132.9821  150.4718 C   0  0  0  0  0  0  0  0  0  0  0  0
  144.9374  133.0634  150.6809 C   0  0  0  0  0  0  0  0  0  0  0  0
  145.5044  132.1559  149.6115 C   0  0  0  0  0  0  0  0  0  0  0  0
  146.3009  131.1034  152.0546 C   0  0  0  0  0  0  0  0  0  0  0  0
  147.0933  130.3032  153.1009 C   0  0  0  0  0  0  0  0  0  0  0  0
  147.5469  131.1785  154.1265 O   0  0  0  0  0  0  0  0  0  0  0  0
  151.0148  135.9755  154.4988 N   0  5  0  0  0  0  0  0  0  0  0  0
  151.0448  137.2698  154.8564 C   0  0  0  0  0  0  0  0  0  0  0  0
  150.0637  137.8567  155.5514 N   0  0  0  0  0  0  0  0  0  0  0  0
  150.2965  139.2096  155.8058 C   0  0  0  0  0  0  0  0  0  0  0  0
  151.4784  139.6654  155.2850 C   0  0  0  0  0  0  0  0  0  0  0  0
  152.3406  138.4012  154.4560 S   0  0  0  0  0  0  0  0  0  0  0  0
  150.1565  134.0368  153.4501 H   0  0  0  0  0  0  0  0  0  0  0  0
  149.4704  132.3584  155.5227 H   0  0  0  0  0  0  0  0  0  0  0  0
  148.0789  133.4186  155.3824 H   0  0  0  0  0  0  0  0  0  0  0  0
  149.2773  131.7101  153.1523 H   0  0  0  0  0  0  0  0  0  0  0  0
  146.8327  133.5723  153.0846 H   0  0  0  0  0  0  0  0  0  0  0  0
  148.3171  133.8083  152.1802 H   0  0  0  0  0  0  0  0  0  0  0  0
  146.9778  133.8219  150.0454 H   0  0  0  0  0  0  0  0  0  0  0  0
  144.5134  132.5918  151.5658 H   0  0  0  0  0  0  0  0  0  0  0  0
  144.4328  133.9687  150.3498 H   0  0  0  0  0  0  0  0  0  0  0  0
  145.3744  132.4634  148.5759 H   0  0  0  0  0  0  0  0  0  0  0  0
  145.4588  131.0823  149.7864 H   0  0  0  0  0  0  0  0  0  0  0  0
  145.3995  131.5201  152.5068 H   0  0  0  0  0  0  0  0  0  0  0  0
  145.9802  130.4446  151.2471 H   0  0  0  0  0  0  0  0  0  0  0  0
  146.4600  129.5357  153.5460 H   0  0  0  0  0  0  0  0  0  0  0  0
  147.9399  129.7906  152.6414 H   0  0  0  0  0  0  0  0  0  0  0  0
  149.5643  139.7733  156.3644 H   0  0  0  0  0  0  0  0  0  0  0  0
  151.8918  140.6615  155.3362 H   0  0  0  0  0  0  0  0  0  0  0  0
  147.9330  131.7677  151.0636 H   0  0  0  0  0  0  0  0  0  0  0  0
  1  2  2  0  0  0  0
  2  3  1  0  0  0  0
  2 14  1  0  0  0  0
  3  4  1  0  0  0  0
  3 20  1  0  0  0  0
  4  5  1  0  0  0  0
  4 21  1  0  0  0  0
  4 22  1  0  0  0  0
  5 13  1  0  0  0  0
  5  6  1  0  0  0  0
  5 23  1  0  0  0  0
  6  7  1  0  0  0  0
  6 24  1  0  0  0  0
  6 25  1  0  0  0  0
  7  8  1  0  0  0  0
  7 11  1  0  0  0  0
  7 37  1  0  0  0  0
  8 10  1  0  0  0  0
  8  9  1  0  0  0  0
  8 26  1  0  0  0  0
  9 10  1  0  0  0  0
  9 27  1  0  0  0  0
  9 28  1  0  0  0  0
 10 29  1  0  0  0  0
 10 30  1  0  0  0  0
 11 12  1  0  0  0  0
 11 31  1  0  0  0  0
 11 32  1  0  0  0  0
 12 13  1  0  0  0  0
 12 33  1  0  0  0  0
 12 34  1  0  0  0  0
 14 15  1  0  0  0  0
 15 19  1  0  0  0  0
 15 16  2  0  0  0  0
 16 17  1  0  0  0  0
 17 18  2  0  0  0  0
 17 35  1  0  0  0  0
 18 19  1  0  0  0  0
 18 36  1  0  0  0  0
M  CHG  1   7   1
M  CHG  1  14  -1
M  END
> <s_m_source_file>
AV-unprocessed.smi

> <i_m_source_file_index>
2999

> <i_lp_mmshare_version>
43012

> <i_f3d_flags>
0

> <s_epik_input>
czFbY0hdW2NIXW5jMVtOSF1DKD1PKVtOSF1bQ0gyXVtDQEBIXTJbQ0gyXU4oW0NIMl1bQ0gyXU8yKVtDSF0zW0NIMl1bQ0gyXTM=

> <s_epik_cmdline>
J2VwaWtfcHl0aG9uJywgJy1waCcsICc3LjAnLCAnLXRuJywgJzgnLCAnLW1hJywgJzIwMCcsICctbWV0YWxfYmluZGluZycsICctaW1hZScsICc8aW5maWxlLm1hZT4nLCAnLW9tYWUnLCAnPG91dGZpbGUubWFlPic=

> <r_lp_tautomer_probability>
0.999

> <r_epik_Ionization_Penalty>
7.79196

> <r_epik_Ionization_Penalty_Charging>
6.93299

> <r_epik_Ionization_Penalty_Neutral>
0.858963

> <r_epik_State_Penalty>
7.05108

> <r_epik_Charging_Adjusted_Penalty>
13.9841

> <i_epik_Tot_Q>
0

> <i_epik_Tot_abs_Q>
2

> <r_epik_Metal_State_Penalty>
3.05936

> <b_epik_Metal_Only>
1

> <s_lp_Force_Field>
OPLS_2005

> <r_lp_Energy>
14.1159

> <b_lp_Chiralities_Consistent>
1

> <s_lp_Variant>
AV-unprocessed.smi:2999-9

> <Gold.Version>
5.8.1

> <Gold.Id.Protein>
6NUR|6NUR_protein|mol2

> <Gold.PLP.Fitness>
42.4889

> <Gold.PLP.PLP>
-34.1443

> <Gold.PLP.part.hbond>
-2.0000

> <Gold.PLP.part.metal>
0.0000

> <Gold.PLP.part.buried>
-4.6567

> <Gold.PLP.part.nonpolar>
-29.0138

> <Gold.PLP.part.repulsive>
1.0458

> <Gold.PLP.ligand.clash>
0.0000

> <Gold.PLP.ligand.torsion>
0.9621

> <Gold.PLP.Chemscore.Hbond>
3.0000

> <Gold.PLP.Chemscore.CHOScore>
0.0000

> <Gold.PLP.Chemscore.Metal>
0.0000

> <Gold.Chemscore.Hbonds>
donor molecule, donor type, donor heavy atom, donor atom, acceptor molecule, acceptor atom, score
      L1  H     7    37       P1 10747  1.00
      P1  H 10752 10765       L1    14  2.00

> <Gold.PLP.Chemscore.Internal.Correction>
1.2687

> <Gold.Rescore>
     Score         DG    S(hbond)    S(metal)    S(lipo)     H(rot)  DE(clash)    DE(int)     intcor
     13.78     -16.17       1.70        0.00      76.72       1.55       0.01       2.38       ----

> <Gold.Chemscore.Fitness>
13.7775

> <Gold.Chemscore.DG>
-16.1668

> <Gold.Chemscore.ZeroCoef>
-5.4800

> <Gold.Chemscore.Hbond>
1.7005

> <Gold.Chemscore.Metal>
0.0000

> <Gold.Chemscore.Lipo>
76.7191

> <Gold.Chemscore.Internal_Hbond>
0.0000

> <Gold.Chemscore.DEClash>
0.0118

> <Gold.Chemscore.DEInternal>
2.3776

> <Gold.Chemscore.Rot>
1.5504

> <Gold.Chemscore.Internal.Correction>
   9.000000E+99

> <Gold.Chemscore.Hbonds>
donor molecule, donor type, donor heavy atom, donor atom, acceptor molecule, acceptor atom, score
      L1  H     7    37       P1 10747  0.98
      P1  H 10752 10765       L1    14  0.24

> <Gold.Chemscore.Hbond.Weighted>
-5.6797

> <Gold.Chemscore.Metal.Weighted>
-0.0000

> <Gold.Chemscore.Lipo.Weighted>
-8.9761

> <Gold.Chemscore.Internal_Hbond.Weighted>
0.0000

> <Gold.Chemscore.DEClash.Weighted>
0.0118

> <Gold.Chemscore.DEInternal.Weighted>
2.3776

> <Gold.Chemscore.Rot.Weighted>
3.9690

> <Gold.Chemscore.Internal.Correction.Weighted>
   9.000000E+99

> <Gold.Protein.RotatedTorsions>
[ 6907 6896 6895 6894 ] final -155.59 input  -60.11 | X-H torsion
[ 7974 7965 7964 7962 ] final   80.30 input  175.53 | X-H torsion
[ 8008 7997 7996 7995 ] final  -98.05 input   59.86 | X-H torsion
[ 10167 10162 10161 10158 ] final   19.49 input  -65.29 | X-H torsion
[ 10718 10713 10712 10709 ] final   56.24 input   66.30 | X-H torsion
[ 10763 10752 10751 10750 ] final  176.44 input  -60.55 | X-H torsion
[ 11005 11000 10999 10996 ] final -100.85 input  -57.11 | X-H torsion

> <Gold.Protein.ActiveResidues>
 VAL166  LYS551  ARG553  GLY616  TRP617  ASP618  TYR619  PRO620  LYS621  CYS622 
 ASP623  PHE694  ASN695  SER759  ASP760  ASP761  ALA762  ILE779  LEU786  VAL792 
 PHE793  MET794  SER795  GLU796  ALA797  LYS798  CYS799  TRP800  GLU811  SER814 

> <Gold.Protein.RotatedAtoms>
  151.2748  133.4238  159.2623 H   0  0  0  0  0  0  0  0  0  0  0  0  # atno 6907 bound_to 6896
  151.0413  134.9609  159.8173 H   0  0  0  0  0  0  0  0  0  0  0  0  # atno 6908 bound_to 6896
  152.5365  134.2705  159.9022 H   0  0  0  0  0  0  0  0  0  0  0  0  # atno 6909 bound_to 6896
  145.6530  139.2452  143.1966 H   0  0  0  0  0  0  0  0  0  0  0  0  # atno 7974 bound_to 7965
  154.7959  140.0458  157.1236 H   0  0  0  0  0  0  0  0  0  0  0  0  # atno 8008 bound_to 7997
  154.9535  140.3068  155.5044 H   0  0  0  0  0  0  0  0  0  0  0  0  # atno 8009 bound_to 7997
  156.2956  140.2283  156.4615 H   0  0  0  0  0  0  0  0  0  0  0  0  # atno 8010 bound_to 7997
  140.5575  143.9398  150.6619 H   0  0  0  0  0  0  0  0  0  0  0  0  # atno 10167 bound_to 10162
  157.5414  130.8700  149.8828 H   0  0  0  0  0  0  0  0  0  0  0  0  # atno 10718 bound_to 10713
  154.4812  135.2775  155.1569 H   0  0  0  0  0  0  0  0  0  0  0  0  # atno 10763 bound_to 10752
  154.3279  135.6196  153.5541 H   0  0  0  0  0  0  0  0  0  0  0  0  # atno 10764 bound_to 10752
  152.9875  135.5758  154.5213 H   0  0  0  0  0  0  0  0  0  0  0  0  # atno 10765 bound_to 10752
  141.1254  133.8431  157.1156 H   0  0  0  0  0  0  0  0  0  0  0  0  # atno 11005 bound_to 11000
  146.1188  140.7335  142.9467 LP  0  0  0  0  0  0  0  0  0  0  0  0  # atno 17320 bound_to 7965
  144.7116  140.4059  143.7076 LP  0  0  0  0  0  0  0  0  0  0  0  0  # atno 17321 bound_to 7965
  140.2840  143.3369  152.1124 LP  0  0  0  0  0  0  0  0  0  0  0  0  # atno 17342 bound_to 10162
  139.5054  144.6795  151.6045 LP  0  0  0  0  0  0  0  0  0  0  0  0  # atno 17343 bound_to 10162
  156.0500  130.3719  150.1224 LP  0  0  0  0  0  0  0  0  0  0  0  0  # atno 17370 bound_to 10713
  156.9404  130.9742  151.3517 LP  0  0  0  0  0  0  0  0  0  0  0  0  # atno 17371 bound_to 10713
  140.0248  134.9929  157.0665 LP  0  0  0  0  0  0  0  0  0  0  0  0  # atno 17394 bound_to 11000
  140.4380  134.1711  155.7172 LP  0  0  0  0  0  0  0  0  0  0  0  0  # atno 17395 bound_to 11000

$$$$
