AV-unprocessed.smi:1462|AV-procd|sdf|5932|dock2
  -GOLD-   22720 6 13D 1   1.00000     0.00000
 Structure written by MMmdl.
 42 43  0  0  0  0  0  0  0  0  2 V2000
  145.6064  137.2914  152.4295 C   0  0  0  0  0  0  0  0  0  0  0  0
  146.6063  138.1076  151.7579 N   0  0  0  0  0  0  0  0  0  0  0  0
  146.2149  138.6662  150.4725 C   0  0  0  0  0  0  0  0  0  0  0  0
  147.2006  139.0515  152.6068 C   0  0  0  0  0  0  0  0  0  0  0  0
  146.6201  140.3205  152.8103 C   0  0  0  0  0  0  0  0  0  0  0  0
  147.2503  141.2383  153.6752 C   0  0  0  0  0  0  0  0  0  0  0  0
  148.4561  140.8830  154.3177 C   0  0  0  0  0  0  0  0  0  0  0  0
  149.0457  141.8371  155.1902 N   0  0  0  0  0  0  0  0  0  0  0  0
  150.1784  141.7309  155.9065 C   0  0  0  0  0  0  0  0  0  0  0  0
  150.9265  140.7537  155.9098 O   0  0  0  0  0  0  0  0  0  0  0  0
  150.4058  142.8476  156.6129 N   0  0  0  0  0  0  0  0  0  0  0  0
  151.5543  143.0979  157.4801 C   0  0  0  0  0  0  0  0  0  0  0  0
  151.6994  141.9464  158.4939 C   0  0  0  0  0  0  0  0  0  0  0  0
  152.8330  142.2161  159.4969 C   0  0  0  0  0  0  0  0  0  0  0  0
  152.6342  143.5598  160.2149 C   0  0  0  0  0  0  0  0  0  0  0  0
  152.5062  144.7110  159.2052 C   0  0  0  0  0  0  0  0  0  0  0  0
  151.3732  144.4485  158.1999 C   0  0  0  0  0  0  0  0  0  0  0  0
  148.9883  139.5911  154.0833 C   0  0  0  0  0  0  0  0  0  0  0  0
  148.3515  138.7404  153.2490 N   0  3  0  0  0  0  0  0  0  0  0  0
  145.9865  136.9125  153.3791 H   0  0  0  0  0  0  0  0  0  0  0  0
  145.3409  136.4357  151.8082 H   0  0  0  0  0  0  0  0  0  0  0  0
  144.6998  137.8654  152.6250 H   0  0  0  0  0  0  0  0  0  0  0  0
  147.0323  139.2392  150.0329 H   0  0  0  0  0  0  0  0  0  0  0  0
  145.3504  139.3227  150.5775 H   0  0  0  0  0  0  0  0  0  0  0  0
  145.9533  137.8669  149.7787 H   0  0  0  0  0  0  0  0  0  0  0  0
  145.7007  140.5894  152.3109 H   0  0  0  0  0  0  0  0  0  0  0  0
  146.8095  142.2112  153.8375 H   0  0  0  0  0  0  0  0  0  0  0  0
  148.5780  142.7308  155.2351 H   0  0  0  0  0  0  0  0  0  0  0  0
  149.7321  143.5956  156.5391 H   0  0  0  0  0  0  0  0  0  0  0  0
  152.4726  143.1473  156.8920 H   0  0  0  0  0  0  0  0  0  0  0  0
  150.7635  141.8115  159.0381 H   0  0  0  0  0  0  0  0  0  0  0  0
  151.8899  141.0091  157.9695 H   0  0  0  0  0  0  0  0  0  0  0  0
  152.8835  141.4081  160.2273 H   0  0  0  0  0  0  0  0  0  0  0  0
  153.7897  142.2201  158.9733 H   0  0  0  0  0  0  0  0  0  0  0  0
  151.7379  143.5149  160.8353 H   0  0  0  0  0  0  0  0  0  0  0  0
  153.4690  143.7482  160.8906 H   0  0  0  0  0  0  0  0  0  0  0  0
  152.3259  145.6487  159.7318 H   0  0  0  0  0  0  0  0  0  0  0  0
  153.4483  144.8332  158.6695 H   0  0  0  0  0  0  0  0  0  0  0  0
  151.3363  145.2582  157.4703 H   0  0  0  0  0  0  0  0  0  0  0  0
  150.4174  144.4625  158.7258 H   0  0  0  0  0  0  0  0  0  0  0  0
  149.8863  139.1959  154.5338 H   0  0  0  0  0  0  0  0  0  0  0  0
  148.7580  137.8169  153.0981 H   0  0  0  0  0  0  0  0  0  0  0  0
  1  2  1  0  0  0  0
  1 20  1  0  0  0  0
  1 21  1  0  0  0  0
  1 22  1  0  0  0  0
  2  3  1  0  0  0  0
  2  4  1  0  0  0  0
  3 23  1  0  0  0  0
  3 24  1  0  0  0  0
  3 25  1  0  0  0  0
  4 19  1  0  0  0  0
  4  5  2  0  0  0  0
  5  6  1  0  0  0  0
  5 26  1  0  0  0  0
  6  7  2  0  0  0  0
  6 27  1  0  0  0  0
  7  8  1  0  0  0  0
  7 18  1  0  0  0  0
  8  9  1  0  0  0  0
  8 28  1  0  0  0  0
  9 10  2  0  0  0  0
  9 11  1  0  0  0  0
 11 12  1  0  0  0  0
 11 29  1  0  0  0  0
 12 17  1  0  0  0  0
 12 13  1  0  0  0  0
 12 30  1  0  0  0  0
 13 14  1  0  0  0  0
 13 31  1  0  0  0  0
 13 32  1  0  0  0  0
 14 15  1  0  0  0  0
 14 33  1  0  0  0  0
 14 34  1  0  0  0  0
 15 16  1  0  0  0  0
 15 35  1  0  0  0  0
 15 36  1  0  0  0  0
 16 17  1  0  0  0  0
 16 37  1  0  0  0  0
 16 38  1  0  0  0  0
 17 39  1  0  0  0  0
 17 40  1  0  0  0  0
 18 19  2  0  0  0  0
 18 41  1  0  0  0  0
 19 42  1  0  0  0  0
M  CHG  1  19   1
M  END
> <s_m_source_file>
AV-unprocessed.smi

> <i_m_source_file_index>
1462

> <i_lp_mmshare_version>
43012

> <i_f3d_flags>
0

> <s_epik_input>
W0NIM11OKFtDSDNdKWMxW2NIXVtjSF1jKFtjSF1uMSlbTkhdQyg9TylbTkhdW0NIXTJbQ0gyXVtDSDJdW0NIMl1bQ0gyXVtDSDJdMg==

> <s_epik_cmdline>
J2VwaWtfcHl0aG9uJywgJy1waCcsICc3LjAnLCAnLXRuJywgJzgnLCAnLW1hJywgJzIwMCcsICctbWV0YWxfYmluZGluZycsICctaW1hZScsICc8aW5maWxlLm1hZT4nLCAnLW9tYWUnLCAnPG91dGZpbGUubWFlPic=

> <r_lp_tautomer_probability>
0.999994

> <r_epik_Ionization_Penalty>
0.251279

> <r_epik_Ionization_Penalty_Charging>
0.251258

> <r_epik_Ionization_Penalty_Neutral>
2.1482e-05

> <r_epik_State_Penalty>
0.242611

> <r_epik_Charging_Adjusted_Penalty>
0.493869

> <i_epik_Tot_Q>
1

> <i_epik_Tot_abs_Q>
1

> <r_epik_Metal_State_Penalty>
0.533707

> <b_epik_Metal_Only>
0

> <s_lp_Force_Field>
OPLS_2005

> <r_lp_Energy>
22.7903

> <b_lp_Chiralities_Consistent>
1

> <s_lp_Variant>
AV-unprocessed.smi:1462-1

> <Gold.Version>
5.8.1

> <Gold.Id.Protein>
6NUR|6NUR_protein|mol2

> <Gold.PLP.Fitness>
48.3908

> <Gold.PLP.PLP>
-37.9137

> <Gold.PLP.part.hbond>
-4.0000

> <Gold.PLP.part.metal>
0.0000

> <Gold.PLP.part.buried>
4.3486

> <Gold.PLP.part.nonpolar>
-39.9703

> <Gold.PLP.part.repulsive>
1.2421

> <Gold.PLP.ligand.clash>
0.0000

> <Gold.PLP.ligand.torsion>
0.5386

> <Gold.PLP.Chemscore.Hbond>
3.7840

> <Gold.PLP.Chemscore.CHOScore>
0.0000

> <Gold.PLP.Chemscore.Metal>
0.0000

> <Gold.Chemscore.Hbonds>
donor molecule, donor type, donor heavy atom, donor atom, acceptor molecule, acceptor atom, score
      L1  H     8    28       P1  8028  0.86
      L1  H    11    29       P1  8028  1.00
      L1  H    19    42       P1  7948  1.89

> <Gold.PLP.Chemscore.Internal.Correction>
0.2023

> <Gold.Rescore>
     Score         DG    S(hbond)    S(metal)    S(lipo)     H(rot)  DE(clash)    DE(int)     intcor
     18.23     -24.95       2.69        0.00     115.79       1.20       3.77       2.96       ----

> <Gold.Chemscore.Fitness>
18.2264

> <Gold.Chemscore.DG>
-24.9502

> <Gold.Chemscore.ZeroCoef>
-5.4800

> <Gold.Chemscore.Hbond>
2.6900

> <Gold.Chemscore.Metal>
0.0000

> <Gold.Chemscore.Lipo>
115.7881

> <Gold.Chemscore.Internal_Hbond>
0.0000

> <Gold.Chemscore.DEClash>
3.7686

> <Gold.Chemscore.DEInternal>
2.9552

> <Gold.Chemscore.Rot>
1.1960

> <Gold.Chemscore.Internal.Correction>
   9.000000E+99

> <Gold.Chemscore.Hbonds>
donor molecule, donor type, donor heavy atom, donor atom, acceptor molecule, acceptor atom, score
      L1  H     8    28       P1  8028  0.79
      L1  H    11    29       P1  8028  0.96
      L1  H    19    42       P1  7948  0.87

> <Gold.Chemscore.Hbond.Weighted>
-8.9846

> <Gold.Chemscore.Metal.Weighted>
-0.0000

> <Gold.Chemscore.Lipo.Weighted>
-13.5472

> <Gold.Chemscore.Internal_Hbond.Weighted>
0.0000

> <Gold.Chemscore.DEClash.Weighted>
3.7686

> <Gold.Chemscore.DEInternal.Weighted>
2.9552

> <Gold.Chemscore.Rot.Weighted>
3.0617

> <Gold.Chemscore.Internal.Correction.Weighted>
   9.000000E+99

> <Gold.Protein.RotatedTorsions>
[ 6907 6896 6895 6894 ] final -151.29 input  -60.11 | X-H torsion
[ 7974 7965 7964 7962 ] final   60.30 input  175.53 | X-H torsion
[ 8008 7997 7996 7995 ] final -166.65 input   59.86 | X-H torsion
[ 10167 10162 10161 10158 ] final  147.51 input  -65.29 | X-H torsion
[ 10718 10713 10712 10709 ] final   52.01 input   66.30 | X-H torsion
[ 10763 10752 10751 10750 ] final   35.50 input  -60.55 | X-H torsion
[ 11005 11000 10999 10996 ] final   14.92 input  -57.11 | X-H torsion

> <Gold.Protein.ActiveResidues>
 VAL166  LYS551  ARG553  GLY616  TRP617  ASP618  TYR619  PRO620  LYS621  CYS622 
 ASP623  PHE694  ASN695  SER759  ASP760  ASP761  ALA762  ILE779  LEU786  VAL792 
 PHE793  MET794  SER795  GLU796  ALA797  LYS798  CYS799  TRP800  GLU811  SER814 

> <Gold.Protein.RotatedAtoms>
  151.2109  133.4556  159.2597 H   0  0  0  0  0  0  0  0  0  0  0  0  # atno 6907 bound_to 6896
  151.0978  134.9954  159.8444 H   0  0  0  0  0  0  0  0  0  0  0  0  # atno 6908 bound_to 6896
  152.5440  134.2038  159.8775 H   0  0  0  0  0  0  0  0  0  0  0  0  # atno 6909 bound_to 6896
  145.8976  139.3557  143.0612 H   0  0  0  0  0  0  0  0  0  0  0  0  # atno 7974 bound_to 7965
  155.8667  140.0987  157.1577 H   0  0  0  0  0  0  0  0  0  0  0  0  # atno 8008 bound_to 7997
  154.3994  140.1355  156.4090 H   0  0  0  0  0  0  0  0  0  0  0  0  # atno 8009 bound_to 7997
  155.7796  140.3459  155.5293 H   0  0  0  0  0  0  0  0  0  0  0  0  # atno 8010 bound_to 7997
  139.4889  144.5750  151.6982 H   0  0  0  0  0  0  0  0  0  0  0  0  # atno 10167 bound_to 10162
  157.5034  130.8453  149.8345 H   0  0  0  0  0  0  0  0  0  0  0  0  # atno 10718 bound_to 10713
  153.0117  135.6331  154.1836 H   0  0  0  0  0  0  0  0  0  0  0  0  # atno 10763 bound_to 10752
  154.1578  135.2825  155.3119 H   0  0  0  0  0  0  0  0  0  0  0  0  # atno 10764 bound_to 10752
  154.6005  135.5589  153.7430 H   0  0  0  0  0  0  0  0  0  0  0  0  # atno 10765 bound_to 10752
  140.4641  134.1097  155.7721 H   0  0  0  0  0  0  0  0  0  0  0  0  # atno 11005 bound_to 11000
  145.8831  140.9350  143.0591 LP  0  0  0  0  0  0  0  0  0  0  0  0  # atno 17320 bound_to 7965
  144.6734  140.0806  143.7469 LP  0  0  0  0  0  0  0  0  0  0  0  0  # atno 17321 bound_to 7965
  140.5345  144.0678  150.6065 LP  0  0  0  0  0  0  0  0  0  0  0  0  # atno 17342 bound_to 10162
  140.3679  143.2871  152.0311 LP  0  0  0  0  0  0  0  0  0  0  0  0  # atno 17343 bound_to 10162
  156.0243  130.3784  150.1868 LP  0  0  0  0  0  0  0  0  0  0  0  0  # atno 17370 bound_to 10713
  157.0058  130.9936  151.3379 LP  0  0  0  0  0  0  0  0  0  0  0  0  # atno 17371 bound_to 10713
  141.1607  133.8798  157.1855 LP  0  0  0  0  0  0  0  0  0  0  0  0  # atno 17394 bound_to 11000
  139.9926  135.0059  157.0010 LP  0  0  0  0  0  0  0  0  0  0  0  0  # atno 17395 bound_to 11000

$$$$
