AV-unprocessed.smi:1602|AV-procd|sdf|6441|dock3
  -GOLD-   22720 7 93D 1   1.00000     0.00000
 Structure written by MMmdl.
 35 36  0  0  0  0  0  0  0  0  2 V2000
  151.2043  141.2927  157.6128 C   0  0  0  0  0  0  0  0  0  0  0  0
  151.7783  140.8254  158.9594 C   0  0  2  0  0  0  0  0  0  0  0  0
  152.8615  141.7866  159.5252 C   0  0  0  0  0  0  0  0  0  0  0  0
  152.5363  143.2104  159.4575 N   0  0  0  0  0  0  0  0  0  0  0  0
  152.4379  144.0236  158.3442 C   0  0  0  0  0  0  0  0  0  0  0  0
  152.0899  145.2716  158.7753 C   0  0  0  0  0  0  0  0  0  0  0  0
  151.9784  145.1224  160.1855 C   0  0  0  0  0  0  0  0  0  0  0  0
  152.2318  143.8891  160.5893 N   0  0  0  0  0  0  0  0  0  0  0  0
  152.3147  139.4812  158.7976 N   0  5  0  0  0  0  0  0  0  0  0  0
  151.3173  138.2320  158.5240 S   0  0  0  0  0  0  0  0  0  0  0  0
  151.8265  136.9340  158.9965 O   0  0  0  0  0  0  0  0  0  0  0  0
  149.9106  138.5604  158.8073 O   0  0  0  0  0  0  0  0  0  0  0  0
  151.4802  138.1971  156.7953 N   0  0  0  0  0  0  0  0  0  0  0  0
  150.6733  137.1984  156.0738 C   0  0  0  0  0  0  0  0  0  0  0  0
  150.7355  137.4230  154.5542 C   0  0  0  0  0  0  0  0  0  0  0  0
  152.0846  137.4519  154.1156 O   0  0  0  0  0  0  0  0  0  0  0  0
  152.7939  138.5287  154.7078 C   0  0  0  0  0  0  0  0  0  0  0  0
  152.8378  138.3582  156.2343 C   0  0  0  0  0  0  0  0  0  0  0  0
  150.8141  142.3078  157.6871 H   0  0  0  0  0  0  0  0  0  0  0  0
  150.3836  140.6497  157.2929 H   0  0  0  0  0  0  0  0  0  0  0  0
  151.9565  141.2811  156.8234 H   0  0  0  0  0  0  0  0  0  0  0  0
  150.9490  140.8236  159.6678 H   0  0  0  0  0  0  0  0  0  0  0  0
  153.0398  141.5423  160.5728 H   0  0  0  0  0  0  0  0  0  0  0  0
  153.8164  141.6236  159.0245 H   0  0  0  0  0  0  0  0  0  0  0  0
  152.6290  143.6493  157.3494 H   0  0  0  0  0  0  0  0  0  0  0  0
  151.9354  146.1553  158.1749 H   0  0  0  0  0  0  0  0  0  0  0  0
  151.7170  145.8667  160.9229 H   0  0  0  0  0  0  0  0  0  0  0  0
  151.0420  136.2028  156.3232 H   0  0  0  0  0  0  0  0  0  0  0  0
  149.6366  137.2492  156.4059 H   0  0  0  0  0  0  0  0  0  0  0  0
  150.2146  136.6170  154.0373 H   0  0  0  0  0  0  0  0  0  0  0  0
  150.2315  138.3511  154.2797 H   0  0  0  0  0  0  0  0  0  0  0  0
  153.8072  138.5469  154.3063 H   0  0  0  0  0  0  0  0  0  0  0  0
  152.3307  139.4793  154.4380 H   0  0  0  0  0  0  0  0  0  0  0  0
  153.3364  139.2190  156.6780 H   0  0  0  0  0  0  0  0  0  0  0  0
  153.4319  137.4815  156.4942 H   0  0  0  0  0  0  0  0  0  0  0  0
  1  2  1  0  0  0  0
  1 19  1  0  0  0  0
  1 20  1  0  0  0  0
  1 21  1  0  0  0  0
  2  3  1  0  0  0  0
  2  9  1  0  0  0  0
  2 22  1  0  0  0  0
  3  4  1  0  0  0  0
  3 23  1  0  0  0  0
  3 24  1  0  0  0  0
  4  8  1  0  0  0  0
  4  5  1  0  0  0  0
  5  6  2  0  0  0  0
  5 25  1  0  0  0  0
  6  7  1  0  0  0  0
  6 26  1  0  0  0  0
  7  8  2  0  0  0  0
  7 27  1  0  0  0  0
  9 10  1  0  0  0  0
 10 11  2  0  0  0  0
 10 12  2  0  0  0  0
 10 13  1  0  0  0  0
 13 18  1  0  0  0  0
 13 14  1  0  0  0  0
 14 15  1  0  0  0  0
 14 28  1  0  0  0  0
 14 29  1  0  0  0  0
 15 16  1  0  0  0  0
 15 30  1  0  0  0  0
 15 31  1  0  0  0  0
 16 17  1  0  0  0  0
 17 18  1  0  0  0  0
 17 32  1  0  0  0  0
 17 33  1  0  0  0  0
 18 34  1  0  0  0  0
 18 35  1  0  0  0  0
M  CHG  1   9  -1
M  END
> <s_m_source_file>
AV-unprocessed.smi

> <i_m_source_file_index>
1602

> <i_lp_mmshare_version>
43012

> <i_f3d_flags>
0

> <s_epik_input>
bjFbY0hdW2NIXVtjSF1uMVtDSDJdW0NAQEhdKFtDSDNdKVtOSF1TKD1PKSg9TylOMltDSDJdW0NIMl1PW0NIMl1bQ0gyXTI=

> <s_epik_cmdline>
J2VwaWtfcHl0aG9uJywgJy1waCcsICc3LjAnLCAnLXRuJywgJzgnLCAnLW1hJywgJzIwMCcsICctbWV0YWxfYmluZGluZycsICctaW1hZScsICc8aW5maWxlLm1hZT4nLCAnLW9tYWUnLCAnPG91dGZpbGUubWFlPic=

> <r_lp_tautomer_probability>
1

> <r_epik_Ionization_Penalty>
1.03144

> <r_epik_Ionization_Penalty_Charging>
1.03142

> <r_epik_Ionization_Penalty_Neutral>
2.21579e-05

> <r_epik_State_Penalty>
1.0826

> <r_epik_Charging_Adjusted_Penalty>
2.11402

> <i_epik_Tot_Q>
-1

> <i_epik_Tot_abs_Q>
1

> <r_epik_Metal_State_Penalty>
0.386234

> <b_epik_Metal_Only>
0

> <s_lp_Force_Field>
OPLS_2005

> <r_lp_Energy>
6.71123

> <b_lp_Chiralities_Consistent>
1

> <s_lp_Variant>
AV-unprocessed.smi:1602-3

> <Gold.Version>
5.8.1

> <Gold.Id.Protein>
6NUR|6NUR_protein|mol2

> <Gold.PLP.Fitness>
44.4433

> <Gold.PLP.PLP>
-39.5127

> <Gold.PLP.part.hbond>
-2.4709

> <Gold.PLP.part.metal>
0.0000

> <Gold.PLP.part.buried>
-6.2168

> <Gold.PLP.part.nonpolar>
-31.4866

> <Gold.PLP.part.repulsive>
0.2568

> <Gold.PLP.ligand.clash>
0.0000

> <Gold.PLP.ligand.torsion>
1.1454

> <Gold.PLP.Chemscore.Hbond>
1.8720

> <Gold.PLP.Chemscore.CHOScore>
0.0000

> <Gold.PLP.Chemscore.Metal>
0.0000

> <Gold.Chemscore.Hbonds>
donor molecule, donor type, donor heavy atom, donor atom, acceptor molecule, acceptor atom, score
      P1  H  6896  6907       L1    11  0.97
      P1  H 10752 10765       L1    16  0.91

> <Gold.PLP.Chemscore.Internal.Correction>
1.6054

> <Gold.Rescore>
     Score         DG    S(hbond)    S(metal)    S(lipo)     H(rot)  DE(clash)    DE(int)     intcor
     16.18     -17.35       1.79        0.00      86.90       1.67       0.01       1.16       ----

> <Gold.Chemscore.Fitness>
16.1795

> <Gold.Chemscore.DG>
-17.3523

> <Gold.Chemscore.ZeroCoef>
-5.4800

> <Gold.Chemscore.Hbond>
1.7896

> <Gold.Chemscore.Metal>
0.0000

> <Gold.Chemscore.Lipo>
86.8994

> <Gold.Chemscore.Internal_Hbond>
0.0000

> <Gold.Chemscore.DEClash>
0.0149

> <Gold.Chemscore.DEInternal>
1.1580

> <Gold.Chemscore.Rot>
1.6688

> <Gold.Chemscore.Internal.Correction>
   9.000000E+99

> <Gold.Chemscore.Hbonds>
donor molecule, donor type, donor heavy atom, donor atom, acceptor molecule, acceptor atom, score
      P1  H  6896  6907       L1    11  0.86
      P1  H 10752 10765       L1    16  0.74

> <Gold.Chemscore.Hbond.Weighted>
-5.9774

> <Gold.Chemscore.Metal.Weighted>
-0.0000

> <Gold.Chemscore.Lipo.Weighted>
-10.1672

> <Gold.Chemscore.Internal_Hbond.Weighted>
0.0000

> <Gold.Chemscore.DEClash.Weighted>
0.0149

> <Gold.Chemscore.DEInternal.Weighted>
1.1580

> <Gold.Chemscore.Rot.Weighted>
4.2722

> <Gold.Chemscore.Internal.Correction.Weighted>
   9.000000E+99

> <Gold.Protein.RotatedTorsions>
[ 6907 6896 6895 6894 ] final    1.64 input  -60.11 | X-H torsion
[ 7974 7965 7964 7962 ] final   -8.54 input  175.53 | X-H torsion
[ 8008 7997 7996 7995 ] final -105.93 input   59.86 | X-H torsion
[ 10167 10162 10161 10158 ] final   79.67 input  -65.29 | X-H torsion
[ 10718 10713 10712 10709 ] final  -67.28 input   66.30 | X-H torsion
[ 10763 10752 10751 10750 ] final  150.21 input  -60.55 | X-H torsion
[ 11005 11000 10999 10996 ] final   40.22 input  -57.11 | X-H torsion

> <Gold.Protein.ActiveResidues>
 VAL166  LYS551  ARG553  GLY616  TRP617  ASP618  TYR619  PRO620  LYS621  CYS622 
 ASP623  PHE694  ASN695  SER759  ASP760  ASP761  ALA762  ILE779  LEU786  VAL792 
 PHE793  MET794  SER795  GLU796  ALA797  LYS798  CYS799  TRP800  GLU811  SER814 

> <Gold.Protein.RotatedAtoms>
  151.5958  135.1050  160.0049 H   0  0  0  0  0  0  0  0  0  0  0  0  # atno 6907 bound_to 6896
  152.4283  133.7229  159.6554 H   0  0  0  0  0  0  0  0  0  0  0  0  # atno 6908 bound_to 6896
  150.8173  133.8243  159.3177 H   0  0  0  0  0  0  0  0  0  0  0  0  # atno 6909 bound_to 6896
  146.2277  140.2483  142.8346 H   0  0  0  0  0  0  0  0  0  0  0  0  # atno 7974 bound_to 7965
  154.9070  140.0411  157.1925 H   0  0  0  0  0  0  0  0  0  0  0  0  # atno 8008 bound_to 7997
  154.8386  140.2910  155.5653 H   0  0  0  0  0  0  0  0  0  0  0  0  # atno 8009 bound_to 7997
  156.2991  140.2487  156.3325 H   0  0  0  0  0  0  0  0  0  0  0  0  # atno 8010 bound_to 7997
  139.9578  144.5982  150.8100 H   0  0  0  0  0  0  0  0  0  0  0  0  # atno 10167 bound_to 10162
  156.0566  130.4275  150.1831 H   0  0  0  0  0  0  0  0  0  0  0  0  # atno 10718 bound_to 10713
  154.0838  135.2857  155.3285 H   0  0  0  0  0  0  0  0  0  0  0  0  # atno 10763 bound_to 10752
  154.6666  135.5315  153.8088 H   0  0  0  0  0  0  0  0  0  0  0  0  # atno 10764 bound_to 10752
  153.0439  135.6547  154.1011 H   0  0  0  0  0  0  0  0  0  0  0  0  # atno 10765 bound_to 10752
  140.1952  134.3938  155.8125 H   0  0  0  0  0  0  0  0  0  0  0  0  # atno 11005 bound_to 11000
  144.9431  140.8100  143.5618 LP  0  0  0  0  0  0  0  0  0  0  0  0  # atno 17320 bound_to 7965
  145.2436  139.2062  143.4979 LP  0  0  0  0  0  0  0  0  0  0  0  0  # atno 17321 bound_to 7965
  140.7563  143.3063  151.2955 LP  0  0  0  0  0  0  0  0  0  0  0  0  # atno 17342 bound_to 10162
  139.6578  144.0245  152.2671 LP  0  0  0  0  0  0  0  0  0  0  0  0  # atno 17343 bound_to 10162
  156.9906  130.9892  151.3415 LP  0  0  0  0  0  0  0  0  0  0  0  0  # atno 17370 bound_to 10713
  157.5541  130.8202  149.8182 LP  0  0  0  0  0  0  0  0  0  0  0  0  # atno 17371 bound_to 10713
  141.2227  133.7066  156.8164 LP  0  0  0  0  0  0  0  0  0  0  0  0  # atno 17394 bound_to 11000
  140.2115  134.8824  157.3279 LP  0  0  0  0  0  0  0  0  0  0  0  0  # atno 17395 bound_to 11000

$$$$
