AV-unprocessed.smi:1780|AV-procd|sdf|7186|dock3
  -GOLD-   22720 8423D 1   1.00000     0.00000
 Structure written by MMmdl.
 44 45  0  0  0  0  0  0  0  0  2 V2000
  151.8536  144.8862  160.4157 C   0  0  0  0  0  0  0  0  0  0  0  0
  152.4436  144.7617  159.0058 C   0  0  0  0  0  0  0  0  0  0  0  0
  151.9807  143.5645  158.3312 N   0  0  0  0  0  0  0  0  0  0  0  0
  151.2662  143.4704  157.1532 C   0  0  0  0  0  0  0  0  0  0  0  0
  151.0788  142.1336  156.9408 C   0  0  0  0  0  0  0  0  0  0  0  0
  150.4076  141.4766  155.8787 N   0  0  0  0  0  0  0  0  0  0  0  0
  150.0268  140.1899  155.8280 C   0  0  0  0  0  0  0  0  0  0  0  0
  150.2079  139.3603  156.7195 O   0  0  0  0  0  0  0  0  0  0  0  0
  149.4058  139.9087  154.6738 N   0  0  0  0  0  0  0  0  0  0  0  0
  148.8556  138.6032  154.3202 C   0  0  0  0  0  0  0  0  0  0  0  0
  147.3605  138.6627  153.9056 C   0  0  1  0  0  0  0  0  0  0  0  0
  147.0893  139.9382  153.0709 C   0  0  0  0  0  0  0  0  0  0  0  0
  146.9640  137.3960  153.2071 N   0  3  0  0  0  0  0  0  0  0  0  0
  146.8252  136.2466  154.1429 C   0  0  0  0  0  0  0  0  0  0  0  0
  146.5148  134.9484  153.3808 C   0  0  0  0  0  0  0  0  0  0  0  0
  145.3199  135.1154  152.6325 O   0  0  0  0  0  0  0  0  0  0  0  0
  145.4531  136.1424  151.6613 C   0  0  0  0  0  0  0  0  0  0  0  0
  145.7480  137.4859  152.3515 C   0  0  0  0  0  0  0  0  0  0  0  0
  151.7037  141.4766  158.0324 C   0  0  0  0  0  0  0  0  0  0  0  0
  152.2493  142.3479  158.8672 N   0  0  0  0  0  0  0  0  0  0  0  0
  152.2050  145.7955  160.9036 H   0  0  0  0  0  0  0  0  0  0  0  0
  152.1426  144.0412  161.0416 H   0  0  0  0  0  0  0  0  0  0  0  0
  150.7644  144.9241  160.3845 H   0  0  0  0  0  0  0  0  0  0  0  0
  152.1677  145.6297  158.4057 H   0  0  0  0  0  0  0  0  0  0  0  0
  153.5334  144.7408  159.0500 H   0  0  0  0  0  0  0  0  0  0  0  0
  150.9663  144.3438  156.5930 H   0  0  0  0  0  0  0  0  0  0  0  0
  150.1868  142.0505  155.0780 H   0  0  0  0  0  0  0  0  0  0  0  0
  149.3021  140.6490  153.9948 H   0  0  0  0  0  0  0  0  0  0  0  0
  149.4491  138.2035  153.4973 H   0  0  0  0  0  0  0  0  0  0  0  0
  149.0210  137.9323  155.1620 H   0  0  0  0  0  0  0  0  0  0  0  0
  146.7480  138.7427  154.8052 H   0  0  0  0  0  0  0  0  0  0  0  0
  147.4117  140.8393  153.5923 H   0  0  0  0  0  0  0  0  0  0  0  0
  146.0266  140.0802  152.8741 H   0  0  0  0  0  0  0  0  0  0  0  0
  147.6145  139.9092  152.1156 H   0  0  0  0  0  0  0  0  0  0  0  0
  147.7335  136.0963  154.7232 H   0  0  0  0  0  0  0  0  0  0  0  0
  146.0269  136.4522  154.8578 H   0  0  0  0  0  0  0  0  0  0  0  0
  147.3405  134.6732  152.7223 H   0  0  0  0  0  0  0  0  0  0  0  0
  146.3785  134.1250  154.0820 H   0  0  0  0  0  0  0  0  0  0  0  0
  146.2421  135.8879  150.9517 H   0  0  0  0  0  0  0  0  0  0  0  0
  144.5257  136.2101  151.0922 H   0  0  0  0  0  0  0  0  0  0  0  0
  144.8943  137.7904  152.9592 H   0  0  0  0  0  0  0  0  0  0  0  0
  145.8768  138.2316  151.5676 H   0  0  0  0  0  0  0  0  0  0  0  0
  151.7803  140.4200  158.2420 H   0  0  0  0  0  0  0  0  0  0  0  0
  147.7226  137.1726  152.5788 H   0  0  0  0  0  0  0  0  0  0  0  0
  1  2  1  0  0  0  0
  1 21  1  0  0  0  0
  1 22  1  0  0  0  0
  1 23  1  0  0  0  0
  2  3  1  0  0  0  0
  2 24  1  0  0  0  0
  2 25  1  0  0  0  0
  3 20  1  0  0  0  0
  3  4  1  0  0  0  0
  4  5  2  0  0  0  0
  4 26  1  0  0  0  0
  5  6  1  0  0  0  0
  5 19  1  0  0  0  0
  6  7  1  0  0  0  0
  6 27  1  0  0  0  0
  7  8  2  0  0  0  0
  7  9  1  0  0  0  0
  9 10  1  0  0  0  0
  9 28  1  0  0  0  0
 10 11  1  0  0  0  0
 10 29  1  0  0  0  0
 10 30  1  0  0  0  0
 11 12  1  0  0  0  0
 11 13  1  0  0  0  0
 11 31  1  0  0  0  0
 12 32  1  0  0  0  0
 12 33  1  0  0  0  0
 12 34  1  0  0  0  0
 13 18  1  0  0  0  0
 13 14  1  0  0  0  0
 13 44  1  0  0  0  0
 14 15  1  0  0  0  0
 14 35  1  0  0  0  0
 14 36  1  0  0  0  0
 15 16  1  0  0  0  0
 15 37  1  0  0  0  0
 15 38  1  0  0  0  0
 16 17  1  0  0  0  0
 17 18  1  0  0  0  0
 17 39  1  0  0  0  0
 17 40  1  0  0  0  0
 18 41  1  0  0  0  0
 18 42  1  0  0  0  0
 19 20  2  0  0  0  0
 19 43  1  0  0  0  0
M  CHG  1  13   1
M  END
> <s_m_source_file>
AV-unprocessed.smi

> <i_m_source_file_index>
1780

> <i_lp_mmshare_version>
43012

> <i_f3d_flags>
0

> <s_epik_input>
W0NIM11bQ0gyXW4xW2NIXWMoW2NIXW4xKVtOSF1DKD1PKVtOSF1bQ0gyXVtDQEhdKFtDSDNdKU4yW0NIMl1bQ0gyXU9bQ0gyXVtDSDJdMg==

> <s_epik_cmdline>
J2VwaWtfcHl0aG9uJywgJy1waCcsICc3LjAnLCAnLXRuJywgJzgnLCAnLW1hJywgJzIwMCcsICctbWV0YWxfYmluZGluZycsICctaW1hZScsICc8aW5maWxlLm1hZT4nLCAnLW9tYWUnLCAnPG91dGZpbGUubWFlPic=

> <r_lp_tautomer_probability>
1

> <r_epik_Ionization_Penalty>
0.64612

> <r_epik_Ionization_Penalty_Charging>
0.645968

> <r_epik_Ionization_Penalty_Neutral>
0.000152026

> <r_epik_State_Penalty>
0.664063

> <r_epik_Charging_Adjusted_Penalty>
1.31003

> <i_epik_Tot_Q>
1

> <i_epik_Tot_abs_Q>
1

> <r_epik_Metal_State_Penalty>
0.664075

> <b_epik_Metal_Only>
0

> <s_lp_Force_Field>
OPLS_2005

> <r_lp_Energy>
24.1412

> <b_lp_Chiralities_Consistent>
1

> <s_lp_Variant>
AV-unprocessed.smi:1780-4

> <Gold.Version>
5.8.1

> <Gold.Id.Protein>
6NUR|6NUR_protein|mol2

> <Gold.PLP.Fitness>
40.0898

> <Gold.PLP.PLP>
-32.3574

> <Gold.PLP.part.hbond>
-1.0000

> <Gold.PLP.part.metal>
0.0000

> <Gold.PLP.part.buried>
-2.0817

> <Gold.PLP.part.nonpolar>
-29.4580

> <Gold.PLP.part.repulsive>
0.3316

> <Gold.PLP.ligand.clash>
0.0000

> <Gold.PLP.ligand.torsion>
0.5811

> <Gold.PLP.Chemscore.Hbond>
2.0000

> <Gold.PLP.Chemscore.CHOScore>
0.9330

> <Gold.PLP.Chemscore.Metal>
0.0000

> <Gold.Chemscore.Hbonds>
donor molecule, donor type, donor heavy atom, donor atom, acceptor molecule, acceptor atom, score
      L1  H    13    44       P1  7948  2.00
      L1  C     4    26       P1  8028  0.95

> <Gold.PLP.Chemscore.Internal.Correction>
0.0956

> <Gold.Rescore>
     Score         DG    S(hbond)    S(metal)    S(lipo)     H(rot)  DE(clash)    DE(int)     intcor
     12.74     -14.57       0.99        0.00      85.87       1.67       0.06       1.77       ----

> <Gold.Chemscore.Fitness>
12.7390

> <Gold.Chemscore.DG>
-14.5682

> <Gold.Chemscore.ZeroCoef>
-5.4800

> <Gold.Chemscore.Hbond>
0.9937

> <Gold.Chemscore.Metal>
0.0000

> <Gold.Chemscore.Lipo>
85.8673

> <Gold.Chemscore.Internal_Hbond>
0.0000

> <Gold.Chemscore.DEClash>
0.0607

> <Gold.Chemscore.DEInternal>
1.7685

> <Gold.Chemscore.Rot>
1.6708

> <Gold.Chemscore.Internal.Correction>
   9.000000E+99

> <Gold.Chemscore.Hbonds>
donor molecule, donor type, donor heavy atom, donor atom, acceptor molecule, acceptor atom, score
      L1  H    13    44       P1  7948  0.99

> <Gold.Chemscore.Hbond.Weighted>
-3.3190

> <Gold.Chemscore.Metal.Weighted>
-0.0000

> <Gold.Chemscore.Lipo.Weighted>
-10.0465

> <Gold.Chemscore.Internal_Hbond.Weighted>
0.0000

> <Gold.Chemscore.DEClash.Weighted>
0.0607

> <Gold.Chemscore.DEInternal.Weighted>
1.7685

> <Gold.Chemscore.Rot.Weighted>
4.2773

> <Gold.Chemscore.Internal.Correction.Weighted>
   9.000000E+99

> <Gold.Protein.RotatedTorsions>
[ 6907 6896 6895 6894 ] final  -81.05 input  -60.11 | X-H torsion
[ 7974 7965 7964 7962 ] final  -53.43 input  175.53 | X-H torsion
[ 8008 7997 7996 7995 ] final -124.42 input   59.86 | X-H torsion
[ 10167 10162 10161 10158 ] final   99.02 input  -65.29 | X-H torsion
[ 10718 10713 10712 10709 ] final  164.27 input   66.30 | X-H torsion
[ 10763 10752 10751 10750 ] final   -3.75 input  -60.55 | X-H torsion
[ 11005 11000 10999 10996 ] final -142.97 input  -57.11 | X-H torsion

> <Gold.Protein.ActiveResidues>
 VAL166  LYS551  ARG553  GLY616  TRP617  ASP618  TYR619  PRO620  LYS621  CYS622 
 ASP623  PHE694  ASN695  SER759  ASP760  ASP761  ALA762  ILE779  LEU786  VAL792 
 PHE793  MET794  SER795  GLU796  ALA797  LYS798  CYS799  TRP800  GLU811  SER814 

> <Gold.Protein.RotatedAtoms>
  150.6918  134.3876  159.5061 H   0  0  0  0  0  0  0  0  0  0  0  0  # atno 6907 bound_to 6896
  152.1669  134.8863  160.0546 H   0  0  0  0  0  0  0  0  0  0  0  0  # atno 6908 bound_to 6896
  151.9904  133.3754  159.4179 H   0  0  0  0  0  0  0  0  0  0  0  0  # atno 6909 bound_to 6896
  145.8968  140.8026  142.9763 H   0  0  0  0  0  0  0  0  0  0  0  0  # atno 7974 bound_to 7965
  155.1966  140.0414  157.2910 H   0  0  0  0  0  0  0  0  0  0  0  0  # atno 8008 bound_to 7997
  154.6103  140.2475  155.7650 H   0  0  0  0  0  0  0  0  0  0  0  0  # atno 8009 bound_to 7997
  156.2375  140.2916  156.0361 H   0  0  0  0  0  0  0  0  0  0  0  0  # atno 8010 bound_to 7997
  139.7655  144.6940  151.0230 H   0  0  0  0  0  0  0  0  0  0  0  0  # atno 10167 bound_to 10162
  157.0967  131.0432  151.2515 H   0  0  0  0  0  0  0  0  0  0  0  0  # atno 10718 bound_to 10713
  153.3755  135.6996  153.6605 H   0  0  0  0  0  0  0  0  0  0  0  0  # atno 10763 bound_to 10752
  153.5238  135.3606  155.2644 H   0  0  0  0  0  0  0  0  0  0  0  0  # atno 10764 bound_to 10752
  154.8686  135.4164  154.3042 H   0  0  0  0  0  0  0  0  0  0  0  0  # atno 10765 bound_to 10752
  140.8172  134.2674  157.4916 H   0  0  0  0  0  0  0  0  0  0  0  0  # atno 11005 bound_to 11000
  144.6733  140.1616  143.7422 LP  0  0  0  0  0  0  0  0  0  0  0  0  # atno 17320 bound_to 7965
  145.8840  139.2338  143.1589 LP  0  0  0  0  0  0  0  0  0  0  0  0  # atno 17321 bound_to 7965
  140.7810  143.4648  151.0228 LP  0  0  0  0  0  0  0  0  0  0  0  0  # atno 17342 bound_to 10162
  139.8333  143.7662  152.3180 LP  0  0  0  0  0  0  0  0  0  0  0  0  # atno 17343 bound_to 10162
  157.4675  130.7689  149.7292 LP  0  0  0  0  0  0  0  0  0  0  0  0  # atno 17370 bound_to 10713
  155.9884  130.3959  150.3121 LP  0  0  0  0  0  0  0  0  0  0  0  0  # atno 17371 bound_to 10713
  139.8710  134.9515  156.4088 LP  0  0  0  0  0  0  0  0  0  0  0  0  # atno 17394 bound_to 11000
  140.9137  133.7694  155.9822 LP  0  0  0  0  0  0  0  0  0  0  0  0  # atno 17395 bound_to 11000

$$$$
