AV-unprocessed.smi:781|AV-procd|sdf|3712|dock10
  -GOLD-   22720 1133D 1   1.00000     0.00000
 Structure written by MMmdl.
 38 40  0  0  0  0  0  0  0  0  1 V2000
  149.5546  130.0506  153.7988 C   0  0  0  0  0  0  0  0  0  0  0  0
  149.5840  131.4706  154.2503 C   0  0  0  0  0  0  0  0  0  0  0  0
  149.3829  132.6569  153.6024 C   0  0  0  0  0  0  0  0  0  0  0  0
  149.5609  133.6179  154.6331 C   0  0  0  0  0  0  0  0  0  0  0  0
  149.4326  135.0041  154.3648 N   0  0  0  0  0  0  0  0  0  0  0  0
  149.3983  136.0109  155.2542 C   0  0  0  0  0  0  0  0  0  0  0  0
  149.4861  135.8830  156.4759 O   0  0  0  0  0  0  0  0  0  0  0  0
  149.2589  137.1950  154.6423 N   0  0  0  0  0  0  0  0  0  0  0  0
  149.1850  138.4836  155.3266 C   0  0  1  0  0  0  0  0  0  0  0  0
  150.1429  138.5961  156.5399 C   0  0  1  0  0  0  0  0  0  0  0  0
  151.5858  138.1998  156.1599 C   0  0  0  0  0  0  0  0  0  0  0  0
  152.0237  139.3604  155.2473 C   0  0  0  0  0  0  0  0  0  0  0  0
  150.7884  140.2825  155.2512 C   0  0  2  0  0  0  0  0  0  0  0  0
  150.2829  140.1066  156.6785 C   0  0  0  0  0  0  0  0  0  0  0  0
  149.6634  139.6391  154.4077 C   0  0  2  0  0  0  0  0  0  0  0  0
  148.5453  140.6351  154.0440 C   0  0  0  0  0  0  0  0  0  0  0  0
  147.6908  140.0723  153.0710 O   0  0  0  0  0  0  0  0  0  0  0  0
  149.8436  133.0681  155.8043 N   0  0  0  0  0  0  0  0  0  0  0  0
  149.8592  131.6890  155.5649 O   0  0  0  0  0  0  0  0  0  0  0  0
  149.6797  129.9828  152.7180 H   0  0  0  0  0  0  0  0  0  0  0  0
  148.6053  129.5830  154.0596 H   0  0  0  0  0  0  0  0  0  0  0  0
  150.3548  129.4772  154.2676 H   0  0  0  0  0  0  0  0  0  0  0  0
  149.1470  132.8090  152.5596 H   0  0  0  0  0  0  0  0  0  0  0  0
  149.3554  135.2564  153.3909 H   0  0  0  0  0  0  0  0  0  0  0  0
  149.1925  137.2102  153.6353 H   0  0  0  0  0  0  0  0  0  0  0  0
  148.1591  138.6621  155.6553 H   0  0  0  0  0  0  0  0  0  0  0  0
  149.7749  138.0899  157.4328 H   0  0  0  0  0  0  0  0  0  0  0  0
  152.2162  138.1600  157.0492 H   0  0  0  0  0  0  0  0  0  0  0  0
  151.6576  137.2286  155.6702 H   0  0  0  0  0  0  0  0  0  0  0  0
  152.8912  139.8706  155.6679 H   0  0  0  0  0  0  0  0  0  0  0  0
  152.2896  139.0242  154.2446 H   0  0  0  0  0  0  0  0  0  0  0  0
  151.0198  141.3098  154.9676 H   0  0  0  0  0  0  0  0  0  0  0  0
  149.3368  140.6129  156.8758 H   0  0  0  0  0  0  0  0  0  0  0  0
  151.0097  140.4073  157.4353 H   0  0  0  0  0  0  0  0  0  0  0  0
  150.0912  139.2582  153.4782 H   0  0  0  0  0  0  0  0  0  0  0  0
  147.9584  140.9164  154.9187 H   0  0  0  0  0  0  0  0  0  0  0  0
  148.9725  141.5511  153.6353 H   0  0  0  0  0  0  0  0  0  0  0  0
  148.1823  139.9519  152.2728 H   0  0  0  0  0  0  0  0  0  0  0  0
  1  2  1  0  0  0  0
  1 20  1  0  0  0  0
  1 21  1  0  0  0  0
  1 22  1  0  0  0  0
  2 19  1  0  0  0  0
  2  3  2  0  0  0  0
  3  4  1  0  0  0  0
  3 23  1  0  0  0  0
  4  5  1  0  0  0  0
  4 18  2  0  0  0  0
  5  6  1  0  0  0  0
  5 24  1  0  0  0  0
  6  7  2  0  0  0  0
  6  8  1  0  0  0  0
  8  9  1  0  0  0  0
  8 25  1  0  0  0  0
  9 15  1  0  0  0  0
  9 10  1  0  0  0  0
  9 26  1  0  0  0  0
 10 14  1  0  0  0  0
 10 11  1  0  0  0  0
 10 27  1  0  0  0  0
 11 12  1  0  0  0  0
 11 28  1  0  0  0  0
 11 29  1  0  0  0  0
 12 13  1  0  0  0  0
 12 30  1  0  0  0  0
 12 31  1  0  0  0  0
 13 14  1  0  0  0  0
 13 15  1  0  0  0  0
 13 32  1  0  0  0  0
 14 33  1  0  0  0  0
 14 34  1  0  0  0  0
 15 16  1  0  0  0  0
 15 35  1  0  0  0  0
 16 17  1  0  0  0  0
 16 36  1  0  0  0  0
 16 37  1  0  0  0  0
 17 38  1  0  0  0  0
 18 19  1  0  0  0  0
M  END
> <s_m_source_file>
AV-unprocessed.smi

> <i_m_source_file_index>
781

> <i_lp_mmshare_version>
43012

> <i_f3d_flags>
0

> <s_epik_input>
W0NIM11jMVtjSF1jKG5vMSlbTkhdQyg9TylbTkhdW0NASF0oW0NAQEhdMjMpW0NASF0oW0NIMl1bT0hdKVtDQEBIXShbQ0gyXTMpW0NIMl1bQ0gyXTI=

> <s_epik_cmdline>
J2VwaWtfcHl0aG9uJywgJy1waCcsICc3LjAnLCAnLXRuJywgJzgnLCAnLW1hJywgJzIwMCcsICctbWV0YWxfYmluZGluZycsICctaW1hZScsICc8aW5maWxlLm1hZT4nLCAnLW9tYWUnLCAnPG91dGZpbGUubWFlPic=

> <r_lp_tautomer_probability>
1

> <r_epik_Ionization_Penalty>
2.32222e-05

> <r_epik_Ionization_Penalty_Charging>
0

> <r_epik_Ionization_Penalty_Neutral>
2.32222e-05

> <r_epik_State_Penalty>
-0

> <r_epik_Charging_Adjusted_Penalty>
0

> <i_epik_Tot_Q>
0

> <i_epik_Tot_abs_Q>
0

> <r_epik_Metal_State_Penalty>
-0

> <b_epik_Metal_Only>
0

> <s_lp_Force_Field>
OPLS_2005

> <r_lp_Energy>
46.3898

> <b_lp_Chiralities_Consistent>
1

> <s_lp_Variant>
AV-unprocessed.smi:781-6

> <Gold.Version>
5.8.1

> <Gold.Id.Protein>
6NUR|6NUR_protein|mol2

> <Gold.PLP.Fitness>
36.5515

> <Gold.PLP.PLP>
-28.4399

> <Gold.PLP.part.hbond>
-3.0000

> <Gold.PLP.part.metal>
0.0000

> <Gold.PLP.part.buried>
-1.5127

> <Gold.PLP.part.nonpolar>
-23.5886

> <Gold.PLP.part.repulsive>
0.0387

> <Gold.PLP.ligand.clash>
0.0000

> <Gold.PLP.ligand.torsion>
0.4396

> <Gold.PLP.Chemscore.Hbond>
2.9913

> <Gold.PLP.Chemscore.CHOScore>
0.0000

> <Gold.PLP.Chemscore.Metal>
0.0000

> <Gold.Chemscore.Hbonds>
donor molecule, donor type, donor heavy atom, donor atom, acceptor molecule, acceptor atom, score
      L1  H     5    24       P1  7948  0.80
      L1  H     8    25       P1  7948  1.00
      L1  H    17    38       P1  7957  1.00

> <Gold.PLP.Chemscore.Internal.Correction>
0.0171

> <Gold.Rescore>
     Score         DG    S(hbond)    S(metal)    S(lipo)     H(rot)  DE(clash)    DE(int)     intcor
     14.24     -17.35       2.73        0.00      64.05       1.86       0.06       3.05       ----

> <Gold.Chemscore.Fitness>
14.2365

> <Gold.Chemscore.DG>
-17.3466

> <Gold.Chemscore.ZeroCoef>
-5.4800

> <Gold.Chemscore.Hbond>
2.7337

> <Gold.Chemscore.Metal>
0.0000

> <Gold.Chemscore.Lipo>
64.0544

> <Gold.Chemscore.Internal_Hbond>
0.0000

> <Gold.Chemscore.DEClash>
0.0638

> <Gold.Chemscore.DEInternal>
3.0462

> <Gold.Chemscore.Rot>
1.8587

> <Gold.Chemscore.Internal.Correction>
   9.000000E+99

> <Gold.Chemscore.Hbonds>
donor molecule, donor type, donor heavy atom, donor atom, acceptor molecule, acceptor atom, score
      L1  H     5    24       P1  7948  0.12
      L1  H     8    25       P1  7948  0.90
      L1  H    17    38       P1  7957  0.99

> <Gold.Chemscore.Hbond.Weighted>
-9.1305

> <Gold.Chemscore.Metal.Weighted>
-0.0000

> <Gold.Chemscore.Lipo.Weighted>
-7.4944

> <Gold.Chemscore.Internal_Hbond.Weighted>
0.0000

> <Gold.Chemscore.DEClash.Weighted>
0.0638

> <Gold.Chemscore.DEInternal.Weighted>
3.0462

> <Gold.Chemscore.Rot.Weighted>
4.7583

> <Gold.Chemscore.Internal.Correction.Weighted>
   9.000000E+99

> <Gold.Protein.RotatedTorsions>
[ 6907 6896 6895 6894 ] final -169.57 input  -60.11 | X-H torsion
[ 7974 7965 7964 7962 ] final  142.18 input  175.53 | X-H torsion
[ 8008 7997 7996 7995 ] final -152.13 input   59.86 | X-H torsion
[ 10167 10162 10161 10158 ] final  157.07 input  -65.29 | X-H torsion
[ 10718 10713 10712 10709 ] final  173.76 input   66.30 | X-H torsion
[ 10763 10752 10751 10750 ] final  173.79 input  -60.55 | X-H torsion
[ 11005 11000 10999 10996 ] final   26.44 input  -57.11 | X-H torsion

> <Gold.Protein.ActiveResidues>
 VAL166  LYS551  ARG553  GLY616  TRP617  ASP618  TYR619  PRO620  LYS621  CYS622 
 ASP623  PHE694  ASN695  SER759  ASP760  ASP761  ALA762  ILE779  LEU786  VAL792 
 PHE793  MET794  SER795  GLU796  ALA797  LYS798  CYS799  TRP800  GLU811  SER814 

> <Gold.Protein.RotatedAtoms>
  151.4937  133.3519  159.2857 H   0  0  0  0  0  0  0  0  0  0  0  0  # atno 6907 bound_to 6896
  150.8818  134.8212  159.7241 H   0  0  0  0  0  0  0  0  0  0  0  0  # atno 6908 bound_to 6896
  152.4767  134.4836  159.9725 H   0  0  0  0  0  0  0  0  0  0  0  0  # atno 6909 bound_to 6896
  144.9031  139.5396  143.5744 H   0  0  0  0  0  0  0  0  0  0  0  0  # atno 7974 bound_to 7965
  155.6504  140.0711  157.2589 H   0  0  0  0  0  0  0  0  0  0  0  0  # atno 8008 bound_to 7997
  154.4164  140.1734  156.1718 H   0  0  0  0  0  0  0  0  0  0  0  0  # atno 8009 bound_to 7997
  155.9782  140.3356  155.6641 H   0  0  0  0  0  0  0  0  0  0  0  0  # atno 8010 bound_to 7997
  139.4822  144.4951  151.8251 H   0  0  0  0  0  0  0  0  0  0  0  0  # atno 10167 bound_to 10162
  156.9595  131.0056  151.2931 H   0  0  0  0  0  0  0  0  0  0  0  0  # atno 10718 bound_to 10713
  154.4449  135.2763  155.1822 H   0  0  0  0  0  0  0  0  0  0  0  0  # atno 10763 bound_to 10752
  154.3672  135.6116  153.5725 H   0  0  0  0  0  0  0  0  0  0  0  0  # atno 10764 bound_to 10752
  152.9843  135.5848  154.4783 H   0  0  0  0  0  0  0  0  0  0  0  0  # atno 10765 bound_to 10752
  140.3370  134.2375  155.7695 H   0  0  0  0  0  0  0  0  0  0  0  0  # atno 11005 bound_to 11000
  146.3119  139.7776  142.9013 LP  0  0  0  0  0  0  0  0  0  0  0  0  # atno 17320 bound_to 7965
  145.3583  141.0321  143.3299 LP  0  0  0  0  0  0  0  0  0  0  0  0  # atno 17321 bound_to 7965
  140.4439  144.1948  150.5893 LP  0  0  0  0  0  0  0  0  0  0  0  0  # atno 17342 bound_to 10162
  140.4655  143.2432  151.9162 LP  0  0  0  0  0  0  0  0  0  0  0  0  # atno 17343 bound_to 10162
  157.5667  130.8283  149.8337 LP  0  0  0  0  0  0  0  0  0  0  0  0  # atno 17370 bound_to 10713
  156.0328  130.3759  150.1641 LP  0  0  0  0  0  0  0  0  0  0  0  0  # atno 17371 bound_to 10713
  141.2048  133.7875  157.0264 LP  0  0  0  0  0  0  0  0  0  0  0  0  # atno 17394 bound_to 11000
  140.0813  134.9646  157.1628 LP  0  0  0  0  0  0  0  0  0  0  0  0  # atno 17395 bound_to 11000

$$$$
