AV-unprocessed.smi:1952|AV-procd|sdf|7889|dock2
  -GOLD-   2272010 43D 1   1.00000     0.00000
 Structure written by MMmdl.
 39 40  0  0  0  0  0  0  0  0  3 V2000
  147.0973  136.6957  162.8222 C   0  0  0  0  0  0  0  0  0  0  0  0
  147.4775  136.2089  161.4661 C   0  0  0  0  0  0  0  0  0  0  0  0
  148.2154  135.1438  161.0332 C   0  0  0  0  0  0  0  0  0  0  0  0
  148.1720  135.2727  159.6186 C   0  0  0  0  0  0  0  0  0  0  0  0
  148.7658  134.4562  158.7346 N   0  5  0  0  0  0  0  0  0  0  0  0
  148.2624  134.3264  157.4872 C   0  0  0  0  0  0  0  0  0  0  0  0
  147.4114  135.0499  156.9652 O   0  0  0  0  0  0  0  0  0  0  0  0
  148.8039  133.3154  156.7907 N   0  0  0  0  0  0  0  0  0  0  0  0
  148.5469  132.9815  155.3884 C   0  0  2  0  0  0  0  0  0  0  0  0
  149.3327  131.7172  155.0165 C   0  0  0  0  0  0  0  0  0  0  0  0
  148.9136  134.1677  154.4675 C   0  0  0  0  0  0  0  0  0  0  0  0
  147.9773  134.3141  153.3250 N   0  3  0  0  0  0  0  0  0  0  0  0
  147.7495  133.0554  152.5794 C   0  0  0  0  0  0  0  0  0  0  0  0
  146.8606  133.3264  151.3535 C   0  0  0  0  0  0  0  0  0  0  0  0
  145.6338  133.9143  151.7715 O   0  0  0  0  0  0  0  0  0  0  0  0
  145.8349  135.1608  152.4288 C   0  0  0  0  0  0  0  0  0  0  0  0
  146.6860  134.9431  153.6903 C   0  0  0  0  0  0  0  0  0  0  0  0
  147.4810  136.3309  159.2271 N   0  0  0  0  0  0  0  0  0  0  0  0
  147.0263  136.9327  160.4067 O   0  0  0  0  0  0  0  0  0  0  0  0
  147.3015  137.7616  162.9228 H   0  0  0  0  0  0  0  0  0  0  0  0
  147.6574  136.1699  163.5955 H   0  0  0  0  0  0  0  0  0  0  0  0
  146.0348  136.5352  163.0057 H   0  0  0  0  0  0  0  0  0  0  0  0
  148.7062  134.3909  161.6317 H   0  0  0  0  0  0  0  0  0  0  0  0
  149.4865  132.7473  157.2712 H   0  0  0  0  0  0  0  0  0  0  0  0
  147.4897  132.7458  155.2592 H   0  0  0  0  0  0  0  0  0  0  0  0
  149.1410  131.4260  153.9834 H   0  0  0  0  0  0  0  0  0  0  0  0
  149.0491  130.8778  155.6525 H   0  0  0  0  0  0  0  0  0  0  0  0
  150.4072  131.8687  155.1258 H   0  0  0  0  0  0  0  0  0  0  0  0
  148.8855  135.0792  155.0665 H   0  0  0  0  0  0  0  0  0  0  0  0
  149.9374  134.0767  154.1015 H   0  0  0  0  0  0  0  0  0  0  0  0
  148.7031  132.6389  152.2526 H   0  0  0  0  0  0  0  0  0  0  0  0
  147.2807  132.3188  153.2336 H   0  0  0  0  0  0  0  0  0  0  0  0
  147.3676  133.9818  150.6430 H   0  0  0  0  0  0  0  0  0  0  0  0
  146.6464  132.3943  150.8304 H   0  0  0  0  0  0  0  0  0  0  0  0
  146.3146  135.8710  151.7530 H   0  0  0  0  0  0  0  0  0  0  0  0
  144.8652  135.5801  152.6969 H   0  0  0  0  0  0  0  0  0  0  0  0
  146.1528  134.3066  154.3981 H   0  0  0  0  0  0  0  0  0  0  0  0
  146.8556  135.8987  154.1856 H   0  0  0  0  0  0  0  0  0  0  0  0
  148.4333  134.9415  152.6763 H   0  0  0  0  0  0  0  0  0  0  0  0
  1  2  1  0  0  0  0
  1 20  1  0  0  0  0
  1 21  1  0  0  0  0
  1 22  1  0  0  0  0
  2 19  1  0  0  0  0
  2  3  2  0  0  0  0
  3  4  1  0  0  0  0
  3 23  1  0  0  0  0
  4  5  1  0  0  0  0
  4 18  2  0  0  0  0
  5  6  1  0  0  0  0
  6  7  2  0  0  0  0
  6  8  1  0  0  0  0
  8  9  1  0  0  0  0
  8 24  1  0  0  0  0
  9 10  1  0  0  0  0
  9 11  1  0  0  0  0
  9 25  1  0  0  0  0
 10 26  1  0  0  0  0
 10 27  1  0  0  0  0
 10 28  1  0  0  0  0
 11 12  1  0  0  0  0
 11 29  1  0  0  0  0
 11 30  1  0  0  0  0
 12 17  1  0  0  0  0
 12 13  1  0  0  0  0
 12 39  1  0  0  0  0
 13 14  1  0  0  0  0
 13 31  1  0  0  0  0
 13 32  1  0  0  0  0
 14 15  1  0  0  0  0
 14 33  1  0  0  0  0
 14 34  1  0  0  0  0
 15 16  1  0  0  0  0
 16 17  1  0  0  0  0
 16 35  1  0  0  0  0
 16 36  1  0  0  0  0
 17 37  1  0  0  0  0
 17 38  1  0  0  0  0
 18 19  1  0  0  0  0
M  CHG  1   5  -1
M  CHG  1  12   1
M  END
> <s_m_source_file>
AV-unprocessed.smi

> <i_m_source_file_index>
1952

> <i_lp_mmshare_version>
43012

> <i_f3d_flags>
0

> <s_epik_input>
W0NIM11jMVtjSF1jKG5vMSlbTkhdQyg9TylbTkhdW0NASF0oW0NIM10pW0NIMl1OMltDSDJdW0NIMl1PW0NIMl1bQ0gyXTI=

> <s_epik_cmdline>
J2VwaWtfcHl0aG9uJywgJy1waCcsICc3LjAnLCAnLXRuJywgJzgnLCAnLW1hJywgJzIwMCcsICctbWV0YWxfYmluZGluZycsICctaW1hZScsICc8aW5maWxlLm1hZT4nLCAnLW9tYWUnLCAnPG91dGZpbGUubWFlPic=

> <r_epik_Ionization_Penalty>
6.62152

> <r_epik_Ionization_Penalty_Charging>
6.62142

> <r_epik_Ionization_Penalty_Neutral>
9.8734e-05

> <r_epik_State_Penalty>
6.82189

> <r_epik_Charging_Adjusted_Penalty>
13.4433

> <i_epik_Tot_Q>
0

> <i_epik_Tot_abs_Q>
2

> <r_epik_Metal_State_Penalty>
2.76365

> <b_epik_Metal_Only>
1

> <s_lp_Force_Field>
OPLS_2005

> <r_lp_Energy>
7.85486

> <b_lp_Chiralities_Consistent>
1

> <s_lp_Variant>
AV-unprocessed.smi:1952-7

> <Gold.Version>
5.8.1

> <Gold.Id.Protein>
6NUR|6NUR_protein|mol2

> <Gold.PLP.Fitness>
38.1032

> <Gold.PLP.PLP>
-24.5422

> <Gold.PLP.part.hbond>
-3.0000

> <Gold.PLP.part.metal>
0.0000

> <Gold.PLP.part.buried>
-1.3043

> <Gold.PLP.part.nonpolar>
-20.0974

> <Gold.PLP.part.repulsive>
0.1753

> <Gold.PLP.ligand.clash>
0.0000

> <Gold.PLP.ligand.torsion>
0.7805

> <Gold.PLP.Chemscore.Hbond>
5.0000

> <Gold.PLP.Chemscore.CHOScore>
0.0000

> <Gold.PLP.Chemscore.Metal>
0.0000

> <Gold.Chemscore.Hbonds>
donor molecule, donor type, donor heavy atom, donor atom, acceptor molecule, acceptor atom, score
      L1  H    12    39       P1  7948  2.00
      P1  H  6896  6908       L1     5  2.00
      P1  H  6934  6947       L1    19  0.68

> <Gold.PLP.Chemscore.Internal.Correction>
0.1220

> <Gold.Rescore>
     Score         DG    S(hbond)    S(metal)    S(lipo)     H(rot)  DE(clash)    DE(int)     intcor
     13.00     -17.17       2.77        0.00      55.45       1.58       0.82       3.34       ----

> <Gold.Chemscore.Fitness>
12.9975

> <Gold.Chemscore.DG>
-17.1654

> <Gold.Chemscore.ZeroCoef>
-5.4800

> <Gold.Chemscore.Hbond>
2.7672

> <Gold.Chemscore.Metal>
0.0000

> <Gold.Chemscore.Lipo>
55.4467

> <Gold.Chemscore.Internal_Hbond>
0.0000

> <Gold.Chemscore.DEClash>
0.8233

> <Gold.Chemscore.DEInternal>
3.3447

> <Gold.Chemscore.Rot>
1.5798

> <Gold.Chemscore.Internal.Correction>
   9.000000E+99

> <Gold.Chemscore.Hbonds>
donor molecule, donor type, donor heavy atom, donor atom, acceptor molecule, acceptor atom, score
      L1  H    12    39       P1  7948  0.48
      P1  H  6896  6908       L1     5  0.62
      P1  H  6934  6947       L1    19  0.45

> <Gold.Chemscore.Hbond.Weighted>
-9.2424

> <Gold.Chemscore.Metal.Weighted>
-0.0000

> <Gold.Chemscore.Lipo.Weighted>
-6.4873

> <Gold.Chemscore.Internal_Hbond.Weighted>
0.0000

> <Gold.Chemscore.DEClash.Weighted>
0.8233

> <Gold.Chemscore.DEInternal.Weighted>
3.3447

> <Gold.Chemscore.Rot.Weighted>
4.0442

> <Gold.Chemscore.Internal.Correction.Weighted>
   9.000000E+99

> <Gold.Protein.RotatedTorsions>
[ 6907 6896 6895 6894 ] final  139.94 input  -60.11 | X-H torsion
[ 7974 7965 7964 7962 ] final  136.21 input  175.53 | X-H torsion
[ 8008 7997 7996 7995 ] final   15.54 input   59.86 | X-H torsion
[ 10167 10162 10161 10158 ] final   72.53 input  -65.29 | X-H torsion
[ 10718 10713 10712 10709 ] final -174.28 input   66.30 | X-H torsion
[ 10763 10752 10751 10750 ] final -175.89 input  -60.55 | X-H torsion
[ 11005 11000 10999 10996 ] final   97.30 input  -57.11 | X-H torsion

> <Gold.Protein.ActiveResidues>
 VAL166  LYS551  ARG553  GLY616  TRP617  ASP618  TYR619  PRO620  LYS621  CYS622 
 ASP623  PHE694  ASN695  SER759  ASP760  ASP761  ALA762  ILE779  LEU786  VAL792 
 PHE793  MET794  SER795  GLU796  ALA797  LYS798  CYS799  TRP800  GLU811  SER814 

> <Gold.Protein.RotatedAtoms>
  152.2489  133.5198  159.5313 H   0  0  0  0  0  0  0  0  0  0  0  0  # atno 6907 bound_to 6896
  150.7087  134.0987  159.3967 H   0  0  0  0  0  0  0  0  0  0  0  0  # atno 6908 bound_to 6896
  151.8906  135.0418  160.0548 H   0  0  0  0  0  0  0  0  0  0  0  0  # atno 6909 bound_to 6896
  144.9587  139.4735  143.5490 H   0  0  0  0  0  0  0  0  0  0  0  0  # atno 7974 bound_to 7965
  154.8641  140.2949  155.5521 H   0  0  0  0  0  0  0  0  0  0  0  0  # atno 8008 bound_to 7997
  156.3020  140.2472  156.3553 H   0  0  0  0  0  0  0  0  0  0  0  0  # atno 8009 bound_to 7997
  154.8886  140.0395  157.1814 H   0  0  0  0  0  0  0  0  0  0  0  0  # atno 8010 bound_to 7997
  140.0343  144.5441  150.7483 H   0  0  0  0  0  0  0  0  0  0  0  0  # atno 10167 bound_to 10162
  156.7828  130.9489  151.3120 H   0  0  0  0  0  0  0  0  0  0  0  0  # atno 10718 bound_to 10713
  154.5790  135.2834  155.0752 H   0  0  0  0  0  0  0  0  0  0  0  0  # atno 10763 bound_to 10752
  154.2095  135.6410  153.5115 H   0  0  0  0  0  0  0  0  0  0  0  0  # atno 10764 bound_to 10752
  153.0082  135.5488  154.6438 H   0  0  0  0  0  0  0  0  0  0  0  0  # atno 10765 bound_to 10752
  139.8777  134.8994  156.4286 H   0  0  0  0  0  0  0  0  0  0  0  0  # atno 11005 bound_to 11000
  146.3346  139.8722  142.8838 LP  0  0  0  0  0  0  0  0  0  0  0  0  # atno 17320 bound_to 7965
  145.2732  141.0115  143.3759 LP  0  0  0  0  0  0  0  0  0  0  0  0  # atno 17321 bound_to 7965
  140.7288  143.2666  151.4025 LP  0  0  0  0  0  0  0  0  0  0  0  0  # atno 17342 bound_to 10162
  139.6055  144.1205  152.2245 LP  0  0  0  0  0  0  0  0  0  0  0  0  # atno 17343 bound_to 10162
  157.6638  130.8990  149.9888 LP  0  0  0  0  0  0  0  0  0  0  0  0  # atno 17370 bound_to 10713
  156.1208  130.3646  149.9891 LP  0  0  0  0  0  0  0  0  0  0  0  0  # atno 17371 bound_to 10713
  140.9083  133.7730  155.9761 LP  0  0  0  0  0  0  0  0  0  0  0  0  # atno 17394 bound_to 11000
  140.8575  134.2880  157.5249 LP  0  0  0  0  0  0  0  0  0  0  0  0  # atno 17395 bound_to 11000

$$$$
