AV-unprocessed.smi:1556|AV-procd|sdf|6269|dock8
  -GOLD-   22720 6463D 1   1.00000     0.00000
 Structure written by MMmdl.
 37 38  0  0  0  0  0  0  0  0  1 V2000
  145.3457  130.0632  151.6835 C   0  0  0  0  0  0  0  0  0  0  0  0
  144.9077  131.3446  151.1732 N   0  0  0  0  0  0  0  0  0  0  0  0
  145.3819  132.6010  151.4825 C   0  0  0  0  0  0  0  0  0  0  0  0
  144.6872  133.4997  150.7230 C   0  0  0  0  0  0  0  0  0  0  0  0
  144.8554  134.9955  150.6502 C   0  0  0  0  0  0  0  0  0  0  0  0
  144.8587  135.6592  152.0421 C   0  0  0  0  0  0  0  0  0  0  0  0
  146.2057  135.8019  152.5854 N   0  0  0  0  0  0  0  0  0  0  0  0
  146.5845  135.4411  153.8221 C   0  0  0  0  0  0  0  0  0  0  0  0
  145.8000  135.0504  154.6842 O   0  0  0  0  0  0  0  0  0  0  0  0
  147.9074  135.5263  154.0505 N   0  0  0  0  0  0  0  0  0  0  0  0
  148.6359  135.2099  155.2811 C   0  0  1  0  0  0  0  0  0  0  0  0
  149.6490  134.0750  155.0394 C   0  0  0  0  0  0  0  0  0  0  0  0
  150.6275  134.0264  156.2186 C   0  0  0  0  0  0  0  0  0  0  0  0
  150.8053  135.7549  156.7994 S   0  0  0  0  0  0  0  0  0  0  0  0
  150.4773  135.8152  158.2317 O   0  0  0  0  0  0  0  0  0  0  0  0
  152.0611  136.3218  156.2851 O   0  0  0  0  0  0  0  0  0  0  0  0
  149.4095  136.4256  155.8238 C   0  0  0  0  0  0  0  0  0  0  0  0
  143.7821  132.6818  149.9884 C   0  0  0  0  0  0  0  0  0  0  0  0
  143.9200  131.3935  150.2561 N   0  0  0  0  0  0  0  0  0  0  0  0
  146.0211  130.2080  152.5271 H   0  0  0  0  0  0  0  0  0  0  0  0
  145.8710  129.5173  150.8991 H   0  0  0  0  0  0  0  0  0  0  0  0
  144.4857  129.4798  152.0140 H   0  0  0  0  0  0  0  0  0  0  0  0
  146.1817  132.7500  152.1928 H   0  0  0  0  0  0  0  0  0  0  0  0
  145.7782  135.2542  150.1307 H   0  0  0  0  0  0  0  0  0  0  0  0
  144.0551  135.4357  150.0541 H   0  0  0  0  0  0  0  0  0  0  0  0
  144.4362  136.6613  151.9646 H   0  0  0  0  0  0  0  0  0  0  0  0
  144.2201  135.1080  152.7342 H   0  0  0  0  0  0  0  0  0  0  0  0
  146.9186  136.1257  151.9481 H   0  0  0  0  0  0  0  0  0  0  0  0
  148.4674  135.8925  153.2939 H   0  0  0  0  0  0  0  0  0  0  0  0
  147.9343  134.8687  156.0446 H   0  0  0  0  0  0  0  0  0  0  0  0
  149.1544  133.1145  154.8907 H   0  0  0  0  0  0  0  0  0  0  0  0
  150.2139  134.2860  154.1300 H   0  0  0  0  0  0  0  0  0  0  0  0
  150.2145  133.4376  157.0378 H   0  0  0  0  0  0  0  0  0  0  0  0
  151.6008  133.6155  155.9499 H   0  0  0  0  0  0  0  0  0  0  0  0
  149.8286  137.0242  155.0146 H   0  0  0  0  0  0  0  0  0  0  0  0
  148.7993  137.0716  156.4547 H   0  0  0  0  0  0  0  0  0  0  0  0
  143.0440  132.9845  149.2602 H   0  0  0  0  0  0  0  0  0  0  0  0
  1  2  1  0  0  0  0
  1 20  1  0  0  0  0
  1 21  1  0  0  0  0
  1 22  1  0  0  0  0
  2 19  1  0  0  0  0
  2  3  1  0  0  0  0
  3  4  2  0  0  0  0
  3 23  1  0  0  0  0
  4  5  1  0  0  0  0
  4 18  1  0  0  0  0
  5  6  1  0  0  0  0
  5 24  1  0  0  0  0
  5 25  1  0  0  0  0
  6  7  1  0  0  0  0
  6 26  1  0  0  0  0
  6 27  1  0  0  0  0
  7  8  1  0  0  0  0
  7 28  1  0  0  0  0
  8  9  2  0  0  0  0
  8 10  1  0  0  0  0
 10 11  1  0  0  0  0
 10 29  1  0  0  0  0
 11 17  1  0  0  0  0
 11 12  1  0  0  0  0
 11 30  1  0  0  0  0
 12 13  1  0  0  0  0
 12 31  1  0  0  0  0
 12 32  1  0  0  0  0
 13 14  1  0  0  0  0
 13 33  1  0  0  0  0
 13 34  1  0  0  0  0
 14 15  2  0  0  0  0
 14 16  2  0  0  0  0
 14 17  1  0  0  0  0
 17 35  1  0  0  0  0
 17 36  1  0  0  0  0
 18 19  2  0  0  0  0
 18 37  1  0  0  0  0
M  END
> <s_m_source_file>
AV-unprocessed.smi

> <i_m_source_file_index>
1556

> <i_lp_mmshare_version>
43012

> <i_f3d_flags>
0

> <s_epik_input>
W0NIM11uMVtjSF1jKFtjSF1uMSlbQ0gyXVtDSDJdW05IXUMoPU8pW05IXVtDQEBIXShbQ0gyXTIpW0NIMl1bQ0gyXVMyKD1PKT1P

> <s_epik_cmdline>
J2VwaWtfcHl0aG9uJywgJy1waCcsICc3LjAnLCAnLXRuJywgJzgnLCAnLW1hJywgJzIwMCcsICctbWV0YWxfYmluZGluZycsICctaW1hZScsICc8aW5maWxlLm1hZT4nLCAnLW9tYWUnLCAnPG91dGZpbGUubWFlPic=

> <r_lp_tautomer_probability>
1

> <r_epik_Ionization_Penalty>
0.000530192

> <r_epik_Ionization_Penalty_Charging>
0

> <r_epik_Ionization_Penalty_Neutral>
0.000530192

> <r_epik_State_Penalty>
-0

> <r_epik_Charging_Adjusted_Penalty>
0

> <i_epik_Tot_Q>
0

> <i_epik_Tot_abs_Q>
0

> <r_epik_Metal_State_Penalty>
-0

> <b_epik_Metal_Only>
0

> <s_lp_Force_Field>
OPLS_2005

> <r_lp_Energy>
7.70197

> <b_lp_Chiralities_Consistent>
1

> <s_lp_Variant>
AV-unprocessed.smi:1556-2

> <Gold.Version>
5.8.1

> <Gold.Id.Protein>
6NUR|6NUR_protein|mol2

> <Gold.PLP.Fitness>
45.0033

> <Gold.PLP.PLP>
-30.2813

> <Gold.PLP.part.hbond>
-4.9239

> <Gold.PLP.part.metal>
0.0000

> <Gold.PLP.part.buried>
-4.4521

> <Gold.PLP.part.nonpolar>
-21.9084

> <Gold.PLP.part.repulsive>
0.2081

> <Gold.PLP.ligand.clash>
0.0000

> <Gold.PLP.ligand.torsion>
0.3693

> <Gold.PLP.Chemscore.Hbond>
4.1515

> <Gold.PLP.Chemscore.CHOScore>
1.0000

> <Gold.PLP.Chemscore.Metal>
0.0000

> <Gold.Chemscore.Hbonds>
donor molecule, donor type, donor heavy atom, donor atom, acceptor molecule, acceptor atom, score
      L1  H     7    28       P1  7948  0.78
      L1  H    10    29       P1  7948  1.00
      P1  H  6896  6908       L1    15  0.74
      P1  H 10752 10764       L1    16  1.00
      P1  H 10785 10796       L1    19  0.62
      L1  C    18    37       P1 10186  1.00

> <Gold.PLP.Chemscore.Internal.Correction>
0.0060

> <Gold.Rescore>
     Score         DG    S(hbond)    S(metal)    S(lipo)     H(rot)  DE(clash)    DE(int)     intcor
     21.72     -22.22       4.26        0.00      61.24       1.82       0.11       0.40       ----

> <Gold.Chemscore.Fitness>
21.7166

> <Gold.Chemscore.DG>
-22.2224

> <Gold.Chemscore.ZeroCoef>
-5.4800

> <Gold.Chemscore.Hbond>
4.2639

> <Gold.Chemscore.Metal>
0.0000

> <Gold.Chemscore.Lipo>
61.2413

> <Gold.Chemscore.Internal_Hbond>
0.0000

> <Gold.Chemscore.DEClash>
0.1056

> <Gold.Chemscore.DEInternal>
0.4002

> <Gold.Chemscore.Rot>
1.8220

> <Gold.Chemscore.Internal.Correction>
   9.000000E+99

> <Gold.Chemscore.Hbonds>
donor molecule, donor type, donor heavy atom, donor atom, acceptor molecule, acceptor atom, score
      L1  H     7    28       P1  7948  0.73
      L1  H    10    29       P1  7948  0.94
      P1  H  6896  6908       L1    15  0.72
      P1  H 10752 10764       L1    16  0.99
      P1  H 10785 10796       L1    19  0.53

> <Gold.Chemscore.Hbond.Weighted>
-14.2414

> <Gold.Chemscore.Metal.Weighted>
-0.0000

> <Gold.Chemscore.Lipo.Weighted>
-7.1652

> <Gold.Chemscore.Internal_Hbond.Weighted>
0.0000

> <Gold.Chemscore.DEClash.Weighted>
0.1056

> <Gold.Chemscore.DEInternal.Weighted>
0.4002

> <Gold.Chemscore.Rot.Weighted>
4.6642

> <Gold.Chemscore.Internal.Correction.Weighted>
   9.000000E+99

> <Gold.Protein.RotatedTorsions>
[ 6907 6896 6895 6894 ] final  178.53 input  -60.11 | X-H torsion
[ 7974 7965 7964 7962 ] final  169.01 input  175.53 | X-H torsion
[ 8008 7997 7996 7995 ] final -152.50 input   59.86 | X-H torsion
[ 10167 10162 10161 10158 ] final  -41.91 input  -65.29 | X-H torsion
[ 10718 10713 10712 10709 ] final  -42.76 input   66.30 | X-H torsion
[ 10763 10752 10751 10750 ] final  -40.98 input  -60.55 | X-H torsion
[ 11005 11000 10999 10996 ] final  143.78 input  -57.11 | X-H torsion

> <Gold.Protein.ActiveResidues>
 VAL166  LYS551  ARG553  GLY616  TRP617  ASP618  TYR619  PRO620  LYS621  CYS622 
 ASP623  PHE694  ASN695  SER759  ASP760  ASP761  ALA762  ILE779  LEU786  VAL792 
 PHE793  MET794  SER795  GLU796  ALA797  LYS798  CYS799  TRP800  GLU811  SER814 

> <Gold.Protein.RotatedAtoms>
  151.6864  133.3311  159.3231 H   0  0  0  0  0  0  0  0  0  0  0  0  # atno 6907 bound_to 6896
  150.7799  134.6736  159.6415 H   0  0  0  0  0  0  0  0  0  0  0  0  # atno 6908 bound_to 6896
  152.3853  134.6530  160.0180 H   0  0  0  0  0  0  0  0  0  0  0  0  # atno 6909 bound_to 6896
  144.7369  139.8991  143.6408 H   0  0  0  0  0  0  0  0  0  0  0  0  # atno 7974 bound_to 7965
  155.6560  140.0717  157.2570 H   0  0  0  0  0  0  0  0  0  0  0  0  # atno 8008 bound_to 7997
  154.4152  140.1724  156.1776 H   0  0  0  0  0  0  0  0  0  0  0  0  # atno 8009 bound_to 7997
  155.9737  140.3360  155.6602 H   0  0  0  0  0  0  0  0  0  0  0  0  # atno 8010 bound_to 7997
  140.6987  143.3068  151.3133 H   0  0  0  0  0  0  0  0  0  0  0  0  # atno 10167 bound_to 10162
  156.2561  130.4192  149.8594 H   0  0  0  0  0  0  0  0  0  0  0  0  # atno 10718 bound_to 10713
  153.9549  135.6746  153.4744 H   0  0  0  0  0  0  0  0  0  0  0  0  # atno 10763 bound_to 10752
  153.0866  135.4896  154.8606 H   0  0  0  0  0  0  0  0  0  0  0  0  # atno 10764 bound_to 10752
  154.7305  135.3137  154.8859 H   0  0  0  0  0  0  0  0  0  0  0  0  # atno 10765 bound_to 10752
  140.0580  134.9220  157.1135 H   0  0  0  0  0  0  0  0  0  0  0  0  # atno 11005 bound_to 11000
  146.1085  139.4087  143.0302 LP  0  0  0  0  0  0  0  0  0  0  0  0  # atno 17320 bound_to 7965
  145.7477  140.9984  143.1267 LP  0  0  0  0  0  0  0  0  0  0  0  0  # atno 17321 bound_to 7965
  139.6476  144.0422  152.2602 LP  0  0  0  0  0  0  0  0  0  0  0  0  # atno 17342 bound_to 10162
  139.9948  144.6336  150.7782 LP  0  0  0  0  0  0  0  0  0  0  0  0  # atno 17343 bound_to 10162
  156.6126  130.8593  151.3457 LP  0  0  0  0  0  0  0  0  0  0  0  0  # atno 17370 bound_to 10713
  157.7233  130.9588  150.1529 LP  0  0  0  0  0  0  0  0  0  0  0  0  # atno 17371 bound_to 10713
  140.3814  134.2283  155.7171 LP  0  0  0  0  0  0  0  0  0  0  0  0  # atno 17394 bound_to 11000
  141.1961  133.8091  157.0688 LP  0  0  0  0  0  0  0  0  0  0  0  0  # atno 17395 bound_to 11000

$$$$
