AV-unprocessed.smi:1409|AV-procd|sdf|5727|dock4
  -GOLD-   22720 5363D 1   1.00000     0.00000
 Structure written by MMmdl.
 37 38  0  0  0  0  0  0  0  0  1 V2000
  148.3442  131.9978  153.1759 C   0  0  0  0  0  0  0  0  0  0  0  0
  147.7215  133.1444  152.6073 O   0  0  0  0  0  0  0  0  0  0  0  0
  146.5272  132.9801  151.9318 C   0  0  0  0  0  0  0  0  0  0  0  0
  146.0192  131.7275  151.8138 N   0  0  0  0  0  0  0  0  0  0  0  0
  144.8526  131.5665  151.1560 C   0  0  0  0  0  0  0  0  0  0  0  0
  144.1324  132.6353  150.5918 C   0  0  0  0  0  0  0  0  0  0  0  0
  144.6570  133.9354  150.7130 C   0  0  0  0  0  0  0  0  0  0  0  0
  145.8885  134.1185  151.3872 C   0  0  0  0  0  0  0  0  0  0  0  0
  146.4933  135.3902  151.5847 N   0  0  0  0  0  0  0  0  0  0  0  0
  145.8949  136.5816  151.7511 C   0  0  0  0  0  0  0  0  0  0  0  0
  144.6794  136.7758  151.7381 O   0  0  0  0  0  0  0  0  0  0  0  0
  146.7983  137.5586  151.9108 N   0  0  0  0  0  0  0  0  0  0  0  0
  146.4830  138.9732  152.0802 C   0  0  0  0  0  0  0  0  0  0  0  0
  147.0043  139.5323  153.4191 C   0  0  2  0  0  0  0  0  0  0  0  0
  147.2218  141.0603  153.4049 C   0  0  0  0  0  0  0  0  0  0  0  0
  148.0032  141.4535  154.6615 C   0  0  0  0  0  0  0  0  0  0  0  0
  149.1507  140.0630  154.9794 S   0  0  0  0  0  0  0  0  0  0  0  0
  150.4772  140.3894  154.4346 O   0  0  0  0  0  0  0  0  0  0  0  0
  148.9924  139.6186  156.3723 O   0  0  0  0  0  0  0  0  0  0  0  0
  148.3239  138.8736  153.8543 C   0  0  0  0  0  0  0  0  0  0  0  0
  149.2732  132.2960  153.6615 H   0  0  0  0  0  0  0  0  0  0  0  0
  148.5937  131.2584  152.4134 H   0  0  0  0  0  0  0  0  0  0  0  0
  147.7097  131.5333  153.9321 H   0  0  0  0  0  0  0  0  0  0  0  0
  144.4787  130.5559  151.0828 H   0  0  0  0  0  0  0  0  0  0  0  0
  143.1958  132.4625  150.0825 H   0  0  0  0  0  0  0  0  0  0  0  0
  144.1009  134.7641  150.3026 H   0  0  0  0  0  0  0  0  0  0  0  0
  147.5008  135.4023  151.5209 H   0  0  0  0  0  0  0  0  0  0  0  0
  147.7762  137.3076  151.9064 H   0  0  0  0  0  0  0  0  0  0  0  0
  146.8917  139.5465  151.2462 H   0  0  0  0  0  0  0  0  0  0  0  0
  145.3997  139.0839  152.0259 H   0  0  0  0  0  0  0  0  0  0  0  0
  146.2691  139.3187  154.1966 H   0  0  0  0  0  0  0  0  0  0  0  0
  147.8081  141.3309  152.5257 H   0  0  0  0  0  0  0  0  0  0  0  0
  146.2800  141.6063  153.3408 H   0  0  0  0  0  0  0  0  0  0  0  0
  148.5577  142.3853  154.5497 H   0  0  0  0  0  0  0  0  0  0  0  0
  147.3350  141.5427  155.5184 H   0  0  0  0  0  0  0  0  0  0  0  0
  148.1737  137.9201  154.3610 H   0  0  0  0  0  0  0  0  0  0  0  0
  148.9850  138.7114  153.0025 H   0  0  0  0  0  0  0  0  0  0  0  0
  1  2  1  0  0  0  0
  1 21  1  0  0  0  0
  1 22  1  0  0  0  0
  1 23  1  0  0  0  0
  2  3  1  0  0  0  0
  3  8  1  0  0  0  0
  3  4  2  0  0  0  0
  4  5  1  0  0  0  0
  5  6  2  0  0  0  0
  5 24  1  0  0  0  0
  6  7  1  0  0  0  0
  6 25  1  0  0  0  0
  7  8  2  0  0  0  0
  7 26  1  0  0  0  0
  8  9  1  0  0  0  0
  9 10  1  0  0  0  0
  9 27  1  0  0  0  0
 10 11  2  0  0  0  0
 10 12  1  0  0  0  0
 12 13  1  0  0  0  0
 12 28  1  0  0  0  0
 13 14  1  0  0  0  0
 13 29  1  0  0  0  0
 13 30  1  0  0  0  0
 14 20  1  0  0  0  0
 14 15  1  0  0  0  0
 14 31  1  0  0  0  0
 15 16  1  0  0  0  0
 15 32  1  0  0  0  0
 15 33  1  0  0  0  0
 16 17  1  0  0  0  0
 16 34  1  0  0  0  0
 16 35  1  0  0  0  0
 17 18  2  0  0  0  0
 17 19  2  0  0  0  0
 17 20  1  0  0  0  0
 20 36  1  0  0  0  0
 20 37  1  0  0  0  0
M  END
> <s_m_source_file>
AV-unprocessed.smi

> <i_m_source_file_index>
1409

> <i_lp_mmshare_version>
43012

> <i_f3d_flags>
0

> <s_epik_input>
W0NIM11PYzFuW2NIXVtjSF1bY0hdYzFbTkhdQyg9TylbTkhdW0NIMl1bQ0BASF0oW0NIMl0yKVtDSDJdW0NIMl1TMig9Tyk9Tw==

> <s_epik_cmdline>
J2VwaWtfcHl0aG9uJywgJy1waCcsICc3LjAnLCAnLXRuJywgJzgnLCAnLW1hJywgJzIwMCcsICctbWV0YWxfYmluZGluZycsICctaW1hZScsICc8aW5maWxlLm1hZT4nLCAnLW9tYWUnLCAnPG91dGZpbGUubWFlPic=

> <r_lp_tautomer_probability>
1

> <r_epik_Ionization_Penalty>
9.0549e-05

> <r_epik_Ionization_Penalty_Charging>
0

> <r_epik_Ionization_Penalty_Neutral>
9.0549e-05

> <r_epik_State_Penalty>
-0

> <r_epik_Charging_Adjusted_Penalty>
0

> <i_epik_Tot_Q>
0

> <i_epik_Tot_abs_Q>
0

> <r_epik_Metal_State_Penalty>
-0

> <b_epik_Metal_Only>
0

> <s_lp_Force_Field>
OPLS_2005

> <r_lp_Energy>
8.54576

> <b_lp_Chiralities_Consistent>
1

> <s_lp_Variant>
AV-unprocessed.smi:1409-1

> <Gold.Version>
5.8.1

> <Gold.Id.Protein>
6NUR|6NUR_protein|mol2

> <Gold.PLP.Fitness>
41.2717

> <Gold.PLP.PLP>
-33.2935

> <Gold.PLP.part.hbond>
-2.7385

> <Gold.PLP.part.metal>
0.0000

> <Gold.PLP.part.buried>
-4.1406

> <Gold.PLP.part.nonpolar>
-28.9724

> <Gold.PLP.part.repulsive>
3.4648

> <Gold.PLP.ligand.clash>
0.0000

> <Gold.PLP.ligand.torsion>
0.5023

> <Gold.PLP.Chemscore.Hbond>
2.9920

> <Gold.PLP.Chemscore.CHOScore>
0.0000

> <Gold.PLP.Chemscore.Metal>
0.0000

> <Gold.Chemscore.Hbonds>
donor molecule, donor type, donor heavy atom, donor atom, acceptor molecule, acceptor atom, score
      L1  H     9    27       P1  7948  0.99
      L1  H    12    28       P1  7948  1.00
      P1  H  7989  7998       L1    18  1.00

> <Gold.PLP.Chemscore.Internal.Correction>
0.0068

> <Gold.Rescore>
     Score         DG    S(hbond)    S(metal)    S(lipo)     H(rot)  DE(clash)    DE(int)     intcor
     16.56     -19.26       2.90        0.00      69.75       1.59       1.51       1.18       ----

> <Gold.Chemscore.Fitness>
16.5607

> <Gold.Chemscore.DG>
-19.2563

> <Gold.Chemscore.ZeroCoef>
-5.4800

> <Gold.Chemscore.Hbond>
2.9015

> <Gold.Chemscore.Metal>
0.0000

> <Gold.Chemscore.Lipo>
69.7494

> <Gold.Chemscore.Internal_Hbond>
0.0000

> <Gold.Chemscore.DEClash>
1.5114

> <Gold.Chemscore.DEInternal>
1.1842

> <Gold.Chemscore.Rot>
1.5919

> <Gold.Chemscore.Internal.Correction>
   9.000000E+99

> <Gold.Chemscore.Hbonds>
donor molecule, donor type, donor heavy atom, donor atom, acceptor molecule, acceptor atom, score
      L1  H     9    27       P1  7948  0.82
      L1  H    12    28       P1  7948  0.93
      P1  H  7989  7998       L1    18  0.93

> <Gold.Chemscore.Hbond.Weighted>
-9.6910

> <Gold.Chemscore.Metal.Weighted>
-0.0000

> <Gold.Chemscore.Lipo.Weighted>
-8.1607

> <Gold.Chemscore.Internal_Hbond.Weighted>
0.0000

> <Gold.Chemscore.DEClash.Weighted>
1.5114

> <Gold.Chemscore.DEInternal.Weighted>
1.1842

> <Gold.Chemscore.Rot.Weighted>
4.0754

> <Gold.Chemscore.Internal.Correction.Weighted>
   9.000000E+99

> <Gold.Protein.RotatedTorsions>
[ 6907 6896 6895 6894 ] final  -12.78 input  -60.11 | X-H torsion
[ 7974 7965 7964 7962 ] final  174.25 input  175.53 | X-H torsion
[ 8008 7997 7996 7995 ] final  -78.46 input   59.86 | X-H torsion
[ 10167 10162 10161 10158 ] final   20.93 input  -65.29 | X-H torsion
[ 10718 10713 10712 10709 ] final  -60.51 input   66.30 | X-H torsion
[ 10763 10752 10751 10750 ] final  129.91 input  -60.55 | X-H torsion
[ 11005 11000 10999 10996 ] final   14.13 input  -57.11 | X-H torsion

> <Gold.Protein.ActiveResidues>
 VAL166  LYS551  ARG553  GLY616  TRP617  ASP618  TYR619  PRO620  LYS621  CYS622 
 ASP623  PHE694  ASN695  SER759  ASP760  ASP761  ALA762  ILE779  LEU786  VAL792 
 PHE793  MET794  SER795  GLU796  ALA797  LYS798  CYS799  TRP800  GLU811  SER814 

> <Gold.Protein.RotatedAtoms>
  151.3651  135.0911  159.9446 H   0  0  0  0  0  0  0  0  0  0  0  0  # atno 6907 bound_to 6896
  152.5151  133.9220  159.7549 H   0  0  0  0  0  0  0  0  0  0  0  0  # atno 6908 bound_to 6896
  150.9622  133.6379  159.2781 H   0  0  0  0  0  0  0  0  0  0  0  0  # atno 6909 bound_to 6896
  144.7226  139.9768  143.6438 H   0  0  0  0  0  0  0  0  0  0  0  0  # atno 7974 bound_to 7965
  154.5692  140.0694  156.8938 H   0  0  0  0  0  0  0  0  0  0  0  0  # atno 8008 bound_to 7997
  155.2666  140.3362  155.4250 H   0  0  0  0  0  0  0  0  0  0  0  0  # atno 8009 bound_to 7997
  156.2105  140.1757  156.7691 H   0  0  0  0  0  0  0  0  0  0  0  0  # atno 8010 bound_to 7997
  140.5466  143.9584  150.6551 H   0  0  0  0  0  0  0  0  0  0  0  0  # atno 10167 bound_to 10162
  156.0985  130.4189  150.0865 H   0  0  0  0  0  0  0  0  0  0  0  0  # atno 10718 bound_to 10713
  153.7494  135.3212  155.3318 H   0  0  0  0  0  0  0  0  0  0  0  0  # atno 10763 bound_to 10752
  154.8268  135.4564  154.0947 H   0  0  0  0  0  0  0  0  0  0  0  0  # atno 10764 bound_to 10752
  153.2145  135.6940  153.8156 H   0  0  0  0  0  0  0  0  0  0  0  0  # atno 10765 bound_to 10752
  140.4730  134.1012  155.7736 H   0  0  0  0  0  0  0  0  0  0  0  0  # atno 11005 bound_to 11000
  146.0519  139.3519  143.0634 LP  0  0  0  0  0  0  0  0  0  0  0  0  # atno 17320 bound_to 7965
  145.8204  140.9682  143.0902 LP  0  0  0  0  0  0  0  0  0  0  0  0  # atno 17321 bound_to 7965
  140.2998  143.3268  152.0982 LP  0  0  0  0  0  0  0  0  0  0  0  0  # atno 17342 bound_to 10162
  139.5010  144.6703  151.6257 LP  0  0  0  0  0  0  0  0  0  0  0  0  # atno 17343 bound_to 10162
  156.8858  130.9572  151.3594 LP  0  0  0  0  0  0  0  0  0  0  0  0  # atno 17370 bound_to 10713
  157.6151  130.8612  149.9015 LP  0  0  0  0  0  0  0  0  0  0  0  0  # atno 17371 bound_to 10713
  141.1568  133.8868  157.1956 LP  0  0  0  0  0  0  0  0  0  0  0  0  # atno 17394 bound_to 11000
  139.9873  135.0077  156.9894 LP  0  0  0  0  0  0  0  0  0  0  0  0  # atno 17395 bound_to 11000

$$$$
