AV-unprocessed.smi:3017|AV-procd|sdf|11475|dock6
  -GOLD-   2272016413D 1   1.00000     0.00000
 Structure written by MMmdl.
 37 38  0  0  0  0  0  0  0  0  1 V2000
  151.4396  144.9538  159.3092 C   0  0  0  0  0  0  0  0  0  0  0  0
  151.8929  143.6593  159.9989 C   0  0  2  0  0  0  0  0  0  0  0  0
  152.1996  143.8921  161.4907 C   0  0  0  0  0  0  0  0  0  0  0  0
  152.6612  142.5987  162.1809 C   0  0  0  0  0  0  0  0  0  0  0  0
  153.8743  141.9857  161.4634 C   0  0  0  0  0  0  0  0  0  0  0  0
  153.5869  141.7403  159.9674 C   0  0  1  0  0  0  0  0  0  0  0  0
  152.5671  140.7648  159.7897 O   0  0  0  0  0  0  0  0  0  0  0  0
  153.0224  139.4183  159.7796 C   0  0  0  0  0  0  0  0  0  0  0  0
  152.4351  138.7021  158.5638 C   0  0  0  0  0  0  0  0  0  0  0  0
  152.1740  137.5016  158.6398 O   0  0  0  0  0  0  0  0  0  0  0  0
  152.2591  139.4551  157.4616 N   0  0  0  0  0  0  0  0  0  0  0  0
  151.7150  139.0663  156.2098 C   0  0  0  0  0  0  0  0  0  0  0  0
  150.9492  140.0501  155.5409 C   0  0  0  0  0  0  0  0  0  0  0  0
  150.3622  139.8282  154.3437 N   0  0  0  0  0  0  0  0  0  0  0  0
  150.5402  138.6046  153.8018 C   0  0  0  0  0  0  0  0  0  0  0  0
  151.3003  137.6128  154.4530 C   0  0  0  0  0  0  0  0  0  0  0  0
  151.8845  137.8413  155.6494 N   0  0  0  0  0  0  0  0  0  0  0  0
  153.1122  143.0375  159.2866 C   0  0  0  0  0  0  0  0  0  0  0  0
  152.2214  145.7137  159.3372 H   0  0  0  0  0  0  0  0  0  0  0  0
  150.5548  145.3676  159.7938 H   0  0  0  0  0  0  0  0  0  0  0  0
  151.1873  144.7731  158.2639 H   0  0  0  0  0  0  0  0  0  0  0  0
  151.0658  142.9508  159.9335 H   0  0  0  0  0  0  0  0  0  0  0  0
  152.9736  144.6537  161.5938 H   0  0  0  0  0  0  0  0  0  0  0  0
  151.3154  144.2802  161.9974 H   0  0  0  0  0  0  0  0  0  0  0  0
  152.9109  142.8037  163.2222 H   0  0  0  0  0  0  0  0  0  0  0  0
  151.8421  141.8787  162.1966 H   0  0  0  0  0  0  0  0  0  0  0  0
  154.7224  142.6652  161.5557 H   0  0  0  0  0  0  0  0  0  0  0  0
  154.1763  141.0650  161.9613 H   0  0  0  0  0  0  0  0  0  0  0  0
  154.4979  141.4071  159.4672 H   0  0  0  0  0  0  0  0  0  0  0  0
  154.1111  139.3844  159.7199 H   0  0  0  0  0  0  0  0  0  0  0  0
  152.7201  138.8945  160.6865 H   0  0  0  0  0  0  0  0  0  0  0  0
  152.5299  140.4248  157.5387 H   0  0  0  0  0  0  0  0  0  0  0  0
  150.8029  141.0304  155.9709 H   0  0  0  0  0  0  0  0  0  0  0  0
  150.0749  138.4156  152.8457 H   0  0  0  0  0  0  0  0  0  0  0  0
  151.4393  136.6357  154.0146 H   0  0  0  0  0  0  0  0  0  0  0  0
  152.8725  142.8355  158.2419 H   0  0  0  0  0  0  0  0  0  0  0  0
  153.9321  143.7569  159.2773 H   0  0  0  0  0  0  0  0  0  0  0  0
  1  2  1  0  0  0  0
  1 19  1  0  0  0  0
  1 20  1  0  0  0  0
  1 21  1  0  0  0  0
  2 18  1  0  0  0  0
  2  3  1  0  0  0  0
  2 22  1  0  0  0  0
  3  4  1  0  0  0  0
  3 23  1  0  0  0  0
  3 24  1  0  0  0  0
  4  5  1  0  0  0  0
  4 25  1  0  0  0  0
  4 26  1  0  0  0  0
  5  6  1  0  0  0  0
  5 27  1  0  0  0  0
  5 28  1  0  0  0  0
  6  7  1  0  0  0  0
  6 18  1  0  0  0  0
  6 29  1  0  0  0  0
  7  8  1  0  0  0  0
  8  9  1  0  0  0  0
  8 30  1  0  0  0  0
  8 31  1  0  0  0  0
  9 10  2  0  0  0  0
  9 11  1  0  0  0  0
 11 12  1  0  0  0  0
 11 32  1  0  0  0  0
 12 17  1  0  0  0  0
 12 13  2  0  0  0  0
 13 14  1  0  0  0  0
 13 33  1  0  0  0  0
 14 15  2  0  0  0  0
 15 16  1  0  0  0  0
 15 34  1  0  0  0  0
 16 17  2  0  0  0  0
 16 35  1  0  0  0  0
 18 36  1  0  0  0  0
 18 37  1  0  0  0  0
M  END
> <s_m_source_file>
AV-unprocessed.smi

> <i_m_source_file_index>
3017

> <i_lp_mmshare_version>
43012

> <i_f3d_flags>
0

> <s_epik_input>
W0NIM11bQ0BASF0xW0NIMl1bQ0gyXVtDSDJdW0NASF0oW0NIMl0xKU9bQ0gyXUMoPU8pW05IXWMyW2NIXW5bY0hdW2NIXW4y

> <s_epik_cmdline>
J2VwaWtfcHl0aG9uJywgJy1waCcsICc3LjAnLCAnLXRuJywgJzgnLCAnLW1hJywgJzIwMCcsICctbWV0YWxfYmluZGluZycsICctaW1hZScsICc8aW5maWxlLm1hZT4nLCAnLW9tYWUnLCAnPG91dGZpbGUubWFlPic=

> <r_lp_tautomer_probability>
1

> <r_epik_Ionization_Penalty>
2.89243e-06

> <r_epik_Ionization_Penalty_Charging>
0

> <r_epik_Ionization_Penalty_Neutral>
2.89243e-06

> <r_epik_State_Penalty>
-0

> <r_epik_Charging_Adjusted_Penalty>
0

> <i_epik_Tot_Q>
0

> <i_epik_Tot_abs_Q>
0

> <r_epik_Metal_State_Penalty>
-0

> <b_epik_Metal_Only>
0

> <s_lp_Force_Field>
OPLS_2005

> <r_lp_Energy>
20.5488

> <b_lp_Chiralities_Consistent>
1

> <s_lp_Variant>
AV-unprocessed.smi:3017-1

> <Gold.Version>
5.8.1

> <Gold.Id.Protein>
6NUR|6NUR_protein|mol2

> <Gold.PLP.Fitness>
48.0337

> <Gold.PLP.PLP>
-41.1635

> <Gold.PLP.part.hbond>
-1.0000

> <Gold.PLP.part.metal>
0.0000

> <Gold.PLP.part.buried>
-4.1839

> <Gold.PLP.part.nonpolar>
-35.6995

> <Gold.PLP.part.repulsive>
0.2298

> <Gold.PLP.ligand.clash>
0.0000

> <Gold.PLP.ligand.torsion>
1.2745

> <Gold.PLP.Chemscore.Hbond>
0.6000

> <Gold.PLP.Chemscore.CHOScore>
2.5368

> <Gold.PLP.Chemscore.Metal>
0.0000

> <Gold.Chemscore.Hbonds>
donor molecule, donor type, donor heavy atom, donor atom, acceptor molecule, acceptor atom, score
      P1  H  7989  7998       L1    14  0.60
      L1  C    15    34       P1  7948  0.85
      L1  C    15    34       P1  7957  0.94
      L1  C    16    35       P1  7949  0.74

> <Gold.PLP.Chemscore.Internal.Correction>
0.0089

> <Gold.Rescore>
     Score         DG    S(hbond)    S(metal)    S(lipo)     H(rot)  DE(clash)    DE(int)     intcor
     13.07     -15.37       0.07        0.00     115.50       1.51       0.08       2.22       ----

> <Gold.Chemscore.Fitness>
13.0664

> <Gold.Chemscore.DG>
-15.3668

> <Gold.Chemscore.ZeroCoef>
-5.4800

> <Gold.Chemscore.Hbond>
0.0731

> <Gold.Chemscore.Metal>
0.0000

> <Gold.Chemscore.Lipo>
115.4959

> <Gold.Chemscore.Internal_Hbond>
0.0000

> <Gold.Chemscore.DEClash>
0.0822

> <Gold.Chemscore.DEInternal>
2.2181

> <Gold.Chemscore.Rot>
1.5119

> <Gold.Chemscore.Internal.Correction>
   9.000000E+99

> <Gold.Chemscore.Hbonds>
donor molecule, donor type, donor heavy atom, donor atom, acceptor molecule, acceptor atom, score
      P1  H  7989  7998       L1    14  0.02

> <Gold.Chemscore.Hbond.Weighted>
-0.2443

> <Gold.Chemscore.Metal.Weighted>
-0.0000

> <Gold.Chemscore.Lipo.Weighted>
-13.5130

> <Gold.Chemscore.Internal_Hbond.Weighted>
0.0000

> <Gold.Chemscore.DEClash.Weighted>
0.0822

> <Gold.Chemscore.DEInternal.Weighted>
2.2181

> <Gold.Chemscore.Rot.Weighted>
3.8706

> <Gold.Chemscore.Internal.Correction.Weighted>
   9.000000E+99

> <Gold.Protein.RotatedTorsions>
[ 6907 6896 6895 6894 ] final -130.16 input  -60.11 | X-H torsion
[ 7974 7965 7964 7962 ] final  169.25 input  175.53 | X-H torsion
[ 8008 7997 7996 7995 ] final   82.81 input   59.86 | X-H torsion
[ 10167 10162 10161 10158 ] final  -42.68 input  -65.29 | X-H torsion
[ 10718 10713 10712 10709 ] final  127.14 input   66.30 | X-H torsion
[ 10763 10752 10751 10750 ] final  177.90 input  -60.55 | X-H torsion
[ 11005 11000 10999 10996 ] final   59.82 input  -57.11 | X-H torsion

> <Gold.Protein.ActiveResidues>
 VAL166  LYS551  ARG553  GLY616  TRP617  ASP618  TYR619  PRO620  LYS621  CYS622 
 ASP623  PHE694  ASN695  SER759  ASP760  ASP761  ALA762  ILE779  LEU786  VAL792 
 PHE793  MET794  SER795  GLU796  ALA797  LYS798  CYS799  TRP800  GLU811  SER814 

> <Gold.Protein.RotatedAtoms>
  150.9367  133.6703  159.2798 H   0  0  0  0  0  0  0  0  0  0  0  0  # atno 6907 bound_to 6896
  151.4107  135.0983  159.9594 H   0  0  0  0  0  0  0  0  0  0  0  0  # atno 6908 bound_to 6896
  152.5051  133.8841  159.7416 H   0  0  0  0  0  0  0  0  0  0  0  0  # atno 6909 bound_to 6896
  144.7361  139.9026  143.6410 H   0  0  0  0  0  0  0  0  0  0  0  0  # atno 7974 bound_to 7965
  155.9155  140.3424  155.6132 H   0  0  0  0  0  0  0  0  0  0  0  0  # atno 8008 bound_to 7997
  155.7336  140.0798  157.2296 H   0  0  0  0  0  0  0  0  0  0  0  0  # atno 8009 bound_to 7997
  154.4062  140.1583  156.2524 H   0  0  0  0  0  0  0  0  0  0  0  0  # atno 8010 bound_to 7997
  140.6961  143.3024  151.3244 H   0  0  0  0  0  0  0  0  0  0  0  0  # atno 10167 bound_to 10162
  157.5359  131.1097  150.8937 H   0  0  0  0  0  0  0  0  0  0  0  0  # atno 10718 bound_to 10713
  154.5006  135.2783  155.1424 H   0  0  0  0  0  0  0  0  0  0  0  0  # atno 10763 bound_to 10752
  154.3059  135.6239  153.5448 H   0  0  0  0  0  0  0  0  0  0  0  0  # atno 10764 bound_to 10752
  152.9902  135.5708  154.5448 H   0  0  0  0  0  0  0  0  0  0  0  0  # atno 10765 bound_to 10752
  140.0276  134.6059  155.9551 H   0  0  0  0  0  0  0  0  0  0  0  0  # atno 11005 bound_to 11000
  146.1060  139.4060  143.0317 LP  0  0  0  0  0  0  0  0  0  0  0  0  # atno 17320 bound_to 7965
  145.7511  140.9972  143.1250 LP  0  0  0  0  0  0  0  0  0  0  0  0  # atno 17321 bound_to 7965
  139.6417  144.0526  152.2560 LP  0  0  0  0  0  0  0  0  0  0  0  0  # atno 17342 bound_to 10162
  140.0034  144.6277  150.7710 LP  0  0  0  0  0  0  0  0  0  0  0  0  # atno 17343 bound_to 10162
  156.9504  130.5417  149.5282 LP  0  0  0  0  0  0  0  0  0  0  0  0  # atno 17370 bound_to 10713
  156.0458  130.5534  150.8877 LP  0  0  0  0  0  0  0  0  0  0  0  0  # atno 17371 bound_to 10713
  141.1812  133.6547  156.5029 LP  0  0  0  0  0  0  0  0  0  0  0  0  # atno 17394 bound_to 11000
  140.4279  134.7128  157.4926 LP  0  0  0  0  0  0  0  0  0  0  0  0  # atno 17395 bound_to 11000

$$$$
