AV-unprocessed.smi:2505|AV-procd|sdf|9856|dock2
  -GOLD-   2272013483D 1   1.00000     0.00000
 Structure written by MMmdl.
 48 52  0  0  0  0  0  0  0  0  1 V2000
  146.2204  137.5601  154.9312 O   0  0  0  0  0  0  0  0  0  0  0  0
  147.0030  137.0718  154.1201 C   0  0  0  0  0  0  0  0  0  0  0  0
  148.2155  137.5730  153.8168 N   0  0  0  0  0  0  0  0  0  0  0  0
  148.8728  138.7229  154.3299 C   0  0  0  0  0  0  0  0  0  0  0  0
  148.1254  139.6274  155.1127 C   0  0  0  0  0  0  0  0  0  0  0  0
  148.6699  140.7487  155.6302 N   0  0  0  0  0  0  0  0  0  0  0  0
  149.9631  140.9632  155.3747 C   0  0  0  0  0  0  0  0  0  0  0  0
  150.5536  142.2279  155.9164 C   0  0  0  0  0  0  0  0  0  0  0  0
  151.5631  142.1927  157.0457 C   0  0  0  0  0  0  0  0  0  0  0  0
  150.1807  142.7272  157.2975 C   0  0  0  0  0  0  0  0  0  0  0  0
  150.7678  140.1914  154.6391 N   0  0  0  0  0  0  0  0  0  0  0  0
  150.2312  139.0670  154.1167 C   0  0  0  0  0  0  0  0  0  0  0  0
  146.6898  135.9589  153.4341 N   0  0  0  0  0  0  0  0  0  0  0  0
  145.4578  135.1724  153.5268 C   0  0  1  0  0  0  0  0  0  0  0  0
  144.2478  135.9252  152.9495 C   0  0  2  0  0  0  0  0  0  0  0  0
  143.1201  136.3374  153.8567 C   0  0  0  0  0  0  0  0  0  0  0  0
  142.1113  135.1987  153.6846 C   0  0  0  0  0  0  0  0  0  0  0  0
  142.8881  134.0994  153.2147 O   0  0  0  0  0  0  0  0  0  0  0  0
  143.8460  134.6137  152.2925 C   0  0  2  0  0  0  0  0  0  0  0  0
  145.2919  134.0913  152.4302 C   0  0  0  0  0  0  0  0  0  0  0  0
  146.1409  134.1663  151.1580 C   0  0  0  0  0  0  0  0  0  0  0  0
  145.9442  132.8405  150.4201 C   0  0  0  0  0  0  0  0  0  0  0  0
  145.5438  131.8279  151.4981 C   0  0  0  0  0  0  0  0  0  0  0  0
  145.4649  132.6217  152.8062 C   0  0  0  0  0  0  0  0  0  0  0  0
  148.7293  137.0656  153.1110 H   0  0  0  0  0  0  0  0  0  0  0  0
  147.0805  139.4531  155.3240 H   0  0  0  0  0  0  0  0  0  0  0  0
  150.6956  142.9669  155.1301 H   0  0  0  0  0  0  0  0  0  0  0  0
  151.8113  141.2239  157.4752 H   0  0  0  0  0  0  0  0  0  0  0  0
  152.3809  142.9092  157.0090 H   0  0  0  0  0  0  0  0  0  0  0  0
  150.0718  143.8018  157.4287 H   0  0  0  0  0  0  0  0  0  0  0  0
  149.5091  142.1143  157.8956 H   0  0  0  0  0  0  0  0  0  0  0  0
  150.9069  138.4689  153.5270 H   0  0  0  0  0  0  0  0  0  0  0  0
  147.3768  135.6267  152.7727 H   0  0  0  0  0  0  0  0  0  0  0  0
  145.2466  134.7834  154.5256 H   0  0  0  0  0  0  0  0  0  0  0  0
  144.5318  136.6718  152.2054 H   0  0  0  0  0  0  0  0  0  0  0  0
  143.4573  136.4036  154.8914 H   0  0  0  0  0  0  0  0  0  0  0  0
  142.6894  137.3006  153.5825 H   0  0  0  0  0  0  0  0  0  0  0  0
  141.5883  134.9551  154.6095 H   0  0  0  0  0  0  0  0  0  0  0  0
  141.3679  135.4567  152.9288 H   0  0  0  0  0  0  0  0  0  0  0  0
  143.4630  134.7206  151.2764 H   0  0  0  0  0  0  0  0  0  0  0  0
  145.8809  135.0178  150.5283 H   0  0  0  0  0  0  0  0  0  0  0  0
  147.1975  134.2686  151.4084 H   0  0  0  0  0  0  0  0  0  0  0  0
  145.1424  132.9351  149.6869 H   0  0  0  0  0  0  0  0  0  0  0  0
  146.8456  132.5393  149.8854 H   0  0  0  0  0  0  0  0  0  0  0  0
  144.5725  131.3944  151.2568 H   0  0  0  0  0  0  0  0  0  0  0  0
  146.2593  131.0084  151.5742 H   0  0  0  0  0  0  0  0  0  0  0  0
  146.3931  132.4875  153.3622 H   0  0  0  0  0  0  0  0  0  0  0  0
  144.6644  132.2517  153.4471 H   0  0  0  0  0  0  0  0  0  0  0  0
  1  2  2  0  0  0  0
  2  3  1  0  0  0  0
  2 13  1  0  0  0  0
  3  4  1  0  0  0  0
  3 25  1  0  0  0  0
  4 12  1  0  0  0  0
  4  5  2  0  0  0  0
  5  6  1  0  0  0  0
  5 26  1  0  0  0  0
  6  7  2  0  0  0  0
  7  8  1  0  0  0  0
  7 11  1  0  0  0  0
  8 10  1  0  0  0  0
  8  9  1  0  0  0  0
  8 27  1  0  0  0  0
  9 10  1  0  0  0  0
  9 28  1  0  0  0  0
  9 29  1  0  0  0  0
 10 30  1  0  0  0  0
 10 31  1  0  0  0  0
 11 12  2  0  0  0  0
 12 32  1  0  0  0  0
 13 14  1  0  0  0  0
 13 33  1  0  0  0  0
 14 20  1  0  0  0  0
 14 15  1  0  0  0  0
 14 34  1  0  0  0  0
 15 19  1  0  0  0  0
 15 16  1  0  0  0  0
 15 35  1  0  0  0  0
 16 17  1  0  0  0  0
 16 36  1  0  0  0  0
 16 37  1  0  0  0  0
 17 18  1  0  0  0  0
 17 38  1  0  0  0  0
 17 39  1  0  0  0  0
 18 19  1  0  0  0  0
 19 20  1  0  0  0  0
 19 40  1  0  0  0  0
 20 24  1  0  0  0  0
 20 21  1  0  0  0  0
 21 22  1  0  0  0  0
 21 41  1  0  0  0  0
 21 42  1  0  0  0  0
 22 23  1  0  0  0  0
 22 43  1  0  0  0  0
 22 44  1  0  0  0  0
 23 24  1  0  0  0  0
 23 45  1  0  0  0  0
 23 46  1  0  0  0  0
 24 47  1  0  0  0  0
 24 48  1  0  0  0  0
M  END
> <s_m_source_file>
AV-unprocessed.smi

> <i_m_source_file_index>
2505

> <i_lp_mmshare_version>
43012

> <i_f3d_flags>
0

> <s_epik_input>
W0NIMl0xW0NIMl1bQ0hdMWMobltjSF0yKW5bY0hdYzJbTkhdQyg9TylbTkhdW0NAQEhdM1tDQEBIXShbQ0gyXVtDSDJdTzQpW0NASF00QzM1W0NIMl1bQ0gyXVtDSDJdW0NIMl01

> <s_epik_cmdline>
J2VwaWtfcHl0aG9uJywgJy1waCcsICc3LjAnLCAnLXRuJywgJzgnLCAnLW1hJywgJzIwMCcsICctbWV0YWxfYmluZGluZycsICctaW1hZScsICc8aW5maWxlLm1hZT4nLCAnLW9tYWUnLCAnPG91dGZpbGUubWFlPic=

> <r_lp_tautomer_probability>
1

> <r_epik_Ionization_Penalty>
2.6075e-05

> <r_epik_Ionization_Penalty_Charging>
0

> <r_epik_Ionization_Penalty_Neutral>
2.6075e-05

> <r_epik_State_Penalty>
-0

> <r_epik_Charging_Adjusted_Penalty>
0

> <i_epik_Tot_Q>
0

> <i_epik_Tot_abs_Q>
0

> <r_epik_Metal_State_Penalty>
-0

> <b_epik_Metal_Only>
0

> <s_lp_Force_Field>
OPLS_2005

> <r_lp_Energy>
62.9039

> <b_lp_Chiralities_Consistent>
1

> <s_lp_Variant>
AV-unprocessed.smi:2505-4

> <Gold.Version>
5.8.1

> <Gold.Id.Protein>
6NUR|6NUR_protein|mol2

> <Gold.PLP.Fitness>
41.7324

> <Gold.PLP.PLP>
-34.0455

> <Gold.PLP.part.hbond>
-2.8885

> <Gold.PLP.part.metal>
0.0000

> <Gold.PLP.part.buried>
-5.8974

> <Gold.PLP.part.nonpolar>
-24.9136

> <Gold.PLP.part.repulsive>
0.3798

> <Gold.PLP.ligand.clash>
0.0000

> <Gold.PLP.ligand.torsion>
0.5321

> <Gold.PLP.Chemscore.Hbond>
2.8160

> <Gold.PLP.Chemscore.CHOScore>
0.0000

> <Gold.PLP.Chemscore.Metal>
0.0000

> <Gold.Chemscore.Hbonds>
donor molecule, donor type, donor heavy atom, donor atom, acceptor molecule, acceptor atom, score
      L1  H     3    25       P1  7948  0.94
      L1  H    13    33       P1  7948  0.83
      P1  H  7989  7998       L1    11  1.00

> <Gold.PLP.Chemscore.Internal.Correction>
0.3032

> <Gold.Rescore>
     Score         DG    S(hbond)    S(metal)    S(lipo)     H(rot)  DE(clash)    DE(int)     intcor
     16.92     -19.20       2.05        0.00      84.30       1.17       0.53       1.75       ----

> <Gold.Chemscore.Fitness>
16.9212

> <Gold.Chemscore.DG>
-19.1976

> <Gold.Chemscore.ZeroCoef>
-5.4800

> <Gold.Chemscore.Hbond>
2.0542

> <Gold.Chemscore.Metal>
0.0000

> <Gold.Chemscore.Lipo>
84.3004

> <Gold.Chemscore.Internal_Hbond>
0.0000

> <Gold.Chemscore.DEClash>
0.5283

> <Gold.Chemscore.DEInternal>
1.7480

> <Gold.Chemscore.Rot>
1.1744

> <Gold.Chemscore.Internal.Correction>
   9.000000E+99

> <Gold.Chemscore.Hbonds>
donor molecule, donor type, donor heavy atom, donor atom, acceptor molecule, acceptor atom, score
      L1  H     3    25       P1  7948  0.89
      L1  H    13    33       P1  7948  0.81
      P1  H  7989  7998       L1    11  0.56

> <Gold.Chemscore.Hbond.Weighted>
-6.8609

> <Gold.Chemscore.Metal.Weighted>
-0.0000

> <Gold.Chemscore.Lipo.Weighted>
-9.8631

> <Gold.Chemscore.Internal_Hbond.Weighted>
0.0000

> <Gold.Chemscore.DEClash.Weighted>
0.5283

> <Gold.Chemscore.DEInternal.Weighted>
1.7480

> <Gold.Chemscore.Rot.Weighted>
3.0064

> <Gold.Chemscore.Internal.Correction.Weighted>
   9.000000E+99

> <Gold.Protein.RotatedTorsions>
[ 6907 6896 6895 6894 ] final -108.31 input  -60.11 | X-H torsion
[ 7974 7965 7964 7962 ] final  111.72 input  175.53 | X-H torsion
[ 8008 7997 7996 7995 ] final  -64.07 input   59.86 | X-H torsion
[ 10167 10162 10161 10158 ] final  -37.60 input  -65.29 | X-H torsion
[ 10718 10713 10712 10709 ] final -137.13 input   66.30 | X-H torsion
[ 10763 10752 10751 10750 ] final   29.71 input  -60.55 | X-H torsion
[ 11005 11000 10999 10996 ] final  146.06 input  -57.11 | X-H torsion

> <Gold.Protein.ActiveResidues>
 VAL166  LYS551  ARG553  GLY616  TRP617  ASP618  TYR619  PRO620  LYS621  CYS622 
 ASP623  PHE694  ASN695  SER759  ASP760  ASP761  ALA762  ILE779  LEU786  VAL792 
 PHE793  MET794  SER795  GLU796  ALA797  LYS798  CYS799  TRP800  GLU811  SER814 

> <Gold.Protein.RotatedAtoms>
  150.7494  133.9697  159.3541 H   0  0  0  0  0  0  0  0  0  0  0  0  # atno 6907 bound_to 6896
  151.7630  135.0803  160.0358 H   0  0  0  0  0  0  0  0  0  0  0  0  # atno 6908 bound_to 6896
  152.3390  133.6008  159.5899 H   0  0  0  0  0  0  0  0  0  0  0  0  # atno 6909 bound_to 6896
  145.2386  139.2788  143.4130 H   0  0  0  0  0  0  0  0  0  0  0  0  # atno 7974 bound_to 7965
  154.4591  140.0961  156.6841 H   0  0  0  0  0  0  0  0  0  0  0  0  # atno 8008 bound_to 7997
  155.5049  140.3474  155.4359 H   0  0  0  0  0  0  0  0  0  0  0  0  # atno 8009 bound_to 7997
  156.0835  140.1379  156.9671 H   0  0  0  0  0  0  0  0  0  0  0  0  # atno 8010 bound_to 7997
  140.7114  143.3332  151.2523 H   0  0  0  0  0  0  0  0  0  0  0  0  # atno 10167 bound_to 10162
  156.2847  130.7340  151.1348 H   0  0  0  0  0  0  0  0  0  0  0  0  # atno 10718 bound_to 10713
  153.0414  135.6482  154.0933 H   0  0  0  0  0  0  0  0  0  0  0  0  # atno 10763 bound_to 10752
  154.0639  135.2886  155.3321 H   0  0  0  0  0  0  0  0  0  0  0  0  # atno 10764 bound_to 10752
  154.6639  135.5381  153.8118 H   0  0  0  0  0  0  0  0  0  0  0  0  # atno 10765 bound_to 10752
  140.0762  134.9123  157.1427 H   0  0  0  0  0  0  0  0  0  0  0  0  # atno 11005 bound_to 11000
  146.3334  140.2742  142.8607 LP  0  0  0  0  0  0  0  0  0  0  0  0  # atno 17320 bound_to 7965
  144.9610  140.8275  143.5513 LP  0  0  0  0  0  0  0  0  0  0  0  0  # atno 17321 bound_to 7965
  139.6819  143.9839  152.2813 LP  0  0  0  0  0  0  0  0  0  0  0  0  # atno 17342 bound_to 10162
  139.9472  144.6644  150.8207 LP  0  0  0  0  0  0  0  0  0  0  0  0  # atno 17343 bound_to 10162
  157.7325  131.0599  150.5626 LP  0  0  0  0  0  0  0  0  0  0  0  0  # atno 17370 bound_to 10713
  156.5735  130.4286  149.6009 LP  0  0  0  0  0  0  0  0  0  0  0  0  # atno 17371 bound_to 10713
  140.3554  134.2553  155.7193 LP  0  0  0  0  0  0  0  0  0  0  0  0  # atno 17394 bound_to 11000
  141.2030  133.7922  157.0360 LP  0  0  0  0  0  0  0  0  0  0  0  0  # atno 17395 bound_to 11000

$$$$
