AV-unprocessed.smi:3111|AV-procd|sdf|11833|dock10
  -GOLD-   2272017203D 1   1.00000     0.00000
 Structure written by MMmdl.
 29 29  0  0  0  0  0  0  0  0  1 V2000
  146.8255  139.0196  151.7764 C   0  0  0  0  0  0  0  0  0  0  0  0
  146.9517  137.8194  152.5890 N   0  0  0  0  0  0  0  0  0  0  0  0
  146.2550  137.5926  153.7112 C   0  0  0  0  0  0  0  0  0  0  0  0
  145.4237  138.3848  154.1582 O   0  0  0  0  0  0  0  0  0  0  0  0
  146.5320  136.2594  154.4181 C   0  0  0  0  0  0  0  0  0  0  0  0
  146.9170  135.1987  153.4912 N   0  0  0  0  0  0  0  0  0  0  0  0
  146.3138  134.0032  153.3885 C   0  0  0  0  0  0  0  0  0  0  0  0
  145.3866  133.6533  154.1199 O   0  0  0  0  0  0  0  0  0  0  0  0
  146.8363  133.0759  152.2798 C   0  0  1  0  0  0  0  0  0  0  0  0
  147.4108  131.7531  152.8214 C   0  0  0  0  0  0  0  0  0  0  0  0
  145.7942  132.8329  151.2918 N   0  0  0  0  0  0  0  0  0  0  0  0
  144.4524  133.1798  151.3948 C   0  0  0  0  0  0  0  0  0  0  0  0
  143.8420  132.7491  150.2388 C   0  0  0  0  0  0  0  0  0  0  0  0
  144.7804  132.1354  149.4134 N   0  0  0  0  0  0  0  0  0  0  0  0
  145.9109  132.2215  150.1022 C   0  0  0  0  0  0  0  0  0  0  0  0
  147.4926  138.9583  150.9166 H   0  0  0  0  0  0  0  0  0  0  0  0
  147.0915  139.9074  152.3517 H   0  0  0  0  0  0  0  0  0  0  0  0
  145.8050  139.1349  151.4093 H   0  0  0  0  0  0  0  0  0  0  0  0
  147.6129  137.1204  152.2828 H   0  0  0  0  0  0  0  0  0  0  0  0
  147.3460  136.4062  155.1282 H   0  0  0  0  0  0  0  0  0  0  0  0
  145.6594  135.9547  154.9991 H   0  0  0  0  0  0  0  0  0  0  0  0
  147.6654  135.4083  152.8466 H   0  0  0  0  0  0  0  0  0  0  0  0
  147.6487  133.6036  151.7774 H   0  0  0  0  0  0  0  0  0  0  0  0
  148.2086  131.9347  153.5424 H   0  0  0  0  0  0  0  0  0  0  0  0
  147.8320  131.1541  152.0134 H   0  0  0  0  0  0  0  0  0  0  0  0
  146.6474  131.1497  153.3144 H   0  0  0  0  0  0  0  0  0  0  0  0
  144.0523  133.6897  152.2589 H   0  0  0  0  0  0  0  0  0  0  0  0
  142.8072  132.8318  149.9408 H   0  0  0  0  0  0  0  0  0  0  0  0
  146.8469  131.8274  149.7339 H   0  0  0  0  0  0  0  0  0  0  0  0
  1  2  1  0  0  0  0
  1 16  1  0  0  0  0
  1 17  1  0  0  0  0
  1 18  1  0  0  0  0
  2  3  1  0  0  0  0
  2 19  1  0  0  0  0
  3  4  2  0  0  0  0
  3  5  1  0  0  0  0
  5  6  1  0  0  0  0
  5 20  1  0  0  0  0
  5 21  1  0  0  0  0
  6  7  1  0  0  0  0
  6 22  1  0  0  0  0
  7  8  2  0  0  0  0
  7  9  1  0  0  0  0
  9 10  1  0  0  0  0
  9 11  1  0  0  0  0
  9 23  1  0  0  0  0
 10 24  1  0  0  0  0
 10 25  1  0  0  0  0
 10 26  1  0  0  0  0
 11 15  1  0  0  0  0
 11 12  1  0  0  0  0
 12 13  2  0  0  0  0
 12 27  1  0  0  0  0
 13 14  1  0  0  0  0
 13 28  1  0  0  0  0
 14 15  2  0  0  0  0
 15 29  1  0  0  0  0
M  END
> <s_m_source_file>
AV-unprocessed.smi

> <i_m_source_file_index>
3111

> <i_lp_mmshare_version>
43012

> <i_f3d_flags>
0

> <s_epik_input>
W0NIM11bTkhdQyg9TylbQ0gyXVtOSF1DKD1PKVtDQEhdKFtDSDNdKW4xW2NIXVtjSF1uW2NIXTE=

> <s_epik_cmdline>
J2VwaWtfcHl0aG9uJywgJy1waCcsICc3LjAnLCAnLXRuJywgJzgnLCAnLW1hJywgJzIwMCcsICctbWV0YWxfYmluZGluZycsICctaW1hZScsICc8aW5maWxlLm1hZT4nLCAnLW9tYWUnLCAnPG91dGZpbGUubWFlPic=

> <r_lp_tautomer_probability>
1

> <r_epik_Ionization_Penalty>
0.278299

> <r_epik_Ionization_Penalty_Charging>
0.278299

> <r_epik_Ionization_Penalty_Neutral>
1.78617e-07

> <r_epik_State_Penalty>
0.270759

> <r_epik_Charging_Adjusted_Penalty>
0.549058

> <i_epik_Tot_Q>
0

> <i_epik_Tot_abs_Q>
0

> <r_epik_Metal_State_Penalty>
0.183212

> <b_epik_Metal_Only>
0

> <s_lp_Force_Field>
OPLS_2005

> <r_lp_Energy>
4.73549

> <b_lp_Chiralities_Consistent>
1

> <s_lp_Variant>
AV-unprocessed.smi:3111-2

> <Gold.Version>
5.8.1

> <Gold.Id.Protein>
6NUR|6NUR_protein|mol2

> <Gold.PLP.Fitness>
35.4531

> <Gold.PLP.PLP>
-24.3734

> <Gold.PLP.part.hbond>
-2.4260

> <Gold.PLP.part.metal>
0.0000

> <Gold.PLP.part.buried>
-2.1438

> <Gold.PLP.part.nonpolar>
-20.0841

> <Gold.PLP.part.repulsive>
0.5899

> <Gold.PLP.ligand.clash>
0.0000

> <Gold.PLP.ligand.torsion>
0.5007

> <Gold.PLP.Chemscore.Hbond>
2.0000

> <Gold.PLP.Chemscore.CHOScore>
2.0000

> <Gold.PLP.Chemscore.Metal>
0.0000

> <Gold.Chemscore.Hbonds>
donor molecule, donor type, donor heavy atom, donor atom, acceptor molecule, acceptor atom, score
      L1  H     2    19       P1  7948  1.00
      L1  H     6    22       P1  7948  1.00
      L1  C    13    28       P1 10186  1.00
      L1  C    15    29       P1 10747  1.00

> <Gold.PLP.Chemscore.Internal.Correction>
0.0812

> <Gold.Rescore>
     Score         DG    S(hbond)    S(metal)    S(lipo)     H(rot)  DE(clash)    DE(int)     intcor
      9.57     -10.89       2.00        0.00      38.83       2.27       0.15       1.17       ----

> <Gold.Chemscore.Fitness>
9.5717

> <Gold.Chemscore.DG>
-10.8893

> <Gold.Chemscore.ZeroCoef>
-5.4800

> <Gold.Chemscore.Hbond>
1.9998

> <Gold.Chemscore.Metal>
0.0000

> <Gold.Chemscore.Lipo>
38.8316

> <Gold.Chemscore.Internal_Hbond>
0.0000

> <Gold.Chemscore.DEClash>
0.1458

> <Gold.Chemscore.DEInternal>
1.1718

> <Gold.Chemscore.Rot>
2.2709

> <Gold.Chemscore.Internal.Correction>
   9.000000E+99

> <Gold.Chemscore.Hbonds>
donor molecule, donor type, donor heavy atom, donor atom, acceptor molecule, acceptor atom, score
      L1  H     2    19       P1  7948  1.00
      L1  H     6    22       P1  7948  1.00

> <Gold.Chemscore.Hbond.Weighted>
-6.6795

> <Gold.Chemscore.Metal.Weighted>
-0.0000

> <Gold.Chemscore.Lipo.Weighted>
-4.5433

> <Gold.Chemscore.Internal_Hbond.Weighted>
0.0000

> <Gold.Chemscore.DEClash.Weighted>
0.1458

> <Gold.Chemscore.DEInternal.Weighted>
1.1718

> <Gold.Chemscore.Rot.Weighted>
5.8135

> <Gold.Chemscore.Internal.Correction.Weighted>
   9.000000E+99

> <Gold.Protein.RotatedTorsions>
[ 6907 6896 6895 6894 ] final  -80.88 input  -60.11 | X-H torsion
[ 7974 7965 7964 7962 ] final   79.35 input  175.53 | X-H torsion
[ 8008 7997 7996 7995 ] final -127.20 input   59.86 | X-H torsion
[ 10167 10162 10161 10158 ] final -148.52 input  -65.29 | X-H torsion
[ 10718 10713 10712 10709 ] final  -63.71 input   66.30 | X-H torsion
[ 10763 10752 10751 10750 ] final -150.38 input  -60.55 | X-H torsion
[ 11005 11000 10999 10996 ] final   -8.30 input  -57.11 | X-H torsion

> <Gold.Protein.ActiveResidues>
 VAL166  LYS551  ARG553  GLY616  TRP617  ASP618  TYR619  PRO620  LYS621  CYS622 
 ASP623  PHE694  ASN695  SER759  ASP760  ASP761  ALA762  ILE779  LEU786  VAL792 
 PHE793  MET794  SER795  GLU796  ALA797  LYS798  CYS799  TRP800  GLU811  SER814 

> <Gold.Protein.RotatedAtoms>
  150.6921  134.3902  159.5072 H   0  0  0  0  0  0  0  0  0  0  0  0  # atno 6907 bound_to 6896
  152.1691  134.8846  160.0545 H   0  0  0  0  0  0  0  0  0  0  0  0  # atno 6908 bound_to 6896
  151.9879  133.3746  159.4170 H   0  0  0  0  0  0  0  0  0  0  0  0  # atno 6909 bound_to 6896
  145.6653  139.2482  143.1899 H   0  0  0  0  0  0  0  0  0  0  0  0  # atno 7974 bound_to 7965
  155.2423  140.0429  157.2976 H   0  0  0  0  0  0  0  0  0  0  0  0  # atno 8008 bound_to 7997
  154.5821  140.2403  155.8009 H   0  0  0  0  0  0  0  0  0  0  0  0  # atno 8009 bound_to 7997
  156.2200  140.2973  155.9938 H   0  0  0  0  0  0  0  0  0  0  0  0  # atno 8010 bound_to 7997
  139.7524  143.8498  152.2589 H   0  0  0  0  0  0  0  0  0  0  0  0  # atno 10167 bound_to 10162
  156.0774  130.4224  150.1316 H   0  0  0  0  0  0  0  0  0  0  0  0  # atno 10718 bound_to 10713
  154.8122  135.3286  154.7273 H   0  0  0  0  0  0  0  0  0  0  0  0  # atno 10763 bound_to 10752
  153.7920  135.6910  153.4874 H   0  0  0  0  0  0  0  0  0  0  0  0  # atno 10764 bound_to 10752
  153.1910  135.4551  155.0096 H   0  0  0  0  0  0  0  0  0  0  0  0  # atno 10765 bound_to 10752
  140.7220  133.8820  155.8828 H   0  0  0  0  0  0  0  0  0  0  0  0  # atno 11005 bound_to 11000
  146.1091  140.7451  142.9512 LP  0  0  0  0  0  0  0  0  0  0  0  0  # atno 17320 bound_to 7965
  144.7075  140.3909  143.7107 LP  0  0  0  0  0  0  0  0  0  0  0  0  # atno 17321 bound_to 7965
  139.8480  144.7178  150.9249 LP  0  0  0  0  0  0  0  0  0  0  0  0  # atno 17342 bound_to 10162
  140.7799  143.3924  151.1287 LP  0  0  0  0  0  0  0  0  0  0  0  0  # atno 17343 bound_to 10162
  156.9354  130.9727  151.3525 LP  0  0  0  0  0  0  0  0  0  0  0  0  # atno 17370 bound_to 10713
  157.5876  130.8420  149.8612 LP  0  0  0  0  0  0  0  0  0  0  0  0  # atno 17371 bound_to 10713
  140.9995  134.1170  157.4331 LP  0  0  0  0  0  0  0  0  0  0  0  0  # atno 17394 bound_to 11000
  139.8846  135.0064  156.6378 LP  0  0  0  0  0  0  0  0  0  0  0  0  # atno 17395 bound_to 11000

$$$$
