AV-unprocessed.smi:655|AV-procd|sdf|3217|dock7
  -GOLD-   22720 0153D 1   1.00000     0.00000
 Structure written by MMmdl.
 34 35  0  0  0  0  0  0  0  0  2 V2000
  151.9341  144.2359  161.5850 C   0  0  0  0  0  0  0  0  0  0  0  0
  152.9400  143.2654  160.9498 C   0  0  2  0  0  0  0  0  0  0  0  0
  152.4121  142.6987  159.6198 C   0  0  0  0  0  0  0  0  0  0  0  0
  153.4090  141.7152  158.9784 C   0  0  0  0  0  0  0  0  0  0  0  0
  153.8038  140.5580  159.9284 C   0  0  2  0  0  0  0  0  0  0  0  0
  154.9306  139.9092  159.3699 O   0  0  0  0  0  0  0  0  0  0  0  0
  152.7037  139.4759  160.1515 C   0  0  0  0  0  0  0  0  0  0  0  0
  152.4764  138.5742  159.0039 N   0  0  0  0  0  0  0  0  0  0  0  0
  152.0752  139.1686  157.7935 C   0  0  0  0  0  0  0  0  0  0  0  0
  151.8424  138.4489  156.6792 C   0  0  0  0  0  0  0  0  0  0  0  0
  151.3459  139.2136  155.2117 Cl  0  0  0  0  0  0  0  0  0  0  0  0
  152.0260  137.0016  156.7487 C   0  0  0  0  0  0  0  0  0  0  0  0
  151.8052  136.3107  155.7550 O   0  0  0  0  0  0  0  0  0  0  0  0
  152.4448  136.4737  157.9352 N   0  5  0  0  0  0  0  0  0  0  0  0
  152.6886  137.2237  159.0538 C   0  0  0  0  0  0  0  0  0  0  0  0
  153.0923  136.7178  160.0997 O   0  0  0  0  0  0  0  0  0  0  0  0
  154.3003  141.1408  161.2734 C   0  0  0  0  0  0  0  0  0  0  0  0
  153.2985  142.1187  161.9116 C   0  0  0  0  0  0  0  0  0  0  0  0
  150.9928  143.7358  161.8159 H   0  0  0  0  0  0  0  0  0  0  0  0
  151.7133  145.0673  160.9151 H   0  0  0  0  0  0  0  0  0  0  0  0
  152.3246  144.6549  162.5126 H   0  0  0  0  0  0  0  0  0  0  0  0
  153.8513  143.8270  160.7392 H   0  0  0  0  0  0  0  0  0  0  0  0
  151.4577  142.2056  159.7946 H   0  0  0  0  0  0  0  0  0  0  0  0
  152.2095  143.5127  158.9232 H   0  0  0  0  0  0  0  0  0  0  0  0
  153.0097  141.3335  158.0389 H   0  0  0  0  0  0  0  0  0  0  0  0
  154.3047  142.2763  158.7068 H   0  0  0  0  0  0  0  0  0  0  0  0
  155.6304  139.9328  160.0046 H   0  0  0  0  0  0  0  0  0  0  0  0
  152.9634  138.8711  161.0221 H   0  0  0  0  0  0  0  0  0  0  0  0
  151.7676  139.9562  160.4365 H   0  0  0  0  0  0  0  0  0  0  0  0
  151.9700  140.2432  157.8264 H   0  0  0  0  0  0  0  0  0  0  0  0
  154.5290  140.3368  161.9742 H   0  0  0  0  0  0  0  0  0  0  0  0
  155.2390  141.6751  161.1155 H   0  0  0  0  0  0  0  0  0  0  0  0
  153.7263  142.5255  162.8285 H   0  0  0  0  0  0  0  0  0  0  0  0
  152.3950  141.5867  162.2099 H   0  0  0  0  0  0  0  0  0  0  0  0
  1  2  1  0  0  0  0
  1 19  1  0  0  0  0
  1 20  1  0  0  0  0
  1 21  1  0  0  0  0
  2 18  1  0  0  0  0
  2  3  1  0  0  0  0
  2 22  1  0  0  0  0
  3  4  1  0  0  0  0
  3 23  1  0  0  0  0
  3 24  1  0  0  0  0
  4  5  1  0  0  0  0
  4 25  1  0  0  0  0
  4 26  1  0  0  0  0
  5  6  1  0  0  0  0
  5  7  1  0  0  0  0
  5 17  1  0  0  0  0
  6 27  1  0  0  0  0
  7  8  1  0  0  0  0
  7 28  1  0  0  0  0
  7 29  1  0  0  0  0
  8 15  1  0  0  0  0
  8  9  1  0  0  0  0
  9 10  2  0  0  0  0
  9 30  1  0  0  0  0
 10 11  1  0  0  0  0
 10 12  1  0  0  0  0
 12 13  2  0  0  0  0
 12 14  1  0  0  0  0
 14 15  1  0  0  0  0
 15 16  2  0  0  0  0
 17 18  1  0  0  0  0
 17 31  1  0  0  0  0
 17 32  1  0  0  0  0
 18 33  1  0  0  0  0
 18 34  1  0  0  0  0
M  CHG  1  14  -1
M  END
> <s_m_source_file>
AV-unprocessed.smi

> <i_m_source_file_index>
655

> <i_lp_mmshare_version>
43012

> <i_f3d_flags>
0

> <s_epik_input>
W0NIMl0xW0NIMl1bQ0BIXShbQ0gzXSlbQ0gyXVtDSDJdW0NAQF0xKFtPSF0pW0NIMl1uMltjSF1jKENsKWMoPU8pW25IXWMyPU8=

> <s_epik_cmdline>
J2VwaWtfcHl0aG9uJywgJy1waCcsICc3LjAnLCAnLXRuJywgJzgnLCAnLW1hJywgJzIwMCcsICctbWV0YWxfYmluZGluZycsICctaW1hZScsICc8aW5maWxlLm1hZT4nLCAnLW9tYWUnLCAnPG91dGZpbGUubWFlPic=

> <r_epik_Ionization_Penalty>
2.34257

> <r_epik_Ionization_Penalty_Charging>
1.00552e-07

> <r_epik_Ionization_Penalty_Neutral>
2.34257

> <r_epik_State_Penalty>
2.4963

> <r_epik_Charging_Adjusted_Penalty>
2.4963

> <i_epik_Tot_Q>
-1

> <i_epik_Tot_abs_Q>
1

> <r_epik_Metal_State_Penalty>
0.0381881

> <b_epik_Metal_Only>
0

> <s_lp_Force_Field>
OPLS_2005

> <r_lp_Energy>
26.7084

> <b_lp_Chiralities_Consistent>
1

> <s_lp_Variant>
AV-unprocessed.smi:655-4

> <Gold.Version>
5.8.1

> <Gold.Id.Protein>
6NUR|6NUR_protein|mol2

> <Gold.PLP.Fitness>
40.5261

> <Gold.PLP.PLP>
-31.7832

> <Gold.PLP.part.hbond>
-3.0000

> <Gold.PLP.part.metal>
0.0000

> <Gold.PLP.part.buried>
-2.5701

> <Gold.PLP.part.nonpolar>
-25.5383

> <Gold.PLP.part.repulsive>
0.0662

> <Gold.PLP.ligand.clash>
0.0000

> <Gold.PLP.ligand.torsion>
0.1681

> <Gold.PLP.Chemscore.Hbond>
3.0000

> <Gold.PLP.Chemscore.CHOScore>
0.0000

> <Gold.PLP.Chemscore.Metal>
0.0000

> <Gold.Chemscore.Hbonds>
donor molecule, donor type, donor heavy atom, donor atom, acceptor molecule, acceptor atom, score
      P1  H  6896  6908       L1    16  0.85
      P1  H  7997  8010       L1     6  0.98
      P1  H 10752 10763       L1    13  1.00

> <Gold.PLP.Chemscore.Internal.Correction>
0.0791

> <Gold.Rescore>
     Score         DG    S(hbond)    S(metal)    S(lipo)     H(rot)  DE(clash)    DE(int)     intcor
     21.06     -21.68       2.84        0.00      96.98       1.81       0.44       0.17       ----

> <Gold.Chemscore.Fitness>
21.0647

> <Gold.Chemscore.DG>
-21.6792

> <Gold.Chemscore.ZeroCoef>
-5.4800

> <Gold.Chemscore.Hbond>
2.8395

> <Gold.Chemscore.Metal>
0.0000

> <Gold.Chemscore.Lipo>
96.9810

> <Gold.Chemscore.Internal_Hbond>
0.0000

> <Gold.Chemscore.DEClash>
0.4418

> <Gold.Chemscore.DEInternal>
0.1727

> <Gold.Chemscore.Rot>
1.8092

> <Gold.Chemscore.Internal.Correction>
   9.000000E+99

> <Gold.Chemscore.Hbonds>
donor molecule, donor type, donor heavy atom, donor atom, acceptor molecule, acceptor atom, score
      P1  H  6896  6908       L1    16  0.14
      P1  H  7997  8010       L1     6  0.83
      P1  H 10752 10763       L1    13  0.99

> <Gold.Chemscore.Hbond.Weighted>
-9.4840

> <Gold.Chemscore.Metal.Weighted>
-0.0000

> <Gold.Chemscore.Lipo.Weighted>
-11.3468

> <Gold.Chemscore.Internal_Hbond.Weighted>
0.0000

> <Gold.Chemscore.DEClash.Weighted>
0.4418

> <Gold.Chemscore.DEInternal.Weighted>
0.1727

> <Gold.Chemscore.Rot.Weighted>
4.6316

> <Gold.Chemscore.Internal.Correction.Weighted>
   9.000000E+99

> <Gold.Protein.RotatedTorsions>
[ 6907 6896 6895 6894 ] final -101.58 input  -60.11 | X-H torsion
[ 7974 7965 7964 7962 ] final -126.78 input  175.53 | X-H torsion
[ 8008 7997 7996 7995 ] final    0.48 input   59.86 | X-H torsion
[ 10167 10162 10161 10158 ] final -111.56 input  -65.29 | X-H torsion
[ 10718 10713 10712 10709 ] final -156.17 input   66.30 | X-H torsion
[ 10763 10752 10751 10750 ] final   78.03 input  -60.55 | X-H torsion
[ 11005 11000 10999 10996 ] final  -29.37 input  -57.11 | X-H torsion

> <Gold.Protein.ActiveResidues>
 VAL166  LYS551  ARG553  GLY616  TRP617  ASP618  TYR619  PRO620  LYS621  CYS622 
 ASP623  PHE694  ASN695  SER759  ASP760  ASP761  ALA762  ILE779  LEU786  VAL792 
 PHE793  MET794  SER795  GLU796  ALA797  LYS798  CYS799  TRP800  GLU811  SER814 

> <Gold.Protein.RotatedAtoms>
  150.7160  134.0712  159.3864 H   0  0  0  0  0  0  0  0  0  0  0  0  # atno 6907 bound_to 6896
  151.8694  135.0492  160.0487 H   0  0  0  0  0  0  0  0  0  0  0  0  # atno 6908 bound_to 6896
  152.2655  133.5299  159.5444 H   0  0  0  0  0  0  0  0  0  0  0  0  # atno 6909 bound_to 6896
  144.9838  140.7666  143.4596 H   0  0  0  0  0  0  0  0  0  0  0  0  # atno 7974 bound_to 7965
  154.6686  140.2606  155.7032 H   0  0  0  0  0  0  0  0  0  0  0  0  # atno 8008 bound_to 7997
  156.2649  140.2834  156.1107 H   0  0  0  0  0  0  0  0  0  0  0  0  # atno 8009 bound_to 7997
  155.1203  140.0377  157.2738 H   0  0  0  0  0  0  0  0  0  0  0  0  # atno 8010 bound_to 7997
  140.1322  143.4350  152.1619 H   0  0  0  0  0  0  0  0  0  0  0  0  # atno 10167 bound_to 10162
  156.5229  130.8486  151.2688 H   0  0  0  0  0  0  0  0  0  0  0  0  # atno 10718 bound_to 10713
  153.0843  135.4892  154.8566 H   0  0  0  0  0  0  0  0  0  0  0  0  # atno 10763 bound_to 10752
  154.7191  135.3035  154.9078 H   0  0  0  0  0  0  0  0  0  0  0  0  # atno 10764 bound_to 10752
  153.9748  135.6797  153.4801 H   0  0  0  0  0  0  0  0  0  0  0  0  # atno 10765 bound_to 10752
  140.9290  133.7350  156.0909 H   0  0  0  0  0  0  0  0  0  0  0  0  # atno 11005 bound_to 11000
  145.2383  139.2084  143.5006 LP  0  0  0  0  0  0  0  0  0  0  0  0  # atno 17320 bound_to 7965
  146.3415  140.2273  142.8592 LP  0  0  0  0  0  0  0  0  0  0  0  0  # atno 17321 bound_to 7965
  139.5514  144.7340  151.4425 LP  0  0  0  0  0  0  0  0  0  0  0  0  # atno 17342 bound_to 10162
  140.6810  143.8082  150.7121 LP  0  0  0  0  0  0  0  0  0  0  0  0  # atno 17343 bound_to 10162
  157.7434  130.9911  150.2589 LP  0  0  0  0  0  0  0  0  0  0  0  0  # atno 17370 bound_to 10713
  156.3132  130.3775  149.7642 LP  0  0  0  0  0  0  0  0  0  0  0  0  # atno 17371 bound_to 10713
  140.7887  134.3642  157.5470 LP  0  0  0  0  0  0  0  0  0  0  0  0  # atno 17394 bound_to 11000
  139.8792  134.9127  156.3066 LP  0  0  0  0  0  0  0  0  0  0  0  0  # atno 17395 bound_to 11000

$$$$
