AV-unprocessed.smi:550|AV-procd|sdf|2894|dock9
  -GOLD-   2262023393D 1   1.00000     0.00000
 Structure written by MMmdl.
 45 47  0  0  0  0  0  0  0  0  1 V2000
  147.6793  140.3534  154.5165 O   0  0  0  0  0  0  0  0  0  0  0  0
  148.4466  139.5300  154.0188 C   0  0  0  0  0  0  0  0  0  0  0  0
  148.1155  138.7370  152.9898 N   0  0  0  0  0  0  0  0  0  0  0  0
  146.8187  138.7144  152.3193 C   0  0  0  0  0  0  0  0  0  0  0  0
  146.0669  137.3913  152.5619 C   0  0  2  0  0  0  0  0  0  0  0  0
  145.4888  136.8020  151.2603 C   0  0  0  0  0  0  0  0  0  0  0  0
  144.5520  135.6446  151.6200 C   0  0  0  0  0  0  0  0  0  0  0  0
  143.7669  136.1215  153.2037 S   0  0  0  0  0  0  0  0  0  0  0  0
  142.4268  136.6680  152.9416 O   0  0  0  0  0  0  0  0  0  0  0  0
  143.9663  135.0407  154.1810 O   0  0  0  0  0  0  0  0  0  0  0  0
  144.9123  137.5042  153.5735 C   0  0  0  0  0  0  0  0  0  0  0  0
  149.7143  139.3138  154.4094 N   0  0  0  0  0  0  0  0  0  0  0  0
  150.4222  139.9166  155.4840 C   0  0  0  0  0  0  0  0  0  0  0  0
  149.8903  141.0898  156.0531 C   0  0  0  0  0  0  0  0  0  0  0  0
  150.5812  141.7197  157.1054 C   0  0  0  0  0  0  0  0  0  0  0  0
  151.7979  141.1596  157.5609 C   0  0  0  0  0  0  0  0  0  0  0  0
  152.5245  141.7597  158.6083 N   0  0  0  0  0  0  0  0  0  0  0  0
  153.0586  140.9805  159.7148 C   0  0  0  0  0  0  0  0  0  0  0  0
  153.6319  142.0195  160.6770 C   0  0  0  0  0  0  0  0  0  0  0  0
  152.7044  143.2190  160.4833 C   0  0  0  0  0  0  0  0  0  0  0  0
  152.2939  143.1410  159.0080 C   0  0  0  0  0  0  0  0  0  0  0  0
  152.3204  140.0432  157.0004 N   0  0  0  0  0  0  0  0  0  0  0  0
  151.6539  139.4411  155.9929 C   0  0  0  0  0  0  0  0  0  0  0  0
  148.8142  138.0956  152.6437 H   0  0  0  0  0  0  0  0  0  0  0  0
  146.2062  139.5651  152.6232 H   0  0  0  0  0  0  0  0  0  0  0  0
  146.9995  138.8396  151.2515 H   0  0  0  0  0  0  0  0  0  0  0  0
  146.7758  136.6610  152.9551 H   0  0  0  0  0  0  0  0  0  0  0  0
  144.9147  137.5714  150.7420 H   0  0  0  0  0  0  0  0  0  0  0  0
  146.2756  136.4782  150.5782 H   0  0  0  0  0  0  0  0  0  0  0  0
  143.7921  135.4556  150.8618 H   0  0  0  0  0  0  0  0  0  0  0  0
  145.1167  134.7270  151.7864 H   0  0  0  0  0  0  0  0  0  0  0  0
  145.2452  137.4487  154.6101 H   0  0  0  0  0  0  0  0  0  0  0  0
  144.3610  138.4351  153.4373 H   0  0  0  0  0  0  0  0  0  0  0  0
  150.2497  138.6703  153.8457 H   0  0  0  0  0  0  0  0  0  0  0  0
  148.9615  141.5057  155.6909 H   0  0  0  0  0  0  0  0  0  0  0  0
  150.1757  142.6212  157.5397 H   0  0  0  0  0  0  0  0  0  0  0  0
  152.2513  140.4208  160.1893 H   0  0  0  0  0  0  0  0  0  0  0  0
  153.8206  140.2752  159.3815 H   0  0  0  0  0  0  0  0  0  0  0  0
  153.6679  141.6679  161.7082 H   0  0  0  0  0  0  0  0  0  0  0  0
  154.6456  142.2851  160.3737 H   0  0  0  0  0  0  0  0  0  0  0  0
  151.8222  143.1004  161.1138 H   0  0  0  0  0  0  0  0  0  0  0  0
  153.1755  144.1676  160.7417 H   0  0  0  0  0  0  0  0  0  0  0  0
  152.9194  143.7931  158.3979 H   0  0  0  0  0  0  0  0  0  0  0  0
  151.2535  143.4409  158.8771 H   0  0  0  0  0  0  0  0  0  0  0  0
  152.1461  138.5728  155.5842 H   0  0  0  0  0  0  0  0  0  0  0  0
  1  2  2  0  0  0  0
  2  3  1  0  0  0  0
  2 12  1  0  0  0  0
  3  4  1  0  0  0  0
  3 24  1  0  0  0  0
  4  5  1  0  0  0  0
  4 25  1  0  0  0  0
  4 26  1  0  0  0  0
  5 11  1  0  0  0  0
  5  6  1  0  0  0  0
  5 27  1  0  0  0  0
  6  7  1  0  0  0  0
  6 28  1  0  0  0  0
  6 29  1  0  0  0  0
  7  8  1  0  0  0  0
  7 30  1  0  0  0  0
  7 31  1  0  0  0  0
  8  9  2  0  0  0  0
  8 10  2  0  0  0  0
  8 11  1  0  0  0  0
 11 32  1  0  0  0  0
 11 33  1  0  0  0  0
 12 13  1  0  0  0  0
 12 34  1  0  0  0  0
 13 23  1  0  0  0  0
 13 14  2  0  0  0  0
 14 15  1  0  0  0  0
 14 35  1  0  0  0  0
 15 16  2  0  0  0  0
 15 36  1  0  0  0  0
 16 17  1  0  0  0  0
 16 22  1  0  0  0  0
 17 21  1  0  0  0  0
 17 18  1  0  0  0  0
 18 19  1  0  0  0  0
 18 37  1  0  0  0  0
 18 38  1  0  0  0  0
 19 20  1  0  0  0  0
 19 39  1  0  0  0  0
 19 40  1  0  0  0  0
 20 21  1  0  0  0  0
 20 41  1  0  0  0  0
 20 42  1  0  0  0  0
 21 43  1  0  0  0  0
 21 44  1  0  0  0  0
 22 23  2  0  0  0  0
 23 45  1  0  0  0  0
M  END
> <s_m_source_file>
AV-unprocessed.smi

> <i_m_source_file_index>
550

> <i_lp_mmshare_version>
43012

> <i_f3d_flags>
0

> <s_epik_input>
Tz1TMSg9TylbQ0gyXVtDSDJdW0NASF0oW0NIMl0xKVtDSDJdW05IXUMoPU8pW05IXWMyW2NIXVtjSF1jKG5bY0hdMilOM1tDSDJdW0NIMl1bQ0gyXVtDSDJdMw==

> <s_epik_cmdline>
J2VwaWtfcHl0aG9uJywgJy1waCcsICc3LjAnLCAnLXRuJywgJzgnLCAnLW1hJywgJzIwMCcsICctbWV0YWxfYmluZGluZycsICctaW1hZScsICc8aW5maWxlLm1hZT4nLCAnLW9tYWUnLCAnPG91dGZpbGUubWFlPic=

> <r_lp_tautomer_probability>
1

> <r_epik_Ionization_Penalty>
0.0965651

> <r_epik_Ionization_Penalty_Charging>
0

> <r_epik_Ionization_Penalty_Neutral>
0.0965651

> <r_epik_State_Penalty>
0.0861592

> <r_epik_Charging_Adjusted_Penalty>
0.0861592

> <i_epik_Tot_Q>
0

> <i_epik_Tot_abs_Q>
0

> <r_epik_Metal_State_Penalty>
0.0740405

> <b_epik_Metal_Only>
0

> <s_lp_Force_Field>
OPLS_2005

> <r_lp_Energy>
29.4066

> <b_lp_Chiralities_Consistent>
1

> <s_lp_Variant>
AV-unprocessed.smi:550-1

> <Gold.Version>
5.8.1

> <Gold.Id.Protein>
6NUR|6NUR_protein|mol2

> <Gold.PLP.Fitness>
44.1829

> <Gold.PLP.PLP>
-41.1318

> <Gold.PLP.part.hbond>
-3.2328

> <Gold.PLP.part.metal>
0.0000

> <Gold.PLP.part.buried>
-0.8496

> <Gold.PLP.part.nonpolar>
-38.1427

> <Gold.PLP.part.repulsive>
0.5252

> <Gold.PLP.ligand.clash>
0.0000

> <Gold.PLP.ligand.torsion>
1.2004

> <Gold.PLP.Chemscore.Hbond>
1.7525

> <Gold.PLP.Chemscore.CHOScore>
0.0000

> <Gold.PLP.Chemscore.Metal>
0.0000

> <Gold.Chemscore.Hbonds>
donor molecule, donor type, donor heavy atom, donor atom, acceptor molecule, acceptor atom, score
      L1  H     3    24       P1  7948  0.82
      P1  H  7997  8008       L1    22  0.88

> <Gold.PLP.Chemscore.Internal.Correction>
0.1942

> <Gold.Rescore>
     Score         DG    S(hbond)    S(metal)    S(lipo)     H(rot)  DE(clash)    DE(int)     intcor
     16.15     -19.25       1.70        0.00      96.55       1.25       0.29       2.81       ----

> <Gold.Chemscore.Fitness>
16.1470

> <Gold.Chemscore.DG>
-19.2467

> <Gold.Chemscore.ZeroCoef>
-5.4800

> <Gold.Chemscore.Hbond>
1.6981

> <Gold.Chemscore.Metal>
0.0000

> <Gold.Chemscore.Lipo>
96.5521

> <Gold.Chemscore.Internal_Hbond>
0.0000

> <Gold.Chemscore.DEClash>
0.2935

> <Gold.Chemscore.DEInternal>
2.8062

> <Gold.Chemscore.Rot>
1.2506

> <Gold.Chemscore.Internal.Correction>
   9.000000E+99

> <Gold.Chemscore.Hbonds>
donor molecule, donor type, donor heavy atom, donor atom, acceptor molecule, acceptor atom, score
      L1  H     3    24       P1  7948  0.79
      P1  H  7997  8008       L1    22  0.61

> <Gold.Chemscore.Hbond.Weighted>
-5.6717

> <Gold.Chemscore.Metal.Weighted>
-0.0000

> <Gold.Chemscore.Lipo.Weighted>
-11.2966

> <Gold.Chemscore.Internal_Hbond.Weighted>
0.0000

> <Gold.Chemscore.DEClash.Weighted>
0.2935

> <Gold.Chemscore.DEInternal.Weighted>
2.8062

> <Gold.Chemscore.Rot.Weighted>
3.2016

> <Gold.Chemscore.Internal.Correction.Weighted>
   9.000000E+99

> <Gold.Protein.RotatedTorsions>
[ 6907 6896 6895 6894 ] final   18.98 input  -60.11 | X-H torsion
[ 7974 7965 7964 7962 ] final   31.27 input  175.53 | X-H torsion
[ 8008 7997 7996 7995 ] final  -57.65 input   59.86 | X-H torsion
[ 10167 10162 10161 10158 ] final   37.97 input  -65.29 | X-H torsion
[ 10718 10713 10712 10709 ] final  133.04 input   66.30 | X-H torsion
[ 10763 10752 10751 10750 ] final   60.04 input  -60.55 | X-H torsion
[ 11005 11000 10999 10996 ] final  146.25 input  -57.11 | X-H torsion

> <Gold.Protein.ActiveResidues>
 VAL166  LYS551  ARG553  GLY616  TRP617  ASP618  TYR619  PRO620  LYS621  CYS622 
 ASP623  PHE694  ASN695  SER759  ASP760  ASP761  ALA762  ILE779  LEU786  VAL792 
 PHE793  MET794  SER795  GLU796  ALA797  LYS798  CYS799  TRP800  GLU811  SER814 

> <Gold.Protein.RotatedAtoms>
  151.8737  135.0480  160.0481 H   0  0  0  0  0  0  0  0  0  0  0  0  # atno 6907 bound_to 6896
  152.2568  133.5258  159.5366 H   0  0  0  0  0  0  0  0  0  0  0  0  # atno 6908 bound_to 6896
  150.7102  134.0801  159.3937 H   0  0  0  0  0  0  0  0  0  0  0  0  # atno 6909 bound_to 6896
  146.1561  139.6679  142.9066 H   0  0  0  0  0  0  0  0  0  0  0  0  # atno 7974 bound_to 7965
  154.4276  140.1102  156.5831 H   0  0  0  0  0  0  0  0  0  0  0  0  # atno 8008 bound_to 7997
  155.6091  140.3494  155.4598 H   0  0  0  0  0  0  0  0  0  0  0  0  # atno 8009 bound_to 7997
  156.0113  140.1220  157.0440 H   0  0  0  0  0  0  0  0  0  0  0  0  # atno 8010 bound_to 7997
  140.3982  144.1760  150.6132 H   0  0  0  0  0  0  0  0  0  0  0  0  # atno 10167 bound_to 10162
  157.4812  131.1086  150.9679 H   0  0  0  0  0  0  0  0  0  0  0  0  # atno 10718 bound_to 10713
  152.9910  135.5550  154.5809 H   0  0  0  0  0  0  0  0  0  0  0  0  # atno 10763 bound_to 10752
  154.5191  135.2806  155.1280 H   0  0  0  0  0  0  0  0  0  0  0  0  # atno 10764 bound_to 10752
  154.2641  135.6375  153.5338 H   0  0  0  0  0  0  0  0  0  0  0  0  # atno 10765 bound_to 10752
  140.0778  134.9115  157.1451 H   0  0  0  0  0  0  0  0  0  0  0  0  # atno 11005 bound_to 11000
  145.4706  141.0436  143.2701 LP  0  0  0  0  0  0  0  0  0  0  0  0  # atno 17320 bound_to 7965
  144.7965  139.6225  143.7090 LP  0  0  0  0  0  0  0  0  0  0  0  0  # atno 17321 bound_to 7965
  140.4768  143.2393  151.9011 LP  0  0  0  0  0  0  0  0  0  0  0  0  # atno 17342 bound_to 10162
  139.4786  144.5311  151.8664 LP  0  0  0  0  0  0  0  0  0  0  0  0  # atno 17343 bound_to 10162
  157.0412  130.5750  149.5356 LP  0  0  0  0  0  0  0  0  0  0  0  0  # atno 17370 bound_to 10713
  156.0122  130.5215  150.8025 LP  0  0  0  0  0  0  0  0  0  0  0  0  # atno 17371 bound_to 10713
  140.3532  134.2575  155.7196 LP  0  0  0  0  0  0  0  0  0  0  0  0  # atno 17394 bound_to 11000
  141.2036  133.7909  157.0333 LP  0  0  0  0  0  0  0  0  0  0  0  0  # atno 17395 bound_to 11000

$$$$
