AV-unprocessed.smi:686|AV-procd|sdf|3344|dock7
  -GOLD-   22720 0323D 1   1.00000     0.00000
 Structure written by MMmdl.
 41 42  0  0  0  0  0  0  0  0  2 V2000
  145.8893  143.1826  155.1733 C   0  0  0  0  0  0  0  0  0  0  0  0
  146.2084  141.9623  156.0527 C   0  0  1  0  0  0  0  0  0  0  0  0
  147.6083  141.4106  155.7736 C   0  0  0  0  0  0  0  0  0  0  0  0
  148.5259  142.1857  156.6356 N   0  3  2  0  0  0  0  0  0  0  0  0
  149.8487  141.5530  156.9022 C   0  0  0  0  0  0  0  0  0  0  0  0
  150.7726  142.5066  157.6836 C   0  0  0  0  0  0  0  0  0  0  0  0
  150.5452  141.1151  155.5996 C   0  0  0  0  0  0  0  0  0  0  0  0
  147.7565  142.5713  157.8433 C   0  0  0  0  0  0  0  0  0  0  0  0
  146.2661  142.3190  157.5441 C   0  0  2  0  0  0  0  0  0  0  0  0
  145.7552  141.1992  158.3418 N   0  0  0  0  0  0  0  0  0  0  0  0
  144.0553  141.1068  158.6255 S   0  0  0  0  0  0  0  0  0  0  0  0
  143.4207  142.2342  157.9254 O   0  0  0  0  0  0  0  0  0  0  0  0
  143.6354  139.7290  158.3289 O   0  0  0  0  0  0  0  0  0  0  0  0
  143.9343  141.3981  160.4403 C   0  0  0  0  0  0  0  0  0  0  0  0
  144.9008  142.4760  160.8391 C   0  0  0  0  0  0  0  0  0  0  0  0
  144.6418  143.6714  161.5649 C   0  0  0  0  0  0  0  0  0  0  0  0
  145.8659  144.2710  161.6382 C   0  0  0  0  0  0  0  0  0  0  0  0
  146.8041  143.5133  161.0161 O   0  0  0  0  0  0  0  0  0  0  0  0
  146.1784  142.3685  160.5098 N   0  0  0  0  0  0  0  0  0  0  0  0
  146.6109  143.9866  155.3229 H   0  0  0  0  0  0  0  0  0  0  0  0
  144.8992  143.5788  155.4006 H   0  0  0  0  0  0  0  0  0  0  0  0
  145.9008  142.9174  154.1157 H   0  0  0  0  0  0  0  0  0  0  0  0
  145.4536  141.2007  155.8501 H   0  0  0  0  0  0  0  0  0  0  0  0
  147.6456  140.3587  156.0626 H   0  0  0  0  0  0  0  0  0  0  0  0
  147.8815  141.4775  154.7199 H   0  0  0  0  0  0  0  0  0  0  0  0
  149.6823  140.6625  157.5105 H   0  0  0  0  0  0  0  0  0  0  0  0
  151.7463  142.0489  157.8600 H   0  0  0  0  0  0  0  0  0  0  0  0
  150.3653  142.7670  158.6603 H   0  0  0  0  0  0  0  0  0  0  0  0
  150.9398  143.4338  157.1345 H   0  0  0  0  0  0  0  0  0  0  0  0
  151.5326  140.7010  155.8062 H   0  0  0  0  0  0  0  0  0  0  0  0
  150.6767  141.9558  154.9174 H   0  0  0  0  0  0  0  0  0  0  0  0
  149.9847  140.3411  155.0752 H   0  0  0  0  0  0  0  0  0  0  0  0
  148.0826  141.9983  158.7129 H   0  0  0  0  0  0  0  0  0  0  0  0
  147.9399  143.6236  158.0623 H   0  0  0  0  0  0  0  0  0  0  0  0
  145.6613  143.2011  157.7608 H   0  0  0  0  0  0  0  0  0  0  0  0
  146.1105  140.3100  157.9899 H   0  0  0  0  0  0  0  0  0  0  0  0
  142.9097  141.6824  160.6791 H   0  0  0  0  0  0  0  0  0  0  0  0
  144.1493  140.4607  160.9543 H   0  0  0  0  0  0  0  0  0  0  0  0
  143.7059  144.0332  161.9642 H   0  0  0  0  0  0  0  0  0  0  0  0
  146.2157  145.1932  162.0781 H   0  0  0  0  0  0  0  0  0  0  0  0
  148.7050  143.0459  156.1375 H   0  0  0  0  0  0  0  0  0  0  0  0
  1  2  1  0  0  0  0
  1 20  1  0  0  0  0
  1 21  1  0  0  0  0
  1 22  1  0  0  0  0
  2  9  1  0  0  0  0
  2  3  1  0  0  0  0
  2 23  1  0  0  0  0
  3  4  1  0  0  0  0
  3 24  1  0  0  0  0
  3 25  1  0  0  0  0
  4  5  1  0  0  0  0
  4  8  1  0  0  0  0
  4 41  1  0  0  0  0
  5  6  1  0  0  0  0
  5  7  1  0  0  0  0
  5 26  1  0  0  0  0
  6 27  1  0  0  0  0
  6 28  1  0  0  0  0
  6 29  1  0  0  0  0
  7 30  1  0  0  0  0
  7 31  1  0  0  0  0
  7 32  1  0  0  0  0
  8  9  1  0  0  0  0
  8 33  1  0  0  0  0
  8 34  1  0  0  0  0
  9 10  1  0  0  0  0
  9 35  1  0  0  0  0
 10 11  1  0  0  0  0
 10 36  1  0  0  0  0
 11 12  2  0  0  0  0
 11 13  2  0  0  0  0
 11 14  1  0  0  0  0
 14 15  1  0  0  0  0
 14 37  1  0  0  0  0
 14 38  1  0  0  0  0
 15 19  2  0  0  0  0
 15 16  1  0  0  0  0
 16 17  2  0  0  0  0
 16 39  1  0  0  0  0
 17 18  1  0  0  0  0
 17 40  1  0  0  0  0
 18 19  1  0  0  0  0
M  CHG  1   4   1
M  END
> <s_m_source_file>
AV-unprocessed.smi

> <i_m_source_file_index>
686

> <i_lp_mmshare_version>
43012

> <i_f3d_flags>
0

> <s_epik_input>
W0NIM11bQ0BASF0xW0NIMl1OKFtDSF0oW0NIM10pW0NIM10pW0NIMl1bQ0BIXTFbTkhdUyg9TykoPU8pW0NIMl1jMltjSF1bY0hdb24y

> <s_epik_cmdline>
J2VwaWtfcHl0aG9uJywgJy1waCcsICc3LjAnLCAnLXRuJywgJzgnLCAnLW1hJywgJzIwMCcsICctbWV0YWxfYmluZGluZycsICctaW1hZScsICc8aW5maWxlLm1hZT4nLCAnLW9tYWUnLCAnPG91dGZpbGUubWFlPic=

> <r_epik_Ionization_Penalty>
0.00200818

> <r_epik_Ionization_Penalty_Charging>
0.000701289

> <r_epik_Ionization_Penalty_Neutral>
0.00130689

> <r_epik_State_Penalty>
0.00131314

> <r_epik_Charging_Adjusted_Penalty>
0.00201443

> <i_epik_Tot_Q>
1

> <i_epik_Tot_abs_Q>
1

> <r_epik_Metal_State_Penalty>
0.310831

> <b_epik_Metal_Only>
0

> <s_lp_Force_Field>
OPLS_2005

> <r_lp_Energy>
21.6188

> <b_lp_Chiralities_Consistent>
1

> <s_lp_Variant>
AV-unprocessed.smi:686-8

> <Gold.Version>
5.8.1

> <Gold.Id.Protein>
6NUR|6NUR_protein|mol2

> <Gold.PLP.Fitness>
36.5767

> <Gold.PLP.PLP>
-27.3040

> <Gold.PLP.part.hbond>
-3.5639

> <Gold.PLP.part.metal>
0.0000

> <Gold.PLP.part.buried>
-4.5721

> <Gold.PLP.part.nonpolar>
-19.0207

> <Gold.PLP.part.repulsive>
0.0375

> <Gold.PLP.ligand.clash>
0.0254

> <Gold.PLP.ligand.torsion>
0.8317

> <Gold.PLP.Chemscore.Hbond>
3.6000

> <Gold.PLP.Chemscore.CHOScore>
0.0000

> <Gold.PLP.Chemscore.Metal>
0.0000

> <Gold.Chemscore.Hbonds>
donor molecule, donor type, donor heavy atom, donor atom, acceptor molecule, acceptor atom, score
      L1  H     4    41       P1  8028  2.00
      P1  H  6933  6944       L1    18  0.39
      P1  H  6934  6946       L1    19  1.00

> <Gold.PLP.Chemscore.Internal.Correction>
0.1615

> <Gold.Rescore>
     Score         DG    S(hbond)    S(metal)    S(lipo)     H(rot)  DE(clash)    DE(int)     intcor
     11.55     -13.51       1.98        0.00      53.95       1.91       0.02       1.94       ----

> <Gold.Chemscore.Fitness>
11.5540

> <Gold.Chemscore.DG>
-13.5141

> <Gold.Chemscore.ZeroCoef>
-5.4800

> <Gold.Chemscore.Hbond>
1.9807

> <Gold.Chemscore.Metal>
0.0000

> <Gold.Chemscore.Lipo>
53.9488

> <Gold.Chemscore.Internal_Hbond>
0.0000

> <Gold.Chemscore.DEClash>
0.0212

> <Gold.Chemscore.DEInternal>
1.9389

> <Gold.Chemscore.Rot>
1.9115

> <Gold.Chemscore.Internal.Correction>
   9.000000E+99

> <Gold.Chemscore.Hbonds>
donor molecule, donor type, donor heavy atom, donor atom, acceptor molecule, acceptor atom, score
      L1  H     4    41       P1  8028  0.99
      P1  H  6933  6944       L1    18  0.01
      P1  H  6934  6946       L1    19  0.91

> <Gold.Chemscore.Hbond.Weighted>
-6.6156

> <Gold.Chemscore.Metal.Weighted>
-0.0000

> <Gold.Chemscore.Lipo.Weighted>
-6.3120

> <Gold.Chemscore.Internal_Hbond.Weighted>
0.0000

> <Gold.Chemscore.DEClash.Weighted>
0.0212

> <Gold.Chemscore.DEInternal.Weighted>
1.9389

> <Gold.Chemscore.Rot.Weighted>
4.8935

> <Gold.Chemscore.Internal.Correction.Weighted>
   9.000000E+99

> <Gold.Protein.RotatedTorsions>
[ 6907 6896 6895 6894 ] final  -51.07 input  -60.11 | X-H torsion
[ 7974 7965 7964 7962 ] final  -24.85 input  175.53 | X-H torsion
[ 8008 7997 7996 7995 ] final  -61.89 input   59.86 | X-H torsion
[ 10167 10162 10161 10158 ] final   12.72 input  -65.29 | X-H torsion
[ 10718 10713 10712 10709 ] final   -0.92 input   66.30 | X-H torsion
[ 10763 10752 10751 10750 ] final  -84.75 input  -60.55 | X-H torsion
[ 11005 11000 10999 10996 ] final -136.54 input  -57.11 | X-H torsion

> <Gold.Protein.ActiveResidues>
 VAL166  LYS551  ARG553  GLY616  TRP617  ASP618  TYR619  PRO620  LYS621  CYS622 
 ASP623  PHE694  ASN695  SER759  ASP760  ASP761  ALA762  ILE779  LEU786  VAL792 
 PHE793  MET794  SER795  GLU796  ALA797  LYS798  CYS799  TRP800  GLU811  SER814 

> <Gold.Protein.RotatedAtoms>
  150.8647  134.8007  159.7108 H   0  0  0  0  0  0  0  0  0  0  0  0  # atno 6907 bound_to 6896
  152.4672  134.5044  159.9744 H   0  0  0  0  0  0  0  0  0  0  0  0  # atno 6908 bound_to 6896
  151.5142  133.3440  159.2925 H   0  0  0  0  0  0  0  0  0  0  0  0  # atno 6909 bound_to 6896
  146.1528  140.4807  142.8604 H   0  0  0  0  0  0  0  0  0  0  0  0  # atno 7974 bound_to 7965
  154.4471  140.1008  156.6501 H   0  0  0  0  0  0  0  0  0  0  0  0  # atno 8008 bound_to 7997
  155.5407  140.3483  155.4428 H   0  0  0  0  0  0  0  0  0  0  0  0  # atno 8009 bound_to 7997
  156.0599  140.1324  156.9942 H   0  0  0  0  0  0  0  0  0  0  0  0  # atno 8010 bound_to 7997
  140.6049  143.8528  150.7004 H   0  0  0  0  0  0  0  0  0  0  0  0  # atno 10167 bound_to 10162
  156.8133  130.5431  149.5706 H   0  0  0  0  0  0  0  0  0  0  0  0  # atno 10718 bound_to 10713
  154.6032  135.5509  153.7396 H   0  0  0  0  0  0  0  0  0  0  0  0  # atno 10763 bound_to 10752
  153.0163  135.6371  154.1685 H   0  0  0  0  0  0  0  0  0  0  0  0  # atno 10764 bound_to 10752
  154.1624  135.2896  155.3085 H   0  0  0  0  0  0  0  0  0  0  0  0  # atno 10765 bound_to 10752
  140.8795  134.1949  157.4600 H   0  0  0  0  0  0  0  0  0  0  0  0  # atno 11005 bound_to 11000
  144.7926  140.6061  143.6531 LP  0  0  0  0  0  0  0  0  0  0  0  0  # atno 17320 bound_to 7965
  145.4781  139.1497  143.3777 LP  0  0  0  0  0  0  0  0  0  0  0  0  # atno 17321 bound_to 7965
  140.2082  143.3904  152.1738 LP  0  0  0  0  0  0  0  0  0  0  0  0  # atno 17342 bound_to 10162
  139.5318  144.7167  151.5030 LP  0  0  0  0  0  0  0  0  0  0  0  0  # atno 17343 bound_to 10162
  156.1032  130.5984  150.9928 LP  0  0  0  0  0  0  0  0  0  0  0  0  # atno 17370 bound_to 10713
  157.6495  131.0899  150.8082 LP  0  0  0  0  0  0  0  0  0  0  0  0  # atno 17371 bound_to 10713
  139.8718  134.9811  156.5102 LP  0  0  0  0  0  0  0  0  0  0  0  0  # atno 17394 bound_to 11000
  140.8478  133.8155  155.9138 LP  0  0  0  0  0  0  0  0  0  0  0  0  # atno 17395 bound_to 11000

$$$$
