AV-unprocessed.smi:2286|AV-procd|sdf|9204|dock3
  -GOLD-   2272012423D 1   1.00000     0.00000
 Structure written by MMmdl.
 46 47  0  0  0  0  0  0  0  0  1 V2000
  143.5268  132.7853  150.7194 C   0  0  0  0  0  0  0  0  0  0  0  0
  144.8260  132.2239  151.2584 C   0  0  0  0  0  0  0  0  0  0  0  0
  145.0217  130.8342  151.3719 C   0  0  0  0  0  0  0  0  0  0  0  0
  146.2530  130.3757  151.8799 C   0  0  0  0  0  0  0  0  0  0  0  0
  146.5313  128.8945  152.0245 C   0  0  0  0  0  0  0  0  0  0  0  0
  147.2494  131.2051  152.2574 N   0  0  0  0  0  0  0  0  0  0  0  0
  147.0720  132.5455  152.1528 C   0  0  0  0  0  0  0  0  0  0  0  0
  148.0562  133.5018  152.5184 N   0  0  0  0  0  0  0  0  0  0  0  0
  149.0662  133.3622  153.3952 C   0  0  0  0  0  0  0  0  0  0  0  0
  149.2919  132.3572  154.0705 O   0  0  0  0  0  0  0  0  0  0  0  0
  149.8181  134.4717  153.4483 N   0  0  0  0  0  0  0  0  0  0  0  0
  150.9896  134.6540  154.3018 C   0  0  0  0  0  0  0  0  0  0  0  0
  151.3926  136.1242  154.4672 C   0  0  0  0  0  0  0  0  0  0  0  0
  152.5480  136.4356  154.7608 O   0  0  0  0  0  0  0  0  0  0  0  0
  150.4091  137.0211  154.2977 N   0  0  0  0  0  0  0  0  0  0  0  0
  150.5505  138.4684  154.4274 C   0  0  0  0  0  0  0  0  0  0  0  0
  151.4094  138.8225  155.6600 C   0  0  0  0  0  0  0  0  0  0  0  0
  151.4991  140.3429  155.8684 C   0  0  0  0  0  0  0  0  0  0  0  0
  150.1030  140.9769  155.9689 C   0  0  0  0  0  0  0  0  0  0  0  0
  149.2503  140.6349  154.7374 C   0  0  0  0  0  0  0  0  0  0  0  0
  149.1554  139.1144  154.5299 C   0  0  0  0  0  0  0  0  0  0  0  0
  145.8654  133.0886  151.6565 C   0  0  0  0  0  0  0  0  0  0  0  0
  142.8719  131.9920  150.3571 H   0  0  0  0  0  0  0  0  0  0  0  0
  143.7234  133.4677  149.8922 H   0  0  0  0  0  0  0  0  0  0  0  0
  143.0001  133.3336  151.5007 H   0  0  0  0  0  0  0  0  0  0  0  0
  144.2499  130.1380  151.0771 H   0  0  0  0  0  0  0  0  0  0  0  0
  145.6130  128.3118  151.9456 H   0  0  0  0  0  0  0  0  0  0  0  0
  146.9849  128.6817  152.9931 H   0  0  0  0  0  0  0  0  0  0  0  0
  147.2158  128.5630  151.2435 H   0  0  0  0  0  0  0  0  0  0  0  0
  147.9948  134.3899  152.0432 H   0  0  0  0  0  0  0  0  0  0  0  0
  149.5555  135.2538  152.8669 H   0  0  0  0  0  0  0  0  0  0  0  0
  150.8171  134.2034  155.2810 H   0  0  0  0  0  0  0  0  0  0  0  0
  151.8244  134.1153  153.8534 H   0  0  0  0  0  0  0  0  0  0  0  0
  149.4907  136.6744  154.0608 H   0  0  0  0  0  0  0  0  0  0  0  0
  151.0393  138.8581  153.5322 H   0  0  0  0  0  0  0  0  0  0  0  0
  150.9826  138.3613  156.5519 H   0  0  0  0  0  0  0  0  0  0  0  0
  152.4139  138.4116  155.5518 H   0  0  0  0  0  0  0  0  0  0  0  0
  152.0716  140.5606  156.7705 H   0  0  0  0  0  0  0  0  0  0  0  0
  152.0461  140.7930  155.0391 H   0  0  0  0  0  0  0  0  0  0  0  0
  149.6034  140.6207  156.8706 H   0  0  0  0  0  0  0  0  0  0  0  0
  150.1921  142.0587  156.0711 H   0  0  0  0  0  0  0  0  0  0  0  0
  148.2514  141.0574  154.8483 H   0  0  0  0  0  0  0  0  0  0  0  0
  149.6856  141.0986  153.8513 H   0  0  0  0  0  0  0  0  0  0  0  0
  148.5786  138.9031  153.6286 H   0  0  0  0  0  0  0  0  0  0  0  0
  148.6029  138.6727  155.3607 H   0  0  0  0  0  0  0  0  0  0  0  0
  145.7367  134.1587  151.5779 H   0  0  0  0  0  0  0  0  0  0  0  0
  1  2  1  0  0  0  0
  1 23  1  0  0  0  0
  1 24  1  0  0  0  0
  1 25  1  0  0  0  0
  2 22  1  0  0  0  0
  2  3  2  0  0  0  0
  3  4  1  0  0  0  0
  3 26  1  0  0  0  0
  4  5  1  0  0  0  0
  4  6  2  0  0  0  0
  5 27  1  0  0  0  0
  5 28  1  0  0  0  0
  5 29  1  0  0  0  0
  6  7  1  0  0  0  0
  7  8  1  0  0  0  0
  7 22  2  0  0  0  0
  8  9  1  0  0  0  0
  8 30  1  0  0  0  0
  9 10  2  0  0  0  0
  9 11  1  0  0  0  0
 11 12  1  0  0  0  0
 11 31  1  0  0  0  0
 12 13  1  0  0  0  0
 12 32  1  0  0  0  0
 12 33  1  0  0  0  0
 13 14  2  0  0  0  0
 13 15  1  0  0  0  0
 15 16  1  0  0  0  0
 15 34  1  0  0  0  0
 16 21  1  0  0  0  0
 16 17  1  0  0  0  0
 16 35  1  0  0  0  0
 17 18  1  0  0  0  0
 17 36  1  0  0  0  0
 17 37  1  0  0  0  0
 18 19  1  0  0  0  0
 18 38  1  0  0  0  0
 18 39  1  0  0  0  0
 19 20  1  0  0  0  0
 19 40  1  0  0  0  0
 19 41  1  0  0  0  0
 20 21  1  0  0  0  0
 20 42  1  0  0  0  0
 20 43  1  0  0  0  0
 21 44  1  0  0  0  0
 21 45  1  0  0  0  0
 22 46  1  0  0  0  0
M  END
> <s_m_source_file>
AV-unprocessed.smi

> <i_m_source_file_index>
2286

> <i_lp_mmshare_version>
43012

> <i_f3d_flags>
0

> <s_epik_input>
W0NIM11jMVtjSF1jKFtDSDNdKW5jKFtjSF0xKVtOSF1DKD1PKVtOSF1bQ0gyXUMoPU8pW05IXVtDSF0yW0NIMl1bQ0gyXVtDSDJdW0NIMl1bQ0gyXTI=

> <s_epik_cmdline>
J2VwaWtfcHl0aG9uJywgJy1waCcsICc3LjAnLCAnLXRuJywgJzgnLCAnLW1hJywgJzIwMCcsICctbWV0YWxfYmluZGluZycsICctaW1hZScsICc8aW5maWxlLm1hZT4nLCAnLW9tYWUnLCAnPG91dGZpbGUubWFlPic=

> <r_lp_tautomer_probability>
1

> <r_epik_Ionization_Penalty>
0.000219548

> <r_epik_Ionization_Penalty_Charging>
0

> <r_epik_Ionization_Penalty_Neutral>
0.000219548

> <r_epik_State_Penalty>
-0

> <r_epik_Charging_Adjusted_Penalty>
0

> <i_epik_Tot_Q>
0

> <i_epik_Tot_abs_Q>
0

> <r_epik_Metal_State_Penalty>
-0

> <b_epik_Metal_Only>
0

> <s_lp_Force_Field>
OPLS_2005

> <r_lp_Energy>
6.54337

> <b_lp_Chiralities_Consistent>
1

> <s_lp_Variant>
AV-unprocessed.smi:2286-1

> <Gold.Version>
5.8.1

> <Gold.Id.Protein>
6NUR|6NUR_protein|mol2

> <Gold.PLP.Fitness>
49.4021

> <Gold.PLP.PLP>
-42.9215

> <Gold.PLP.part.hbond>
-4.4347

> <Gold.PLP.part.metal>
0.0000

> <Gold.PLP.part.buried>
-2.6005

> <Gold.PLP.part.nonpolar>
-36.3820

> <Gold.PLP.part.repulsive>
0.7053

> <Gold.PLP.ligand.clash>
0.0000

> <Gold.PLP.ligand.torsion>
0.7962

> <Gold.PLP.Chemscore.Hbond>
2.6886

> <Gold.PLP.Chemscore.CHOScore>
0.0000

> <Gold.PLP.Chemscore.Metal>
0.0000

> <Gold.Chemscore.Hbonds>
donor molecule, donor type, donor heavy atom, donor atom, acceptor molecule, acceptor atom, score
      L1  H     8    30       P1  7948  0.68
      L1  H    11    31       P1  7948  0.04
      L1  H    15    34       P1  7948  0.14

> <Gold.PLP.Chemscore.Internal.Correction>
0.0072

> <Gold.Rescore>
     Score         DG    S(hbond)    S(metal)    S(lipo)     H(rot)  DE(clash)    DE(int)     intcor
     13.93     -18.53       1.81        0.00      92.50       1.48       1.65       2.95       ----

> <Gold.Chemscore.Fitness>
13.9334

> <Gold.Chemscore.DG>
-18.5349

> <Gold.Chemscore.ZeroCoef>
-5.4800

> <Gold.Chemscore.Hbond>
1.8065

> <Gold.Chemscore.Metal>
0.0000

> <Gold.Chemscore.Lipo>
92.4997

> <Gold.Chemscore.Internal_Hbond>
0.0000

> <Gold.Chemscore.DEClash>
1.6523

> <Gold.Chemscore.DEInternal>
2.9492

> <Gold.Chemscore.Rot>
1.4849

> <Gold.Chemscore.Internal.Correction>
   9.000000E+99

> <Gold.Chemscore.Hbonds>
donor molecule, donor type, donor heavy atom, donor atom, acceptor molecule, acceptor atom, score
      L1  H     8    30       P1  7948  0.09
      L1  H    15    34       P1  7948  0.12

> <Gold.Chemscore.Hbond.Weighted>
-6.0337

> <Gold.Chemscore.Metal.Weighted>
-0.0000

> <Gold.Chemscore.Lipo.Weighted>
-10.8225

> <Gold.Chemscore.Internal_Hbond.Weighted>
0.0000

> <Gold.Chemscore.DEClash.Weighted>
1.6523

> <Gold.Chemscore.DEInternal.Weighted>
2.9492

> <Gold.Chemscore.Rot.Weighted>
3.8012

> <Gold.Chemscore.Internal.Correction.Weighted>
   9.000000E+99

> <Gold.Protein.RotatedTorsions>
[ 6907 6896 6895 6894 ] final  135.63 input  -60.11 | X-H torsion
[ 7974 7965 7964 7962 ] final  -39.05 input  175.53 | X-H torsion
[ 8008 7997 7996 7995 ] final  161.35 input   59.86 | X-H torsion
[ 10167 10162 10161 10158 ] final -134.22 input  -65.29 | X-H torsion
[ 10718 10713 10712 10709 ] final  -38.55 input   66.30 | X-H torsion
[ 10763 10752 10751 10750 ] final  -49.53 input  -60.55 | X-H torsion
[ 11005 11000 10999 10996 ] final -131.68 input  -57.11 | X-H torsion

> <Gold.Protein.ActiveResidues>
 VAL166  LYS551  ARG553  GLY616  TRP617  ASP618  TYR619  PRO620  LYS621  CYS622 
 ASP623  PHE694  ASN695  SER759  ASP760  ASP761  ALA762  ILE779  LEU786  VAL792 
 PHE793  MET794  SER795  GLU796  ALA797  LYS798  CYS799  TRP800  GLU811  SER814 

> <Gold.Protein.RotatedAtoms>
  152.2983  133.5629  159.5601 H   0  0  0  0  0  0  0  0  0  0  0  0  # atno 6907 bound_to 6896
  150.7266  134.0329  159.3748 H   0  0  0  0  0  0  0  0  0  0  0  0  # atno 6908 bound_to 6896
  151.8230  135.0646  160.0478 H   0  0  0  0  0  0  0  0  0  0  0  0  # atno 6909 bound_to 6896
  146.0431  140.6582  142.9077 H   0  0  0  0  0  0  0  0  0  0  0  0  # atno 7974 bound_to 7965
  156.2109  140.1779  156.7697 H   0  0  0  0  0  0  0  0  0  0  0  0  # atno 8008 bound_to 7997
  154.5721  140.0680  156.9009 H   0  0  0  0  0  0  0  0  0  0  0  0  # atno 8009 bound_to 7997
  155.2654  140.3339  155.4272 H   0  0  0  0  0  0  0  0  0  0  0  0  # atno 8010 bound_to 7997
  139.8903  143.6731  152.2613 H   0  0  0  0  0  0  0  0  0  0  0  0  # atno 10167 bound_to 10162
  156.3024  130.4242  149.8130 H   0  0  0  0  0  0  0  0  0  0  0  0  # atno 10718 bound_to 10713
  154.0956  135.6571  153.4859 H   0  0  0  0  0  0  0  0  0  0  0  0  # atno 10763 bound_to 10752
  153.0306  135.5213  154.7337 H   0  0  0  0  0  0  0  0  0  0  0  0  # atno 10764 bound_to 10752
  154.6474  135.2996  154.9998 H   0  0  0  0  0  0  0  0  0  0  0  0  # atno 10765 bound_to 10752
  140.9237  134.1410  157.4292 H   0  0  0  0  0  0  0  0  0  0  0  0  # atno 11005 bound_to 11000
  144.7084  140.3945  143.7099 LP  0  0  0  0  0  0  0  0  0  0  0  0  # atno 17320 bound_to 7965
  145.6851  139.1626  143.2679 LP  0  0  0  0  0  0  0  0  0  0  0  0  # atno 17321 bound_to 7965
  139.7116  144.7619  151.1103 LP  0  0  0  0  0  0  0  0  0  0  0  0  # atno 17342 bound_to 10162
  140.7728  143.5323  150.9408 LP  0  0  0  0  0  0  0  0  0  0  0  0  # atno 17343 bound_to 10162
  156.5503  130.8339  151.3297 LP  0  0  0  0  0  0  0  0  0  0  0  0  # atno 17370 bound_to 10713
  157.7371  130.9790  150.2175 LP  0  0  0  0  0  0  0  0  0  0  0  0  # atno 17371 bound_to 10713
  139.8781  134.9981  156.5880 LP  0  0  0  0  0  0  0  0  0  0  0  0  # atno 17394 bound_to 11000
  140.7953  133.8549  155.8681 LP  0  0  0  0  0  0  0  0  0  0  0  0  # atno 17395 bound_to 11000

$$$$
