AV-unprocessed.smi:1796|AV-procd|sdf|7251|dock7
  -GOLD-   22720 8503D 1   1.00000     0.00000
 Structure written by MMmdl.
 42 43  0  0  0  0  0  0  0  0  1 V2000
  152.2605  143.9395  162.0138 C   0  0  0  0  0  0  0  0  0  0  0  0
  152.0297  144.4553  160.5910 C   0  0  0  0  0  0  0  0  0  0  0  0
  151.3919  145.4989  160.4508 O   0  0  0  0  0  0  0  0  0  0  0  0
  152.5251  143.7537  159.5434 N   0  0  0  0  0  0  0  0  0  0  0  0
  152.2867  144.1338  158.1450 C   0  0  0  0  0  0  0  0  0  0  0  0
  151.3551  143.0935  157.4953 C   0  0  0  0  0  0  0  0  0  0  0  0
  151.9321  141.6708  157.6284 C   0  0  0  0  0  0  0  0  0  0  0  0
  152.3228  141.3543  159.0895 C   0  0  1  0  0  0  0  0  0  0  0  0
  153.0088  139.9890  159.2083 C   0  0  0  0  0  0  0  0  0  0  0  0
  153.2375  139.3213  158.1995 O   0  0  0  0  0  0  0  0  0  0  0  0
  153.3683  139.6112  160.4455 N   0  0  0  0  0  0  0  0  0  0  0  0
  154.1930  138.4500  160.7768 C   0  0  2  0  0  0  0  0  0  0  0  0
  153.4772  137.1720  160.3193 C   0  0  0  0  0  0  0  0  0  0  0  0
  154.4882  138.4257  162.2913 C   0  0  0  0  0  0  0  0  0  0  0  0
  154.3458  137.0989  162.8668 N   0  0  0  0  0  0  0  0  0  0  0  0
  153.5485  136.7053  163.9215 C   0  0  0  0  0  0  0  0  0  0  0  0
  153.7698  135.3734  164.1232 C   0  0  0  0  0  0  0  0  0  0  0  0
  154.7261  135.0356  163.1249 C   0  0  0  0  0  0  0  0  0  0  0  0
  155.0672  136.0700  162.3729 N   0  0  0  0  0  0  0  0  0  0  0  0
  153.2348  142.4723  159.6431 C   0  0  0  0  0  0  0  0  0  0  0  0
  151.8510  142.9361  162.1343 H   0  0  0  0  0  0  0  0  0  0  0  0
  151.7710  144.5879  162.7413 H   0  0  0  0  0  0  0  0  0  0  0  0
  153.3249  143.9191  162.2497 H   0  0  0  0  0  0  0  0  0  0  0  0
  151.8549  145.1305  158.0451 H   0  0  0  0  0  0  0  0  0  0  0  0
  153.2388  144.1683  157.6136 H   0  0  0  0  0  0  0  0  0  0  0  0
  150.3757  143.1355  157.9735 H   0  0  0  0  0  0  0  0  0  0  0  0
  151.1966  143.3353  156.4440 H   0  0  0  0  0  0  0  0  0  0  0  0
  151.2071  140.9426  157.2629 H   0  0  0  0  0  0  0  0  0  0  0  0
  152.8075  141.5845  156.9827 H   0  0  0  0  0  0  0  0  0  0  0  0
  151.4109  141.3335  159.6899 H   0  0  0  0  0  0  0  0  0  0  0  0
  153.1220  140.2217  161.2110 H   0  0  0  0  0  0  0  0  0  0  0  0
  155.1439  138.4967  160.2431 H   0  0  0  0  0  0  0  0  0  0  0  0
  154.0782  136.2884  160.5363 H   0  0  0  0  0  0  0  0  0  0  0  0
  153.2929  137.1879  159.2447 H   0  0  0  0  0  0  0  0  0  0  0  0
  152.5165  137.0522  160.8214 H   0  0  0  0  0  0  0  0  0  0  0  0
  155.5009  138.7805  162.4880 H   0  0  0  0  0  0  0  0  0  0  0  0
  153.8136  139.1020  162.8186 H   0  0  0  0  0  0  0  0  0  0  0  0
  152.9061  137.4004  164.4417 H   0  0  0  0  0  0  0  0  0  0  0  0
  153.3192  134.7380  164.8711 H   0  0  0  0  0  0  0  0  0  0  0  0
  155.1797  134.0758  162.9262 H   0  0  0  0  0  0  0  0  0  0  0  0
  154.1554  142.5373  159.0603 H   0  0  0  0  0  0  0  0  0  0  0  0
  153.5563  142.2327  160.6561 H   0  0  0  0  0  0  0  0  0  0  0  0
  1  2  1  0  0  0  0
  1 21  1  0  0  0  0
  1 22  1  0  0  0  0
  1 23  1  0  0  0  0
  2  3  2  0  0  0  0
  2  4  1  0  0  0  0
  4 20  1  0  0  0  0
  4  5  1  0  0  0  0
  5  6  1  0  0  0  0
  5 24  1  0  0  0  0
  5 25  1  0  0  0  0
  6  7  1  0  0  0  0
  6 26  1  0  0  0  0
  6 27  1  0  0  0  0
  7  8  1  0  0  0  0
  7 28  1  0  0  0  0
  7 29  1  0  0  0  0
  8  9  1  0  0  0  0
  8 20  1  0  0  0  0
  8 30  1  0  0  0  0
  9 10  2  0  0  0  0
  9 11  1  0  0  0  0
 11 12  1  0  0  0  0
 11 31  1  0  0  0  0
 12 13  1  0  0  0  0
 12 14  1  0  0  0  0
 12 32  1  0  0  0  0
 13 33  1  0  0  0  0
 13 34  1  0  0  0  0
 13 35  1  0  0  0  0
 14 15  1  0  0  0  0
 14 36  1  0  0  0  0
 14 37  1  0  0  0  0
 15 19  1  0  0  0  0
 15 16  1  0  0  0  0
 16 17  2  0  0  0  0
 16 38  1  0  0  0  0
 17 18  1  0  0  0  0
 17 39  1  0  0  0  0
 18 19  2  0  0  0  0
 18 40  1  0  0  0  0
 20 41  1  0  0  0  0
 20 42  1  0  0  0  0
M  END
> <s_m_source_file>
AV-unprocessed.smi

> <i_m_source_file_index>
1796

> <i_lp_mmshare_version>
43012

> <i_f3d_flags>
0

> <s_epik_input>
W0NIM11DKD1PKU4xW0NIMl1bQ0gyXVtDSDJdW0NASF0oW0NIMl0xKUMoPU8pW05IXVtDQEhdKFtDSDNdKVtDSDJdbjJbY0hdW2NIXVtjSF1uMg==

> <s_epik_cmdline>
J2VwaWtfcHl0aG9uJywgJy1waCcsICc3LjAnLCAnLXRuJywgJzgnLCAnLW1hJywgJzIwMCcsICctbWV0YWxfYmluZGluZycsICctaW1hZScsICc8aW5maWxlLm1hZT4nLCAnLW9tYWUnLCAnPG91dGZpbGUubWFlPic=

> <r_lp_tautomer_probability>
1

> <r_epik_Ionization_Penalty>
0.000315051

> <r_epik_Ionization_Penalty_Charging>
0

> <r_epik_Ionization_Penalty_Neutral>
0.000315051

> <r_epik_State_Penalty>
-0

> <r_epik_Charging_Adjusted_Penalty>
0

> <i_epik_Tot_Q>
0

> <i_epik_Tot_abs_Q>
0

> <r_epik_Metal_State_Penalty>
-0

> <b_epik_Metal_Only>
0

> <s_lp_Force_Field>
OPLS_2005

> <r_lp_Energy>
23.171

> <b_lp_Chiralities_Consistent>
1

> <s_lp_Variant>
AV-unprocessed.smi:1796-1

> <Gold.Version>
5.8.1

> <Gold.Id.Protein>
6NUR|6NUR_protein|mol2

> <Gold.PLP.Fitness>
47.3311

> <Gold.PLP.PLP>
-45.6417

> <Gold.PLP.part.hbond>
-1.0000

> <Gold.PLP.part.metal>
0.0000

> <Gold.PLP.part.buried>
-6.1435

> <Gold.PLP.part.nonpolar>
-37.3104

> <Gold.PLP.part.repulsive>
0.2816

> <Gold.PLP.ligand.clash>
0.0000

> <Gold.PLP.ligand.torsion>
0.6727

> <Gold.PLP.Chemscore.Hbond>
1.0000

> <Gold.PLP.Chemscore.CHOScore>
0.0000

> <Gold.PLP.Chemscore.Metal>
0.0000

> <Gold.Chemscore.Hbonds>
donor molecule, donor type, donor heavy atom, donor atom, acceptor molecule, acceptor atom, score
      P1  H  7997  8009       L1    10  1.00

> <Gold.PLP.Chemscore.Internal.Correction>
0.0347

> <Gold.Rescore>
     Score         DG    S(hbond)    S(metal)    S(lipo)     H(rot)  DE(clash)    DE(int)     intcor
     15.31     -16.10       0.82        0.00     103.16       1.63       0.10       0.68       ----

> <Gold.Chemscore.Fitness>
15.3120

> <Gold.Chemscore.DG>
-16.0968

> <Gold.Chemscore.ZeroCoef>
-5.4800

> <Gold.Chemscore.Hbond>
0.8171

> <Gold.Chemscore.Metal>
0.0000

> <Gold.Chemscore.Lipo>
103.1616

> <Gold.Chemscore.Internal_Hbond>
0.0000

> <Gold.Chemscore.DEClash>
0.1006

> <Gold.Chemscore.DEInternal>
0.6842

> <Gold.Chemscore.Rot>
1.6336

> <Gold.Chemscore.Internal.Correction>
   9.000000E+99

> <Gold.Chemscore.Hbonds>
donor molecule, donor type, donor heavy atom, donor atom, acceptor molecule, acceptor atom, score
      P1  H  7997  8009       L1    10  0.85

> <Gold.Chemscore.Hbond.Weighted>
-2.7290

> <Gold.Chemscore.Metal.Weighted>
-0.0000

> <Gold.Chemscore.Lipo.Weighted>
-12.0699

> <Gold.Chemscore.Internal_Hbond.Weighted>
0.0000

> <Gold.Chemscore.DEClash.Weighted>
0.1006

> <Gold.Chemscore.DEInternal.Weighted>
0.6842

> <Gold.Chemscore.Rot.Weighted>
4.1821

> <Gold.Chemscore.Internal.Correction.Weighted>
   9.000000E+99

> <Gold.Protein.RotatedTorsions>
[ 6907 6896 6895 6894 ] final  -26.36 input  -60.11 | X-H torsion
[ 7974 7965 7964 7962 ] final -160.29 input  175.53 | X-H torsion
[ 8008 7997 7996 7995 ] final  144.69 input   59.86 | X-H torsion
[ 10167 10162 10161 10158 ] final -120.66 input  -65.29 | X-H torsion
[ 10718 10713 10712 10709 ] final  105.74 input   66.30 | X-H torsion
[ 10763 10752 10751 10750 ] final  160.28 input  -60.55 | X-H torsion
[ 11005 11000 10999 10996 ] final  143.59 input  -57.11 | X-H torsion

> <Gold.Protein.ActiveResidues>
 VAL166  LYS551  ARG553  GLY616  TRP617  ASP618  TYR619  PRO620  LYS621  CYS622 
 ASP623  PHE694  ASN695  SER759  ASP760  ASP761  ALA762  ILE779  LEU786  VAL792 
 PHE793  MET794  SER795  GLU796  ALA797  LYS798  CYS799  TRP800  GLU811  SER814 

> <Gold.Protein.RotatedAtoms>
  151.1621  135.0278  159.8714 H   0  0  0  0  0  0  0  0  0  0  0  0  # atno 6907 bound_to 6896
  152.5451  134.1268  159.8432 H   0  0  0  0  0  0  0  0  0  0  0  0  # atno 6908 bound_to 6896
  151.1364  133.4955  159.2630 H   0  0  0  0  0  0  0  0  0  0  0  0  # atno 6909 bound_to 6896
  144.7433  140.3563  143.6105 H   0  0  0  0  0  0  0  0  0  0  0  0  # atno 7974 bound_to 7965
  156.2902  140.2229  156.5094 H   0  0  0  0  0  0  0  0  0  0  0  0  # atno 8008 bound_to 7997
  154.7622  140.0472  157.1004 H   0  0  0  0  0  0  0  0  0  0  0  0  # atno 8009 bound_to 7997
  154.9977  140.3098  155.4883 H   0  0  0  0  0  0  0  0  0  0  0  0  # atno 8010 bound_to 7997
  140.0334  143.5225  152.2165 H   0  0  0  0  0  0  0  0  0  0  0  0  # atno 10167 bound_to 10162
  157.6694  131.0834  150.5902 H   0  0  0  0  0  0  0  0  0  0  0  0  # atno 10718 bound_to 10713
  154.2450  135.2773  155.2839 H   0  0  0  0  0  0  0  0  0  0  0  0  # atno 10763 bound_to 10752
  154.5513  135.5674  153.6928 H   0  0  0  0  0  0  0  0  0  0  0  0  # atno 10764 bound_to 10752
  152.9992  135.6275  154.2595 H   0  0  0  0  0  0  0  0  0  0  0  0  # atno 10765 bound_to 10752
  140.0566  134.9227  157.1110 H   0  0  0  0  0  0  0  0  0  0  0  0  # atno 11005 bound_to 11000
  145.7223  139.1713  143.2477 LP  0  0  0  0  0  0  0  0  0  0  0  0  # atno 17320 bound_to 7965
  146.1267  140.7238  142.9431 LP  0  0  0  0  0  0  0  0  0  0  0  0  # atno 17321 bound_to 7965
  139.6061  144.7596  151.3059 LP  0  0  0  0  0  0  0  0  0  0  0  0  # atno 17342 bound_to 10162
  140.7292  143.6915  150.7918 LP  0  0  0  0  0  0  0  0  0  0  0  0  # atno 17343 bound_to 10162
  156.6202  130.4404  149.5825 LP  0  0  0  0  0  0  0  0  0  0  0  0  # atno 17370 bound_to 10713
  156.2361  130.6824  151.1511 LP  0  0  0  0  0  0  0  0  0  0  0  0  # atno 17371 bound_to 10713
  140.3835  134.2261  155.7169 LP  0  0  0  0  0  0  0  0  0  0  0  0  # atno 17394 bound_to 11000
  141.1954  133.8105  157.0714 LP  0  0  0  0  0  0  0  0  0  0  0  0  # atno 17395 bound_to 11000

$$$$
