AV-unprocessed.smi:2990|AV-procd|sdf|11396|dock10
  -GOLD-   2272016323D 1   1.00000     0.00000
 Structure written by MMmdl.
 40 42  0  0  0  0  0  0  0  0  2 V2000
  148.5141  141.1732  155.6718 C   0  0  0  0  0  0  0  0  0  0  0  0
  149.5881  141.4221  156.6772 C   0  0  0  0  0  0  0  0  0  0  0  0
  150.0749  142.6411  157.0448 N   0  3  0  0  0  0  0  0  0  0  0  0
  151.0750  142.4805  158.0053 C   0  0  0  0  0  0  0  0  0  0  0  0
  151.8571  143.4177  158.6733 C   0  0  0  0  0  0  0  0  0  0  0  0
  152.7941  142.9145  159.5999 C   0  0  0  0  0  0  0  0  0  0  0  0
  152.9274  141.5298  159.8316 C   0  0  0  0  0  0  0  0  0  0  0  0
  152.1299  140.5890  159.1468 C   0  0  0  0  0  0  0  0  0  0  0  0
  151.2048  141.0956  158.2345 C   0  0  0  0  0  0  0  0  0  0  0  0
  150.2661  140.4832  157.3975 N   0  0  0  0  0  0  0  0  0  0  0  0
  150.1523  139.0170  157.3997 C   0  0  0  0  0  0  0  0  0  0  0  0
  148.8649  138.5121  158.0826 C   0  0  1  0  0  0  0  0  0  0  0  0
  147.8979  138.1916  157.1026 O   0  0  0  0  0  0  0  0  0  0  0  0
  149.1136  137.2707  158.9505 C   0  0  0  0  0  0  0  0  0  0  0  0
  148.2717  137.3345  160.0942 O   0  0  0  0  0  0  0  0  0  0  0  0
  147.9781  136.1608  160.7546 C   0  0  0  0  0  0  0  0  0  0  0  0
  147.7131  136.2535  162.1367 C   0  0  0  0  0  0  0  0  0  0  0  0
  147.4051  135.1046  162.8906 C   0  0  0  0  0  0  0  0  0  0  0  0
  147.3577  133.8450  162.2654 C   0  0  0  0  0  0  0  0  0  0  0  0
  147.6182  133.7378  160.8867 C   0  0  0  0  0  0  0  0  0  0  0  0
  147.9268  134.8871  160.1329 C   0  0  0  0  0  0  0  0  0  0  0  0
  148.0664  142.1131  155.3484 H   0  0  0  0  0  0  0  0  0  0  0  0
  147.7317  140.5468  156.1007 H   0  0  0  0  0  0  0  0  0  0  0  0
  148.9275  140.6669  154.7994 H   0  0  0  0  0  0  0  0  0  0  0  0
  151.7577  144.4786  158.4967 H   0  0  0  0  0  0  0  0  0  0  0  0
  153.4232  143.6044  160.1436 H   0  0  0  0  0  0  0  0  0  0  0  0
  153.6564  141.1819  160.5491 H   0  0  0  0  0  0  0  0  0  0  0  0
  152.2392  139.5303  159.3301 H   0  0  0  0  0  0  0  0  0  0  0  0
  150.1885  138.6794  156.3632 H   0  0  0  0  0  0  0  0  0  0  0  0
  151.0389  138.6068  157.8847 H   0  0  0  0  0  0  0  0  0  0  0  0
  148.4442  139.2995  158.7083 H   0  0  0  0  0  0  0  0  0  0  0  0
  148.2804  137.5775  156.4950 H   0  0  0  0  0  0  0  0  0  0  0  0
  148.8818  136.3704  158.3785 H   0  0  0  0  0  0  0  0  0  0  0  0
  150.1635  137.2249  159.2451 H   0  0  0  0  0  0  0  0  0  0  0  0
  147.7480  137.2163  162.6251 H   0  0  0  0  0  0  0  0  0  0  0  0
  147.2053  135.1905  163.9485 H   0  0  0  0  0  0  0  0  0  0  0  0
  147.1216  132.9627  162.8420 H   0  0  0  0  0  0  0  0  0  0  0  0
  147.5812  132.7718  160.4049 H   0  0  0  0  0  0  0  0  0  0  0  0
  148.1189  134.7644  159.0780 H   0  0  0  0  0  0  0  0  0  0  0  0
  149.7460  143.5186  156.6630 H   0  0  0  0  0  0  0  0  0  0  0  0
  1  2  1  0  0  0  0
  1 22  1  0  0  0  0
  1 23  1  0  0  0  0
  1 24  1  0  0  0  0
  2 10  1  0  0  0  0
  2  3  2  0  0  0  0
  3  4  1  0  0  0  0
  3 40  1  0  0  0  0
  4  9  2  0  0  0  0
  4  5  1  0  0  0  0
  5  6  2  0  0  0  0
  5 25  1  0  0  0  0
  6  7  1  0  0  0  0
  6 26  1  0  0  0  0
  7  8  2  0  0  0  0
  7 27  1  0  0  0  0
  8  9  1  0  0  0  0
  8 28  1  0  0  0  0
  9 10  1  0  0  0  0
 10 11  1  0  0  0  0
 11 12  1  0  0  0  0
 11 29  1  0  0  0  0
 11 30  1  0  0  0  0
 12 13  1  0  0  0  0
 12 14  1  0  0  0  0
 12 31  1  0  0  0  0
 13 32  1  0  0  0  0
 14 15  1  0  0  0  0
 14 33  1  0  0  0  0
 14 34  1  0  0  0  0
 15 16  1  0  0  0  0
 16 21  1  0  0  0  0
 16 17  2  0  0  0  0
 17 18  1  0  0  0  0
 17 35  1  0  0  0  0
 18 19  2  0  0  0  0
 18 36  1  0  0  0  0
 19 20  1  0  0  0  0
 19 37  1  0  0  0  0
 20 21  2  0  0  0  0
 20 38  1  0  0  0  0
 21 39  1  0  0  0  0
M  CHG  1   3   1
M  END
> <s_m_source_file>
AV-unprocessed.smi

> <i_m_source_file_index>
2990

> <i_lp_mmshare_version>
43012

> <i_f3d_flags>
0

> <s_epik_input>
W2NIXTFbY0hdW2NIXVtjSF1jKGMxMiluKGMobjIpW0NIM10pW0NIMl1bQ0BIXShbT0hdKVtDSDJdT2MzW2NIXVtjSF1bY0hdW2NIXVtjSF0z

> <s_epik_cmdline>
J2VwaWtfcHl0aG9uJywgJy1waCcsICc3LjAnLCAnLXRuJywgJzgnLCAnLW1hJywgJzIwMCcsICctbWV0YWxfYmluZGluZycsICctaW1hZScsICc8aW5maWxlLm1hZT4nLCAnLW9tYWUnLCAnPG91dGZpbGUubWFlPic=

> <r_lp_tautomer_probability>
1

> <r_epik_Ionization_Penalty>
1.00673

> <r_epik_Ionization_Penalty_Charging>
1.00673

> <r_epik_Ionization_Penalty_Neutral>
2.3993e-06

> <r_epik_State_Penalty>
1.05579

> <r_epik_Charging_Adjusted_Penalty>
2.06252

> <i_epik_Tot_Q>
1

> <i_epik_Tot_abs_Q>
1

> <r_epik_Metal_State_Penalty>
5.03947

> <b_epik_Metal_Only>
0

> <s_lp_Force_Field>
OPLS_2005

> <r_lp_Energy>
17.9265

> <b_lp_Chiralities_Consistent>
1

> <s_lp_Variant>
AV-unprocessed.smi:2990-4

> <Gold.Version>
5.8.1

> <Gold.Id.Protein>
6NUR|6NUR_protein|mol2

> <Gold.PLP.Fitness>
50.2011

> <Gold.PLP.PLP>
-45.2492

> <Gold.PLP.part.hbond>
-3.0000

> <Gold.PLP.part.metal>
0.0000

> <Gold.PLP.part.buried>
-5.0981

> <Gold.PLP.part.nonpolar>
-38.0092

> <Gold.PLP.part.repulsive>
0.0278

> <Gold.PLP.ligand.clash>
0.0000

> <Gold.PLP.ligand.torsion>
1.6537

> <Gold.PLP.Chemscore.Hbond>
2.7402

> <Gold.PLP.Chemscore.CHOScore>
0.0000

> <Gold.PLP.Chemscore.Metal>
0.0000

> <Gold.Chemscore.Hbonds>
donor molecule, donor type, donor heavy atom, donor atom, acceptor molecule, acceptor atom, score
      L1  H     3    40       P1  8028  2.00
      P1  H  6931  6943       L1    15  0.25
      P1  H  6934  6947       L1    15  0.38

> <Gold.PLP.Chemscore.Internal.Correction>
0.0388

> <Gold.Rescore>
     Score         DG    S(hbond)    S(metal)    S(lipo)     H(rot)  DE(clash)    DE(int)     intcor
     17.87     -19.56       1.57        0.00     121.82       2.12       0.27       1.42       ----

> <Gold.Chemscore.Fitness>
17.8704

> <Gold.Chemscore.DG>
-19.5573

> <Gold.Chemscore.ZeroCoef>
-5.4800

> <Gold.Chemscore.Hbond>
1.5711

> <Gold.Chemscore.Metal>
0.0000

> <Gold.Chemscore.Lipo>
121.8217

> <Gold.Chemscore.Internal_Hbond>
0.0000

> <Gold.Chemscore.DEClash>
0.2695

> <Gold.Chemscore.DEInternal>
1.4174

> <Gold.Chemscore.Rot>
2.1184

> <Gold.Chemscore.Internal.Correction>
   9.000000E+99

> <Gold.Chemscore.Hbonds>
donor molecule, donor type, donor heavy atom, donor atom, acceptor molecule, acceptor atom, score
      L1  H     3    40       P1  8028  1.00
      P1  H  6931  6943       L1    15  0.02
      P1  H  6934  6947       L1    15  0.33

> <Gold.Chemscore.Hbond.Weighted>
-5.2473

> <Gold.Chemscore.Metal.Weighted>
-0.0000

> <Gold.Chemscore.Lipo.Weighted>
-14.2531

> <Gold.Chemscore.Internal_Hbond.Weighted>
0.0000

> <Gold.Chemscore.DEClash.Weighted>
0.2695

> <Gold.Chemscore.DEInternal.Weighted>
1.4174

> <Gold.Chemscore.Rot.Weighted>
5.4231

> <Gold.Chemscore.Internal.Correction.Weighted>
   9.000000E+99

> <Gold.Protein.RotatedTorsions>
[ 6907 6896 6895 6894 ] final  163.08 input  -60.11 | X-H torsion
[ 7974 7965 7964 7962 ] final -159.76 input  175.53 | X-H torsion
[ 8008 7997 7996 7995 ] final -137.28 input   59.86 | X-H torsion
[ 10167 10162 10161 10158 ] final  179.63 input  -65.29 | X-H torsion
[ 10718 10713 10712 10709 ] final   37.72 input   66.30 | X-H torsion
[ 10763 10752 10751 10750 ] final   15.73 input  -60.55 | X-H torsion
[ 11005 11000 10999 10996 ] final  -28.66 input  -57.11 | X-H torsion

> <Gold.Protein.ActiveResidues>
 VAL166  LYS551  ARG553  GLY616  TRP617  ASP618  TYR619  PRO620  LYS621  CYS622 
 ASP623  PHE694  ASN695  SER759  ASP760  ASP761  ALA762  ILE779  LEU786  VAL792 
 PHE793  MET794  SER795  GLU796  ALA797  LYS798  CYS799  TRP800  GLU811  SER814 

> <Gold.Protein.RotatedAtoms>
  151.9306  133.3610  159.3929 H   0  0  0  0  0  0  0  0  0  0  0  0  # atno 6907 bound_to 6896
  150.7018  134.4541  159.5359 H   0  0  0  0  0  0  0  0  0  0  0  0  # atno 6908 bound_to 6896
  152.2181  134.8439  160.0540 H   0  0  0  0  0  0  0  0  0  0  0  0  # atno 6909 bound_to 6896
  144.7452  140.3638  143.6090 H   0  0  0  0  0  0  0  0  0  0  0  0  # atno 7974 bound_to 7965
  155.4092  140.0511  157.3032 H   0  0  0  0  0  0  0  0  0  0  0  0  # atno 8008 bound_to 7997
  154.4954  140.2136  155.9418 H   0  0  0  0  0  0  0  0  0  0  0  0  # atno 8009 bound_to 7997
  156.1398  140.3156  155.8483 H   0  0  0  0  0  0  0  0  0  0  0  0  # atno 8010 bound_to 7997
  139.5344  144.2539  152.0762 H   0  0  0  0  0  0  0  0  0  0  0  0  # atno 10167 bound_to 10162
  157.3503  130.7594  149.6973 H   0  0  0  0  0  0  0  0  0  0  0  0  # atno 10718 bound_to 10713
  153.1497  135.6776  153.8901 H   0  0  0  0  0  0  0  0  0  0  0  0  # atno 10763 bound_to 10752
  153.8331  135.3115  155.3421 H   0  0  0  0  0  0  0  0  0  0  0  0  # atno 10764 bound_to 10752
  154.7853  135.4866  154.0018 H   0  0  0  0  0  0  0  0  0  0  0  0  # atno 10765 bound_to 10752
  140.9228  133.7388  156.0826 H   0  0  0  0  0  0  0  0  0  0  0  0  # atno 11005 bound_to 11000
  145.7149  139.1694  143.2517 LP  0  0  0  0  0  0  0  0  0  0  0  0  # atno 17320 bound_to 7965
  146.1320  140.7173  142.9408 LP  0  0  0  0  0  0  0  0  0  0  0  0  # atno 17321 bound_to 7965
  140.2007  144.4661  150.6433 LP  0  0  0  0  0  0  0  0  0  0  0  0  # atno 17342 bound_to 10162
  140.6543  143.2233  151.6006 LP  0  0  0  0  0  0  0  0  0  0  0  0  # atno 17343 bound_to 10162
  155.9720  130.4142  150.4123 LP  0  0  0  0  0  0  0  0  0  0  0  0  # atno 17370 bound_to 10713
  157.2184  131.0477  151.2560 LP  0  0  0  0  0  0  0  0  0  0  0  0  # atno 17371 bound_to 10713
  140.7965  134.3558  157.5451 LP  0  0  0  0  0  0  0  0  0  0  0  0  # atno 17394 bound_to 11000
  139.8779  134.9172  156.3172 LP  0  0  0  0  0  0  0  0  0  0  0  0  # atno 17395 bound_to 11000

$$$$
