AV-unprocessed.smi:2730|AV-procd|sdf|10528|dock1
  -GOLD-   2272014573D 1   1.00000     0.00000
 Structure written by MMmdl.
 43 44  0  0  0  0  0  0  0  0  1 V2000
  148.6257  131.9795  154.1422 C   0  0  0  0  0  0  0  0  0  0  0  0
  148.9398  133.4589  153.8747 C   0  0  0  0  0  0  0  0  0  0  0  0
  149.1726  134.2866  155.1550 C   0  0  2  0  0  0  0  0  0  0  0  0
  147.9587  134.2546  156.1018 C   0  0  0  0  0  0  0  0  0  0  0  0
  148.3114  134.4113  157.5216 C   0  0  0  0  0  0  0  0  0  0  0  0
  148.5886  134.5351  158.6381 N   0  0  0  0  0  0  0  0  0  0  0  0
  149.4934  135.6689  154.8072 N   0  0  0  0  0  0  0  0  0  0  0  0
  149.9555  136.5944  155.6602 C   0  0  0  0  0  0  0  0  0  0  0  0
  150.1528  136.3764  156.8559 O   0  0  0  0  0  0  0  0  0  0  0  0
  150.1670  137.7665  155.0370 N   0  0  0  0  0  0  0  0  0  0  0  0
  150.6473  138.9810  155.5918 C   0  0  0  0  0  0  0  0  0  0  0  0
  150.9260  140.1053  154.8635 N   0  0  0  0  0  0  0  0  0  0  0  0
  151.3230  140.9010  155.8476 C   0  0  0  0  0  0  0  0  0  0  0  0
  151.2939  140.3295  157.0551 N   0  0  0  0  0  0  0  0  0  0  0  0
  151.6489  140.8712  158.3579 C   0  0  0  0  0  0  0  0  0  0  0  0
  151.8752  142.3962  158.2955 C   0  0  0  0  0  0  0  0  0  0  0  0
  152.2394  142.9630  159.6775 C   0  0  0  0  0  0  0  0  0  0  0  0
  153.4641  142.2463  160.2688 C   0  0  0  0  0  0  0  0  0  0  0  0
  153.2429  140.7264  160.3335 C   0  0  0  0  0  0  0  0  0  0  0  0
  152.8809  140.1568  158.9519 C   0  0  0  0  0  0  0  0  0  0  0  0
  150.8486  139.0569  156.9055 N   0  0  0  0  0  0  0  0  0  0  0  0
  148.4227  131.4534  153.2092 H   0  0  0  0  0  0  0  0  0  0  0  0
  147.7477  131.8739  154.7798 H   0  0  0  0  0  0  0  0  0  0  0  0
  149.4581  131.4722  154.6301 H   0  0  0  0  0  0  0  0  0  0  0  0
  149.8141  133.5310  153.2267 H   0  0  0  0  0  0  0  0  0  0  0  0
  148.1106  133.8865  153.3109 H   0  0  0  0  0  0  0  0  0  0  0  0
  150.0260  133.8528  155.6803 H   0  0  0  0  0  0  0  0  0  0  0  0
  147.2577  135.0522  155.8543 H   0  0  0  0  0  0  0  0  0  0  0  0
  147.4200  133.3122  155.9981 H   0  0  0  0  0  0  0  0  0  0  0  0
  149.3614  135.9357  153.8425 H   0  0  0  0  0  0  0  0  0  0  0  0
  149.9612  137.7949  154.0495 H   0  0  0  0  0  0  0  0  0  0  0  0
  151.6415  141.9202  155.6847 H   0  0  0  0  0  0  0  0  0  0  0  0
  150.8015  140.6846  159.0201 H   0  0  0  0  0  0  0  0  0  0  0  0
  152.6755  142.6286  157.5916 H   0  0  0  0  0  0  0  0  0  0  0  0
  150.9794  142.8921  157.9196 H   0  0  0  0  0  0  0  0  0  0  0  0
  152.4365  144.0325  159.5998 H   0  0  0  0  0  0  0  0  0  0  0  0
  151.3902  142.8530  160.3531 H   0  0  0  0  0  0  0  0  0  0  0  0
  154.3428  142.4615  159.6593 H   0  0  0  0  0  0  0  0  0  0  0  0
  153.6766  142.6339  161.2655 H   0  0  0  0  0  0  0  0  0  0  0  0
  154.1395  140.2366  160.7142 H   0  0  0  0  0  0  0  0  0  0  0  0
  152.4440  140.5030  161.0418 H   0  0  0  0  0  0  0  0  0  0  0  0
  152.6885  139.0865  159.0349 H   0  0  0  0  0  0  0  0  0  0  0  0
  153.7367  140.2661  158.2841 H   0  0  0  0  0  0  0  0  0  0  0  0
  1  2  1  0  0  0  0
  1 22  1  0  0  0  0
  1 23  1  0  0  0  0
  1 24  1  0  0  0  0
  2  3  1  0  0  0  0
  2 25  1  0  0  0  0
  2 26  1  0  0  0  0
  3  4  1  0  0  0  0
  3  7  1  0  0  0  0
  3 27  1  0  0  0  0
  4  5  1  0  0  0  0
  4 28  1  0  0  0  0
  4 29  1  0  0  0  0
  5  6  3  0  0  0  0
  7  8  1  0  0  0  0
  7 30  1  0  0  0  0
  8  9  2  0  0  0  0
  8 10  1  0  0  0  0
 10 11  1  0  0  0  0
 10 31  1  0  0  0  0
 11 21  2  0  0  0  0
 11 12  1  0  0  0  0
 12 13  2  0  0  0  0
 13 14  1  0  0  0  0
 13 32  1  0  0  0  0
 14 15  1  0  0  0  0
 14 21  1  0  0  0  0
 15 20  1  0  0  0  0
 15 16  1  0  0  0  0
 15 33  1  0  0  0  0
 16 17  1  0  0  0  0
 16 34  1  0  0  0  0
 16 35  1  0  0  0  0
 17 18  1  0  0  0  0
 17 36  1  0  0  0  0
 17 37  1  0  0  0  0
 18 19  1  0  0  0  0
 18 38  1  0  0  0  0
 18 39  1  0  0  0  0
 19 20  1  0  0  0  0
 19 40  1  0  0  0  0
 19 41  1  0  0  0  0
 20 42  1  0  0  0  0
 20 43  1  0  0  0  0
M  END
> <s_m_source_file>
AV-unprocessed.smi

> <i_m_source_file_index>
2730

> <i_lp_mmshare_version>
43012

> <i_f3d_flags>
0

> <s_epik_input>
TiNDW0NIMl1bQ0BASF0oW0NIMl1bQ0gzXSlbTkhdQyg9TylbTkhdYzFuW2NIXW4objEpW0NIXTJbQ0gyXVtDSDJdW0NIMl1bQ0gyXVtDSDJdMg==

> <s_epik_cmdline>
J2VwaWtfcHl0aG9uJywgJy1waCcsICc3LjAnLCAnLXRuJywgJzgnLCAnLW1hJywgJzIwMCcsICctbWV0YWxfYmluZGluZycsICctaW1hZScsICc8aW5maWxlLm1hZT4nLCAnLW9tYWUnLCAnPG91dGZpbGUubWFlPic=

> <r_lp_tautomer_probability>
1

> <r_epik_Ionization_Penalty>
7.18854e-05

> <r_epik_Ionization_Penalty_Charging>
0

> <r_epik_Ionization_Penalty_Neutral>
7.18854e-05

> <r_epik_State_Penalty>
-0

> <r_epik_Charging_Adjusted_Penalty>
0

> <i_epik_Tot_Q>
0

> <i_epik_Tot_abs_Q>
0

> <r_epik_Metal_State_Penalty>
-0

> <b_epik_Metal_Only>
0

> <s_lp_Force_Field>
OPLS_2005

> <r_lp_Energy>
15.2848

> <b_lp_Chiralities_Consistent>
1

> <s_lp_Variant>
AV-unprocessed.smi:2730-1

> <Gold.Version>
5.8.1

> <Gold.Id.Protein>
6NUR|6NUR_protein|mol2

> <Gold.PLP.Fitness>
43.9464

> <Gold.PLP.PLP>
-35.9759

> <Gold.PLP.part.hbond>
-3.0000

> <Gold.PLP.part.metal>
0.0000

> <Gold.PLP.part.buried>
-5.2234

> <Gold.PLP.part.nonpolar>
-28.0448

> <Gold.PLP.part.repulsive>
0.1536

> <Gold.PLP.ligand.clash>
0.0000

> <Gold.PLP.ligand.torsion>
0.5443

> <Gold.PLP.Chemscore.Hbond>
3.0000

> <Gold.PLP.Chemscore.CHOScore>
0.0000

> <Gold.PLP.Chemscore.Metal>
0.0000

> <Gold.Chemscore.Hbonds>
donor molecule, donor type, donor heavy atom, donor atom, acceptor molecule, acceptor atom, score
      L1  H     7    30       P1  7948  1.00
      P1  H  6896  6909       L1     6  0.46
      P1  H  7989  7998       L1    12  1.00

> <Gold.PLP.Chemscore.Internal.Correction>
0.0591

> <Gold.Rescore>
     Score         DG    S(hbond)    S(metal)    S(lipo)     H(rot)  DE(clash)    DE(int)     intcor
     14.26     -18.01       2.67        0.00      70.87       1.82       0.18       3.56       ----

> <Gold.Chemscore.Fitness>
14.2592

> <Gold.Chemscore.DG>
-18.0071

> <Gold.Chemscore.ZeroCoef>
-5.4800

> <Gold.Chemscore.Hbond>
2.6668

> <Gold.Chemscore.Metal>
0.0000

> <Gold.Chemscore.Lipo>
70.8697

> <Gold.Chemscore.Internal_Hbond>
0.0000

> <Gold.Chemscore.DEClash>
0.1849

> <Gold.Chemscore.DEInternal>
3.5630

> <Gold.Chemscore.Rot>
1.8249

> <Gold.Chemscore.Internal.Correction>
   9.000000E+99

> <Gold.Chemscore.Hbonds>
donor molecule, donor type, donor heavy atom, donor atom, acceptor molecule, acceptor atom, score
      L1  H     7    30       P1  7948  0.66
      P1  H  6896  6909       L1     6  0.44
      P1  H  7989  7998       L1    12  0.30

> <Gold.Chemscore.Hbond.Weighted>
-8.9072

> <Gold.Chemscore.Metal.Weighted>
-0.0000

> <Gold.Chemscore.Lipo.Weighted>
-8.2918

> <Gold.Chemscore.Internal_Hbond.Weighted>
0.0000

> <Gold.Chemscore.DEClash.Weighted>
0.1849

> <Gold.Chemscore.DEInternal.Weighted>
3.5630

> <Gold.Chemscore.Rot.Weighted>
4.6718

> <Gold.Chemscore.Internal.Correction.Weighted>
   9.000000E+99

> <Gold.Protein.RotatedTorsions>
[ 6907 6896 6895 6894 ] final   15.39 input  -60.11 | X-H torsion
[ 7974 7965 7964 7962 ] final -105.11 input  175.53 | X-H torsion
[ 8008 7997 7996 7995 ] final  166.10 input   59.86 | X-H torsion
[ 10167 10162 10161 10158 ] final   91.81 input  -65.29 | X-H torsion
[ 10718 10713 10712 10709 ] final  -94.48 input   66.30 | X-H torsion
[ 10763 10752 10751 10750 ] final  -78.36 input  -60.55 | X-H torsion
[ 11005 11000 10999 10996 ] final -146.93 input  -57.11 | X-H torsion

> <Gold.Protein.ActiveResidues>
 VAL166  LYS551  ARG553  GLY616  TRP617  ASP618  TYR619  PRO620  LYS621  CYS622 
 ASP623  PHE694  ASN695  SER759  ASP760  ASP761  ALA762  ILE779  LEU786  VAL792 
 PHE793  MET794  SER795  GLU796  ALA797  LYS798  CYS799  TRP800  GLU811  SER814 

> <Gold.Protein.RotatedAtoms>
  151.8174  135.0662  160.0420 H   0  0  0  0  0  0  0  0  0  0  0  0  # atno 6907 bound_to 6896
  152.2976  133.5618  159.5606 H   0  0  0  0  0  0  0  0  0  0  0  0  # atno 6908 bound_to 6896
  150.7258  134.0254  159.3757 H   0  0  0  0  0  0  0  0  0  0  0  0  # atno 6909 bound_to 6896
  145.2347  140.9183  143.3184 H   0  0  0  0  0  0  0  0  0  0  0  0  # atno 7974 bound_to 7965
  156.1746  140.1652  156.8385 H   0  0  0  0  0  0  0  0  0  0  0  0  # atno 8008 bound_to 7997
  154.5294  140.0760  156.8350 H   0  0  0  0  0  0  0  0  0  0  0  0  # atno 8009 bound_to 7997
  155.3439  140.3386  155.4241 H   0  0  0  0  0  0  0  0  0  0  0  0  # atno 8010 bound_to 7997
  139.8338  144.6674  150.9367 H   0  0  0  0  0  0  0  0  0  0  0  0  # atno 10167 bound_to 10162
  156.0028  130.5069  150.5933 H   0  0  0  0  0  0  0  0  0  0  0  0  # atno 10718 bound_to 10713
  154.5249  135.5732  153.6711 H   0  0  0  0  0  0  0  0  0  0  0  0  # atno 10763 bound_to 10752
  152.9925  135.6190  154.2705 H   0  0  0  0  0  0  0  0  0  0  0  0  # atno 10764 bound_to 10752
  154.2628  135.2855  155.2750 H   0  0  0  0  0  0  0  0  0  0  0  0  # atno 10765 bound_to 10752
  140.7769  134.3124  157.5057 H   0  0  0  0  0  0  0  0  0  0  0  0  # atno 11005 bound_to 11000
  144.9644  139.3945  143.6340 LP  0  0  0  0  0  0  0  0  0  0  0  0  # atno 17320 bound_to 7965
  146.3344  139.8713  142.8839 LP  0  0  0  0  0  0  0  0  0  0  0  0  # atno 17321 bound_to 7965
  140.7804  143.3976  151.1203 LP  0  0  0  0  0  0  0  0  0  0  0  0  # atno 17342 bound_to 10162
  139.7628  143.8610  152.3104 LP  0  0  0  0  0  0  0  0  0  0  0  0  # atno 17343 bound_to 10162
  157.3794  131.0778  151.1490 LP  0  0  0  0  0  0  0  0  0  0  0  0  # atno 17370 bound_to 10713
  157.2217  130.6484  149.5814 LP  0  0  0  0  0  0  0  0  0  0  0  0  # atno 17371 bound_to 10713
  139.8748  134.9295  156.3478 LP  0  0  0  0  0  0  0  0  0  0  0  0  # atno 17394 bound_to 11000
  140.9520  133.7445  156.0284 LP  0  0  0  0  0  0  0  0  0  0  0  0  # atno 17395 bound_to 11000

$$$$
