AV-unprocessed.smi:1125|AV-procd|sdf|4835|dock4
  -GOLD-   22720 3393D 1   1.00000     0.00000
 Structure written by MMmdl.
 46 47  0  0  0  0  0  0  0  0  2 V2000
  145.0234  142.8296  154.9599 C   0  0  0  0  0  0  0  0  0  0  0  0
  145.7046  141.6657  154.3537 N   0  3  2  0  0  0  0  0  0  0  0  0
  145.6012  140.4501  155.1991 C   0  0  0  0  0  0  0  0  0  0  0  0
  146.2096  139.2268  154.4898 C   0  0  0  0  0  0  0  0  0  0  0  0
  147.6676  139.4789  154.0595 C   0  0  2  0  0  0  0  0  0  0  0  0
  148.5586  139.5589  155.2134 N   0  0  0  0  0  0  0  0  0  0  0  0
  149.8894  139.7311  155.1768 C   0  0  0  0  0  0  0  0  0  0  0  0
  150.5341  139.8049  154.1312 O   0  0  0  0  0  0  0  0  0  0  0  0
  150.6032  139.8206  156.5296 C   0  0  0  0  0  0  0  0  0  0  0  0
  150.2462  141.0978  157.2375 C   0  0  0  0  0  0  0  0  0  0  0  0
  148.9868  141.5989  157.4494 C   0  0  0  0  0  0  0  0  0  0  0  0
  149.0255  143.0941  158.3412 S   0  0  0  0  0  0  0  0  0  0  0  0
  150.7890  142.9936  158.3967 C   0  0  0  0  0  0  0  0  0  0  0  0
  151.6944  143.9830  159.0896 C   0  0  0  0  0  0  0  0  0  0  0  0
  152.6252  144.6454  158.0552 C   0  0  0  0  0  0  0  0  0  0  0  0
  152.5816  143.2881  160.1449 C   0  0  0  0  0  0  0  0  0  0  0  0
  150.8497  145.0460  159.8184 C   0  0  0  0  0  0  0  0  0  0  0  0
  151.2552  141.9097  157.7671 N   0  0  0  0  0  0  0  0  0  0  0  0
  147.7516  140.7781  153.2386 C   0  0  0  0  0  0  0  0  0  0  0  0
  147.1081  141.9670  153.9762 C   0  0  0  0  0  0  0  0  0  0  0  0
  145.4968  143.1140  155.9006 H   0  0  0  0  0  0  0  0  0  0  0  0
  143.9759  142.6011  155.1590 H   0  0  0  0  0  0  0  0  0  0  0  0
  145.0542  143.6877  154.2877 H   0  0  0  0  0  0  0  0  0  0  0  0
  146.1020  140.6234  156.1529 H   0  0  0  0  0  0  0  0  0  0  0  0
  144.5528  140.2520  155.4257 H   0  0  0  0  0  0  0  0  0  0  0  0
  146.1470  138.3499  155.1353 H   0  0  0  0  0  0  0  0  0  0  0  0
  145.6123  138.9939  153.6075 H   0  0  0  0  0  0  0  0  0  0  0  0
  147.9994  138.6540  153.4262 H   0  0  0  0  0  0  0  0  0  0  0  0
  148.1250  139.5173  156.1249 H   0  0  0  0  0  0  0  0  0  0  0  0
  150.3277  138.9541  157.1321 H   0  0  0  0  0  0  0  0  0  0  0  0
  151.6810  139.7573  156.3747 H   0  0  0  0  0  0  0  0  0  0  0  0
  148.0411  141.1756  157.1446 H   0  0  0  0  0  0  0  0  0  0  0  0
  153.3049  145.3554  158.5280 H   0  0  0  0  0  0  0  0  0  0  0  0
  152.0591  145.1918  157.2999 H   0  0  0  0  0  0  0  0  0  0  0  0
  153.2325  143.9032  157.5357 H   0  0  0  0  0  0  0  0  0  0  0  0
  153.2254  142.5310  159.6959 H   0  0  0  0  0  0  0  0  0  0  0  0
  151.9829  142.8017  160.9161 H   0  0  0  0  0  0  0  0  0  0  0  0
  153.2325  144.0041  160.6480 H   0  0  0  0  0  0  0  0  0  0  0  0
  151.4804  145.7647  160.3425 H   0  0  0  0  0  0  0  0  0  0  0  0
  150.1874  144.5895  160.5549 H   0  0  0  0  0  0  0  0  0  0  0  0
  150.2274  145.6092  159.1220 H   0  0  0  0  0  0  0  0  0  0  0  0
  148.7906  141.0066  152.9967 H   0  0  0  0  0  0  0  0  0  0  0  0
  147.2436  140.6328  152.2843 H   0  0  0  0  0  0  0  0  0  0  0  0
  147.1319  142.8474  153.3327 H   0  0  0  0  0  0  0  0  0  0  0  0
  147.6822  142.2158  154.8701 H   0  0  0  0  0  0  0  0  0  0  0  0
  145.2129  141.4621  153.4952 H   0  0  0  0  0  0  0  0  0  0  0  0
  1  2  1  0  0  0  0
  1 21  1  0  0  0  0
  1 22  1  0  0  0  0
  1 23  1  0  0  0  0
  2 20  1  0  0  0  0
  2  3  1  0  0  0  0
  2 46  1  0  0  0  0
  3  4  1  0  0  0  0
  3 24  1  0  0  0  0
  3 25  1  0  0  0  0
  4  5  1  0  0  0  0
  4 26  1  0  0  0  0
  4 27  1  0  0  0  0
  5  6  1  0  0  0  0
  5 19  1  0  0  0  0
  5 28  1  0  0  0  0
  6  7  1  0  0  0  0
  6 29  1  0  0  0  0
  7  8  2  0  0  0  0
  7  9  1  0  0  0  0
  9 10  1  0  0  0  0
  9 30  1  0  0  0  0
  9 31  1  0  0  0  0
 10 18  1  0  0  0  0
 10 11  2  0  0  0  0
 11 12  1  0  0  0  0
 11 32  1  0  0  0  0
 12 13  1  0  0  0  0
 13 14  1  0  0  0  0
 13 18  2  0  0  0  0
 14 15  1  0  0  0  0
 14 16  1  0  0  0  0
 14 17  1  0  0  0  0
 15 33  1  0  0  0  0
 15 34  1  0  0  0  0
 15 35  1  0  0  0  0
 16 36  1  0  0  0  0
 16 37  1  0  0  0  0
 16 38  1  0  0  0  0
 17 39  1  0  0  0  0
 17 40  1  0  0  0  0
 17 41  1  0  0  0  0
 19 20  1  0  0  0  0
 19 42  1  0  0  0  0
 19 43  1  0  0  0  0
 20 44  1  0  0  0  0
 20 45  1  0  0  0  0
M  CHG  1   2   1
M  END
> <s_m_source_file>
AV-unprocessed.smi

> <i_m_source_file_index>
1125

> <i_lp_mmshare_version>
43012

> <i_f3d_flags>
0

> <s_epik_input>
W0NIM11OMVtDSDJdW0NIMl1bQ0hdKFtDSDJdW0NIMl0xKVtOSF1DKD1PKVtDSDJdYzJbY0hdc2MobjIpQyhbQ0gzXSkoW0NIM10pW0NIM10=

> <s_epik_cmdline>
J2VwaWtfcHl0aG9uJywgJy1waCcsICc3LjAnLCAnLXRuJywgJzgnLCAnLW1hJywgJzIwMCcsICctbWV0YWxfYmluZGluZycsICctaW1hZScsICc8aW5maWxlLm1hZT4nLCAnLW9tYWUnLCAnPG91dGZpbGUubWFlPic=

> <r_epik_Ionization_Penalty>
0.00829478

> <r_epik_Ionization_Penalty_Charging>
0.0082618

> <r_epik_Ionization_Penalty_Neutral>
3.29858e-05

> <r_epik_State_Penalty>
0.00621662

> <r_epik_Charging_Adjusted_Penalty>
0.0144784

> <i_epik_Tot_Q>
1

> <i_epik_Tot_abs_Q>
1

> <r_epik_Metal_State_Penalty>
0.00621672

> <b_epik_Metal_Only>
0

> <s_lp_Force_Field>
OPLS_2005

> <r_lp_Energy>
6.26884

> <b_lp_Chiralities_Consistent>
1

> <s_lp_Variant>
AV-unprocessed.smi:1125-2

> <Gold.Version>
5.8.1

> <Gold.Id.Protein>
6NUR|6NUR_protein|mol2

> <Gold.PLP.Fitness>
45.0083

> <Gold.PLP.PLP>
-36.4232

> <Gold.PLP.part.hbond>
-2.0000

> <Gold.PLP.part.metal>
0.0000

> <Gold.PLP.part.buried>
-3.8563

> <Gold.PLP.part.nonpolar>
-31.5960

> <Gold.PLP.part.repulsive>
0.5552

> <Gold.PLP.ligand.clash>
0.0000

> <Gold.PLP.ligand.torsion>
0.2159

> <Gold.PLP.Chemscore.Hbond>
3.0000

> <Gold.PLP.Chemscore.CHOScore>
0.0000

> <Gold.PLP.Chemscore.Metal>
0.0000

> <Gold.Chemscore.Hbonds>
donor molecule, donor type, donor heavy atom, donor atom, acceptor molecule, acceptor atom, score
      L1  H     2    46       P1 10175  1.55
      P1  H  7989  7998       L1     8  1.00

> <Gold.PLP.Chemscore.Internal.Correction>
0.0170

> <Gold.Rescore>
     Score         DG    S(hbond)    S(metal)    S(lipo)     H(rot)  DE(clash)    DE(int)     intcor
     19.58     -19.81       1.96        0.00      97.28       1.40       0.03       0.20       ----

> <Gold.Chemscore.Fitness>
19.5802

> <Gold.Chemscore.DG>
-19.8139

> <Gold.Chemscore.ZeroCoef>
-5.4800

> <Gold.Chemscore.Hbond>
1.9593

> <Gold.Chemscore.Metal>
0.0000

> <Gold.Chemscore.Lipo>
97.2773

> <Gold.Chemscore.Internal_Hbond>
0.0000

> <Gold.Chemscore.DEClash>
0.0319

> <Gold.Chemscore.DEInternal>
0.2017

> <Gold.Chemscore.Rot>
1.4030

> <Gold.Chemscore.Internal.Correction>
   9.000000E+99

> <Gold.Chemscore.Hbonds>
donor molecule, donor type, donor heavy atom, donor atom, acceptor molecule, acceptor atom, score
      L1  H     2    46       P1 10175  0.12
      P1  H  7989  7998       L1     8  0.99

> <Gold.Chemscore.Hbond.Weighted>
-6.5442

> <Gold.Chemscore.Metal.Weighted>
-0.0000

> <Gold.Chemscore.Lipo.Weighted>
-11.3814

> <Gold.Chemscore.Internal_Hbond.Weighted>
0.0000

> <Gold.Chemscore.DEClash.Weighted>
0.0319

> <Gold.Chemscore.DEInternal.Weighted>
0.2017

> <Gold.Chemscore.Rot.Weighted>
3.5917

> <Gold.Chemscore.Internal.Correction.Weighted>
   9.000000E+99

> <Gold.Protein.RotatedTorsions>
[ 6907 6896 6895 6894 ] final   72.08 input  -60.11 | X-H torsion
[ 7974 7965 7964 7962 ] final   32.38 input  175.53 | X-H torsion
[ 8008 7997 7996 7995 ] final   79.01 input   59.86 | X-H torsion
[ 10167 10162 10161 10158 ] final  158.01 input  -65.29 | X-H torsion
[ 10718 10713 10712 10709 ] final  122.23 input   66.30 | X-H torsion
[ 10763 10752 10751 10750 ] final -177.30 input  -60.55 | X-H torsion
[ 11005 11000 10999 10996 ] final    1.19 input  -57.11 | X-H torsion

> <Gold.Protein.ActiveResidues>
 VAL166  LYS551  ARG553  GLY616  TRP617  ASP618  TYR619  PRO620  LYS621  CYS622 
 ASP623  PHE694  ASN695  SER759  ASP760  ASP761  ALA762  ILE779  LEU786  VAL792 
 PHE793  MET794  SER795  GLU796  ALA797  LYS798  CYS799  TRP800  GLU811  SER814 

> <Gold.Protein.RotatedAtoms>
  152.4847  134.4624  159.9609 H   0  0  0  0  0  0  0  0  0  0  0  0  # atno 6907 bound_to 6896
  151.4623  133.3584  159.2819 H   0  0  0  0  0  0  0  0  0  0  0  0  # atno 6908 bound_to 6896
  150.8948  134.8381  159.7379 H   0  0  0  0  0  0  0  0  0  0  0  0  # atno 6909 bound_to 6896
  146.1490  139.6533  142.9112 H   0  0  0  0  0  0  0  0  0  0  0  0  # atno 7974 bound_to 7965
  155.8637  140.3452  155.5774 H   0  0  0  0  0  0  0  0  0  0  0  0  # atno 8008 bound_to 7997
  155.7905  140.0871  157.2031 H   0  0  0  0  0  0  0  0  0  0  0  0  # atno 8009 bound_to 7997
  154.4013  140.1484  156.3144 H   0  0  0  0  0  0  0  0  0  0  0  0  # atno 8010 bound_to 7997
  139.4825  144.4864  151.8371 H   0  0  0  0  0  0  0  0  0  0  0  0  # atno 10167 bound_to 10162
  157.5758  131.1079  150.8282 H   0  0  0  0  0  0  0  0  0  0  0  0  # atno 10718 bound_to 10713
  154.5618  135.2821  155.0911 H   0  0  0  0  0  0  0  0  0  0  0  0  # atno 10763 bound_to 10752
  154.2317  135.6373  153.5181 H   0  0  0  0  0  0  0  0  0  0  0  0  # atno 10764 bound_to 10752
  153.0031  135.5539  154.6215 H   0  0  0  0  0  0  0  0  0  0  0  0  # atno 10765 bound_to 10752
  140.6182  133.9686  155.8211 H   0  0  0  0  0  0  0  0  0  0  0  0  # atno 11005 bound_to 11000
  145.4869  141.0438  143.2614 LP  0  0  0  0  0  0  0  0  0  0  0  0  # atno 17320 bound_to 7965
  144.7880  139.6386  143.7125 LP  0  0  0  0  0  0  0  0  0  0  0  0  # atno 17321 bound_to 7965
  140.4345  144.2071  150.5889 LP  0  0  0  0  0  0  0  0  0  0  0  0  # atno 17342 bound_to 10162
  140.4746  143.2400  151.9041 LP  0  0  0  0  0  0  0  0  0  0  0  0  # atno 17343 bound_to 10162
  156.8741  130.5156  149.5295 LP  0  0  0  0  0  0  0  0  0  0  0  0  # atno 17370 bound_to 10713
  156.0803  130.5815  150.9550 LP  0  0  0  0  0  0  0  0  0  0  0  0  # atno 17371 bound_to 10713
  141.0761  134.0133  157.3456 LP  0  0  0  0  0  0  0  0  0  0  0  0  # atno 17394 bound_to 11000
  139.9164  135.0197  156.7898 LP  0  0  0  0  0  0  0  0  0  0  0  0  # atno 17395 bound_to 11000

$$$$
