AV-unprocessed.smi:2482|AV-procd|sdf|9782|dock3
  -GOLD-   2272013423D 1   1.00000     0.00000
 Structure written by MMmdl.
 34 35  0  0  0  0  0  0  0  0  3 V2000
  153.1991  142.7391  162.3981 C   0  0  0  0  0  0  0  0  0  0  0  0
  152.8106  142.6805  160.9324 C   0  0  0  0  0  0  0  0  0  0  0  0
  152.2233  143.7929  160.4408 N   0  0  0  0  0  0  0  0  0  0  0  0
  151.8633  143.7910  159.1422 C   0  0  0  0  0  0  0  0  0  0  0  0
  152.0671  142.6930  158.2854 C   0  0  0  0  0  0  0  0  0  0  0  0
  152.6731  141.5198  158.7874 C   0  0  0  0  0  0  0  0  0  0  0  0
  152.8796  140.4667  157.9795 N   0  5  0  0  0  0  0  0  0  0  0  0
  151.8335  139.8886  157.3409 C   0  0  0  0  0  0  0  0  0  0  0  0
  150.7028  139.6588  157.7751 O   0  0  0  0  0  0  0  0  0  0  0  0
  152.2006  139.5007  155.8907 C   0  0  1  0  0  0  0  0  0  0  0  0
  152.1317  137.9831  155.5970 C   0  0  0  0  0  0  0  0  0  0  0  0
  150.7287  137.5049  155.5845 N   0  3  2  0  0  0  0  0  0  0  0  0
  150.6242  136.0455  155.3751 C   0  0  0  0  0  0  0  0  0  0  0  0
  149.9157  138.2827  154.6226 C   0  0  0  0  0  0  0  0  0  0  0  0
  150.0071  139.7844  154.9385 C   0  0  0  0  0  0  0  0  0  0  0  0
  151.3751  140.1904  154.9438 O   0  0  0  0  0  0  0  0  0  0  0  0
  153.0591  141.5252  160.1531 C   0  0  0  0  0  0  0  0  0  0  0  0
  153.8242  140.1419  160.8658 Cl  0  0  0  0  0  0  0  0  0  0  0  0
  152.6794  141.9621  162.9591 H   0  0  0  0  0  0  0  0  0  0  0  0
  152.9459  143.7024  162.8425 H   0  0  0  0  0  0  0  0  0  0  0  0
  154.2728  142.5879  162.5118 H   0  0  0  0  0  0  0  0  0  0  0  0
  151.3984  144.6931  158.7728 H   0  0  0  0  0  0  0  0  0  0  0  0
  151.7579  142.7527  157.2520 H   0  0  0  0  0  0  0  0  0  0  0  0
  153.2281  139.8281  155.7247 H   0  0  0  0  0  0  0  0  0  0  0  0
  152.5913  137.7769  154.6293 H   0  0  0  0  0  0  0  0  0  0  0  0
  152.7070  137.4257  156.3381 H   0  0  0  0  0  0  0  0  0  0  0  0
  151.0174  135.7603  154.3986 H   0  0  0  0  0  0  0  0  0  0  0  0
  149.5845  135.7227  155.4343 H   0  0  0  0  0  0  0  0  0  0  0  0
  151.1842  135.5073  156.1406 H   0  0  0  0  0  0  0  0  0  0  0  0
  150.2679  138.0926  153.6075 H   0  0  0  0  0  0  0  0  0  0  0  0
  148.8757  137.9573  154.6685 H   0  0  0  0  0  0  0  0  0  0  0  0
  149.4777  140.3577  154.1775 H   0  0  0  0  0  0  0  0  0  0  0  0
  149.5235  140.0132  155.8890 H   0  0  0  0  0  0  0  0  0  0  0  0
  150.3541  137.6959  156.5036 H   0  0  0  0  0  0  0  0  0  0  0  0
  1  2  1  0  0  0  0
  1 19  1  0  0  0  0
  1 20  1  0  0  0  0
  1 21  1  0  0  0  0
  2 17  1  0  0  0  0
  2  3  2  0  0  0  0
  3  4  1  0  0  0  0
  4  5  2  0  0  0  0
  4 22  1  0  0  0  0
  5  6  1  0  0  0  0
  5 23  1  0  0  0  0
  6  7  1  0  0  0  0
  6 17  2  0  0  0  0
  7  8  1  0  0  0  0
  8  9  2  0  0  0  0
  8 10  1  0  0  0  0
 10 16  1  0  0  0  0
 10 11  1  0  0  0  0
 10 24  1  0  0  0  0
 11 12  1  0  0  0  0
 11 25  1  0  0  0  0
 11 26  1  0  0  0  0
 12 13  1  0  0  0  0
 12 14  1  0  0  0  0
 12 34  1  0  0  0  0
 13 27  1  0  0  0  0
 13 28  1  0  0  0  0
 13 29  1  0  0  0  0
 14 15  1  0  0  0  0
 14 30  1  0  0  0  0
 14 31  1  0  0  0  0
 15 16  1  0  0  0  0
 15 32  1  0  0  0  0
 15 33  1  0  0  0  0
 17 18  1  0  0  0  0
M  CHG  1   7  -1
M  CHG  1  12   1
M  END
> <s_m_source_file>
AV-unprocessed.smi

> <i_m_source_file_index>
2482

> <i_lp_mmshare_version>
43012

> <i_f3d_flags>
0

> <s_epik_input>
W0NIM11jMW5bY0hdW2NIXWMoYzFDbClbTkhdQyg9TylbQ0BASF0yW0NIMl1OKFtDSDNdKVtDSDJdW0NIMl1PMg==

> <s_epik_cmdline>
J2VwaWtfcHl0aG9uJywgJy1waCcsICc3LjAnLCAnLXRuJywgJzgnLCAnLW1hJywgJzIwMCcsICctbWV0YWxfYmluZGluZycsICctaW1hZScsICc8aW5maWxlLm1hZT4nLCAnLW9tYWUnLCAnPG91dGZpbGUubWFlPic=

> <r_epik_Ionization_Penalty>
6.9249

> <r_epik_Ionization_Penalty_Charging>
6.74596

> <r_epik_Ionization_Penalty_Neutral>
0.178941

> <r_epik_State_Penalty>
6.78185

> <r_epik_Charging_Adjusted_Penalty>
13.5278

> <i_epik_Tot_Q>
0

> <i_epik_Tot_abs_Q>
2

> <r_epik_Metal_State_Penalty>
2.70608

> <b_epik_Metal_Only>
1

> <s_lp_Force_Field>
OPLS_2005

> <r_lp_Energy>
12.3896

> <b_lp_Chiralities_Consistent>
1

> <s_lp_Variant>
AV-unprocessed.smi:2482-8

> <Gold.Version>
5.8.1

> <Gold.Id.Protein>
6NUR|6NUR_protein|mol2

> <Gold.PLP.Fitness>
43.5775

> <Gold.PLP.PLP>
-36.7121

> <Gold.PLP.part.hbond>
-2.0000

> <Gold.PLP.part.metal>
0.0000

> <Gold.PLP.part.buried>
-3.7552

> <Gold.PLP.part.nonpolar>
-31.2560

> <Gold.PLP.part.repulsive>
0.1718

> <Gold.PLP.ligand.clash>
0.0000

> <Gold.PLP.ligand.torsion>
0.8561

> <Gold.PLP.Chemscore.Hbond>
2.6960

> <Gold.PLP.Chemscore.CHOScore>
0.0000

> <Gold.PLP.Chemscore.Metal>
0.0000

> <Gold.Chemscore.Hbonds>
donor molecule, donor type, donor heavy atom, donor atom, acceptor molecule, acceptor atom, score
      P1  H  7989  7998       L1    16  1.00
      P1  H  7997  8008       L1     7  1.66

> <Gold.PLP.Chemscore.Internal.Correction>
0.4896

> <Gold.Rescore>
     Score         DG    S(hbond)    S(metal)    S(lipo)     H(rot)  DE(clash)    DE(int)     intcor
     18.65     -20.77       1.76        0.00     102.33       1.00       0.04       2.08       ----

> <Gold.Chemscore.Fitness>
18.6480

> <Gold.Chemscore.DG>
-20.7737

> <Gold.Chemscore.ZeroCoef>
-5.4800

> <Gold.Chemscore.Hbond>
1.7609

> <Gold.Chemscore.Metal>
0.0000

> <Gold.Chemscore.Lipo>
102.3272

> <Gold.Chemscore.Internal_Hbond>
0.0000

> <Gold.Chemscore.DEClash>
0.0440

> <Gold.Chemscore.DEInternal>
2.0817

> <Gold.Chemscore.Rot>
1.0000

> <Gold.Chemscore.Internal.Correction>
   9.000000E+99

> <Gold.Chemscore.Hbonds>
donor molecule, donor type, donor heavy atom, donor atom, acceptor molecule, acceptor atom, score
      P1  H  7989  7998       L1    16  0.54
      P1  H  7997  8008       L1     7  0.45

> <Gold.Chemscore.Hbond.Weighted>
-5.8814

> <Gold.Chemscore.Metal.Weighted>
-0.0000

> <Gold.Chemscore.Lipo.Weighted>
-11.9723

> <Gold.Chemscore.Internal_Hbond.Weighted>
0.0000

> <Gold.Chemscore.DEClash.Weighted>
0.0440

> <Gold.Chemscore.DEInternal.Weighted>
2.0817

> <Gold.Chemscore.Rot.Weighted>
2.5600

> <Gold.Chemscore.Internal.Correction.Weighted>
   9.000000E+99

> <Gold.Protein.RotatedTorsions>
[ 6907 6896 6895 6894 ] final  158.25 input  -60.11 | X-H torsion
[ 7974 7965 7964 7962 ] final -111.21 input  175.53 | X-H torsion
[ 8008 7997 7996 7995 ] final  -73.41 input   59.86 | X-H torsion
[ 10167 10162 10161 10158 ] final  104.79 input  -65.29 | X-H torsion
[ 10718 10713 10712 10709 ] final    7.21 input   66.30 | X-H torsion
[ 10763 10752 10751 10750 ] final -126.65 input  -60.55 | X-H torsion
[ 11005 11000 10999 10996 ] final    0.76 input  -57.11 | X-H torsion

> <Gold.Protein.ActiveResidues>
 VAL166  LYS551  ARG553  GLY616  TRP617  ASP618  TYR619  PRO620  LYS621  CYS622 
 ASP623  PHE694  ASN695  SER759  ASP760  ASP761  ALA762  ILE779  LEU786  VAL792 
 PHE793  MET794  SER795  GLU796  ALA797  LYS798  CYS799  TRP800  GLU811  SER814 

> <Gold.Protein.RotatedAtoms>
  152.0031  133.3833  159.4189 H   0  0  0  0  0  0  0  0  0  0  0  0  # atno 6907 bound_to 6896
  150.6908  134.3812  159.5044 H   0  0  0  0  0  0  0  0  0  0  0  0  # atno 6908 bound_to 6896
  152.1562  134.8948  160.0595 H   0  0  0  0  0  0  0  0  0  0  0  0  # atno 6909 bound_to 6896
  145.1589  140.8868  143.3603 H   0  0  0  0  0  0  0  0  0  0  0  0  # atno 7974 bound_to 7965
  154.5245  140.0779  156.8233 H   0  0  0  0  0  0  0  0  0  0  0  0  # atno 8008 bound_to 7997
  155.3505  140.3412  155.4221 H   0  0  0  0  0  0  0  0  0  0  0  0  # atno 8009 bound_to 7997
  156.1717  140.1622  156.8423 H   0  0  0  0  0  0  0  0  0  0  0  0  # atno 8010 bound_to 7997
  139.7148  144.7070  151.0969 H   0  0  0  0  0  0  0  0  0  0  0  0  # atno 10167 bound_to 10162
  156.9335  130.5835  149.5650 H   0  0  0  0  0  0  0  0  0  0  0  0  # atno 10718 bound_to 10713
  154.8747  135.3988  154.3466 H   0  0  0  0  0  0  0  0  0  0  0  0  # atno 10763 bound_to 10752
  153.4257  135.7024  153.6269 H   0  0  0  0  0  0  0  0  0  0  0  0  # atno 10764 bound_to 10752
  153.4912  135.3748  155.2462 H   0  0  0  0  0  0  0  0  0  0  0  0  # atno 10765 bound_to 10752
  140.6230  133.9644  155.8235 H   0  0  0  0  0  0  0  0  0  0  0  0  # atno 11005 bound_to 11000
  145.0352  139.3306  143.6004 LP  0  0  0  0  0  0  0  0  0  0  0  0  # atno 17320 bound_to 7965
  146.3485  139.9705  142.8707 LP  0  0  0  0  0  0  0  0  0  0  0  0  # atno 17321 bound_to 7965
  140.7741  143.5245  150.9497 LP  0  0  0  0  0  0  0  0  0  0  0  0  # atno 17342 bound_to 10162
  139.8931  143.6929  152.3142 LP  0  0  0  0  0  0  0  0  0  0  0  0  # atno 17343 bound_to 10162
  156.0436  130.5515  150.8829 LP  0  0  0  0  0  0  0  0  0  0  0  0  # atno 17370 bound_to 10713
  157.5831  131.0946  150.9239 LP  0  0  0  0  0  0  0  0  0  0  0  0  # atno 17371 bound_to 10713
  141.0729  134.0179  157.3500 LP  0  0  0  0  0  0  0  0  0  0  0  0  # atno 17394 bound_to 11000
  139.9146  135.0195  156.7828 LP  0  0  0  0  0  0  0  0  0  0  0  0  # atno 17395 bound_to 11000

$$$$
