AV-unprocessed.smi:1422|AV-procd|sdf|5792|dock7
  -GOLD-   22720 5443D 1   1.00000     0.00000
 Structure written by MMmdl.
 31 32  0  0  0  0  0  0  0  0  1 V2000
  144.6649  131.4781  150.8384 C   0  0  0  0  0  0  0  0  0  0  0  0
  144.8573  132.9039  151.2268 C   0  0  0  0  0  0  0  0  0  0  0  0
  145.9659  133.6942  151.3445 C   0  0  0  0  0  0  0  0  0  0  0  0
  145.4267  134.9416  151.7575 C   0  0  0  0  0  0  0  0  0  0  0  0
  146.2717  136.0548  151.9978 N   0  0  0  0  0  0  0  0  0  0  0  0
  145.9164  137.2731  152.4404 C   0  0  0  0  0  0  0  0  0  0  0  0
  144.7661  137.6231  152.7061 O   0  0  0  0  0  0  0  0  0  0  0  0
  146.9826  138.0781  152.5566 N   0  0  0  0  0  0  0  0  0  0  0  0
  146.9510  139.4674  153.0035 C   0  0  0  0  0  0  0  0  0  0  0  0
  148.0456  139.7571  154.0474 C   0  0  2  0  0  0  0  0  0  0  0  0
  148.2727  141.2325  154.3041 C   0  0  0  0  0  0  0  0  0  0  0  0
  149.6407  141.2266  154.9795 C   0  0  0  0  0  0  0  0  0  0  0  0
  150.3452  140.1222  154.4193 O   0  0  0  0  0  0  0  0  0  0  0  0
  149.4566  139.3131  153.6543 C   0  0  0  0  0  0  0  0  0  0  0  0
  144.1084  134.9155  151.8791 N   0  0  0  0  0  0  0  0  0  0  0  0
  143.7367  133.6091  151.5404 O   0  0  0  0  0  0  0  0  0  0  0  0
  145.5661  131.0754  150.3760 H   0  0  0  0  0  0  0  0  0  0  0  0
  143.8460  131.3770  150.1260 H   0  0  0  0  0  0  0  0  0  0  0  0
  144.4313  130.8690  151.7118 H   0  0  0  0  0  0  0  0  0  0  0  0
  146.9949  133.4206  151.1646 H   0  0  0  0  0  0  0  0  0  0  0  0
  147.2531  135.9063  151.8157 H   0  0  0  0  0  0  0  0  0  0  0  0
  147.8880  137.7024  152.3152 H   0  0  0  0  0  0  0  0  0  0  0  0
  147.0322  140.1526  152.1578 H   0  0  0  0  0  0  0  0  0  0  0  0
  145.9713  139.6479  153.4465 H   0  0  0  0  0  0  0  0  0  0  0  0
  147.7793  139.2816  154.9931 H   0  0  0  0  0  0  0  0  0  0  0  0
  148.3238  141.7805  153.3618 H   0  0  0  0  0  0  0  0  0  0  0  0
  147.4966  141.6862  154.9212 H   0  0  0  0  0  0  0  0  0  0  0  0
  150.1822  142.1614  154.8336 H   0  0  0  0  0  0  0  0  0  0  0  0
  149.5344  141.0603  156.0521 H   0  0  0  0  0  0  0  0  0  0  0  0
  149.6278  138.2522  153.8384 H   0  0  0  0  0  0  0  0  0  0  0  0
  149.6425  139.5068  152.5971 H   0  0  0  0  0  0  0  0  0  0  0  0
  1  2  1  0  0  0  0
  1 17  1  0  0  0  0
  1 18  1  0  0  0  0
  1 19  1  0  0  0  0
  2 16  1  0  0  0  0
  2  3  2  0  0  0  0
  3  4  1  0  0  0  0
  3 20  1  0  0  0  0
  4  5  1  0  0  0  0
  4 15  2  0  0  0  0
  5  6  1  0  0  0  0
  5 21  1  0  0  0  0
  6  7  2  0  0  0  0
  6  8  1  0  0  0  0
  8  9  1  0  0  0  0
  8 22  1  0  0  0  0
  9 10  1  0  0  0  0
  9 23  1  0  0  0  0
  9 24  1  0  0  0  0
 10 14  1  0  0  0  0
 10 11  1  0  0  0  0
 10 25  1  0  0  0  0
 11 12  1  0  0  0  0
 11 26  1  0  0  0  0
 11 27  1  0  0  0  0
 12 13  1  0  0  0  0
 12 28  1  0  0  0  0
 12 29  1  0  0  0  0
 13 14  1  0  0  0  0
 14 30  1  0  0  0  0
 14 31  1  0  0  0  0
 15 16  1  0  0  0  0
M  END
> <s_m_source_file>
AV-unprocessed.smi

> <i_m_source_file_index>
1422

> <i_lp_mmshare_version>
43012

> <i_f3d_flags>
0

> <s_epik_input>
W0NIM11jMVtjSF1jKG5vMSlbTkhdQyg9TylbTkhdW0NIMl1bQ0BASF0yW0NIMl1bQ0gyXU9bQ0gyXTI=

> <s_epik_cmdline>
J2VwaWtfcHl0aG9uJywgJy1waCcsICc3LjAnLCAnLXRuJywgJzgnLCAnLW1hJywgJzIwMCcsICctbWV0YWxfYmluZGluZycsICctaW1hZScsICc8aW5maWxlLm1hZT4nLCAnLW9tYWUnLCAnPG91dGZpbGUubWFlPic=

> <r_lp_tautomer_probability>
1

> <r_epik_Ionization_Penalty>
2.27275e-05

> <r_epik_Ionization_Penalty_Charging>
0

> <r_epik_Ionization_Penalty_Neutral>
2.27275e-05

> <r_epik_State_Penalty>
-0

> <r_epik_Charging_Adjusted_Penalty>
0

> <i_epik_Tot_Q>
0

> <i_epik_Tot_abs_Q>
0

> <r_epik_Metal_State_Penalty>
-0

> <b_epik_Metal_Only>
0

> <s_lp_Force_Field>
OPLS_2005

> <r_lp_Energy>
16.1313

> <b_lp_Chiralities_Consistent>
1

> <s_lp_Variant>
AV-unprocessed.smi:1422-1

> <Gold.Version>
5.8.1

> <Gold.Id.Protein>
6NUR|6NUR_protein|mol2

> <Gold.PLP.Fitness>
33.9638

> <Gold.PLP.PLP>
-25.2577

> <Gold.PLP.part.hbond>
-3.0000

> <Gold.PLP.part.metal>
0.0000

> <Gold.PLP.part.buried>
-1.9684

> <Gold.PLP.part.nonpolar>
-22.2903

> <Gold.PLP.part.repulsive>
1.4587

> <Gold.PLP.ligand.clash>
0.0000

> <Gold.PLP.ligand.torsion>
0.1497

> <Gold.PLP.Chemscore.Hbond>
3.0000

> <Gold.PLP.Chemscore.CHOScore>
0.0000

> <Gold.PLP.Chemscore.Metal>
0.0000

> <Gold.Chemscore.Hbonds>
donor molecule, donor type, donor heavy atom, donor atom, acceptor molecule, acceptor atom, score
      L1  H     5    21       P1  7948  1.00
      L1  H     8    22       P1  7948  1.00
      P1  H  7989  7998       L1    13  1.00

> <Gold.PLP.Chemscore.Internal.Correction>
0.0055

> <Gold.Rescore>
     Score         DG    S(hbond)    S(metal)    S(lipo)     H(rot)  DE(clash)    DE(int)     intcor
     14.97     -17.99       2.71        0.00      57.78       1.30       1.65       1.37       ----

> <Gold.Chemscore.Fitness>
14.9750

> <Gold.Chemscore.DG>
-17.9884

> <Gold.Chemscore.ZeroCoef>
-5.4800

> <Gold.Chemscore.Hbond>
2.7149

> <Gold.Chemscore.Metal>
0.0000

> <Gold.Chemscore.Lipo>
57.7775

> <Gold.Chemscore.Internal_Hbond>
0.0000

> <Gold.Chemscore.DEClash>
1.6475

> <Gold.Chemscore.DEInternal>
1.3660

> <Gold.Chemscore.Rot>
1.2965

> <Gold.Chemscore.Internal.Correction>
   9.000000E+99

> <Gold.Chemscore.Hbonds>
donor molecule, donor type, donor heavy atom, donor atom, acceptor molecule, acceptor atom, score
      L1  H     5    21       P1  7948  0.99
      L1  H     8    22       P1  7948  0.94
      P1  H  7989  7998       L1    13  0.39

> <Gold.Chemscore.Hbond.Weighted>
-9.0676

> <Gold.Chemscore.Metal.Weighted>
-0.0000

> <Gold.Chemscore.Lipo.Weighted>
-6.7600

> <Gold.Chemscore.Internal_Hbond.Weighted>
0.0000

> <Gold.Chemscore.DEClash.Weighted>
1.6475

> <Gold.Chemscore.DEInternal.Weighted>
1.3660

> <Gold.Chemscore.Rot.Weighted>
3.3192

> <Gold.Chemscore.Internal.Correction.Weighted>
   9.000000E+99

> <Gold.Protein.RotatedTorsions>
[ 6907 6896 6895 6894 ] final  150.63 input  -60.11 | X-H torsion
[ 7974 7965 7964 7962 ] final   44.31 input  175.53 | X-H torsion
[ 8008 7997 7996 7995 ] final -121.59 input   59.86 | X-H torsion
[ 10167 10162 10161 10158 ] final    8.69 input  -65.29 | X-H torsion
[ 10718 10713 10712 10709 ] final -141.37 input   66.30 | X-H torsion
[ 10763 10752 10751 10750 ] final -140.75 input  -60.55 | X-H torsion
[ 11005 11000 10999 10996 ] final -103.38 input  -57.11 | X-H torsion

> <Gold.Protein.ActiveResidues>
 VAL166  LYS551  ARG553  GLY616  TRP617  ASP618  TYR619  PRO620  LYS621  CYS622 
 ASP623  PHE694  ASN695  SER759  ASP760  ASP761  ALA762  ILE779  LEU786  VAL792 
 PHE793  MET794  SER795  GLU796  ALA797  LYS798  CYS799  TRP800  GLU811  SER814 

> <Gold.Protein.RotatedAtoms>
  152.1117  133.4304  159.4633 H   0  0  0  0  0  0  0  0  0  0  0  0  # atno 6907 bound_to 6896
  150.6867  134.2640  159.4570 H   0  0  0  0  0  0  0  0  0  0  0  0  # atno 6908 bound_to 6896
  152.0509  134.9654  160.0625 H   0  0  0  0  0  0  0  0  0  0  0  0  # atno 6909 bound_to 6896
  146.0579  139.5088  142.9677 H   0  0  0  0  0  0  0  0  0  0  0  0  # atno 7974 bound_to 7965
  155.1504  140.0403  157.2820 H   0  0  0  0  0  0  0  0  0  0  0  0  # atno 8008 bound_to 7997
  154.6408  140.2546  155.7298 H   0  0  0  0  0  0  0  0  0  0  0  0  # atno 8009 bound_to 7997
  156.2531  140.2856  156.0801 H   0  0  0  0  0  0  0  0  0  0  0  0  # atno 8010 bound_to 7997
  140.6299  143.8016  150.7282 H   0  0  0  0  0  0  0  0  0  0  0  0  # atno 10167 bound_to 10162
  156.3332  130.7597  151.1719 H   0  0  0  0  0  0  0  0  0  0  0  0  # atno 10718 bound_to 10713
  154.8568  135.3544  154.5758 H   0  0  0  0  0  0  0  0  0  0  0  0  # atno 10763 bound_to 10752
  153.6370  135.7000  153.5260 H   0  0  0  0  0  0  0  0  0  0  0  0  # atno 10764 bound_to 10752
  153.3003  135.4208  155.1205 H   0  0  0  0  0  0  0  0  0  0  0  0  # atno 10765 bound_to 10752
  141.1148  133.8635  157.1478 H   0  0  0  0  0  0  0  0  0  0  0  0  # atno 11005 bound_to 11000
  145.6611  141.0240  143.1708 LP  0  0  0  0  0  0  0  0  0  0  0  0  # atno 17320 bound_to 7965
  144.7158  139.8202  143.7399 LP  0  0  0  0  0  0  0  0  0  0  0  0  # atno 17321 bound_to 7965
  140.1625  143.4263  152.2057 LP  0  0  0  0  0  0  0  0  0  0  0  0  # atno 17342 bound_to 10162
  139.5515  144.7341  151.4421 LP  0  0  0  0  0  0  0  0  0  0  0  0  # atno 17343 bound_to 10162
  157.7434  131.0475  150.4948 LP  0  0  0  0  0  0  0  0  0  0  0  0  # atno 17370 bound_to 10713
  156.5118  130.4141  149.6297 LP  0  0  0  0  0  0  0  0  0  0  0  0  # atno 17371 bound_to 10713
  140.0064  135.0007  157.0301 LP  0  0  0  0  0  0  0  0  0  0  0  0  # atno 17394 bound_to 11000
  140.4675  134.1420  155.7199 LP  0  0  0  0  0  0  0  0  0  0  0  0  # atno 17395 bound_to 11000

$$$$
