AV-unprocessed.smi:1637|AV-procd|sdf|6545|dock2
  -GOLD-   22720 7223D 1   1.00000     0.00000
 Structure written by MMmdl.
 38 39  0  0  0  0  0  0  0  0  1 V2000
  150.4582  141.0360  155.6769 C   0  0  0  0  0  0  0  0  0  0  0  0
  149.3636  141.6632  155.0176 O   0  0  0  0  0  0  0  0  0  0  0  0
  148.5026  140.8745  154.2824 C   0  0  0  0  0  0  0  0  0  0  0  0
  147.4525  141.4966  153.5793 C   0  0  0  0  0  0  0  0  0  0  0  0
  146.5710  140.7004  152.8230 C   0  0  0  0  0  0  0  0  0  0  0  0
  146.7655  139.2980  152.7980 C   0  0  0  0  0  0  0  0  0  0  0  0
  145.9637  138.3759  152.0698 N   0  0  0  0  0  0  0  0  0  0  0  0
  145.8746  137.0398  152.1883 C   0  0  0  0  0  0  0  0  0  0  0  0
  146.5267  136.3427  152.9646 O   0  0  0  0  0  0  0  0  0  0  0  0
  144.9716  136.5420  151.3312 N   0  0  0  0  0  0  0  0  0  0  0  0
  144.6302  135.1272  151.1719 C   0  0  1  0  0  0  0  0  0  0  0  0
  145.8963  134.3109  150.8277 C   0  0  0  0  0  0  0  0  0  0  0  0
  145.6080  132.9755  150.1232 C   0  0  0  0  0  0  0  0  0  0  0  0
  144.7987  131.9683  150.9537 C   0  0  0  0  0  0  0  0  0  0  0  0
  143.3647  132.4327  151.2609 C   0  0  0  0  0  0  0  0  0  0  0  0
  143.3093  133.3877  152.3608 N   0  0  0  0  0  0  0  0  0  0  0  0
  143.8596  134.6106  152.4016 C   0  0  0  0  0  0  0  0  0  0  0  0
  143.7570  135.3081  153.4107 O   0  0  0  0  0  0  0  0  0  0  0  0
  147.8494  138.7758  153.5343 C   0  0  0  0  0  0  0  0  0  0  0  0
  148.6984  139.5332  154.2600 N   0  0  0  0  0  0  0  0  0  0  0  0
  151.0361  141.7892  156.2118 H   0  0  0  0  0  0  0  0  0  0  0  0
  151.1266  140.5501  154.9647 H   0  0  0  0  0  0  0  0  0  0  0  0
  150.1170  140.3010  156.4072 H   0  0  0  0  0  0  0  0  0  0  0  0
  147.3272  142.5688  153.6158 H   0  0  0  0  0  0  0  0  0  0  0  0
  145.7786  141.1884  152.2789 H   0  0  0  0  0  0  0  0  0  0  0  0
  145.3872  138.7891  151.3514 H   0  0  0  0  0  0  0  0  0  0  0  0
  144.4892  137.1875  150.7228 H   0  0  0  0  0  0  0  0  0  0  0  0
  143.9382  135.0612  150.3301 H   0  0  0  0  0  0  0  0  0  0  0  0
  146.5361  134.8936  150.1636 H   0  0  0  0  0  0  0  0  0  0  0  0
  146.4879  134.1389  151.7281 H   0  0  0  0  0  0  0  0  0  0  0  0
  145.0942  133.1660  149.1801 H   0  0  0  0  0  0  0  0  0  0  0  0
  146.5595  132.5157  149.8540 H   0  0  0  0  0  0  0  0  0  0  0  0
  144.7430  131.0369  150.3892 H   0  0  0  0  0  0  0  0  0  0  0  0
  145.3258  131.7258  151.8774 H   0  0  0  0  0  0  0  0  0  0  0  0
  142.8839  132.8453  150.3728 H   0  0  0  0  0  0  0  0  0  0  0  0
  142.7673  131.5708  151.5585 H   0  0  0  0  0  0  0  0  0  0  0  0
  142.8108  133.0847  153.1851 H   0  0  0  0  0  0  0  0  0  0  0  0
  148.0446  137.7133  153.5424 H   0  0  0  0  0  0  0  0  0  0  0  0
  1  2  1  0  0  0  0
  1 21  1  0  0  0  0
  1 22  1  0  0  0  0
  1 23  1  0  0  0  0
  2  3  1  0  0  0  0
  3 20  1  0  0  0  0
  3  4  2  0  0  0  0
  4  5  1  0  0  0  0
  4 24  1  0  0  0  0
  5  6  2  0  0  0  0
  5 25  1  0  0  0  0
  6  7  1  0  0  0  0
  6 19  1  0  0  0  0
  7  8  1  0  0  0  0
  7 26  1  0  0  0  0
  8  9  2  0  0  0  0
  8 10  1  0  0  0  0
 10 11  1  0  0  0  0
 10 27  1  0  0  0  0
 11 17  1  0  0  0  0
 11 12  1  0  0  0  0
 11 28  1  0  0  0  0
 12 13  1  0  0  0  0
 12 29  1  0  0  0  0
 12 30  1  0  0  0  0
 13 14  1  0  0  0  0
 13 31  1  0  0  0  0
 13 32  1  0  0  0  0
 14 15  1  0  0  0  0
 14 33  1  0  0  0  0
 14 34  1  0  0  0  0
 15 16  1  0  0  0  0
 15 35  1  0  0  0  0
 15 36  1  0  0  0  0
 16 17  1  0  0  0  0
 16 37  1  0  0  0  0
 17 18  2  0  0  0  0
 19 20  2  0  0  0  0
 19 38  1  0  0  0  0
M  END
> <s_m_source_file>
AV-unprocessed.smi

> <i_m_source_file_index>
1637

> <i_lp_mmshare_version>
43012

> <i_f3d_flags>
0

> <s_epik_input>
W0NIM11PYzFbY0hdW2NIXWMoW2NIXW4xKVtOSF1DKD1PKVtOSF1bQ0BASF0yW0NIMl1bQ0gyXVtDSDJdW0NIMl1bTkhdQzI9Tw==

> <s_epik_cmdline>
J2VwaWtfcHl0aG9uJywgJy1waCcsICc3LjAnLCAnLXRuJywgJzgnLCAnLW1hJywgJzIwMCcsICctbWV0YWxfYmluZGluZycsICctaW1hZScsICc8aW5maWxlLm1hZT4nLCAnLW9tYWUnLCAnPG91dGZpbGUubWFlPic=

> <r_lp_tautomer_probability>
1

> <r_epik_Ionization_Penalty>
8.30847e-05

> <r_epik_Ionization_Penalty_Charging>
0

> <r_epik_Ionization_Penalty_Neutral>
8.30847e-05

> <r_epik_State_Penalty>
-0

> <r_epik_Charging_Adjusted_Penalty>
0

> <i_epik_Tot_Q>
0

> <i_epik_Tot_abs_Q>
0

> <r_epik_Metal_State_Penalty>
-0

> <b_epik_Metal_Only>
0

> <s_lp_Force_Field>
OPLS_2005

> <r_lp_Energy>
13.0177

> <b_lp_Chiralities_Consistent>
1

> <s_lp_Variant>
AV-unprocessed.smi:1637-2

> <Gold.Version>
5.8.1

> <Gold.Id.Protein>
6NUR|6NUR_protein|mol2

> <Gold.PLP.Fitness>
41.3217

> <Gold.PLP.PLP>
-30.6746

> <Gold.PLP.part.hbond>
-3.5715

> <Gold.PLP.part.metal>
0.0000

> <Gold.PLP.part.buried>
-2.1224

> <Gold.PLP.part.nonpolar>
-28.4285

> <Gold.PLP.part.repulsive>
3.5841

> <Gold.PLP.ligand.clash>
0.0000

> <Gold.PLP.ligand.torsion>
0.1193

> <Gold.PLP.Chemscore.Hbond>
2.6176

> <Gold.PLP.Chemscore.CHOScore>
1.0000

> <Gold.PLP.Chemscore.Metal>
0.0000

> <Gold.Chemscore.Hbonds>
donor molecule, donor type, donor heavy atom, donor atom, acceptor molecule, acceptor atom, score
      L1  H     7    26       P1 10171  0.68
      L1  H    10    27       P1 10171  1.00
      L1  H    16    37       P1 10957  0.89
      L1  C    19    38       P1  7948  1.00

> <Gold.PLP.Chemscore.Internal.Correction>
0.0329

> <Gold.Rescore>
     Score         DG    S(hbond)    S(metal)    S(lipo)     H(rot)  DE(clash)    DE(int)     intcor
     12.10     -18.19       2.23        0.00      73.70       1.31       1.76       4.32       ----

> <Gold.Chemscore.Fitness>
12.1032

> <Gold.Chemscore.DG>
-18.1854

> <Gold.Chemscore.ZeroCoef>
-5.4800

> <Gold.Chemscore.Hbond>
2.2254

> <Gold.Chemscore.Metal>
0.0000

> <Gold.Chemscore.Lipo>
73.7048

> <Gold.Chemscore.Internal_Hbond>
0.0000

> <Gold.Chemscore.DEClash>
1.7599

> <Gold.Chemscore.DEInternal>
4.3223

> <Gold.Chemscore.Rot>
1.3090

> <Gold.Chemscore.Internal.Correction>
   9.000000E+99

> <Gold.Chemscore.Hbonds>
donor molecule, donor type, donor heavy atom, donor atom, acceptor molecule, acceptor atom, score
      L1  H     7    26       P1 10171  0.66
      L1  H    10    27       P1 10171  1.00
      L1  H    16    37       P1 10957  0.62

> <Gold.Chemscore.Hbond.Weighted>
-7.4329

> <Gold.Chemscore.Metal.Weighted>
-0.0000

> <Gold.Chemscore.Lipo.Weighted>
-8.6235

> <Gold.Chemscore.Internal_Hbond.Weighted>
0.0000

> <Gold.Chemscore.DEClash.Weighted>
1.7599

> <Gold.Chemscore.DEInternal.Weighted>
4.3223

> <Gold.Chemscore.Rot.Weighted>
3.3509

> <Gold.Chemscore.Internal.Correction.Weighted>
   9.000000E+99

> <Gold.Protein.RotatedTorsions>
[ 6907 6896 6895 6894 ] final   15.92 input  -60.11 | X-H torsion
[ 7974 7965 7964 7962 ] final -155.20 input  175.53 | X-H torsion
[ 8008 7997 7996 7995 ] final -131.84 input   59.86 | X-H torsion
[ 10167 10162 10161 10158 ] final  135.90 input  -65.29 | X-H torsion
[ 10718 10713 10712 10709 ] final  175.96 input   66.30 | X-H torsion
[ 10763 10752 10751 10750 ] final -102.14 input  -60.55 | X-H torsion
[ 11005 11000 10999 10996 ] final  -27.08 input  -57.11 | X-H torsion

> <Gold.Protein.ActiveResidues>
 VAL166  LYS551  ARG553  GLY616  TRP617  ASP618  TYR619  PRO620  LYS621  CYS622 
 ASP623  PHE694  ASN695  SER759  ASP760  ASP761  ALA762  ILE779  LEU786  VAL792 
 PHE793  MET794  SER795  GLU796  ALA797  LYS798  CYS799  TRP800  GLU811  SER814 

> <Gold.Protein.RotatedAtoms>
  151.8257  135.0637  160.0430 H   0  0  0  0  0  0  0  0  0  0  0  0  # atno 6907 bound_to 6896
  152.2918  133.5564  159.5570 H   0  0  0  0  0  0  0  0  0  0  0  0  # atno 6908 bound_to 6896
  150.7233  134.0334  159.3783 H   0  0  0  0  0  0  0  0  0  0  0  0  # atno 6909 bound_to 6896
  144.7652  140.4283  143.5947 H   0  0  0  0  0  0  0  0  0  0  0  0  # atno 7974 bound_to 7965
  155.3191  140.0461  157.3038 H   0  0  0  0  0  0  0  0  0  0  0  0  # atno 8008 bound_to 7997
  154.5390  140.2281  155.8639 H   0  0  0  0  0  0  0  0  0  0  0  0  # atno 8009 bound_to 7997
  156.1863  140.3062  155.9251 H   0  0  0  0  0  0  0  0  0  0  0  0  # atno 8010 bound_to 7997
  139.5200  144.6493  151.5349 H   0  0  0  0  0  0  0  0  0  0  0  0  # atno 10167 bound_to 10162
  156.9271  130.9959  151.2994 H   0  0  0  0  0  0  0  0  0  0  0  0  # atno 10718 bound_to 10713
  154.7711  135.4872  153.9651 H   0  0  0  0  0  0  0  0  0  0  0  0  # atno 10763 bound_to 10752
  153.1369  135.6764  153.9096 H   0  0  0  0  0  0  0  0  0  0  0  0  # atno 10764 bound_to 10752
  153.8783  135.3135  155.3423 H   0  0  0  0  0  0  0  0  0  0  0  0  # atno 10765 bound_to 10752
  140.9088  133.7475  156.0642 H   0  0  0  0  0  0  0  0  0  0  0  0  # atno 11005 bound_to 11000
  145.6494  139.1562  143.2871 LP  0  0  0  0  0  0  0  0  0  0  0  0  # atno 17320 bound_to 7965
  146.1752  140.6584  142.9214 LP  0  0  0  0  0  0  0  0  0  0  0  0  # atno 17321 bound_to 7965
  140.6291  143.9111  150.6590 LP  0  0  0  0  0  0  0  0  0  0  0  0  # atno 17342 bound_to 10162
  140.2409  143.3664  152.1487 LP  0  0  0  0  0  0  0  0  0  0  0  0  # atno 17343 bound_to 10162
  157.5870  130.8417  149.8604 LP  0  0  0  0  0  0  0  0  0  0  0  0  # atno 17370 bound_to 10713
  156.0464  130.3727  150.1307 LP  0  0  0  0  0  0  0  0  0  0  0  0  # atno 17371 bound_to 10713
  140.8137  134.3369  157.5404 LP  0  0  0  0  0  0  0  0  0  0  0  0  # atno 17394 bound_to 11000
  139.8754  134.9269  156.3412 LP  0  0  0  0  0  0  0  0  0  0  0  0  # atno 17395 bound_to 11000

$$$$
