AV-unprocessed.smi:2850|AV-procd|sdf|10966|dock3
  -GOLD-   2272015413D 1   1.00000     0.00000
 Structure written by MMmdl.
 45 46  0  0  0  0  0  0  0  0  2 V2000
  152.9456  132.5231  157.1511 C   0  0  0  0  0  0  0  0  0  0  0  0
  151.8234  131.1311  157.4580 S   0  0  0  0  0  0  0  0  0  0  0  0
  150.7491  131.0058  156.0607 C   0  0  0  0  0  0  0  0  0  0  0  0
  150.7754  129.8661  155.2372 C   0  0  0  0  0  0  0  0  0  0  0  0
  149.8860  129.8442  154.1490 C   0  0  0  0  0  0  0  0  0  0  0  0
  149.0415  130.9583  153.9692 C   0  0  0  0  0  0  0  0  0  0  0  0
  148.1423  130.9578  152.8931 N   0  0  0  0  0  0  0  0  0  0  0  0
  146.6991  130.9794  153.1000 C   0  0  0  0  0  0  0  0  0  0  0  0
  146.0430  132.2555  152.5453 C   0  0  1  0  0  0  0  0  0  0  0  0
  147.0205  133.4484  152.5572 C   0  0  0  0  0  0  0  0  0  0  0  0
  146.4049  134.6562  151.9544 N   0  3  2  0  0  0  0  0  0  0  0  0
  145.4438  135.3484  152.8558 C   0  0  0  0  0  0  0  0  0  0  0  0
  144.8844  136.6537  152.2506 C   0  0  0  0  0  0  0  0  0  0  0  0
  145.9465  137.7647  152.1985 C   0  0  0  0  0  0  0  0  0  0  0  0
  143.6537  137.1271  153.0380 C   0  0  0  0  0  0  0  0  0  0  0  0
  145.8769  134.3484  150.6007 C   0  0  0  0  0  0  0  0  0  0  0  0
  144.9645  133.1070  150.6186 C   0  0  0  0  0  0  0  0  0  0  0  0
  145.6592  132.0085  151.1961 O   0  0  0  0  0  0  0  0  0  0  0  0
  149.0750  132.0260  154.8073 N   0  0  0  0  0  0  0  0  0  0  0  0
  149.9185  132.0514  155.8450 N   0  0  0  0  0  0  0  0  0  0  0  0
  153.6349  132.6390  157.9872 H   0  0  0  0  0  0  0  0  0  0  0  0
  152.3846  133.4506  157.0366 H   0  0  0  0  0  0  0  0  0  0  0  0
  153.5279  132.3513  156.2456 H   0  0  0  0  0  0  0  0  0  0  0  0
  151.4484  129.0438  155.4304 H   0  0  0  0  0  0  0  0  0  0  0  0
  149.8545  128.9986  153.4775 H   0  0  0  0  0  0  0  0  0  0  0  0
  148.4934  130.8467  151.9526 H   0  0  0  0  0  0  0  0  0  0  0  0
  146.2565  130.0945  152.6407 H   0  0  0  0  0  0  0  0  0  0  0  0
  146.5027  130.8961  154.1692 H   0  0  0  0  0  0  0  0  0  0  0  0
  145.1613  132.5003  153.1396 H   0  0  0  0  0  0  0  0  0  0  0  0
  147.3637  133.6618  153.5702 H   0  0  0  0  0  0  0  0  0  0  0  0
  147.9119  133.1950  151.9814 H   0  0  0  0  0  0  0  0  0  0  0  0
  144.6297  134.6734  153.1204 H   0  0  0  0  0  0  0  0  0  0  0  0
  145.9407  135.5973  153.7947 H   0  0  0  0  0  0  0  0  0  0  0  0
  144.5505  136.4625  151.2311 H   0  0  0  0  0  0  0  0  0  0  0  0
  146.3185  138.0053  153.1950 H   0  0  0  0  0  0  0  0  0  0  0  0
  145.5359  138.6791  151.7690 H   0  0  0  0  0  0  0  0  0  0  0  0
  146.7996  137.4745  151.5850 H   0  0  0  0  0  0  0  0  0  0  0  0
  143.9066  137.3474  154.0756 H   0  0  0  0  0  0  0  0  0  0  0  0
  142.8716  136.3674  153.0403 H   0  0  0  0  0  0  0  0  0  0  0  0
  143.2299  138.0312  152.6000 H   0  0  0  0  0  0  0  0  0  0  0  0
  145.3532  135.2028  150.1739 H   0  0  0  0  0  0  0  0  0  0  0  0
  146.7262  134.1550  149.9439 H   0  0  0  0  0  0  0  0  0  0  0  0
  144.0396  133.2964  151.1647 H   0  0  0  0  0  0  0  0  0  0  0  0
  144.6769  132.8423  149.6010 H   0  0  0  0  0  0  0  0  0  0  0  0
  147.1610  135.3139  151.8271 H   0  0  0  0  0  0  0  0  0  0  0  0
  1  2  1  0  0  0  0
  1 21  1  0  0  0  0
  1 22  1  0  0  0  0
  1 23  1  0  0  0  0
  2  3  1  0  0  0  0
  3 20  1  0  0  0  0
  3  4  2  0  0  0  0
  4  5  1  0  0  0  0
  4 24  1  0  0  0  0
  5  6  2  0  0  0  0
  5 25  1  0  0  0  0
  6  7  1  0  0  0  0
  6 19  1  0  0  0  0
  7  8  1  0  0  0  0
  7 26  1  0  0  0  0
  8  9  1  0  0  0  0
  8 27  1  0  0  0  0
  8 28  1  0  0  0  0
  9 18  1  0  0  0  0
  9 10  1  0  0  0  0
  9 29  1  0  0  0  0
 10 11  1  0  0  0  0
 10 30  1  0  0  0  0
 10 31  1  0  0  0  0
 11 12  1  0  0  0  0
 11 16  1  0  0  0  0
 11 45  1  0  0  0  0
 12 13  1  0  0  0  0
 12 32  1  0  0  0  0
 12 33  1  0  0  0  0
 13 14  1  0  0  0  0
 13 15  1  0  0  0  0
 13 34  1  0  0  0  0
 14 35  1  0  0  0  0
 14 36  1  0  0  0  0
 14 37  1  0  0  0  0
 15 38  1  0  0  0  0
 15 39  1  0  0  0  0
 15 40  1  0  0  0  0
 16 17  1  0  0  0  0
 16 41  1  0  0  0  0
 16 42  1  0  0  0  0
 17 18  1  0  0  0  0
 17 43  1  0  0  0  0
 17 44  1  0  0  0  0
 19 20  2  0  0  0  0
M  CHG  1  11   1
M  END
> <s_m_source_file>
AV-unprocessed.smi

> <i_m_source_file_index>
2850

> <i_lp_mmshare_version>
43012

> <i_f3d_flags>
0

> <s_epik_input>
W0NIM11TYzFbY0hdW2NIXWMobm4xKVtOSF1bQ0gyXVtDQEBIXTJbQ0gyXU4oW0NIMl1bQ0gyXU8yKVtDSDJdW0NIXShbQ0gzXSlbQ0gzXQ==

> <s_epik_cmdline>
J2VwaWtfcHl0aG9uJywgJy1waCcsICc3LjAnLCAnLXRuJywgJzgnLCAnLW1hJywgJzIwMCcsICctbWV0YWxfYmluZGluZycsICctaW1hZScsICc8aW5maWxlLm1hZT4nLCAnLW9tYWUnLCAnPG91dGZpbGUubWFlPic=

> <r_lp_tautomer_probability>
0.999978

> <r_epik_Ionization_Penalty>
0.0874875

> <r_epik_Ionization_Penalty_Charging>
0.0831532

> <r_epik_Ionization_Penalty_Neutral>
0.00433433

> <r_epik_State_Penalty>
0.0738301

> <r_epik_Charging_Adjusted_Penalty>
0.156983

> <i_epik_Tot_Q>
1

> <i_epik_Tot_abs_Q>
1

> <r_epik_Metal_State_Penalty>
0.073888

> <b_epik_Metal_Only>
0

> <s_lp_Force_Field>
OPLS_2005

> <r_lp_Energy>
26.339

> <b_lp_Chiralities_Consistent>
1

> <s_lp_Variant>
AV-unprocessed.smi:2850-2

> <Gold.Version>
5.8.1

> <Gold.Id.Protein>
6NUR|6NUR_protein|mol2

> <Gold.PLP.Fitness>
35.6339

> <Gold.PLP.PLP>
-28.7439

> <Gold.PLP.part.hbond>
-2.0000

> <Gold.PLP.part.metal>
0.0000

> <Gold.PLP.part.buried>
-3.9864

> <Gold.PLP.part.nonpolar>
-23.1353

> <Gold.PLP.part.repulsive>
0.1630

> <Gold.PLP.ligand.clash>
0.0000

> <Gold.PLP.ligand.torsion>
1.1147

> <Gold.PLP.Chemscore.Hbond>
3.0000

> <Gold.PLP.Chemscore.CHOScore>
0.0000

> <Gold.PLP.Chemscore.Metal>
0.0000

> <Gold.Chemscore.Hbonds>
donor molecule, donor type, donor heavy atom, donor atom, acceptor molecule, acceptor atom, score
      L1  H     7    26       P1 10747  1.00
      L1  H    11    45       P1  7948  2.00

> <Gold.PLP.Chemscore.Internal.Correction>
0.1194

> <Gold.Rescore>
     Score         DG    S(hbond)    S(metal)    S(lipo)     H(rot)  DE(clash)    DE(int)     intcor
     14.72     -15.93       1.99        0.00      67.50       1.60       0.03       1.18       ----

> <Gold.Chemscore.Fitness>
14.7159

> <Gold.Chemscore.DG>
-15.9267

> <Gold.Chemscore.ZeroCoef>
-5.4800

> <Gold.Chemscore.Hbond>
1.9898

> <Gold.Chemscore.Metal>
0.0000

> <Gold.Chemscore.Lipo>
67.5014

> <Gold.Chemscore.Internal_Hbond>
0.0000

> <Gold.Chemscore.DEClash>
0.0275

> <Gold.Chemscore.DEInternal>
1.1833

> <Gold.Chemscore.Rot>
1.6003

> <Gold.Chemscore.Internal.Correction>
   9.000000E+99

> <Gold.Chemscore.Hbonds>
donor molecule, donor type, donor heavy atom, donor atom, acceptor molecule, acceptor atom, score
      L1  H     7    26       P1 10747  0.96
      L1  H    11    45       P1  7948  0.97

> <Gold.Chemscore.Hbond.Weighted>
-6.6458

> <Gold.Chemscore.Metal.Weighted>
-0.0000

> <Gold.Chemscore.Lipo.Weighted>
-7.8977

> <Gold.Chemscore.Internal_Hbond.Weighted>
0.0000

> <Gold.Chemscore.DEClash.Weighted>
0.0275

> <Gold.Chemscore.DEInternal.Weighted>
1.1833

> <Gold.Chemscore.Rot.Weighted>
4.0968

> <Gold.Chemscore.Internal.Correction.Weighted>
   9.000000E+99

> <Gold.Protein.RotatedTorsions>
[ 6907 6896 6895 6894 ] final  139.25 input  -60.11 | X-H torsion
[ 7974 7965 7964 7962 ] final   89.32 input  175.53 | X-H torsion
[ 8008 7997 7996 7995 ] final   -9.40 input   59.86 | X-H torsion
[ 10167 10162 10161 10158 ] final   35.94 input  -65.29 | X-H torsion
[ 10718 10713 10712 10709 ] final  153.79 input   66.30 | X-H torsion
[ 10763 10752 10751 10750 ] final  116.74 input  -60.55 | X-H torsion
[ 11005 11000 10999 10996 ] final -108.45 input  -57.11 | X-H torsion

> <Gold.Protein.ActiveResidues>
 VAL166  LYS551  ARG553  GLY616  TRP617  ASP618  TYR619  PRO620  LYS621  CYS622 
 ASP623  PHE694  ASN695  SER759  ASP760  ASP761  ALA762  ILE779  LEU786  VAL792 
 PHE793  MET794  SER795  GLU796  ALA797  LYS798  CYS799  TRP800  GLU811  SER814 

> <Gold.Protein.RotatedAtoms>
  152.2571  133.5265  159.5359 H   0  0  0  0  0  0  0  0  0  0  0  0  # atno 6907 bound_to 6896
  150.7112  134.0880  159.3930 H   0  0  0  0  0  0  0  0  0  0  0  0  # atno 6908 bound_to 6896
  151.8799  135.0457  160.0538 H   0  0  0  0  0  0  0  0  0  0  0  0  # atno 6909 bound_to 6896
  145.5340  139.2285  143.2603 H   0  0  0  0  0  0  0  0  0  0  0  0  # atno 7974 bound_to 7965
  154.5650  140.2356  155.8277 H   0  0  0  0  0  0  0  0  0  0  0  0  # atno 8008 bound_to 7997
  156.2061  140.3039  155.9588 H   0  0  0  0  0  0  0  0  0  0  0  0  # atno 8009 bound_to 7997
  155.2818  140.0423  157.3006 H   0  0  0  0  0  0  0  0  0  0  0  0  # atno 8010 bound_to 7997
  140.4174  144.1507  150.6144 H   0  0  0  0  0  0  0  0  0  0  0  0  # atno 10167 bound_to 10162
  157.2401  131.0757  151.1798 H   0  0  0  0  0  0  0  0  0  0  0  0  # atno 10718 bound_to 10713
  153.5418  135.3557  155.2721 H   0  0  0  0  0  0  0  0  0  0  0  0  # atno 10763 bound_to 10752
  154.8716  135.4093  154.3036 H   0  0  0  0  0  0  0  0  0  0  0  0  # atno 10764 bound_to 10752
  153.3744  135.7065  153.6681 H   0  0  0  0  0  0  0  0  0  0  0  0  # atno 10765 bound_to 10752
  141.0901  133.9070  157.2096 H   0  0  0  0  0  0  0  0  0  0  0  0  # atno 11005 bound_to 11000
  146.2025  140.6157  142.9096 LP  0  0  0  0  0  0  0  0  0  0  0  0  # atno 17320 bound_to 7965
  144.7611  140.5424  143.6735 LP  0  0  0  0  0  0  0  0  0  0  0  0  # atno 17321 bound_to 7965
  140.4571  143.2463  151.9270 LP  0  0  0  0  0  0  0  0  0  0  0  0  # atno 17342 bound_to 10162
  139.4782  144.5505  151.8393 LP  0  0  0  0  0  0  0  0  0  0  0  0  # atno 17343 bound_to 10162
  157.3387  130.7022  149.6368 LP  0  0  0  0  0  0  0  0  0  0  0  0  # atno 17370 bound_to 10713
  155.9670  130.4286  150.4796 LP  0  0  0  0  0  0  0  0  0  0  0  0  # atno 17371 bound_to 10713
  139.9725  135.0124  156.9548 LP  0  0  0  0  0  0  0  0  0  0  0  0  # atno 17394 bound_to 11000
  140.5273  134.0849  155.7306 LP  0  0  0  0  0  0  0  0  0  0  0  0  # atno 17395 bound_to 11000

$$$$
