AV-unprocessed.smi:2993|AV-procd|sdf|11403|dock7
  -GOLD-   2272016323D 1   1.00000     0.00000
 Structure written by MMmdl.
 34 35  0  0  0  0  0  0  0  0  1 V2000
  149.5817  136.2848  155.1428 C   0  0  0  0  0  0  0  0  0  0  0  0
  149.7951  134.9386  155.7736 C   0  0  0  0  0  0  0  0  0  0  0  0
  150.0598  134.8685  157.0672 N   0  0  0  0  0  0  0  0  0  0  0  0
  150.2178  133.5093  157.3539 O   0  0  0  0  0  0  0  0  0  0  0  0
  150.0425  132.8059  156.2066 C   0  0  0  0  0  0  0  0  0  0  0  0
  150.1800  131.3240  156.2997 C   0  0  0  0  0  0  0  0  0  0  0  0
  149.7681  133.6494  155.1656 C   0  0  0  0  0  0  0  0  0  0  0  0
  149.5099  133.2985  153.7227 C   0  0  0  0  0  0  0  0  0  0  0  0
  148.0188  133.0308  153.5223 C   0  0  0  0  0  0  0  0  0  0  0  0
  147.4744  132.1050  154.1233 O   0  0  0  0  0  0  0  0  0  0  0  0
  147.3780  133.8416  152.6660 N   0  0  0  0  0  0  0  0  0  0  0  0
  145.9754  133.7312  152.2823 C   0  0  1  0  0  0  0  0  0  0  0  0
  145.6289  134.9000  151.3499 C   0  0  0  0  0  0  0  0  0  0  0  0
  145.6352  132.4013  151.6309 C   0  0  0  0  0  0  0  0  0  0  0  0
  145.8430  132.1852  150.1507 C   0  0  0  0  0  0  0  0  0  0  0  0
  144.4427  132.2535  150.7157 C   0  0  0  0  0  0  0  0  0  0  0  0
  150.5246  136.8239  155.0488 H   0  0  0  0  0  0  0  0  0  0  0  0
  148.9043  136.8972  155.7384 H   0  0  0  0  0  0  0  0  0  0  0  0
  149.1518  136.1959  154.1457 H   0  0  0  0  0  0  0  0  0  0  0  0
  150.7625  130.9377  155.4631 H   0  0  0  0  0  0  0  0  0  0  0  0
  149.2011  130.8448  156.2804 H   0  0  0  0  0  0  0  0  0  0  0  0
  150.6826  131.0330  157.2224 H   0  0  0  0  0  0  0  0  0  0  0  0
  149.8162  134.1069  153.0575 H   0  0  0  0  0  0  0  0  0  0  0  0
  150.0814  132.4235  153.4117 H   0  0  0  0  0  0  0  0  0  0  0  0
  147.9120  134.5754  152.2241 H   0  0  0  0  0  0  0  0  0  0  0  0
  145.3601  133.8373  153.1780 H   0  0  0  0  0  0  0  0  0  0  0  0
  144.5723  134.8876  151.0812 H   0  0  0  0  0  0  0  0  0  0  0  0
  146.2064  134.8551  150.4259 H   0  0  0  0  0  0  0  0  0  0  0  0
  145.8344  135.8592  151.8266 H   0  0  0  0  0  0  0  0  0  0  0  0
  145.8546  131.5419  152.2625 H   0  0  0  0  0  0  0  0  0  0  0  0
  146.1858  133.0307  149.5574 H   0  0  0  0  0  0  0  0  0  0  0  0
  146.2116  131.2120  149.8328 H   0  0  0  0  0  0  0  0  0  0  0  0
  143.8771  131.3259  150.7773 H   0  0  0  0  0  0  0  0  0  0  0  0
  143.8565  133.1429  150.4933 H   0  0  0  0  0  0  0  0  0  0  0  0
  1  2  1  0  0  0  0
  1 17  1  0  0  0  0
  1 18  1  0  0  0  0
  1 19  1  0  0  0  0
  2  7  1  0  0  0  0
  2  3  2  0  0  0  0
  3  4  1  0  0  0  0
  4  5  1  0  0  0  0
  5  6  1  0  0  0  0
  5  7  2  0  0  0  0
  6 20  1  0  0  0  0
  6 21  1  0  0  0  0
  6 22  1  0  0  0  0
  7  8  1  0  0  0  0
  8  9  1  0  0  0  0
  8 23  1  0  0  0  0
  8 24  1  0  0  0  0
  9 10  2  0  0  0  0
  9 11  1  0  0  0  0
 11 12  1  0  0  0  0
 11 25  1  0  0  0  0
 12 13  1  0  0  0  0
 12 14  1  0  0  0  0
 12 26  1  0  0  0  0
 13 27  1  0  0  0  0
 13 28  1  0  0  0  0
 13 29  1  0  0  0  0
 14 16  1  0  0  0  0
 14 15  1  0  0  0  0
 14 30  1  0  0  0  0
 15 16  1  0  0  0  0
 15 31  1  0  0  0  0
 15 32  1  0  0  0  0
 16 33  1  0  0  0  0
 16 34  1  0  0  0  0
M  END
> <s_m_source_file>
AV-unprocessed.smi

> <i_m_source_file_index>
2993

> <i_lp_mmshare_version>
43012

> <i_f3d_flags>
0

> <s_epik_input>
W0NIM11jMW5vYyhbQ0gzXSljMVtDSDJdQyg9TylbTkhdW0NASF0oW0NIM10pW0NIXTJbQ0gyXVtDSDJdMg==

> <s_epik_cmdline>
J2VwaWtfcHl0aG9uJywgJy1waCcsICc3LjAnLCAnLXRuJywgJzgnLCAnLW1hJywgJzIwMCcsICctbWV0YWxfYmluZGluZycsICctaW1hZScsICc8aW5maWxlLm1hZT4nLCAnLW9tYWUnLCAnPG91dGZpbGUubWFlPic=

> <r_lp_tautomer_probability>
1

> <r_epik_Ionization_Penalty>
1.92533e-08

> <r_epik_Ionization_Penalty_Charging>
0

> <r_epik_Ionization_Penalty_Neutral>
1.92533e-08

> <r_epik_State_Penalty>
-0

> <r_epik_Charging_Adjusted_Penalty>
0

> <i_epik_Tot_Q>
0

> <i_epik_Tot_abs_Q>
0

> <r_epik_Metal_State_Penalty>
-0

> <b_epik_Metal_Only>
0

> <s_lp_Force_Field>
OPLS_2005

> <r_lp_Energy>
6.29181

> <b_lp_Chiralities_Consistent>
1

> <s_lp_Variant>
AV-unprocessed.smi:2993-2

> <Gold.Version>
5.8.1

> <Gold.Id.Protein>
6NUR|6NUR_protein|mol2

> <Gold.PLP.Fitness>
33.2708

> <Gold.PLP.PLP>
-28.0224

> <Gold.PLP.part.hbond>
-2.1012

> <Gold.PLP.part.metal>
0.0000

> <Gold.PLP.part.buried>
-5.0677

> <Gold.PLP.part.nonpolar>
-21.5608

> <Gold.PLP.part.repulsive>
0.0546

> <Gold.PLP.ligand.clash>
0.0000

> <Gold.PLP.ligand.torsion>
0.9065

> <Gold.PLP.Chemscore.Hbond>
2.0000

> <Gold.PLP.Chemscore.CHOScore>
0.0000

> <Gold.PLP.Chemscore.Metal>
0.0000

> <Gold.Chemscore.Hbonds>
donor molecule, donor type, donor heavy atom, donor atom, acceptor molecule, acceptor atom, score
      L1  H    11    25       P1  7948  1.00
      P1  H  6896  6909       L1     4  1.00

> <Gold.PLP.Chemscore.Internal.Correction>
1.0614

> <Gold.Rescore>
     Score         DG    S(hbond)    S(metal)    S(lipo)     H(rot)  DE(clash)    DE(int)     intcor
     13.22     -14.15       1.58        0.00      61.02       1.46       0.00       0.93       ----

> <Gold.Chemscore.Fitness>
13.2201

> <Gold.Chemscore.DG>
-14.1473

> <Gold.Chemscore.ZeroCoef>
-5.4800

> <Gold.Chemscore.Hbond>
1.5751

> <Gold.Chemscore.Metal>
0.0000

> <Gold.Chemscore.Lipo>
61.0235

> <Gold.Chemscore.Internal_Hbond>
0.0000

> <Gold.Chemscore.DEClash>
0.0000

> <Gold.Chemscore.DEInternal>
0.9271

> <Gold.Chemscore.Rot>
1.4584

> <Gold.Chemscore.Internal.Correction>
   9.000000E+99

> <Gold.Chemscore.Hbonds>
donor molecule, donor type, donor heavy atom, donor atom, acceptor molecule, acceptor atom, score
      L1  H    11    25       P1  7948  0.39
      P1  H  6896  6909       L1     4  0.23

> <Gold.Chemscore.Hbond.Weighted>
-5.2610

> <Gold.Chemscore.Metal.Weighted>
-0.0000

> <Gold.Chemscore.Lipo.Weighted>
-7.1398

> <Gold.Chemscore.Internal_Hbond.Weighted>
0.0000

> <Gold.Chemscore.DEClash.Weighted>
0.0000

> <Gold.Chemscore.DEInternal.Weighted>
0.9271

> <Gold.Chemscore.Rot.Weighted>
3.7334

> <Gold.Chemscore.Internal.Correction.Weighted>
   9.000000E+99

> <Gold.Protein.RotatedTorsions>
[ 6907 6896 6895 6894 ] final  -12.94 input  -60.11 | X-H torsion
[ 7974 7965 7964 7962 ] final   33.88 input  175.53 | X-H torsion
[ 8008 7997 7996 7995 ] final -100.25 input   59.86 | X-H torsion
[ 10167 10162 10161 10158 ] final   33.56 input  -65.29 | X-H torsion
[ 10718 10713 10712 10709 ] final -130.33 input   66.30 | X-H torsion
[ 10763 10752 10751 10750 ] final   18.97 input  -60.55 | X-H torsion
[ 11005 11000 10999 10996 ] final   37.91 input  -57.11 | X-H torsion

> <Gold.Protein.ActiveResidues>
 VAL166  LYS551  ARG553  GLY616  TRP617  ASP618  TYR619  PRO620  LYS621  CYS622 
 ASP623  PHE694  ASN695  SER759  ASP760  ASP761  ALA762  ILE779  LEU786  VAL792 
 PHE793  MET794  SER795  GLU796  ALA797  LYS798  CYS799  TRP800  GLU811  SER814 

> <Gold.Protein.RotatedAtoms>
  151.3627  135.0907  159.9439 H   0  0  0  0  0  0  0  0  0  0  0  0  # atno 6907 bound_to 6896
  152.5157  133.9242  159.7559 H   0  0  0  0  0  0  0  0  0  0  0  0  # atno 6908 bound_to 6896
  150.9640  133.6361  159.2778 H   0  0  0  0  0  0  0  0  0  0  0  0  # atno 6909 bound_to 6896
  146.1390  139.6339  142.9175 H   0  0  0  0  0  0  0  0  0  0  0  0  # atno 7974 bound_to 7965
  154.8261  140.0442  157.1444 H   0  0  0  0  0  0  0  0  0  0  0  0  # atno 8008 bound_to 7997
  154.9205  140.3026  155.5199 H   0  0  0  0  0  0  0  0  0  0  0  0  # atno 8009 bound_to 7997
  156.2984  140.2341  156.4254 H   0  0  0  0  0  0  0  0  0  0  0  0  # atno 8010 bound_to 7997
  140.4396  144.1207  150.6172 H   0  0  0  0  0  0  0  0  0  0  0  0  # atno 10167 bound_to 10162
  156.2134  130.6933  151.0675 H   0  0  0  0  0  0  0  0  0  0  0  0  # atno 10718 bound_to 10713
  153.1203  135.6717  153.9348 H   0  0  0  0  0  0  0  0  0  0  0  0  # atno 10763 bound_to 10752
  153.8865  135.3052  155.3448 H   0  0  0  0  0  0  0  0  0  0  0  0  # atno 10764 bound_to 10752
  154.7615  135.4986  153.9552 H   0  0  0  0  0  0  0  0  0  0  0  0  # atno 10765 bound_to 10752
  140.2178  134.3677  155.8019 H   0  0  0  0  0  0  0  0  0  0  0  0  # atno 11005 bound_to 11000
  145.5089  141.0436  143.2499 LP  0  0  0  0  0  0  0  0  0  0  0  0  # atno 17320 bound_to 7965
  144.7772  139.6605  143.7170 LP  0  0  0  0  0  0  0  0  0  0  0  0  # atno 17321 bound_to 7965
  140.4334  143.2558  151.9566 LP  0  0  0  0  0  0  0  0  0  0  0  0  # atno 17342 bound_to 10162
  139.4789  144.5723  151.8069 LP  0  0  0  0  0  0  0  0  0  0  0  0  # atno 17343 bound_to 10162
  157.7050  131.0760  150.6695 LP  0  0  0  0  0  0  0  0  0  0  0  0  # atno 17370 bound_to 10713
  156.6755  130.4552  149.5644 LP  0  0  0  0  0  0  0  0  0  0  0  0  # atno 17371 bound_to 10713
  141.2224  133.7177  156.8525 LP  0  0  0  0  0  0  0  0  0  0  0  0  # atno 17394 bound_to 11000
  140.1882  134.8985  157.3029 LP  0  0  0  0  0  0  0  0  0  0  0  0  # atno 17395 bound_to 11000

$$$$
