AV-unprocessed.smi:3268|AV-procd|sdf|12508|dock10
  -GOLD-   2272018413D 1   1.00000     0.00000
 Structure written by MMmdl.
 40 41  0  0  0  0  0  0  0  0  2 V2000
  146.8926  132.8266  152.9673 C   0  0  0  0  0  0  0  0  0  0  0  0
  146.4264  133.8184  151.8827 C   0  0  2  0  0  0  0  0  0  0  0  0
  145.6611  135.0051  152.4865 C   0  0  0  0  0  0  0  0  0  0  0  0
  144.5396  134.8440  152.9692 O   0  0  0  0  0  0  0  0  0  0  0  0
  146.2781  136.1974  152.4548 N   0  0  0  0  0  0  0  0  0  0  0  0
  145.7213  137.4410  152.9754 C   0  0  0  0  0  0  0  0  0  0  0  0
  146.6731  138.6312  152.7424 C   0  0  0  0  0  0  0  0  0  0  0  0
  146.1338  139.9023  153.2878 N   0  3  0  0  0  0  0  0  0  0  0  0
  145.7233  139.7731  154.7111 C   0  0  0  0  0  0  0  0  0  0  0  0
  145.0492  141.0591  155.2183 C   0  0  0  0  0  0  0  0  0  0  0  0
  145.9658  142.2735  155.0251 C   0  0  0  0  0  0  0  0  0  0  0  0
  146.3993  142.3717  153.5571 C   0  0  0  0  0  0  0  0  0  0  0  0
  147.0473  141.0593  153.0844 C   0  0  0  0  0  0  0  0  0  0  0  0
  145.6242  133.1751  150.8487 N   0  0  0  0  0  0  0  0  0  0  0  0
  145.9192  132.1443  150.0535 C   0  0  0  0  0  0  0  0  0  0  0  0
  144.9650  131.8432  149.1839 N   0  0  0  0  0  0  0  0  0  0  0  0
  144.0488  132.8025  149.5097 C   0  0  0  0  0  0  0  0  0  0  0  0
  144.3980  133.6335  150.4915 N   0  0  0  0  0  0  0  0  0  0  0  0
  147.5359  133.3188  153.6976 H   0  0  0  0  0  0  0  0  0  0  0  0
  147.4659  132.0105  152.5265 H   0  0  0  0  0  0  0  0  0  0  0  0
  146.0559  132.3860  153.5113 H   0  0  0  0  0  0  0  0  0  0  0  0
  147.3220  134.2052  151.3931 H   0  0  0  0  0  0  0  0  0  0  0  0
  147.1971  136.2454  152.0385 H   0  0  0  0  0  0  0  0  0  0  0  0
  144.7671  137.6021  152.4750 H   0  0  0  0  0  0  0  0  0  0  0  0
  145.5002  137.3309  154.0385 H   0  0  0  0  0  0  0  0  0  0  0  0
  147.6224  138.4124  153.2332 H   0  0  0  0  0  0  0  0  0  0  0  0
  146.8986  138.7476  151.6811 H   0  0  0  0  0  0  0  0  0  0  0  0
  145.0258  138.9415  154.8202 H   0  0  0  0  0  0  0  0  0  0  0  0
  146.5958  139.5378  155.3230 H   0  0  0  0  0  0  0  0  0  0  0  0
  144.1123  141.2179  154.6824 H   0  0  0  0  0  0  0  0  0  0  0  0
  144.7882  140.9530  156.2718 H   0  0  0  0  0  0  0  0  0  0  0  0
  145.4535  143.1867  155.3296 H   0  0  0  0  0  0  0  0  0  0  0  0
  146.8443  142.1790  155.6647 H   0  0  0  0  0  0  0  0  0  0  0  0
  145.5341  142.5995  152.9329 H   0  0  0  0  0  0  0  0  0  0  0  0
  147.0987  143.1991  153.4308 H   0  0  0  0  0  0  0  0  0  0  0  0
  147.9790  140.8876  153.6258 H   0  0  0  0  0  0  0  0  0  0  0  0
  147.3088  141.1557  152.0315 H   0  0  0  0  0  0  0  0  0  0  0  0
  146.8526  131.6037  150.1103 H   0  0  0  0  0  0  0  0  0  0  0  0
  143.0985  132.8950  149.0046 H   0  0  0  0  0  0  0  0  0  0  0  0
  145.2880  140.0979  152.7713 H   0  0  0  0  0  0  0  0  0  0  0  0
  1  2  1  0  0  0  0
  1 19  1  0  0  0  0
  1 20  1  0  0  0  0
  1 21  1  0  0  0  0
  2  3  1  0  0  0  0
  2 14  1  0  0  0  0
  2 22  1  0  0  0  0
  3  4  2  0  0  0  0
  3  5  1  0  0  0  0
  5  6  1  0  0  0  0
  5 23  1  0  0  0  0
  6  7  1  0  0  0  0
  6 24  1  0  0  0  0
  6 25  1  0  0  0  0
  7  8  1  0  0  0  0
  7 26  1  0  0  0  0
  7 27  1  0  0  0  0
  8 13  1  0  0  0  0
  8  9  1  0  0  0  0
  8 40  1  0  0  0  0
  9 10  1  0  0  0  0
  9 28  1  0  0  0  0
  9 29  1  0  0  0  0
 10 11  1  0  0  0  0
 10 30  1  0  0  0  0
 10 31  1  0  0  0  0
 11 12  1  0  0  0  0
 11 32  1  0  0  0  0
 11 33  1  0  0  0  0
 12 13  1  0  0  0  0
 12 34  1  0  0  0  0
 12 35  1  0  0  0  0
 13 36  1  0  0  0  0
 13 37  1  0  0  0  0
 14 18  1  0  0  0  0
 14 15  1  0  0  0  0
 15 16  2  0  0  0  0
 15 38  1  0  0  0  0
 16 17  1  0  0  0  0
 17 18  2  0  0  0  0
 17 39  1  0  0  0  0
M  CHG  1   8   1
M  END
> <s_m_source_file>
AV-unprocessed.smi

> <i_m_source_file_index>
3268

> <i_lp_mmshare_version>
43012

> <i_f3d_flags>
0

> <s_epik_input>
bjFbY0hdbltjSF1uMVtDQEhdKFtDSDNdKUMoPU8pW05IXVtDSDJdW0NIMl1OMltDSDJdW0NIMl1bQ0gyXVtDSDJdW0NIMl0y

> <s_epik_cmdline>
J2VwaWtfcHl0aG9uJywgJy1waCcsICc3LjAnLCAnLXRuJywgJzgnLCAnLW1hJywgJzIwMCcsICctbWV0YWxfYmluZGluZycsICctaW1hZScsICc8aW5maWxlLm1hZT4nLCAnLW9tYWUnLCAnPG91dGZpbGUubWFlPic=

> <r_lp_tautomer_probability>
1

> <r_epik_Ionization_Penalty>
0.00266407

> <r_epik_Ionization_Penalty_Charging>
0.00265606

> <r_epik_Ionization_Penalty_Neutral>
8.01095e-06

> <r_epik_State_Penalty>
0.00184955

> <r_epik_Charging_Adjusted_Penalty>
0.00450561

> <i_epik_Tot_Q>
1

> <i_epik_Tot_abs_Q>
1

> <r_epik_Metal_State_Penalty>
-0

> <b_epik_Metal_Only>
0

> <s_lp_Force_Field>
OPLS_2005

> <r_lp_Energy>
22.0187

> <b_lp_Chiralities_Consistent>
1

> <s_lp_Variant>
AV-unprocessed.smi:3268-1

> <Gold.Version>
5.8.1

> <Gold.Id.Protein>
6NUR|6NUR_protein|mol2

> <Gold.PLP.Fitness>
46.4382

> <Gold.PLP.PLP>
-31.8305

> <Gold.PLP.part.hbond>
-3.0568

> <Gold.PLP.part.metal>
0.0000

> <Gold.PLP.part.buried>
-4.7679

> <Gold.PLP.part.nonpolar>
-23.4893

> <Gold.PLP.part.repulsive>
0.4766

> <Gold.PLP.ligand.clash>
0.0000

> <Gold.PLP.ligand.torsion>
0.1655

> <Gold.PLP.Chemscore.Hbond>
2.9440

> <Gold.PLP.Chemscore.CHOScore>
2.0000

> <Gold.PLP.Chemscore.Metal>
0.0000

> <Gold.Chemscore.Hbonds>
donor molecule, donor type, donor heavy atom, donor atom, acceptor molecule, acceptor atom, score
      L1  H     5    23       P1  7948  1.00
      L1  H     8    40       P1 10175  2.00
      L1  C    15    38       P1 10747  1.00
      L1  C    17    39       P1 10186  0.73

> <Gold.PLP.Chemscore.Internal.Correction>
0.1067

> <Gold.Rescore>
     Score         DG    S(hbond)    S(metal)    S(lipo)     H(rot)  DE(clash)    DE(int)     intcor
      9.13     -10.60       1.97        0.00      43.61       2.57       0.04       1.44       ----

> <Gold.Chemscore.Fitness>
9.1261

> <Gold.Chemscore.DG>
-10.6002

> <Gold.Chemscore.ZeroCoef>
-5.4800

> <Gold.Chemscore.Hbond>
1.9744

> <Gold.Chemscore.Metal>
0.0000

> <Gold.Chemscore.Lipo>
43.6094

> <Gold.Chemscore.Internal_Hbond>
0.0000

> <Gold.Chemscore.DEClash>
0.0351

> <Gold.Chemscore.DEInternal>
1.4389

> <Gold.Chemscore.Rot>
2.5690

> <Gold.Chemscore.Internal.Correction>
   9.000000E+99

> <Gold.Chemscore.Hbonds>
donor molecule, donor type, donor heavy atom, donor atom, acceptor molecule, acceptor atom, score
      L1  H     5    23       P1  7948  1.00
      L1  H     8    40       P1 10175  0.98

> <Gold.Chemscore.Hbond.Weighted>
-6.5944

> <Gold.Chemscore.Metal.Weighted>
-0.0000

> <Gold.Chemscore.Lipo.Weighted>
-5.1023

> <Gold.Chemscore.Internal_Hbond.Weighted>
0.0000

> <Gold.Chemscore.DEClash.Weighted>
0.0351

> <Gold.Chemscore.DEInternal.Weighted>
1.4389

> <Gold.Chemscore.Rot.Weighted>
6.5766

> <Gold.Chemscore.Internal.Correction.Weighted>
   9.000000E+99

> <Gold.Protein.RotatedTorsions>
[ 6907 6896 6895 6894 ] final -152.06 input  -60.11 | X-H torsion
[ 7974 7965 7964 7962 ] final -118.17 input  175.53 | X-H torsion
[ 8008 7997 7996 7995 ] final  -37.30 input   59.86 | X-H torsion
[ 10167 10162 10161 10158 ] final   74.15 input  -65.29 | X-H torsion
[ 10718 10713 10712 10709 ] final  146.09 input   66.30 | X-H torsion
[ 10763 10752 10751 10750 ] final  -72.56 input  -60.55 | X-H torsion
[ 11005 11000 10999 10996 ] final  -33.05 input  -57.11 | X-H torsion

> <Gold.Protein.ActiveResidues>
 VAL166  LYS551  ARG553  GLY616  TRP617  ASP618  TYR619  PRO620  LYS621  CYS622 
 ASP623  PHE694  ASN695  SER759  ASP760  ASP761  ALA762  ILE779  LEU786  VAL792 
 PHE793  MET794  SER795  GLU796  ALA797  LYS798  CYS799  TRP800  GLU811  SER814 

> <Gold.Protein.RotatedAtoms>
  151.2223  133.4495  159.2600 H   0  0  0  0  0  0  0  0  0  0  0  0  # atno 6907 bound_to 6896
  151.0873  134.9895  159.8395 H   0  0  0  0  0  0  0  0  0  0  0  0  # atno 6908 bound_to 6896
  152.5431  134.2159  159.8821 H   0  0  0  0  0  0  0  0  0  0  0  0  # atno 6909 bound_to 6896
  145.0769  140.8398  143.4062 H   0  0  0  0  0  0  0  0  0  0  0  0  # atno 7974 bound_to 7965
  154.4056  140.1608  156.2515 H   0  0  0  0  0  0  0  0  0  0  0  0  # atno 8008 bound_to 7997
  155.9115  140.3427  155.6080 H   0  0  0  0  0  0  0  0  0  0  0  0  # atno 8009 bound_to 7997
  155.7330  140.0783  157.2271 H   0  0  0  0  0  0  0  0  0  0  0  0  # atno 8010 bound_to 7997
  140.0168  144.5571  150.7614 H   0  0  0  0  0  0  0  0  0  0  0  0  # atno 10167 bound_to 10162
  157.3374  131.0930  151.1111 H   0  0  0  0  0  0  0  0  0  0  0  0  # atno 10718 bound_to 10713
  154.4473  135.5926  153.6168 H   0  0  0  0  0  0  0  0  0  0  0  0  # atno 10763 bound_to 10752
  152.9810  135.6012  154.3648 H   0  0  0  0  0  0  0  0  0  0  0  0  # atno 10764 bound_to 10752
  154.3505  135.2841  155.2353 H   0  0  0  0  0  0  0  0  0  0  0  0  # atno 10765 bound_to 10752
  140.9603  133.7168  156.1358 H   0  0  0  0  0  0  0  0  0  0  0  0  # atno 11005 bound_to 11000
  145.1225  139.2684  143.5581 LP  0  0  0  0  0  0  0  0  0  0  0  0  # atno 17320 bound_to 7965
  146.3530  140.0853  142.8615 LP  0  0  0  0  0  0  0  0  0  0  0  0  # atno 17321 bound_to 7965
  140.7359  143.2746  151.3781 LP  0  0  0  0  0  0  0  0  0  0  0  0  # atno 17342 bound_to 10162
  139.6167  144.0989  152.2352 LP  0  0  0  0  0  0  0  0  0  0  0  0  # atno 17343 bound_to 10162
  157.2336  130.6537  149.5860 LP  0  0  0  0  0  0  0  0  0  0  0  0  # atno 17370 bound_to 10713
  155.9703  130.4591  150.6023 LP  0  0  0  0  0  0  0  0  0  0  0  0  # atno 17371 bound_to 10713
  140.7478  134.4079  157.5546 LP  0  0  0  0  0  0  0  0  0  0  0  0  # atno 17394 bound_to 11000
  139.8876  134.8879  156.2522 LP  0  0  0  0  0  0  0  0  0  0  0  0  # atno 17395 bound_to 11000

$$$$
