AV-unprocessed.smi:2002|AV-procd|sdf|8114|dock1
  -GOLD-   2272010343D 1   1.00000     0.00000
 Structure written by MMmdl.
 39 40  0  0  0  0  0  0  0  0  2 V2000
  145.1434  131.0779  150.9360 C   0  0  0  0  0  0  0  0  0  0  0  0
  145.8757  132.3430  151.4036 C   0  0  0  0  0  0  0  0  0  0  0  0
  147.1923  132.0320  152.0075 N   0  3  2  0  0  0  0  0  0  0  0  0
  147.1273  131.0919  153.1470 C   0  0  0  0  0  0  0  0  0  0  0  0
  148.3151  131.4505  154.0358 C   0  0  0  0  0  0  0  0  0  0  0  0
  148.3737  132.9700  153.9102 C   0  0  1  0  0  0  0  0  0  0  0  0
  149.7211  133.5821  154.3392 C   0  0  0  0  0  0  0  0  0  0  0  0
  149.7773  135.0183  154.0812 N   0  0  0  0  0  0  0  0  0  0  0  0
  150.4525  135.9167  154.8129 C   0  0  0  0  0  0  0  0  0  0  0  0
  151.1212  135.6190  155.8025 O   0  0  0  0  0  0  0  0  0  0  0  0
  150.3042  137.1570  154.3181 N   0  0  0  0  0  0  0  0  0  0  0  0
  150.8718  138.3685  154.7914 C   0  0  0  0  0  0  0  0  0  0  0  0
  150.1580  139.5008  155.2813 C   0  0  0  0  0  0  0  0  0  0  0  0
  151.1565  140.3767  155.6016 C   0  0  0  0  0  0  0  0  0  0  0  0
  151.1525  141.7558  156.1660 C   0  0  0  0  0  0  0  0  0  0  0  0
  152.3722  139.8290  155.3329 O   0  0  0  0  0  0  0  0  0  0  0  0
  152.1803  138.5432  154.8142 N   0  0  0  0  0  0  0  0  0  0  0  0
  147.9802  133.2109  152.4434 C   0  0  0  0  0  0  0  0  0  0  0  0
  144.1606  131.3278  150.5360 H   0  0  0  0  0  0  0  0  0  0  0  0
  144.9968  130.3796  151.7604 H   0  0  0  0  0  0  0  0  0  0  0  0
  145.6935  130.5590  150.1509 H   0  0  0  0  0  0  0  0  0  0  0  0
  146.0014  133.0421  150.5757 H   0  0  0  0  0  0  0  0  0  0  0  0
  145.2585  132.8463  152.1492 H   0  0  0  0  0  0  0  0  0  0  0  0
  146.2003  131.2461  153.7025 H   0  0  0  0  0  0  0  0  0  0  0  0
  147.1501  130.0542  152.8130 H   0  0  0  0  0  0  0  0  0  0  0  0
  148.1879  131.1144  155.0654 H   0  0  0  0  0  0  0  0  0  0  0  0
  149.2270  130.9995  153.6415 H   0  0  0  0  0  0  0  0  0  0  0  0
  147.5851  133.3807  154.5436 H   0  0  0  0  0  0  0  0  0  0  0  0
  149.8599  133.4373  155.4107 H   0  0  0  0  0  0  0  0  0  0  0  0
  150.5521  133.0669  153.8541 H   0  0  0  0  0  0  0  0  0  0  0  0
  149.2525  135.3548  153.2867 H   0  0  0  0  0  0  0  0  0  0  0  0
  149.7207  137.2478  153.4995 H   0  0  0  0  0  0  0  0  0  0  0  0
  149.0962  139.6628  155.3871 H   0  0  0  0  0  0  0  0  0  0  0  0
  150.1422  142.1649  156.1865 H   0  0  0  0  0  0  0  0  0  0  0  0
  151.7742  142.4214  155.5670 H   0  0  0  0  0  0  0  0  0  0  0  0
  151.5389  141.7563  157.1852 H   0  0  0  0  0  0  0  0  0  0  0  0
  148.8623  133.2655  151.8052 H   0  0  0  0  0  0  0  0  0  0  0  0
  147.4368  134.1506  152.3349 H   0  0  0  0  0  0  0  0  0  0  0  0
  147.7430  131.5724  151.2961 H   0  0  0  0  0  0  0  0  0  0  0  0
  1  2  1  0  0  0  0
  1 19  1  0  0  0  0
  1 20  1  0  0  0  0
  1 21  1  0  0  0  0
  2  3  1  0  0  0  0
  2 22  1  0  0  0  0
  2 23  1  0  0  0  0
  3 18  1  0  0  0  0
  3  4  1  0  0  0  0
  3 39  1  0  0  0  0
  4  5  1  0  0  0  0
  4 24  1  0  0  0  0
  4 25  1  0  0  0  0
  5  6  1  0  0  0  0
  5 26  1  0  0  0  0
  5 27  1  0  0  0  0
  6  7  1  0  0  0  0
  6 18  1  0  0  0  0
  6 28  1  0  0  0  0
  7  8  1  0  0  0  0
  7 29  1  0  0  0  0
  7 30  1  0  0  0  0
  8  9  1  0  0  0  0
  8 31  1  0  0  0  0
  9 10  2  0  0  0  0
  9 11  1  0  0  0  0
 11 12  1  0  0  0  0
 11 32  1  0  0  0  0
 12 17  2  0  0  0  0
 12 13  1  0  0  0  0
 13 14  2  0  0  0  0
 13 33  1  0  0  0  0
 14 15  1  0  0  0  0
 14 16  1  0  0  0  0
 15 34  1  0  0  0  0
 15 35  1  0  0  0  0
 15 36  1  0  0  0  0
 16 17  1  0  0  0  0
 18 37  1  0  0  0  0
 18 38  1  0  0  0  0
M  CHG  1   3   1
M  END
> <s_m_source_file>
AV-unprocessed.smi

> <i_m_source_file_index>
2002

> <i_lp_mmshare_version>
43012

> <i_f3d_flags>
0

> <s_epik_input>
W0NIM11bQ0gyXU4xW0NIMl1bQ0gyXVtDQEhdKFtDSDJdMSlbQ0gyXVtOSF1DKD1PKVtOSF1jMltjSF1jKFtDSDNdKW9uMg==

> <s_epik_cmdline>
J2VwaWtfcHl0aG9uJywgJy1waCcsICc3LjAnLCAnLXRuJywgJzgnLCAnLW1hJywgJzIwMCcsICctbWV0YWxfYmluZGluZycsICctaW1hZScsICc8aW5maWxlLm1hZT4nLCAnLW9tYWUnLCAnPG91dGZpbGUubWFlPic=

> <r_epik_Ionization_Penalty>
0.000632871

> <r_epik_Ionization_Penalty_Charging>
0.000610951

> <r_epik_Ionization_Penalty_Neutral>
2.19198e-05

> <r_epik_State_Penalty>
0.000385263

> <r_epik_Charging_Adjusted_Penalty>
0.000996214

> <i_epik_Tot_Q>
1

> <i_epik_Tot_abs_Q>
1

> <r_epik_Metal_State_Penalty>
-0

> <b_epik_Metal_Only>
0

> <s_lp_Force_Field>
OPLS_2005

> <r_lp_Energy>
27.554

> <b_lp_Chiralities_Consistent>
1

> <s_lp_Variant>
AV-unprocessed.smi:2002-2

> <Gold.Version>
5.8.1

> <Gold.Id.Protein>
6NUR|6NUR_protein|mol2

> <Gold.PLP.Fitness>
44.9067

> <Gold.PLP.PLP>
-32.7546

> <Gold.PLP.part.hbond>
-7.3565

> <Gold.PLP.part.metal>
0.0000

> <Gold.PLP.part.buried>
-1.9014

> <Gold.PLP.part.nonpolar>
-22.7234

> <Gold.PLP.part.repulsive>
0.2197

> <Gold.PLP.ligand.clash>
0.0000

> <Gold.PLP.ligand.torsion>
0.7885

> <Gold.PLP.Chemscore.Hbond>
4.5730

> <Gold.PLP.Chemscore.CHOScore>
0.0000

> <Gold.PLP.Chemscore.Metal>
0.0000

> <Gold.Chemscore.Hbonds>
donor molecule, donor type, donor heavy atom, donor atom, acceptor molecule, acceptor atom, score
      L1  H     3    39       P1 10747  1.00
      L1  H     8    31       P1  7948  0.90
      L1  H    11    32       P1  7948  0.84
      P1  H  7997  8009       L1    16  0.68
      P1  H 10752 10765       L1    10  0.73

> <Gold.PLP.Chemscore.Internal.Correction>
0.0101

> <Gold.Rescore>
     Score         DG    S(hbond)    S(metal)    S(lipo)     H(rot)  DE(clash)    DE(int)     intcor
     18.27     -19.62       3.11        0.00      65.23       1.52       0.35       1.00       ----

> <Gold.Chemscore.Fitness>
18.2680

> <Gold.Chemscore.DG>
-19.6173

> <Gold.Chemscore.ZeroCoef>
-5.4800

> <Gold.Chemscore.Hbond>
3.1146

> <Gold.Chemscore.Metal>
0.0000

> <Gold.Chemscore.Lipo>
65.2270

> <Gold.Chemscore.Internal_Hbond>
0.0000

> <Gold.Chemscore.DEClash>
0.3450

> <Gold.Chemscore.DEInternal>
1.0043

> <Gold.Chemscore.Rot>
1.5223

> <Gold.Chemscore.Internal.Correction>
   9.000000E+99

> <Gold.Chemscore.Hbonds>
donor molecule, donor type, donor heavy atom, donor atom, acceptor molecule, acceptor atom, score
      L1  H     3    39       P1 10747  1.00
      L1  H     8    31       P1  7948  0.18
      L1  H    11    32       P1  7948  0.56
      P1  H  7997  8009       L1    16  0.57
      P1  H 10752 10765       L1    10  0.25

> <Gold.Chemscore.Hbond.Weighted>
-10.4028

> <Gold.Chemscore.Metal.Weighted>
-0.0000

> <Gold.Chemscore.Lipo.Weighted>
-7.6316

> <Gold.Chemscore.Internal_Hbond.Weighted>
0.0000

> <Gold.Chemscore.DEClash.Weighted>
0.3450

> <Gold.Chemscore.DEInternal.Weighted>
1.0043

> <Gold.Chemscore.Rot.Weighted>
3.8971

> <Gold.Chemscore.Internal.Correction.Weighted>
   9.000000E+99

> <Gold.Protein.RotatedTorsions>
[ 6907 6896 6895 6894 ] final  106.00 input  -60.11 | X-H torsion
[ 7974 7965 7964 7962 ] final  -49.31 input  175.53 | X-H torsion
[ 8008 7997 7996 7995 ] final -143.28 input   59.86 | X-H torsion
[ 10167 10162 10161 10158 ] final   67.86 input  -65.29 | X-H torsion
[ 10718 10713 10712 10709 ] final  -71.31 input   66.30 | X-H torsion
[ 10763 10752 10751 10750 ] final -154.26 input  -60.55 | X-H torsion
[ 11005 11000 10999 10996 ] final  109.19 input  -57.11 | X-H torsion

> <Gold.Protein.ActiveResidues>
 VAL166  LYS551  ARG553  GLY616  TRP617  ASP618  TYR619  PRO620  LYS621  CYS622 
 ASP623  PHE694  ASN695  SER759  ASP760  ASP761  ALA762  ILE779  LEU786  VAL792 
 PHE793  MET794  SER795  GLU796  ALA797  LYS798  CYS799  TRP800  GLU811  SER814 

> <Gold.Protein.RotatedAtoms>
  152.5210  133.9446  159.7642 H   0  0  0  0  0  0  0  0  0  0  0  0  # atno 6907 bound_to 6896
  150.9769  133.6277  159.2736 H   0  0  0  0  0  0  0  0  0  0  0  0  # atno 6908 bound_to 6896
  151.3469  135.0881  159.9443 H   0  0  0  0  0  0  0  0  0  0  0  0  # atno 6909 bound_to 6896
  145.9419  140.7654  142.9547 H   0  0  0  0  0  0  0  0  0  0  0  0  # atno 7974 bound_to 7965
  155.5081  140.0581  157.2928 H   0  0  0  0  0  0  0  0  0  0  0  0  # atno 8008 bound_to 7997
  154.4562  140.1974  156.0322 H   0  0  0  0  0  0  0  0  0  0  0  0  # atno 8009 bound_to 7997
  156.0803  140.3248  155.7690 H   0  0  0  0  0  0  0  0  0  0  0  0  # atno 8010 bound_to 7997
  140.0849  144.5039  150.7137 H   0  0  0  0  0  0  0  0  0  0  0  0  # atno 10167 bound_to 10162
  156.0368  130.4349  150.2425 H   0  0  0  0  0  0  0  0  0  0  0  0  # atno 10718 bound_to 10713
  154.7871  135.3194  154.7861 H   0  0  0  0  0  0  0  0  0  0  0  0  # atno 10763 bound_to 10752
  153.8558  135.6858  153.4792 H   0  0  0  0  0  0  0  0  0  0  0  0  # atno 10764 bound_to 10752
  153.1527  135.4693  154.9599 H   0  0  0  0  0  0  0  0  0  0  0  0  # atno 10765 bound_to 10752
  139.8857  134.9451  156.6087 H   0  0  0  0  0  0  0  0  0  0  0  0  # atno 11005 bound_to 11000
  144.6780  140.2295  143.7357 LP  0  0  0  0  0  0  0  0  0  0  0  0  # atno 17320 bound_to 7965
  145.8288  139.2076  143.1895 LP  0  0  0  0  0  0  0  0  0  0  0  0  # atno 17321 bound_to 7965
  140.7059  143.2467  151.4729 LP  0  0  0  0  0  0  0  0  0  0  0  0  # atno 17342 bound_to 10162
  139.5758  144.1822  152.1901 LP  0  0  0  0  0  0  0  0  0  0  0  0  # atno 17343 bound_to 10162
  157.0524  131.0066  151.3249 LP  0  0  0  0  0  0  0  0  0  0  0  0  # atno 17370 bound_to 10713
  157.5131  130.7951  149.7726 LP  0  0  0  0  0  0  0  0  0  0  0  0  # atno 17371 bound_to 10713
  140.7828  133.8646  155.8581 LP  0  0  0  0  0  0  0  0  0  0  0  0  # atno 17394 bound_to 11000
  140.9746  134.1486  157.4547 LP  0  0  0  0  0  0  0  0  0  0  0  0  # atno 17395 bound_to 11000

$$$$
