AV-unprocessed.smi:16|AV-procd|sdf|89|dock9
  -GOLD-   2262015233D 1   1.00000     0.00000
 Structure written by MMmdl.
 60 64  0  0  0  0  0  0  0  0  2 V2000
  149.8294  144.9213  160.2619 C   0  0  0  0  0  0  0  0  0  0  0  0
  150.9532  145.1971  159.2521 C   0  0  0  0  0  0  0  0  0  0  0  0
  151.6239  143.9561  158.7874 N   0  3  1  0  0  0  0  0  0  0  0  0
  152.5955  143.4402  159.7872 C   0  0  0  0  0  0  0  0  0  0  0  0
  153.3673  142.2268  159.2444 C   0  0  0  0  0  0  0  0  0  0  0  0
  152.3951  141.1245  158.8118 C   0  0  2  0  0  0  0  0  0  0  0  0
  153.1232  140.0334  158.2599 O   0  0  0  0  0  0  0  0  0  0  0  0
  152.2639  138.9563  157.9005 C   0  0  0  0  0  0  0  0  0  0  0  0
  151.2653  139.4349  156.8347 C   0  0  0  0  0  0  0  0  0  0  0  0
  150.5270  140.6010  157.3147 N   0  0  0  0  0  0  0  0  0  0  0  0
  149.5441  140.9873  156.4696 C   0  0  0  0  0  0  0  0  0  0  0  0
  149.6977  140.8366  155.1276 N   0  0  0  0  0  0  0  0  0  0  0  0
  148.7325  141.2427  154.2970 C   0  0  0  0  0  0  0  0  0  0  0  0
  147.5677  141.8246  154.5920 N   0  0  0  0  0  0  0  0  0  0  0  0
  147.4202  141.9889  155.9382 C   0  0  0  0  0  0  0  0  0  0  0  0
  148.3508  141.5951  156.9390 C   0  0  0  0  0  0  0  0  0  0  0  0
  147.8630  141.9133  158.1994 N   0  0  0  0  0  0  0  0  0  0  0  0
  146.7007  142.4572  157.9579 C   0  0  0  0  0  0  0  0  0  0  0  0
  146.3698  142.5706  156.6256 N   0  0  0  0  0  0  0  0  0  0  0  0
  145.1495  143.0925  156.0843 C   0  0  0  0  0  0  0  0  0  0  0  0
  144.8779  143.0626  154.5769 C   0  0  0  0  0  0  0  0  0  0  0  0
  144.0795  144.3796  154.7077 C   0  0  0  0  0  0  0  0  0  0  0  0
  144.2561  145.4081  153.5733 C   0  0  0  0  0  0  0  0  0  0  0  0
  143.6985  144.9703  152.3501 O   0  0  0  0  0  0  0  0  0  0  0  0
  142.5652  144.1780  154.9082 C   0  0  0  0  0  0  0  0  0  0  0  0
  141.9674  143.5765  153.7778 O   0  0  0  0  0  0  0  0  0  0  0  0
  144.8974  144.6012  156.0014 C   0  0  0  0  0  0  0  0  0  0  0  0
  151.4144  141.6798  157.7577 C   0  0  1  0  0  0  0  0  0  0  0  0
  150.6694  142.9021  158.3485 C   0  0  0  0  0  0  0  0  0  0  0  0
  151.8451  140.7774  159.6892 H   0  0  0  0  0  0  0  0  0  0  0  0
  151.9877  142.0134  156.8906 H   0  0  0  0  0  0  0  0  0  0  0  0
  149.2938  145.8415  160.4968 H   0  0  0  0  0  0  0  0  0  0  0  0
  150.2089  144.5238  161.2027 H   0  0  0  0  0  0  0  0  0  0  0  0
  149.1048  144.2113  159.8622 H   0  0  0  0  0  0  0  0  0  0  0  0
  150.5081  145.7044  158.3952 H   0  0  0  0  0  0  0  0  0  0  0  0
  151.6874  145.8863  159.6715 H   0  0  0  0  0  0  0  0  0  0  0  0
  153.3056  144.2249  160.0509 H   0  0  0  0  0  0  0  0  0  0  0  0
  152.0665  143.1701  160.7027 H   0  0  0  0  0  0  0  0  0  0  0  0
  153.9856  142.5303  158.3984 H   0  0  0  0  0  0  0  0  0  0  0  0
  154.0478  141.8465  160.0070 H   0  0  0  0  0  0  0  0  0  0  0  0
  152.8657  138.1356  157.5103 H   0  0  0  0  0  0  0  0  0  0  0  0
  151.7429  138.5789  158.7818 H   0  0  0  0  0  0  0  0  0  0  0  0
  151.8054  139.6859  155.9207 H   0  0  0  0  0  0  0  0  0  0  0  0
  150.5699  138.6312  156.5887 H   0  0  0  0  0  0  0  0  0  0  0  0
  148.9212  141.0834  153.2454 H   0  0  0  0  0  0  0  0  0  0  0  0
  146.0526  142.8004  158.7515 H   0  0  0  0  0  0  0  0  0  0  0  0
  144.3446  142.5979  156.6308 H   0  0  0  0  0  0  0  0  0  0  0  0
  145.7945  143.1563  153.9922 H   0  0  0  0  0  0  0  0  0  0  0  0
  144.2946  142.2037  154.2435 H   0  0  0  0  0  0  0  0  0  0  0  0
  143.7859  146.3566  153.8342 H   0  0  0  0  0  0  0  0  0  0  0  0
  145.3109  145.6183  153.3949 H   0  0  0  0  0  0  0  0  0  0  0  0
  143.3109  144.1191  152.4851 H   0  0  0  0  0  0  0  0  0  0  0  0
  142.3641  143.5580  155.7825 H   0  0  0  0  0  0  0  0  0  0  0  0
  142.0582  145.1265  155.0864 H   0  0  0  0  0  0  0  0  0  0  0  0
  142.6456  143.3717  153.1523 H   0  0  0  0  0  0  0  0  0  0  0  0
  144.3334  145.0080  156.8414 H   0  0  0  0  0  0  0  0  0  0  0  0
  145.8165  145.1677  155.8427 H   0  0  0  0  0  0  0  0  0  0  0  0
  150.0451  142.5974  159.1903 H   0  0  0  0  0  0  0  0  0  0  0  0
  150.0035  143.3232  157.5970 H   0  0  0  0  0  0  0  0  0  0  0  0
  152.1674  144.2138  157.9758 H   0  0  0  0  0  0  0  0  0  0  0  0
  1  2  1  0  0  0  0
  1 32  1  0  0  0  0
  1 33  1  0  0  0  0
  1 34  1  0  0  0  0
  2  3  1  0  0  0  0
  2 35  1  0  0  0  0
  2 36  1  0  0  0  0
  3 29  1  0  0  0  0
  3  4  1  0  0  0  0
  3 60  1  0  0  0  0
  4  5  1  0  0  0  0
  4 37  1  0  0  0  0
  4 38  1  0  0  0  0
  5  6  1  0  0  0  0
  5 39  1  0  0  0  0
  5 40  1  0  0  0  0
  6 30  1  0  0  0  0
  6 28  1  0  0  0  0
  6  7  1  0  0  0  0
  7  8  1  0  0  0  0
  8  9  1  0  0  0  0
  8 41  1  0  0  0  0
  8 42  1  0  0  0  0
  9 10  1  0  0  0  0
  9 43  1  0  0  0  0
  9 44  1  0  0  0  0
 10 11  1  0  0  0  0
 10 28  1  0  0  0  0
 11 16  1  0  0  0  0
 11 12  2  0  0  0  0
 12 13  1  0  0  0  0
 13 14  2  0  0  0  0
 13 45  1  0  0  0  0
 14 15  1  0  0  0  0
 15 19  1  0  0  0  0
 15 16  2  0  0  0  0
 16 17  1  0  0  0  0
 17 18  2  0  0  0  0
 18 19  1  0  0  0  0
 18 46  1  0  0  0  0
 19 20  1  0  0  0  0
 20 27  1  0  0  0  0
 20 21  1  0  0  0  0
 20 47  1  0  0  0  0
 21 22  1  0  0  0  0
 21 48  1  0  0  0  0
 21 49  1  0  0  0  0
 22 23  1  0  0  0  0
 22 25  1  0  0  0  0
 22 27  1  0  0  0  0
 23 24  1  0  0  0  0
 23 50  1  0  0  0  0
 23 51  1  0  0  0  0
 24 52  1  0  0  0  0
 25 26  1  0  0  0  0
 25 53  1  0  0  0  0
 25 54  1  0  0  0  0
 26 55  1  0  0  0  0
 27 56  1  0  0  0  0
 27 57  1  0  0  0  0
 28 31  1  0  0  0  0
 28 29  1  0  0  0  0
 29 58  1  0  0  0  0
 29 59  1  0  0  0  0
M  CHG  1   3   1
M  END
> <s_m_source_file>
AV-unprocessed.smi

> <i_m_source_file_index>
16

> <i_lp_mmshare_version>
43012

> <i_f3d_flags>
0

> <s_epik_input>
W0NIM11bQ0gyXU4oW0NIMl1bQ0gyXTEpW0NIMl1bQ0BASF0oW0NAQEhdMTIpTihbQ0gyXVtDSDJdTzIpYyhuW2NIXW4zKWMoYzM0KW5bY0hdbjRbQ0hdKFtDSDJdNSlbQ0gyXUM1KFtDSDJdW09IXSlbQ0gyXVtPSF0=

> <s_epik_cmdline>
J2VwaWtfcHl0aG9uJywgJy1waCcsICc3LjAnLCAnLXRuJywgJzgnLCAnLW1hJywgJzIwMCcsICctbWV0YWxfYmluZGluZycsICctaW1hZScsICc8aW5maWxlLm1hZT4nLCAnLW9tYWUnLCAnPG91dGZpbGUubWFlPic=

> <r_lp_tautomer_probability>
1

> <r_epik_Ionization_Penalty>
0.0135603

> <r_epik_Ionization_Penalty_Charging>
0.0131385

> <r_epik_Ionization_Penalty_Neutral>
0.000421734

> <r_epik_State_Penalty>
0.0102091

> <r_epik_Charging_Adjusted_Penalty>
0.0233476

> <i_epik_Tot_Q>
1

> <i_epik_Tot_abs_Q>
1

> <r_epik_Metal_State_Penalty>
0.0103746

> <b_epik_Metal_Only>
0

> <s_lp_Force_Field>
OPLS_2005

> <r_lp_Energy>
54.8635

> <b_lp_Chiralities_Consistent>
1

> <s_lp_Variant>
AV-unprocessed.smi:16-3

> <Gold.Version>
5.8.1

> <Gold.Id.Protein>
6NUR|6NUR_protein|mol2

> <Gold.PLP.Fitness>
55.0928

> <Gold.PLP.PLP>
-45.7279

> <Gold.PLP.part.hbond>
-2.6270

> <Gold.PLP.part.metal>
0.0000

> <Gold.PLP.part.buried>
-10.1020

> <Gold.PLP.part.nonpolar>
-32.2168

> <Gold.PLP.part.repulsive>
0.3908

> <Gold.PLP.ligand.clash>
0.0000

> <Gold.PLP.ligand.torsion>
1.1491

> <Gold.PLP.Chemscore.Hbond>
2.7680

> <Gold.PLP.Chemscore.CHOScore>
0.9177

> <Gold.PLP.Chemscore.Metal>
0.0000

> <Gold.Chemscore.Hbonds>
donor molecule, donor type, donor heavy atom, donor atom, acceptor molecule, acceptor atom, score
      L1  H    24    52       P1 10174  1.00
      L1  H    26    55       P1 10174  0.32
      P1  H  7997  8010       L1     7  1.00
      L1  C    13    45       P1  7957  1.00

> <Gold.PLP.Chemscore.Internal.Correction>
0.6059

> <Gold.Rescore>
     Score         DG    S(hbond)    S(metal)    S(lipo)     H(rot)  DE(clash)    DE(int)     intcor
     12.55     -17.26       2.54        0.00     100.94       3.33       1.90       2.81       ----

> <Gold.Chemscore.Fitness>
12.5542

> <Gold.Chemscore.DG>
-17.2604

> <Gold.Chemscore.ZeroCoef>
-5.4800

> <Gold.Chemscore.Hbond>
2.5396

> <Gold.Chemscore.Metal>
0.0000

> <Gold.Chemscore.Lipo>
100.9426

> <Gold.Chemscore.Internal_Hbond>
0.0000

> <Gold.Chemscore.DEClash>
1.9005

> <Gold.Chemscore.DEInternal>
2.8056

> <Gold.Chemscore.Rot>
3.3251

> <Gold.Chemscore.Internal.Correction>
   9.000000E+99

> <Gold.Chemscore.Hbonds>
donor molecule, donor type, donor heavy atom, donor atom, acceptor molecule, acceptor atom, score
      L1  H    24    52       P1 10174  0.99
      L1  H    26    55       P1 10174  0.31
      P1  H  7997  8010       L1     7  0.63

> <Gold.Chemscore.Hbond.Weighted>
-8.4823

> <Gold.Chemscore.Metal.Weighted>
-0.0000

> <Gold.Chemscore.Lipo.Weighted>
-11.8103

> <Gold.Chemscore.Internal_Hbond.Weighted>
0.0000

> <Gold.Chemscore.DEClash.Weighted>
1.9005

> <Gold.Chemscore.DEInternal.Weighted>
2.8056

> <Gold.Chemscore.Rot.Weighted>
8.5122

> <Gold.Chemscore.Internal.Correction.Weighted>
   9.000000E+99

> <Gold.Protein.RotatedTorsions>
[ 6907 6896 6895 6894 ] final   80.75 input  -60.11 | X-H torsion
[ 7974 7965 7964 7962 ] final  161.96 input  175.53 | X-H torsion
[ 8008 7997 7996 7995 ] final   36.17 input   59.86 | X-H torsion
[ 10167 10162 10161 10158 ] final  103.74 input  -65.29 | X-H torsion
[ 10718 10713 10712 10709 ] final   83.92 input   66.30 | X-H torsion
[ 10763 10752 10751 10750 ] final   50.93 input  -60.55 | X-H torsion
[ 11005 11000 10999 10996 ] final -154.78 input  -57.11 | X-H torsion

> <Gold.Protein.ActiveResidues>
 VAL166  LYS551  ARG553  GLY616  TRP617  ASP618  TYR619  PRO620  LYS621  CYS622 
 ASP623  PHE694  ASN695  SER759  ASP760  ASP761  ALA762  ILE779  LEU786  VAL792 
 PHE793  MET794  SER795  GLU796  ALA797  LYS798  CYS799  TRP800  GLU811  SER814 

> <Gold.Protein.RotatedAtoms>
  152.5245  134.3309  159.9182 H   0  0  0  0  0  0  0  0  0  0  0  0  # atno 6907 bound_to 6896
  151.3258  133.4014  159.2666 H   0  0  0  0  0  0  0  0  0  0  0  0  # atno 6908 bound_to 6896
  150.9921  134.9271  159.7963 H   0  0  0  0  0  0  0  0  0  0  0  0  # atno 6909 bound_to 6896
  144.7660  139.7972  143.6315 H   0  0  0  0  0  0  0  0  0  0  0  0  # atno 7974 bound_to 7965
  155.1830  140.3301  155.4372 H   0  0  0  0  0  0  0  0  0  0  0  0  # atno 8008 bound_to 7997
  156.2470  140.1923  156.6877 H   0  0  0  0  0  0  0  0  0  0  0  0  # atno 8009 bound_to 7997
  154.6258  140.0589  156.9658 H   0  0  0  0  0  0  0  0  0  0  0  0  # atno 8010 bound_to 7997
  139.7237  144.7052  151.0832 H   0  0  0  0  0  0  0  0  0  0  0  0  # atno 10167 bound_to 10162
  157.6888  131.0111  150.2595 H   0  0  0  0  0  0  0  0  0  0  0  0  # atno 10718 bound_to 10713
  152.9784  135.5863  154.4332 H   0  0  0  0  0  0  0  0  0  0  0  0  # atno 10763 bound_to 10752
  154.3942  135.2768  155.2138 H   0  0  0  0  0  0  0  0  0  0  0  0  # atno 10764 bound_to 10752
  154.3997  135.6106  153.5944 H   0  0  0  0  0  0  0  0  0  0  0  0  # atno 10765 bound_to 10752
  140.6936  134.4014  157.5217 H   0  0  0  0  0  0  0  0  0  0  0  0  # atno 11005 bound_to 11000
  146.1767  139.4941  142.9893 LP  0  0  0  0  0  0  0  0  0  0  0  0  # atno 17320 bound_to 7965
  145.6470  141.0272  143.1781 LP  0  0  0  0  0  0  0  0  0  0  0  0  # atno 17321 bound_to 7965
  140.7758  143.5133  150.9626 LP  0  0  0  0  0  0  0  0  0  0  0  0  # atno 17342 bound_to 10162
  139.8820  143.7060  152.3156 LP  0  0  0  0  0  0  0  0  0  0  0  0  # atno 17343 bound_to 10162
  156.3177  130.3781  149.7603 LP  0  0  0  0  0  0  0  0  0  0  0  0  # atno 17370 bound_to 10713
  156.5184  130.8203  151.3194 LP  0  0  0  0  0  0  0  0  0  0  0  0  # atno 17371 bound_to 10713
  139.8916  134.8775  156.2310 LP  0  0  0  0  0  0  0  0  0  0  0  0  # atno 17394 bound_to 11000
  141.0221  133.7035  156.1286 LP  0  0  0  0  0  0  0  0  0  0  0  0  # atno 17395 bound_to 11000

$$$$
