AV-unprocessed.smi:2702|AV-procd|sdf|10437|dock10
  -GOLD-   2272014473D 1   1.00000     0.00000
 Structure written by MMmdl.
 47 48  0  0  0  0  0  0  0  0  1 V2000
  155.3535  142.8639  165.5984 C   0  0  0  0  0  0  0  0  0  0  0  0
  154.7498  143.1472  164.3484 O   0  0  0  0  0  0  0  0  0  0  0  0
  154.1410  142.0056  163.7688 C   0  0  0  0  0  0  0  0  0  0  0  0
  153.6161  142.3264  162.3838 C   0  0  0  0  0  0  0  0  0  0  0  0
  152.7041  143.3033  162.1698 C   0  0  0  0  0  0  0  0  0  0  0  0
  152.2095  143.5798  160.8211 C   0  0  0  0  0  0  0  0  0  0  0  0
  151.3825  144.4611  160.5854 O   0  0  0  0  0  0  0  0  0  0  0  0
  152.7324  142.7834  159.8422 N   0  0  0  0  0  0  0  0  0  0  0  0
  152.3256  142.9370  158.4332 C   0  0  0  0  0  0  0  0  0  0  0  0
  151.2600  141.9224  157.9937 C   0  0  0  0  0  0  0  0  0  0  0  0
  150.2302  141.7647  158.6507 O   0  0  0  0  0  0  0  0  0  0  0  0
  151.5203  141.2539  156.8603 N   0  0  0  0  0  0  0  0  0  0  0  0
  150.6653  140.2303  156.2628 C   0  0  1  0  0  0  0  0  0  0  0  0
  149.2815  140.8329  155.9437 C   0  0  0  0  0  0  0  0  0  0  0  0
  148.3665  139.8227  155.2382 C   0  0  0  0  0  0  0  0  0  0  0  0
  149.0323  139.2613  153.9723 C   0  0  0  0  0  0  0  0  0  0  0  0
  150.4080  138.6300  154.2677 C   0  0  2  0  0  0  0  0  0  0  0  0
  150.2680  137.2795  154.9998 C   0  0  0  0  0  0  0  0  0  0  0  0
  151.3301  139.6509  154.9871 C   0  0  2  0  0  0  0  0  0  0  0  0
  152.7411  139.0862  155.2476 C   0  0  0  0  0  0  0  0  0  0  0  0
  153.6832  141.7812  160.1203 C   0  0  0  0  0  0  0  0  0  0  0  0
  154.1043  141.5554  161.3240 N   0  0  0  0  0  0  0  0  0  0  0  0
  155.8039  143.7709  166.0013 H   0  0  0  0  0  0  0  0  0  0  0  0
  156.1399  142.1151  165.4961 H   0  0  0  0  0  0  0  0  0  0  0  0
  154.6185  142.5041  166.3194 H   0  0  0  0  0  0  0  0  0  0  0  0
  154.8654  141.1934  163.6889 H   0  0  0  0  0  0  0  0  0  0  0  0
  153.3270  141.6527  164.4041 H   0  0  0  0  0  0  0  0  0  0  0  0
  152.3323  143.8897  162.9976 H   0  0  0  0  0  0  0  0  0  0  0  0
  151.9409  143.9385  158.2329 H   0  0  0  0  0  0  0  0  0  0  0  0
  153.2019  142.8392  157.7893 H   0  0  0  0  0  0  0  0  0  0  0  0
  152.3880  141.4530  156.3841 H   0  0  0  0  0  0  0  0  0  0  0  0
  150.5378  139.4191  156.9819 H   0  0  0  0  0  0  0  0  0  0  0  0
  148.8010  141.1792  156.8593 H   0  0  0  0  0  0  0  0  0  0  0  0
  149.4012  141.7117  155.3085 H   0  0  0  0  0  0  0  0  0  0  0  0
  148.1177  139.0115  155.9228 H   0  0  0  0  0  0  0  0  0  0  0  0
  147.4222  140.3008  154.9767 H   0  0  0  0  0  0  0  0  0  0  0  0
  148.3750  138.5321  153.4976 H   0  0  0  0  0  0  0  0  0  0  0  0
  149.1566  140.0688  153.2495 H   0  0  0  0  0  0  0  0  0  0  0  0
  150.8626  138.4060  153.3017 H   0  0  0  0  0  0  0  0  0  0  0  0
  149.8733  137.3960  156.0086 H   0  0  0  0  0  0  0  0  0  0  0  0
  151.2256  136.7647  155.0763 H   0  0  0  0  0  0  0  0  0  0  0  0
  149.5945  136.6139  154.4597 H   0  0  0  0  0  0  0  0  0  0  0  0
  151.4626  140.4833  154.2937 H   0  0  0  0  0  0  0  0  0  0  0  0
  152.7315  138.3243  156.0274 H   0  0  0  0  0  0  0  0  0  0  0  0
  153.4328  139.8671  155.5644 H   0  0  0  0  0  0  0  0  0  0  0  0
  153.1566  138.6374  154.3452 H   0  0  0  0  0  0  0  0  0  0  0  0
  154.0378  141.2168  159.2562 H   0  0  0  0  0  0  0  0  0  0  0  0
  1  2  1  0  0  0  0
  1 23  1  0  0  0  0
  1 24  1  0  0  0  0
  1 25  1  0  0  0  0
  2  3  1  0  0  0  0
  3  4  1  0  0  0  0
  3 26  1  0  0  0  0
  3 27  1  0  0  0  0
  4 22  1  0  0  0  0
  4  5  2  0  0  0  0
  5  6  1  0  0  0  0
  5 28  1  0  0  0  0
  6  7  2  0  0  0  0
  6  8  1  0  0  0  0
  8  9  1  0  0  0  0
  8 21  1  0  0  0  0
  9 10  1  0  0  0  0
  9 29  1  0  0  0  0
  9 30  1  0  0  0  0
 10 11  2  0  0  0  0
 10 12  1  0  0  0  0
 12 13  1  0  0  0  0
 12 31  1  0  0  0  0
 13 19  1  0  0  0  0
 13 14  1  0  0  0  0
 13 32  1  0  0  0  0
 14 15  1  0  0  0  0
 14 33  1  0  0  0  0
 14 34  1  0  0  0  0
 15 16  1  0  0  0  0
 15 35  1  0  0  0  0
 15 36  1  0  0  0  0
 16 17  1  0  0  0  0
 16 37  1  0  0  0  0
 16 38  1  0  0  0  0
 17 18  1  0  0  0  0
 17 19  1  0  0  0  0
 17 39  1  0  0  0  0
 18 40  1  0  0  0  0
 18 41  1  0  0  0  0
 18 42  1  0  0  0  0
 19 20  1  0  0  0  0
 19 43  1  0  0  0  0
 20 44  1  0  0  0  0
 20 45  1  0  0  0  0
 20 46  1  0  0  0  0
 21 22  2  0  0  0  0
 21 47  1  0  0  0  0
M  END
> <s_m_source_file>
AV-unprocessed.smi

> <i_m_source_file_index>
2702

> <i_lp_mmshare_version>
43012

> <i_f3d_flags>
0

> <s_epik_input>
W0NIM11PW0NIMl1jMVtjSF1jKD1PKW4oW2NIXW4xKVtDSDJdQyg9TylbTkhdW0NAQEhdMltDSDJdW0NIMl1bQ0gyXVtDQEBIXShbQ0gzXSlbQ0BIXTJbQ0gzXQ==

> <s_epik_cmdline>
J2VwaWtfcHl0aG9uJywgJy1waCcsICc3LjAnLCAnLXRuJywgJzgnLCAnLW1hJywgJzIwMCcsICctbWV0YWxfYmluZGluZycsICctaW1hZScsICc8aW5maWxlLm1hZT4nLCAnLW9tYWUnLCAnPG91dGZpbGUubWFlPic=

> <r_lp_tautomer_probability>
1

> <r_epik_Ionization_Penalty>
1.22164e-06

> <r_epik_Ionization_Penalty_Charging>
3.17988e-07

> <r_epik_Ionization_Penalty_Neutral>
9.03656e-07

> <r_epik_State_Penalty>
-0

> <r_epik_Charging_Adjusted_Penalty>
3.17988e-07

> <i_epik_Tot_Q>
0

> <i_epik_Tot_abs_Q>
0

> <r_epik_Metal_State_Penalty>
-0

> <b_epik_Metal_Only>
0

> <s_lp_Force_Field>
OPLS_2005

> <r_lp_Energy>
19.2685

> <b_lp_Chiralities_Consistent>
1

> <s_lp_Variant>
AV-unprocessed.smi:2702-8

> <Gold.Version>
5.8.1

> <Gold.Id.Protein>
6NUR|6NUR_protein|mol2

> <Gold.PLP.Fitness>
45.6252

> <Gold.PLP.PLP>
-46.3976

> <Gold.PLP.part.hbond>
-2.1621

> <Gold.PLP.part.metal>
0.0000

> <Gold.PLP.part.buried>
-1.4529

> <Gold.PLP.part.nonpolar>
-40.1109

> <Gold.PLP.part.repulsive>
0.2686

> <Gold.PLP.ligand.clash>
0.0000

> <Gold.PLP.ligand.torsion>
0.3981

> <Gold.PLP.Chemscore.Hbond>
0.0000

> <Gold.PLP.Chemscore.CHOScore>
0.0000

> <Gold.PLP.Chemscore.Metal>
0.0000

> <Gold.PLP.Chemscore.Internal.Correction>
0.0238

> <Gold.Rescore>
     Score         DG    S(hbond)    S(metal)    S(lipo)     H(rot)  DE(clash)    DE(int)     intcor
     11.67     -12.76       0.00        0.00     104.44       1.93       0.43       0.66       ----

> <Gold.Chemscore.Fitness>
11.6682

> <Gold.Chemscore.DG>
-12.7626

> <Gold.Chemscore.ZeroCoef>
-5.4800

> <Gold.Chemscore.Hbond>
0.0000

> <Gold.Chemscore.Metal>
0.0000

> <Gold.Chemscore.Lipo>
104.4396

> <Gold.Chemscore.Internal_Hbond>
0.0000

> <Gold.Chemscore.DEClash>
0.4303

> <Gold.Chemscore.DEInternal>
0.6642

> <Gold.Chemscore.Rot>
1.9284

> <Gold.Chemscore.Internal.Correction>
   9.000000E+99

> <Gold.Chemscore.Hbond.Weighted>
-0.0000

> <Gold.Chemscore.Metal.Weighted>
-0.0000

> <Gold.Chemscore.Lipo.Weighted>
-12.2194

> <Gold.Chemscore.Internal_Hbond.Weighted>
0.0000

> <Gold.Chemscore.DEClash.Weighted>
0.4303

> <Gold.Chemscore.DEInternal.Weighted>
0.6642

> <Gold.Chemscore.Rot.Weighted>
4.9368

> <Gold.Chemscore.Internal.Correction.Weighted>
   9.000000E+99

> <Gold.Protein.RotatedTorsions>
[ 6907 6896 6895 6894 ] final   50.59 input  -60.11 | X-H torsion
[ 7974 7965 7964 7962 ] final  142.85 input  175.53 | X-H torsion
[ 8008 7997 7996 7995 ] final -105.93 input   59.86 | X-H torsion
[ 10167 10162 10161 10158 ] final   28.00 input  -65.29 | X-H torsion
[ 10718 10713 10712 10709 ] final -132.88 input   66.30 | X-H torsion
[ 10763 10752 10751 10750 ] final -119.98 input  -60.55 | X-H torsion
[ 11005 11000 10999 10996 ] final -150.95 input  -57.11 | X-H torsion

> <Gold.Protein.ActiveResidues>
 VAL166  LYS551  ARG553  GLY616  TRP617  ASP618  TYR619  PRO620  LYS621  CYS622 
 ASP623  PHE694  ASN695  SER759  ASP760  ASP761  ALA762  ILE779  LEU786  VAL792 
 PHE793  MET794  SER795  GLU796  ALA797  LYS798  CYS799  TRP800  GLU811  SER814 

> <Gold.Protein.RotatedAtoms>
  152.3035  134.7583  160.0352 H   0  0  0  0  0  0  0  0  0  0  0  0  # atno 6907 bound_to 6896
  151.8088  133.3374  159.3557 H   0  0  0  0  0  0  0  0  0  0  0  0  # atno 6908 bound_to 6896
  150.7285  134.5613  159.5888 H   0  0  0  0  0  0  0  0  0  0  0  0  # atno 6909 bound_to 6896
  144.8972  139.5474  143.5771 H   0  0  0  0  0  0  0  0  0  0  0  0  # atno 7974 bound_to 7965
  154.9070  140.0411  157.1925 H   0  0  0  0  0  0  0  0  0  0  0  0  # atno 8008 bound_to 7997
  154.8386  140.2910  155.5653 H   0  0  0  0  0  0  0  0  0  0  0  0  # atno 8009 bound_to 7997
  156.2991  140.2487  156.3325 H   0  0  0  0  0  0  0  0  0  0  0  0  # atno 8010 bound_to 7997
  140.4890  144.0497  150.6290 H   0  0  0  0  0  0  0  0  0  0  0  0  # atno 10167 bound_to 10162
  156.2392  130.7085  151.0939 H   0  0  0  0  0  0  0  0  0  0  0  0  # atno 10718 bound_to 10713
  154.8632  135.4219  154.2386 H   0  0  0  0  0  0  0  0  0  0  0  0  # atno 10763 bound_to 10752
  153.3356  135.6990  153.6916 H   0  0  0  0  0  0  0  0  0  0  0  0  # atno 10764 bound_to 10752
  153.5915  135.3554  155.2885 H   0  0  0  0  0  0  0  0  0  0  0  0  # atno 10765 bound_to 10752
  140.7348  134.3581  157.5159 H   0  0  0  0  0  0  0  0  0  0  0  0  # atno 11005 bound_to 11000
  146.3088  139.7672  142.9036 LP  0  0  0  0  0  0  0  0  0  0  0  0  # atno 17320 bound_to 7965
  145.3679  141.0337  143.3247 LP  0  0  0  0  0  0  0  0  0  0  0  0  # atno 17321 bound_to 7965
  140.3761  143.2828  152.0224 LP  0  0  0  0  0  0  0  0  0  0  0  0  # atno 17342 bound_to 10162
  139.4847  144.6192  151.7288 LP  0  0  0  0  0  0  0  0  0  0  0  0  # atno 17343 bound_to 10162
  157.7168  131.0705  150.6297 LP  0  0  0  0  0  0  0  0  0  0  0  0  # atno 17370 bound_to 10713
  156.6369  130.4447  149.5766 LP  0  0  0  0  0  0  0  0  0  0  0  0  # atno 17371 bound_to 10713
  139.8818  134.9042  156.2872 LP  0  0  0  0  0  0  0  0  0  0  0  0  # atno 17394 bound_to 11000
  140.9889  133.7221  156.0784 LP  0  0  0  0  0  0  0  0  0  0  0  0  # atno 17395 bound_to 11000

$$$$
