AV-unprocessed.smi:2618|AV-procd|sdf|10221|dock4
  -GOLD-   2272014223D 1   1.00000     0.00000
 Structure written by MMmdl.
 38 39  0  0  0  0  0  0  0  0  2 V2000
  157.0777  136.0044  156.3233 C   0  0  0  0  0  0  0  0  0  0  0  0
  155.6684  135.9668  156.4651 O   0  0  0  0  0  0  0  0  0  0  0  0
  155.1322  137.2125  156.8795 C   0  0  0  0  0  0  0  0  0  0  0  0
  153.6177  137.0531  157.1005 C   0  0  0  0  0  0  0  0  0  0  0  0
  152.8696  138.3624  157.1534 C   0  0  0  0  0  0  0  0  0  0  0  0
  153.1213  139.3097  157.9810 N   0  0  0  0  0  0  0  0  0  0  0  0
  152.3036  140.3486  157.8000 N   0  0  0  0  0  0  0  0  0  0  0  0
  152.3448  141.4749  158.6476 C   0  0  0  0  0  0  0  0  0  0  0  0
  152.8297  141.3552  159.8973 N   0  0  0  0  0  0  0  0  0  0  0  0
  152.8479  142.4540  160.6799 C   0  0  0  0  0  0  0  0  0  0  0  0
  153.4126  142.2831  162.0736 C   0  0  0  0  0  0  0  0  0  0  0  0
  152.3648  143.6969  160.2256 C   0  0  0  0  0  0  0  0  0  0  0  0
  151.8671  143.7191  158.9078 C   0  0  0  0  0  0  0  0  0  0  0  0
  151.3091  144.9844  158.2927 C   0  0  0  0  0  0  0  0  0  0  0  0
  151.8595  142.6156  158.1302 N   0  0  0  0  0  0  0  0  0  0  0  0
  151.3422  140.0825  156.7071 C   0  0  2  0  0  0  0  0  0  0  0  0
  151.5070  140.9184  155.7063 O   0  5  0  0  0  0  0  0  0  0  0  0
  149.8658  140.1184  157.1934 C   0  0  0  0  0  0  0  0  0  0  0  0
  149.6893  139.2449  158.1868 F   0  0  0  0  0  0  0  0  0  0  0  0
  149.5162  141.3258  157.6401 F   0  0  0  0  0  0  0  0  0  0  0  0
  149.0395  139.7862  156.1989 F   0  0  0  0  0  0  0  0  0  0  0  0
  151.7484  138.6805  156.2307 C   0  0  0  0  0  0  0  0  0  0  0  0
  157.4404  135.0271  156.0047 H   0  0  0  0  0  0  0  0  0  0  0  0
  157.5626  136.2517  157.2685 H   0  0  0  0  0  0  0  0  0  0  0  0
  157.3790  136.7366  155.5731 H   0  0  0  0  0  0  0  0  0  0  0  0
  155.6196  137.5334  157.8021 H   0  0  0  0  0  0  0  0  0  0  0  0
  155.3291  137.9689  156.1174 H   0  0  0  0  0  0  0  0  0  0  0  0
  153.1984  136.4358  156.3056 H   0  0  0  0  0  0  0  0  0  0  0  0
  153.4475  136.5116  158.0315 H   0  0  0  0  0  0  0  0  0  0  0  0
  153.5313  143.2459  162.5710 H   0  0  0  0  0  0  0  0  0  0  0  0
  154.3890  141.7991  162.0317 H   0  0  0  0  0  0  0  0  0  0  0  0
  152.7473  141.6646  162.6762 H   0  0  0  0  0  0  0  0  0  0  0  0
  152.3739  144.5779  160.8502 H   0  0  0  0  0  0  0  0  0  0  0  0
  151.4249  145.8341  158.9661 H   0  0  0  0  0  0  0  0  0  0  0  0
  150.2476  144.8623  158.0756 H   0  0  0  0  0  0  0  0  0  0  0  0
  151.8267  145.2144  157.3611 H   0  0  0  0  0  0  0  0  0  0  0  0
  152.0863  138.6444  155.1929 H   0  0  0  0  0  0  0  0  0  0  0  0
  150.9449  137.9526  156.3458 H   0  0  0  0  0  0  0  0  0  0  0  0
  1  2  1  0  0  0  0
  1 23  1  0  0  0  0
  1 24  1  0  0  0  0
  1 25  1  0  0  0  0
  2  3  1  0  0  0  0
  3  4  1  0  0  0  0
  3 26  1  0  0  0  0
  3 27  1  0  0  0  0
  4  5  1  0  0  0  0
  4 28  1  0  0  0  0
  4 29  1  0  0  0  0
  5 22  1  0  0  0  0
  5  6  2  0  0  0  0
  6  7  1  0  0  0  0
  7  8  1  0  0  0  0
  7 16  1  0  0  0  0
  8 15  1  0  0  0  0
  8  9  2  0  0  0  0
  9 10  1  0  0  0  0
 10 11  1  0  0  0  0
 10 12  2  0  0  0  0
 11 30  1  0  0  0  0
 11 31  1  0  0  0  0
 11 32  1  0  0  0  0
 12 13  1  0  0  0  0
 12 33  1  0  0  0  0
 13 14  1  0  0  0  0
 13 15  2  0  0  0  0
 14 34  1  0  0  0  0
 14 35  1  0  0  0  0
 14 36  1  0  0  0  0
 16 17  1  0  0  0  0
 16 18  1  0  0  0  0
 16 22  1  0  0  0  0
 18 19  1  0  0  0  0
 18 20  1  0  0  0  0
 18 21  1  0  0  0  0
 22 37  1  0  0  0  0
 22 38  1  0  0  0  0
M  CHG  1  17  -1
M  END
> <s_m_source_file>
AV-unprocessed.smi

> <i_m_source_file_index>
2618

> <i_lp_mmshare_version>
43012

> <i_f3d_flags>
0

> <s_epik_input>
W0NIM11PW0NIMl1bQ0gyXUMoW0NIMl0xKT1OTihbQ0BAXTEoW09IXSlDKEYpKEYpRiljMm5jKFtDSDNdKVtjSF1jKG4yKVtDSDNd

> <s_epik_cmdline>
J2VwaWtfcHl0aG9uJywgJy1waCcsICc3LjAnLCAnLXRuJywgJzgnLCAnLW1hJywgJzIwMCcsICctbWV0YWxfYmluZGluZycsICctaW1hZScsICc8aW5maWxlLm1hZT4nLCAnLW9tYWUnLCAnPG91dGZpbGUubWFlPic=

> <r_lp_tautomer_probability>
1

> <r_epik_Ionization_Penalty>
1.35617

> <r_epik_Ionization_Penalty_Charging>
1.35566

> <r_epik_Ionization_Penalty_Neutral>
0.000506926

> <r_epik_State_Penalty>
1.43411

> <r_epik_Charging_Adjusted_Penalty>
2.78977

> <i_epik_Tot_Q>
-1

> <i_epik_Tot_abs_Q>
1

> <r_epik_Metal_State_Penalty>
1.43499

> <b_epik_Metal_Only>
0

> <s_epik_Chemistry_Notes>
This compound has an imine and may undergo hydrolysis.

> <s_lp_Force_Field>
OPLS_2005

> <r_lp_Energy>
21.8368

> <b_lp_Chiralities_Consistent>
1

> <s_lp_Variant>
AV-unprocessed.smi:2618-4

> <Gold.Version>
5.8.1

> <Gold.Id.Protein>
6NUR|6NUR_protein|mol2

> <Gold.PLP.Fitness>
41.1160

> <Gold.PLP.PLP>
-34.5787

> <Gold.PLP.part.hbond>
-3.0000

> <Gold.PLP.part.metal>
0.0000

> <Gold.PLP.part.buried>
-3.0672

> <Gold.PLP.part.nonpolar>
-27.3812

> <Gold.PLP.part.repulsive>
0.0473

> <Gold.PLP.ligand.clash>
0.0000

> <Gold.PLP.ligand.torsion>
0.3828

> <Gold.PLP.Chemscore.Hbond>
2.3672

> <Gold.PLP.Chemscore.CHOScore>
0.0000

> <Gold.PLP.Chemscore.Metal>
0.0000

> <Gold.Chemscore.Hbonds>
donor molecule, donor type, donor heavy atom, donor atom, acceptor molecule, acceptor atom, score
      P1  H  7989  7998       L1    17  0.37
      P1  H  7997  8010       L1     6  0.99
      P1  H 10752 10763       L1     2  1.00

> <Gold.PLP.Chemscore.Internal.Correction>
0.2012

> <Gold.Rescore>
     Score         DG    S(hbond)    S(metal)    S(lipo)     H(rot)  DE(clash)    DE(int)     intcor
     13.36     -16.76       1.44        0.00      87.53       1.47       0.23       3.17       ----

> <Gold.Chemscore.Fitness>
13.3586

> <Gold.Chemscore.DG>
-16.7568

> <Gold.Chemscore.ZeroCoef>
-5.4800

> <Gold.Chemscore.Hbond>
1.4401

> <Gold.Chemscore.Metal>
0.0000

> <Gold.Chemscore.Lipo>
87.5287

> <Gold.Chemscore.Internal_Hbond>
0.0000

> <Gold.Chemscore.DEClash>
0.2274

> <Gold.Chemscore.DEInternal>
3.1708

> <Gold.Chemscore.Rot>
1.4742

> <Gold.Chemscore.Internal.Correction>
   9.000000E+99

> <Gold.Chemscore.Hbonds>
donor molecule, donor type, donor heavy atom, donor atom, acceptor molecule, acceptor atom, score
      P1  H  7989  7998       L1    17  0.36
      P1  H  7997  8010       L1     6  0.07
      P1  H 10752 10763       L1     2  0.67

> <Gold.Chemscore.Hbond.Weighted>
-4.8099

> <Gold.Chemscore.Metal.Weighted>
-0.0000

> <Gold.Chemscore.Lipo.Weighted>
-10.2409

> <Gold.Chemscore.Internal_Hbond.Weighted>
0.0000

> <Gold.Chemscore.DEClash.Weighted>
0.2274

> <Gold.Chemscore.DEInternal.Weighted>
3.1708

> <Gold.Chemscore.Rot.Weighted>
3.7740

> <Gold.Chemscore.Internal.Correction.Weighted>
   9.000000E+99

> <Gold.Protein.RotatedTorsions>
[ 6907 6896 6895 6894 ] final -133.34 input  -60.11 | X-H torsion
[ 7974 7965 7964 7962 ] final   42.24 input  175.53 | X-H torsion
[ 8008 7997 7996 7995 ] final   17.42 input   59.86 | X-H torsion
[ 10167 10162 10161 10158 ] final -167.46 input  -65.29 | X-H torsion
[ 10718 10713 10712 10709 ] final  -10.18 input   66.30 | X-H torsion
[ 10763 10752 10751 10750 ] final -169.84 input  -60.55 | X-H torsion
[ 11005 11000 10999 10996 ] final  -69.22 input  -57.11 | X-H torsion

> <Gold.Protein.ActiveResidues>
 VAL166  LYS551  ARG553  GLY616  TRP617  ASP618  TYR619  PRO620  LYS621  CYS622 
 ASP623  PHE694  ASN695  SER759  ASP760  ASP761  ALA762  ILE779  LEU786  VAL792 
 PHE793  MET794  SER795  GLU796  ALA797  LYS798  CYS799  TRP800  GLU811  SER814 

> <Gold.Protein.RotatedAtoms>
  150.9728  133.6326  159.2734 H   0  0  0  0  0  0  0  0  0  0  0  0  # atno 6907 bound_to 6896
  151.3608  135.0902  159.9443 H   0  0  0  0  0  0  0  0  0  0  0  0  # atno 6908 bound_to 6896
  152.5189  133.9302  159.7631 H   0  0  0  0  0  0  0  0  0  0  0  0  # atno 6909 bound_to 6896
  146.0757  139.5323  142.9569 H   0  0  0  0  0  0  0  0  0  0  0  0  # atno 7974 bound_to 7965
  154.8912  140.2987  155.5370 H   0  0  0  0  0  0  0  0  0  0  0  0  # atno 8008 bound_to 7997
  156.3021  140.2424  156.3862 H   0  0  0  0  0  0  0  0  0  0  0  0  # atno 8009 bound_to 7997
  154.8617  140.0405  157.1658 H   0  0  0  0  0  0  0  0  0  0  0  0  # atno 8010 bound_to 7997
  139.6048  144.0936  152.1781 H   0  0  0  0  0  0  0  0  0  0  0  0  # atno 10167 bound_to 10162
  156.6772  130.5026  149.5982 H   0  0  0  0  0  0  0  0  0  0  0  0  # atno 10718 bound_to 10713
  154.6479  135.2907  155.0023 H   0  0  0  0  0  0  0  0  0  0  0  0  # atno 10763 bound_to 10752
  154.1126  135.6560  153.4892 H   0  0  0  0  0  0  0  0  0  0  0  0  # atno 10764 bound_to 10752
  153.0361  135.5269  154.7374 H   0  0  0  0  0  0  0  0  0  0  0  0  # atno 10765 bound_to 10752
  141.1549  133.6759  156.6565 H   0  0  0  0  0  0  0  0  0  0  0  0  # atno 11005 bound_to 11000
  145.6311  141.0304  143.1863 LP  0  0  0  0  0  0  0  0  0  0  0  0  # atno 17320 bound_to 7965
  144.7260  139.7875  143.7365 LP  0  0  0  0  0  0  0  0  0  0  0  0  # atno 17321 bound_to 7965
  140.0540  144.5909  150.7314 LP  0  0  0  0  0  0  0  0  0  0  0  0  # atno 17342 bound_to 10162
  140.7276  143.2654  151.4064 LP  0  0  0  0  0  0  0  0  0  0  0  0  # atno 17343 bound_to 10162
  156.1894  130.6550  151.1044 LP  0  0  0  0  0  0  0  0  0  0  0  0  # atno 17370 bound_to 10713
  157.7056  131.0757  150.6676 LP  0  0  0  0  0  0  0  0  0  0  0  0  # atno 17371 bound_to 10713
  140.3280  134.7953  157.4304 LP  0  0  0  0  0  0  0  0  0  0  0  0  # atno 17394 bound_to 11000
  140.1041  134.5433  155.8326 LP  0  0  0  0  0  0  0  0  0  0  0  0  # atno 17395 bound_to 11000

$$$$
