AV-unprocessed.smi:671|AV-procd|sdf|3284|dock2
  -GOLD-   22720 0243D 1   1.00000     0.00000
 Structure written by MMmdl.
 50 51  0  0  0  0  0  0  0  0  2 V2000
  148.2551  141.4845  153.8608 C   0  0  0  0  0  0  0  0  0  0  0  0
  149.3961  141.2648  154.7961 C   0  0  0  0  0  0  0  0  0  0  0  0
  149.9035  142.2165  155.6248 N   0  3  0  0  0  0  0  0  0  0  0  0
  150.9235  141.7158  156.3365 N   0  0  0  0  0  0  0  0  0  0  0  0
  151.6083  142.5824  157.2962 C   0  0  0  0  0  0  0  0  0  0  0  0
  151.1301  140.4091  156.0075 C   0  0  0  0  0  0  0  0  0  0  0  0
  152.1840  139.5383  156.6095 C   0  0  0  0  0  0  0  0  0  0  0  0
  150.1642  140.1194  155.0353 C   0  0  0  0  0  0  0  0  0  0  0  0
  149.9829  138.7908  154.3556 C   0  0  0  0  0  0  0  0  0  0  0  0
  149.1842  137.7747  155.2023 C   0  0  1  0  0  0  0  0  0  0  0  0
  148.0459  138.4328  155.9979 C   0  0  0  0  0  0  0  0  0  0  0  0
  148.6157  136.7361  154.3403 N   0  0  0  0  0  0  0  0  0  0  0  0
  147.7441  135.7636  154.6648 C   0  0  0  0  0  0  0  0  0  0  0  0
  147.3114  135.6386  155.8085 O   0  0  0  0  0  0  0  0  0  0  0  0
  147.4028  134.9524  153.6485 N   0  0  0  0  0  0  0  0  0  0  0  0
  146.4679  133.8295  153.7285 C   0  0  1  0  0  0  0  0  0  0  0  0
  145.3165  134.0474  152.7371 C   0  0  0  0  0  0  0  0  0  0  0  0
  145.7053  133.2498  151.4959 C   0  0  0  0  0  0  0  0  0  0  0  0
  146.4075  132.0127  152.0490 C   0  0  0  0  0  0  0  0  0  0  0  0
  147.0963  132.4577  153.3520 C   0  0  1  0  0  0  0  0  0  0  0  0
  148.6331  132.4158  153.2445 C   0  0  0  0  0  0  0  0  0  0  0  0
  148.5966  141.4067  152.8283 H   0  0  0  0  0  0  0  0  0  0  0  0
  147.8201  142.4733  154.0097 H   0  0  0  0  0  0  0  0  0  0  0  0
  147.4799  140.7367  154.0287 H   0  0  0  0  0  0  0  0  0  0  0  0
  152.6536  142.2834  157.3765 H   0  0  0  0  0  0  0  0  0  0  0  0
  151.1253  142.4869  158.2687 H   0  0  0  0  0  0  0  0  0  0  0  0
  151.5583  143.6194  156.9614 H   0  0  0  0  0  0  0  0  0  0  0  0
  152.2281  138.5779  156.0985 H   0  0  0  0  0  0  0  0  0  0  0  0
  151.9675  139.3597  157.6627 H   0  0  0  0  0  0  0  0  0  0  0  0
  153.1618  140.0127  156.5277 H   0  0  0  0  0  0  0  0  0  0  0  0
  149.4888  138.9239  153.3924 H   0  0  0  0  0  0  0  0  0  0  0  0
  150.9639  138.3798  154.1156 H   0  0  0  0  0  0  0  0  0  0  0  0
  149.8522  137.3068  155.9272 H   0  0  0  0  0  0  0  0  0  0  0  0
  148.4248  139.1779  156.6977 H   0  0  0  0  0  0  0  0  0  0  0  0
  147.4972  137.6922  156.5808 H   0  0  0  0  0  0  0  0  0  0  0  0
  147.3337  138.9279  155.3368 H   0  0  0  0  0  0  0  0  0  0  0  0
  148.9321  136.7456  153.3812 H   0  0  0  0  0  0  0  0  0  0  0  0
  147.8210  135.1270  152.7468 H   0  0  0  0  0  0  0  0  0  0  0  0
  146.0529  133.7833  154.7371 H   0  0  0  0  0  0  0  0  0  0  0  0
  144.3976  133.6327  153.1546 H   0  0  0  0  0  0  0  0  0  0  0  0
  145.1245  135.0987  152.5173 H   0  0  0  0  0  0  0  0  0  0  0  0
  144.8474  133.0011  150.8706 H   0  0  0  0  0  0  0  0  0  0  0  0
  146.4048  133.8251  150.8890 H   0  0  0  0  0  0  0  0  0  0  0  0
  145.6631  131.2484  152.2767 H   0  0  0  0  0  0  0  0  0  0  0  0
  147.0987  131.5805  151.3244 H   0  0  0  0  0  0  0  0  0  0  0  0
  146.8180  131.7422  154.1272 H   0  0  0  0  0  0  0  0  0  0  0  0
  149.0018  133.0855  152.4667 H   0  0  0  0  0  0  0  0  0  0  0  0
  148.9762  131.4103  153.0001 H   0  0  0  0  0  0  0  0  0  0  0  0
  149.1036  132.6972  154.1868 H   0  0  0  0  0  0  0  0  0  0  0  0
  149.6070  143.1776  155.7392 H   0  0  0  0  0  0  0  0  0  0  0  0
  1  2  1  0  0  0  0
  1 22  1  0  0  0  0
  1 23  1  0  0  0  0
  1 24  1  0  0  0  0
  2  8  1  0  0  0  0
  2  3  2  0  0  0  0
  3  4  1  0  0  0  0
  3 50  1  0  0  0  0
  4  5  1  0  0  0  0
  4  6  1  0  0  0  0
  5 25  1  0  0  0  0
  5 26  1  0  0  0  0
  5 27  1  0  0  0  0
  6  7  1  0  0  0  0
  6  8  2  0  0  0  0
  7 28  1  0  0  0  0
  7 29  1  0  0  0  0
  7 30  1  0  0  0  0
  8  9  1  0  0  0  0
  9 10  1  0  0  0  0
  9 31  1  0  0  0  0
  9 32  1  0  0  0  0
 10 11  1  0  0  0  0
 10 12  1  0  0  0  0
 10 33  1  0  0  0  0
 11 34  1  0  0  0  0
 11 35  1  0  0  0  0
 11 36  1  0  0  0  0
 12 13  1  0  0  0  0
 12 37  1  0  0  0  0
 13 14  2  0  0  0  0
 13 15  1  0  0  0  0
 15 16  1  0  0  0  0
 15 38  1  0  0  0  0
 16 20  1  0  0  0  0
 16 17  1  0  0  0  0
 16 39  1  0  0  0  0
 17 18  1  0  0  0  0
 17 40  1  0  0  0  0
 17 41  1  0  0  0  0
 18 19  1  0  0  0  0
 18 42  1  0  0  0  0
 18 43  1  0  0  0  0
 19 20  1  0  0  0  0
 19 44  1  0  0  0  0
 19 45  1  0  0  0  0
 20 21  1  0  0  0  0
 20 46  1  0  0  0  0
 21 47  1  0  0  0  0
 21 48  1  0  0  0  0
 21 49  1  0  0  0  0
M  CHG  1   3   1
M  END
> <s_m_source_file>
AV-unprocessed.smi

> <i_m_source_file_index>
671

> <i_lp_mmshare_version>
43012

> <i_f3d_flags>
0

> <s_epik_input>
W0NIM11jMW5uKFtDSDNdKWMoW0NIM10pYzFbQ0gyXVtDQEhdKFtDSDNdKVtOSF1DKD1PKVtOSF1bQ0BASF0yW0NIMl1bQ0gyXVtDSDJdW0NASF0yW0NIM10=

> <s_epik_cmdline>
J2VwaWtfcHl0aG9uJywgJy1waCcsICc3LjAnLCAnLXRuJywgJzgnLCAnLW1hJywgJzIwMCcsICctbWV0YWxfYmluZGluZycsICctaW1hZScsICc8aW5maWxlLm1hZT4nLCAnLW9tYWUnLCAnPG91dGZpbGUubWFlPic=

> <r_lp_tautomer_probability>
1

> <r_epik_Ionization_Penalty>
2.28705

> <r_epik_Ionization_Penalty_Charging>
2.28698

> <r_epik_Ionization_Penalty_Neutral>
6.23157e-05

> <r_epik_State_Penalty>
2.43671

> <r_epik_Charging_Adjusted_Penalty>
4.72369

> <i_epik_Tot_Q>
1

> <i_epik_Tot_abs_Q>
1

> <r_epik_Metal_State_Penalty>
2.44911

> <b_epik_Metal_Only>
0

> <s_lp_Force_Field>
OPLS_2005

> <r_lp_Energy>
36.9698

> <b_lp_Chiralities_Consistent>
1

> <s_lp_Variant>
AV-unprocessed.smi:671-12

> <Gold.Version>
5.8.1

> <Gold.Id.Protein>
6NUR|6NUR_protein|mol2

> <Gold.PLP.Fitness>
45.9965

> <Gold.PLP.PLP>
-35.6070

> <Gold.PLP.part.hbond>
-2.9466

> <Gold.PLP.part.metal>
0.0000

> <Gold.PLP.part.buried>
-3.3217

> <Gold.PLP.part.nonpolar>
-29.5881

> <Gold.PLP.part.repulsive>
0.2114

> <Gold.PLP.ligand.clash>
0.0000

> <Gold.PLP.ligand.torsion>
0.6134

> <Gold.PLP.Chemscore.Hbond>
3.8640

> <Gold.PLP.Chemscore.CHOScore>
0.0000

> <Gold.PLP.Chemscore.Metal>
0.0000

> <Gold.Chemscore.Hbonds>
donor molecule, donor type, donor heavy atom, donor atom, acceptor molecule, acceptor atom, score
      L1  H     3    50       P1  8028  2.00
      L1  H    12    37       P1  7948  1.00
      L1  H    15    38       P1  7948  0.90

> <Gold.PLP.Chemscore.Internal.Correction>
0.0242

> <Gold.Rescore>
     Score         DG    S(hbond)    S(metal)    S(lipo)     H(rot)  DE(clash)    DE(int)     intcor
     18.76     -20.88       2.79        0.00      84.95       1.51       0.30       1.82       ----

> <Gold.Chemscore.Fitness>
18.7578

> <Gold.Chemscore.DG>
-20.8829

> <Gold.Chemscore.ZeroCoef>
-5.4800

> <Gold.Chemscore.Hbond>
2.7899

> <Gold.Chemscore.Metal>
0.0000

> <Gold.Chemscore.Lipo>
84.9524

> <Gold.Chemscore.Internal_Hbond>
0.0000

> <Gold.Chemscore.DEClash>
0.3023

> <Gold.Chemscore.DEInternal>
1.8229

> <Gold.Chemscore.Rot>
1.5057

> <Gold.Chemscore.Internal.Correction>
   9.000000E+99

> <Gold.Chemscore.Hbonds>
donor molecule, donor type, donor heavy atom, donor atom, acceptor molecule, acceptor atom, score
      L1  H     3    50       P1  8028  1.00
      L1  H    12    37       P1  7948  0.96
      L1  H    15    38       P1  7948  0.87

> <Gold.Chemscore.Hbond.Weighted>
-9.3182

> <Gold.Chemscore.Metal.Weighted>
-0.0000

> <Gold.Chemscore.Lipo.Weighted>
-9.9394

> <Gold.Chemscore.Internal_Hbond.Weighted>
0.0000

> <Gold.Chemscore.DEClash.Weighted>
0.3023

> <Gold.Chemscore.DEInternal.Weighted>
1.8229

> <Gold.Chemscore.Rot.Weighted>
3.8547

> <Gold.Chemscore.Internal.Correction.Weighted>
   9.000000E+99

> <Gold.Protein.RotatedTorsions>
[ 6907 6896 6895 6894 ] final   89.31 input  -60.11 | X-H torsion
[ 7974 7965 7964 7962 ] final  -70.04 input  175.53 | X-H torsion
[ 8008 7997 7996 7995 ] final -118.54 input   59.86 | X-H torsion
[ 10167 10162 10161 10158 ] final   97.13 input  -65.29 | X-H torsion
[ 10718 10713 10712 10709 ] final  -79.65 input   66.30 | X-H torsion
[ 10763 10752 10751 10750 ] final  -17.78 input  -60.55 | X-H torsion
[ 11005 11000 10999 10996 ] final  -48.74 input  -57.11 | X-H torsion

> <Gold.Protein.ActiveResidues>
 VAL166  LYS551  ARG553  GLY616  TRP617  ASP618  TYR619  PRO620  LYS621  CYS622 
 ASP623  PHE694  ASN695  SER759  ASP760  ASP761  ALA762  ILE779  LEU786  VAL792 
 PHE793  MET794  SER795  GLU796  ALA797  LYS798  CYS799  TRP800  GLU811  SER814 

> <Gold.Protein.RotatedAtoms>
  152.5435  134.1987  159.8702 H   0  0  0  0  0  0  0  0  0  0  0  0  # atno 6907 bound_to 6896
  151.1977  133.4622  159.2603 H   0  0  0  0  0  0  0  0  0  0  0  0  # atno 6908 bound_to 6896
  151.1020  134.9990  159.8509 H   0  0  0  0  0  0  0  0  0  0  0  0  # atno 6909 bound_to 6896
  145.6961  140.9134  143.0756 H   0  0  0  0  0  0  0  0  0  0  0  0  # atno 7974 bound_to 7965
  155.1013  140.0396  157.2697 H   0  0  0  0  0  0  0  0  0  0  0  0  # atno 8008 bound_to 7997
  154.6756  140.2622  155.6936 H   0  0  0  0  0  0  0  0  0  0  0  0  # atno 8009 bound_to 7997
  156.2675  140.2789  156.1281 H   0  0  0  0  0  0  0  0  0  0  0  0  # atno 8010 bound_to 7997
  139.7829  144.6881  150.9997 H   0  0  0  0  0  0  0  0  0  0  0  0  # atno 10167 bound_to 10162
  156.0088  130.4552  150.3681 H   0  0  0  0  0  0  0  0  0  0  0  0  # atno 10718 bound_to 10713
  153.5791  135.7005  153.5471 H   0  0  0  0  0  0  0  0  0  0  0  0  # atno 10763 bound_to 10752
  153.3276  135.4056  155.1469 H   0  0  0  0  0  0  0  0  0  0  0  0  # atno 10764 bound_to 10752
  154.8620  135.3711  154.5318 H   0  0  0  0  0  0  0  0  0  0  0  0  # atno 10765 bound_to 10752
  141.0719  133.6677  156.3485 H   0  0  0  0  0  0  0  0  0  0  0  0  # atno 11005 bound_to 11000
  144.6982  139.8885  143.7451 LP  0  0  0  0  0  0  0  0  0  0  0  0  # atno 17320 bound_to 7965
  146.0839  139.3827  143.0447 LP  0  0  0  0  0  0  0  0  0  0  0  0  # atno 17321 bound_to 7965
  140.7819  143.4463  151.0478 LP  0  0  0  0  0  0  0  0  0  0  0  0  # atno 17342 bound_to 10162
  139.8143  143.7908  152.3173 LP  0  0  0  0  0  0  0  0  0  0  0  0  # atno 17343 bound_to 10162
  157.1766  131.0382  151.2769 LP  0  0  0  0  0  0  0  0  0  0  0  0  # atno 17370 bound_to 10713
  157.4182  130.7423  149.6892 LP  0  0  0  0  0  0  0  0  0  0  0  0  # atno 17371 bound_to 10713
  140.5656  134.5891  157.5445 LP  0  0  0  0  0  0  0  0  0  0  0  0  # atno 17394 bound_to 11000
  139.9532  134.7581  156.0402 LP  0  0  0  0  0  0  0  0  0  0  0  0  # atno 17395 bound_to 11000

$$$$
