AV-unprocessed.smi:715|AV-procd|sdf|3485|dock10
  -GOLD-   22720 0483D 1   1.00000     0.00000
 Structure written by MMmdl.
 39 40  0  0  0  0  0  0  0  0  1 V2000
  144.4791  132.1274  149.8843 C   0  0  0  0  0  0  0  0  0  0  0  0
  144.8844  133.3252  150.5879 N   0  0  0  0  0  0  0  0  0  0  0  0
  144.0933  134.3188  151.1231 C   0  0  0  0  0  0  0  0  0  0  0  0
  144.9236  135.2455  151.6903 C   0  0  0  0  0  0  0  0  0  0  0  0
  144.5759  136.5188  152.4153 C   0  0  1  0  0  0  0  0  0  0  0  0
  145.0914  137.6455  151.7345 O   0  0  0  0  0  0  0  0  0  0  0  0
  143.0497  136.6785  152.5270 C   0  0  0  0  0  0  0  0  0  0  0  0
  142.7018  137.8855  153.2660 N   0  0  0  0  0  0  0  0  0  0  0  0
  141.8567  137.9208  154.3058 C   0  0  0  0  0  0  0  0  0  0  0  0
  141.2936  136.9201  154.7497 O   0  0  0  0  0  0  0  0  0  0  0  0
  141.6187  139.2947  154.9425 C   0  0  0  0  0  0  0  0  0  0  0  0
  140.6876  140.2065  154.1162 C   0  0  0  0  0  0  0  0  0  0  0  0
  140.3359  141.5419  154.7832 C   0  0  0  0  0  0  0  0  0  0  0  0
  139.0502  142.0125  154.0927 C   0  0  0  0  0  0  0  0  0  0  0  0
  138.4212  140.7660  153.4514 C   0  0  0  0  0  0  0  0  0  0  0  0
  139.3156  139.5861  153.8442 C   0  0  0  0  0  0  0  0  0  0  0  0
  146.2224  134.7139  151.4465 C   0  0  0  0  0  0  0  0  0  0  0  0
  146.1960  133.5682  150.7854 N   0  0  0  0  0  0  0  0  0  0  0  0
  143.3911  132.0586  149.8581 H   0  0  0  0  0  0  0  0  0  0  0  0
  144.8776  131.2482  150.3915 H   0  0  0  0  0  0  0  0  0  0  0  0
  144.8578  132.1546  148.8620 H   0  0  0  0  0  0  0  0  0  0  0  0
  143.0155  134.2861  151.0592 H   0  0  0  0  0  0  0  0  0  0  0  0
  145.0119  136.5073  153.4154 H   0  0  0  0  0  0  0  0  0  0  0  0
  144.4356  137.9551  151.1284 H   0  0  0  0  0  0  0  0  0  0  0  0
  142.5804  136.6814  151.5415 H   0  0  0  0  0  0  0  0  0  0  0  0
  142.6373  135.8275  153.0719 H   0  0  0  0  0  0  0  0  0  0  0  0
  143.1213  138.7502  152.9569 H   0  0  0  0  0  0  0  0  0  0  0  0
  141.1879  139.1343  155.9312 H   0  0  0  0  0  0  0  0  0  0  0  0
  142.5760  139.7936  155.1014 H   0  0  0  0  0  0  0  0  0  0  0  0
  141.1520  140.4175  153.1510 H   0  0  0  0  0  0  0  0  0  0  0  0
  140.1388  141.3847  155.8447 H   0  0  0  0  0  0  0  0  0  0  0  0
  141.1391  142.2753  154.7036 H   0  0  0  0  0  0  0  0  0  0  0  0
  138.3742  142.4879  154.8042 H   0  0  0  0  0  0  0  0  0  0  0  0
  139.2814  142.7487  153.3216 H   0  0  0  0  0  0  0  0  0  0  0  0
  137.3909  140.6135  153.7740 H   0  0  0  0  0  0  0  0  0  0  0  0
  138.4100  140.8787  152.3665 H   0  0  0  0  0  0  0  0  0  0  0  0
  139.3501  138.8156  153.0733 H   0  0  0  0  0  0  0  0  0  0  0  0
  138.9279  139.1254  154.7540 H   0  0  0  0  0  0  0  0  0  0  0  0
  147.1793  135.1262  151.7305 H   0  0  0  0  0  0  0  0  0  0  0  0
  1  2  1  0  0  0  0
  1 19  1  0  0  0  0
  1 20  1  0  0  0  0
  1 21  1  0  0  0  0
  2 18  1  0  0  0  0
  2  3  1  0  0  0  0
  3  4  2  0  0  0  0
  3 22  1  0  0  0  0
  4  5  1  0  0  0  0
  4 17  1  0  0  0  0
  5  6  1  0  0  0  0
  5  7  1  0  0  0  0
  5 23  1  0  0  0  0
  6 24  1  0  0  0  0
  7  8  1  0  0  0  0
  7 25  1  0  0  0  0
  7 26  1  0  0  0  0
  8  9  1  0  0  0  0
  8 27  1  0  0  0  0
  9 10  2  0  0  0  0
  9 11  1  0  0  0  0
 11 12  1  0  0  0  0
 11 28  1  0  0  0  0
 11 29  1  0  0  0  0
 12 16  1  0  0  0  0
 12 13  1  0  0  0  0
 12 30  1  0  0  0  0
 13 14  1  0  0  0  0
 13 31  1  0  0  0  0
 13 32  1  0  0  0  0
 14 15  1  0  0  0  0
 14 33  1  0  0  0  0
 14 34  1  0  0  0  0
 15 16  1  0  0  0  0
 15 35  1  0  0  0  0
 15 36  1  0  0  0  0
 16 37  1  0  0  0  0
 16 38  1  0  0  0  0
 17 18  2  0  0  0  0
 17 39  1  0  0  0  0
M  END
> <s_m_source_file>
AV-unprocessed.smi

> <i_m_source_file_index>
715

> <i_lp_mmshare_version>
43012

> <i_f3d_flags>
0

> <s_epik_input>
W0NIM11uMVtjSF1jKFtjSF1uMSlbQ0BIXShbT0hdKVtDSDJdW05IXUMoPU8pW0NIMl1bQ0hdMltDSDJdW0NIMl1bQ0gyXVtDSDJdMg==

> <s_epik_cmdline>
J2VwaWtfcHl0aG9uJywgJy1waCcsICc3LjAnLCAnLXRuJywgJzgnLCAnLW1hJywgJzIwMCcsICctbWV0YWxfYmluZGluZycsICctaW1hZScsICc8aW5maWxlLm1hZT4nLCAnLW9tYWUnLCAnPG91dGZpbGUubWFlPic=

> <r_lp_tautomer_probability>
1

> <r_epik_Ionization_Penalty>
4.45533e-05

> <r_epik_Ionization_Penalty_Charging>
0

> <r_epik_Ionization_Penalty_Neutral>
4.45533e-05

> <r_epik_State_Penalty>
-0

> <r_epik_Charging_Adjusted_Penalty>
0

> <i_epik_Tot_Q>
0

> <i_epik_Tot_abs_Q>
0

> <r_epik_Metal_State_Penalty>
-0

> <b_epik_Metal_Only>
0

> <s_lp_Force_Field>
OPLS_2005

> <r_lp_Energy>
19.2831

> <b_lp_Chiralities_Consistent>
1

> <s_lp_Variant>
AV-unprocessed.smi:715-2

> <Gold.Version>
5.8.1

> <Gold.Id.Protein>
6NUR|6NUR_protein|mol2

> <Gold.PLP.Fitness>
41.3464

> <Gold.PLP.PLP>
-29.8385

> <Gold.PLP.part.hbond>
-2.1426

> <Gold.PLP.part.metal>
0.0000

> <Gold.PLP.part.buried>
-5.4028

> <Gold.PLP.part.nonpolar>
-22.3708

> <Gold.PLP.part.repulsive>
0.2351

> <Gold.PLP.ligand.clash>
0.0000

> <Gold.PLP.ligand.torsion>
0.2660

> <Gold.PLP.Chemscore.Hbond>
2.0000

> <Gold.PLP.Chemscore.CHOScore>
2.0000

> <Gold.PLP.Chemscore.Metal>
0.0000

> <Gold.Chemscore.Hbonds>
donor molecule, donor type, donor heavy atom, donor atom, acceptor molecule, acceptor atom, score
      L1  H     6    24       P1 10171  1.00
      L1  H     8    27       P1 10175  1.00
      L1  C     3    22       P1 10186  1.00
      L1  C    17    39       P1  7948  1.00

> <Gold.PLP.Chemscore.Internal.Correction>
0.0398

> <Gold.Rescore>
     Score         DG    S(hbond)    S(metal)    S(lipo)     H(rot)  DE(clash)    DE(int)     intcor
     13.61     -14.00       1.97        0.00      66.70       2.29       0.10       0.29       ----

> <Gold.Chemscore.Fitness>
13.6134

> <Gold.Chemscore.DG>
-13.9964

> <Gold.Chemscore.ZeroCoef>
-5.4800

> <Gold.Chemscore.Hbond>
1.9660

> <Gold.Chemscore.Metal>
0.0000

> <Gold.Chemscore.Lipo>
66.6990

> <Gold.Chemscore.Internal_Hbond>
0.0000

> <Gold.Chemscore.DEClash>
0.0957

> <Gold.Chemscore.DEInternal>
0.2873

> <Gold.Chemscore.Rot>
2.2866

> <Gold.Chemscore.Internal.Correction>
   9.000000E+99

> <Gold.Chemscore.Hbonds>
donor molecule, donor type, donor heavy atom, donor atom, acceptor molecule, acceptor atom, score
      L1  H     6    24       P1 10171  0.96
      L1  H     8    27       P1 10175  1.00

> <Gold.Chemscore.Hbond.Weighted>
-6.5664

> <Gold.Chemscore.Metal.Weighted>
-0.0000

> <Gold.Chemscore.Lipo.Weighted>
-7.8038

> <Gold.Chemscore.Internal_Hbond.Weighted>
0.0000

> <Gold.Chemscore.DEClash.Weighted>
0.0957

> <Gold.Chemscore.DEInternal.Weighted>
0.2873

> <Gold.Chemscore.Rot.Weighted>
5.8538

> <Gold.Chemscore.Internal.Correction.Weighted>
   9.000000E+99

> <Gold.Protein.RotatedTorsions>
[ 6907 6896 6895 6894 ] final  105.62 input  -60.11 | X-H torsion
[ 7974 7965 7964 7962 ] final -153.68 input  175.53 | X-H torsion
[ 8008 7997 7996 7995 ] final  118.87 input   59.86 | X-H torsion
[ 10167 10162 10161 10158 ] final   11.98 input  -65.29 | X-H torsion
[ 10718 10713 10712 10709 ] final   47.27 input   66.30 | X-H torsion
[ 10763 10752 10751 10750 ] final -106.21 input  -60.55 | X-H torsion
[ 11005 11000 10999 10996 ] final  158.52 input  -57.11 | X-H torsion

> <Gold.Protein.ActiveResidues>
 VAL166  LYS551  ARG553  GLY616  TRP617  ASP618  TYR619  PRO620  LYS621  CYS622 
 ASP623  PHE694  ASN695  SER759  ASP760  ASP761  ALA762  ILE779  LEU786  VAL792 
 PHE793  MET794  SER795  GLU796  ALA797  LYS798  CYS799  TRP800  GLU811  SER814 

> <Gold.Protein.RotatedAtoms>
  152.5224  133.9502  159.7667 H   0  0  0  0  0  0  0  0  0  0  0  0  # atno 6907 bound_to 6896
  150.9813  133.6234  159.2729 H   0  0  0  0  0  0  0  0  0  0  0  0  # atno 6908 bound_to 6896
  151.3410  135.0869  159.9424 H   0  0  0  0  0  0  0  0  0  0  0  0  # atno 6909 bound_to 6896
  144.7728  140.4493  143.5895 H   0  0  0  0  0  0  0  0  0  0  0  0  # atno 7974 bound_to 7965
  156.2568  140.2865  156.0903 H   0  0  0  0  0  0  0  0  0  0  0  0  # atno 8008 bound_to 7997
  155.1470  140.0396  157.2829 H   0  0  0  0  0  0  0  0  0  0  0  0  # atno 8009 bound_to 7997
  154.6488  140.2540  155.7244 H   0  0  0  0  0  0  0  0  0  0  0  0  # atno 8010 bound_to 7997
  140.6097  143.8433  150.7052 H   0  0  0  0  0  0  0  0  0  0  0  0  # atno 10167 bound_to 10162
  157.4568  130.8172  149.7844 H   0  0  0  0  0  0  0  0  0  0  0  0  # atno 10718 bound_to 10713
  154.7997  135.4720  154.0247 H   0  0  0  0  0  0  0  0  0  0  0  0  # atno 10763 bound_to 10752
  153.1762  135.6833  153.8547 H   0  0  0  0  0  0  0  0  0  0  0  0  # atno 10764 bound_to 10752
  153.8113  135.3216  155.3378 H   0  0  0  0  0  0  0  0  0  0  0  0  # atno 10765 bound_to 10752
  140.1873  134.8433  157.2871 H   0  0  0  0  0  0  0  0  0  0  0  0  # atno 11005 bound_to 11000
  145.6273  139.1531  143.2989 LP  0  0  0  0  0  0  0  0  0  0  0  0  # atno 17320 bound_to 7965
  146.1887  140.6379  142.9155 LP  0  0  0  0  0  0  0  0  0  0  0  0  # atno 17321 bound_to 7965
  140.1998  143.3968  152.1800 LP  0  0  0  0  0  0  0  0  0  0  0  0  # atno 17342 bound_to 10162
  139.5352  144.7202  151.4918 LP  0  0  0  0  0  0  0  0  0  0  0  0  # atno 17343 bound_to 10162
  156.0011  130.3880  150.2604 LP  0  0  0  0  0  0  0  0  0  0  0  0  # atno 17370 bound_to 10713
  157.0779  131.0135  151.3167 LP  0  0  0  0  0  0  0  0  0  0  0  0  # atno 17371 bound_to 10713
  140.2200  134.4035  155.7570 LP  0  0  0  0  0  0  0  0  0  0  0  0  # atno 17394 bound_to 11000
  141.2225  133.7161  156.8474 LP  0  0  0  0  0  0  0  0  0  0  0  0  # atno 17395 bound_to 11000

$$$$
