AV-unprocessed.smi:2786|AV-procd|sdf|10749|dock5
  -GOLD-   2272015183D 1   1.00000     0.00000
 Structure written by MMmdl.
 27 28  0  0  0  0  0  0  0  0  2 V2000
  152.5614  144.6818  158.0951 C   0  0  0  0  0  0  0  0  0  0  0  0
  152.4495  143.5237  158.9605 N   0  0  0  0  0  0  0  0  0  0  0  0
  153.3084  143.2033  160.0037 C   0  0  0  0  0  0  0  0  0  0  0  0
  152.8458  142.0306  160.5495 C   0  0  0  0  0  0  0  0  0  0  0  0
  151.7111  141.6179  159.8596 N   0  0  0  0  0  0  0  0  0  0  0  0
  151.5173  142.5510  158.9302 C   0  0  0  0  0  0  0  0  0  0  0  0
  150.4001  142.5163  157.9273 C   0  0  1  0  0  0  0  0  0  0  0  0
  150.9376  142.3094  156.4939 C   0  0  0  0  0  0  0  0  0  0  0  0
  149.8265  142.3221  155.5198 N   0  3  0  0  0  0  0  0  0  0  0  0
  148.7951  141.3260  155.8729 C   0  0  0  0  0  0  0  0  0  0  0  0
  148.3072  141.5637  157.3137 C   0  0  0  0  0  0  0  0  0  0  0  0
  149.4343  141.4612  158.2355 N   0  0  0  0  0  0  0  0  0  0  0  0
  153.4778  145.2297  158.3168 H   0  0  0  0  0  0  0  0  0  0  0  0
  151.7090  145.3431  158.2522 H   0  0  0  0  0  0  0  0  0  0  0  0
  152.5857  144.3647  157.0521 H   0  0  0  0  0  0  0  0  0  0  0  0
  154.1569  143.8188  160.2644 H   0  0  0  0  0  0  0  0  0  0  0  0
  153.2380  141.4569  161.3762 H   0  0  0  0  0  0  0  0  0  0  0  0
  149.8709  143.4686  157.9775 H   0  0  0  0  0  0  0  0  0  0  0  0
  151.6393  143.1021  156.2326 H   0  0  0  0  0  0  0  0  0  0  0  0
  151.4791  141.3651  156.4153 H   0  0  0  0  0  0  0  0  0  0  0  0
  149.4037  143.2392  155.5246 H   0  0  0  0  0  0  0  0  0  0  0  0
  147.9646  141.4086  155.1717 H   0  0  0  0  0  0  0  0  0  0  0  0
  149.2062  140.3209  155.7661 H   0  0  0  0  0  0  0  0  0  0  0  0
  147.8273  142.5387  157.4121 H   0  0  0  0  0  0  0  0  0  0  0  0
  147.5640  140.8131  157.5837 H   0  0  0  0  0  0  0  0  0  0  0  0
  149.8810  140.5666  158.0893 H   0  0  0  0  0  0  0  0  0  0  0  0
  150.1839  142.1266  154.5957 H   0  0  0  0  0  0  0  0  0  0  0  0
  1  2  1  0  0  0  0
  1 13  1  0  0  0  0
  1 14  1  0  0  0  0
  1 15  1  0  0  0  0
  2  6  1  0  0  0  0
  2  3  1  0  0  0  0
  3  4  2  0  0  0  0
  3 16  1  0  0  0  0
  4  5  1  0  0  0  0
  4 17  1  0  0  0  0
  5  6  2  0  0  0  0
  6  7  1  0  0  0  0
  7 12  1  0  0  0  0
  7  8  1  0  0  0  0
  7 18  1  0  0  0  0
  8  9  1  0  0  0  0
  8 19  1  0  0  0  0
  8 20  1  0  0  0  0
  9 10  1  0  0  0  0
  9 21  1  0  0  0  0
  9 27  1  0  0  0  0
 10 11  1  0  0  0  0
 10 22  1  0  0  0  0
 10 23  1  0  0  0  0
 11 12  1  0  0  0  0
 11 24  1  0  0  0  0
 11 25  1  0  0  0  0
 12 26  1  0  0  0  0
M  CHG  1   9   1
M  END
> <s_m_source_file>
AV-unprocessed.smi

> <i_m_source_file_index>
2786

> <i_lp_mmshare_version>
43012

> <i_f3d_flags>
0

> <s_epik_input>
W0NIM11uMVtjSF1bY0hdbmMxW0NAQEhdMltDSDJdW05IXVtDSDJdW0NIMl1bTkhdMg==

> <s_epik_cmdline>
J2VwaWtfcHl0aG9uJywgJy1waCcsICc3LjAnLCAnLXRuJywgJzgnLCAnLW1hJywgJzIwMCcsICctbWV0YWxfYmluZGluZycsICctaW1hZScsICc8aW5maWxlLm1hZT4nLCAnLW9tYWUnLCAnPG91dGZpbGUubWFlPic=

> <r_lp_tautomer_probability>
1

> <r_epik_Ionization_Penalty>
0.130484

> <r_epik_Ionization_Penalty_Charging>
0.130409

> <r_epik_Ionization_Penalty_Neutral>
7.57914e-05

> <r_epik_State_Penalty>
0.270147

> <r_epik_Charging_Adjusted_Penalty>
0.400555

> <i_epik_Tot_Q>
1

> <i_epik_Tot_abs_Q>
1

> <r_epik_Metal_State_Penalty>
0.136376

> <b_epik_Metal_Only>
0

> <s_lp_Force_Field>
OPLS_2005

> <r_lp_Energy>
9.37099

> <b_lp_Chiralities_Consistent>
1

> <s_lp_Variant>
AV-unprocessed.smi:2786-2

> <Gold.Version>
5.8.1

> <Gold.Id.Protein>
6NUR|6NUR_protein|mol2

> <Gold.PLP.Fitness>
33.9169

> <Gold.PLP.PLP>
-28.1366

> <Gold.PLP.part.hbond>
-1.5421

> <Gold.PLP.part.metal>
0.0000

> <Gold.PLP.part.buried>
-3.4274

> <Gold.PLP.part.nonpolar>
-22.8022

> <Gold.PLP.part.repulsive>
0.1852

> <Gold.PLP.ligand.clash>
0.0000

> <Gold.PLP.ligand.torsion>
0.1136

> <Gold.PLP.Chemscore.Hbond>
2.0000

> <Gold.PLP.Chemscore.CHOScore>
0.0000

> <Gold.PLP.Chemscore.Metal>
0.0000

> <Gold.Chemscore.Hbonds>
donor molecule, donor type, donor heavy atom, donor atom, acceptor molecule, acceptor atom, score
      L1  H     9    21       P1  8028  2.00

> <Gold.PLP.Chemscore.Internal.Correction>
0.0076

> <Gold.Rescore>
     Score         DG    S(hbond)    S(metal)    S(lipo)     H(rot)  DE(clash)    DE(int)     intcor
     13.41     -13.43       1.00        0.00      61.34       1.00       0.01       0.01       ----

> <Gold.Chemscore.Fitness>
13.4114

> <Gold.Chemscore.DG>
-13.4314

> <Gold.Chemscore.ZeroCoef>
-5.4800

> <Gold.Chemscore.Hbond>
0.9983

> <Gold.Chemscore.Metal>
0.0000

> <Gold.Chemscore.Lipo>
61.3429

> <Gold.Chemscore.Internal_Hbond>
0.0000

> <Gold.Chemscore.DEClash>
0.0135

> <Gold.Chemscore.DEInternal>
0.0064

> <Gold.Chemscore.Rot>
1.0000

> <Gold.Chemscore.Internal.Correction>
   9.000000E+99

> <Gold.Chemscore.Hbonds>
donor molecule, donor type, donor heavy atom, donor atom, acceptor molecule, acceptor atom, score
      L1  H     9    21       P1  8028  0.97

> <Gold.Chemscore.Hbond.Weighted>
-3.3342

> <Gold.Chemscore.Metal.Weighted>
-0.0000

> <Gold.Chemscore.Lipo.Weighted>
-7.1771

> <Gold.Chemscore.Internal_Hbond.Weighted>
0.0000

> <Gold.Chemscore.DEClash.Weighted>
0.0135

> <Gold.Chemscore.DEInternal.Weighted>
0.0064

> <Gold.Chemscore.Rot.Weighted>
2.5600

> <Gold.Chemscore.Internal.Correction.Weighted>
   9.000000E+99

> <Gold.Protein.RotatedTorsions>
[ 6907 6896 6895 6894 ] final  -58.05 input  -60.11 | X-H torsion
[ 7974 7965 7964 7962 ] final  -38.93 input  175.53 | X-H torsion
[ 8008 7997 7996 7995 ] final  -95.38 input   59.86 | X-H torsion
[ 10167 10162 10161 10158 ] final -144.87 input  -65.29 | X-H torsion
[ 10718 10713 10712 10709 ] final   29.51 input   66.30 | X-H torsion
[ 10763 10752 10751 10750 ] final  147.84 input  -60.55 | X-H torsion
[ 11005 11000 10999 10996 ] final   71.13 input  -57.11 | X-H torsion

> <Gold.Protein.ActiveResidues>
 VAL166  LYS551  ARG553  GLY616  TRP617  ASP618  TYR619  PRO620  LYS621  CYS622 
 ASP623  PHE694  ASN695  SER759  ASP760  ASP761  ALA762  ILE779  LEU786  VAL792 
 PHE793  MET794  SER795  GLU796  ALA797  LYS798  CYS799  TRP800  GLU811  SER814 

> <Gold.Protein.RotatedAtoms>
  150.8037  134.7148  159.6624 H   0  0  0  0  0  0  0  0  0  0  0  0  # atno 6907 bound_to 6896
  152.4156  134.6045  160.0019 H   0  0  0  0  0  0  0  0  0  0  0  0  # atno 6908 bound_to 6896
  151.6275  133.3297  159.3137 H   0  0  0  0  0  0  0  0  0  0  0  0  # atno 6909 bound_to 6896
  146.0443  140.6567  142.9072 H   0  0  0  0  0  0  0  0  0  0  0  0  # atno 7974 bound_to 7965
  154.7605  140.0480  157.0970 H   0  0  0  0  0  0  0  0  0  0  0  0  # atno 8008 bound_to 7997
  154.9943  140.3117  155.4874 H   0  0  0  0  0  0  0  0  0  0  0  0  # atno 8009 bound_to 7997
  156.2903  140.2213  156.5050 H   0  0  0  0  0  0  0  0  0  0  0  0  # atno 8010 bound_to 7997
  139.7858  143.8035  152.2644 H   0  0  0  0  0  0  0  0  0  0  0  0  # atno 10167 bound_to 10162
  157.2476  130.7099  149.6389 H   0  0  0  0  0  0  0  0  0  0  0  0  # atno 10718 bound_to 10713
  154.0450  135.2886  155.3349 H   0  0  0  0  0  0  0  0  0  0  0  0  # atno 10763 bound_to 10752
  154.6905  135.5228  153.8389 H   0  0  0  0  0  0  0  0  0  0  0  0  # atno 10764 bound_to 10752
  153.0584  135.6604  154.0651 H   0  0  0  0  0  0  0  0  0  0  0  0  # atno 10765 bound_to 10752
  139.9560  134.7143  156.0752 H   0  0  0  0  0  0  0  0  0  0  0  0  # atno 11005 bound_to 11000
  144.7090  140.3964  143.7095 LP  0  0  0  0  0  0  0  0  0  0  0  0  # atno 17320 bound_to 7965
  145.6833  139.1623  143.2688 LP  0  0  0  0  0  0  0  0  0  0  0  0  # atno 17321 bound_to 7965
  139.8112  144.7335  150.9695 LP  0  0  0  0  0  0  0  0  0  0  0  0  # atno 17342 bound_to 10162
  140.7819  143.4249  151.0784 LP  0  0  0  0  0  0  0  0  0  0  0  0  # atno 17343 bound_to 10162
  155.9667  130.4438  150.5436 LP  0  0  0  0  0  0  0  0  0  0  0  0  # atno 17370 bound_to 10713
  157.3313  131.0700  151.1859 LP  0  0  0  0  0  0  0  0  0  0  0  0  # atno 17371 bound_to 10713
  141.1231  133.6607  156.3267 LP  0  0  0  0  0  0  0  0  0  0  0  0  # atno 17394 bound_to 11000
  140.5608  134.5936  157.5433 LP  0  0  0  0  0  0  0  0  0  0  0  0  # atno 17395 bound_to 11000

$$$$
