AV-unprocessed.smi:157|AV-procd|sdf|1313|dock8
  -GOLD-   2262019 03D 1   1.00000     0.00000
 Structure written by MMmdl.
 36 38  0  0  0  0  0  0  0  0  2 V2000
  147.9382  136.7235  154.5111 O   0  0  0  0  0  0  0  0  0  0  0  0
  148.6101  137.0024  155.7207 C   0  0  0  0  0  0  0  0  0  0  0  0
  149.5533  138.1987  155.5266 C   0  0  1  0  0  0  0  0  0  0  0  0
  150.0982  138.5941  156.7815 O   0  0  0  0  0  0  0  0  0  0  0  0
  151.3045  139.2707  156.5842 C   0  0  2  0  0  0  0  0  0  0  0  0
  151.0748  140.7377  156.7814 N   0  0  0  0  0  0  0  0  0  0  0  0
  150.2583  141.5389  156.0628 C   0  0  0  0  0  0  0  0  0  0  0  0
  150.2448  142.8002  156.4593 N   0  3  0  0  0  0  0  0  0  0  0  0
  151.1113  142.8836  157.5284 C   0  0  0  0  0  0  0  0  0  0  0  0
  151.6097  141.5921  157.7177 C   0  0  0  0  0  0  0  0  0  0  0  0
  152.5229  141.1112  158.6685 N   0  0  0  0  0  0  0  0  0  0  0  0
  152.8234  141.7639  159.7439 C   0  0  0  0  0  0  0  0  0  0  0  0
  152.4241  143.0309  160.1349 N   0  0  0  0  0  0  0  0  0  0  0  0
  152.4675  144.1806  159.2487 C   0  0  0  0  0  0  0  0  0  0  0  0
  151.3428  144.1991  158.2048 C   0  0  2  0  0  0  0  0  0  0  0  0
  150.1736  144.7094  158.8122 O   0  0  0  0  0  0  0  0  0  0  0  0
  151.7452  138.9985  155.1402 C   0  0  0  0  0  0  0  0  0  0  0  0
  150.8169  137.8704  154.7303 C   0  0  2  0  0  0  0  0  0  0  0  0
  150.5918  137.8822  153.3357 O   0  0  0  0  0  0  0  0  0  0  0  0
  149.0347  139.0415  155.0646 H   0  0  0  0  0  0  0  0  0  0  0  0
  152.0380  138.9902  157.3410 H   0  0  0  0  0  0  0  0  0  0  0  0
  151.6191  144.9210  157.4353 H   0  0  0  0  0  0  0  0  0  0  0  0
  151.2294  136.9091  155.0406 H   0  0  0  0  0  0  0  0  0  0  0  0
  148.5831  136.5889  153.8333 H   0  0  0  0  0  0  0  0  0  0  0  0
  147.8933  137.1850  156.5219 H   0  0  0  0  0  0  0  0  0  0  0  0
  149.1809  136.1138  155.9916 H   0  0  0  0  0  0  0  0  0  0  0  0
  149.6681  141.1813  155.2380 H   0  0  0  0  0  0  0  0  0  0  0  0
  153.4862  141.2998  160.4757 H   0  0  0  0  0  0  0  0  0  0  0  0
  152.5571  143.3031  161.0986 H   0  0  0  0  0  0  0  0  0  0  0  0
  152.4656  145.0986  159.8375 H   0  0  0  0  0  0  0  0  0  0  0  0
  153.4282  144.1558  158.7318 H   0  0  0  0  0  0  0  0  0  0  0  0
  149.6047  145.0484  158.1384 H   0  0  0  0  0  0  0  0  0  0  0  0
  151.5805  139.8868  154.5267 H   0  0  0  0  0  0  0  0  0  0  0  0
  152.8008  138.7293  155.0954 H   0  0  0  0  0  0  0  0  0  0  0  0
  150.9383  137.0837  152.9672 H   0  0  0  0  0  0  0  0  0  0  0  0
  149.7052  143.5525  156.0502 H   0  0  0  0  0  0  0  0  0  0  0  0
  1  2  1  0  0  0  0
  1 24  1  0  0  0  0
  2  3  1  0  0  0  0
  2 25  1  0  0  0  0
  2 26  1  0  0  0  0
  3 20  1  0  0  0  0
  3 18  1  0  0  0  0
  3  4  1  0  0  0  0
  4  5  1  0  0  0  0
  5 21  1  0  0  0  0
  5  6  1  0  0  0  0
  5 17  1  0  0  0  0
  6 10  1  0  0  0  0
  6  7  1  0  0  0  0
  7  8  2  0  0  0  0
  7 27  1  0  0  0  0
  8  9  1  0  0  0  0
  8 36  1  0  0  0  0
  9 15  1  0  0  0  0
  9 10  2  0  0  0  0
 10 11  1  0  0  0  0
 11 12  2  0  0  0  0
 12 13  1  0  0  0  0
 12 28  1  0  0  0  0
 13 14  1  0  0  0  0
 13 29  1  0  0  0  0
 14 15  1  0  0  0  0
 14 30  1  0  0  0  0
 14 31  1  0  0  0  0
 15 22  1  0  0  0  0
 15 16  1  0  0  0  0
 16 32  1  0  0  0  0
 17 18  1  0  0  0  0
 17 33  1  0  0  0  0
 17 34  1  0  0  0  0
 18 23  1  0  0  0  0
 18 19  1  0  0  0  0
 19 35  1  0  0  0  0
M  CHG  1   8   1
M  END
> <s_m_source_file>
AV-unprocessed.smi

> <i_m_source_file_index>
157

> <i_lp_mmshare_version>
43012

> <i_f3d_flags>
0

> <s_epik_input>
W09IXVtDSDJdW0NASF0xT1tDQEhdKFtDSDJdW0NAQEhdMVtPSF0pbihbY0hdbjIpYyhjMjMpTj1bQ0hdW05IXVtDSDJdW0NASF0zW09IXQ==

> <s_epik_cmdline>
J2VwaWtfcHl0aG9uJywgJy1waCcsICc3LjAnLCAnLXRuJywgJzgnLCAnLW1hJywgJzIwMCcsICctbWV0YWxfYmluZGluZycsICctaW1hZScsICc8aW5maWxlLm1hZT4nLCAnLW9tYWUnLCAnPG91dGZpbGUubWFlPic=

> <r_epik_Ionization_Penalty>
1.68594

> <r_epik_Ionization_Penalty_Charging>
0

> <r_epik_Ionization_Penalty_Neutral>
1.68594

> <r_epik_State_Penalty>
1.79006

> <r_epik_Charging_Adjusted_Penalty>
1.79006

> <i_epik_Tot_Q>
1

> <i_epik_Tot_abs_Q>
1

> <r_epik_Metal_State_Penalty>
5.85324

> <b_epik_Metal_Only>
0

> <s_epik_Chemistry_Notes>
This compound has an imine and may undergo hydrolysis. This compound contains an acetal/aminal-like group ( X-CH(R)-Y where X, Y are N, S, or O) that may be acid/base labile, releasing an aldehyde.

> <s_lp_Force_Field>
OPLS_2005

> <r_lp_Energy>
52.2724

> <b_lp_Chiralities_Consistent>
1

> <s_lp_Variant>
AV-unprocessed.smi:157-23

> <Gold.Version>
5.8.1

> <Gold.Id.Protein>
6NUR|6NUR_protein|mol2

> <Gold.PLP.Fitness>
46.7812

> <Gold.PLP.PLP>
-33.3958

> <Gold.PLP.part.hbond>
-5.2920

> <Gold.PLP.part.metal>
0.0000

> <Gold.PLP.part.buried>
-3.8346

> <Gold.PLP.part.nonpolar>
-26.2990

> <Gold.PLP.part.repulsive>
0.1402

> <Gold.PLP.ligand.clash>
0.0000

> <Gold.PLP.ligand.torsion>
0.0979

> <Gold.PLP.Chemscore.Hbond>
4.5203

> <Gold.PLP.Chemscore.CHOScore>
0.0000

> <Gold.PLP.Chemscore.Metal>
0.0000

> <Gold.Chemscore.Hbonds>
donor molecule, donor type, donor heavy atom, donor atom, acceptor molecule, acceptor atom, score
      L1  H     1    24       P1  7948  0.96
      L1  H     8    36       P1  8028  1.72
      L1  H    16    32       P1  8029  0.83
      L1  H    19    35       P1  7949  0.88

> <Gold.PLP.Chemscore.Internal.Correction>
0.0205

> <Gold.Rescore>
     Score         DG    S(hbond)    S(metal)    S(lipo)     H(rot)  DE(clash)    DE(int)     intcor
     11.13     -12.48       3.06        0.00      52.57       3.67       1.12       0.23       ----

> <Gold.Chemscore.Fitness>
11.1335

> <Gold.Chemscore.DG>
-12.4778

> <Gold.Chemscore.ZeroCoef>
-5.4800

> <Gold.Chemscore.Hbond>
3.0635

> <Gold.Chemscore.Metal>
0.0000

> <Gold.Chemscore.Lipo>
52.5673

> <Gold.Chemscore.Internal_Hbond>
0.0000

> <Gold.Chemscore.DEClash>
1.1152

> <Gold.Chemscore.DEInternal>
0.2290

> <Gold.Chemscore.Rot>
3.6659

> <Gold.Chemscore.Internal.Correction>
   9.000000E+99

> <Gold.Chemscore.Hbonds>
donor molecule, donor type, donor heavy atom, donor atom, acceptor molecule, acceptor atom, score
      L1  H     1    24       P1  7948  0.86
      L1  H     8    36       P1  8028  0.84
      L1  H    16    32       P1  8029  0.20
      L1  H    19    35       P1  7949  0.16

> <Gold.Chemscore.Hbond.Weighted>
-10.2322

> <Gold.Chemscore.Metal.Weighted>
-0.0000

> <Gold.Chemscore.Lipo.Weighted>
-6.1504

> <Gold.Chemscore.Internal_Hbond.Weighted>
0.0000

> <Gold.Chemscore.DEClash.Weighted>
1.1152

> <Gold.Chemscore.DEInternal.Weighted>
0.2290

> <Gold.Chemscore.Rot.Weighted>
9.3848

> <Gold.Chemscore.Internal.Correction.Weighted>
   9.000000E+99

> <Gold.Protein.RotatedTorsions>
[ 6907 6896 6895 6894 ] final  -29.35 input  -60.11 | X-H torsion
[ 7974 7965 7964 7962 ] final   34.55 input  175.53 | X-H torsion
[ 8008 7997 7996 7995 ] final   46.39 input   59.86 | X-H torsion
[ 10167 10162 10161 10158 ] final   98.06 input  -65.29 | X-H torsion
[ 10718 10713 10712 10709 ] final   88.25 input   66.30 | X-H torsion
[ 10763 10752 10751 10750 ] final  168.35 input  -60.55 | X-H torsion
[ 11005 11000 10999 10996 ] final   35.59 input  -57.11 | X-H torsion

> <Gold.Protein.ActiveResidues>
 VAL166  LYS551  ARG553  GLY616  TRP617  ASP618  TYR619  PRO620  LYS621  CYS622 
 ASP623  PHE694  ASN695  SER759  ASP760  ASP761  ALA762  ILE779  LEU786  VAL792 
 PHE793  MET794  SER795  GLU796  ALA797  LYS798  CYS799  TRP800  GLU811  SER814 

> <Gold.Protein.RotatedAtoms>
  151.1203  135.0076  159.8535 H   0  0  0  0  0  0  0  0  0  0  0  0  # atno 6907 bound_to 6896
  152.5447  134.1730  159.8614 H   0  0  0  0  0  0  0  0  0  0  0  0  # atno 6908 bound_to 6896
  151.1788  133.4693  159.2627 H   0  0  0  0  0  0  0  0  0  0  0  0  # atno 6909 bound_to 6896
  146.1345  139.6254  142.9205 H   0  0  0  0  0  0  0  0  0  0  0  0  # atno 7974 bound_to 7965
  155.3516  140.3414  155.4239 H   0  0  0  0  0  0  0  0  0  0  0  0  # atno 8008 bound_to 7997
  156.1761  140.1648  156.8396 H   0  0  0  0  0  0  0  0  0  0  0  0  # atno 8009 bound_to 7997
  154.5283  140.0751  156.8282 H   0  0  0  0  0  0  0  0  0  0  0  0  # atno 8010 bound_to 7997
  139.7743  144.6911  151.0111 H   0  0  0  0  0  0  0  0  0  0  0  0  # atno 10167 bound_to 10162
  157.6947  131.0287  150.3246 H   0  0  0  0  0  0  0  0  0  0  0  0  # atno 10718 bound_to 10713
  154.3673  135.2753  155.2286 H   0  0  0  0  0  0  0  0  0  0  0  0  # atno 10763 bound_to 10752
  154.4449  135.5945  153.6157 H   0  0  0  0  0  0  0  0  0  0  0  0  # atno 10764 bound_to 10752
  152.9840  135.6028  154.3900 H   0  0  0  0  0  0  0  0  0  0  0  0  # atno 10765 bound_to 10752
  140.2411  134.3413  155.7925 H   0  0  0  0  0  0  0  0  0  0  0  0  # atno 11005 bound_to 11000
  145.5187  141.0433  143.2447 LP  0  0  0  0  0  0  0  0  0  0  0  0  # atno 17320 bound_to 7965
  144.7725  139.6703  143.7189 LP  0  0  0  0  0  0  0  0  0  0  0  0  # atno 17321 bound_to 7965
  140.7815  143.4553  151.0354 LP  0  0  0  0  0  0  0  0  0  0  0  0  # atno 17342 bound_to 10162
  139.8236  143.7787  152.3178 LP  0  0  0  0  0  0  0  0  0  0  0  0  # atno 17343 bound_to 10162
  156.3729  130.3866  149.7162 LP  0  0  0  0  0  0  0  0  0  0  0  0  # atno 17370 bound_to 10713
  156.4570  130.7934  151.2954 LP  0  0  0  0  0  0  0  0  0  0  0  0  # atno 17371 bound_to 10713
  141.2210  133.7299  156.8887 LP  0  0  0  0  0  0  0  0  0  0  0  0  # atno 17394 bound_to 11000
  140.1652  134.9138  157.2765 LP  0  0  0  0  0  0  0  0  0  0  0  0  # atno 17395 bound_to 11000

$$$$
