AV-unprocessed.smi:21|AV-procd|sdf|144|dock5
  -GOLD-   2262015353D 1   1.00000     0.00000
 Structure written by MMmdl.
 62 65  0  0  0  0  0  0  0  0  2 V2000
  146.3231  129.7733  152.0040 C   0  0  0  0  0  0  0  0  0  0  0  0
  145.0809  130.4576  151.9558 O   0  0  0  0  0  0  0  0  0  0  0  0
  145.0613  131.5495  151.0453 C   0  0  2  0  0  0  0  0  0  0  0  0
  146.0424  132.6491  151.4539 C   0  0  0  0  0  0  0  0  0  0  0  0
  145.2955  133.4881  152.5070 C   0  0  2  0  0  0  0  0  0  0  0  0
  145.7292  133.1938  153.9589 C   0  0  0  0  0  0  0  0  0  0  0  0
  147.1348  133.5173  154.2201 N   0  0  0  0  0  0  0  0  0  0  0  0
  148.1652  132.5925  153.7623 C   0  0  0  0  0  0  0  0  0  0  0  0
  147.4785  134.7016  154.8079 C   0  0  0  0  0  0  0  0  0  0  0  0
  148.2961  134.6668  155.8958 N   0  0  0  0  0  0  0  0  0  0  0  0
  148.6646  135.7891  156.5179 C   0  0  0  0  0  0  0  0  0  0  0  0
  148.3360  137.0468  156.2277 N   0  0  0  0  0  0  0  0  0  0  0  0
  147.5180  137.1019  155.1394 C   0  0  0  0  0  0  0  0  0  0  0  0
  147.0432  135.9944  154.3757 C   0  0  0  0  0  0  0  0  0  0  0  0
  146.2250  136.4644  153.3515 N   0  0  0  0  0  0  0  0  0  0  0  0
  146.2207  137.7604  153.4990 C   0  0  0  0  0  0  0  0  0  0  0  0
  146.9760  138.2283  154.5476 N   0  0  0  0  0  0  0  0  0  0  0  0
  147.1493  139.6125  154.9506 C   0  0  0  0  0  0  0  0  0  0  0  0
  147.7305  140.5240  153.8373 C   0  0  1  0  0  0  0  0  0  0  0  0
  147.3806  142.0179  154.0597 C   0  0  0  0  0  0  0  0  0  0  0  0
  148.1584  142.8697  153.2442 O   0  0  0  0  0  0  0  0  0  0  0  0
  149.2641  140.3263  153.7161 C   0  0  2  0  0  0  0  0  0  0  0  0
  149.7257  138.8680  153.7356 C   0  0  0  0  0  0  0  0  0  0  0  0
  151.0328  138.8760  154.5339 C   0  0  0  0  0  0  0  0  0  0  0  0
  151.3246  140.2455  154.7604 O   0  0  0  0  0  0  0  0  0  0  0  0
  150.0867  140.9257  154.8599 C   0  0  0  0  0  0  0  0  0  0  0  0
  143.8588  133.1588  152.3429 N   0  3  1  0  0  0  0  0  0  0  0  0
  142.9587  134.3314  152.3121 C   0  0  0  0  0  0  0  0  0  0  0  0
  143.7151  132.2553  151.1826 C   0  0  0  0  0  0  0  0  0  0  0  0
  145.2196  131.2018  150.0230 H   0  0  0  0  0  0  0  0  0  0  0  0
  145.4569  134.5439  152.2842 H   0  0  0  0  0  0  0  0  0  0  0  0
  146.2535  128.9444  152.7082 H   0  0  0  0  0  0  0  0  0  0  0  0
  147.1333  130.4224  152.3355 H   0  0  0  0  0  0  0  0  0  0  0  0
  146.5833  129.3608  151.0284 H   0  0  0  0  0  0  0  0  0  0  0  0
  147.0063  132.2724  151.7907 H   0  0  0  0  0  0  0  0  0  0  0  0
  146.2424  133.2766  150.5843 H   0  0  0  0  0  0  0  0  0  0  0  0
  145.0962  133.7416  154.6579 H   0  0  0  0  0  0  0  0  0  0  0  0
  145.5513  132.1418  154.1845 H   0  0  0  0  0  0  0  0  0  0  0  0
  148.8430  132.3367  154.5771 H   0  0  0  0  0  0  0  0  0  0  0  0
  148.7421  133.0304  152.9476 H   0  0  0  0  0  0  0  0  0  0  0  0
  147.7299  131.6631  153.3945 H   0  0  0  0  0  0  0  0  0  0  0  0
  149.3154  135.6609  157.3702 H   0  0  0  0  0  0  0  0  0  0  0  0
  145.6671  138.4139  152.8405 H   0  0  0  0  0  0  0  0  0  0  0  0
  146.1862  139.9981  155.2877 H   0  0  0  0  0  0  0  0  0  0  0  0
  147.8002  139.6078  155.8246 H   0  0  0  0  0  0  0  0  0  0  0  0
  147.2955  140.2145  152.8854 H   0  0  0  0  0  0  0  0  0  0  0  0
  146.3218  142.2002  153.8736 H   0  0  0  0  0  0  0  0  0  0  0  0
  147.5715  142.3210  155.0884 H   0  0  0  0  0  0  0  0  0  0  0  0
  148.1942  143.7231  153.6487 H   0  0  0  0  0  0  0  0  0  0  0  0
  149.6112  140.7795  152.7858 H   0  0  0  0  0  0  0  0  0  0  0  0
  148.9991  138.2175  154.2245 H   0  0  0  0  0  0  0  0  0  0  0  0
  149.8773  138.4928  152.7231 H   0  0  0  0  0  0  0  0  0  0  0  0
  150.8985  138.3745  155.4934 H   0  0  0  0  0  0  0  0  0  0  0  0
  151.8504  138.3855  154.0051 H   0  0  0  0  0  0  0  0  0  0  0  0
  150.2266  142.0027  154.7640 H   0  0  0  0  0  0  0  0  0  0  0  0
  149.6312  140.7196  155.8302 H   0  0  0  0  0  0  0  0  0  0  0  0
  143.1855  134.9805  151.4653 H   0  0  0  0  0  0  0  0  0  0  0  0
  143.0630  134.9138  153.2280 H   0  0  0  0  0  0  0  0  0  0  0  0
  141.9193  134.0118  152.2314 H   0  0  0  0  0  0  0  0  0  0  0  0
  143.5267  132.8456  150.2841 H   0  0  0  0  0  0  0  0  0  0  0  0
  142.8815  131.5635  151.3082 H   0  0  0  0  0  0  0  0  0  0  0  0
  143.6089  132.6106  153.1537 H   0  0  0  0  0  0  0  0  0  0  0  0
  1  2  1  0  0  0  0
  1 32  1  0  0  0  0
  1 33  1  0  0  0  0
  1 34  1  0  0  0  0
  2  3  1  0  0  0  0
  3 30  1  0  0  0  0
  3 29  1  0  0  0  0
  3  4  1  0  0  0  0
  4  5  1  0  0  0  0
  4 35  1  0  0  0  0
  4 36  1  0  0  0  0
  5 31  1  0  0  0  0
  5  6  1  0  0  0  0
  5 27  1  0  0  0  0
  6  7  1  0  0  0  0
  6 37  1  0  0  0  0
  6 38  1  0  0  0  0
  7  8  1  0  0  0  0
  7  9  1  0  0  0  0
  8 39  1  0  0  0  0
  8 40  1  0  0  0  0
  8 41  1  0  0  0  0
  9 14  1  0  0  0  0
  9 10  2  0  0  0  0
 10 11  1  0  0  0  0
 11 12  2  0  0  0  0
 11 42  1  0  0  0  0
 12 13  1  0  0  0  0
 13 17  1  0  0  0  0
 13 14  2  0  0  0  0
 14 15  1  0  0  0  0
 15 16  2  0  0  0  0
 16 17  1  0  0  0  0
 16 43  1  0  0  0  0
 17 18  1  0  0  0  0
 18 19  1  0  0  0  0
 18 44  1  0  0  0  0
 18 45  1  0  0  0  0
 19 20  1  0  0  0  0
 19 22  1  0  0  0  0
 19 46  1  0  0  0  0
 20 21  1  0  0  0  0
 20 47  1  0  0  0  0
 20 48  1  0  0  0  0
 21 49  1  0  0  0  0
 22 26  1  0  0  0  0
 22 23  1  0  0  0  0
 22 50  1  0  0  0  0
 23 24  1  0  0  0  0
 23 51  1  0  0  0  0
 23 52  1  0  0  0  0
 24 25  1  0  0  0  0
 24 53  1  0  0  0  0
 24 54  1  0  0  0  0
 25 26  1  0  0  0  0
 26 55  1  0  0  0  0
 26 56  1  0  0  0  0
 27 28  1  0  0  0  0
 27 29  1  0  0  0  0
 27 62  1  0  0  0  0
 28 57  1  0  0  0  0
 28 58  1  0  0  0  0
 28 59  1  0  0  0  0
 29 60  1  0  0  0  0
 29 61  1  0  0  0  0
M  CHG  1  27   1
M  END
> <s_m_source_file>
AV-unprocessed.smi

> <i_m_source_file_index>
21

> <i_lp_mmshare_version>
43012

> <i_f3d_flags>
0

> <s_epik_input>
W0NIM11PW0NASF0xW0NIMl1bQ0BIXShOKFtDSDNdKVtDSDJdMSlbQ0gyXU4oW0NIM10pYyhuW2NIXW4yKWMoYzIzKW5bY0hdbjNbQ0gyXVtDQEhdKFtDSDJdW09IXSlbQ0BASF00W0NIMl1bQ0gyXU9bQ0gyXTQ=

> <s_epik_cmdline>
J2VwaWtfcHl0aG9uJywgJy1waCcsICc3LjAnLCAnLXRuJywgJzgnLCAnLW1hJywgJzIwMCcsICctbWV0YWxfYmluZGluZycsICctaW1hZScsICc8aW5maWxlLm1hZT4nLCAnLW9tYWUnLCAnPG91dGZpbGUubWFlPic=

> <r_lp_tautomer_probability>
1

> <r_epik_Ionization_Penalty>
0.0157465

> <r_epik_Ionization_Penalty_Charging>
0.015354

> <r_epik_Ionization_Penalty_Neutral>
0.000392529

> <r_epik_State_Penalty>
0.0120612

> <r_epik_Charging_Adjusted_Penalty>
0.0274152

> <i_epik_Tot_Q>
1

> <i_epik_Tot_abs_Q>
1

> <r_epik_Metal_State_Penalty>
0.0121253

> <b_epik_Metal_Only>
0

> <s_lp_Force_Field>
OPLS_2005

> <r_lp_Energy>
59.4837

> <b_lp_Chiralities_Consistent>
1

> <s_lp_Variant>
AV-unprocessed.smi:21-24

> <Gold.Version>
5.8.1

> <Gold.Id.Protein>
6NUR|6NUR_protein|mol2

> <Gold.PLP.Fitness>
48.7777

> <Gold.PLP.PLP>
-38.9566

> <Gold.PLP.part.hbond>
-4.8148

> <Gold.PLP.part.metal>
0.0000

> <Gold.PLP.part.buried>
-2.8490

> <Gold.PLP.part.nonpolar>
-31.9434

> <Gold.PLP.part.repulsive>
0.3634

> <Gold.PLP.ligand.clash>
0.0000

> <Gold.PLP.ligand.torsion>
1.7322

> <Gold.PLP.Chemscore.Hbond>
4.0000

> <Gold.PLP.Chemscore.CHOScore>
0.2357

> <Gold.PLP.Chemscore.Metal>
0.0000

> <Gold.Chemscore.Hbonds>
donor molecule, donor type, donor heavy atom, donor atom, acceptor molecule, acceptor atom, score
      L1  H    21    49       P1  8028  0.30
      L1  H    27    62       P1 10957  1.82
      P1  H  7989  7998       L1    25  0.50
      L1  C    16    43       P1 10175  0.13

> <Gold.PLP.Chemscore.Internal.Correction>
0.5785

> <Gold.Rescore>
     Score         DG    S(hbond)    S(metal)    S(lipo)     H(rot)  DE(clash)    DE(int)     intcor
     10.07     -14.00       1.72        0.00      90.88       3.08       1.02       2.91       ----

> <Gold.Chemscore.Fitness>
10.0747

> <Gold.Chemscore.DG>
-13.9978

> <Gold.Chemscore.ZeroCoef>
-5.4800

> <Gold.Chemscore.Hbond>
1.7244

> <Gold.Chemscore.Metal>
0.0000

> <Gold.Chemscore.Lipo>
90.8768

> <Gold.Chemscore.Internal_Hbond>
0.0000

> <Gold.Chemscore.DEClash>
1.0171

> <Gold.Chemscore.DEInternal>
2.9059

> <Gold.Chemscore.Rot>
3.0758

> <Gold.Chemscore.Internal.Correction>
   9.000000E+99

> <Gold.Chemscore.Hbonds>
donor molecule, donor type, donor heavy atom, donor atom, acceptor molecule, acceptor atom, score
      L1  H    21    49       P1  8028  0.24
      L1  H    27    62       P1 10957  0.19
      P1  H  7989  7998       L1    25  0.03
      P1  H  8011  8017       L1    21  0.02

> <Gold.Chemscore.Hbond.Weighted>
-5.7593

> <Gold.Chemscore.Metal.Weighted>
-0.0000

> <Gold.Chemscore.Lipo.Weighted>
-10.6326

> <Gold.Chemscore.Internal_Hbond.Weighted>
0.0000

> <Gold.Chemscore.DEClash.Weighted>
1.0171

> <Gold.Chemscore.DEInternal.Weighted>
2.9059

> <Gold.Chemscore.Rot.Weighted>
7.8741

> <Gold.Chemscore.Internal.Correction.Weighted>
   9.000000E+99

> <Gold.Protein.RotatedTorsions>
[ 6907 6896 6895 6894 ] final  123.42 input  -60.11 | X-H torsion
[ 7974 7965 7964 7962 ] final   29.13 input  175.53 | X-H torsion
[ 8008 7997 7996 7995 ] final -134.36 input   59.86 | X-H torsion
[ 10167 10162 10161 10158 ] final   95.62 input  -65.29 | X-H torsion
[ 10718 10713 10712 10709 ] final   25.38 input   66.30 | X-H torsion
[ 10763 10752 10751 10750 ] final  -20.78 input  -60.55 | X-H torsion
[ 11005 11000 10999 10996 ] final -175.03 input  -57.11 | X-H torsion

> <Gold.Protein.ActiveResidues>
 VAL166  LYS551  ARG553  GLY616  TRP617  ASP618  TYR619  PRO620  LYS621  CYS622 
 ASP623  PHE694  ASN695  SER759  ASP760  ASP761  ALA762  ILE779  LEU786  VAL792 
 PHE793  MET794  SER795  GLU796  ALA797  LYS798  CYS799  TRP800  GLU811  SER814 

> <Gold.Protein.RotatedAtoms>
  152.4163  133.7044  159.6442 H   0  0  0  0  0  0  0  0  0  0  0  0  # atno 6907 bound_to 6896
  150.8040  133.8533  159.3220 H   0  0  0  0  0  0  0  0  0  0  0  0  # atno 6908 bound_to 6896
  151.6262  135.1029  160.0163 H   0  0  0  0  0  0  0  0  0  0  0  0  # atno 6909 bound_to 6896
  146.1689  139.6963  142.8981 H   0  0  0  0  0  0  0  0  0  0  0  0  # atno 7974 bound_to 7965
  155.3608  140.0482  157.3046 H   0  0  0  0  0  0  0  0  0  0  0  0  # atno 8008 bound_to 7997
  154.5179  140.2215  155.8994 H   0  0  0  0  0  0  0  0  0  0  0  0  # atno 8009 bound_to 7997
  156.1657  140.3107  155.8890 H   0  0  0  0  0  0  0  0  0  0  0  0  # atno 8010 bound_to 7997
  139.7971  144.6829  150.9814 H   0  0  0  0  0  0  0  0  0  0  0  0  # atno 10167 bound_to 10162
  157.1926  130.6853  149.6156 H   0  0  0  0  0  0  0  0  0  0  0  0  # atno 10718 bound_to 10713
  153.6258  135.6991  153.5293 H   0  0  0  0  0  0  0  0  0  0  0  0  # atno 10763 bound_to 10752
  153.2900  135.4160  155.1157 H   0  0  0  0  0  0  0  0  0  0  0  0  # atno 10764 bound_to 10752
  154.8533  135.3623  154.5800 H   0  0  0  0  0  0  0  0  0  0  0  0  # atno 10765 bound_to 10752
  140.4678  134.6194  157.4870 H   0  0  0  0  0  0  0  0  0  0  0  0  # atno 11005 bound_to 11000
  145.4393  141.0421  143.2866 LP  0  0  0  0  0  0  0  0  0  0  0  0  # atno 17320 bound_to 7965
  144.8133  139.5922  143.7019 LP  0  0  0  0  0  0  0  0  0  0  0  0  # atno 17321 bound_to 7965
  140.7820  143.4320  151.0680 LP  0  0  0  0  0  0  0  0  0  0  0  0  # atno 17342 bound_to 10162
  139.7994  143.8106  152.3161 LP  0  0  0  0  0  0  0  0  0  0  0  0  # atno 17343 bound_to 10162
  155.9710  130.4609  150.6092 LP  0  0  0  0  0  0  0  0  0  0  0  0  # atno 17370 bound_to 10713
  157.3846  131.0786  151.1447 LP  0  0  0  0  0  0  0  0  0  0  0  0  # atno 17371 bound_to 10713
  139.9904  134.6994  155.9700 LP  0  0  0  0  0  0  0  0  0  0  0  0  # atno 17394 bound_to 11000
  141.1591  133.6540  156.4259 LP  0  0  0  0  0  0  0  0  0  0  0  0  # atno 17395 bound_to 11000

$$$$
