AV-unprocessed.smi:1683|AV-procd|sdf|6751|dock8
  -GOLD-   22720 7513D 1   1.00000     0.00000
 Structure written by MMmdl.
 37 38  0  0  0  0  0  0  0  0  2 V2000
  144.7752  137.5984  152.6351 O   0  0  0  0  0  0  0  0  0  0  0  0
  145.8901  137.2083  152.2893 C   0  0  0  0  0  0  0  0  0  0  0  0
  146.9579  138.0132  152.1911 N   0  0  0  0  0  0  0  0  0  0  0  0
  146.9534  139.4493  152.4515 C   0  0  0  0  0  0  0  0  0  0  0  0
  147.7014  139.8164  153.7483 C   0  0  2  0  0  0  0  0  0  0  0  0
  148.0450  141.2971  153.8687 C   0  0  0  0  0  0  0  0  0  0  0  0
  149.1424  141.2952  154.9286 C   0  0  0  0  0  0  0  0  0  0  0  0
  149.9252  140.0623  154.6862 N   0  3  1  0  0  0  0  0  0  0  0  0
  150.5607  139.4709  155.8901 C   0  0  0  0  0  0  0  0  0  0  0  0
  151.7037  138.4977  155.5493 C   0  0  0  0  0  0  0  0  0  0  0  0
  152.5440  139.0289  154.6619 F   0  0  0  0  0  0  0  0  0  0  0  0
  152.3850  138.2241  156.6608 F   0  0  0  0  0  0  0  0  0  0  0  0
  151.2079  137.3606  155.0615 F   0  0  0  0  0  0  0  0  0  0  0  0
  149.0601  139.1233  153.9308 C   0  0  0  0  0  0  0  0  0  0  0  0
  146.2008  135.9425  151.9664 N   0  0  0  0  0  0  0  0  0  0  0  0
  145.3344  134.8208  151.9630 C   0  0  0  0  0  0  0  0  0  0  0  0
  145.0510  133.9014  150.9104 C   0  0  0  0  0  0  0  0  0  0  0  0
  144.1804  132.9806  151.2994 N   0  0  0  0  0  0  0  0  0  0  0  0
  143.9059  133.3018  152.5837 N   0  0  0  0  0  0  0  0  0  0  0  0
  144.5850  134.4153  153.0267 C   0  0  0  0  0  0  0  0  0  0  0  0
  143.2608  132.7568  153.1380 H   0  0  0  0  0  0  0  0  0  0  0  0
  147.8328  137.6066  151.8932 H   0  0  0  0  0  0  0  0  0  0  0  0
  147.4175  139.9457  151.5988 H   0  0  0  0  0  0  0  0  0  0  0  0
  145.9242  139.8103  152.4942 H   0  0  0  0  0  0  0  0  0  0  0  0
  147.0763  139.5594  154.6054 H   0  0  0  0  0  0  0  0  0  0  0  0
  148.4381  141.6774  152.9244 H   0  0  0  0  0  0  0  0  0  0  0  0
  147.1881  141.9098  154.1506 H   0  0  0  0  0  0  0  0  0  0  0  0
  149.7683  142.1864  154.8779 H   0  0  0  0  0  0  0  0  0  0  0  0
  148.6857  141.2587  155.9191 H   0  0  0  0  0  0  0  0  0  0  0  0
  150.9105  140.2600  156.5577 H   0  0  0  0  0  0  0  0  0  0  0  0
  149.7967  138.9174  156.4383 H   0  0  0  0  0  0  0  0  0  0  0  0
  148.9414  138.1612  154.4315 H   0  0  0  0  0  0  0  0  0  0  0  0
  149.5338  138.9332  152.9669 H   0  0  0  0  0  0  0  0  0  0  0  0
  147.1542  135.7624  151.6879 H   0  0  0  0  0  0  0  0  0  0  0  0
  145.4317  133.8635  149.9004 H   0  0  0  0  0  0  0  0  0  0  0  0
  144.4788  134.8057  154.0281 H   0  0  0  0  0  0  0  0  0  0  0  0
  150.6724  140.3136  154.0544 H   0  0  0  0  0  0  0  0  0  0  0  0
  1  2  2  0  0  0  0
  2  3  1  0  0  0  0
  2 15  1  0  0  0  0
  3  4  1  0  0  0  0
  3 22  1  0  0  0  0
  4  5  1  0  0  0  0
  4 23  1  0  0  0  0
  4 24  1  0  0  0  0
  5 14  1  0  0  0  0
  5  6  1  0  0  0  0
  5 25  1  0  0  0  0
  6  7  1  0  0  0  0
  6 26  1  0  0  0  0
  6 27  1  0  0  0  0
  7  8  1  0  0  0  0
  7 28  1  0  0  0  0
  7 29  1  0  0  0  0
  8  9  1  0  0  0  0
  8 14  1  0  0  0  0
  8 37  1  0  0  0  0
  9 10  1  0  0  0  0
  9 30  1  0  0  0  0
  9 31  1  0  0  0  0
 10 11  1  0  0  0  0
 10 12  1  0  0  0  0
 10 13  1  0  0  0  0
 14 32  1  0  0  0  0
 14 33  1  0  0  0  0
 15 16  1  0  0  0  0
 15 34  1  0  0  0  0
 16 20  2  0  0  0  0
 16 17  1  0  0  0  0
 17 18  2  0  0  0  0
 17 35  1  0  0  0  0
 18 19  1  0  0  0  0
 19 21  1  0  0  0  0
 19 20  1  0  0  0  0
 20 36  1  0  0  0  0
M  CHG  1   8   1
M  END
> <s_m_source_file>
AV-unprocessed.smi

> <i_m_source_file_index>
1683

> <i_lp_mmshare_version>
43012

> <i_f3d_flags>
0

> <s_epik_input>
W2NIXTFbbkhdbltjSF1jMVtOSF1DKD1PKVtOSF1bQ0gyXVtDQEBIXTJbQ0gyXVtDSDJdTihbQ0gyXTIpW0NIMl1DKEYpKEYpRg==

> <s_epik_cmdline>
J2VwaWtfcHl0aG9uJywgJy1waCcsICc3LjAnLCAnLXRuJywgJzgnLCAnLW1hJywgJzIwMCcsICctbWV0YWxfYmluZGluZycsICctaW1hZScsICc8aW5maWxlLm1hZT4nLCAnLW9tYWUnLCAnPG91dGZpbGUubWFlPic=

> <r_lp_tautomer_probability>
0.5

> <r_epik_Ionization_Penalty>
0.641865

> <r_epik_Ionization_Penalty_Charging>
0.64182

> <r_epik_Ionization_Penalty_Neutral>
4.50685e-05

> <r_epik_State_Penalty>
0.65957

> <r_epik_Charging_Adjusted_Penalty>
1.30139

> <i_epik_Tot_Q>
1

> <i_epik_Tot_abs_Q>
1

> <r_epik_Metal_State_Penalty>
0.659571

> <b_epik_Metal_Only>
0

> <s_lp_Force_Field>
OPLS_2005

> <r_lp_Energy>
31.6125

> <b_lp_Chiralities_Consistent>
1

> <s_lp_Variant>
AV-unprocessed.smi:1683-5

> <Gold.Version>
5.8.1

> <Gold.Id.Protein>
6NUR|6NUR_protein|mol2

> <Gold.PLP.Fitness>
41.4047

> <Gold.PLP.PLP>
-30.8772

> <Gold.PLP.part.hbond>
-3.0000

> <Gold.PLP.part.metal>
0.0000

> <Gold.PLP.part.buried>
-2.1566

> <Gold.PLP.part.nonpolar>
-27.1410

> <Gold.PLP.part.repulsive>
1.1784

> <Gold.PLP.ligand.clash>
0.0058

> <Gold.PLP.ligand.torsion>
0.9061

> <Gold.PLP.Chemscore.Hbond>
2.9760

> <Gold.PLP.Chemscore.CHOScore>
1.0000

> <Gold.PLP.Chemscore.Metal>
0.0000

> <Gold.Chemscore.Hbonds>
donor molecule, donor type, donor heavy atom, donor atom, acceptor molecule, acceptor atom, score
      L1  H     3    22       P1  7948  1.00
      L1  H    15    34       P1  7948  0.98
      L1  H    19    21       P1 10957  1.00
      L1  C    17    35       P1  7921  0.95

> <Gold.PLP.Chemscore.Internal.Correction>
0.4176

> <Gold.Rescore>
     Score         DG    S(hbond)    S(metal)    S(lipo)     H(rot)  DE(clash)    DE(int)     intcor
     15.79     -16.81       2.90        0.00      53.81       1.81       0.05       0.96       ----

> <Gold.Chemscore.Fitness>
15.7945

> <Gold.Chemscore.DG>
-16.8130

> <Gold.Chemscore.ZeroCoef>
-5.4800

> <Gold.Chemscore.Hbond>
2.8967

> <Gold.Chemscore.Metal>
0.0000

> <Gold.Chemscore.Lipo>
53.8090

> <Gold.Chemscore.Internal_Hbond>
0.0000

> <Gold.Chemscore.DEClash>
0.0547

> <Gold.Chemscore.DEInternal>
0.9637

> <Gold.Chemscore.Rot>
1.8116

> <Gold.Chemscore.Internal.Correction>
   9.000000E+99

> <Gold.Chemscore.Hbonds>
donor molecule, donor type, donor heavy atom, donor atom, acceptor molecule, acceptor atom, score
      L1  H     3    22       P1  7948  0.95
      L1  H    15    34       P1  7948  0.93
      L1  H    19    21       P1 10957  0.33

> <Gold.Chemscore.Hbond.Weighted>
-9.6751

> <Gold.Chemscore.Metal.Weighted>
-0.0000

> <Gold.Chemscore.Lipo.Weighted>
-6.2957

> <Gold.Chemscore.Internal_Hbond.Weighted>
0.0000

> <Gold.Chemscore.DEClash.Weighted>
0.0547

> <Gold.Chemscore.DEInternal.Weighted>
0.9637

> <Gold.Chemscore.Rot.Weighted>
4.6378

> <Gold.Chemscore.Internal.Correction.Weighted>
   9.000000E+99

> <Gold.Protein.RotatedTorsions>
[ 6907 6896 6895 6894 ] final  -51.47 input  -60.11 | X-H torsion
[ 7974 7965 7964 7962 ] final  167.28 input  175.53 | X-H torsion
[ 8008 7997 7996 7995 ] final -159.78 input   59.86 | X-H torsion
[ 10167 10162 10161 10158 ] final  121.99 input  -65.29 | X-H torsion
[ 10718 10713 10712 10709 ] final  131.08 input   66.30 | X-H torsion
[ 10763 10752 10751 10750 ] final  109.45 input  -60.55 | X-H torsion
[ 11005 11000 10999 10996 ] final -170.88 input  -57.11 | X-H torsion

> <Gold.Protein.ActiveResidues>
 VAL166  LYS551  ARG553  GLY616  TRP617  ASP618  TYR619  PRO620  LYS621  CYS622 
 ASP623  PHE694  ASN695  SER759  ASP760  ASP761  ALA762  ILE779  LEU786  VAL792 
 PHE793  MET794  SER795  GLU796  ALA797  LYS798  CYS799  TRP800  GLU811  SER814 

> <Gold.Protein.RotatedAtoms>
  150.8608  134.7960  159.7081 H   0  0  0  0  0  0  0  0  0  0  0  0  # atno 6907 bound_to 6896
  152.4646  134.5102  159.9761 H   0  0  0  0  0  0  0  0  0  0  0  0  # atno 6908 bound_to 6896
  151.5207  133.3429  159.2936 H   0  0  0  0  0  0  0  0  0  0  0  0  # atno 6909 bound_to 6896
  144.7430  139.8738  143.6391 H   0  0  0  0  0  0  0  0  0  0  0  0  # atno 7974 bound_to 7965
  155.7677  140.0848  157.2123 H   0  0  0  0  0  0  0  0  0  0  0  0  # atno 8008 bound_to 7997
  154.3998  140.1531  156.2963 H   0  0  0  0  0  0  0  0  0  0  0  0  # atno 8009 bound_to 7997
  155.8777  140.3422  155.5868 H   0  0  0  0  0  0  0  0  0  0  0  0  # atno 8010 bound_to 7997
  139.5886  144.7016  151.3347 H   0  0  0  0  0  0  0  0  0  0  0  0  # atno 10167 bound_to 10162
  157.5001  131.1094  150.9438 H   0  0  0  0  0  0  0  0  0  0  0  0  # atno 10718 bound_to 10713
  153.4349  135.3779  155.2193 H   0  0  0  0  0  0  0  0  0  0  0  0  # atno 10763 bound_to 10752
  154.8751  135.3849  154.4223 H   0  0  0  0  0  0  0  0  0  0  0  0  # atno 10764 bound_to 10752
  153.4760  135.7087  153.6028 H   0  0  0  0  0  0  0  0  0  0  0  0  # atno 10765 bound_to 10752
  140.5146  134.5769  157.5029 H   0  0  0  0  0  0  0  0  0  0  0  0  # atno 11005 bound_to 11000
  146.1261  139.4287  143.0198 LP  0  0  0  0  0  0  0  0  0  0  0  0  # atno 17320 bound_to 7965
  145.7233  141.0067  143.1390 LP  0  0  0  0  0  0  0  0  0  0  0  0  # atno 17321 bound_to 7965
  140.7153  143.7283  150.7643 LP  0  0  0  0  0  0  0  0  0  0  0  0  # atno 17342 bound_to 10162
  140.0833  143.4948  152.2518 LP  0  0  0  0  0  0  0  0  0  0  0  0  # atno 17343 bound_to 10162
  157.0112  130.5637  149.5321 LP  0  0  0  0  0  0  0  0  0  0  0  0  # atno 17370 bound_to 10713
  156.0224  130.5319  150.8313 LP  0  0  0  0  0  0  0  0  0  0  0  0  # atno 17371 bound_to 10713
  139.9640  134.7405  156.0177 LP  0  0  0  0  0  0  0  0  0  0  0  0  # atno 17394 bound_to 11000
  141.1367  133.6573  156.3614 LP  0  0  0  0  0  0  0  0  0  0  0  0  # atno 17395 bound_to 11000

$$$$
