AV-unprocessed.smi:2021|AV-procd|sdf|8176|dock6
  -GOLD-   2272010423D 1   1.00000     0.00000
 Structure written by MMmdl.
 42 43  0  0  0  0  0  0  0  0  2 V2000
  151.2827  143.8579  157.8700 C   0  0  0  0  0  0  0  0  0  0  0  0
  150.8241  142.3987  158.0101 C   0  0  0  0  0  0  0  0  0  0  0  0
  151.8187  141.6042  158.8731 C   0  0  0  0  0  0  0  0  0  0  0  0
  150.6273  141.7563  156.6196 C   0  0  0  0  0  0  0  0  0  0  0  0
  149.2963  142.0532  156.0223 N   0  3  2  0  0  0  0  0  0  0  0  0
  148.1612  141.7774  156.9360 C   0  0  0  0  0  0  0  0  0  0  0  0
  147.8520  140.2710  156.9982 C   0  0  0  0  0  0  0  0  0  0  0  0
  147.5856  139.7906  155.6866 O   0  0  0  0  0  0  0  0  0  0  0  0
  148.7038  139.9340  154.8158 C   0  0  1  0  0  0  0  0  0  0  0  0
  148.3370  139.3203  153.4522 C   0  0  0  0  0  0  0  0  0  0  0  0
  148.8519  137.9623  153.3070 N   0  0  0  0  0  0  0  0  0  0  0  0
  148.8805  137.0451  154.2845 C   0  0  0  0  0  0  0  0  0  0  0  0
  148.4679  137.2610  155.4244 O   0  0  0  0  0  0  0  0  0  0  0  0
  149.4075  135.8857  153.8532 N   0  0  0  0  0  0  0  0  0  0  0  0
  149.5774  134.6747  154.5760 C   0  0  0  0  0  0  0  0  0  0  0  0
  149.5984  134.6050  155.9162 N   0  0  0  0  0  0  0  0  0  0  0  0
  149.7719  133.3026  156.3664 N   0  0  0  0  0  0  0  0  0  0  0  0
  149.8743  132.4421  155.3494 C   0  0  0  0  0  0  0  0  0  0  0  0
  149.7680  133.1388  153.7421 S   0  0  0  0  0  0  0  0  0  0  0  0
  149.0527  141.4339  154.6935 C   0  0  0  0  0  0  0  0  0  0  0  0
  152.2450  143.9254  157.3612 H   0  0  0  0  0  0  0  0  0  0  0  0
  151.3884  144.3332  158.8457 H   0  0  0  0  0  0  0  0  0  0  0  0
  150.5620  144.4435  157.2982 H   0  0  0  0  0  0  0  0  0  0  0  0
  149.8696  142.4217  158.5347 H   0  0  0  0  0  0  0  0  0  0  0  0
  152.8015  141.5555  158.4028 H   0  0  0  0  0  0  0  0  0  0  0  0
  151.4774  140.5822  159.0385 H   0  0  0  0  0  0  0  0  0  0  0  0
  151.9432  142.0656  159.8531 H   0  0  0  0  0  0  0  0  0  0  0  0
  151.4201  142.0703  155.9407 H   0  0  0  0  0  0  0  0  0  0  0  0
  150.7411  140.6770  156.7286 H   0  0  0  0  0  0  0  0  0  0  0  0
  148.3586  142.1768  157.9316 H   0  0  0  0  0  0  0  0  0  0  0  0
  147.2845  142.3086  156.5634 H   0  0  0  0  0  0  0  0  0  0  0  0
  148.6754  139.7133  157.4471 H   0  0  0  0  0  0  0  0  0  0  0  0
  146.9743  140.0950  157.6201 H   0  0  0  0  0  0  0  0  0  0  0  0
  149.5549  139.3922  155.2296 H   0  0  0  0  0  0  0  0  0  0  0  0
  147.2536  139.2927  153.3327 H   0  0  0  0  0  0  0  0  0  0  0  0
  148.7219  139.9413  152.6415 H   0  0  0  0  0  0  0  0  0  0  0  0
  149.2104  137.7053  152.3988 H   0  0  0  0  0  0  0  0  0  0  0  0
  149.7167  135.8626  152.8927 H   0  0  0  0  0  0  0  0  0  0  0  0
  150.0121  131.3893  155.5475 H   0  0  0  0  0  0  0  0  0  0  0  0
  148.2192  141.9607  154.2269 H   0  0  0  0  0  0  0  0  0  0  0  0
  149.9057  141.5760  154.0317 H   0  0  0  0  0  0  0  0  0  0  0  0
  149.2949  143.0532  155.8786 H   0  0  0  0  0  0  0  0  0  0  0  0
  1  2  1  0  0  0  0
  1 21  1  0  0  0  0
  1 22  1  0  0  0  0
  1 23  1  0  0  0  0
  2  3  1  0  0  0  0
  2  4  1  0  0  0  0
  2 24  1  0  0  0  0
  3 25  1  0  0  0  0
  3 26  1  0  0  0  0
  3 27  1  0  0  0  0
  4  5  1  0  0  0  0
  4 28  1  0  0  0  0
  4 29  1  0  0  0  0
  5 20  1  0  0  0  0
  5  6  1  0  0  0  0
  5 42  1  0  0  0  0
  6  7  1  0  0  0  0
  6 30  1  0  0  0  0
  6 31  1  0  0  0  0
  7  8  1  0  0  0  0
  7 32  1  0  0  0  0
  7 33  1  0  0  0  0
  8  9  1  0  0  0  0
  9 10  1  0  0  0  0
  9 20  1  0  0  0  0
  9 34  1  0  0  0  0
 10 11  1  0  0  0  0
 10 35  1  0  0  0  0
 10 36  1  0  0  0  0
 11 12  1  0  0  0  0
 11 37  1  0  0  0  0
 12 13  2  0  0  0  0
 12 14  1  0  0  0  0
 14 15  1  0  0  0  0
 14 38  1  0  0  0  0
 15 19  1  0  0  0  0
 15 16  2  0  0  0  0
 16 17  1  0  0  0  0
 17 18  2  0  0  0  0
 18 19  1  0  0  0  0
 18 39  1  0  0  0  0
 20 40  1  0  0  0  0
 20 41  1  0  0  0  0
M  CHG  1   5   1
M  END
> <s_m_source_file>
AV-unprocessed.smi

> <i_m_source_file_index>
2021

> <i_lp_mmshare_version>
43012

> <i_f3d_flags>
0

> <s_epik_input>
W0NIM11bQ0hdKFtDSDNdKVtDSDJdTjFbQ0gyXVtDSDJdT1tDQEhdKFtDSDJdMSlbQ0gyXVtOSF1DKD1PKVtOSF1jMm5uW2NIXXMy

> <s_epik_cmdline>
J2VwaWtfcHl0aG9uJywgJy1waCcsICc3LjAnLCAnLXRuJywgJzgnLCAnLW1hJywgJzIwMCcsICctbWV0YWxfYmluZGluZycsICctaW1hZScsICc8aW5maWxlLm1hZT4nLCAnLW9tYWUnLCAnPG91dGZpbGUubWFlPic=

> <r_lp_tautomer_probability>
1

> <r_epik_Ionization_Penalty>
0.102019

> <r_epik_Ionization_Penalty_Charging>
0.098413

> <r_epik_Ionization_Penalty_Neutral>
0.00360555

> <r_epik_State_Penalty>
0.0884988

> <r_epik_Charging_Adjusted_Penalty>
0.186912

> <i_epik_Tot_Q>
1

> <i_epik_Tot_abs_Q>
1

> <r_epik_Metal_State_Penalty>
0.454709

> <b_epik_Metal_Only>
0

> <s_lp_Force_Field>
OPLS_2005

> <r_lp_Energy>
18.1157

> <b_lp_Chiralities_Consistent>
1

> <s_lp_Variant>
AV-unprocessed.smi:2021-2

> <Gold.Version>
5.8.1

> <Gold.Id.Protein>
6NUR|6NUR_protein|mol2

> <Gold.PLP.Fitness>
41.6855

> <Gold.PLP.PLP>
-28.9581

> <Gold.PLP.part.hbond>
-4.0000

> <Gold.PLP.part.metal>
0.0000

> <Gold.PLP.part.buried>
-4.3157

> <Gold.PLP.part.nonpolar>
-22.0823

> <Gold.PLP.part.repulsive>
0.1330

> <Gold.PLP.ligand.clash>
0.0000

> <Gold.PLP.ligand.torsion>
1.0825

> <Gold.PLP.Chemscore.Hbond>
4.9360

> <Gold.PLP.Chemscore.CHOScore>
0.0000

> <Gold.PLP.Chemscore.Metal>
0.0000

> <Gold.Chemscore.Hbonds>
donor molecule, donor type, donor heavy atom, donor atom, acceptor molecule, acceptor atom, score
      L1  H     5    42       P1  8028  2.00
      L1  H    11    37       P1  7948  0.42
      L1  H    14    38       P1  7948  0.05

> <Gold.PLP.Chemscore.Internal.Correction>
0.0844

> <Gold.Rescore>
     Score         DG    S(hbond)    S(metal)    S(lipo)     H(rot)  DE(clash)    DE(int)     intcor
     15.04     -20.42       3.54        0.00      67.91       1.88       0.01       5.37       ----

> <Gold.Chemscore.Fitness>
15.0356

> <Gold.Chemscore.DG>
-20.4204

> <Gold.Chemscore.ZeroCoef>
-5.4800

> <Gold.Chemscore.Hbond>
3.5363

> <Gold.Chemscore.Metal>
0.0000

> <Gold.Chemscore.Lipo>
67.9071

> <Gold.Chemscore.Internal_Hbond>
0.0000

> <Gold.Chemscore.DEClash>
0.0126

> <Gold.Chemscore.DEInternal>
5.3722

> <Gold.Chemscore.Rot>
1.8812

> <Gold.Chemscore.Internal.Correction>
   9.000000E+99

> <Gold.Chemscore.Hbonds>
donor molecule, donor type, donor heavy atom, donor atom, acceptor molecule, acceptor atom, score
      L1  H     5    42       P1  8028  1.00
      L1  H    11    37       P1  7948  0.36

> <Gold.Chemscore.Hbond.Weighted>
-11.8112

> <Gold.Chemscore.Metal.Weighted>
-0.0000

> <Gold.Chemscore.Lipo.Weighted>
-7.9451

> <Gold.Chemscore.Internal_Hbond.Weighted>
0.0000

> <Gold.Chemscore.DEClash.Weighted>
0.0126

> <Gold.Chemscore.DEInternal.Weighted>
5.3722

> <Gold.Chemscore.Rot.Weighted>
4.8159

> <Gold.Chemscore.Internal.Correction.Weighted>
   9.000000E+99

> <Gold.Protein.RotatedTorsions>
[ 6907 6896 6895 6894 ] final -128.14 input  -60.11 | X-H torsion
[ 7974 7965 7964 7962 ] final    5.00 input  175.53 | X-H torsion
[ 8008 7997 7996 7995 ] final   79.13 input   59.86 | X-H torsion
[ 10167 10162 10161 10158 ] final -164.45 input  -65.29 | X-H torsion
[ 10718 10713 10712 10709 ] final  144.40 input   66.30 | X-H torsion
[ 10763 10752 10751 10750 ] final  -95.35 input  -60.55 | X-H torsion
[ 11005 11000 10999 10996 ] final   17.55 input  -57.11 | X-H torsion

> <Gold.Protein.ActiveResidues>
 VAL166  LYS551  ARG553  GLY616  TRP617  ASP618  TYR619  PRO620  LYS621  CYS622 
 ASP623  PHE694  ASN695  SER759  ASP760  ASP761  ALA762  ILE779  LEU786  VAL792 
 PHE793  MET794  SER795  GLU796  ALA797  LYS798  CYS799  TRP800  GLU811  SER814 

> <Gold.Protein.RotatedAtoms>
  150.9148  133.6953  159.2845 H   0  0  0  0  0  0  0  0  0  0  0  0  # atno 6907 bound_to 6896
  151.4428  135.1020  159.9685 H   0  0  0  0  0  0  0  0  0  0  0  0  # atno 6908 bound_to 6896
  152.4949  133.8552  159.7277 H   0  0  0  0  0  0  0  0  0  0  0  0  # atno 6909 bound_to 6896
  146.2442  140.0449  142.8379 H   0  0  0  0  0  0  0  0  0  0  0  0  # atno 7974 bound_to 7965
  155.8654  140.3451  155.5785 H   0  0  0  0  0  0  0  0  0  0  0  0  # atno 8008 bound_to 7997
  155.7887  140.0868  157.2040 H   0  0  0  0  0  0  0  0  0  0  0  0  # atno 8009 bound_to 7997
  154.4014  140.1487  156.3124 H   0  0  0  0  0  0  0  0  0  0  0  0  # atno 8010 bound_to 7997
  139.6250  144.0550  152.1966 H   0  0  0  0  0  0  0  0  0  0  0  0  # atno 10167 bound_to 10162
  157.3576  131.0960  151.0944 H   0  0  0  0  0  0  0  0  0  0  0  0  # atno 10718 bound_to 10713
  154.7140  135.5124  153.8710 H   0  0  0  0  0  0  0  0  0  0  0  0  # atno 10763 bound_to 10752
  153.0805  135.6630  154.0064 H   0  0  0  0  0  0  0  0  0  0  0  0  # atno 10764 bound_to 10752
  153.9901  135.3020  155.3392 H   0  0  0  0  0  0  0  0  0  0  0  0  # atno 10765 bound_to 10752
  140.4347  134.1383  155.7684 H   0  0  0  0  0  0  0  0  0  0  0  0  # atno 11005 bound_to 11000
  145.1036  140.9361  143.4698 LP  0  0  0  0  0  0  0  0  0  0  0  0  # atno 17320 bound_to 7965
  145.0648  139.3077  143.5862 LP  0  0  0  0  0  0  0  0  0  0  0  0  # atno 17321 bound_to 7965
  140.0201  144.6159  150.7573 LP  0  0  0  0  0  0  0  0  0  0  0  0  # atno 17342 bound_to 10162
  140.7405  143.2806  151.3611 LP  0  0  0  0  0  0  0  0  0  0  0  0  # atno 17343 bound_to 10162
  157.2096  130.6432  149.5769 LP  0  0  0  0  0  0  0  0  0  0  0  0  # atno 17370 bound_to 10713
  155.9732  130.4664  150.6289 LP  0  0  0  0  0  0  0  0  0  0  0  0  # atno 17371 bound_to 10713
  141.1731  133.8569  157.1509 LP  0  0  0  0  0  0  0  0  0  0  0  0  # atno 17394 bound_to 11000
  140.0110  134.9988  157.0395 LP  0  0  0  0  0  0  0  0  0  0  0  0  # atno 17395 bound_to 11000

$$$$
