AV-unprocessed.smi:2896|AV-procd|sdf|11138|dock1
  -GOLD-   2272016 13D 1   1.00000     0.00000
 Structure written by MMmdl.
 49 50  0  0  0  0  0  0  0  0  1 V2000
  145.9198  139.2053  154.6809 C   0  0  0  0  0  0  0  0  0  0  0  0
  146.3587  139.8044  153.3326 C   0  0  2  0  0  0  0  0  0  0  0  0
  146.7834  138.7142  152.3225 C   0  0  0  0  0  0  0  0  0  0  0  0
  145.7289  137.7311  152.0909 N   0  0  0  0  0  0  0  0  0  0  0  0
  145.6004  136.5487  152.7176 C   0  0  0  0  0  0  0  0  0  0  0  0
  146.4009  136.1678  153.5732 O   0  0  0  0  0  0  0  0  0  0  0  0
  144.4076  135.6396  152.3238 C   0  0  0  0  0  0  0  0  0  0  0  0
  143.6557  135.2518  153.6218 C   0  0  0  0  0  0  0  0  0  0  0  0
  143.3853  136.3690  151.4147 C   0  0  0  0  0  0  0  0  0  0  0  0
  144.9816  134.4209  151.5756 C   0  0  0  0  0  0  0  0  0  0  0  0
  144.1199  133.4070  151.0904 C   0  0  0  0  0  0  0  0  0  0  0  0
  144.6602  132.3006  150.4088 C   0  0  0  0  0  0  0  0  0  0  0  0
  146.0546  132.2405  150.2322 C   0  0  0  0  0  0  0  0  0  0  0  0
  146.8963  133.1920  150.6845 N   0  0  0  0  0  0  0  0  0  0  0  0
  146.3687  134.2505  151.3361 C   0  0  0  0  0  0  0  0  0  0  0  0
  147.4942  140.8262  153.5642 C   0  0  0  0  0  0  0  0  0  0  0  0
  148.6231  140.3603  154.3721 N   0  0  0  0  0  0  0  0  0  0  0  0
  149.4443  139.3667  153.6828 C   0  0  0  0  0  0  0  0  0  0  0  0
  150.6387  138.9143  154.5410 C   0  0  0  0  0  0  0  0  0  0  0  0
  151.4172  140.0458  154.9158 O   0  0  0  0  0  0  0  0  0  0  0  0
  150.6623  141.0169  155.6323 C   0  0  0  0  0  0  0  0  0  0  0  0
  149.4713  141.4773  154.7747 C   0  0  0  0  0  0  0  0  0  0  0  0
  146.7169  138.6098  155.1272 H   0  0  0  0  0  0  0  0  0  0  0  0
  145.0456  138.5635  154.5718 H   0  0  0  0  0  0  0  0  0  0  0  0
  145.6530  139.9886  155.3909 H   0  0  0  0  0  0  0  0  0  0  0  0
  145.4907  140.3256  152.9299 H   0  0  0  0  0  0  0  0  0  0  0  0
  147.0052  139.1688  151.3569 H   0  0  0  0  0  0  0  0  0  0  0  0
  147.7087  138.2351  152.6467 H   0  0  0  0  0  0  0  0  0  0  0  0
  145.0349  137.9696  151.3973 H   0  0  0  0  0  0  0  0  0  0  0  0
  144.2933  134.7261  154.3340 H   0  0  0  0  0  0  0  0  0  0  0  0
  142.8001  134.6095  153.4100 H   0  0  0  0  0  0  0  0  0  0  0  0
  143.2701  136.1351  154.1331 H   0  0  0  0  0  0  0  0  0  0  0  0
  143.8209  136.7085  150.4746 H   0  0  0  0  0  0  0  0  0  0  0  0
  142.9599  137.2424  151.9112 H   0  0  0  0  0  0  0  0  0  0  0  0
  142.5555  135.7095  151.1583 H   0  0  0  0  0  0  0  0  0  0  0  0
  143.0514  133.4727  151.2326 H   0  0  0  0  0  0  0  0  0  0  0  0
  144.0205  131.5178  150.0290 H   0  0  0  0  0  0  0  0  0  0  0  0
  146.5052  131.4072  149.7138 H   0  0  0  0  0  0  0  0  0  0  0  0
  147.0986  134.9712  151.6699 H   0  0  0  0  0  0  0  0  0  0  0  0
  147.8676  141.1741  152.5999 H   0  0  0  0  0  0  0  0  0  0  0  0
  147.0560  141.7031  154.0430 H   0  0  0  0  0  0  0  0  0  0  0  0
  148.8500  138.4891  153.4319 H   0  0  0  0  0  0  0  0  0  0  0  0
  149.8110  139.7777  152.7411 H   0  0  0  0  0  0  0  0  0  0  0  0
  150.2951  138.3894  155.4337 H   0  0  0  0  0  0  0  0  0  0  0  0
  151.2654  138.2193  153.9822 H   0  0  0  0  0  0  0  0  0  0  0  0
  150.3179  140.5958  156.5781 H   0  0  0  0  0  0  0  0  0  0  0  0
  151.3061  141.8628  155.8728 H   0  0  0  0  0  0  0  0  0  0  0  0
  149.8451  141.9955  153.8901 H   0  0  0  0  0  0  0  0  0  0  0  0
  148.8844  142.2043  155.3371 H   0  0  0  0  0  0  0  0  0  0  0  0
  1  2  1  0  0  0  0
  1 23  1  0  0  0  0
  1 24  1  0  0  0  0
  1 25  1  0  0  0  0
  2  3  1  0  0  0  0
  2 16  1  0  0  0  0
  2 26  1  0  0  0  0
  3  4  1  0  0  0  0
  3 27  1  0  0  0  0
  3 28  1  0  0  0  0
  4  5  1  0  0  0  0
  4 29  1  0  0  0  0
  5  6  2  0  0  0  0
  5  7  1  0  0  0  0
  7  8  1  0  0  0  0
  7  9  1  0  0  0  0
  7 10  1  0  0  0  0
  8 30  1  0  0  0  0
  8 31  1  0  0  0  0
  8 32  1  0  0  0  0
  9 33  1  0  0  0  0
  9 34  1  0  0  0  0
  9 35  1  0  0  0  0
 10 15  1  0  0  0  0
 10 11  2  0  0  0  0
 11 12  1  0  0  0  0
 11 36  1  0  0  0  0
 12 13  2  0  0  0  0
 12 37  1  0  0  0  0
 13 14  1  0  0  0  0
 13 38  1  0  0  0  0
 14 15  2  0  0  0  0
 15 39  1  0  0  0  0
 16 17  1  0  0  0  0
 16 40  1  0  0  0  0
 16 41  1  0  0  0  0
 17 22  1  0  0  0  0
 17 18  1  0  0  0  0
 18 19  1  0  0  0  0
 18 42  1  0  0  0  0
 18 43  1  0  0  0  0
 19 20  1  0  0  0  0
 19 44  1  0  0  0  0
 19 45  1  0  0  0  0
 20 21  1  0  0  0  0
 21 22  1  0  0  0  0
 21 46  1  0  0  0  0
 21 47  1  0  0  0  0
 22 48  1  0  0  0  0
 22 49  1  0  0  0  0
M  END
> <s_m_source_file>
AV-unprocessed.smi

> <i_m_source_file_index>
2896

> <i_lp_mmshare_version>
43012

> <i_f3d_flags>
0

> <s_epik_input>
W0NIMl0xW0NIMl1PW0NIMl1bQ0gyXU4xW0NIMl1bQ0BIXShbQ0gzXSlbQ0gyXVtOSF1DKD1PKUMoW0NIM10pKFtDSDNdKWMyW2NIXVtjSF1bY0hdbltjSF0y

> <s_epik_cmdline>
J2VwaWtfcHl0aG9uJywgJy1waCcsICc3LjAnLCAnLXRuJywgJzgnLCAnLW1hJywgJzIwMCcsICctbWV0YWxfYmluZGluZycsICctaW1hZScsICc8aW5maWxlLm1hZT4nLCAnLW9tYWUnLCAnPG91dGZpbGUubWFlPic=

> <r_epik_Ionization_Penalty>
0.458454

> <r_epik_Ionization_Penalty_Charging>
0

> <r_epik_Ionization_Penalty_Neutral>
0.458454

> <r_epik_State_Penalty>
0.453234

> <r_epik_Charging_Adjusted_Penalty>
0.453234

> <i_epik_Tot_Q>
0

> <i_epik_Tot_abs_Q>
0

> <r_epik_Metal_State_Penalty>
0.448418

> <b_epik_Metal_Only>
0

> <s_lp_Force_Field>
OPLS_2005

> <r_lp_Energy>
34.6302

> <b_lp_Chiralities_Consistent>
1

> <s_lp_Variant>
AV-unprocessed.smi:2896-3

> <Gold.Version>
5.8.1

> <Gold.Id.Protein>
6NUR|6NUR_protein|mol2

> <Gold.PLP.Fitness>
39.6036

> <Gold.PLP.PLP>
-29.4681

> <Gold.PLP.part.hbond>
-1.8436

> <Gold.PLP.part.metal>
0.0000

> <Gold.PLP.part.buried>
4.2347

> <Gold.PLP.part.nonpolar>
-32.1572

> <Gold.PLP.part.repulsive>
0.7344

> <Gold.PLP.ligand.clash>
0.0000

> <Gold.PLP.ligand.torsion>
0.5431

> <Gold.PLP.Chemscore.Hbond>
1.8938

> <Gold.PLP.Chemscore.CHOScore>
1.7846

> <Gold.PLP.Chemscore.Metal>
0.0000

> <Gold.Chemscore.Hbonds>
donor molecule, donor type, donor heavy atom, donor atom, acceptor molecule, acceptor atom, score
      L1  H     4    29       P1 10171  0.93
      P1  H  7989  7998       L1    20  1.00
      L1  C    13    38       P1 10747  0.68
      L1  C    15    39       P1  7948  1.00

> <Gold.PLP.Chemscore.Internal.Correction>
0.1867

> <Gold.Rescore>
     Score         DG    S(hbond)    S(metal)    S(lipo)     H(rot)  DE(clash)    DE(int)     intcor
     10.16     -16.92       1.18        0.00     100.96       1.68       4.32       2.45       ----

> <Gold.Chemscore.Fitness>
10.1589

> <Gold.Chemscore.DG>
-16.9248

> <Gold.Chemscore.ZeroCoef>
-5.4800

> <Gold.Chemscore.Hbond>
1.1801

> <Gold.Chemscore.Metal>
0.0000

> <Gold.Chemscore.Lipo>
100.9586

> <Gold.Chemscore.Internal_Hbond>
0.0000

> <Gold.Chemscore.DEClash>
4.3199

> <Gold.Chemscore.DEInternal>
2.4459

> <Gold.Chemscore.Rot>
1.6832

> <Gold.Chemscore.Internal.Correction>
   9.000000E+99

> <Gold.Chemscore.Hbonds>
donor molecule, donor type, donor heavy atom, donor atom, acceptor molecule, acceptor atom, score
      L1  H     4    29       P1 10171  0.89
      P1  H  7989  7998       L1    20  0.11

> <Gold.Chemscore.Hbond.Weighted>
-3.9416

> <Gold.Chemscore.Metal.Weighted>
-0.0000

> <Gold.Chemscore.Lipo.Weighted>
-11.8122

> <Gold.Chemscore.Internal_Hbond.Weighted>
0.0000

> <Gold.Chemscore.DEClash.Weighted>
4.3199

> <Gold.Chemscore.DEInternal.Weighted>
2.4459

> <Gold.Chemscore.Rot.Weighted>
4.3090

> <Gold.Chemscore.Internal.Correction.Weighted>
   9.000000E+99

> <Gold.Protein.RotatedTorsions>
[ 6907 6896 6895 6894 ] final   15.51 input  -60.11 | X-H torsion
[ 7974 7965 7964 7962 ] final  135.64 input  175.53 | X-H torsion
[ 8008 7997 7996 7995 ] final  114.40 input   59.86 | X-H torsion
[ 10167 10162 10161 10158 ] final   64.37 input  -65.29 | X-H torsion
[ 10718 10713 10712 10709 ] final  -39.78 input   66.30 | X-H torsion
[ 10763 10752 10751 10750 ] final  -47.19 input  -60.55 | X-H torsion
[ 11005 11000 10999 10996 ] final -161.01 input  -57.11 | X-H torsion

> <Gold.Protein.ActiveResidues>
 VAL166  LYS551  ARG553  GLY616  TRP617  ASP618  TYR619  PRO620  LYS621  CYS622 
 ASP623  PHE694  ASN695  SER759  ASP760  ASP761  ALA762  ILE779  LEU786  VAL792 
 PHE793  MET794  SER795  GLU796  ALA797  LYS798  CYS799  TRP800  GLU811  SER814 

> <Gold.Protein.RotatedAtoms>
  151.8192  135.0657  160.0422 H   0  0  0  0  0  0  0  0  0  0  0  0  # atno 6907 bound_to 6896
  152.2963  133.5606  159.5598 H   0  0  0  0  0  0  0  0  0  0  0  0  # atno 6908 bound_to 6896
  150.7253  134.0272  159.3763 H   0  0  0  0  0  0  0  0  0  0  0  0  # atno 6909 bound_to 6896
  144.9643  139.4675  143.5464 H   0  0  0  0  0  0  0  0  0  0  0  0  # atno 7974 bound_to 7965
  156.2319  140.2960  156.0210 H   0  0  0  0  0  0  0  0  0  0  0  0  # atno 8008 bound_to 7997
  155.2202  140.0415  157.2964 H   0  0  0  0  0  0  0  0  0  0  0  0  # atno 8009 bound_to 7997
  154.6010  140.2427  155.7800 H   0  0  0  0  0  0  0  0  0  0  0  0  # atno 8010 bound_to 7997
  140.1229  144.4715  150.6910 H   0  0  0  0  0  0  0  0  0  0  0  0  # atno 10167 bound_to 10162
  156.2886  130.4225  149.8262 H   0  0  0  0  0  0  0  0  0  0  0  0  # atno 10718 bound_to 10713
  154.0573  135.6623  153.4807 H   0  0  0  0  0  0  0  0  0  0  0  0  # atno 10763 bound_to 10752
  153.0440  135.5126  154.7693 H   0  0  0  0  0  0  0  0  0  0  0  0  # atno 10764 bound_to 10752
  154.6718  135.3031  154.9698 H   0  0  0  0  0  0  0  0  0  0  0  0  # atno 10765 bound_to 10752
  140.6252  134.4709  157.5226 H   0  0  0  0  0  0  0  0  0  0  0  0  # atno 11005 bound_to 11000
  146.3363  139.8813  142.8824 LP  0  0  0  0  0  0  0  0  0  0  0  0  # atno 17320 bound_to 7965
  145.2653  141.0091  143.3803 LP  0  0  0  0  0  0  0  0  0  0  0  0  # atno 17321 bound_to 7965
  140.6862  143.2351  151.5255 LP  0  0  0  0  0  0  0  0  0  0  0  0  # atno 17342 bound_to 10162
  139.5559  144.2276  152.1611 LP  0  0  0  0  0  0  0  0  0  0  0  0  # atno 17343 bound_to 10162
  156.5683  130.8413  151.3349 LP  0  0  0  0  0  0  0  0  0  0  0  0  # atno 17370 bound_to 10713
  157.7336  130.9733  150.1985 LP  0  0  0  0  0  0  0  0  0  0  0  0  # atno 17371 bound_to 10713
  139.9138  134.8290  156.1437 LP  0  0  0  0  0  0  0  0  0  0  0  0  # atno 17394 bound_to 11000
  141.0714  133.6795  156.2149 LP  0  0  0  0  0  0  0  0  0  0  0  0  # atno 17395 bound_to 11000

$$$$
