AV-unprocessed.smi:2560|AV-procd|sdf|10039|dock8
  -GOLD-   2272014 83D 1   1.00000     0.00000
 Structure written by MMmdl.
 31 32  0  0  0  0  0  0  0  0  1 V2000
  150.3468  133.5264  155.3185 C   0  0  0  0  0  0  0  0  0  0  0  0
  149.6721  135.1773  154.9892 S   0  0  0  0  0  0  0  0  0  0  0  0
  150.6924  136.3042  155.8834 C   0  0  0  0  0  0  0  0  0  0  0  0
  151.8652  135.9009  156.4046 N   0  0  0  0  0  0  0  0  0  0  0  0
  152.5862  137.2142  157.1881 S   0  0  0  0  0  0  0  0  0  0  0  0
  151.2504  138.2420  156.7599 C   0  0  0  0  0  0  0  0  0  0  0  0
  151.1956  139.6181  157.1268 N   0  0  0  0  0  0  0  0  0  0  0  0
  152.0422  140.3790  157.8535 C   0  0  0  0  0  0  0  0  0  0  0  0
  153.0721  139.9049  158.3295 O   0  0  0  0  0  0  0  0  0  0  0  0
  151.6906  141.6652  158.0171 N   0  0  0  0  0  0  0  0  0  0  0  0
  152.4474  142.6739  158.7491 C   0  0  1  0  0  0  0  0  0  0  0  0
  152.1031  144.0490  158.1984 C   0  0  0  0  0  0  0  0  0  0  0  0
  151.8555  145.1234  158.9670 C   0  0  0  0  0  0  0  0  0  0  0  0
  151.9074  145.0976  160.4830 C   0  0  0  0  0  0  0  0  0  0  0  0
  152.6197  143.8420  161.0153 C   0  0  0  0  0  0  0  0  0  0  0  0
  152.1728  142.5762  160.2684 C   0  0  0  0  0  0  0  0  0  0  0  0
  150.3248  137.5853  156.0610 N   0  0  0  0  0  0  0  0  0  0  0  0
  149.7602  132.7702  154.7974 H   0  0  0  0  0  0  0  0  0  0  0  0
  150.3225  133.3080  156.3862 H   0  0  0  0  0  0  0  0  0  0  0  0
  151.3789  133.4626  154.9731 H   0  0  0  0  0  0  0  0  0  0  0  0
  150.3697  140.1024  156.8056 H   0  0  0  0  0  0  0  0  0  0  0  0
  150.8258  141.9689  157.5927 H   0  0  0  0  0  0  0  0  0  0  0  0
  153.5120  142.5238  158.5619 H   0  0  0  0  0  0  0  0  0  0  0  0
  152.0556  144.1443  157.1233 H   0  0  0  0  0  0  0  0  0  0  0  0
  151.5934  146.0638  158.5052 H   0  0  0  0  0  0  0  0  0  0  0  0
  152.4158  145.9928  160.8419 H   0  0  0  0  0  0  0  0  0  0  0  0
  150.8845  145.1401  160.8581 H   0  0  0  0  0  0  0  0  0  0  0  0
  153.6976  143.9599  160.8978 H   0  0  0  0  0  0  0  0  0  0  0  0
  152.4370  143.7358  162.0848 H   0  0  0  0  0  0  0  0  0  0  0  0
  151.1054  142.4299  160.4419 H   0  0  0  0  0  0  0  0  0  0  0  0
  152.6732  141.7011  160.6845 H   0  0  0  0  0  0  0  0  0  0  0  0
  1  2  1  0  0  0  0
  1 18  1  0  0  0  0
  1 19  1  0  0  0  0
  1 20  1  0  0  0  0
  2  3  1  0  0  0  0
  3 17  1  0  0  0  0
  3  4  2  0  0  0  0
  4  5  1  0  0  0  0
  5  6  1  0  0  0  0
  6  7  1  0  0  0  0
  6 17  2  0  0  0  0
  7  8  1  0  0  0  0
  7 21  1  0  0  0  0
  8  9  2  0  0  0  0
  8 10  1  0  0  0  0
 10 11  1  0  0  0  0
 10 22  1  0  0  0  0
 11 16  1  0  0  0  0
 11 12  1  0  0  0  0
 11 23  1  0  0  0  0
 12 13  2  0  0  0  0
 12 24  1  0  0  0  0
 13 14  1  0  0  0  0
 13 25  1  0  0  0  0
 14 15  1  0  0  0  0
 14 26  1  0  0  0  0
 14 27  1  0  0  0  0
 15 16  1  0  0  0  0
 15 28  1  0  0  0  0
 15 29  1  0  0  0  0
 16 30  1  0  0  0  0
 16 31  1  0  0  0  0
M  END
> <s_m_source_file>
AV-unprocessed.smi

> <i_m_source_file_index>
2560

> <i_lp_mmshare_version>
43012

> <i_f3d_flags>
0

> <s_epik_input>
W0NIM11TYzFuc2MobjEpW05IXUMoPU8pW05IXVtDQEBIXTJbQ0hdPVtDSF1bQ0gyXVtDSDJdW0NIMl0y

> <s_epik_cmdline>
J2VwaWtfcHl0aG9uJywgJy1waCcsICc3LjAnLCAnLXRuJywgJzgnLCAnLW1hJywgJzIwMCcsICctbWV0YWxfYmluZGluZycsICctaW1hZScsICc8aW5maWxlLm1hZT4nLCAnLW9tYWUnLCAnPG91dGZpbGUubWFlPic=

> <r_lp_tautomer_probability>
1

> <r_epik_Ionization_Penalty>
2.65559e-05

> <r_epik_Ionization_Penalty_Charging>
0

> <r_epik_Ionization_Penalty_Neutral>
2.65559e-05

> <r_epik_State_Penalty>
-0

> <r_epik_Charging_Adjusted_Penalty>
0

> <i_epik_Tot_Q>
0

> <i_epik_Tot_abs_Q>
0

> <r_epik_Metal_State_Penalty>
-0

> <b_epik_Metal_Only>
0

> <s_lp_Force_Field>
OPLS_2005

> <r_lp_Energy>
8.24661

> <b_lp_Chiralities_Consistent>
1

> <s_lp_Variant>
AV-unprocessed.smi:2560-2

> <Gold.Version>
5.8.1

> <Gold.Id.Protein>
6NUR|6NUR_protein|mol2

> <Gold.PLP.Fitness>
37.9870

> <Gold.PLP.PLP>
-32.9385

> <Gold.PLP.part.hbond>
-2.0000

> <Gold.PLP.part.metal>
0.0000

> <Gold.PLP.part.buried>
-5.2379

> <Gold.PLP.part.nonpolar>
-25.5807

> <Gold.PLP.part.repulsive>
0.1484

> <Gold.PLP.ligand.clash>
0.0000

> <Gold.PLP.ligand.torsion>
0.4793

> <Gold.PLP.Chemscore.Hbond>
2.0000

> <Gold.PLP.Chemscore.CHOScore>
0.0000

> <Gold.PLP.Chemscore.Metal>
0.0000

> <Gold.Chemscore.Hbonds>
donor molecule, donor type, donor heavy atom, donor atom, acceptor molecule, acceptor atom, score
      P1  H  7997  8010       L1     9  1.00
      P1  H 10752 10763       L1     4  1.00

> <Gold.PLP.Chemscore.Internal.Correction>
0.0071

> <Gold.Rescore>
     Score         DG    S(hbond)    S(metal)    S(lipo)     H(rot)  DE(clash)    DE(int)     intcor
     16.02     -17.86       1.75        0.00      83.17       1.25       0.14       1.70       ----

> <Gold.Chemscore.Fitness>
16.0153

> <Gold.Chemscore.DG>
-17.8574

> <Gold.Chemscore.ZeroCoef>
-5.4800

> <Gold.Chemscore.Hbond>
1.7522

> <Gold.Chemscore.Metal>
0.0000

> <Gold.Chemscore.Lipo>
83.1731

> <Gold.Chemscore.Internal_Hbond>
0.0000

> <Gold.Chemscore.DEClash>
0.1381

> <Gold.Chemscore.DEInternal>
1.7040

> <Gold.Chemscore.Rot>
1.2524

> <Gold.Chemscore.Internal.Correction>
   9.000000E+99

> <Gold.Chemscore.Hbonds>
donor molecule, donor type, donor heavy atom, donor atom, acceptor molecule, acceptor atom, score
      P1  H  7997  8010       L1     9  0.56
      P1  H 10752 10763       L1     4  0.33

> <Gold.Chemscore.Hbond.Weighted>
-5.8523

> <Gold.Chemscore.Metal.Weighted>
-0.0000

> <Gold.Chemscore.Lipo.Weighted>
-9.7313

> <Gold.Chemscore.Internal_Hbond.Weighted>
0.0000

> <Gold.Chemscore.DEClash.Weighted>
0.1381

> <Gold.Chemscore.DEInternal.Weighted>
1.7040

> <Gold.Chemscore.Rot.Weighted>
3.2062

> <Gold.Chemscore.Internal.Correction.Weighted>
   9.000000E+99

> <Gold.Protein.RotatedTorsions>
[ 6907 6896 6895 6894 ] final -167.76 input  -60.11 | X-H torsion
[ 7974 7965 7964 7962 ] final   -6.30 input  175.53 | X-H torsion
[ 8008 7997 7996 7995 ] final   43.86 input   59.86 | X-H torsion
[ 10167 10162 10161 10158 ] final   31.23 input  -65.29 | X-H torsion
[ 10718 10713 10712 10709 ] final   20.49 input   66.30 | X-H torsion
[ 10763 10752 10751 10750 ] final   83.77 input  -60.55 | X-H torsion
[ 11005 11000 10999 10996 ] final   84.43 input  -57.11 | X-H torsion

> <Gold.Protein.ActiveResidues>
 VAL166  LYS551  ARG553  GLY616  TRP617  ASP618  TYR619  PRO620  LYS621  CYS622 
 ASP623  PHE694  ASN695  SER759  ASP760  ASP761  ALA762  ILE779  LEU786  VAL792 
 PHE793  MET794  SER795  GLU796  ALA797  LYS798  CYS799  TRP800  GLU811  SER814 

> <Gold.Protein.RotatedAtoms>
  151.4647  133.3584  159.2814 H   0  0  0  0  0  0  0  0  0  0  0  0  # atno 6907 bound_to 6896
  150.9001  134.8414  159.7365 H   0  0  0  0  0  0  0  0  0  0  0  0  # atno 6908 bound_to 6896
  152.4874  134.4567  159.9644 H   0  0  0  0  0  0  0  0  0  0  0  0  # atno 6909 bound_to 6896
  146.2334  140.2150  142.8336 H   0  0  0  0  0  0  0  0  0  0  0  0  # atno 7974 bound_to 7965
  155.3097  140.3390  155.4244 H   0  0  0  0  0  0  0  0  0  0  0  0  # atno 8008 bound_to 7997
  156.1962  140.1715  156.8032 H   0  0  0  0  0  0  0  0  0  0  0  0  # atno 8009 bound_to 7997
  154.5501  140.0707  156.8638 H   0  0  0  0  0  0  0  0  0  0  0  0  # atno 8010 bound_to 7997
  140.4607  144.0911  150.6212 H   0  0  0  0  0  0  0  0  0  0  0  0  # atno 10167 bound_to 10162
  157.1252  130.6567  149.5935 H   0  0  0  0  0  0  0  0  0  0  0  0  # atno 10718 bound_to 10713
  153.1321  135.4679  154.9365 H   0  0  0  0  0  0  0  0  0  0  0  0  # atno 10763 bound_to 10752
  154.7673  135.3148  154.8262 H   0  0  0  0  0  0  0  0  0  0  0  0  # atno 10764 bound_to 10752
  153.8803  135.6895  153.4821 H   0  0  0  0  0  0  0  0  0  0  0  0  # atno 10765 bound_to 10752
  139.9000  134.8216  156.2444 H   0  0  0  0  0  0  0  0  0  0  0  0  # atno 11005 bound_to 11000
  144.9677  140.8338  143.5475 LP  0  0  0  0  0  0  0  0  0  0  0  0  # atno 17320 bound_to 7965
  145.2128  139.2196  143.5134 LP  0  0  0  0  0  0  0  0  0  0  0  0  # atno 17321 bound_to 7965
  140.4097  143.2663  151.9848 LP  0  0  0  0  0  0  0  0  0  0  0  0  # atno 17342 bound_to 10162
  139.4806  144.5926  151.7745 LP  0  0  0  0  0  0  0  0  0  0  0  0  # atno 17343 bound_to 10162
  155.9820  130.4830  150.6856 LP  0  0  0  0  0  0  0  0  0  0  0  0  # atno 17370 bound_to 10713
  157.4441  131.0865  151.0913 LP  0  0  0  0  0  0  0  0  0  0  0  0  # atno 17371 bound_to 10713
  141.0264  133.7012  156.1355 LP  0  0  0  0  0  0  0  0  0  0  0  0  # atno 17394 bound_to 11000
  140.7160  134.4410  157.5578 LP  0  0  0  0  0  0  0  0  0  0  0  0  # atno 17395 bound_to 11000

$$$$
