AV-unprocessed.smi:235|AV-procd|sdf|1802|dock1
  -GOLD-   2262020373D 1   1.00000     0.00000
 Structure written by MMmdl.
 54 58  0  0  0  0  0  0  0  0  1 V2000
  147.8286  134.7239  157.5074 O   0  0  0  0  0  0  0  0  0  0  0  0
  148.8729  135.1755  157.9774 C   0  0  0  0  0  0  0  0  0  0  0  0
  148.9685  135.6185  159.2420 N   0  0  0  0  0  0  0  0  0  0  0  0
  147.9203  135.6369  160.2078 C   0  0  0  0  0  0  0  0  0  0  0  0
  148.2569  136.1576  161.5884 C   0  0  0  0  0  0  0  0  0  0  0  0
  148.0301  134.6858  161.3801 C   0  0  0  0  0  0  0  0  0  0  0  0
  150.1413  135.2157  157.0997 C   0  0  1  0  0  0  0  0  0  0  0  0
  150.6713  133.8072  156.7516 C   0  0  0  0  0  0  0  0  0  0  0  0
  150.3097  133.5997  155.2829 C   0  0  0  0  0  0  0  0  0  0  0  0
  150.4035  135.0131  154.7231 C   0  0  0  0  0  0  0  0  0  0  0  0
  149.9161  135.8592  155.7991 N   0  0  0  0  0  0  0  0  0  0  0  0
  150.1833  137.1781  155.6867 C   0  0  0  0  0  0  0  0  0  0  0  0
  150.1166  137.7889  154.4753 N   0  0  0  0  0  0  0  0  0  0  0  0
  150.3935  139.0930  154.3733 C   0  0  0  0  0  0  0  0  0  0  0  0
  150.7498  139.9501  155.3340 N   0  0  0  0  0  0  0  0  0  0  0  0
  150.8119  139.3338  156.5496 C   0  0  0  0  0  0  0  0  0  0  0  0
  150.5407  137.9631  156.8124 C   0  0  0  0  0  0  0  0  0  0  0  0
  150.7030  137.6923  158.1652 N   0  0  0  0  0  0  0  0  0  0  0  0
  151.0592  138.8401  158.6747 C   0  0  0  0  0  0  0  0  0  0  0  0
  151.1507  139.8787  157.7747 N   0  0  0  0  0  0  0  0  0  0  0  0
  151.5274  141.2516  158.0607 C   0  0  0  0  0  0  0  0  0  0  0  0
  150.4089  142.2552  157.7063 C   0  0  2  0  0  0  0  0  0  0  0  0
  150.4127  142.4414  156.3035 O   0  0  0  0  0  0  0  0  0  0  0  0
  150.6037  143.6351  158.3661 C   0  0  2  0  0  0  0  0  0  0  0  0
  151.9289  144.3240  158.0329 C   0  0  0  0  0  0  0  0  0  0  0  0
  152.1490  145.2655  159.2052 C   0  0  0  0  0  0  0  0  0  0  0  0
  151.2320  144.7109  160.2975 C   0  0  0  0  0  0  0  0  0  0  0  0
  150.7260  143.4909  159.7736 O   0  0  0  0  0  0  0  0  0  0  0  0
  149.8670  135.9659  159.5464 H   0  0  0  0  0  0  0  0  0  0  0  0
  146.9133  135.8483  159.8509 H   0  0  0  0  0  0  0  0  0  0  0  0
  149.2782  136.4850  161.7746 H   0  0  0  0  0  0  0  0  0  0  0  0
  147.4856  136.7151  162.1159 H   0  0  0  0  0  0  0  0  0  0  0  0
  147.1068  134.2596  161.7671 H   0  0  0  0  0  0  0  0  0  0  0  0
  148.8991  134.0317  161.4259 H   0  0  0  0  0  0  0  0  0  0  0  0
  150.9035  135.7447  157.6745 H   0  0  0  0  0  0  0  0  0  0  0  0
  151.7565  133.7941  156.8617 H   0  0  0  0  0  0  0  0  0  0  0  0
  150.2763  133.0116  157.3848 H   0  0  0  0  0  0  0  0  0  0  0  0
  150.9672  132.8942  154.7744 H   0  0  0  0  0  0  0  0  0  0  0  0
  149.2857  133.2321  155.2014 H   0  0  0  0  0  0  0  0  0  0  0  0
  151.4378  135.2598  154.4765 H   0  0  0  0  0  0  0  0  0  0  0  0
  149.7996  135.1307  153.8226 H   0  0  0  0  0  0  0  0  0  0  0  0
  150.3219  139.5087  153.3790 H   0  0  0  0  0  0  0  0  0  0  0  0
  151.2721  138.9599  159.7271 H   0  0  0  0  0  0  0  0  0  0  0  0
  151.7780  141.3111  159.1199 H   0  0  0  0  0  0  0  0  0  0  0  0
  152.4405  141.4857  157.5112 H   0  0  0  0  0  0  0  0  0  0  0  0
  149.4449  141.8393  158.0027 H   0  0  0  0  0  0  0  0  0  0  0  0
  149.9549  143.2437  156.1055 H   0  0  0  0  0  0  0  0  0  0  0  0
  149.7722  144.3035  158.1331 H   0  0  0  0  0  0  0  0  0  0  0  0
  152.7352  143.5896  158.0008 H   0  0  0  0  0  0  0  0  0  0  0  0
  151.9078  144.8433  157.0743 H   0  0  0  0  0  0  0  0  0  0  0  0
  153.1949  145.2746  159.5133 H   0  0  0  0  0  0  0  0  0  0  0  0
  151.8635  146.2871  158.9512 H   0  0  0  0  0  0  0  0  0  0  0  0
  151.7553  144.5425  161.2388 H   0  0  0  0  0  0  0  0  0  0  0  0
  150.4026  145.3938  160.4858 H   0  0  0  0  0  0  0  0  0  0  0  0
  1  2  2  0  0  0  0
  2  3  1  0  0  0  0
  2  7  1  0  0  0  0
  3  4  1  0  0  0  0
  3 29  1  0  0  0  0
  4  6  1  0  0  0  0
  4  5  1  0  0  0  0
  4 30  1  0  0  0  0
  5  6  1  0  0  0  0
  5 31  1  0  0  0  0
  5 32  1  0  0  0  0
  6 33  1  0  0  0  0
  6 34  1  0  0  0  0
  7 11  1  0  0  0  0
  7  8  1  0  0  0  0
  7 35  1  0  0  0  0
  8  9  1  0  0  0  0
  8 36  1  0  0  0  0
  8 37  1  0  0  0  0
  9 10  1  0  0  0  0
  9 38  1  0  0  0  0
  9 39  1  0  0  0  0
 10 11  1  0  0  0  0
 10 40  1  0  0  0  0
 10 41  1  0  0  0  0
 11 12  1  0  0  0  0
 12 17  1  0  0  0  0
 12 13  2  0  0  0  0
 13 14  1  0  0  0  0
 14 15  2  0  0  0  0
 14 42  1  0  0  0  0
 15 16  1  0  0  0  0
 16 20  1  0  0  0  0
 16 17  2  0  0  0  0
 17 18  1  0  0  0  0
 18 19  2  0  0  0  0
 19 20  1  0  0  0  0
 19 43  1  0  0  0  0
 20 21  1  0  0  0  0
 21 22  1  0  0  0  0
 21 44  1  0  0  0  0
 21 45  1  0  0  0  0
 22 23  1  0  0  0  0
 22 24  1  0  0  0  0
 22 46  1  0  0  0  0
 23 47  1  0  0  0  0
 24 28  1  0  0  0  0
 24 25  1  0  0  0  0
 24 48  1  0  0  0  0
 25 26  1  0  0  0  0
 25 49  1  0  0  0  0
 25 50  1  0  0  0  0
 26 27  1  0  0  0  0
 26 51  1  0  0  0  0
 26 52  1  0  0  0  0
 27 28  1  0  0  0  0
 27 53  1  0  0  0  0
 27 54  1  0  0  0  0
M  END
> <s_m_source_file>
AV-unprocessed.smi

> <i_m_source_file_index>
235

> <i_lp_mmshare_version>
43012

> <i_f3d_flags>
0

> <s_epik_input>
W0NIMl0xW0NIMl1bQ0hdMVtOSF1DKD1PKVtDQEBIXTJbQ0gyXVtDSDJdW0NIMl1OMmMobltjSF1uMyljKGMzNCluW2NIXW40W0NIMl1bQ0BIXShbT0hdKVtDQEBIXTVbQ0gyXVtDSDJdW0NIMl1PNQ==

> <s_epik_cmdline>
J2VwaWtfcHl0aG9uJywgJy1waCcsICc3LjAnLCAnLXRuJywgJzgnLCAnLW1hJywgJzIwMCcsICctbWV0YWxfYmluZGluZycsICctaW1hZScsICc8aW5maWxlLm1hZT4nLCAnLW9tYWUnLCAnPG91dGZpbGUubWFlPic=

> <r_lp_tautomer_probability>
1

> <r_epik_Ionization_Penalty>
0.000526714

> <r_epik_Ionization_Penalty_Charging>
0

> <r_epik_Ionization_Penalty_Neutral>
0.000526714

> <r_epik_State_Penalty>
0.000272704

> <r_epik_Charging_Adjusted_Penalty>
0.000272704

> <i_epik_Tot_Q>
0

> <i_epik_Tot_abs_Q>
0

> <r_epik_Metal_State_Penalty>
-0

> <b_epik_Metal_Only>
0

> <s_lp_Force_Field>
OPLS_2005

> <r_lp_Energy>
60.5906

> <b_lp_Chiralities_Consistent>
1

> <s_lp_Variant>
AV-unprocessed.smi:235-2

> <Gold.Version>
5.8.1

> <Gold.Id.Protein>
6NUR|6NUR_protein|mol2

> <Gold.PLP.Fitness>
48.8651

> <Gold.PLP.PLP>
-43.5708

> <Gold.PLP.part.hbond>
-1.9051

> <Gold.PLP.part.metal>
0.0000

> <Gold.PLP.part.buried>
-8.0049

> <Gold.PLP.part.nonpolar>
-34.9543

> <Gold.PLP.part.repulsive>
0.5341

> <Gold.PLP.ligand.clash>
0.0000

> <Gold.PLP.ligand.torsion>
0.6656

> <Gold.PLP.Chemscore.Hbond>
1.0000

> <Gold.PLP.Chemscore.CHOScore>
1.0000

> <Gold.PLP.Chemscore.Metal>
0.0000

> <Gold.Chemscore.Hbonds>
donor molecule, donor type, donor heavy atom, donor atom, acceptor molecule, acceptor atom, score
      L1  H    23    47       P1  8028  1.00
      L1  C    14    42       P1  7957  1.00

> <Gold.PLP.Chemscore.Internal.Correction>
0.6254

> <Gold.Rescore>
     Score         DG    S(hbond)    S(metal)    S(lipo)     H(rot)  DE(clash)    DE(int)     intcor
     10.31     -13.61       1.00        0.00     106.55       3.00       0.06       3.23       ----

> <Gold.Chemscore.Fitness>
10.3113

> <Gold.Chemscore.DG>
-13.6054

> <Gold.Chemscore.ZeroCoef>
-5.4800

> <Gold.Chemscore.Hbond>
0.9988

> <Gold.Chemscore.Metal>
0.0000

> <Gold.Chemscore.Lipo>
106.5513

> <Gold.Chemscore.Internal_Hbond>
0.0000

> <Gold.Chemscore.DEClash>
0.0604

> <Gold.Chemscore.DEInternal>
3.2336

> <Gold.Chemscore.Rot>
2.9989

> <Gold.Chemscore.Internal.Correction>
   9.000000E+99

> <Gold.Chemscore.Hbonds>
donor molecule, donor type, donor heavy atom, donor atom, acceptor molecule, acceptor atom, score
      L1  H    23    47       P1  8028  1.00

> <Gold.Chemscore.Hbond.Weighted>
-3.3361

> <Gold.Chemscore.Metal.Weighted>
-0.0000

> <Gold.Chemscore.Lipo.Weighted>
-12.4665

> <Gold.Chemscore.Internal_Hbond.Weighted>
0.0000

> <Gold.Chemscore.DEClash.Weighted>
0.0604

> <Gold.Chemscore.DEInternal.Weighted>
3.2336

> <Gold.Chemscore.Rot.Weighted>
7.6772

> <Gold.Chemscore.Internal.Correction.Weighted>
   9.000000E+99

> <Gold.Protein.RotatedTorsions>
[ 6907 6896 6895 6894 ] final  -82.24 input  -60.11 | X-H torsion
[ 7974 7965 7964 7962 ] final   83.81 input  175.53 | X-H torsion
[ 8008 7997 7996 7995 ] final -148.10 input   59.86 | X-H torsion
[ 10167 10162 10161 10158 ] final  -18.72 input  -65.29 | X-H torsion
[ 10718 10713 10712 10709 ] final -125.09 input   66.30 | X-H torsion
[ 10763 10752 10751 10750 ] final  -62.58 input  -60.55 | X-H torsion
[ 11005 11000 10999 10996 ] final  114.90 input  -57.11 | X-H torsion

> <Gold.Protein.ActiveResidues>
 VAL166  LYS551  ARG553  GLY616  TRP617  ASP618  TYR619  PRO620  LYS621  CYS622 
 ASP623  PHE694  ASN695  SER759  ASP760  ASP761  ALA762  ILE779  LEU786  VAL792 
 PHE793  MET794  SER795  GLU796  ALA797  LYS798  CYS799  TRP800  GLU811  SER814 

> <Gold.Protein.RotatedAtoms>
  150.6900  134.3695  159.4985 H   0  0  0  0  0  0  0  0  0  0  0  0  # atno 6907 bound_to 6896
  152.1513  134.8983  160.0557 H   0  0  0  0  0  0  0  0  0  0  0  0  # atno 6908 bound_to 6896
  152.0080  133.3815  159.4245 H   0  0  0  0  0  0  0  0  0  0  0  0  # atno 6909 bound_to 6896
  145.6071  139.2362  143.2213 H   0  0  0  0  0  0  0  0  0  0  0  0  # atno 7974 bound_to 7965
  155.5863  140.0648  157.2770 H   0  0  0  0  0  0  0  0  0  0  0  0  # atno 8008 bound_to 7997
  154.4318  140.1843  156.1074 H   0  0  0  0  0  0  0  0  0  0  0  0  # atno 8009 bound_to 7997
  156.0267  140.3311  155.7099 H   0  0  0  0  0  0  0  0  0  0  0  0  # atno 8010 bound_to 7997
  140.7261  143.4889  151.0019 H   0  0  0  0  0  0  0  0  0  0  0  0  # atno 10167 bound_to 10162
  156.1645  130.6624  151.0095 H   0  0  0  0  0  0  0  0  0  0  0  0  # atno 10718 bound_to 10713
  154.3021  135.6232  153.5429 H   0  0  0  0  0  0  0  0  0  0  0  0  # atno 10763 bound_to 10752
  152.9839  135.5681  154.5272 H   0  0  0  0  0  0  0  0  0  0  0  0  # atno 10764 bound_to 10752
  154.4905  135.2867  155.1477 H   0  0  0  0  0  0  0  0  0  0  0  0  # atno 10765 bound_to 10752
  139.8994  134.9575  156.6962 H   0  0  0  0  0  0  0  0  0  0  0  0  # atno 11005 bound_to 11000
  146.1533  140.6894  142.9312 LP  0  0  0  0  0  0  0  0  0  0  0  0  # atno 17320 bound_to 7965
  144.7285  140.4600  143.6955 LP  0  0  0  0  0  0  0  0  0  0  0  0  # atno 17321 bound_to 7965
  139.8592  143.7337  152.3174 LP  0  0  0  0  0  0  0  0  0  0  0  0  # atno 17342 bound_to 10162
  139.7546  144.7524  151.0454 LP  0  0  0  0  0  0  0  0  0  0  0  0  # atno 17343 bound_to 10162
  157.6757  131.0851  150.7500 LP  0  0  0  0  0  0  0  0  0  0  0  0  # atno 17370 bound_to 10713
  156.7561  130.4784  149.5446 LP  0  0  0  0  0  0  0  0  0  0  0  0  # atno 17371 bound_to 10713
  140.7186  133.9160  155.8131 LP  0  0  0  0  0  0  0  0  0  0  0  0  # atno 17394 bound_to 11000
  141.0245  134.0843  157.4084 LP  0  0  0  0  0  0  0  0  0  0  0  0  # atno 17395 bound_to 11000

$$$$
