AV-unprocessed.smi:72|AV-procd|sdf|669|dock9
  -GOLD-   2262016573D 1   1.00000     0.00000
 Structure written by MMmdl.
 29 30  0  0  0  0  0  0  0  0  1 V2000
  152.5006  139.9736  156.4556 N   0  0  0  0  0  0  0  0  0  0  0  0
  151.3098  139.8770  155.9816 C   0  0  0  0  0  0  0  0  0  0  0  0
  150.9894  139.6576  154.6339 N   0  0  0  0  0  0  0  0  0  0  0  0
  149.7393  139.6045  154.2907 C   0  0  0  0  0  0  0  0  0  0  0  0
  148.6589  139.7898  155.2525 N   0  0  0  0  0  0  0  0  0  0  0  0
  147.1900  139.7043  154.8663 C   0  0  2  0  0  0  0  0  0  0  0  0
  146.9145  138.4738  154.2666 O   0  0  0  0  0  0  0  0  0  0  0  0
  147.0105  138.6002  152.8534 C   0  0  1  0  0  0  0  0  0  0  0  0
  146.2661  137.4419  152.1733 C   0  0  0  0  0  0  0  0  0  0  0  0
  146.4640  137.4981  150.7767 O   0  0  0  0  0  0  0  0  0  0  0  0
  146.3721  139.9691  152.6139 C   0  0  2  0  0  0  0  0  0  0  0  0
  146.8675  140.5402  151.4194 O   0  0  0  0  0  0  0  0  0  0  0  0
  146.8158  140.7853  153.8265 C   0  0  1  0  0  0  0  0  0  0  0  0
  145.7543  141.5991  154.2814 O   0  0  0  0  0  0  0  0  0  0  0  0
  148.9706  139.9522  156.6257 C   0  0  0  0  0  0  0  0  0  0  0  0
  148.1013  140.0443  157.4924 O   0  0  0  0  0  0  0  0  0  0  0  0
  150.2855  140.0035  156.9283 N   0  0  0  0  0  0  0  0  0  0  0  0
  146.6523  139.7818  155.8132 H   0  0  0  0  0  0  0  0  0  0  0  0
  148.0590  138.6239  152.5498 H   0  0  0  0  0  0  0  0  0  0  0  0
  145.2850  139.8784  152.5750 H   0  0  0  0  0  0  0  0  0  0  0  0
  147.6847  141.4029  153.5929 H   0  0  0  0  0  0  0  0  0  0  0  0
  152.4742  140.1274  157.4527 H   0  0  0  0  0  0  0  0  0  0  0  0
  149.4309  139.4158  153.2625 H   0  0  0  0  0  0  0  0  0  0  0  0
  146.5878  136.4769  152.5658 H   0  0  0  0  0  0  0  0  0  0  0  0
  145.1944  137.5263  152.3558 H   0  0  0  0  0  0  0  0  0  0  0  0
  145.6613  137.7868  150.3707 H   0  0  0  0  0  0  0  0  0  0  0  0
  147.7073  140.1505  151.2293 H   0  0  0  0  0  0  0  0  0  0  0  0
  144.9825  141.3909  153.7765 H   0  0  0  0  0  0  0  0  0  0  0  0
  150.5350  140.1317  157.8981 H   0  0  0  0  0  0  0  0  0  0  0  0
  1  2  2  0  0  0  0
  1 22  1  0  0  0  0
  2 17  1  0  0  0  0
  2  3  1  0  0  0  0
  3  4  2  0  0  0  0
  4  5  1  0  0  0  0
  4 23  1  0  0  0  0
  5  6  1  0  0  0  0
  5 15  1  0  0  0  0
  6 18  1  0  0  0  0
  6 13  1  0  0  0  0
  6  7  1  0  0  0  0
  7  8  1  0  0  0  0
  8 19  1  0  0  0  0
  8  9  1  0  0  0  0
  8 11  1  0  0  0  0
  9 10  1  0  0  0  0
  9 24  1  0  0  0  0
  9 25  1  0  0  0  0
 10 26  1  0  0  0  0
 11 20  1  0  0  0  0
 11 12  1  0  0  0  0
 11 13  1  0  0  0  0
 12 27  1  0  0  0  0
 13 21  1  0  0  0  0
 13 14  1  0  0  0  0
 14 28  1  0  0  0  0
 15 16  2  0  0  0  0
 15 17  1  0  0  0  0
 17 29  1  0  0  0  0
M  END
> <s_m_source_file>
AV-unprocessed.smi

> <i_m_source_file_index>
72

> <i_lp_mmshare_version>
43012

> <i_f3d_flags>
0

> <s_epik_input>
W05IMl1jMW5bY0hdbihjKD1PKW4xKVtDQEBIXTJPW0NASF0oW0NIMl1bT0hdKVtDQEBIXShbT0hdKVtDQEhdMltPSF0=

> <s_epik_cmdline>
J2VwaWtfcHl0aG9uJywgJy1waCcsICc3LjAnLCAnLXRuJywgJzgnLCAnLW1hJywgJzIwMCcsICctbWV0YWxfYmluZGluZycsICctaW1hZScsICc8aW5maWxlLm1hZT4nLCAnLW9tYWUnLCAnPG91dGZpbGUubWFlPic=

> <r_lp_tautomer_probability>
7.17554e-07

> <r_epik_Ionization_Penalty>
0.0066451

> <r_epik_Ionization_Penalty_Charging>
0.00663793

> <r_epik_Ionization_Penalty_Neutral>
7.17052e-06

> <r_epik_State_Penalty>
0.419231

> <r_epik_Charging_Adjusted_Penalty>
0.425868

> <i_epik_Tot_Q>
0

> <i_epik_Tot_abs_Q>
0

> <r_epik_Metal_State_Penalty>
1.44144

> <b_epik_Metal_Only>
0

> <s_epik_Chemistry_Notes>
This compound contains an acetal/aminal-like group ( X-CH(R)-Y where X, Y are N, S, or O) that may be acid/base labile, releasing an aldehyde.

> <s_lp_Force_Field>
OPLS_2005

> <r_lp_Energy>
35.5906

> <b_lp_Chiralities_Consistent>
1

> <s_lp_Variant>
AV-unprocessed.smi:72-7

> <Gold.Version>
5.8.1

> <Gold.Id.Protein>
6NUR|6NUR_protein|mol2

> <Gold.PLP.Fitness>
37.9791

> <Gold.PLP.PLP>
-17.1751

> <Gold.PLP.part.hbond>
-7.0000

> <Gold.PLP.part.metal>
0.0000

> <Gold.PLP.part.buried>
5.0320

> <Gold.PLP.part.nonpolar>
-15.4128

> <Gold.PLP.part.repulsive>
0.2287

> <Gold.PLP.ligand.clash>
0.0000

> <Gold.PLP.ligand.torsion>
0.0569

> <Gold.PLP.Chemscore.Hbond>
5.9588

> <Gold.PLP.Chemscore.CHOScore>
1.0000

> <Gold.PLP.Chemscore.Metal>
0.0000

> <Gold.Chemscore.Hbonds>
donor molecule, donor type, donor heavy atom, donor atom, acceptor molecule, acceptor atom, score
      L1  H    10    26       P1 10171  1.00
      L1  H    12    27       P1  7957  1.00
      L1  H    14    28       P1 10175  0.99
      P1  H  7954  7966       L1    10  1.00
      P1  H  7989  7998       L1     3  1.00
      P1  H  7997  8009       L1     1  1.00
      L1  C     4    23       P1  7957  1.00

> <Gold.PLP.Chemscore.Internal.Correction>
0.0414

> <Gold.Rescore>
     Score         DG    S(hbond)    S(metal)    S(lipo)     H(rot)  DE(clash)    DE(int)     intcor
      9.28     -12.34       4.15        0.00      29.01       4.06       2.93       0.13       ----

> <Gold.Chemscore.Fitness>
9.2781

> <Gold.Chemscore.DG>
-12.3398

> <Gold.Chemscore.ZeroCoef>
-5.4800

> <Gold.Chemscore.Hbond>
4.1494

> <Gold.Chemscore.Metal>
0.0000

> <Gold.Chemscore.Lipo>
29.0120

> <Gold.Chemscore.Internal_Hbond>
0.0000

> <Gold.Chemscore.DEClash>
2.9286

> <Gold.Chemscore.DEInternal>
0.1331

> <Gold.Chemscore.Rot>
4.0600

> <Gold.Chemscore.Internal.Correction>
   9.000000E+99

> <Gold.Chemscore.Hbonds>
donor molecule, donor type, donor heavy atom, donor atom, acceptor molecule, acceptor atom, score
      L1  H    10    26       P1 10171  0.93
      L1  H    12    27       P1  7957  0.99
      L1  H    14    28       P1 10175  0.28
      P1  H  7954  7966       L1    10  0.94
      P1  H  7989  7998       L1     3  0.31
      P1  H  7997  8009       L1     1  0.24

> <Gold.Chemscore.Hbond.Weighted>
-13.8590

> <Gold.Chemscore.Metal.Weighted>
-0.0000

> <Gold.Chemscore.Lipo.Weighted>
-3.3944

> <Gold.Chemscore.Internal_Hbond.Weighted>
0.0000

> <Gold.Chemscore.DEClash.Weighted>
2.9286

> <Gold.Chemscore.DEInternal.Weighted>
0.1331

> <Gold.Chemscore.Rot.Weighted>
10.3936

> <Gold.Chemscore.Internal.Correction.Weighted>
   9.000000E+99

> <Gold.Protein.RotatedTorsions>
[ 6907 6896 6895 6894 ] final  163.03 input  -60.11 | X-H torsion
[ 7974 7965 7964 7962 ] final   73.06 input  175.53 | X-H torsion
[ 8008 7997 7996 7995 ] final -149.95 input   59.86 | X-H torsion
[ 10167 10162 10161 10158 ] final -162.97 input  -65.29 | X-H torsion
[ 10718 10713 10712 10709 ] final  150.25 input   66.30 | X-H torsion
[ 10763 10752 10751 10750 ] final  -92.58 input  -60.55 | X-H torsion
[ 11005 11000 10999 10996 ] final  124.64 input  -57.11 | X-H torsion

> <Gold.Protein.ActiveResidues>
 VAL166  LYS551  ARG553  GLY616  TRP617  ASP618  TYR619  PRO620  LYS621  CYS622 
 ASP623  PHE694  ASN695  SER759  ASP760  ASP761  ALA762  ILE779  LEU786  VAL792 
 PHE793  MET794  SER795  GLU796  ALA797  LYS798  CYS799  TRP800  GLU811  SER814 

> <Gold.Protein.RotatedAtoms>
  151.9314  133.3612  159.3931 H   0  0  0  0  0  0  0  0  0  0  0  0  # atno 6907 bound_to 6896
  150.7016  134.4534  159.5356 H   0  0  0  0  0  0  0  0  0  0  0  0  # atno 6908 bound_to 6896
  152.2175  134.8444  160.0541 H   0  0  0  0  0  0  0  0  0  0  0  0  # atno 6909 bound_to 6896
  145.7456  139.2739  143.1461 H   0  0  0  0  0  0  0  0  0  0  0  0  # atno 7974 bound_to 7965
  155.6158  140.0676  157.2692 H   0  0  0  0  0  0  0  0  0  0  0  0  # atno 8008 bound_to 7997
  154.4241  140.1793  156.1368 H   0  0  0  0  0  0  0  0  0  0  0  0  # atno 8009 bound_to 7997
  156.0048  140.3332  155.6885 H   0  0  0  0  0  0  0  0  0  0  0  0  # atno 8010 bound_to 7997
  139.6354  144.0361  152.2049 H   0  0  0  0  0  0  0  0  0  0  0  0  # atno 10167 bound_to 10162
  157.2858  131.0844  151.1498 H   0  0  0  0  0  0  0  0  0  0  0  0  # atno 10718 bound_to 10713
  154.6875  135.5226  153.8346 H   0  0  0  0  0  0  0  0  0  0  0  0  # atno 10763 bound_to 10752
  153.0608  135.6567  154.0478 H   0  0  0  0  0  0  0  0  0  0  0  0  # atno 10764 bound_to 10752
  154.0356  135.2981  155.3342 H   0  0  0  0  0  0  0  0  0  0  0  0  # atno 10765 bound_to 10752
  139.9368  134.9639  156.8440 H   0  0  0  0  0  0  0  0  0  0  0  0  # atno 11005 bound_to 11000
  146.0406  140.8169  142.9831 LP  0  0  0  0  0  0  0  0  0  0  0  0  # atno 17320 bound_to 7965
  144.6861  140.2904  143.7279 LP  0  0  0  0  0  0  0  0  0  0  0  0  # atno 17321 bound_to 7965
  140.0036  144.6275  150.7708 LP  0  0  0  0  0  0  0  0  0  0  0  0  # atno 17342 bound_to 10162
  140.7462  143.2887  151.3390 LP  0  0  0  0  0  0  0  0  0  0  0  0  # atno 17343 bound_to 10162
  157.2914  130.6798  149.6116 LP  0  0  0  0  0  0  0  0  0  0  0  0  # atno 17370 bound_to 10713
  155.9665  130.4419  150.5361 LP  0  0  0  0  0  0  0  0  0  0  0  0  # atno 17371 bound_to 10713
  140.6054  134.0132  155.7554 LP  0  0  0  0  0  0  0  0  0  0  0  0  # atno 17394 bound_to 11000
  141.0986  133.9804  157.3118 LP  0  0  0  0  0  0  0  0  0  0  0  0  # atno 17395 bound_to 11000

$$$$
