AV-unprocessed.smi:2902|AV-procd|sdf|11155|dock6
  -GOLD-   2272016 43D 1   1.00000     0.00000
 Structure written by MMmdl.
 47 48  0  0  0  0  0  0  0  0  1 V2000
  152.4409  143.7457  162.2657 C   0  0  0  0  0  0  0  0  0  0  0  0
  152.9687  142.3269  162.0027 C   0  0  0  0  0  0  0  0  0  0  0  0
  153.2267  142.0197  160.5139 C   0  0  2  0  0  0  0  0  0  0  0  0
  151.9952  142.2100  159.8237 O   0  0  0  0  0  0  0  0  0  0  0  0
  152.0866  142.8360  158.5456 C   0  0  0  0  0  0  0  0  0  0  0  0
  152.8518  144.1502  158.7027 C   0  0  0  0  0  0  0  0  0  0  0  0
  151.8235  145.1671  159.2146 C   0  0  0  0  0  0  0  0  0  0  0  0
  150.4383  144.5876  158.8874 C   0  0  0  0  0  0  0  0  0  0  0  0
  150.6897  143.2867  158.1183 C   0  0  0  0  0  0  0  0  0  0  0  0
  153.7281  140.5825  160.2880 C   0  0  0  0  0  0  0  0  0  0  0  0
  154.7052  140.1616  160.9073 O   0  0  0  0  0  0  0  0  0  0  0  0
  153.0354  139.8472  159.4050 N   0  0  0  0  0  0  0  0  0  0  0  0
  153.3084  138.4620  159.0224 C   0  0  2  0  0  0  0  0  0  0  0  0
  154.7097  138.3831  158.3936 C   0  0  0  0  0  0  0  0  0  0  0  0
  152.1897  137.8974  158.1067 C   0  0  1  0  0  0  0  0  0  0  0  0
  150.7999  137.9056  158.7716 C   0  0  0  0  0  0  0  0  0  0  0  0
  152.1590  138.5305  156.7919 N   0  0  0  0  0  0  0  0  0  0  0  0
  151.1377  139.0652  156.1191 C   0  0  0  0  0  0  0  0  0  0  0  0
  151.4663  139.5321  154.9226 N   0  0  0  0  0  0  0  0  0  0  0  0
  152.7979  139.2282  154.9170 C   0  0  0  0  0  0  0  0  0  0  0  0
  153.2630  138.6222  156.0091 N   0  0  0  0  0  0  0  0  0  0  0  0
  152.2270  143.8871  163.3252 H   0  0  0  0  0  0  0  0  0  0  0  0
  151.5193  143.9301  161.7134 H   0  0  0  0  0  0  0  0  0  0  0  0
  153.1656  144.5058  161.9735 H   0  0  0  0  0  0  0  0  0  0  0  0
  153.8776  142.1637  162.5835 H   0  0  0  0  0  0  0  0  0  0  0  0
  152.2403  141.6116  162.3856 H   0  0  0  0  0  0  0  0  0  0  0  0
  153.9585  142.7376  160.1374 H   0  0  0  0  0  0  0  0  0  0  0  0
  152.5529  142.1970  157.7938 H   0  0  0  0  0  0  0  0  0  0  0  0
  153.7170  144.0575  159.3600 H   0  0  0  0  0  0  0  0  0  0  0  0
  153.2170  144.4701  157.7259 H   0  0  0  0  0  0  0  0  0  0  0  0
  151.9244  145.2982  160.2929 H   0  0  0  0  0  0  0  0  0  0  0  0
  151.9738  146.1434  158.7522 H   0  0  0  0  0  0  0  0  0  0  0  0
  149.9042  144.3718  159.8139 H   0  0  0  0  0  0  0  0  0  0  0  0
  149.8255  145.2827  158.3127 H   0  0  0  0  0  0  0  0  0  0  0  0
  150.6904  143.4952  157.0478 H   0  0  0  0  0  0  0  0  0  0  0  0
  149.9259  142.5308  158.3044 H   0  0  0  0  0  0  0  0  0  0  0  0
  152.2382  140.2823  158.9631 H   0  0  0  0  0  0  0  0  0  0  0  0
  153.3299  137.8363  159.9160 H   0  0  0  0  0  0  0  0  0  0  0  0
  154.9468  137.3623  158.0925 H   0  0  0  0  0  0  0  0  0  0  0  0
  155.4731  138.7005  159.1048 H   0  0  0  0  0  0  0  0  0  0  0  0
  154.7964  139.0204  157.5132 H   0  0  0  0  0  0  0  0  0  0  0  0
  152.4343  136.8489  157.9293 H   0  0  0  0  0  0  0  0  0  0  0  0
  150.8193  137.3734  159.7229 H   0  0  0  0  0  0  0  0  0  0  0  0
  150.0603  137.4173  158.1364 H   0  0  0  0  0  0  0  0  0  0  0  0
  150.4463  138.9169  158.9681 H   0  0  0  0  0  0  0  0  0  0  0  0
  150.1320  139.1093  156.5105 H   0  0  0  0  0  0  0  0  0  0  0  0
  153.4434  139.4563  154.0815 H   0  0  0  0  0  0  0  0  0  0  0  0
  1  2  1  0  0  0  0
  1 22  1  0  0  0  0
  1 23  1  0  0  0  0
  1 24  1  0  0  0  0
  2  3  1  0  0  0  0
  2 25  1  0  0  0  0
  2 26  1  0  0  0  0
  3  4  1  0  0  0  0
  3 10  1  0  0  0  0
  3 27  1  0  0  0  0
  4  5  1  0  0  0  0
  5  9  1  0  0  0  0
  5  6  1  0  0  0  0
  5 28  1  0  0  0  0
  6  7  1  0  0  0  0
  6 29  1  0  0  0  0
  6 30  1  0  0  0  0
  7  8  1  0  0  0  0
  7 31  1  0  0  0  0
  7 32  1  0  0  0  0
  8  9  1  0  0  0  0
  8 33  1  0  0  0  0
  8 34  1  0  0  0  0
  9 35  1  0  0  0  0
  9 36  1  0  0  0  0
 10 11  2  0  0  0  0
 10 12  1  0  0  0  0
 12 13  1  0  0  0  0
 12 37  1  0  0  0  0
 13 14  1  0  0  0  0
 13 15  1  0  0  0  0
 13 38  1  0  0  0  0
 14 39  1  0  0  0  0
 14 40  1  0  0  0  0
 14 41  1  0  0  0  0
 15 16  1  0  0  0  0
 15 17  1  0  0  0  0
 15 42  1  0  0  0  0
 16 43  1  0  0  0  0
 16 44  1  0  0  0  0
 16 45  1  0  0  0  0
 17 21  1  0  0  0  0
 17 18  1  0  0  0  0
 18 19  2  0  0  0  0
 18 46  1  0  0  0  0
 19 20  1  0  0  0  0
 20 21  2  0  0  0  0
 20 47  1  0  0  0  0
M  END
> <s_m_source_file>
AV-unprocessed.smi

> <i_m_source_file_index>
2902

> <i_lp_mmshare_version>
43012

> <i_f3d_flags>
0

> <s_epik_input>
W0NIMl0xW0NIMl1bQ0gyXVtDSDJdW0NIXTFPW0NAQEhdKFtDSDJdW0NIM10pQyg9TylbTkhdW0NASF0oW0NIM10pW0NASF0oW0NIM10pbjJbY0hdbltjSF1uMg==

> <s_epik_cmdline>
J2VwaWtfcHl0aG9uJywgJy1waCcsICc3LjAnLCAnLXRuJywgJzgnLCAnLW1hJywgJzIwMCcsICctbWV0YWxfYmluZGluZycsICctaW1hZScsICc8aW5maWxlLm1hZT4nLCAnLW9tYWUnLCAnPG91dGZpbGUubWFlPic=

> <r_lp_tautomer_probability>
1

> <r_epik_Ionization_Penalty>
6.95617e-05

> <r_epik_Ionization_Penalty_Charging>
0

> <r_epik_Ionization_Penalty_Neutral>
6.95617e-05

> <r_epik_State_Penalty>
-0

> <r_epik_Charging_Adjusted_Penalty>
0

> <i_epik_Tot_Q>
0

> <i_epik_Tot_abs_Q>
0

> <r_epik_Metal_State_Penalty>
-0

> <b_epik_Metal_Only>
0

> <s_lp_Force_Field>
OPLS_2005

> <r_lp_Energy>
29.711

> <b_lp_Chiralities_Consistent>
1

> <s_lp_Variant>
AV-unprocessed.smi:2902-5

> <Gold.Version>
5.8.1

> <Gold.Id.Protein>
6NUR|6NUR_protein|mol2

> <Gold.PLP.Fitness>
47.0606

> <Gold.PLP.PLP>
-43.8029

> <Gold.PLP.part.hbond>
-2.0000

> <Gold.PLP.part.metal>
0.0000

> <Gold.PLP.part.buried>
-5.4855

> <Gold.PLP.part.nonpolar>
-36.5349

> <Gold.PLP.part.repulsive>
0.1458

> <Gold.PLP.ligand.clash>
0.0000

> <Gold.PLP.ligand.torsion>
0.8256

> <Gold.PLP.Chemscore.Hbond>
1.5155

> <Gold.PLP.Chemscore.CHOScore>
0.0000

> <Gold.PLP.Chemscore.Metal>
0.0000

> <Gold.Chemscore.Hbonds>
donor molecule, donor type, donor heavy atom, donor atom, acceptor molecule, acceptor atom, score
      P1  H  7989  7998       L1    19  0.65
      P1  H  7997  8009       L1    21  0.69

> <Gold.PLP.Chemscore.Internal.Correction>
0.3625

> <Gold.Rescore>
     Score         DG    S(hbond)    S(metal)    S(lipo)     H(rot)  DE(clash)    DE(int)     intcor
     12.65     -15.00       0.93        0.00     113.79       2.69       0.18       2.17       ----

> <Gold.Chemscore.Fitness>
12.6530

> <Gold.Chemscore.DG>
-15.0022

> <Gold.Chemscore.ZeroCoef>
-5.4800

> <Gold.Chemscore.Hbond>
0.9293

> <Gold.Chemscore.Metal>
0.0000

> <Gold.Chemscore.Lipo>
113.7911

> <Gold.Chemscore.Internal_Hbond>
0.0000

> <Gold.Chemscore.DEClash>
0.1765

> <Gold.Chemscore.DEInternal>
2.1727

> <Gold.Chemscore.Rot>
2.6935

> <Gold.Chemscore.Internal.Correction>
   9.000000E+99

> <Gold.Chemscore.Hbonds>
donor molecule, donor type, donor heavy atom, donor atom, acceptor molecule, acceptor atom, score
      P1  H  7989  7998       L1    19  0.06
      P1  H  7997  8009       L1    21  0.10

> <Gold.Chemscore.Hbond.Weighted>
-3.1040

> <Gold.Chemscore.Metal.Weighted>
-0.0000

> <Gold.Chemscore.Lipo.Weighted>
-13.3136

> <Gold.Chemscore.Internal_Hbond.Weighted>
0.0000

> <Gold.Chemscore.DEClash.Weighted>
0.1765

> <Gold.Chemscore.DEInternal.Weighted>
2.1727

> <Gold.Chemscore.Rot.Weighted>
6.8954

> <Gold.Chemscore.Internal.Correction.Weighted>
   9.000000E+99

> <Gold.Protein.RotatedTorsions>
[ 6907 6896 6895 6894 ] final -176.66 input  -60.11 | X-H torsion
[ 7974 7965 7964 7962 ] final   15.10 input  175.53 | X-H torsion
[ 8008 7997 7996 7995 ] final  177.21 input   59.86 | X-H torsion
[ 10167 10162 10161 10158 ] final  -19.78 input  -65.29 | X-H torsion
[ 10718 10713 10712 10709 ] final  152.55 input   66.30 | X-H torsion
[ 10763 10752 10751 10750 ] final   -6.09 input  -60.55 | X-H torsion
[ 11005 11000 10999 10996 ] final  -97.92 input  -57.11 | X-H torsion

> <Gold.Protein.ActiveResidues>
 VAL166  LYS551  ARG553  GLY616  TRP617  ASP618  TYR619  PRO620  LYS621  CYS622 
 ASP623  PHE694  ASN695  SER759  ASP760  ASP761  ALA762  ILE779  LEU786  VAL792 
 PHE793  MET794  SER795  GLU796  ALA797  LYS798  CYS799  TRP800  GLU811  SER814 

> <Gold.Protein.RotatedAtoms>
  151.6083  133.3349  159.3061 H   0  0  0  0  0  0  0  0  0  0  0  0  # atno 6907 bound_to 6896
  150.8170  134.7361  159.6750 H   0  0  0  0  0  0  0  0  0  0  0  0  # atno 6908 bound_to 6896
  152.4265  134.5863  160.0013 H   0  0  0  0  0  0  0  0  0  0  0  0  # atno 6909 bound_to 6896
  146.2287  139.8944  142.8549 H   0  0  0  0  0  0  0  0  0  0  0  0  # atno 7974 bound_to 7965
  156.0681  140.1364  156.9861 H   0  0  0  0  0  0  0  0  0  0  0  0  # atno 8008 bound_to 7997
  154.4517  140.0977  156.6689 H   0  0  0  0  0  0  0  0  0  0  0  0  # atno 8009 bound_to 7997
  155.5271  140.3457  155.4421 H   0  0  0  0  0  0  0  0  0  0  0  0  # atno 8010 bound_to 7997
  140.7271  143.4786  151.0149 H   0  0  0  0  0  0  0  0  0  0  0  0  # atno 10167 bound_to 10162
  157.2563  131.0789  151.1696 H   0  0  0  0  0  0  0  0  0  0  0  0  # atno 10718 bound_to 10713
  153.4075  135.7006  153.6382 H   0  0  0  0  0  0  0  0  0  0  0  0  # atno 10763 bound_to 10752
  153.4890  135.3677  155.2482 H   0  0  0  0  0  0  0  0  0  0  0  0  # atno 10764 bound_to 10752
  154.8715  135.4084  154.3421 H   0  0  0  0  0  0  0  0  0  0  0  0  # atno 10765 bound_to 10752
  141.1363  133.8206  157.0770 H   0  0  0  0  0  0  0  0  0  0  0  0  # atno 11005 bound_to 11000
  145.2385  141.0000  143.3949 LP  0  0  0  0  0  0  0  0  0  0  0  0  # atno 17320 bound_to 7965
  144.9471  139.4124  143.6420 LP  0  0  0  0  0  0  0  0  0  0  0  0  # atno 17321 bound_to 7965
  139.8483  143.7472  152.3179 LP  0  0  0  0  0  0  0  0  0  0  0  0  # atno 17342 bound_to 10162
  139.7645  144.7496  151.0314 LP  0  0  0  0  0  0  0  0  0  0  0  0  # atno 17343 bound_to 10162
  157.3224  130.6943  149.6276 LP  0  0  0  0  0  0  0  0  0  0  0  0  # atno 17370 bound_to 10713
  155.9665  130.4331  150.4994 LP  0  0  0  0  0  0  0  0  0  0  0  0  # atno 17371 bound_to 10713
  140.0475  134.9822  157.1076 LP  0  0  0  0  0  0  0  0  0  0  0  0  # atno 17394 bound_to 11000
  140.4040  134.2052  155.7163 LP  0  0  0  0  0  0  0  0  0  0  0  0  # atno 17395 bound_to 11000

$$$$
