AV-unprocessed.smi:3249|AV-procd|sdf|12417|dock9
  -GOLD-   2272018303D 1   1.00000     0.00000
 Structure written by MMmdl.
 44 45  0  0  0  0  0  0  0  0  2 V2000
  151.2173  142.0717  158.0755 C   0  0  0  0  0  0  0  0  0  0  0  0
  150.8154  141.4618  156.7634 C   0  0  0  0  0  0  0  0  0  0  0  0
  151.5572  140.5520  155.9579 C   0  0  0  0  0  0  0  0  0  0  0  0
  150.9149  140.1992  154.8566 N   0  0  0  0  0  0  0  0  0  0  0  0
  149.7441  140.8692  154.9153 N   0  0  0  0  0  0  0  0  0  0  0  0
  148.7622  140.7024  153.8507 C   0  0  2  0  0  0  0  0  0  0  0  0
  147.7036  141.8178  153.9366 C   0  0  0  0  0  0  0  0  0  0  0  0
  148.1351  139.2836  153.8538 C   0  0  2  0  0  0  0  0  0  0  0  0
  148.9849  138.2508  154.6243 C   0  0  0  0  0  0  0  0  0  0  0  0
  147.9265  138.8287  152.4601 N   0  3  0  0  0  0  0  0  0  0  0  0
  146.5166  138.7613  152.0211 C   0  0  0  0  0  0  0  0  0  0  0  0
  145.9871  137.3223  152.0940 C   0  0  2  0  0  0  0  0  0  0  0  0
  146.0667  136.6115  150.7286 C   0  0  0  0  0  0  0  0  0  0  0  0
  145.4380  135.2158  150.8087 C   0  0  0  0  0  0  0  0  0  0  0  0
  144.0195  135.3214  151.3777 C   0  0  0  0  0  0  0  0  0  0  0  0
  144.0332  136.0986  152.7033 C   0  0  0  0  0  0  0  0  0  0  0  0
  144.6234  137.3803  152.5081 O   0  0  0  0  0  0  0  0  0  0  0  0
  149.6585  141.6382  156.0590 C   0  0  0  0  0  0  0  0  0  0  0  0
  152.2924  142.0021  158.2422 H   0  0  0  0  0  0  0  0  0  0  0  0
  150.7293  141.5756  158.9145 H   0  0  0  0  0  0  0  0  0  0  0  0
  150.9529  143.1281  158.1275 H   0  0  0  0  0  0  0  0  0  0  0  0
  152.5379  140.1381  156.1413 H   0  0  0  0  0  0  0  0  0  0  0  0
  149.2904  140.8298  152.9033 H   0  0  0  0  0  0  0  0  0  0  0  0
  147.0174  141.7863  153.0903 H   0  0  0  0  0  0  0  0  0  0  0  0
  148.1736  142.8018  153.9344 H   0  0  0  0  0  0  0  0  0  0  0  0
  147.1094  141.7370  154.8475 H   0  0  0  0  0  0  0  0  0  0  0  0
  147.1607  139.3520  154.3405 H   0  0  0  0  0  0  0  0  0  0  0  0
  149.0827  138.5119  155.6781 H   0  0  0  0  0  0  0  0  0  0  0  0
  149.9896  138.1787  154.2068 H   0  0  0  0  0  0  0  0  0  0  0  0
  148.5431  137.2555  154.5931 H   0  0  0  0  0  0  0  0  0  0  0  0
  148.3991  139.4801  151.8498 H   0  0  0  0  0  0  0  0  0  0  0  0
  145.8935  139.4154  152.6307 H   0  0  0  0  0  0  0  0  0  0  0  0
  146.4560  139.1256  150.9948 H   0  0  0  0  0  0  0  0  0  0  0  0
  146.5686  136.7621  152.8289 H   0  0  0  0  0  0  0  0  0  0  0  0
  145.5442  137.2020  149.9747 H   0  0  0  0  0  0  0  0  0  0  0  0
  147.1037  136.5338  150.4008 H   0  0  0  0  0  0  0  0  0  0  0  0
  145.4191  134.7490  149.8238 H   0  0  0  0  0  0  0  0  0  0  0  0
  146.0447  134.5743  151.4493 H   0  0  0  0  0  0  0  0  0  0  0  0
  143.3748  135.8338  150.6624 H   0  0  0  0  0  0  0  0  0  0  0  0
  143.5954  134.3278  151.5253 H   0  0  0  0  0  0  0  0  0  0  0  0
  143.0150  136.2322  153.0689 H   0  0  0  0  0  0  0  0  0  0  0  0
  144.5777  135.5485  153.4723 H   0  0  0  0  0  0  0  0  0  0  0  0
  148.7882  142.2396  156.2774 H   0  0  0  0  0  0  0  0  0  0  0  0
  148.3536  137.9201  152.3474 H   0  0  0  0  0  0  0  0  0  0  0  0
  1  2  1  0  0  0  0
  1 19  1  0  0  0  0
  1 20  1  0  0  0  0
  1 21  1  0  0  0  0
  2 18  2  0  0  0  0
  2  3  1  0  0  0  0
  3  4  2  0  0  0  0
  3 22  1  0  0  0  0
  4  5  1  0  0  0  0
  5  6  1  0  0  0  0
  5 18  1  0  0  0  0
  6  7  1  0  0  0  0
  6  8  1  0  0  0  0
  6 23  1  0  0  0  0
  7 24  1  0  0  0  0
  7 25  1  0  0  0  0
  7 26  1  0  0  0  0
  8  9  1  0  0  0  0
  8 10  1  0  0  0  0
  8 27  1  0  0  0  0
  9 28  1  0  0  0  0
  9 29  1  0  0  0  0
  9 30  1  0  0  0  0
 10 11  1  0  0  0  0
 10 31  1  0  0  0  0
 10 44  1  0  0  0  0
 11 12  1  0  0  0  0
 11 32  1  0  0  0  0
 11 33  1  0  0  0  0
 12 17  1  0  0  0  0
 12 13  1  0  0  0  0
 12 34  1  0  0  0  0
 13 14  1  0  0  0  0
 13 35  1  0  0  0  0
 13 36  1  0  0  0  0
 14 15  1  0  0  0  0
 14 37  1  0  0  0  0
 14 38  1  0  0  0  0
 15 16  1  0  0  0  0
 15 39  1  0  0  0  0
 15 40  1  0  0  0  0
 16 17  1  0  0  0  0
 16 41  1  0  0  0  0
 16 42  1  0  0  0  0
 18 43  1  0  0  0  0
M  CHG  1  10   1
M  END
> <s_m_source_file>
AV-unprocessed.smi

> <i_m_source_file_index>
3249

> <i_lp_mmshare_version>
43012

> <i_f3d_flags>
0

> <s_epik_input>
W0NIM11jMVtjSF1ubihbY0hdMSlbQ0BIXShbQ0gzXSlbQ0BIXShbQ0gzXSlbTkhdW0NIMl1bQ0BASF0yW0NIMl1bQ0gyXVtDSDJdW0NIMl1PMg==

> <s_epik_cmdline>
J2VwaWtfcHl0aG9uJywgJy1waCcsICc3LjAnLCAnLXRuJywgJzgnLCAnLW1hJywgJzIwMCcsICctbWV0YWxfYmluZGluZycsICctaW1hZScsICc8aW5maWxlLm1hZT4nLCAnLW9tYWUnLCAnPG91dGZpbGUubWFlPic=

> <r_lp_tautomer_probability>
1

> <r_epik_Ionization_Penalty>
0.00659207

> <r_epik_Ionization_Penalty_Charging>
0.00656881

> <r_epik_Ionization_Penalty_Neutral>
2.32662e-05

> <r_epik_State_Penalty>
0.0048654

> <r_epik_Charging_Adjusted_Penalty>
0.0114342

> <i_epik_Tot_Q>
1

> <i_epik_Tot_abs_Q>
1

> <r_epik_Metal_State_Penalty>
-0

> <b_epik_Metal_Only>
0

> <s_lp_Force_Field>
OPLS_2005

> <r_lp_Energy>
18.0263

> <b_lp_Chiralities_Consistent>
1

> <s_lp_Variant>
AV-unprocessed.smi:3249-1

> <Gold.Version>
5.8.1

> <Gold.Id.Protein>
6NUR|6NUR_protein|mol2

> <Gold.PLP.Fitness>
45.8405

> <Gold.PLP.PLP>
-36.8857

> <Gold.PLP.part.hbond>
-2.8305

> <Gold.PLP.part.metal>
0.0000

> <Gold.PLP.part.buried>
1.6198

> <Gold.PLP.part.nonpolar>
-35.4860

> <Gold.PLP.part.repulsive>
0.8571

> <Gold.PLP.ligand.clash>
0.0000

> <Gold.PLP.ligand.torsion>
2.7906

> <Gold.PLP.Chemscore.Hbond>
3.9913

> <Gold.PLP.Chemscore.CHOScore>
0.8325

> <Gold.PLP.Chemscore.Metal>
0.0000

> <Gold.Chemscore.Hbonds>
donor molecule, donor type, donor heavy atom, donor atom, acceptor molecule, acceptor atom, score
      L1  H    10    31       P1  7957  0.86
      L1  H    10    44       P1  7948  2.00
      P1  H  7989  7998       L1     4  1.00
      L1  C    18    43       P1  8028  0.71

> <Gold.PLP.Chemscore.Internal.Correction>
0.0647

> <Gold.Rescore>
     Score         DG    S(hbond)    S(metal)    S(lipo)     H(rot)  DE(clash)    DE(int)     intcor
     15.29     -20.49       2.55        0.00      89.15       1.53       0.97       4.23       ----

> <Gold.Chemscore.Fitness>
15.2877

> <Gold.Chemscore.DG>
-20.4867

> <Gold.Chemscore.ZeroCoef>
-5.4800

> <Gold.Chemscore.Hbond>
2.5453

> <Gold.Chemscore.Metal>
0.0000

> <Gold.Chemscore.Lipo>
89.1500

> <Gold.Chemscore.Internal_Hbond>
0.0000

> <Gold.Chemscore.DEClash>
0.9716

> <Gold.Chemscore.DEInternal>
4.2274

> <Gold.Chemscore.Rot>
1.5333

> <Gold.Chemscore.Internal.Correction>
   9.000000E+99

> <Gold.Chemscore.Hbonds>
donor molecule, donor type, donor heavy atom, donor atom, acceptor molecule, acceptor atom, score
      L1  H    10    31       P1  7957  0.82
      L1  H    10    44       P1  7948  1.00
      P1  H  7989  7998       L1     4  0.27

> <Gold.Chemscore.Hbond.Weighted>
-8.5013

> <Gold.Chemscore.Metal.Weighted>
-0.0000

> <Gold.Chemscore.Lipo.Weighted>
-10.4305

> <Gold.Chemscore.Internal_Hbond.Weighted>
0.0000

> <Gold.Chemscore.DEClash.Weighted>
0.9716

> <Gold.Chemscore.DEInternal.Weighted>
4.2274

> <Gold.Chemscore.Rot.Weighted>
3.9252

> <Gold.Chemscore.Internal.Correction.Weighted>
   9.000000E+99

> <Gold.Protein.RotatedTorsions>
[ 6907 6896 6895 6894 ] final  -71.42 input  -60.11 | X-H torsion
[ 7974 7965 7964 7962 ] final   -0.24 input  175.53 | X-H torsion
[ 8008 7997 7996 7995 ] final  147.18 input   59.86 | X-H torsion
[ 10167 10162 10161 10158 ] final   44.17 input  -65.29 | X-H torsion
[ 10718 10713 10712 10709 ] final -112.88 input   66.30 | X-H torsion
[ 10763 10752 10751 10750 ] final -104.58 input  -60.55 | X-H torsion
[ 11005 11000 10999 10996 ] final -166.50 input  -57.11 | X-H torsion

> <Gold.Protein.ActiveResidues>
 VAL166  LYS551  ARG553  GLY616  TRP617  ASP618  TYR619  PRO620  LYS621  CYS622 
 ASP623  PHE694  ASN695  SER759  ASP760  ASP761  ALA762  ILE779  LEU786  VAL792 
 PHE793  MET794  SER795  GLU796  ALA797  LYS798  CYS799  TRP800  GLU811  SER814 

> <Gold.Protein.RotatedAtoms>
  150.7213  134.5311  159.5700 H   0  0  0  0  0  0  0  0  0  0  0  0  # atno 6907 bound_to 6896
  152.2844  134.7789  160.0399 H   0  0  0  0  0  0  0  0  0  0  0  0  # atno 6908 bound_to 6896
  151.8425  133.3390  159.3684 H   0  0  0  0  0  0  0  0  0  0  0  0  # atno 6909 bound_to 6896
  146.2429  140.1239  142.8339 H   0  0  0  0  0  0  0  0  0  0  0  0  # atno 7974 bound_to 7965
  156.2833  140.2162  156.5496 H   0  0  0  0  0  0  0  0  0  0  0  0  # atno 8008 bound_to 7997
  154.7302  140.0496  157.0742 H   0  0  0  0  0  0  0  0  0  0  0  0  # atno 8009 bound_to 7997
  155.0364  140.3140  155.4743 H   0  0  0  0  0  0  0  0  0  0  0  0  # atno 8010 bound_to 7997
  140.3370  144.2518  150.6160 H   0  0  0  0  0  0  0  0  0  0  0  0  # atno 10167 bound_to 10162
  156.0732  130.5943  150.8568 H   0  0  0  0  0  0  0  0  0  0  0  0  # atno 10718 bound_to 10713
  154.7888  135.4781  154.0006 H   0  0  0  0  0  0  0  0  0  0  0  0  # atno 10763 bound_to 10752
  153.1600  135.6807  153.8763 H   0  0  0  0  0  0  0  0  0  0  0  0  # atno 10764 bound_to 10752
  153.8380  135.3183  155.3402 H   0  0  0  0  0  0  0  0  0  0  0  0  # atno 10765 bound_to 10752
  140.5637  134.5307  157.5148 H   0  0  0  0  0  0  0  0  0  0  0  0  # atno 11005 bound_to 11000
  145.0383  140.8925  143.5068 LP  0  0  0  0  0  0  0  0  0  0  0  0  # atno 17320 bound_to 7965
  145.1315  139.2629  143.5537 LP  0  0  0  0  0  0  0  0  0  0  0  0  # atno 17321 bound_to 7965
  140.5345  143.2236  151.8185 LP  0  0  0  0  0  0  0  0  0  0  0  0  # atno 17342 bound_to 10162
  139.4847  144.4679  151.9461 LP  0  0  0  0  0  0  0  0  0  0  0  0  # atno 17343 bound_to 10162
  157.5815  131.0946  150.9264 LP  0  0  0  0  0  0  0  0  0  0  0  0  # atno 17370 bound_to 10713
  156.9459  130.5402  149.5281 LP  0  0  0  0  0  0  0  0  0  0  0  0  # atno 17371 bound_to 10713
  139.9395  134.7813  156.0715 LP  0  0  0  0  0  0  0  0  0  0  0  0  # atno 17394 bound_to 11000
  141.1099  133.6647  156.2952 LP  0  0  0  0  0  0  0  0  0  0  0  0  # atno 17395 bound_to 11000

$$$$
