AV-unprocessed.smi:791|AV-procd|sdf|3748|dock6
  -GOLD-   22720 1183D 1   1.00000     0.00000
 Structure written by MMmdl.
 30 32  0  0  0  0  0  0  0  0  2 V2000
  148.6282  141.4026  154.1013 C   0  0  0  0  0  0  0  0  0  0  0  0
  147.3504  141.5316  154.9476 C   0  0  0  0  0  0  0  0  0  0  0  0
  147.6157  142.3005  156.1834 N   0  3  0  0  0  0  0  0  0  0  0  0
  148.6745  141.6986  157.0235 C   0  0  0  0  0  0  0  0  0  0  0  0
  149.9861  141.5439  156.2281 C   0  0  1  0  0  0  0  0  0  0  0  0
  151.0803  140.9513  157.0613 C   0  0  0  0  0  0  0  0  0  0  0  0
  151.7919  139.9178  156.6273 N   0  0  0  0  0  0  0  0  0  0  0  0
  152.7009  139.6883  157.6699 O   0  0  0  0  0  0  0  0  0  0  0  0
  152.4135  140.6093  158.6198 C   0  0  0  0  0  0  0  0  0  0  0  0
  153.2389  140.6446  159.8606 C   0  0  0  0  0  0  0  0  0  0  0  0
  153.0476  141.7398  160.8842 C   0  0  0  0  0  0  0  0  0  0  0  0
  154.3053  141.6987  160.0537 C   0  0  0  0  0  0  0  0  0  0  0  0
  151.4307  141.4408  158.2835 N   0  0  0  0  0  0  0  0  0  0  0  0
  149.7658  140.7673  154.9155 C   0  0  0  0  0  0  0  0  0  0  0  0
  148.9355  142.3882  153.7488 H   0  0  0  0  0  0  0  0  0  0  0  0
  148.4281  140.8046  153.2115 H   0  0  0  0  0  0  0  0  0  0  0  0
  146.5680  142.0327  154.3774 H   0  0  0  0  0  0  0  0  0  0  0  0
  146.9689  140.5448  155.2133 H   0  0  0  0  0  0  0  0  0  0  0  0
  147.9028  143.2338  155.9248 H   0  0  0  0  0  0  0  0  0  0  0  0
  148.8321  142.3296  157.8987 H   0  0  0  0  0  0  0  0  0  0  0  0
  148.3293  140.7295  157.3868 H   0  0  0  0  0  0  0  0  0  0  0  0
  150.3050  142.5498  155.9473 H   0  0  0  0  0  0  0  0  0  0  0  0
  153.4408  139.6379  160.2210 H   0  0  0  0  0  0  0  0  0  0  0  0
  152.3229  142.5202  160.6601 H   0  0  0  0  0  0  0  0  0  0  0  0
  153.1300  141.4668  161.9341 H   0  0  0  0  0  0  0  0  0  0  0  0
  155.2255  141.3968  160.5495 H   0  0  0  0  0  0  0  0  0  0  0  0
  154.4185  142.4548  159.2791 H   0  0  0  0  0  0  0  0  0  0  0  0
  149.5162  139.7278  155.1333 H   0  0  0  0  0  0  0  0  0  0  0  0
  150.6832  140.7504  154.3257 H   0  0  0  0  0  0  0  0  0  0  0  0
  146.7638  142.3602  156.7229 H   0  0  0  0  0  0  0  0  0  0  0  0
  1 14  1  0  0  0  0
  1  2  1  0  0  0  0
  1 15  1  0  0  0  0
  1 16  1  0  0  0  0
  2  3  1  0  0  0  0
  2 17  1  0  0  0  0
  2 18  1  0  0  0  0
  3  4  1  0  0  0  0
  3 19  1  0  0  0  0
  3 30  1  0  0  0  0
  4  5  1  0  0  0  0
  4 20  1  0  0  0  0
  4 21  1  0  0  0  0
  5  6  1  0  0  0  0
  5 14  1  0  0  0  0
  5 22  1  0  0  0  0
  6 13  1  0  0  0  0
  6  7  2  0  0  0  0
  7  8  1  0  0  0  0
  8  9  1  0  0  0  0
  9 10  1  0  0  0  0
  9 13  2  0  0  0  0
 10 12  1  0  0  0  0
 10 11  1  0  0  0  0
 10 23  1  0  0  0  0
 11 12  1  0  0  0  0
 11 24  1  0  0  0  0
 11 25  1  0  0  0  0
 12 26  1  0  0  0  0
 12 27  1  0  0  0  0
 14 28  1  0  0  0  0
 14 29  1  0  0  0  0
M  CHG  1   3   1
M  END
> <s_m_source_file>
AV-unprocessed.smi

> <i_m_source_file_index>
791

> <i_lp_mmshare_version>
43012

> <i_f3d_flags>
0

> <s_epik_input>
W0NIMl0xW0NIMl1bQ0gyXVtOSF1bQ0gyXVtDQEhdMWMybm9jKG4yKVtDSF0zW0NIMl1bQ0gyXTM=

> <s_epik_cmdline>
J2VwaWtfcHl0aG9uJywgJy1waCcsICc3LjAnLCAnLXRuJywgJzgnLCAnLW1hJywgJzIwMCcsICctbWV0YWxfYmluZGluZycsICctaW1hZScsICc8aW5maWxlLm1hZT4nLCAnLW9tYWUnLCAnPG91dGZpbGUubWFlPic=

> <r_lp_tautomer_probability>
1

> <r_epik_Ionization_Penalty>
0.000532935

> <r_epik_Ionization_Penalty_Charging>
0.000532935

> <r_epik_Ionization_Penalty_Neutral>
2.72852e-13

> <r_epik_State_Penalty>
0.000332992

> <r_epik_Charging_Adjusted_Penalty>
0.000865928

> <i_epik_Tot_Q>
1

> <i_epik_Tot_abs_Q>
1

> <r_epik_Metal_State_Penalty>
-0

> <b_epik_Metal_Only>
0

> <s_lp_Force_Field>
OPLS_2005

> <r_lp_Energy>
11.8714

> <b_lp_Chiralities_Consistent>
1

> <s_lp_Variant>
AV-unprocessed.smi:791-1

> <Gold.Version>
5.8.1

> <Gold.Id.Protein>
6NUR|6NUR_protein|mol2

> <Gold.PLP.Fitness>
35.7516

> <Gold.PLP.PLP>
-27.1870

> <Gold.PLP.part.hbond>
-2.0000

> <Gold.PLP.part.metal>
0.0000

> <Gold.PLP.part.buried>
-2.3584

> <Gold.PLP.part.nonpolar>
-22.8485

> <Gold.PLP.part.repulsive>
0.0240

> <Gold.PLP.ligand.clash>
0.0000

> <Gold.PLP.ligand.torsion>
0.3061

> <Gold.PLP.Chemscore.Hbond>
3.0000

> <Gold.PLP.Chemscore.CHOScore>
0.0000

> <Gold.PLP.Chemscore.Metal>
0.0000

> <Gold.Chemscore.Hbonds>
donor molecule, donor type, donor heavy atom, donor atom, acceptor molecule, acceptor atom, score
      L1  H     3    19       P1  8028  2.00
      P1  H  7997  8009       L1     8  1.00

> <Gold.PLP.Chemscore.Internal.Correction>
0.1769

> <Gold.Rescore>
     Score         DG    S(hbond)    S(metal)    S(lipo)     H(rot)  DE(clash)    DE(int)     intcor
     12.57     -12.79       0.98        0.00      61.33       1.23       0.01       0.20       ----

> <Gold.Chemscore.Fitness>
12.5747

> <Gold.Chemscore.DG>
-12.7883

> <Gold.Chemscore.ZeroCoef>
-5.4800

> <Gold.Chemscore.Hbond>
0.9834

> <Gold.Chemscore.Metal>
0.0000

> <Gold.Chemscore.Lipo>
61.3296

> <Gold.Chemscore.Internal_Hbond>
0.0000

> <Gold.Chemscore.DEClash>
0.0090

> <Gold.Chemscore.DEInternal>
0.2045

> <Gold.Chemscore.Rot>
1.2312

> <Gold.Chemscore.Internal.Correction>
   9.000000E+99

> <Gold.Chemscore.Hbonds>
donor molecule, donor type, donor heavy atom, donor atom, acceptor molecule, acceptor atom, score
      L1  H     3    19       P1  8028  0.35
      P1  H  7997  8009       L1     8  0.24

> <Gold.Chemscore.Hbond.Weighted>
-3.2845

> <Gold.Chemscore.Metal.Weighted>
-0.0000

> <Gold.Chemscore.Lipo.Weighted>
-7.1756

> <Gold.Chemscore.Internal_Hbond.Weighted>
0.0000

> <Gold.Chemscore.DEClash.Weighted>
0.0090

> <Gold.Chemscore.DEInternal.Weighted>
0.2045

> <Gold.Chemscore.Rot.Weighted>
3.1518

> <Gold.Chemscore.Internal.Correction.Weighted>
   9.000000E+99

> <Gold.Protein.RotatedTorsions>
[ 6907 6896 6895 6894 ] final -165.03 input  -60.11 | X-H torsion
[ 7974 7965 7964 7962 ] final -121.37 input  175.53 | X-H torsion
[ 8008 7997 7996 7995 ] final  173.44 input   59.86 | X-H torsion
[ 10167 10162 10161 10158 ] final  -72.25 input  -65.29 | X-H torsion
[ 10718 10713 10712 10709 ] final   38.14 input   66.30 | X-H torsion
[ 10763 10752 10751 10750 ] final -128.30 input  -60.55 | X-H torsion
[ 11005 11000 10999 10996 ] final -156.50 input  -57.11 | X-H torsion

> <Gold.Protein.ActiveResidues>
 VAL166  LYS551  ARG553  GLY616  TRP617  ASP618  TYR619  PRO620  LYS621  CYS622 
 ASP623  PHE694  ASN695  SER759  ASP760  ASP761  ALA762  ILE779  LEU786  VAL792 
 PHE793  MET794  SER795  GLU796  ALA797  LYS798  CYS799  TRP800  GLU811  SER814 

> <Gold.Protein.RotatedAtoms>
  151.4212  133.3698  159.2756 H   0  0  0  0  0  0  0  0  0  0  0  0  # atno 6907 bound_to 6896
  150.9292  134.8709  159.7551 H   0  0  0  0  0  0  0  0  0  0  0  0  # atno 6908 bound_to 6896
  152.5020  134.4155  159.9515 H   0  0  0  0  0  0  0  0  0  0  0  0  # atno 6909 bound_to 6896
  145.0410  140.8145  143.4266 H   0  0  0  0  0  0  0  0  0  0  0  0  # atno 7974 bound_to 7965
  156.1075  140.1460  156.9384 H   0  0  0  0  0  0  0  0  0  0  0  0  # atno 8008 bound_to 7997
  154.4744  140.0899  156.7269 H   0  0  0  0  0  0  0  0  0  0  0  0  # atno 8009 bound_to 7997
  155.4654  140.3440  155.4320 H   0  0  0  0  0  0  0  0  0  0  0  0  # atno 8010 bound_to 7997
  140.5208  143.2332  151.7434 H   0  0  0  0  0  0  0  0  0  0  0  0  # atno 10167 bound_to 10162
  157.3553  130.7620  149.7008 H   0  0  0  0  0  0  0  0  0  0  0  0  # atno 10718 bound_to 10713
  154.8756  135.3933  154.3733 H   0  0  0  0  0  0  0  0  0  0  0  0  # atno 10763 bound_to 10752
  153.4490  135.7028  153.6126 H   0  0  0  0  0  0  0  0  0  0  0  0  # atno 10764 bound_to 10752
  153.4674  135.3798  155.2341 H   0  0  0  0  0  0  0  0  0  0  0  0  # atno 10765 bound_to 10752
  140.6749  134.4207  157.5230 H   0  0  0  0  0  0  0  0  0  0  0  0  # atno 11005 bound_to 11000
  145.1647  139.2438  143.5373 LP  0  0  0  0  0  0  0  0  0  0  0  0  # atno 17320 bound_to 7965
  146.3509  140.1383  142.8595 LP  0  0  0  0  0  0  0  0  0  0  0  0  # atno 17321 bound_to 7965
  139.4923  144.4258  151.9928 LP  0  0  0  0  0  0  0  0  0  0  0  0  # atno 17342 bound_to 10162
  140.3354  144.3266  150.5978 LP  0  0  0  0  0  0  0  0  0  0  0  0  # atno 17343 bound_to 10162
  155.9728  130.4129  150.4055 LP  0  0  0  0  0  0  0  0  0  0  0  0  # atno 17370 bound_to 10713
  157.2124  131.0463  151.2591 LP  0  0  0  0  0  0  0  0  0  0  0  0  # atno 17371 bound_to 10713
  139.8970  134.8647  156.2064 LP  0  0  0  0  0  0  0  0  0  0  0  0  # atno 17394 bound_to 11000
  141.0363  133.6961  156.1518 LP  0  0  0  0  0  0  0  0  0  0  0  0  # atno 17395 bound_to 11000

$$$$
