AV-unprocessed.smi:1224|AV-procd|sdf|5135|dock9
  -GOLD-   22720 4193D 1   1.00000     0.00000
 Structure written by MMmdl.
 44 46  0  0  0  0  0  0  0  0  2 V2000
  152.4531  143.1414  160.7701 C   0  0  0  0  0  0  0  0  0  0  0  0
  152.1088  142.3630  159.5117 C   0  0  0  0  0  0  0  0  0  0  0  0
  151.2183  142.9450  158.5812 C   0  0  0  0  0  0  0  0  0  0  0  0
  150.9247  142.2099  157.4387 C   0  0  0  0  0  0  0  0  0  0  0  0
  150.1003  142.4997  156.3490 N   0  3  0  0  0  0  0  0  0  0  0  0
  150.1335  141.4636  155.4657 C   0  0  0  0  0  0  0  0  0  0  0  0
  150.9623  140.5146  155.9793 N   0  0  0  0  0  0  0  0  0  0  0  0
  151.3513  139.2049  155.4399 C   0  0  0  0  0  0  0  0  0  0  0  0
  150.5411  138.8069  154.1880 C   0  0  1  0  0  0  0  0  0  0  0  0
  150.8655  137.4775  153.8355 O   0  0  0  0  0  0  0  0  0  0  0  0
  149.0238  138.8819  154.4178 C   0  0  0  0  0  0  0  0  0  0  0  0
  148.2840  138.6005  153.1886 N   0  0  0  0  0  0  0  0  0  0  0  0
  146.8849  139.0176  153.2274 C   0  0  0  0  0  0  0  0  0  0  0  0
  146.6985  140.3624  153.8513 C   0  0  0  0  0  0  0  0  0  0  0  0
  147.2142  141.5626  153.4319 C   0  0  0  0  0  0  0  0  0  0  0  0
  146.8415  142.6557  154.2679 C   0  0  0  0  0  0  0  0  0  0  0  0
  146.0456  142.2751  155.3155 C   0  0  0  0  0  0  0  0  0  0  0  0
  145.7375  140.5605  155.2951 S   0  0  0  0  0  0  0  0  0  0  0  0
  151.4827  140.9384  157.2060 C   0  0  0  0  0  0  0  0  0  0  0  0
  152.3619  140.3499  158.1112 C   0  0  0  0  0  0  0  0  0  0  0  0
  152.6729  141.0814  159.2798 C   0  0  0  0  0  0  0  0  0  0  0  0
  153.6292  140.4655  160.2869 C   0  0  0  0  0  0  0  0  0  0  0  0
  151.9469  144.1069  160.7932 H   0  0  0  0  0  0  0  0  0  0  0  0
  153.5260  143.3266  160.8243 H   0  0  0  0  0  0  0  0  0  0  0  0
  152.1517  142.5860  161.6586 H   0  0  0  0  0  0  0  0  0  0  0  0
  150.7853  143.9201  158.7507 H   0  0  0  0  0  0  0  0  0  0  0  0
  149.5968  141.4036  154.5297 H   0  0  0  0  0  0  0  0  0  0  0  0
  152.4154  139.2505  155.2035 H   0  0  0  0  0  0  0  0  0  0  0  0
  151.2435  138.4638  156.2330 H   0  0  0  0  0  0  0  0  0  0  0  0
  150.8117  139.4442  153.3451 H   0  0  0  0  0  0  0  0  0  0  0  0
  150.1393  137.1095  153.3560 H   0  0  0  0  0  0  0  0  0  0  0  0
  148.7395  138.1560  155.1808 H   0  0  0  0  0  0  0  0  0  0  0  0
  148.7575  139.8642  154.8103 H   0  0  0  0  0  0  0  0  0  0  0  0
  148.3402  137.6116  152.9676 H   0  0  0  0  0  0  0  0  0  0  0  0
  146.4990  139.0569  152.2086 H   0  0  0  0  0  0  0  0  0  0  0  0
  146.2820  138.2708  153.7454 H   0  0  0  0  0  0  0  0  0  0  0  0
  147.8418  141.6915  152.5626 H   0  0  0  0  0  0  0  0  0  0  0  0
  147.1655  143.6675  154.0744 H   0  0  0  0  0  0  0  0  0  0  0  0
  145.6233  142.8932  156.0939 H   0  0  0  0  0  0  0  0  0  0  0  0
  152.7907  139.3748  157.9316 H   0  0  0  0  0  0  0  0  0  0  0  0
  153.9462  139.4687  159.9783 H   0  0  0  0  0  0  0  0  0  0  0  0
  153.1530  140.3748  161.2634 H   0  0  0  0  0  0  0  0  0  0  0  0
  154.5222  141.0819  160.3924 H   0  0  0  0  0  0  0  0  0  0  0  0
  149.5565  143.3426  156.2144 H   0  0  0  0  0  0  0  0  0  0  0  0
  1  2  1  0  0  0  0
  1 23  1  0  0  0  0
  1 24  1  0  0  0  0
  1 25  1  0  0  0  0
  2 21  1  0  0  0  0
  2  3  2  0  0  0  0
  3  4  1  0  0  0  0
  3 26  1  0  0  0  0
  4 19  2  0  0  0  0
  4  5  1  0  0  0  0
  5  6  2  0  0  0  0
  5 44  1  0  0  0  0
  6  7  1  0  0  0  0
  6 27  1  0  0  0  0
  7  8  1  0  0  0  0
  7 19  1  0  0  0  0
  8  9  1  0  0  0  0
  8 28  1  0  0  0  0
  8 29  1  0  0  0  0
  9 10  1  0  0  0  0
  9 11  1  0  0  0  0
  9 30  1  0  0  0  0
 10 31  1  0  0  0  0
 11 12  1  0  0  0  0
 11 32  1  0  0  0  0
 11 33  1  0  0  0  0
 12 13  1  0  0  0  0
 12 34  1  0  0  0  0
 13 14  1  0  0  0  0
 13 35  1  0  0  0  0
 13 36  1  0  0  0  0
 14 18  1  0  0  0  0
 14 15  2  0  0  0  0
 15 16  1  0  0  0  0
 15 37  1  0  0  0  0
 16 17  2  0  0  0  0
 16 38  1  0  0  0  0
 17 18  1  0  0  0  0
 17 39  1  0  0  0  0
 19 20  1  0  0  0  0
 20 21  2  0  0  0  0
 20 40  1  0  0  0  0
 21 22  1  0  0  0  0
 22 41  1  0  0  0  0
 22 42  1  0  0  0  0
 22 43  1  0  0  0  0
M  CHG  1   5   1
M  END
> <s_m_source_file>
AV-unprocessed.smi

> <i_m_source_file_index>
1224

> <i_lp_mmshare_version>
43012

> <i_f3d_flags>
0

> <s_epik_input>
W0NIM11jKFtjSF0xKWMoW0NIM10pW2NIXWMoYzEyKW4oW2NIXW4yKVtDSDJdW0NASF0oW09IXSlbQ0gyXVtOSF1bQ0gyXWMzW2NIXVtjSF1bY0hdczM=

> <s_epik_cmdline>
J2VwaWtfcHl0aG9uJywgJy1waCcsICc3LjAnLCAnLXRuJywgJzgnLCAnLW1hJywgJzIwMCcsICctbWV0YWxfYmluZGluZycsICctaW1hZScsICc8aW5maWxlLm1hZT4nLCAnLW9tYWUnLCAnPG91dGZpbGUubWFlPic=

> <r_epik_Ionization_Penalty>
2.3772

> <r_epik_Ionization_Penalty_Charging>
0.996291

> <r_epik_Ionization_Penalty_Neutral>
1.38091

> <r_epik_State_Penalty>
2.60954

> <r_epik_Charging_Adjusted_Penalty>
3.60583

> <i_epik_Tot_Q>
1

> <i_epik_Tot_abs_Q>
1

> <r_epik_Metal_State_Penalty>
6.5861

> <b_epik_Metal_Only>
0

> <s_lp_Force_Field>
OPLS_2005

> <r_lp_Energy>
14.7648

> <b_lp_Chiralities_Consistent>
1

> <s_lp_Variant>
AV-unprocessed.smi:1224-8

> <Gold.Version>
5.8.1

> <Gold.Id.Protein>
6NUR|6NUR_protein|mol2

> <Gold.PLP.Fitness>
60.4043

> <Gold.PLP.PLP>
-49.5968

> <Gold.PLP.part.hbond>
-5.0000

> <Gold.PLP.part.metal>
0.0000

> <Gold.PLP.part.buried>
-6.4611

> <Gold.PLP.part.nonpolar>
-38.8365

> <Gold.PLP.part.repulsive>
0.0874

> <Gold.PLP.ligand.clash>
0.0313

> <Gold.PLP.ligand.torsion>
0.2372

> <Gold.PLP.Chemscore.Hbond>
3.7460

> <Gold.PLP.Chemscore.CHOScore>
0.0000

> <Gold.PLP.Chemscore.Metal>
0.0000

> <Gold.Chemscore.Hbonds>
donor molecule, donor type, donor heavy atom, donor atom, acceptor molecule, acceptor atom, score
      L1  H     5    44       P1  8028  2.00
      L1  H    10    31       P1  7948  0.80
      L1  H    12    34       P1  7948  0.98

> <Gold.PLP.Chemscore.Internal.Correction>
0.0752

> <Gold.Rescore>
     Score         DG    S(hbond)    S(metal)    S(lipo)     H(rot)  DE(clash)    DE(int)     intcor
     19.02     -20.33       2.24        0.00     115.58       2.40       0.12       1.20       ----

> <Gold.Chemscore.Fitness>
19.0189

> <Gold.Chemscore.DG>
-20.3340

> <Gold.Chemscore.ZeroCoef>
-5.4800

> <Gold.Chemscore.Hbond>
2.2374

> <Gold.Chemscore.Metal>
0.0000

> <Gold.Chemscore.Lipo>
115.5784

> <Gold.Chemscore.Internal_Hbond>
0.0000

> <Gold.Chemscore.DEClash>
0.1169

> <Gold.Chemscore.DEInternal>
1.1982

> <Gold.Chemscore.Rot>
2.3990

> <Gold.Chemscore.Internal.Correction>
   9.000000E+99

> <Gold.Chemscore.Hbonds>
donor molecule, donor type, donor heavy atom, donor atom, acceptor molecule, acceptor atom, score
      L1  H     5    44       P1  8028  0.99
      L1  H    10    31       P1  7948  0.13
      L1  H    12    34       P1  7948  0.93

> <Gold.Chemscore.Hbond.Weighted>
-7.4728

> <Gold.Chemscore.Metal.Weighted>
-0.0000

> <Gold.Chemscore.Lipo.Weighted>
-13.5227

> <Gold.Chemscore.Internal_Hbond.Weighted>
0.0000

> <Gold.Chemscore.DEClash.Weighted>
0.1169

> <Gold.Chemscore.DEInternal.Weighted>
1.1982

> <Gold.Chemscore.Rot.Weighted>
6.1415

> <Gold.Chemscore.Internal.Correction.Weighted>
   9.000000E+99

> <Gold.Protein.RotatedTorsions>
[ 6907 6896 6895 6894 ] final  159.85 input  -60.11 | X-H torsion
[ 7974 7965 7964 7962 ] final    9.23 input  175.53 | X-H torsion
[ 8008 7997 7996 7995 ] final   -6.41 input   59.86 | X-H torsion
[ 10167 10162 10161 10158 ] final  153.54 input  -65.29 | X-H torsion
[ 10718 10713 10712 10709 ] final  141.45 input   66.30 | X-H torsion
[ 10763 10752 10751 10750 ] final   -1.51 input  -60.55 | X-H torsion
[ 11005 11000 10999 10996 ] final  -45.95 input  -57.11 | X-H torsion

> <Gold.Protein.ActiveResidues>
 VAL166  LYS551  ARG553  GLY616  TRP617  ASP618  TYR619  PRO620  LYS621  CYS622 
 ASP623  PHE694  ASN695  SER759  ASP760  ASP761  ALA762  ILE779  LEU786  VAL792 
 PHE793  MET794  SER795  GLU796  ALA797  LYS798  CYS799  TRP800  GLU811  SER814 

> <Gold.Protein.RotatedAtoms>
  151.9795  133.3753  159.4101 H   0  0  0  0  0  0  0  0  0  0  0  0  # atno 6907 bound_to 6896
  150.6937  134.4054  159.5147 H   0  0  0  0  0  0  0  0  0  0  0  0  # atno 6908 bound_to 6896
  152.1771  134.8785  160.0580 H   0  0  0  0  0  0  0  0  0  0  0  0  # atno 6909 bound_to 6896
  146.2406  139.9815  142.8435 H   0  0  0  0  0  0  0  0  0  0  0  0  # atno 7974 bound_to 7965
  154.5941  140.2433  155.7881 H   0  0  0  0  0  0  0  0  0  0  0  0  # atno 8008 bound_to 7997
  156.2267  140.2980  156.0038 H   0  0  0  0  0  0  0  0  0  0  0  0  # atno 8009 bound_to 7997
  155.2324  140.0404  157.2954 H   0  0  0  0  0  0  0  0  0  0  0  0  # atno 8010 bound_to 7997
  139.4827  144.5264  151.7793 H   0  0  0  0  0  0  0  0  0  0  0  0  # atno 10167 bound_to 10162
  157.3918  131.1006  151.0638 H   0  0  0  0  0  0  0  0  0  0  0  0  # atno 10718 bound_to 10713
  153.3458  135.6983  153.6829 H   0  0  0  0  0  0  0  0  0  0  0  0  # atno 10763 bound_to 10752
  153.5576  135.3541  155.2786 H   0  0  0  0  0  0  0  0  0  0  0  0  # atno 10764 bound_to 10752
  154.8645  135.4241  154.2681 H   0  0  0  0  0  0  0  0  0  0  0  0  # atno 10765 bound_to 10752
  141.0548  133.6730  156.3086 H   0  0  0  0  0  0  0  0  0  0  0  0  # atno 11005 bound_to 11000
  145.1587  140.9661  143.4390 LP  0  0  0  0  0  0  0  0  0  0  0  0  # atno 17320 bound_to 7965
  145.0136  139.3487  143.6107 LP  0  0  0  0  0  0  0  0  0  0  0  0  # atno 17321 bound_to 7965
  140.4785  144.1484  150.5928 LP  0  0  0  0  0  0  0  0  0  0  0  0  # atno 17342 bound_to 10162
  140.4304  143.2571  151.9602 LP  0  0  0  0  0  0  0  0  0  0  0  0  # atno 17343 bound_to 10162
  157.1669  130.6250  149.5628 LP  0  0  0  0  0  0  0  0  0  0  0  0  # atno 17370 bound_to 10713
  155.9800  130.4798  150.6749 LP  0  0  0  0  0  0  0  0  0  0  0  0  # atno 17371 bound_to 10713
  140.5985  134.5579  157.5513 LP  0  0  0  0  0  0  0  0  0  0  0  0  # atno 17394 bound_to 11000
  139.9381  134.7838  156.0750 LP  0  0  0  0  0  0  0  0  0  0  0  0  # atno 17395 bound_to 11000

$$$$
