AV-unprocessed.smi:241|AV-procd|sdf|1843|dock3
  -GOLD-   2262020463D 1   1.00000     0.00000
 Structure written by MMmdl.
 54 57  0  0  0  0  0  0  0  0  1 V2000
  156.3141  139.4859  159.5771 C   0  0  0  0  0  0  0  0  0  0  0  0
  155.1951  140.0813  158.9450 O   0  0  0  0  0  0  0  0  0  0  0  0
  153.9737  139.4481  159.2933 C   0  0  0  0  0  0  0  0  0  0  0  0
  152.8374  140.4878  159.3403 C   0  0  1  0  0  0  0  0  0  0  0  0
  153.0337  141.5808  160.4021 C   0  0  0  0  0  0  0  0  0  0  0  0
  152.5284  142.8770  159.7460 C   0  0  2  0  0  0  0  0  0  0  0  0
  151.5248  143.5300  160.5096 O   0  0  0  0  0  0  0  0  0  0  0  0
  151.2778  144.8634  160.0932 C   0  0  0  0  0  0  0  0  0  0  0  0
  151.9497  142.4295  158.4020 C   0  0  0  0  0  0  0  0  0  0  0  0
  152.6422  141.1946  158.0774 N   0  0  0  0  0  0  0  0  0  0  0  0
  152.1541  140.5489  156.9878 C   0  0  0  0  0  0  0  0  0  0  0  0
  152.9094  139.6230  156.3384 N   0  0  0  0  0  0  0  0  0  0  0  0
  152.4255  138.9860  155.2684 C   0  0  0  0  0  0  0  0  0  0  0  0
  151.2304  139.1158  154.6903 N   0  0  0  0  0  0  0  0  0  0  0  0
  150.4646  140.0388  155.3399 C   0  0  0  0  0  0  0  0  0  0  0  0
  150.8469  140.7959  156.4834 C   0  0  0  0  0  0  0  0  0  0  0  0
  149.8154  141.6522  156.8500 N   0  0  0  0  0  0  0  0  0  0  0  0
  148.8781  141.4156  155.9730 C   0  0  0  0  0  0  0  0  0  0  0  0
  149.1731  140.4406  155.0468 N   0  0  0  0  0  0  0  0  0  0  0  0
  148.3469  140.0187  153.9543 C   0  0  0  0  0  0  0  0  0  0  0  0
  146.8241  139.9621  154.0892 C   0  0  0  0  0  0  0  0  0  0  0  0
  146.7901  138.7608  153.1165 C   0  0  0  0  0  0  0  0  0  0  0  0
  145.8393  137.6094  153.4869 C   0  0  0  0  0  0  0  0  0  0  0  0
  144.5478  137.8069  152.9509 O   0  0  0  0  0  0  0  0  0  0  0  0
  146.6228  139.0936  151.6189 C   0  0  0  0  0  0  0  0  0  0  0  0
  146.7941  137.9570  150.7972 O   0  0  0  0  0  0  0  0  0  0  0  0
  148.2575  138.5452  153.5496 C   0  0  0  0  0  0  0  0  0  0  0  0
  151.9072  139.9703  159.5802 H   0  0  0  0  0  0  0  0  0  0  0  0
  153.3691  143.5470  159.5561 H   0  0  0  0  0  0  0  0  0  0  0  0
  157.2237  140.0083  159.2808 H   0  0  0  0  0  0  0  0  0  0  0  0
  156.4185  138.4392  159.2889 H   0  0  0  0  0  0  0  0  0  0  0  0
  156.2307  139.5442  160.6630 H   0  0  0  0  0  0  0  0  0  0  0  0
  153.7464  138.6580  158.5770 H   0  0  0  0  0  0  0  0  0  0  0  0
  154.0721  138.9721  160.2700 H   0  0  0  0  0  0  0  0  0  0  0  0
  152.4828  141.3312  161.3096 H   0  0  0  0  0  0  0  0  0  0  0  0
  154.0818  141.6952  160.6801 H   0  0  0  0  0  0  0  0  0  0  0  0
  150.5082  145.3051  160.7260 H   0  0  0  0  0  0  0  0  0  0  0  0
  150.9215  144.8929  159.0629 H   0  0  0  0  0  0  0  0  0  0  0  0
  152.1713  145.4839  160.1713 H   0  0  0  0  0  0  0  0  0  0  0  0
  150.8807  142.2282  158.4899 H   0  0  0  0  0  0  0  0  0  0  0  0
  152.0879  143.1964  157.6397 H   0  0  0  0  0  0  0  0  0  0  0  0
  153.0908  138.2685  154.8113 H   0  0  0  0  0  0  0  0  0  0  0  0
  147.9380  141.9479  155.9817 H   0  0  0  0  0  0  0  0  0  0  0  0
  148.6359  140.6372  153.1030 H   0  0  0  0  0  0  0  0  0  0  0  0
  146.5030  139.6960  155.0982 H   0  0  0  0  0  0  0  0  0  0  0  0
  146.3074  140.8561  153.7396 H   0  0  0  0  0  0  0  0  0  0  0  0
  146.2238  136.6497  153.1407 H   0  0  0  0  0  0  0  0  0  0  0  0
  145.7328  137.5240  154.5686 H   0  0  0  0  0  0  0  0  0  0  0  0
  144.4222  138.7337  152.8118 H   0  0  0  0  0  0  0  0  0  0  0  0
  145.6319  139.4990  151.4136 H   0  0  0  0  0  0  0  0  0  0  0  0
  147.3319  139.8606  151.3057 H   0  0  0  0  0  0  0  0  0  0  0  0
  147.1756  137.2658  151.3167 H   0  0  0  0  0  0  0  0  0  0  0  0
  148.9373  138.2568  152.7469 H   0  0  0  0  0  0  0  0  0  0  0  0
  148.3620  137.8757  154.4055 H   0  0  0  0  0  0  0  0  0  0  0  0
  1  2  1  0  0  0  0
  1 30  1  0  0  0  0
  1 31  1  0  0  0  0
  1 32  1  0  0  0  0
  2  3  1  0  0  0  0
  3  4  1  0  0  0  0
  3 33  1  0  0  0  0
  3 34  1  0  0  0  0
  4 28  1  0  0  0  0
  4 10  1  0  0  0  0
  4  5  1  0  0  0  0
  5  6  1  0  0  0  0
  5 35  1  0  0  0  0
  5 36  1  0  0  0  0
  6 29  1  0  0  0  0
  6  7  1  0  0  0  0
  6  9  1  0  0  0  0
  7  8  1  0  0  0  0
  8 37  1  0  0  0  0
  8 38  1  0  0  0  0
  8 39  1  0  0  0  0
  9 10  1  0  0  0  0
  9 40  1  0  0  0  0
  9 41  1  0  0  0  0
 10 11  1  0  0  0  0
 11 16  1  0  0  0  0
 11 12  2  0  0  0  0
 12 13  1  0  0  0  0
 13 14  2  0  0  0  0
 13 42  1  0  0  0  0
 14 15  1  0  0  0  0
 15 19  1  0  0  0  0
 15 16  2  0  0  0  0
 16 17  1  0  0  0  0
 17 18  2  0  0  0  0
 18 19  1  0  0  0  0
 18 43  1  0  0  0  0
 19 20  1  0  0  0  0
 20 27  1  0  0  0  0
 20 21  1  0  0  0  0
 20 44  1  0  0  0  0
 21 22  1  0  0  0  0
 21 45  1  0  0  0  0
 21 46  1  0  0  0  0
 22 23  1  0  0  0  0
 22 25  1  0  0  0  0
 22 27  1  0  0  0  0
 23 24  1  0  0  0  0
 23 47  1  0  0  0  0
 23 48  1  0  0  0  0
 24 49  1  0  0  0  0
 25 26  1  0  0  0  0
 25 50  1  0  0  0  0
 25 51  1  0  0  0  0
 26 52  1  0  0  0  0
 27 53  1  0  0  0  0
 27 54  1  0  0  0  0
M  END
> <s_m_source_file>
AV-unprocessed.smi

> <i_m_source_file_index>
241

> <i_lp_mmshare_version>
43012

> <i_f3d_flags>
0

> <s_epik_input>
W0NIM11PW0NIMl1bQ0BASF0xW0NIMl1bQ0BASF0oT1tDSDNdKVtDSDJdTjFjKG5bY0hdbjIpYyhjMjMpbltjSF1uM1tDSF0oW0NIMl00KVtDSDJdQzQoW0NIMl1bT0hdKVtDSDJdW09IXQ==

> <s_epik_cmdline>
J2VwaWtfcHl0aG9uJywgJy1waCcsICc3LjAnLCAnLXRuJywgJzgnLCAnLW1hJywgJzIwMCcsICctbWV0YWxfYmluZGluZycsICctaW1hZScsICc8aW5maWxlLm1hZT4nLCAnLW9tYWUnLCAnPG91dGZpbGUubWFlPic=

> <r_lp_tautomer_probability>
1

> <r_epik_Ionization_Penalty>
0.00568677

> <r_epik_Ionization_Penalty_Charging>
0

> <r_epik_Ionization_Penalty_Neutral>
0.00568677

> <r_epik_State_Penalty>
0.00400877

> <r_epik_Charging_Adjusted_Penalty>
0.00400877

> <i_epik_Tot_Q>
0

> <i_epik_Tot_abs_Q>
0

> <r_epik_Metal_State_Penalty>
-0

> <b_epik_Metal_Only>
0

> <s_lp_Force_Field>
OPLS_2005

> <r_lp_Energy>
54.996

> <b_lp_Chiralities_Consistent>
1

> <s_lp_Variant>
AV-unprocessed.smi:241-4

> <Gold.Version>
5.8.1

> <Gold.Id.Protein>
6NUR|6NUR_protein|mol2

> <Gold.PLP.Fitness>
58.3489

> <Gold.PLP.PLP>
-46.8256

> <Gold.PLP.part.hbond>
-6.3996

> <Gold.PLP.part.metal>
0.0000

> <Gold.PLP.part.buried>
1.7215

> <Gold.PLP.part.nonpolar>
-41.1692

> <Gold.PLP.part.repulsive>
0.2703

> <Gold.PLP.ligand.clash>
0.0000

> <Gold.PLP.ligand.torsion>
1.6583

> <Gold.PLP.Chemscore.Hbond>
4.3460

> <Gold.PLP.Chemscore.CHOScore>
0.3846

> <Gold.PLP.Chemscore.Metal>
0.0000

> <Gold.Chemscore.Hbonds>
donor molecule, donor type, donor heavy atom, donor atom, acceptor molecule, acceptor atom, score
      L1  H    24    49       P1 10175  1.00
      L1  H    26    52       P1  7948  0.79
      P1  H  7954  7966       L1    26  0.30
      P1  H  7997  8008       L1    12  0.99
      P1  H  7997  8010       L1     2  0.85

> <Gold.PLP.Chemscore.Internal.Correction>
0.6483

> <Gold.Rescore>
     Score         DG    S(hbond)    S(metal)    S(lipo)     H(rot)  DE(clash)    DE(int)     intcor
     12.42     -15.93       2.51        0.00     104.57       3.97       0.51       3.00       ----

> <Gold.Chemscore.Fitness>
12.4169

> <Gold.Chemscore.DG>
-15.9252

> <Gold.Chemscore.ZeroCoef>
-5.4800

> <Gold.Chemscore.Hbond>
2.5091

> <Gold.Chemscore.Metal>
0.0000

> <Gold.Chemscore.Lipo>
104.5740

> <Gold.Chemscore.Internal_Hbond>
0.0000

> <Gold.Chemscore.DEClash>
0.5071

> <Gold.Chemscore.DEInternal>
3.0012

> <Gold.Chemscore.Rot>
3.9727

> <Gold.Chemscore.Internal.Correction>
   9.000000E+99

> <Gold.Chemscore.Hbonds>
donor molecule, donor type, donor heavy atom, donor atom, acceptor molecule, acceptor atom, score
      L1  H    24    49       P1 10175  1.00
      L1  H    26    52       P1  7948  0.74
      P1  H  7997  8008       L1    12  0.57
      P1  H  7997  8010       L1     2  0.40

> <Gold.Chemscore.Hbond.Weighted>
-8.3803

> <Gold.Chemscore.Metal.Weighted>
-0.0000

> <Gold.Chemscore.Lipo.Weighted>
-12.2352

> <Gold.Chemscore.Internal_Hbond.Weighted>
0.0000

> <Gold.Chemscore.DEClash.Weighted>
0.5071

> <Gold.Chemscore.DEInternal.Weighted>
3.0012

> <Gold.Chemscore.Rot.Weighted>
10.1702

> <Gold.Chemscore.Internal.Correction.Weighted>
   9.000000E+99

> <Gold.Protein.RotatedTorsions>
[ 6907 6896 6895 6894 ] final   37.87 input  -60.11 | X-H torsion
[ 7974 7965 7964 7962 ] final  159.22 input  175.53 | X-H torsion
[ 8008 7997 7996 7995 ] final  -25.44 input   59.86 | X-H torsion
[ 10167 10162 10161 10158 ] final  -18.90 input  -65.29 | X-H torsion
[ 10718 10713 10712 10709 ] final -155.93 input   66.30 | X-H torsion
[ 10763 10752 10751 10750 ] final  154.69 input  -60.55 | X-H torsion
[ 11005 11000 10999 10996 ] final    3.65 input  -57.11 | X-H torsion

> <Gold.Protein.ActiveResidues>
 VAL166  LYS551  ARG553  GLY616  TRP617  ASP618  TYR619  PRO620  LYS621  CYS622 
 ASP623  PHE694  ASN695  SER759  ASP760  ASP761  ALA762  ILE779  LEU786  VAL792 
 PHE793  MET794  SER795  GLU796  ALA797  LYS798  CYS799  TRP800  GLU811  SER814 

> <Gold.Protein.RotatedAtoms>
  152.1489  134.9004  160.0549 H   0  0  0  0  0  0  0  0  0  0  0  0  # atno 6907 bound_to 6896
  152.0043  133.3832  159.4202 H   0  0  0  0  0  0  0  0  0  0  0  0  # atno 6908 bound_to 6896
  150.6873  134.3722  159.5041 H   0  0  0  0  0  0  0  0  0  0  0  0  # atno 6909 bound_to 6896
  144.7802  139.7587  143.6262 H   0  0  0  0  0  0  0  0  0  0  0  0  # atno 7974 bound_to 7965
  154.4475  140.1926  156.0620 H   0  0  0  0  0  0  0  0  0  0  0  0  # atno 8008 bound_to 7997
  156.0575  140.3301  155.7396 H   0  0  0  0  0  0  0  0  0  0  0  0  # atno 8009 bound_to 7997
  155.5462  140.0591  157.2850 H   0  0  0  0  0  0  0  0  0  0  0  0  # atno 8010 bound_to 7997
  140.7263  143.4871  151.0041 H   0  0  0  0  0  0  0  0  0  0  0  0  # atno 10167 bound_to 10162
  156.5195  130.8472  151.2677 H   0  0  0  0  0  0  0  0  0  0  0  0  # atno 10718 bound_to 10713
  154.1564  135.2812  155.3121 H   0  0  0  0  0  0  0  0  0  0  0  0  # atno 10763 bound_to 10752
  154.6179  135.5477  153.7547 H   0  0  0  0  0  0  0  0  0  0  0  0  # atno 10764 bound_to 10752
  153.0205  135.6432  154.1707 H   0  0  0  0  0  0  0  0  0  0  0  0  # atno 10765 bound_to 10752
  140.5907  133.9927  155.8087 H   0  0  0  0  0  0  0  0  0  0  0  0  # atno 11005 bound_to 11000
  146.2006  139.5298  142.9746 LP  0  0  0  0  0  0  0  0  0  0  0  0  # atno 17320 bound_to 7965
  145.6071  141.0346  143.1987 LP  0  0  0  0  0  0  0  0  0  0  0  0  # atno 17321 bound_to 7965
  139.8573  143.7361  152.3175 LP  0  0  0  0  0  0  0  0  0  0  0  0  # atno 17342 bound_to 10162
  139.7563  144.7519  151.0430 LP  0  0  0  0  0  0  0  0  0  0  0  0  # atno 17343 bound_to 10162
  157.7439  130.9922  150.2628 LP  0  0  0  0  0  0  0  0  0  0  0  0  # atno 17370 bound_to 10713
  156.3163  130.3779  149.7616 LP  0  0  0  0  0  0  0  0  0  0  0  0  # atno 17371 bound_to 10713
  141.0937  133.9877  157.3196 LP  0  0  0  0  0  0  0  0  0  0  0  0  # atno 17394 bound_to 11000
  139.9275  135.0201  156.8287 LP  0  0  0  0  0  0  0  0  0  0  0  0  # atno 17395 bound_to 11000

$$$$
