AV-unprocessed.smi:268|AV-procd|sdf|2041|dock3
  -GOLD-   2262021263D 1   1.00000     0.00000
 Structure written by MMmdl.
 50 53  0  0  0  0  0  0  0  0  1 V2000
  152.4029  143.2316  161.2188 C   0  0  0  0  0  0  0  0  0  0  0  0
  152.9787  143.1651  159.7981 C   0  0  0  0  0  0  0  0  0  0  0  0
  152.7998  141.8894  159.1970 O   0  0  0  0  0  0  0  0  0  0  0  0
  151.4508  141.5584  158.8995 C   0  0  2  0  0  0  0  0  0  0  0  0
  151.2702  140.2598  158.0997 C   0  0  0  0  0  0  0  0  0  0  0  0
  150.2237  141.0079  157.2554 C   0  0  2  0  0  0  0  0  0  0  0  0
  150.2895  140.7178  155.8209 N   0  0  0  0  0  0  0  0  0  0  0  0
  149.1874  141.1939  154.9909 C   0  0  0  0  0  0  0  0  0  0  0  0
  150.7679  139.5074  155.4293 C   0  0  0  0  0  0  0  0  0  0  0  0
  151.9355  139.4276  154.7357 N   0  0  0  0  0  0  0  0  0  0  0  0
  152.4179  138.2406  154.3571 C   0  0  0  0  0  0  0  0  0  0  0  0
  151.9038  137.0270  154.5640 N   0  0  0  0  0  0  0  0  0  0  0  0
  150.7335  137.0985  155.2602 C   0  0  0  0  0  0  0  0  0  0  0  0
  150.1024  138.2849  155.7298 C   0  0  0  0  0  0  0  0  0  0  0  0
  148.9248  137.9611  156.3934 N   0  0  0  0  0  0  0  0  0  0  0  0
  148.8646  136.6594  156.3218 C   0  0  0  0  0  0  0  0  0  0  0  0
  149.9055  136.0597  155.6494 N   0  0  0  0  0  0  0  0  0  0  0  0
  150.0899  134.6356  155.4152 C   0  0  0  0  0  0  0  0  0  0  0  0
  148.8539  133.7830  155.7582 C   0  0  0  0  0  0  0  0  0  0  0  0
  147.6680  134.2614  154.8955 C   0  0  0  0  0  0  0  0  0  0  0  0
  147.8339  133.9507  153.5264 O   0  0  0  0  0  0  0  0  0  0  0  0
  149.1048  132.2685  155.7893 C   0  0  0  0  0  0  0  0  0  0  0  0
  148.5694  132.1459  157.1255 O   0  0  0  0  0  0  0  0  0  0  0  0
  148.5629  133.5849  157.2529 C   0  0  0  0  0  0  0  0  0  0  0  0
  150.9526  142.3004  157.6522 C   0  0  0  0  0  0  0  0  0  0  0  0
  152.6597  144.1788  161.6932 H   0  0  0  0  0  0  0  0  0  0  0  0
  152.8006  142.4293  161.8405 H   0  0  0  0  0  0  0  0  0  0  0  0
  151.3164  143.1539  161.2188 H   0  0  0  0  0  0  0  0  0  0  0  0
  152.5604  143.9523  159.1691 H   0  0  0  0  0  0  0  0  0  0  0  0
  154.0517  143.3506  159.8481 H   0  0  0  0  0  0  0  0  0  0  0  0
  150.7562  141.6599  159.7362 H   0  0  0  0  0  0  0  0  0  0  0  0
  152.1643  139.9782  157.5397 H   0  0  0  0  0  0  0  0  0  0  0  0
  150.8723  139.4226  158.6735 H   0  0  0  0  0  0  0  0  0  0  0  0
  149.2219  140.9513  157.6852 H   0  0  0  0  0  0  0  0  0  0  0  0
  149.5684  141.8304  154.1920 H   0  0  0  0  0  0  0  0  0  0  0  0
  148.4780  141.7808  155.5748 H   0  0  0  0  0  0  0  0  0  0  0  0
  148.6347  140.3687  154.5386 H   0  0  0  0  0  0  0  0  0  0  0  0
  153.3489  138.2675  153.8104 H   0  0  0  0  0  0  0  0  0  0  0  0
  148.0510  136.0994  156.7586 H   0  0  0  0  0  0  0  0  0  0  0  0
  150.3752  134.4907  154.3726 H   0  0  0  0  0  0  0  0  0  0  0  0
  150.9514  134.3143  156.0020 H   0  0  0  0  0  0  0  0  0  0  0  0
  146.7347  133.7990  155.2170 H   0  0  0  0  0  0  0  0  0  0  0  0
  147.5343  135.3400  154.9837 H   0  0  0  0  0  0  0  0  0  0  0  0
  147.9808  134.7543  153.0513 H   0  0  0  0  0  0  0  0  0  0  0  0
  148.5340  131.7004  155.0541 H   0  0  0  0  0  0  0  0  0  0  0  0
  150.1598  131.9931  155.7516 H   0  0  0  0  0  0  0  0  0  0  0  0
  149.3597  133.9303  157.9123 H   0  0  0  0  0  0  0  0  0  0  0  0
  147.5968  133.9734  157.5763 H   0  0  0  0  0  0  0  0  0  0  0  0
  150.2979  143.1474  157.8586 H   0  0  0  0  0  0  0  0  0  0  0  0
  151.7599  142.5723  156.9690 H   0  0  0  0  0  0  0  0  0  0  0  0
  1  2  1  0  0  0  0
  1 26  1  0  0  0  0
  1 27  1  0  0  0  0
  1 28  1  0  0  0  0
  2  3  1  0  0  0  0
  2 29  1  0  0  0  0
  2 30  1  0  0  0  0
  3  4  1  0  0  0  0
  4 25  1  0  0  0  0
  4  5  1  0  0  0  0
  4 31  1  0  0  0  0
  5  6  1  0  0  0  0
  5 32  1  0  0  0  0
  5 33  1  0  0  0  0
  6  7  1  0  0  0  0
  6 25  1  0  0  0  0
  6 34  1  0  0  0  0
  7  8  1  0  0  0  0
  7  9  1  0  0  0  0
  8 35  1  0  0  0  0
  8 36  1  0  0  0  0
  8 37  1  0  0  0  0
  9 14  1  0  0  0  0
  9 10  2  0  0  0  0
 10 11  1  0  0  0  0
 11 12  2  0  0  0  0
 11 38  1  0  0  0  0
 12 13  1  0  0  0  0
 13 17  1  0  0  0  0
 13 14  2  0  0  0  0
 14 15  1  0  0  0  0
 15 16  2  0  0  0  0
 16 17  1  0  0  0  0
 16 39  1  0  0  0  0
 17 18  1  0  0  0  0
 18 19  1  0  0  0  0
 18 40  1  0  0  0  0
 18 41  1  0  0  0  0
 19 24  1  0  0  0  0
 19 20  1  0  0  0  0
 19 22  1  0  0  0  0
 20 21  1  0  0  0  0
 20 42  1  0  0  0  0
 20 43  1  0  0  0  0
 21 44  1  0  0  0  0
 22 23  1  0  0  0  0
 22 45  1  0  0  0  0
 22 46  1  0  0  0  0
 23 24  1  0  0  0  0
 24 47  1  0  0  0  0
 24 48  1  0  0  0  0
 25 49  1  0  0  0  0
 25 50  1  0  0  0  0
M  END
> <s_m_source_file>
AV-unprocessed.smi

> <i_m_source_file_index>
268

> <i_lp_mmshare_version>
43012

> <i_f3d_flags>
0

> <s_epik_input>
W0NIM11bQ0gyXU9bQ0BASF0xW0NIMl1bQ0BIXShbQ0gyXTEpTihbQ0gzXSljKG5bY0hdbjIpYyhjMjMpbltjSF1uM1tDSDJdQzQoW0NIMl1bT0hdKVtDSDJdT1tDSDJdNA==

> <s_epik_cmdline>
J2VwaWtfcHl0aG9uJywgJy1waCcsICc3LjAnLCAnLXRuJywgJzgnLCAnLW1hJywgJzIwMCcsICctbWV0YWxfYmluZGluZycsICctaW1hZScsICc8aW5maWxlLm1hZT4nLCAnLW9tYWUnLCAnPG91dGZpbGUubWFlPic=

> <r_lp_tautomer_probability>
1

> <r_epik_Ionization_Penalty>
0.00205824

> <r_epik_Ionization_Penalty_Charging>
0

> <r_epik_Ionization_Penalty_Neutral>
0.00205824

> <r_epik_State_Penalty>
0.00125218

> <r_epik_Charging_Adjusted_Penalty>
0.00125218

> <i_epik_Tot_Q>
0

> <i_epik_Tot_abs_Q>
0

> <r_epik_Metal_State_Penalty>
-0

> <b_epik_Metal_Only>
0

> <s_lp_Force_Field>
OPLS_2005

> <r_lp_Energy>
41.5967

> <b_lp_Chiralities_Consistent>
1

> <s_lp_Variant>
AV-unprocessed.smi:268-2

> <Gold.Version>
5.8.1

> <Gold.Id.Protein>
6NUR|6NUR_protein|mol2

> <Gold.PLP.Fitness>
45.8860

> <Gold.PLP.PLP>
-39.2695

> <Gold.PLP.part.hbond>
-3.0000

> <Gold.PLP.part.metal>
0.0000

> <Gold.PLP.part.buried>
-8.2192

> <Gold.PLP.part.nonpolar>
-29.4133

> <Gold.PLP.part.repulsive>
0.2425

> <Gold.PLP.ligand.clash>
0.0000

> <Gold.PLP.ligand.torsion>
1.5008

> <Gold.PLP.Chemscore.Hbond>
2.7440

> <Gold.PLP.Chemscore.CHOScore>
0.0000

> <Gold.PLP.Chemscore.Metal>
0.0000

> <Gold.Chemscore.Hbonds>
donor molecule, donor type, donor heavy atom, donor atom, acceptor molecule, acceptor atom, score
      L1  H    21    44       P1  7948  0.83
      P1  H  7989  7998       L1    10  0.96
      P1  H 10752 10765       L1    12  1.00

> <Gold.PLP.Chemscore.Internal.Correction>
1.3860

> <Gold.Rescore>
     Score         DG    S(hbond)    S(metal)    S(lipo)     H(rot)  DE(clash)    DE(int)     intcor
     12.83     -14.45       2.46        0.00      75.38       3.15       0.05       1.57       ----

> <Gold.Chemscore.Fitness>
12.8317

> <Gold.Chemscore.DG>
-14.4488

> <Gold.Chemscore.ZeroCoef>
-5.4800

> <Gold.Chemscore.Hbond>
2.4623

> <Gold.Chemscore.Metal>
0.0000

> <Gold.Chemscore.Lipo>
75.3788

> <Gold.Chemscore.Internal_Hbond>
0.0000

> <Gold.Chemscore.DEClash>
0.0515

> <Gold.Chemscore.DEInternal>
1.5655

> <Gold.Chemscore.Rot>
3.1542

> <Gold.Chemscore.Internal.Correction>
   9.000000E+99

> <Gold.Chemscore.Hbonds>
donor molecule, donor type, donor heavy atom, donor atom, acceptor molecule, acceptor atom, score
      L1  H    21    44       P1  7948  0.70
      P1  H  7989  7998       L1    10  0.23
      P1  H 10752 10765       L1    12  0.88

> <Gold.Chemscore.Hbond.Weighted>
-8.2242

> <Gold.Chemscore.Metal.Weighted>
-0.0000

> <Gold.Chemscore.Lipo.Weighted>
-8.8193

> <Gold.Chemscore.Internal_Hbond.Weighted>
0.0000

> <Gold.Chemscore.DEClash.Weighted>
0.0515

> <Gold.Chemscore.DEInternal.Weighted>
1.5655

> <Gold.Chemscore.Rot.Weighted>
8.0748

> <Gold.Chemscore.Internal.Correction.Weighted>
   9.000000E+99

> <Gold.Protein.RotatedTorsions>
[ 6907 6896 6895 6894 ] final  115.43 input  -60.11 | X-H torsion
[ 7974 7965 7964 7962 ] final   64.94 input  175.53 | X-H torsion
[ 8008 7997 7996 7995 ] final -159.45 input   59.86 | X-H torsion
[ 10167 10162 10161 10158 ] final  120.09 input  -65.29 | X-H torsion
[ 10718 10713 10712 10709 ] final   39.20 input   66.30 | X-H torsion
[ 10763 10752 10751 10750 ] final  159.20 input  -60.55 | X-H torsion
[ 11005 11000 10999 10996 ] final   27.22 input  -57.11 | X-H torsion

> <Gold.Protein.ActiveResidues>
 VAL166  LYS551  ARG553  GLY616  TRP617  ASP618  TYR619  PRO620  LYS621  CYS622 
 ASP623  PHE694  ASN695  SER759  ASP760  ASP761  ALA762  ILE779  LEU786  VAL792 
 PHE793  MET794  SER795  GLU796  ALA797  LYS798  CYS799  TRP800  GLU811  SER814 

> <Gold.Protein.RotatedAtoms>
  152.4742  133.8099  159.6997 H   0  0  0  0  0  0  0  0  0  0  0  0  # atno 6907 bound_to 6896
  150.8749  133.7444  159.2956 H   0  0  0  0  0  0  0  0  0  0  0  0  # atno 6908 bound_to 6896
  151.4967  135.1063  159.9870 H   0  0  0  0  0  0  0  0  0  0  0  0  # atno 6909 bound_to 6896
  145.8444  139.3215  143.0912 H   0  0  0  0  0  0  0  0  0  0  0  0  # atno 7974 bound_to 7965
  155.7627  140.0841  157.2147 H   0  0  0  0  0  0  0  0  0  0  0  0  # atno 8008 bound_to 7997
  154.4002  140.1540  156.2907 H   0  0  0  0  0  0  0  0  0  0  0  0  # atno 8009 bound_to 7997
  155.8824  140.3420  155.5900 H   0  0  0  0  0  0  0  0  0  0  0  0  # atno 8010 bound_to 7997
  139.6004  144.7055  151.3076 H   0  0  0  0  0  0  0  0  0  0  0  0  # atno 10167 bound_to 10162
  157.3678  130.7685  149.7096 H   0  0  0  0  0  0  0  0  0  0  0  0  # atno 10718 bound_to 10713
  154.2280  135.2779  155.2900 H   0  0  0  0  0  0  0  0  0  0  0  0  # atno 10763 bound_to 10752
  154.5647  135.5636  153.7043 H   0  0  0  0  0  0  0  0  0  0  0  0  # atno 10764 bound_to 10752
  153.0026  135.6306  154.2422 H   0  0  0  0  0  0  0  0  0  0  0  0  # atno 10765 bound_to 10752
  140.3286  134.2463  155.7706 H   0  0  0  0  0  0  0  0  0  0  0  0  # atno 11005 bound_to 11000
  145.9429  140.8966  143.0298 LP  0  0  0  0  0  0  0  0  0  0  0  0  # atno 17320 bound_to 7965
  144.6732  140.1574  143.7425 LP  0  0  0  0  0  0  0  0  0  0  0  0  # atno 17321 bound_to 7965
  140.7245  143.7042  150.7820 LP  0  0  0  0  0  0  0  0  0  0  0  0  # atno 17342 bound_to 10162
  140.0617  143.5148  152.2624 LP  0  0  0  0  0  0  0  0  0  0  0  0  # atno 17343 bound_to 10162
  155.9749  130.4096  150.3885 LP  0  0  0  0  0  0  0  0  0  0  0  0  # atno 17370 bound_to 10713
  157.1971  131.0429  151.2670 LP  0  0  0  0  0  0  0  0  0  0  0  0  # atno 17371 bound_to 10713
  141.2069  133.7820  157.0150 LP  0  0  0  0  0  0  0  0  0  0  0  0  # atno 17394 bound_to 11000
  140.0880  134.9609  157.1731 LP  0  0  0  0  0  0  0  0  0  0  0  0  # atno 17395 bound_to 11000

$$$$
