AV-unprocessed.smi:2305|AV-procd|sdf|9246|dock5
  -GOLD-   2272012463D 1   1.00000     0.00000
 Structure written by MMmdl.
 40 41  0  0  0  0  0  0  0  0  1 V2000
  143.7404  132.7817  149.5440 C   0  0  0  0  0  0  0  0  0  0  0  0
  144.7415  132.2696  150.5646 C   0  0  0  0  0  0  0  0  0  0  0  0
  144.5937  130.9301  150.9356 N   0  0  0  0  0  0  0  0  0  0  0  0
  145.4022  130.4067  151.7983 C   0  0  0  0  0  0  0  0  0  0  0  0
  146.4349  131.1531  152.3888 N   0  0  0  0  0  0  0  0  0  0  0  0
  147.2853  130.4398  153.3567 C   0  0  0  0  0  0  0  0  0  0  0  0
  146.4760  129.4478  154.2221 C   0  0  2  0  0  0  0  0  0  0  0  0
  146.0168  130.1310  155.3722 O   0  0  0  0  0  0  0  0  0  0  0  0
  147.3392  128.2617  154.6931 C   0  0  0  0  0  0  0  0  0  0  0  0
  147.5961  127.2491  153.5911 C   0  0  0  0  0  0  0  0  0  0  0  0
  147.3831  127.6025  152.2431 C   0  0  0  0  0  0  0  0  0  0  0  0
  147.6173  126.6641  151.2196 C   0  0  0  0  0  0  0  0  0  0  0  0
  148.0694  125.3641  151.5323 C   0  0  0  0  0  0  0  0  0  0  0  0
  148.3105  124.3562  150.4181 C   0  0  0  0  0  0  0  0  0  0  0  0
  148.7793  123.2033  150.8971 F   0  0  0  0  0  0  0  0  0  0  0  0
  147.1632  124.1207  149.7829 F   0  0  0  0  0  0  0  0  0  0  0  0
  149.1956  124.8350  149.5434 F   0  0  0  0  0  0  0  0  0  0  0  0
  148.2764  125.0114  152.8842 C   0  0  0  0  0  0  0  0  0  0  0  0
  148.0435  125.9500  153.9082 C   0  0  0  0  0  0  0  0  0  0  0  0
  146.6540  132.4637  152.0778 C   0  0  0  0  0  0  0  0  0  0  0  0
  147.5728  133.1051  152.5917 O   0  0  0  0  0  0  0  0  0  0  0  0
  145.7273  133.0451  151.0931 C   0  0  0  0  0  0  0  0  0  0  0  0
  145.9401  134.5076  150.7231 C   0  0  0  0  0  0  0  0  0  0  0  0
  143.1771  133.6226  149.9492 H   0  0  0  0  0  0  0  0  0  0  0  0
  143.0266  132.0060  149.2636 H   0  0  0  0  0  0  0  0  0  0  0  0
  144.2520  133.1078  148.6381 H   0  0  0  0  0  0  0  0  0  0  0  0
  145.3349  129.3643  152.1147 H   0  0  0  0  0  0  0  0  0  0  0  0
  148.0500  129.8979  152.7973 H   0  0  0  0  0  0  0  0  0  0  0  0
  147.8552  131.1232  153.9900 H   0  0  0  0  0  0  0  0  0  0  0  0
  145.6228  129.0687  153.6581 H   0  0  0  0  0  0  0  0  0  0  0  0
  145.0727  130.1659  155.3416 H   0  0  0  0  0  0  0  0  0  0  0  0
  148.3117  128.6260  155.0268 H   0  0  0  0  0  0  0  0  0  0  0  0
  146.8896  127.7726  155.5588 H   0  0  0  0  0  0  0  0  0  0  0  0
  147.0365  128.5942  151.9908 H   0  0  0  0  0  0  0  0  0  0  0  0
  147.4465  126.9450  150.1907 H   0  0  0  0  0  0  0  0  0  0  0  0
  148.6128  124.0190  153.1451 H   0  0  0  0  0  0  0  0  0  0  0  0
  148.2062  125.6679  154.9383 H   0  0  0  0  0  0  0  0  0  0  0  0
  146.9395  134.6490  150.3100 H   0  0  0  0  0  0  0  0  0  0  0  0
  145.8483  135.1369  151.6090 H   0  0  0  0  0  0  0  0  0  0  0  0
  145.2272  134.8723  149.9854 H   0  0  0  0  0  0  0  0  0  0  0  0
  1  2  1  0  0  0  0
  1 24  1  0  0  0  0
  1 25  1  0  0  0  0
  1 26  1  0  0  0  0
  2 22  2  0  0  0  0
  2  3  1  0  0  0  0
  3  4  2  0  0  0  0
  4  5  1  0  0  0  0
  4 27  1  0  0  0  0
  5  6  1  0  0  0  0
  5 20  1  0  0  0  0
  6  7  1  0  0  0  0
  6 28  1  0  0  0  0
  6 29  1  0  0  0  0
  7  8  1  0  0  0  0
  7  9  1  0  0  0  0
  7 30  1  0  0  0  0
  8 31  1  0  0  0  0
  9 10  1  0  0  0  0
  9 32  1  0  0  0  0
  9 33  1  0  0  0  0
 10 19  1  0  0  0  0
 10 11  2  0  0  0  0
 11 12  1  0  0  0  0
 11 34  1  0  0  0  0
 12 13  2  0  0  0  0
 12 35  1  0  0  0  0
 13 14  1  0  0  0  0
 13 18  1  0  0  0  0
 14 15  1  0  0  0  0
 14 16  1  0  0  0  0
 14 17  1  0  0  0  0
 18 19  2  0  0  0  0
 18 36  1  0  0  0  0
 19 37  1  0  0  0  0
 20 21  2  0  0  0  0
 20 22  1  0  0  0  0
 22 23  1  0  0  0  0
 23 38  1  0  0  0  0
 23 39  1  0  0  0  0
 23 40  1  0  0  0  0
M  END
> <s_m_source_file>
AV-unprocessed.smi

> <i_m_source_file_index>
2305

> <i_lp_mmshare_version>
43012

> <i_f3d_flags>
0

> <s_epik_input>
W0NIM11jMW5bY0hdbihjKD1PKWMxW0NIM10pW0NIMl1bQ0BIXShbT0hdKVtDSDJdYzJbY0hdW2NIXWMoQyhGKShGKUYpW2NIXVtjSF0y

> <s_epik_cmdline>
J2VwaWtfcHl0aG9uJywgJy1waCcsICc3LjAnLCAnLXRuJywgJzgnLCAnLW1hJywgJzIwMCcsICctbWV0YWxfYmluZGluZycsICctaW1hZScsICc8aW5maWxlLm1hZT4nLCAnLW9tYWUnLCAnPG91dGZpbGUubWFlPic=

> <r_lp_tautomer_probability>
1

> <r_epik_Ionization_Penalty>
8.92636e-05

> <r_epik_Ionization_Penalty_Charging>
8.63033e-08

> <r_epik_Ionization_Penalty_Neutral>
8.91773e-05

> <r_epik_State_Penalty>
-0

> <r_epik_Charging_Adjusted_Penalty>
8.63033e-08

> <i_epik_Tot_Q>
0

> <i_epik_Tot_abs_Q>
0

> <r_epik_Metal_State_Penalty>
-0

> <b_epik_Metal_Only>
0

> <s_lp_Force_Field>
OPLS_2005

> <r_lp_Energy>
20.2426

> <b_lp_Chiralities_Consistent>
1

> <s_lp_Variant>
AV-unprocessed.smi:2305-1

> <Gold.Version>
5.8.1

> <Gold.Id.Protein>
6NUR|6NUR_protein|mol2

> <Gold.PLP.Fitness>
41.3980

> <Gold.PLP.PLP>
-40.4063

> <Gold.PLP.part.hbond>
-1.6394

> <Gold.PLP.part.metal>
0.0000

> <Gold.PLP.part.buried>
-4.2363

> <Gold.PLP.part.nonpolar>
-34.7993

> <Gold.PLP.part.repulsive>
0.2916

> <Gold.PLP.ligand.clash>
0.6073

> <Gold.PLP.ligand.torsion>
1.0413

> <Gold.PLP.Chemscore.Hbond>
1.0000

> <Gold.PLP.Chemscore.CHOScore>
0.0000

> <Gold.PLP.Chemscore.Metal>
0.0000

> <Gold.Chemscore.Hbonds>
donor molecule, donor type, donor heavy atom, donor atom, acceptor molecule, acceptor atom, score
      L1  H     8    31       P1 10956  1.00

> <Gold.PLP.Chemscore.Internal.Correction>
0.6817

> <Gold.Rescore>
     Score         DG    S(hbond)    S(metal)    S(lipo)     H(rot)  DE(clash)    DE(int)     intcor
     11.33     -12.38       0.99        0.00      82.55       2.37       0.02       1.03       ----

> <Gold.Chemscore.Fitness>
11.3293

> <Gold.Chemscore.DG>
-12.3849

> <Gold.Chemscore.ZeroCoef>
-5.4800

> <Gold.Chemscore.Hbond>
0.9906

> <Gold.Chemscore.Metal>
0.0000

> <Gold.Chemscore.Lipo>
82.5525

> <Gold.Chemscore.Internal_Hbond>
0.0000

> <Gold.Chemscore.DEClash>
0.0216

> <Gold.Chemscore.DEInternal>
1.0341

> <Gold.Chemscore.Rot>
2.3681

> <Gold.Chemscore.Internal.Correction>
   9.000000E+99

> <Gold.Chemscore.Hbonds>
donor molecule, donor type, donor heavy atom, donor atom, acceptor molecule, acceptor atom, score
      L1  H     8    31       P1 10956  0.72

> <Gold.Chemscore.Hbond.Weighted>
-3.3087

> <Gold.Chemscore.Metal.Weighted>
-0.0000

> <Gold.Chemscore.Lipo.Weighted>
-9.6586

> <Gold.Chemscore.Internal_Hbond.Weighted>
0.0000

> <Gold.Chemscore.DEClash.Weighted>
0.0216

> <Gold.Chemscore.DEInternal.Weighted>
1.0341

> <Gold.Chemscore.Rot.Weighted>
6.0624

> <Gold.Chemscore.Internal.Correction.Weighted>
   9.000000E+99

> <Gold.Protein.RotatedTorsions>
[ 6907 6896 6895 6894 ] final   84.54 input  -60.11 | X-H torsion
[ 7974 7965 7964 7962 ] final -136.09 input  175.53 | X-H torsion
[ 8008 7997 7996 7995 ] final  110.57 input   59.86 | X-H torsion
[ 10167 10162 10161 10158 ] final   30.93 input  -65.29 | X-H torsion
[ 10718 10713 10712 10709 ] final -129.72 input   66.30 | X-H torsion
[ 10763 10752 10751 10750 ] final  178.73 input  -60.55 | X-H torsion
[ 11005 11000 10999 10996 ] final   24.41 input  -57.11 | X-H torsion

> <Gold.Protein.ActiveResidues>
 VAL166  LYS551  ARG553  GLY616  TRP617  ASP618  TYR619  PRO620  LYS621  CYS622 
 ASP623  PHE694  ASN695  SER759  ASP760  ASP761  ALA762  ILE779  LEU786  VAL792 
 PHE793  MET794  SER795  GLU796  ALA797  LYS798  CYS799  TRP800  GLU811  SER814 

> <Gold.Protein.RotatedAtoms>
  152.5354  134.2725  159.8976 H   0  0  0  0  0  0  0  0  0  0  0  0  # atno 6907 bound_to 6896
  151.2682  133.4262  159.2627 H   0  0  0  0  0  0  0  0  0  0  0  0  # atno 6908 bound_to 6896
  151.0392  134.9609  159.8209 H   0  0  0  0  0  0  0  0  0  0  0  0  # atno 6909 bound_to 6896
  144.8957  140.6703  143.5117 H   0  0  0  0  0  0  0  0  0  0  0  0  # atno 7974 bound_to 7965
  156.2062  140.3036  155.9633 H   0  0  0  0  0  0  0  0  0  0  0  0  # atno 8008 bound_to 7997
  155.2834  140.0439  157.3034 H   0  0  0  0  0  0  0  0  0  0  0  0  # atno 8009 bound_to 7997
  154.5637  140.2328  155.8305 H   0  0  0  0  0  0  0  0  0  0  0  0  # atno 8010 bound_to 7997
  140.4634  144.0873  150.6218 H   0  0  0  0  0  0  0  0  0  0  0  0  # atno 10167 bound_to 10162
  156.2074  130.6897  151.0611 H   0  0  0  0  0  0  0  0  0  0  0  0  # atno 10718 bound_to 10713
  154.5115  135.2789  155.1338 H   0  0  0  0  0  0  0  0  0  0  0  0  # atno 10763 bound_to 10752
  154.2932  135.6263  153.5397 H   0  0  0  0  0  0  0  0  0  0  0  0  # atno 10764 bound_to 10752
  152.9919  135.5679  154.5582 H   0  0  0  0  0  0  0  0  0  0  0  0  # atno 10765 bound_to 10752
  140.3590  134.2146  155.7673 H   0  0  0  0  0  0  0  0  0  0  0  0  # atno 11005 bound_to 11000
  145.3704  139.1660  143.4335 LP  0  0  0  0  0  0  0  0  0  0  0  0  # atno 17320 bound_to 7965
  146.3080  140.3775  142.8680 LP  0  0  0  0  0  0  0  0  0  0  0  0  # atno 17321 bound_to 7965
  140.4066  143.2677  151.9883 LP  0  0  0  0  0  0  0  0  0  0  0  0  # atno 17342 bound_to 10162
  139.4809  144.5952  151.7703 LP  0  0  0  0  0  0  0  0  0  0  0  0  # atno 17343 bound_to 10162
  157.7020  131.0772  150.6790 LP  0  0  0  0  0  0  0  0  0  0  0  0  # atno 17370 bound_to 10713
  156.6848  130.4578  149.5617 LP  0  0  0  0  0  0  0  0  0  0  0  0  # atno 17371 bound_to 10713
  141.1990  133.8023  157.0558 LP  0  0  0  0  0  0  0  0  0  0  0  0  # atno 17394 bound_to 11000
  140.0642  134.9738  157.1357 LP  0  0  0  0  0  0  0  0  0  0  0  0  # atno 17395 bound_to 11000

$$$$
