AV-unprocessed.smi:2915|AV-procd|sdf|11187|dock4
  -GOLD-   2272016 83D 1   1.00000     0.00000
 Structure written by MMmdl.
 41 42  0  0  0  0  0  0  0  0  1 V2000
  152.9498  140.9330  161.4368 C   0  0  0  0  0  0  0  0  0  0  0  0
  152.2877  142.0454  160.6985 C   0  0  0  0  0  0  0  0  0  0  0  0
  152.0747  142.0342  159.3801 N   0  0  0  0  0  0  0  0  0  0  0  0
  151.4300  143.1910  158.9289 C   0  0  0  0  0  0  0  0  0  0  0  0
  151.1036  143.3492  157.4700 C   0  0  0  0  0  0  0  0  0  0  0  0
  150.6101  142.0410  156.8378 C   0  0  0  0  0  0  0  0  0  0  0  0
  150.6850  140.9692  157.4409 O   0  0  0  0  0  0  0  0  0  0  0  0
  150.1044  142.1540  155.6000 N   0  0  0  0  0  0  0  0  0  0  0  0
  149.5951  141.0590  154.7730 C   0  0  0  0  0  0  0  0  0  0  0  0
  148.0500  141.0783  154.5978 C   0  0  0  0  0  0  0  0  0  0  0  0
  147.5613  139.6020  154.6393 C   0  0  0  0  0  0  0  0  0  0  0  0
  147.7834  138.7562  153.3670 C   0  0  0  0  0  0  0  0  0  0  0  0
  149.1067  138.2665  153.3526 O   0  0  0  0  0  0  0  0  0  0  0  0
  147.3771  141.9333  155.7073 C   0  0  0  0  0  0  0  0  0  0  0  0
  146.3656  142.8366  155.0009 C   0  0  0  0  0  0  0  0  0  0  0  0
  146.9955  143.0987  153.6380 C   0  0  0  0  0  0  0  0  0  0  0  0
  147.6505  141.7678  153.2637 C   0  0  0  0  0  0  0  0  0  0  0  0
  151.1694  144.0905  159.9333 C   0  0  0  0  0  0  0  0  0  0  0  0
  151.7100  143.5097  161.4838 S   0  0  0  0  0  0  0  0  0  0  0  0
  153.1056  140.0754  160.7816 H   0  0  0  0  0  0  0  0  0  0  0  0
  152.3285  140.6223  162.2768 H   0  0  0  0  0  0  0  0  0  0  0  0
  153.9160  141.2633  161.8180 H   0  0  0  0  0  0  0  0  0  0  0  0
  150.3355  144.1115  157.3352 H   0  0  0  0  0  0  0  0  0  0  0  0
  151.9805  143.6949  156.9205 H   0  0  0  0  0  0  0  0  0  0  0  0
  150.0835  143.0749  155.1866 H   0  0  0  0  0  0  0  0  0  0  0  0
  150.0791  141.0583  153.7949 H   0  0  0  0  0  0  0  0  0  0  0  0
  149.8987  140.1274  155.2517 H   0  0  0  0  0  0  0  0  0  0  0  0
  148.0420  139.0991  155.4801 H   0  0  0  0  0  0  0  0  0  0  0  0
  146.4937  139.5925  154.8642 H   0  0  0  0  0  0  0  0  0  0  0  0
  147.1077  137.9027  153.3312 H   0  0  0  0  0  0  0  0  0  0  0  0
  147.6233  139.3328  152.4574 H   0  0  0  0  0  0  0  0  0  0  0  0
  149.6403  138.8553  152.8409 H   0  0  0  0  0  0  0  0  0  0  0  0
  146.9155  141.3359  156.4935 H   0  0  0  0  0  0  0  0  0  0  0  0
  148.1036  142.5684  156.2138 H   0  0  0  0  0  0  0  0  0  0  0  0
  145.4185  142.3106  154.8750 H   0  0  0  0  0  0  0  0  0  0  0  0
  146.1658  143.7550  155.5538 H   0  0  0  0  0  0  0  0  0  0  0  0
  146.2695  143.4318  152.8960 H   0  0  0  0  0  0  0  0  0  0  0  0
  147.7589  143.8729  153.7284 H   0  0  0  0  0  0  0  0  0  0  0  0
  148.4919  141.9139  152.5862 H   0  0  0  0  0  0  0  0  0  0  0  0
  146.9326  141.1687  152.7060 H   0  0  0  0  0  0  0  0  0  0  0  0
  150.6873  145.0537  159.8554 H   0  0  0  0  0  0  0  0  0  0  0  0
  1  2  1  0  0  0  0
  1 20  1  0  0  0  0
  1 21  1  0  0  0  0
  1 22  1  0  0  0  0
  2 19  1  0  0  0  0
  2  3  2  0  0  0  0
  3  4  1  0  0  0  0
  4  5  1  0  0  0  0
  4 18  2  0  0  0  0
  5  6  1  0  0  0  0
  5 23  1  0  0  0  0
  5 24  1  0  0  0  0
  6  7  2  0  0  0  0
  6  8  1  0  0  0  0
  8  9  1  0  0  0  0
  8 25  1  0  0  0  0
  9 10  1  0  0  0  0
  9 26  1  0  0  0  0
  9 27  1  0  0  0  0
 10 17  1  0  0  0  0
 10 11  1  0  0  0  0
 10 14  1  0  0  0  0
 11 12  1  0  0  0  0
 11 28  1  0  0  0  0
 11 29  1  0  0  0  0
 12 13  1  0  0  0  0
 12 30  1  0  0  0  0
 12 31  1  0  0  0  0
 13 32  1  0  0  0  0
 14 15  1  0  0  0  0
 14 33  1  0  0  0  0
 14 34  1  0  0  0  0
 15 16  1  0  0  0  0
 15 35  1  0  0  0  0
 15 36  1  0  0  0  0
 16 17  1  0  0  0  0
 16 37  1  0  0  0  0
 16 38  1  0  0  0  0
 17 39  1  0  0  0  0
 17 40  1  0  0  0  0
 18 19  1  0  0  0  0
 18 41  1  0  0  0  0
M  END
> <s_m_source_file>
AV-unprocessed.smi

> <i_m_source_file_index>
2915

> <i_lp_mmshare_version>
43012

> <i_f3d_flags>
0

> <s_epik_input>
W0NIM11jMW5jKFtjSF1zMSlbQ0gyXUMoPU8pW05IXVtDSDJdQzIoW0NIMl1bQ0gyXVtPSF0pW0NIMl1bQ0gyXVtDSDJdW0NIMl0y

> <s_epik_cmdline>
J2VwaWtfcHl0aG9uJywgJy1waCcsICc3LjAnLCAnLXRuJywgJzgnLCAnLW1hJywgJzIwMCcsICctbWV0YWxfYmluZGluZycsICctaW1hZScsICc8aW5maWxlLm1hZT4nLCAnLW9tYWUnLCAnPG91dGZpbGUubWFlPic=

> <r_lp_tautomer_probability>
1

> <r_epik_Ionization_Penalty>
5.95244e-05

> <r_epik_Ionization_Penalty_Charging>
0

> <r_epik_Ionization_Penalty_Neutral>
5.95244e-05

> <r_epik_State_Penalty>
-0

> <r_epik_Charging_Adjusted_Penalty>
0

> <i_epik_Tot_Q>
0

> <i_epik_Tot_abs_Q>
0

> <r_epik_Metal_State_Penalty>
-0

> <b_epik_Metal_Only>
0

> <s_lp_Force_Field>
OPLS_2005

> <r_lp_Energy>
27.9647

> <b_lp_Chiralities_Consistent>
1

> <s_lp_Variant>
AV-unprocessed.smi:2915-1

> <Gold.Version>
5.8.1

> <Gold.Id.Protein>
6NUR|6NUR_protein|mol2

> <Gold.PLP.Fitness>
44.1110

> <Gold.PLP.PLP>
-41.6414

> <Gold.PLP.part.hbond>
-3.0000

> <Gold.PLP.part.metal>
0.0000

> <Gold.PLP.part.buried>
-4.4705

> <Gold.PLP.part.nonpolar>
-34.9363

> <Gold.PLP.part.repulsive>
0.1872

> <Gold.PLP.ligand.clash>
0.4251

> <Gold.PLP.ligand.torsion>
1.5558

> <Gold.PLP.Chemscore.Hbond>
1.9920

> <Gold.PLP.Chemscore.CHOScore>
0.0000

> <Gold.PLP.Chemscore.Metal>
0.0000

> <Gold.Chemscore.Hbonds>
donor molecule, donor type, donor heavy atom, donor atom, acceptor molecule, acceptor atom, score
      L1  H     8    25       P1  8028  0.53
      L1  H    13    32       P1  7957  0.83

> <Gold.PLP.Chemscore.Internal.Correction>
0.0303

> <Gold.Rescore>
     Score         DG    S(hbond)    S(metal)    S(lipo)     H(rot)  DE(clash)    DE(int)     intcor
     13.80     -16.67       1.87        0.00      95.76       2.45       0.02       2.85       ----

> <Gold.Chemscore.Fitness>
13.7979

> <Gold.Chemscore.DG>
-16.6680

> <Gold.Chemscore.ZeroCoef>
-5.4800

> <Gold.Chemscore.Hbond>
1.8707

> <Gold.Chemscore.Metal>
0.0000

> <Gold.Chemscore.Lipo>
95.7607

> <Gold.Chemscore.Internal_Hbond>
0.0000

> <Gold.Chemscore.DEClash>
0.0195

> <Gold.Chemscore.DEInternal>
2.8506

> <Gold.Chemscore.Rot>
2.4469

> <Gold.Chemscore.Internal.Correction>
   9.000000E+99

> <Gold.Chemscore.Hbonds>
donor molecule, donor type, donor heavy atom, donor atom, acceptor molecule, acceptor atom, score
      L1  H     8    25       P1  8028  0.53
      L1  H    13    32       P1  7957  0.69

> <Gold.Chemscore.Hbond.Weighted>
-6.2481

> <Gold.Chemscore.Metal.Weighted>
-0.0000

> <Gold.Chemscore.Lipo.Weighted>
-11.2040

> <Gold.Chemscore.Internal_Hbond.Weighted>
0.0000

> <Gold.Chemscore.DEClash.Weighted>
0.0195

> <Gold.Chemscore.DEInternal.Weighted>
2.8506

> <Gold.Chemscore.Rot.Weighted>
6.2640

> <Gold.Chemscore.Internal.Correction.Weighted>
   9.000000E+99

> <Gold.Protein.RotatedTorsions>
[ 6907 6896 6895 6894 ] final   -8.29 input  -60.11 | X-H torsion
[ 7974 7965 7964 7962 ] final  -81.07 input  175.53 | X-H torsion
[ 8008 7997 7996 7995 ] final  -83.18 input   59.86 | X-H torsion
[ 10167 10162 10161 10158 ] final  -92.78 input  -65.29 | X-H torsion
[ 10718 10713 10712 10709 ] final -177.40 input   66.30 | X-H torsion
[ 10763 10752 10751 10750 ] final  -74.83 input  -60.55 | X-H torsion
[ 11005 11000 10999 10996 ] final   22.35 input  -57.11 | X-H torsion

> <Gold.Protein.ActiveResidues>
 VAL166  LYS551  ARG553  GLY616  TRP617  ASP618  TYR619  PRO620  LYS621  CYS622 
 ASP623  PHE694  ASN695  SER759  ASP760  ASP761  ALA762  ILE779  LEU786  VAL792 
 PHE793  MET794  SER795  GLU796  ALA797  LYS798  CYS799  TRP800  GLU811  SER814 

> <Gold.Protein.RotatedAtoms>
  151.4360  135.1015  159.9655 H   0  0  0  0  0  0  0  0  0  0  0  0  # atno 6907 bound_to 6896
  152.4939  133.8573  159.7243 H   0  0  0  0  0  0  0  0  0  0  0  0  # atno 6908 bound_to 6896
  150.9122  133.6925  159.2880 H   0  0  0  0  0  0  0  0  0  0  0  0  # atno 6909 bound_to 6896
  145.5515  140.9496  143.1496 H   0  0  0  0  0  0  0  0  0  0  0  0  # atno 7974 bound_to 7965
  154.6163  140.0622  156.9559 H   0  0  0  0  0  0  0  0  0  0  0  0  # atno 8008 bound_to 7997
  155.1890  140.3305  155.4343 H   0  0  0  0  0  0  0  0  0  0  0  0  # atno 8009 bound_to 7997
  156.2406  140.1884  156.6981 H   0  0  0  0  0  0  0  0  0  0  0  0  # atno 8010 bound_to 7997
  140.3313  143.2993  151.9938 H   0  0  0  0  0  0  0  0  0  0  0  0  # atno 10167 bound_to 10162
  156.8289  130.9646  151.3107 H   0  0  0  0  0  0  0  0  0  0  0  0  # atno 10718 bound_to 10713
  154.4784  135.5851  153.6371 H   0  0  0  0  0  0  0  0  0  0  0  0  # atno 10763 bound_to 10752
  152.9844  135.6084  154.3278 H   0  0  0  0  0  0  0  0  0  0  0  0  # atno 10764 bound_to 10752
  154.3166  135.2844  155.2519 H   0  0  0  0  0  0  0  0  0  0  0  0  # atno 10765 bound_to 10752
  140.3816  134.1915  155.7663 H   0  0  0  0  0  0  0  0  0  0  0  0  # atno 11005 bound_to 11000
  144.7527  139.7153  143.7266 LP  0  0  0  0  0  0  0  0  0  0  0  0  # atno 17320 bound_to 7965
  146.1913  139.5155  142.9803 LP  0  0  0  0  0  0  0  0  0  0  0  0  # atno 17321 bound_to 7965
  139.4856  144.6232  151.7215 LP  0  0  0  0  0  0  0  0  0  0  0  0  # atno 17342 bound_to 10162
  140.5394  144.0603  150.6082 LP  0  0  0  0  0  0  0  0  0  0  0  0  # atno 17343 bound_to 10162
  157.6417  130.8811  149.9461 LP  0  0  0  0  0  0  0  0  0  0  0  0  # atno 17370 bound_to 10713
  156.0946  130.3660  150.0331 LP  0  0  0  0  0  0  0  0  0  0  0  0  # atno 17371 bound_to 10713
  141.1921  133.8179  157.0851 LP  0  0  0  0  0  0  0  0  0  0  0  0  # atno 17394 bound_to 11000
  140.0474  134.9823  157.1075 LP  0  0  0  0  0  0  0  0  0  0  0  0  # atno 17395 bound_to 11000

$$$$
