AV-unprocessed.smi:2754|AV-procd|sdf|10616|dock7
  -GOLD-   2272015 63D 1   1.00000     0.00000
 Structure written by MMmdl.
 28 29  0  0  0  0  0  0  0  0  2 V2000
  154.5872  138.1131  154.9251 N   0  0  0  0  0  0  0  0  0  0  0  0
  153.2411  138.3791  154.9703 C   0  0  0  0  0  0  0  0  0  0  0  0
  152.4647  137.6752  154.1445 N   0  0  0  0  0  0  0  0  0  0  0  0
  151.1395  137.9329  154.1878 C   0  0  0  0  0  0  0  0  0  0  0  0
  150.5992  138.8997  155.0605 C   0  0  0  0  0  0  0  0  0  0  0  0
  151.5196  139.5818  155.8856 C   0  0  0  0  0  0  0  0  0  0  0  0
  151.0613  140.6504  156.8681 C   0  0  1  0  0  0  0  0  0  0  0  0
  152.1951  141.1026  157.8092 C   0  0  0  0  0  0  0  0  0  0  0  0
  151.6915  142.1849  158.7767 C   0  0  0  0  0  0  0  0  0  0  0  0
  151.0542  143.3552  158.0092 C   0  0  0  0  0  0  0  0  0  0  0  0
  149.9659  142.8734  157.1308 N   0  3  0  0  0  0  0  0  0  0  0  0
  150.4170  141.8575  156.1540 C   0  0  0  0  0  0  0  0  0  0  0  0
  152.8459  139.3159  155.8354 N   0  0  0  0  0  0  0  0  0  0  0  0
  155.2247  138.6149  155.5264 H   0  0  0  0  0  0  0  0  0  0  0  0
  154.9627  137.4977  154.2185 H   0  0  0  0  0  0  0  0  0  0  0  0
  150.5067  137.3653  153.5215 H   0  0  0  0  0  0  0  0  0  0  0  0
  149.5382  139.1000  155.0895 H   0  0  0  0  0  0  0  0  0  0  0  0
  150.2892  140.1958  157.4912 H   0  0  0  0  0  0  0  0  0  0  0  0
  152.5820  140.2519  158.3711 H   0  0  0  0  0  0  0  0  0  0  0  0
  153.0298  141.4985  157.2288 H   0  0  0  0  0  0  0  0  0  0  0  0
  150.9605  141.7536  159.4619 H   0  0  0  0  0  0  0  0  0  0  0  0
  152.5156  142.5469  159.3922 H   0  0  0  0  0  0  0  0  0  0  0  0
  150.6496  144.0894  158.7065 H   0  0  0  0  0  0  0  0  0  0  0  0
  151.8041  143.8679  157.4053 H   0  0  0  0  0  0  0  0  0  0  0  0
  149.2441  142.4664  157.7085 H   0  0  0  0  0  0  0  0  0  0  0  0
  151.1240  142.3222  155.4653 H   0  0  0  0  0  0  0  0  0  0  0  0
  149.5602  141.5350  155.5617 H   0  0  0  0  0  0  0  0  0  0  0  0
  149.5769  143.6593  156.6293 H   0  0  0  0  0  0  0  0  0  0  0  0
  1  2  1  0  0  0  0
  1 14  1  0  0  0  0
  1 15  1  0  0  0  0
  2 13  1  0  0  0  0
  2  3  2  0  0  0  0
  3  4  1  0  0  0  0
  4  5  2  0  0  0  0
  4 16  1  0  0  0  0
  5  6  1  0  0  0  0
  5 17  1  0  0  0  0
  6  7  1  0  0  0  0
  6 13  2  0  0  0  0
  7 12  1  0  0  0  0
  7  8  1  0  0  0  0
  7 18  1  0  0  0  0
  8  9  1  0  0  0  0
  8 19  1  0  0  0  0
  8 20  1  0  0  0  0
  9 10  1  0  0  0  0
  9 21  1  0  0  0  0
  9 22  1  0  0  0  0
 10 11  1  0  0  0  0
 10 23  1  0  0  0  0
 10 24  1  0  0  0  0
 11 12  1  0  0  0  0
 11 25  1  0  0  0  0
 11 28  1  0  0  0  0
 12 26  1  0  0  0  0
 12 27  1  0  0  0  0
M  CHG  1  11   1
M  END
> <s_m_source_file>
AV-unprocessed.smi

> <i_m_source_file_index>
2754

> <i_lp_mmshare_version>
43012

> <i_f3d_flags>
0

> <s_epik_input>
W05IMl1jMW5bY0hdW2NIXWMobjEpW0NAQEhdMltDSDJdW0NIMl1bQ0gyXVtOSF1bQ0gyXTI=

> <s_epik_cmdline>
J2VwaWtfcHl0aG9uJywgJy1waCcsICc3LjAnLCAnLXRuJywgJzgnLCAnLW1hJywgJzIwMCcsICctbWV0YWxfYmluZGluZycsICctaW1hZScsICc8aW5maWxlLm1hZT4nLCAnLW9tYWUnLCAnPG91dGZpbGUubWFlPic=

> <r_lp_tautomer_probability>
1

> <r_epik_Ionization_Penalty>
0.000528025

> <r_epik_Ionization_Penalty_Charging>
0.000372054

> <r_epik_Ionization_Penalty_Neutral>
0.000155972

> <r_epik_State_Penalty>
-0

> <r_epik_Charging_Adjusted_Penalty>
0.000372054

> <i_epik_Tot_Q>
1

> <i_epik_Tot_abs_Q>
1

> <r_epik_Metal_State_Penalty>
-0

> <b_epik_Metal_Only>
0

> <s_lp_Force_Field>
OPLS_2005

> <r_lp_Energy>
4.9837

> <b_lp_Chiralities_Consistent>
1

> <s_lp_Variant>
AV-unprocessed.smi:2754-2

> <Gold.Version>
5.8.1

> <Gold.Id.Protein>
6NUR|6NUR_protein|mol2

> <Gold.PLP.Fitness>
36.7273

> <Gold.PLP.PLP>
-22.4836

> <Gold.PLP.part.hbond>
-3.0000

> <Gold.PLP.part.metal>
0.0000

> <Gold.PLP.part.buried>
-3.3407

> <Gold.PLP.part.nonpolar>
-18.7720

> <Gold.PLP.part.repulsive>
2.6189

> <Gold.PLP.ligand.clash>
0.0000

> <Gold.PLP.ligand.torsion>
0.0833

> <Gold.PLP.Chemscore.Hbond>
3.6334

> <Gold.PLP.Chemscore.CHOScore>
1.1584

> <Gold.PLP.Chemscore.Metal>
0.0000

> <Gold.Chemscore.Hbonds>
donor molecule, donor type, donor heavy atom, donor atom, acceptor molecule, acceptor atom, score
      L1  H    11    28       P1  8028  2.00
      P1  H  7997  8010       L1    13  1.00
      P1  H 10752 10763       L1     3  0.64
      L1  C     4    16       P1  7948  0.65
      L1  C     4    16       P1  7949  0.51

> <Gold.PLP.Chemscore.Internal.Correction>
0.0351

> <Gold.Rescore>
     Score         DG    S(hbond)    S(metal)    S(lipo)     H(rot)  DE(clash)    DE(int)     intcor
     16.14     -17.96       2.40        0.00      60.03       1.00       1.74       0.07       ----

> <Gold.Chemscore.Fitness>
16.1399

> <Gold.Chemscore.DG>
-17.9595

> <Gold.Chemscore.ZeroCoef>
-5.4800

> <Gold.Chemscore.Hbond>
2.4000

> <Gold.Chemscore.Metal>
0.0000

> <Gold.Chemscore.Lipo>
60.0298

> <Gold.Chemscore.Internal_Hbond>
0.0000

> <Gold.Chemscore.DEClash>
1.7447

> <Gold.Chemscore.DEInternal>
0.0749

> <Gold.Chemscore.Rot>
1.0000

> <Gold.Chemscore.Internal.Correction>
   9.000000E+99

> <Gold.Chemscore.Hbonds>
donor molecule, donor type, donor heavy atom, donor atom, acceptor molecule, acceptor atom, score
      L1  H    11    28       P1  8028  0.98
      P1  H  7997  8010       L1    13  0.30
      P1  H 10752 10763       L1     3  0.47

> <Gold.Chemscore.Hbond.Weighted>
-8.0160

> <Gold.Chemscore.Metal.Weighted>
-0.0000

> <Gold.Chemscore.Lipo.Weighted>
-7.0235

> <Gold.Chemscore.Internal_Hbond.Weighted>
0.0000

> <Gold.Chemscore.DEClash.Weighted>
1.7447

> <Gold.Chemscore.DEInternal.Weighted>
0.0749

> <Gold.Chemscore.Rot.Weighted>
2.5600

> <Gold.Chemscore.Internal.Correction.Weighted>
   9.000000E+99

> <Gold.Protein.RotatedTorsions>
[ 6907 6896 6895 6894 ] final   33.01 input  -60.11 | X-H torsion
[ 7974 7965 7964 7962 ] final  137.36 input  175.53 | X-H torsion
[ 8008 7997 7996 7995 ] final   88.64 input   59.86 | X-H torsion
[ 10167 10162 10161 10158 ] final  -25.49 input  -65.29 | X-H torsion
[ 10718 10713 10712 10709 ] final -124.66 input   66.30 | X-H torsion
[ 10763 10752 10751 10750 ] final   24.24 input  -60.55 | X-H torsion
[ 11005 11000 10999 10996 ] final   80.69 input  -57.11 | X-H torsion

> <Gold.Protein.ActiveResidues>
 VAL166  LYS551  ARG553  GLY616  TRP617  ASP618  TYR619  PRO620  LYS621  CYS622 
 ASP623  PHE694  ASN695  SER759  ASP760  ASP761  ALA762  ILE779  LEU786  VAL792 
 PHE793  MET794  SER795  GLU796  ALA797  LYS798  CYS799  TRP800  GLU811  SER814 

> <Gold.Protein.RotatedAtoms>
  152.0825  134.9461  160.0573 H   0  0  0  0  0  0  0  0  0  0  0  0  # atno 6907 bound_to 6896
  152.0744  133.4117  159.4482 H   0  0  0  0  0  0  0  0  0  0  0  0  # atno 6908 bound_to 6896
  150.6836  134.2974  159.4735 H   0  0  0  0  0  0  0  0  0  0  0  0  # atno 6909 bound_to 6896
  144.9475  139.4857  143.5542 H   0  0  0  0  0  0  0  0  0  0  0  0  # atno 7974 bound_to 7965
  155.9902  140.3369  155.6746 H   0  0  0  0  0  0  0  0  0  0  0  0  # atno 8008 bound_to 7997
  155.6430  140.0697  157.2630 H   0  0  0  0  0  0  0  0  0  0  0  0  # atno 8009 bound_to 7997
  154.4217  140.1739  156.1581 H   0  0  0  0  0  0  0  0  0  0  0  0  # atno 8010 bound_to 7997
  140.7286  143.4260  151.0876 H   0  0  0  0  0  0  0  0  0  0  0  0  # atno 10167 bound_to 10162
  156.1607  130.6600  151.0046 H   0  0  0  0  0  0  0  0  0  0  0  0  # atno 10718 bound_to 10713
  153.0779  135.6609  154.0108 H   0  0  0  0  0  0  0  0  0  0  0  0  # atno 10763 bound_to 10752
  153.9737  135.2962  155.3427 H   0  0  0  0  0  0  0  0  0  0  0  0  # atno 10764 bound_to 10752
  154.7171  135.5180  153.8825 H   0  0  0  0  0  0  0  0  0  0  0  0  # atno 10765 bound_to 10752
  139.9125  134.7939  156.1942 H   0  0  0  0  0  0  0  0  0  0  0  0  # atno 11005 bound_to 11000
  146.3309  139.8538  142.8868 LP  0  0  0  0  0  0  0  0  0  0  0  0  # atno 17320 bound_to 7965
  145.2894  141.0163  143.3671 LP  0  0  0  0  0  0  0  0  0  0  0  0  # atno 17321 bound_to 7965
  139.7911  143.8217  152.3152 LP  0  0  0  0  0  0  0  0  0  0  0  0  # atno 17342 bound_to 10162
  139.8201  144.7299  150.9584 LP  0  0  0  0  0  0  0  0  0  0  0  0  # atno 17343 bound_to 10162
  157.6730  131.0857  150.7565 LP  0  0  0  0  0  0  0  0  0  0  0  0  # atno 17370 bound_to 10713
  156.7627  130.4804  149.5433 LP  0  0  0  0  0  0  0  0  0  0  0  0  # atno 17371 bound_to 10713
  141.0565  133.6863  156.1870 LP  0  0  0  0  0  0  0  0  0  0  0  0  # atno 17394 bound_to 11000
  140.6729  134.4849  157.5587 LP  0  0  0  0  0  0  0  0  0  0  0  0  # atno 17395 bound_to 11000

$$$$
