AV-unprocessed.smi:740|AV-procd|sdf|3547|dock2
  -GOLD-   22720 0543D 1   1.00000     0.00000
 Structure written by MMmdl.
 44 46  0  0  0  0  0  0  0  0  1 V2000
  153.0089  142.8653  161.6780 C   0  0  0  0  0  0  0  0  0  0  0  0
  152.4694  142.5911  160.2852 C   0  0  0  0  0  0  0  0  0  0  0  0
  152.6442  141.3074  159.7211 C   0  0  0  0  0  0  0  0  0  0  0  0
  152.1550  141.0105  158.4302 C   0  0  0  0  0  0  0  0  0  0  0  0
  152.2115  139.8382  157.6958 N   0  0  0  0  0  0  0  0  0  0  0  0
  151.5811  140.1915  156.5795 C   0  0  0  0  0  0  0  0  0  0  0  0
  151.1242  141.4561  156.5026 N   0  0  0  0  0  0  0  0  0  0  0  0
  150.4095  142.0576  155.3908 C   0  0  0  0  0  0  0  0  0  0  0  0
  149.3180  141.1301  154.8233 C   0  0  1  0  0  0  0  0  0  0  0  0
  149.9297  140.1755  153.9770 O   0  0  0  0  0  0  0  0  0  0  0  0
  148.5599  140.3879  155.9434 C   0  0  0  0  0  0  0  0  0  0  0  0
  147.2426  140.9814  156.1989 N   0  0  0  0  0  0  0  0  0  0  0  0
  146.7897  141.3072  157.4174 C   0  0  0  0  0  0  0  0  0  0  0  0
  147.3858  141.1486  158.4824 O   0  0  0  0  0  0  0  0  0  0  0  0
  145.4027  141.9289  157.3365 C   0  0  0  0  0  0  0  0  0  0  0  0
  145.1026  141.9277  155.8299 C   0  0  1  0  0  0  0  0  0  0  0  0
  144.8332  143.3265  155.2509 C   0  0  0  0  0  0  0  0  0  0  0  0
  146.3643  141.3020  155.2383 C   0  0  0  0  0  0  0  0  0  0  0  0
  146.5184  141.1332  154.0287 O   0  0  0  0  0  0  0  0  0  0  0  0
  151.4824  142.0420  157.7120 C   0  0  0  0  0  0  0  0  0  0  0  0
  151.3029  143.3236  158.2622 C   0  0  0  0  0  0  0  0  0  0  0  0
  151.7960  143.6025  159.5541 C   0  0  0  0  0  0  0  0  0  0  0  0
  151.5933  144.9881  160.1411 C   0  0  0  0  0  0  0  0  0  0  0  0
  153.5283  141.9961  162.0823 H   0  0  0  0  0  0  0  0  0  0  0  0
  152.1950  143.1160  162.3588 H   0  0  0  0  0  0  0  0  0  0  0  0
  153.7139  143.6965  161.6593 H   0  0  0  0  0  0  0  0  0  0  0  0
  153.1560  140.5363  160.2780 H   0  0  0  0  0  0  0  0  0  0  0  0
  151.4412  139.4902  155.7697 H   0  0  0  0  0  0  0  0  0  0  0  0
  149.9797  143.0050  155.7187 H   0  0  0  0  0  0  0  0  0  0  0  0
  151.1369  142.2991  154.6145 H   0  0  0  0  0  0  0  0  0  0  0  0
  148.6240  141.7279  154.2306 H   0  0  0  0  0  0  0  0  0  0  0  0
  149.4643  140.1590  153.1547 H   0  0  0  0  0  0  0  0  0  0  0  0
  148.4811  139.3228  155.7175 H   0  0  0  0  0  0  0  0  0  0  0  0
  149.1368  140.4394  156.8687 H   0  0  0  0  0  0  0  0  0  0  0  0
  144.6830  141.3285  157.8938 H   0  0  0  0  0  0  0  0  0  0  0  0
  145.4178  142.9339  157.7597 H   0  0  0  0  0  0  0  0  0  0  0  0
  144.2570  141.2721  155.6185 H   0  0  0  0  0  0  0  0  0  0  0  0
  144.6368  143.2799  154.1792 H   0  0  0  0  0  0  0  0  0  0  0  0
  145.6810  143.9953  155.4061 H   0  0  0  0  0  0  0  0  0  0  0  0
  143.9622  143.7805  155.7239 H   0  0  0  0  0  0  0  0  0  0  0  0
  150.7866  144.0841  157.6955 H   0  0  0  0  0  0  0  0  0  0  0  0
  151.0410  145.6328  159.4567 H   0  0  0  0  0  0  0  0  0  0  0  0
  152.5542  145.4609  160.3445 H   0  0  0  0  0  0  0  0  0  0  0  0
  151.0304  144.9303  161.0730 H   0  0  0  0  0  0  0  0  0  0  0  0
  1  2  1  0  0  0  0
  1 24  1  0  0  0  0
  1 25  1  0  0  0  0
  1 26  1  0  0  0  0
  2 22  1  0  0  0  0
  2  3  2  0  0  0  0
  3  4  1  0  0  0  0
  3 27  1  0  0  0  0
  4 20  2  0  0  0  0
  4  5  1  0  0  0  0
  5  6  2  0  0  0  0
  6  7  1  0  0  0  0
  6 28  1  0  0  0  0
  7  8  1  0  0  0  0
  7 20  1  0  0  0  0
  8  9  1  0  0  0  0
  8 29  1  0  0  0  0
  8 30  1  0  0  0  0
  9 10  1  0  0  0  0
  9 11  1  0  0  0  0
  9 31  1  0  0  0  0
 10 32  1  0  0  0  0
 11 12  1  0  0  0  0
 11 33  1  0  0  0  0
 11 34  1  0  0  0  0
 12 18  1  0  0  0  0
 12 13  1  0  0  0  0
 13 14  2  0  0  0  0
 13 15  1  0  0  0  0
 15 16  1  0  0  0  0
 15 35  1  0  0  0  0
 15 36  1  0  0  0  0
 16 17  1  0  0  0  0
 16 18  1  0  0  0  0
 16 37  1  0  0  0  0
 17 38  1  0  0  0  0
 17 39  1  0  0  0  0
 17 40  1  0  0  0  0
 18 19  2  0  0  0  0
 20 21  1  0  0  0  0
 21 22  2  0  0  0  0
 21 41  1  0  0  0  0
 22 23  1  0  0  0  0
 23 42  1  0  0  0  0
 23 43  1  0  0  0  0
 23 44  1  0  0  0  0
M  END
> <s_m_source_file>
AV-unprocessed.smi

> <i_m_source_file_index>
740

> <i_lp_mmshare_version>
43012

> <i_f3d_flags>
0

> <s_epik_input>
W0NIM11jKFtjSF0xKWMoW0NIM10pW2NIXWMoYzEyKW4oW2NIXW4yKVtDSDJdW0NASF0oW09IXSlbQ0gyXU4zQyg9TylbQ0gyXVtDQEBIXShbQ0gzXSlDMz1P

> <s_epik_cmdline>
J2VwaWtfcHl0aG9uJywgJy1waCcsICc3LjAnLCAnLXRuJywgJzgnLCAnLW1hJywgJzIwMCcsICctbWV0YWxfYmluZGluZycsICctaW1hZScsICc8aW5maWxlLm1hZT4nLCAnLW9tYWUnLCAnPG91dGZpbGUubWFlPic=

> <r_lp_tautomer_probability>
1

> <r_epik_Ionization_Penalty>
0.104021

> <r_epik_Ionization_Penalty_Charging>
0

> <r_epik_Ionization_Penalty_Neutral>
0.104021

> <r_epik_State_Penalty>
0.0939354

> <r_epik_Charging_Adjusted_Penalty>
0.0939354

> <i_epik_Tot_Q>
0

> <i_epik_Tot_abs_Q>
0

> <r_epik_Metal_State_Penalty>
0.000101783

> <b_epik_Metal_Only>
0

> <s_lp_Force_Field>
OPLS_2005

> <r_lp_Energy>
16.7866

> <b_lp_Chiralities_Consistent>
1

> <s_lp_Variant>
AV-unprocessed.smi:740-2

> <Gold.Version>
5.8.1

> <Gold.Id.Protein>
6NUR|6NUR_protein|mol2

> <Gold.PLP.Fitness>
47.2950

> <Gold.PLP.PLP>
-44.1094

> <Gold.PLP.part.hbond>
-2.5043

> <Gold.PLP.part.metal>
0.0000

> <Gold.PLP.part.buried>
-5.5255

> <Gold.PLP.part.nonpolar>
-35.8696

> <Gold.PLP.part.repulsive>
0.2536

> <Gold.PLP.ligand.clash>
0.0000

> <Gold.PLP.ligand.torsion>
1.1156

> <Gold.PLP.Chemscore.Hbond>
1.7920

> <Gold.PLP.Chemscore.CHOScore>
0.0000

> <Gold.PLP.Chemscore.Metal>
0.0000

> <Gold.Chemscore.Hbonds>
donor molecule, donor type, donor heavy atom, donor atom, acceptor molecule, acceptor atom, score
      L1  H    10    32       P1  7957  0.93
      P1  H  6934  6946       L1    14  0.07
      P1  H  7989  7998       L1    10  0.82

> <Gold.PLP.Chemscore.Internal.Correction>
0.0407

> <Gold.Rescore>
     Score         DG    S(hbond)    S(metal)    S(lipo)     H(rot)  DE(clash)    DE(int)     intcor
     12.00     -16.61       1.23        0.00     110.68       2.31       2.66       1.95       ----

> <Gold.Chemscore.Fitness>
11.9977

> <Gold.Chemscore.DG>
-16.6058

> <Gold.Chemscore.ZeroCoef>
-5.4800

> <Gold.Chemscore.Hbond>
1.2281

> <Gold.Chemscore.Metal>
0.0000

> <Gold.Chemscore.Lipo>
110.6805

> <Gold.Chemscore.Internal_Hbond>
0.0000

> <Gold.Chemscore.DEClash>
2.6568

> <Gold.Chemscore.DEInternal>
1.9512

> <Gold.Chemscore.Rot>
2.3147

> <Gold.Chemscore.Internal.Correction>
   9.000000E+99

> <Gold.Chemscore.Hbonds>
donor molecule, donor type, donor heavy atom, donor atom, acceptor molecule, acceptor atom, score
      L1  H    10    32       P1  7957  0.86
      P1  H  6934  6946       L1    14  0.07
      P1  H  7989  7998       L1    10  0.17

> <Gold.Chemscore.Hbond.Weighted>
-4.1018

> <Gold.Chemscore.Metal.Weighted>
-0.0000

> <Gold.Chemscore.Lipo.Weighted>
-12.9496

> <Gold.Chemscore.Internal_Hbond.Weighted>
0.0000

> <Gold.Chemscore.DEClash.Weighted>
2.6568

> <Gold.Chemscore.DEInternal.Weighted>
1.9512

> <Gold.Chemscore.Rot.Weighted>
5.9256

> <Gold.Chemscore.Internal.Correction.Weighted>
   9.000000E+99

> <Gold.Protein.RotatedTorsions>
[ 6907 6896 6895 6894 ] final   56.16 input  -60.11 | X-H torsion
[ 7974 7965 7964 7962 ] final  112.20 input  175.53 | X-H torsion
[ 8008 7997 7996 7995 ] final  146.56 input   59.86 | X-H torsion
[ 10167 10162 10161 10158 ] final  103.50 input  -65.29 | X-H torsion
[ 10718 10713 10712 10709 ] final -101.79 input   66.30 | X-H torsion
[ 10763 10752 10751 10750 ] final -136.19 input  -60.55 | X-H torsion
[ 11005 11000 10999 10996 ] final -160.33 input  -57.11 | X-H torsion

> <Gold.Protein.ActiveResidues>
 VAL166  LYS551  ARG553  GLY616  TRP617  ASP618  TYR619  PRO620  LYS621  CYS622 
 ASP623  PHE694  ASN695  SER759  ASP760  ASP761  ALA762  ILE779  LEU786  VAL792 
 PHE793  MET794  SER795  GLU796  ALA797  LYS798  CYS799  TRP800  GLU811  SER814 

> <Gold.Protein.RotatedAtoms>
  152.3609  134.6873  160.0207 H   0  0  0  0  0  0  0  0  0  0  0  0  # atno 6907 bound_to 6896
  151.7197  133.3309  159.3320 H   0  0  0  0  0  0  0  0  0  0  0  0  # atno 6908 bound_to 6896
  150.7604  134.6393  159.6273 H   0  0  0  0  0  0  0  0  0  0  0  0  # atno 6909 bound_to 6896
  145.2325  139.2813  143.4160 H   0  0  0  0  0  0  0  0  0  0  0  0  # atno 7974 bound_to 7965
  156.2852  140.2179  156.5396 H   0  0  0  0  0  0  0  0  0  0  0  0  # atno 8008 bound_to 7997
  154.7381  140.0490  157.0808 H   0  0  0  0  0  0  0  0  0  0  0  0  # atno 8009 bound_to 7997
  155.0267  140.3130  155.4776 H   0  0  0  0  0  0  0  0  0  0  0  0  # atno 8010 bound_to 7997
  139.7258  144.7048  151.0800 H   0  0  0  0  0  0  0  0  0  0  0  0  # atno 10167 bound_to 10162
  156.0206  130.5390  150.7014 H   0  0  0  0  0  0  0  0  0  0  0  0  # atno 10718 bound_to 10713
  154.8689  135.3680  154.5020 H   0  0  0  0  0  0  0  0  0  0  0  0  # atno 10763 bound_to 10752
  153.5660  135.7022  153.5530 H   0  0  0  0  0  0  0  0  0  0  0  0  # atno 10764 bound_to 10752
  153.3584  135.4053  155.1663 H   0  0  0  0  0  0  0  0  0  0  0  0  # atno 10765 bound_to 10752
  140.6327  134.4634  157.5230 H   0  0  0  0  0  0  0  0  0  0  0  0  # atno 11005 bound_to 11000
  146.3349  140.2664  142.8604 LP  0  0  0  0  0  0  0  0  0  0  0  0  # atno 17320 bound_to 7965
  144.9663  140.8325  143.5482 LP  0  0  0  0  0  0  0  0  0  0  0  0  # atno 17321 bound_to 7965
  140.7762  143.5107  150.9656 LP  0  0  0  0  0  0  0  0  0  0  0  0  # atno 17342 bound_to 10162
  139.8795  143.7090  152.3158 LP  0  0  0  0  0  0  0  0  0  0  0  0  # atno 17343 bound_to 10162
  157.4673  131.0889  151.0681 LP  0  0  0  0  0  0  0  0  0  0  0  0  # atno 17370 bound_to 10713
  157.1151  130.6038  149.5491 LP  0  0  0  0  0  0  0  0  0  0  0  0  # atno 17371 bound_to 10713
  139.9110  134.8345  156.1529 LP  0  0  0  0  0  0  0  0  0  0  0  0  # atno 17394 bound_to 11000
  141.0664  133.6817  156.2052 LP  0  0  0  0  0  0  0  0  0  0  0  0  # atno 17395 bound_to 11000

$$$$
