AV-unprocessed.smi:3006|AV-procd|sdf|11445|dock8
  -GOLD-   2272016373D 1   1.00000     0.00000
 Structure written by MMmdl.
 44 45  0  0  0  0  0  0  0  0  1 V2000
  151.0846  133.5123  156.1825 C   0  0  0  0  0  0  0  0  0  0  0  0
  150.5815  134.8555  155.7785 C   0  0  0  0  0  0  0  0  0  0  0  0
  151.3283  135.7569  155.1359 N   0  0  0  0  0  0  0  0  0  0  0  0
  150.6354  136.9436  154.8757 C   0  0  0  0  0  0  0  0  0  0  0  0
  151.3217  138.0721  154.1679 C   0  0  0  0  0  0  0  0  0  0  0  0
  152.5830  138.5414  154.9112 C   0  0  0  0  0  0  0  0  0  0  0  0
  152.2485  139.2274  156.1539 N   0  0  0  0  0  0  0  0  0  0  0  0
  151.3874  140.2528  156.2668 C   0  0  0  0  0  0  0  0  0  0  0  0
  150.7701  140.7003  155.2991 O   0  0  0  0  0  0  0  0  0  0  0  0
  151.2176  140.7105  157.5316 N   0  0  0  0  0  0  0  0  0  0  0  0
  152.1895  140.6439  158.6284 C   0  0  0  0  0  0  0  0  0  0  0  0
  152.7436  142.0587  158.8862 C   0  0  0  0  0  0  0  0  0  0  0  0
  151.6679  143.0011  159.2409 N   0  0  0  0  0  0  0  0  0  0  0  0
  152.1994  144.3559  159.4950 C   0  0  0  0  0  0  0  0  0  0  0  0
  151.1156  145.2941  160.0701 C   0  0  0  0  0  0  0  0  0  0  0  0
  152.7723  145.0024  158.2145 C   0  0  0  0  0  0  0  0  0  0  0  0
  150.6616  143.0037  158.1650 C   0  0  0  0  0  0  0  0  0  0  0  0
  150.1113  141.5876  157.9125 C   0  0  0  0  0  0  0  0  0  0  0  0
  149.3405  136.9247  155.3312 C   0  0  0  0  0  0  0  0  0  0  0  0
  148.9462  135.4157  156.1076 S   0  0  0  0  0  0  0  0  0  0  0  0
  151.6389  133.0546  155.3629 H   0  0  0  0  0  0  0  0  0  0  0  0
  150.2523  132.8601  156.4473 H   0  0  0  0  0  0  0  0  0  0  0  0
  151.7448  133.6059  157.0447 H   0  0  0  0  0  0  0  0  0  0  0  0
  151.5884  137.7667  153.1553 H   0  0  0  0  0  0  0  0  0  0  0  0
  150.6313  138.9089  154.0548 H   0  0  0  0  0  0  0  0  0  0  0  0
  153.2438  137.6967  155.1135 H   0  0  0  0  0  0  0  0  0  0  0  0
  153.1483  139.2335  154.2863 H   0  0  0  0  0  0  0  0  0  0  0  0
  152.7038  138.8987  156.9931 H   0  0  0  0  0  0  0  0  0  0  0  0
  151.6982  140.2634  159.5253 H   0  0  0  0  0  0  0  0  0  0  0  0
  153.0189  139.9626  158.4396 H   0  0  0  0  0  0  0  0  0  0  0  0
  153.4669  141.9775  159.6953 H   0  0  0  0  0  0  0  0  0  0  0  0
  153.2812  142.4190  158.0075 H   0  0  0  0  0  0  0  0  0  0  0  0
  153.0070  144.2815  160.2249 H   0  0  0  0  0  0  0  0  0  0  0  0
  151.4737  146.3230  160.1170 H   0  0  0  0  0  0  0  0  0  0  0  0
  150.8334  145.0315  161.0890 H   0  0  0  0  0  0  0  0  0  0  0  0
  150.2164  145.2896  159.4531 H   0  0  0  0  0  0  0  0  0  0  0  0
  153.0208  146.0507  158.3830 H   0  0  0  0  0  0  0  0  0  0  0  0
  152.0562  144.9647  157.3928 H   0  0  0  0  0  0  0  0  0  0  0  0
  153.6964  144.5273  157.8867 H   0  0  0  0  0  0  0  0  0  0  0  0
  149.8149  143.6339  158.4316 H   0  0  0  0  0  0  0  0  0  0  0  0
  151.0932  143.4104  157.2490 H   0  0  0  0  0  0  0  0  0  0  0  0
  149.3279  141.6247  157.1542 H   0  0  0  0  0  0  0  0  0  0  0  0
  149.6316  141.2013  158.8134 H   0  0  0  0  0  0  0  0  0  0  0  0
  148.5979  137.7056  155.2592 H   0  0  0  0  0  0  0  0  0  0  0  0
  1  2  1  0  0  0  0
  1 21  1  0  0  0  0
  1 22  1  0  0  0  0
  1 23  1  0  0  0  0
  2 20  1  0  0  0  0
  2  3  2  0  0  0  0
  3  4  1  0  0  0  0
  4  5  1  0  0  0  0
  4 19  2  0  0  0  0
  5  6  1  0  0  0  0
  5 24  1  0  0  0  0
  5 25  1  0  0  0  0
  6  7  1  0  0  0  0
  6 26  1  0  0  0  0
  6 27  1  0  0  0  0
  7  8  1  0  0  0  0
  7 28  1  0  0  0  0
  8  9  2  0  0  0  0
  8 10  1  0  0  0  0
 10 18  1  0  0  0  0
 10 11  1  0  0  0  0
 11 12  1  0  0  0  0
 11 29  1  0  0  0  0
 11 30  1  0  0  0  0
 12 13  1  0  0  0  0
 12 31  1  0  0  0  0
 12 32  1  0  0  0  0
 13 14  1  0  0  0  0
 13 17  1  0  0  0  0
 14 15  1  0  0  0  0
 14 16  1  0  0  0  0
 14 33  1  0  0  0  0
 15 34  1  0  0  0  0
 15 35  1  0  0  0  0
 15 36  1  0  0  0  0
 16 37  1  0  0  0  0
 16 38  1  0  0  0  0
 16 39  1  0  0  0  0
 17 18  1  0  0  0  0
 17 40  1  0  0  0  0
 17 41  1  0  0  0  0
 18 42  1  0  0  0  0
 18 43  1  0  0  0  0
 19 20  1  0  0  0  0
 19 44  1  0  0  0  0
M  END
> <s_m_source_file>
AV-unprocessed.smi

> <i_m_source_file_index>
3006

> <i_lp_mmshare_version>
43012

> <i_f3d_flags>
0

> <s_epik_input>
W0NIM11jMW5jKFtjSF1zMSlbQ0gyXVtDSDJdW05IXUMoPU8pTjJbQ0gyXVtDSDJdTihbQ0hdKFtDSDNdKVtDSDNdKVtDSDJdW0NIMl0y

> <s_epik_cmdline>
J2VwaWtfcHl0aG9uJywgJy1waCcsICc3LjAnLCAnLXRuJywgJzgnLCAnLW1hJywgJzIwMCcsICctbWV0YWxfYmluZGluZycsICctaW1hZScsICc8aW5maWxlLm1hZT4nLCAnLW9tYWUnLCAnPG91dGZpbGUubWFlPic=

> <r_epik_Ionization_Penalty>
0.875753

> <r_epik_Ionization_Penalty_Charging>
0

> <r_epik_Ionization_Penalty_Neutral>
0.875753

> <r_epik_State_Penalty>
0.930306

> <r_epik_Charging_Adjusted_Penalty>
0.930306

> <i_epik_Tot_Q>
0

> <i_epik_Tot_abs_Q>
0

> <r_epik_Metal_State_Penalty>
0.928801

> <b_epik_Metal_Only>
0

> <s_lp_Force_Field>
OPLS_2005

> <r_lp_Energy>
38.048

> <b_lp_Chiralities_Consistent>
1

> <s_lp_Variant>
AV-unprocessed.smi:3006-2

> <Gold.Version>
5.8.1

> <Gold.Id.Protein>
6NUR|6NUR_protein|mol2

> <Gold.PLP.Fitness>
45.8216

> <Gold.PLP.PLP>
-40.6912

> <Gold.PLP.part.hbond>
-2.0000

> <Gold.PLP.part.metal>
0.0000

> <Gold.PLP.part.buried>
-7.2372

> <Gold.PLP.part.nonpolar>
-31.1771

> <Gold.PLP.part.repulsive>
0.3446

> <Gold.PLP.ligand.clash>
0.0000

> <Gold.PLP.ligand.torsion>
0.2927

> <Gold.PLP.Chemscore.Hbond>
1.8800

> <Gold.PLP.Chemscore.CHOScore>
0.0000

> <Gold.PLP.Chemscore.Metal>
0.0000

> <Gold.Chemscore.Hbonds>
donor molecule, donor type, donor heavy atom, donor atom, acceptor molecule, acceptor atom, score
      P1  H  7989  7998       L1     9  0.88
      P1  H 10752 10765       L1     3  1.00

> <Gold.PLP.Chemscore.Internal.Correction>
0.0759

> <Gold.Rescore>
     Score         DG    S(hbond)    S(metal)    S(lipo)     H(rot)  DE(clash)    DE(int)     intcor
     19.60     -20.53       1.78        0.00     108.16       1.39       0.03       0.90       ----

> <Gold.Chemscore.Fitness>
19.6026

> <Gold.Chemscore.DG>
-20.5336

> <Gold.Chemscore.ZeroCoef>
-5.4800

> <Gold.Chemscore.Hbond>
1.7806

> <Gold.Chemscore.Metal>
0.0000

> <Gold.Chemscore.Lipo>
108.1615

> <Gold.Chemscore.Internal_Hbond>
0.0000

> <Gold.Chemscore.DEClash>
0.0283

> <Gold.Chemscore.DEInternal>
0.9028

> <Gold.Chemscore.Rot>
1.3861

> <Gold.Chemscore.Internal.Correction>
   9.000000E+99

> <Gold.Chemscore.Hbonds>
donor molecule, donor type, donor heavy atom, donor atom, acceptor molecule, acceptor atom, score
      P1  H  7989  7998       L1     9  0.83
      P1  H 10752 10765       L1     3  0.96

> <Gold.Chemscore.Hbond.Weighted>
-5.9472

> <Gold.Chemscore.Metal.Weighted>
-0.0000

> <Gold.Chemscore.Lipo.Weighted>
-12.6549

> <Gold.Chemscore.Internal_Hbond.Weighted>
0.0000

> <Gold.Chemscore.DEClash.Weighted>
0.0283

> <Gold.Chemscore.DEInternal.Weighted>
0.9028

> <Gold.Chemscore.Rot.Weighted>
3.5484

> <Gold.Chemscore.Internal.Correction.Weighted>
   9.000000E+99

> <Gold.Protein.RotatedTorsions>
[ 6907 6896 6895 6894 ] final  104.43 input  -60.11 | X-H torsion
[ 7974 7965 7964 7962 ] final   13.99 input  175.53 | X-H torsion
[ 8008 7997 7996 7995 ] final  -71.86 input   59.86 | X-H torsion
[ 10167 10162 10161 10158 ] final  122.78 input  -65.29 | X-H torsion
[ 10718 10713 10712 10709 ] final  -92.53 input   66.30 | X-H torsion
[ 10763 10752 10751 10750 ] final -160.99 input  -60.55 | X-H torsion
[ 11005 11000 10999 10996 ] final -142.36 input  -57.11 | X-H torsion

> <Gold.Protein.ActiveResidues>
 VAL166  LYS551  ARG553  GLY616  TRP617  ASP618  TYR619  PRO620  LYS621  CYS622 
 ASP623  PHE694  ASN695  SER759  ASP760  ASP761  ALA762  ILE779  LEU786  VAL792 
 PHE793  MET794  SER795  GLU796  ALA797  LYS798  CYS799  TRP800  GLU811  SER814 

> <Gold.Protein.RotatedAtoms>
  152.5264  133.9678  159.7747 H   0  0  0  0  0  0  0  0  0  0  0  0  # atno 6907 bound_to 6896
  150.9956  133.6098  159.2709 H   0  0  0  0  0  0  0  0  0  0  0  0  # atno 6908 bound_to 6896
  151.3226  135.0828  159.9364 H   0  0  0  0  0  0  0  0  0  0  0  0  # atno 6909 bound_to 6896
  146.2316  139.9107  142.8525 H   0  0  0  0  0  0  0  0  0  0  0  0  # atno 7974 bound_to 7965
  154.5121  140.0808  156.8010 H   0  0  0  0  0  0  0  0  0  0  0  0  # atno 8008 bound_to 7997
  155.3762  140.3425  155.4227 H   0  0  0  0  0  0  0  0  0  0  0  0  # atno 8009 bound_to 7997
  156.1585  140.1581  156.8640 H   0  0  0  0  0  0  0  0  0  0  0  0  # atno 8010 bound_to 7997
  139.5838  144.6998  151.3460 H   0  0  0  0  0  0  0  0  0  0  0  0  # atno 10167 bound_to 10162
  156.0003  130.4991  150.5639 H   0  0  0  0  0  0  0  0  0  0  0  0  # atno 10718 bound_to 10713
  154.7342  135.3053  154.8840 H   0  0  0  0  0  0  0  0  0  0  0  0  # atno 10763 bound_to 10752
  153.9673  135.6746  153.4750 H   0  0  0  0  0  0  0  0  0  0  0  0  # atno 10764 bound_to 10752
  153.0947  135.4942  154.8678 H   0  0  0  0  0  0  0  0  0  0  0  0  # atno 10765 bound_to 10752
  140.8233  134.2605  157.4890 H   0  0  0  0  0  0  0  0  0  0  0  0  # atno 11005 bound_to 11000
  145.2232  140.9943  143.4033 LP  0  0  0  0  0  0  0  0  0  0  0  0  # atno 17320 bound_to 7965
  144.9593  139.3998  143.6364 LP  0  0  0  0  0  0  0  0  0  0  0  0  # atno 17321 bound_to 7965
  140.7113  143.7383  150.7572 LP  0  0  0  0  0  0  0  0  0  0  0  0  # atno 17342 bound_to 10162
  140.0922  143.4867  152.2472 LP  0  0  0  0  0  0  0  0  0  0  0  0  # atno 17343 bound_to 10162
  157.3544  131.0739  151.1687 LP  0  0  0  0  0  0  0  0  0  0  0  0  # atno 17370 bound_to 10713
  157.2493  130.6606  149.5924 LP  0  0  0  0  0  0  0  0  0  0  0  0  # atno 17371 bound_to 10713
  139.8707  134.9547  156.4184 LP  0  0  0  0  0  0  0  0  0  0  0  0  # atno 17394 bound_to 11000
  140.9076  133.7735  155.9753 LP  0  0  0  0  0  0  0  0  0  0  0  0  # atno 17395 bound_to 11000

$$$$
