AV-unprocessed.smi:2061|AV-procd|sdf|8374|dock6
  -GOLD-   2272011 53D 1   1.00000     0.00000
 Structure written by MMmdl.
 44 45  0  0  0  0  0  0  0  0  2 V2000
  145.6733  132.4549  151.3867 C   0  0  0  0  0  0  0  0  0  0  0  0
  146.7461  133.1089  152.1888 C   0  0  0  0  0  0  0  0  0  0  0  0
  148.0953  133.2270  152.0114 C   0  0  0  0  0  0  0  0  0  0  0  0
  148.5094  133.9673  153.1525 C   0  0  0  0  0  0  0  0  0  0  0  0
  149.7643  134.3536  153.4294 N   0  5  0  0  0  0  0  0  0  0  0  0
  149.9984  135.2595  154.4069 C   0  0  0  0  0  0  0  0  0  0  0  0
  149.7080  135.1383  155.5991 O   0  0  0  0  0  0  0  0  0  0  0  0
  150.6152  136.3687  153.9731 N   0  0  0  0  0  0  0  0  0  0  0  0
  151.0034  137.5240  154.7808 C   0  0  0  0  0  0  0  0  0  0  0  0
  151.5857  138.6909  153.9332 C   0  0  2  0  0  0  0  0  0  0  0  0
  153.1309  138.6870  154.0585 C   0  0  0  0  0  0  0  0  0  0  0  0
  150.9884  140.0078  154.2622 N   0  0  0  0  0  0  0  0  0  0  0  0
  149.5254  140.0048  154.1540 C   0  0  0  0  0  0  0  0  0  0  0  0
  148.8926  141.3628  154.5129 C   0  0  1  0  0  0  0  0  0  0  0  0
  147.3616  141.3179  154.4683 C   0  0  0  0  0  0  0  0  0  0  0  0
  149.2889  141.7293  155.8282 O   0  0  0  0  0  0  0  0  0  0  0  0
  150.7008  141.8257  155.9670 C   0  0  1  0  0  0  0  0  0  0  0  0
  151.0138  142.2506  157.4057 C   0  0  0  0  0  0  0  0  0  0  0  0
  151.3395  140.4699  155.6095 C   0  0  0  0  0  0  0  0  0  0  0  0
  147.4981  134.2853  153.9433 N   0  0  0  0  0  0  0  0  0  0  0  0
  146.3643  133.7336  153.3352 O   0  0  0  0  0  0  0  0  0  0  0  0
  145.4996  133.0007  150.4594 H   0  0  0  0  0  0  0  0  0  0  0  0
  144.7345  132.4196  151.9397 H   0  0  0  0  0  0  0  0  0  0  0  0
  145.9524  131.4325  151.1311 H   0  0  0  0  0  0  0  0  0  0  0  0
  148.6928  132.8426  151.1984 H   0  0  0  0  0  0  0  0  0  0  0  0
  150.8324  136.4142  152.9884 H   0  0  0  0  0  0  0  0  0  0  0  0
  150.0827  137.8206  155.2793 H   0  0  0  0  0  0  0  0  0  0  0  0
  151.7033  137.2491  155.5717 H   0  0  0  0  0  0  0  0  0  0  0  0
  151.3534  138.4695  152.8903 H   0  0  0  0  0  0  0  0  0  0  0  0
  153.5622  137.7121  153.8370 H   0  0  0  0  0  0  0  0  0  0  0  0
  153.4453  138.9629  155.0655 H   0  0  0  0  0  0  0  0  0  0  0  0
  153.6086  139.3674  153.3556 H   0  0  0  0  0  0  0  0  0  0  0  0
  149.2179  139.7717  153.1362 H   0  0  0  0  0  0  0  0  0  0  0  0
  149.1107  139.2269  154.7970 H   0  0  0  0  0  0  0  0  0  0  0  0
  149.2397  142.1239  153.8116 H   0  0  0  0  0  0  0  0  0  0  0  0
  147.0055  141.0501  153.4733 H   0  0  0  0  0  0  0  0  0  0  0  0
  146.9359  142.2887  154.7231 H   0  0  0  0  0  0  0  0  0  0  0  0
  146.9675  140.5856  155.1738 H   0  0  0  0  0  0  0  0  0  0  0  0
  151.0725  142.5947  155.2873 H   0  0  0  0  0  0  0  0  0  0  0  0
  152.0883  142.3532  157.5591 H   0  0  0  0  0  0  0  0  0  0  0  0
  150.6417  141.5184  158.1229 H   0  0  0  0  0  0  0  0  0  0  0  0
  150.5515  143.2101  157.6386 H   0  0  0  0  0  0  0  0  0  0  0  0
  151.0432  139.7198  156.3445 H   0  0  0  0  0  0  0  0  0  0  0  0
  152.4161  140.5971  155.7018 H   0  0  0  0  0  0  0  0  0  0  0  0
  1  2  1  0  0  0  0
  1 22  1  0  0  0  0
  1 23  1  0  0  0  0
  1 24  1  0  0  0  0
  2 21  1  0  0  0  0
  2  3  2  0  0  0  0
  3  4  1  0  0  0  0
  3 25  1  0  0  0  0
  4  5  1  0  0  0  0
  4 20  2  0  0  0  0
  5  6  1  0  0  0  0
  6  7  2  0  0  0  0
  6  8  1  0  0  0  0
  8  9  1  0  0  0  0
  8 26  1  0  0  0  0
  9 10  1  0  0  0  0
  9 27  1  0  0  0  0
  9 28  1  0  0  0  0
 10 11  1  0  0  0  0
 10 12  1  0  0  0  0
 10 29  1  0  0  0  0
 11 30  1  0  0  0  0
 11 31  1  0  0  0  0
 11 32  1  0  0  0  0
 12 19  1  0  0  0  0
 12 13  1  0  0  0  0
 13 14  1  0  0  0  0
 13 33  1  0  0  0  0
 13 34  1  0  0  0  0
 14 15  1  0  0  0  0
 14 16  1  0  0  0  0
 14 35  1  0  0  0  0
 15 36  1  0  0  0  0
 15 37  1  0  0  0  0
 15 38  1  0  0  0  0
 16 17  1  0  0  0  0
 17 18  1  0  0  0  0
 17 19  1  0  0  0  0
 17 39  1  0  0  0  0
 18 40  1  0  0  0  0
 18 41  1  0  0  0  0
 18 42  1  0  0  0  0
 19 43  1  0  0  0  0
 19 44  1  0  0  0  0
 20 21  1  0  0  0  0
M  CHG  1   5  -1
M  END
> <s_m_source_file>
AV-unprocessed.smi

> <i_m_source_file_index>
2061

> <i_lp_mmshare_version>
43012

> <i_f3d_flags>
0

> <s_epik_input>
W0NIM11jMVtjSF1jKG5vMSlbTkhdQyg9TylbTkhdW0NIMl1bQ0BIXShbQ0gzXSlOMltDSDJdW0NAQEhdKFtDSDNdKU9bQ0BASF0oW0NIM10pW0NIMl0y

> <s_epik_cmdline>
J2VwaWtfcHl0aG9uJywgJy1waCcsICc3LjAnLCAnLXRuJywgJzgnLCAnLW1hJywgJzIwMCcsICctbWV0YWxfYmluZGluZycsICctaW1hZScsICc8aW5maWxlLm1hZT4nLCAnLW9tYWUnLCAnPG91dGZpbGUubWFlPic=

> <r_epik_Ionization_Penalty>
6.88367

> <r_epik_Ionization_Penalty_Charging>
6.57198

> <r_epik_Ionization_Penalty_Neutral>
0.311681

> <r_epik_State_Penalty>
6.77619

> <r_epik_Charging_Adjusted_Penalty>
13.3482

> <i_epik_Tot_Q>
-1

> <i_epik_Tot_abs_Q>
1

> <r_epik_Metal_State_Penalty>
2.70524

> <b_epik_Metal_Only>
1

> <s_lp_Force_Field>
OPLS_2005

> <r_lp_Energy>
21.032

> <b_lp_Chiralities_Consistent>
1

> <s_lp_Variant>
AV-unprocessed.smi:2061-15

> <Gold.Version>
5.8.1

> <Gold.Id.Protein>
6NUR|6NUR_protein|mol2

> <Gold.PLP.Fitness>
40.4174

> <Gold.PLP.PLP>
-37.5091

> <Gold.PLP.part.hbond>
-2.8264

> <Gold.PLP.part.metal>
0.0000

> <Gold.PLP.part.buried>
-2.0048

> <Gold.PLP.part.nonpolar>
-32.3554

> <Gold.PLP.part.repulsive>
0.7222

> <Gold.PLP.ligand.clash>
0.0000

> <Gold.PLP.ligand.torsion>
1.2636

> <Gold.PLP.Chemscore.Hbond>
1.7930

> <Gold.PLP.Chemscore.CHOScore>
0.0000

> <Gold.PLP.Chemscore.Metal>
0.0000

> <Gold.Chemscore.Hbonds>
donor molecule, donor type, donor heavy atom, donor atom, acceptor molecule, acceptor atom, score
      L1  H     8    26       P1  7949  0.65
      P1  H  7989  7998       L1    12  0.47

> <Gold.PLP.Chemscore.Internal.Correction>
0.0566

> <Gold.Rescore>
     Score         DG    S(hbond)    S(metal)    S(lipo)     H(rot)  DE(clash)    DE(int)     intcor
     10.71     -12.25       0.36        0.00      80.82       1.52       0.07       1.48       ----

> <Gold.Chemscore.Fitness>
10.7065

> <Gold.Chemscore.DG>
-12.2511

> <Gold.Chemscore.ZeroCoef>
-5.4800

> <Gold.Chemscore.Hbond>
0.3604

> <Gold.Chemscore.Metal>
0.0000

> <Gold.Chemscore.Lipo>
80.8203

> <Gold.Chemscore.Internal_Hbond>
0.0000

> <Gold.Chemscore.DEClash>
0.0678

> <Gold.Chemscore.DEInternal>
1.4768

> <Gold.Chemscore.Rot>
1.5190

> <Gold.Chemscore.Internal.Correction>
   9.000000E+99

> <Gold.Chemscore.Hbonds>
donor molecule, donor type, donor heavy atom, donor atom, acceptor molecule, acceptor atom, score
      L1  H     8    26       P1  7949  0.06
      P1  H  7989  7998       L1    12  0.08

> <Gold.Chemscore.Hbond.Weighted>
-1.2037

> <Gold.Chemscore.Metal.Weighted>
-0.0000

> <Gold.Chemscore.Lipo.Weighted>
-9.4560

> <Gold.Chemscore.Internal_Hbond.Weighted>
0.0000

> <Gold.Chemscore.DEClash.Weighted>
0.0678

> <Gold.Chemscore.DEInternal.Weighted>
1.4768

> <Gold.Chemscore.Rot.Weighted>
3.8886

> <Gold.Chemscore.Internal.Correction.Weighted>
   9.000000E+99

> <Gold.Protein.RotatedTorsions>
[ 6907 6896 6895 6894 ] final   32.96 input  -60.11 | X-H torsion
[ 7974 7965 7964 7962 ] final  -23.74 input  175.53 | X-H torsion
[ 8008 7997 7996 7995 ] final  -52.11 input   59.86 | X-H torsion
[ 10167 10162 10161 10158 ] final  104.26 input  -65.29 | X-H torsion
[ 10718 10713 10712 10709 ] final  137.67 input   66.30 | X-H torsion
[ 10763 10752 10751 10750 ] final -168.84 input  -60.55 | X-H torsion
[ 11005 11000 10999 10996 ] final   92.91 input  -57.11 | X-H torsion

> <Gold.Protein.ActiveResidues>
 VAL166  LYS551  ARG553  GLY616  TRP617  ASP618  TYR619  PRO620  LYS621  CYS622 
 ASP623  PHE694  ASN695  SER759  ASP760  ASP761  ALA762  ILE779  LEU786  VAL792 
 PHE793  MET794  SER795  GLU796  ALA797  LYS798  CYS799  TRP800  GLU811  SER814 

> <Gold.Protein.RotatedAtoms>
  152.0819  134.9465  160.0573 H   0  0  0  0  0  0  0  0  0  0  0  0  # atno 6907 bound_to 6896
  152.0751  133.4120  159.4484 H   0  0  0  0  0  0  0  0  0  0  0  0  # atno 6908 bound_to 6896
  150.6836  134.2967  159.4732 H   0  0  0  0  0  0  0  0  0  0  0  0  # atno 6909 bound_to 6896
  146.1598  140.4657  142.8576 H   0  0  0  0  0  0  0  0  0  0  0  0  # atno 7974 bound_to 7965
  154.4098  140.1232  156.4937 H   0  0  0  0  0  0  0  0  0  0  0  0  # atno 8008 bound_to 7997
  155.6964  140.3495  155.4895 H   0  0  0  0  0  0  0  0  0  0  0  0  # atno 8009 bound_to 7997
  155.9424  140.1089  157.1035 H   0  0  0  0  0  0  0  0  0  0  0  0  # atno 8010 bound_to 7997
  139.7192  144.7062  151.0900 H   0  0  0  0  0  0  0  0  0  0  0  0  # atno 10167 bound_to 10162
  157.4336  131.1051  151.0223 H   0  0  0  0  0  0  0  0  0  0  0  0  # atno 10718 bound_to 10713
  154.6586  135.2921  154.9895 H   0  0  0  0  0  0  0  0  0  0  0  0  # atno 10763 bound_to 10752
  154.0963  135.6583  153.4864 H   0  0  0  0  0  0  0  0  0  0  0  0  # atno 10764 bound_to 10752
  153.0417  135.5232  154.7527 H   0  0  0  0  0  0  0  0  0  0  0  0  # atno 10765 bound_to 10752
  139.8817  134.8760  156.3641 H   0  0  0  0  0  0  0  0  0  0  0  0  # atno 11005 bound_to 11000
  144.8011  140.6215  143.6477 LP  0  0  0  0  0  0  0  0  0  0  0  0  # atno 17320 bound_to 7965
  145.4618  139.1512  143.3862 LP  0  0  0  0  0  0  0  0  0  0  0  0  # atno 17321 bound_to 7965
  140.7750  143.5188  150.9561 LP  0  0  0  0  0  0  0  0  0  0  0  0  # atno 17342 bound_to 10162
  139.8875  143.6995  152.3149 LP  0  0  0  0  0  0  0  0  0  0  0  0  # atno 17343 bound_to 10162
  157.1111  130.6022  149.5482 LP  0  0  0  0  0  0  0  0  0  0  0  0  # atno 17370 bound_to 10713
  155.9922  130.4979  150.7330 LP  0  0  0  0  0  0  0  0  0  0  0  0  # atno 17371 bound_to 10713
  140.9509  133.7452  156.0270 LP  0  0  0  0  0  0  0  0  0  0  0  0  # atno 17394 bound_to 11000
  140.8107  134.3403  157.5412 LP  0  0  0  0  0  0  0  0  0  0  0  0  # atno 17395 bound_to 11000

$$$$
