AV-unprocessed.smi:2761|AV-procd|sdf|10634|dock2
  -GOLD-   2272015 83D 1   1.00000     0.00000
 Structure written by MMmdl.
 26 27  0  0  0  0  0  0  0  0  2 V2000
  154.2905  141.4135  161.8704 O   0  0  0  0  0  0  0  0  0  0  0  0
  153.6378  141.5323  160.8312 C   0  0  0  0  0  0  0  0  0  0  0  0
  153.2198  140.5069  160.0573 N   0  0  0  0  0  0  0  0  0  0  0  0
  153.4126  139.1362  160.2560 C   0  0  0  0  0  0  0  0  0  0  0  0
  154.6499  138.8491  160.9356 C   0  0  0  0  0  0  0  0  0  0  0  0
  154.9406  137.5524  161.1817 C   0  0  0  0  0  0  0  0  0  0  0  0
  154.0316  136.4783  160.7734 C   0  0  0  0  0  0  0  0  0  0  0  0
  154.3363  135.3130  161.0177 O   0  0  0  0  0  0  0  0  0  0  0  0
  152.8713  136.8264  160.1311 N   0  5  0  0  0  0  0  0  0  0  0  0
  152.5741  138.2215  159.8740 N   0  0  0  0  0  0  0  0  0  0  0  0
  153.2695  142.9370  160.3271 C   0  0  2  0  0  0  0  0  0  0  0  0
  152.3528  143.7036  161.3087 C   0  0  0  0  0  0  0  0  0  0  0  0
  152.0268  144.9732  160.7574 O   0  0  0  0  0  0  0  0  0  0  0  0
  151.3556  144.8414  159.5126 C   0  0  0  0  0  0  0  0  0  0  0  0
  152.2723  144.0957  158.5304 C   0  0  0  0  0  0  0  0  0  0  0  0
  152.5945  142.8235  159.0752 O   0  0  0  0  0  0  0  0  0  0  0  0
  152.6968  140.7756  159.2371 H   0  0  0  0  0  0  0  0  0  0  0  0
  155.3441  139.6139  161.2514 H   0  0  0  0  0  0  0  0  0  0  0  0
  155.8603  137.3018  161.6892 H   0  0  0  0  0  0  0  0  0  0  0  0
  154.2001  143.4892  160.1848 H   0  0  0  0  0  0  0  0  0  0  0  0
  151.4402  143.1425  161.5174 H   0  0  0  0  0  0  0  0  0  0  0  0
  152.8560  143.8653  162.2625 H   0  0  0  0  0  0  0  0  0  0  0  0
  150.4119  144.3102  159.6457 H   0  0  0  0  0  0  0  0  0  0  0  0
  151.1157  145.8335  159.1297 H   0  0  0  0  0  0  0  0  0  0  0  0
  151.7696  143.9564  157.5734 H   0  0  0  0  0  0  0  0  0  0  0  0
  153.1821  144.6659  158.3372 H   0  0  0  0  0  0  0  0  0  0  0  0
  1  2  2  0  0  0  0
  2  3  1  0  0  0  0
  2 11  1  0  0  0  0
  3 17  1  0  0  0  0
  3  4  1  0  0  0  0
  4  5  1  0  0  0  0
  4 10  2  0  0  0  0
  5  6  2  0  0  0  0
  5 18  1  0  0  0  0
  6  7  1  0  0  0  0
  6 19  1  0  0  0  0
  7  8  2  0  0  0  0
  7  9  1  0  0  0  0
  9 10  1  0  0  0  0
 11 16  1  0  0  0  0
 11 12  1  0  0  0  0
 11 20  1  0  0  0  0
 12 13  1  0  0  0  0
 12 21  1  0  0  0  0
 12 22  1  0  0  0  0
 13 14  1  0  0  0  0
 14 15  1  0  0  0  0
 14 23  1  0  0  0  0
 14 24  1  0  0  0  0
 15 16  1  0  0  0  0
 15 25  1  0  0  0  0
 15 26  1  0  0  0  0
M  CHG  1   9  -1
M  END
> <s_m_source_file>
AV-unprocessed.smi

> <i_m_source_file_index>
2761

> <i_lp_mmshare_version>
43012

> <i_f3d_flags>
0

> <s_epik_input>
TzFbQ0gyXVtDSDJdT1tDSDJdW0NASF0xQyg9TylbTkhdYzJbY0hdW2NIXWMoW09IXSlubjI=

> <s_epik_cmdline>
J2VwaWtfcHl0aG9uJywgJy1waCcsICc3LjAnLCAnLXRuJywgJzgnLCAnLW1hJywgJzIwMCcsICctbWV0YWxfYmluZGluZycsICctaW1hZScsICc8aW5maWxlLm1hZT4nLCAnLW9tYWUnLCAnPG91dGZpbGUubWFlPic=

> <r_lp_tautomer_probability>
1

> <r_epik_Ionization_Penalty>
4.21844

> <r_epik_Ionization_Penalty_Charging>
0.119247

> <r_epik_Ionization_Penalty_Neutral>
4.0992

> <r_epik_State_Penalty>
4.09486

> <r_epik_Charging_Adjusted_Penalty>
4.2141

> <i_epik_Tot_Q>
-1

> <i_epik_Tot_abs_Q>
1

> <r_epik_Metal_State_Penalty>
0.651223

> <b_epik_Metal_Only>
1

> <s_lp_Force_Field>
OPLS_2005

> <r_lp_Energy>
28.3559

> <b_lp_Chiralities_Consistent>
1

> <s_lp_Variant>
AV-unprocessed.smi:2761-3

> <Gold.Version>
5.8.1

> <Gold.Id.Protein>
6NUR|6NUR_protein|mol2

> <Gold.PLP.Fitness>
35.4410

> <Gold.PLP.PLP>
-29.8786

> <Gold.PLP.part.hbond>
-1.6219

> <Gold.PLP.part.metal>
0.0000

> <Gold.PLP.part.buried>
-6.3809

> <Gold.PLP.part.nonpolar>
-22.6249

> <Gold.PLP.part.repulsive>
0.2499

> <Gold.PLP.ligand.clash>
0.0000

> <Gold.PLP.ligand.torsion>
0.2196

> <Gold.PLP.Chemscore.Hbond>
2.0000

> <Gold.PLP.Chemscore.CHOScore>
0.0000

> <Gold.PLP.Chemscore.Metal>
0.0000

> <Gold.Chemscore.Hbonds>
donor molecule, donor type, donor heavy atom, donor atom, acceptor molecule, acceptor atom, score
      P1  H  6896  6909       L1     9  1.40

> <Gold.PLP.Chemscore.Internal.Correction>
0.0016

> <Gold.Rescore>
     Score         DG    S(hbond)    S(metal)    S(lipo)     H(rot)  DE(clash)    DE(int)     intcor
     11.06     -12.73       0.95        0.00      56.67       1.00       0.02       1.65       ----

> <Gold.Chemscore.Fitness>
11.0582

> <Gold.Chemscore.DG>
-12.7328

> <Gold.Chemscore.ZeroCoef>
-5.4800

> <Gold.Chemscore.Hbond>
0.9530

> <Gold.Chemscore.Metal>
0.0000

> <Gold.Chemscore.Lipo>
56.6658

> <Gold.Chemscore.Internal_Hbond>
0.0000

> <Gold.Chemscore.DEClash>
0.0237

> <Gold.Chemscore.DEInternal>
1.6508

> <Gold.Chemscore.Rot>
1.0000

> <Gold.Chemscore.Internal.Correction>
   9.000000E+99

> <Gold.Chemscore.Hbonds>
donor molecule, donor type, donor heavy atom, donor atom, acceptor molecule, acceptor atom, score
      P1  H  6896  6909       L1     9  0.07

> <Gold.Chemscore.Hbond.Weighted>
-3.1829

> <Gold.Chemscore.Metal.Weighted>
-0.0000

> <Gold.Chemscore.Lipo.Weighted>
-6.6299

> <Gold.Chemscore.Internal_Hbond.Weighted>
0.0000

> <Gold.Chemscore.DEClash.Weighted>
0.0237

> <Gold.Chemscore.DEInternal.Weighted>
1.6508

> <Gold.Chemscore.Rot.Weighted>
2.5600

> <Gold.Chemscore.Internal.Correction.Weighted>
   9.000000E+99

> <Gold.Protein.RotatedTorsions>
[ 6907 6896 6895 6894 ] final  158.74 input  -60.11 | X-H torsion
[ 7974 7965 7964 7962 ] final -140.57 input  175.53 | X-H torsion
[ 8008 7997 7996 7995 ] final   97.18 input   59.86 | X-H torsion
[ 10167 10162 10161 10158 ] final   47.38 input  -65.29 | X-H torsion
[ 10718 10713 10712 10709 ] final   76.52 input   66.30 | X-H torsion
[ 10763 10752 10751 10750 ] final  161.12 input  -60.55 | X-H torsion
[ 11005 11000 10999 10996 ] final  177.92 input  -57.11 | X-H torsion

> <Gold.Protein.ActiveResidues>
 VAL166  LYS551  ARG553  GLY616  TRP617  ASP618  TYR619  PRO620  LYS621  CYS622 
 ASP623  PHE694  ASN695  SER759  ASP760  ASP761  ALA762  ILE779  LEU786  VAL792 
 PHE793  MET794  SER795  GLU796  ALA797  LYS798  CYS799  TRP800  GLU811  SER814 

> <Gold.Protein.RotatedAtoms>
  151.9960  133.3808  159.4162 H   0  0  0  0  0  0  0  0  0  0  0  0  # atno 6907 bound_to 6896
  150.6916  134.3886  159.5075 H   0  0  0  0  0  0  0  0  0  0  0  0  # atno 6908 bound_to 6896
  152.1626  134.8900  160.0591 H   0  0  0  0  0  0  0  0  0  0  0  0  # atno 6909 bound_to 6896
  144.8587  140.6184  143.5342 H   0  0  0  0  0  0  0  0  0  0  0  0  # atno 7974 bound_to 7965
  156.0875  140.3262  155.7772 H   0  0  0  0  0  0  0  0  0  0  0  0  # atno 8008 bound_to 7997
  155.5052  140.0572  157.2950 H   0  0  0  0  0  0  0  0  0  0  0  0  # atno 8009 bound_to 7997
  154.4617  140.1970  156.0242 H   0  0  0  0  0  0  0  0  0  0  0  0  # atno 8010 bound_to 7997
  140.3042  144.2897  150.6212 H   0  0  0  0  0  0  0  0  0  0  0  0  # atno 10167 bound_to 10162
  157.6676  130.9778  150.1508 H   0  0  0  0  0  0  0  0  0  0  0  0  # atno 10718 bound_to 10713
  154.2580  135.2769  155.2789 H   0  0  0  0  0  0  0  0  0  0  0  0  # atno 10763 bound_to 10752
  154.5408  135.5703  153.6841 H   0  0  0  0  0  0  0  0  0  0  0  0  # atno 10764 bound_to 10752
  152.9967  135.6250  154.2729 H   0  0  0  0  0  0  0  0  0  0  0  0  # atno 10765 bound_to 10752
  140.3894  134.6876  157.4498 H   0  0  0  0  0  0  0  0  0  0  0  0  # atno 11005 bound_to 11000
  145.4355  139.1543  143.3999 LP  0  0  0  0  0  0  0  0  0  0  0  0  # atno 17320 bound_to 7965
  146.2843  140.4473  142.8764 LP  0  0  0  0  0  0  0  0  0  0  0  0  # atno 17321 bound_to 7965
  140.5624  143.2190  151.7742 LP  0  0  0  0  0  0  0  0  0  0  0  0  # atno 17342 bound_to 10162
  139.4908  144.4330  151.9851 LP  0  0  0  0  0  0  0  0  0  0  0  0  # atno 17343 bound_to 10162
  156.2308  130.3682  149.8447 LP  0  0  0  0  0  0  0  0  0  0  0  0  # atno 17370 bound_to 10713
  156.6274  130.8652  151.3488 LP  0  0  0  0  0  0  0  0  0  0  0  0  # atno 17371 bound_to 10713
  140.0418  134.6256  155.8971 LP  0  0  0  0  0  0  0  0  0  0  0  0  # atno 17394 bound_to 11000
  141.1896  133.6566  156.5376 LP  0  0  0  0  0  0  0  0  0  0  0  0  # atno 17395 bound_to 11000

$$$$
