AV-unprocessed.smi:3|AV-procd|sdf|30|dock6
  -GOLD-   2262015143D 1   1.00000     0.00000
 Structure written by MMmdl.
 34 36  0  0  0  0  0  0  0  0  2 V2000
  149.9781  141.6498  157.2059 C   0  0  0  0  0  0  0  0  0  0  0  0
  151.1524  140.8764  156.8271 N   0  0  0  0  0  0  0  0  0  0  0  0
  152.3194  140.9357  157.7105 C   0  0  0  0  0  0  0  0  0  0  0  0
  151.9846  141.5299  159.0784 C   0  0  1  0  0  0  0  0  0  0  0  0
  153.0169  141.4907  160.2159 C   0  0  0  0  0  0  0  0  0  0  0  0
  152.5744  142.8948  160.6381 C   0  0  2  0  0  0  0  0  0  0  0  0
  151.6972  142.9876  161.7396 O   0  0  0  0  0  0  0  0  0  0  0  0
  151.9594  143.0559  159.2444 C   0  0  0  0  0  0  0  0  0  0  0  0
  151.0526  139.8898  155.8144 C   0  0  0  0  0  0  0  0  0  0  0  0
  152.1330  139.0836  155.6153 N   0  0  0  0  0  0  0  0  0  0  0  0
  152.1652  138.1138  154.6926 C   0  0  0  0  0  0  0  0  0  0  0  0
  151.1360  137.8574  153.8827 N   0  3  0  0  0  0  0  0  0  0  0  0
  150.0355  138.6352  154.0324 C   0  0  0  0  0  0  0  0  0  0  0  0
  148.8531  138.5784  153.3258 N   0  0  0  0  0  0  0  0  0  0  0  0
  147.9824  139.5491  153.7840 C   0  0  0  0  0  0  0  0  0  0  0  0
  148.5888  140.2499  154.7956 C   0  0  0  0  0  0  0  0  0  0  0  0
  149.9067  139.6859  154.9815 C   0  0  0  0  0  0  0  0  0  0  0  0
  151.0360  141.1409  159.4540 H   0  0  0  0  0  0  0  0  0  0  0  0
  153.4182  143.5677  160.7947 H   0  0  0  0  0  0  0  0  0  0  0  0
  148.6249  137.9372  152.5789 H   0  0  0  0  0  0  0  0  0  0  0  0
  149.6755  142.3085  156.3921 H   0  0  0  0  0  0  0  0  0  0  0  0
  150.1868  142.2775  158.0731 H   0  0  0  0  0  0  0  0  0  0  0  0
  149.1487  140.9929  157.4690 H   0  0  0  0  0  0  0  0  0  0  0  0
  152.7949  139.9607  157.8160 H   0  0  0  0  0  0  0  0  0  0  0  0
  153.0714  141.5560  157.2216 H   0  0  0  0  0  0  0  0  0  0  0  0
  152.8370  140.7083  160.9539 H   0  0  0  0  0  0  0  0  0  0  0  0
  154.0485  141.4747  159.8615 H   0  0  0  0  0  0  0  0  0  0  0  0
  152.0489  143.6457  162.3195 H   0  0  0  0  0  0  0  0  0  0  0  0
  152.6257  143.5718  158.5511 H   0  0  0  0  0  0  0  0  0  0  0  0
  150.9590  143.4903  159.2316 H   0  0  0  0  0  0  0  0  0  0  0  0
  153.0454  137.4986  154.5752 H   0  0  0  0  0  0  0  0  0  0  0  0
  146.9986  139.6643  153.3518 H   0  0  0  0  0  0  0  0  0  0  0  0
  148.1500  141.0690  155.3439 H   0  0  0  0  0  0  0  0  0  0  0  0
  151.1691  137.1172  153.1819 H   0  0  0  0  0  0  0  0  0  0  0  0
  1  2  1  0  0  0  0
  1 21  1  0  0  0  0
  1 22  1  0  0  0  0
  1 23  1  0  0  0  0
  2  3  1  0  0  0  0
  2  9  1  0  0  0  0
  3  4  1  0  0  0  0
  3 24  1  0  0  0  0
  3 25  1  0  0  0  0
  4 18  1  0  0  0  0
  4  8  1  0  0  0  0
  4  5  1  0  0  0  0
  5  6  1  0  0  0  0
  5 26  1  0  0  0  0
  5 27  1  0  0  0  0
  6 19  1  0  0  0  0
  6  7  1  0  0  0  0
  6  8  1  0  0  0  0
  7 28  1  0  0  0  0
  8 29  1  0  0  0  0
  8 30  1  0  0  0  0
  9 17  1  0  0  0  0
  9 10  2  0  0  0  0
 10 11  1  0  0  0  0
 11 12  2  0  0  0  0
 11 31  1  0  0  0  0
 12 13  1  0  0  0  0
 12 34  1  0  0  0  0
 13 17  2  0  0  0  0
 13 14  1  0  0  0  0
 14 20  1  0  0  0  0
 14 15  1  0  0  0  0
 15 16  2  0  0  0  0
 15 32  1  0  0  0  0
 16 17  1  0  0  0  0
 16 33  1  0  0  0  0
M  CHG  1  12   1
M  END
> <s_m_source_file>
AV-unprocessed.smi

> <i_m_source_file_index>
3

> <i_lp_mmshare_version>
43012

> <i_f3d_flags>
0

> <s_epik_input>
W25IXTFbY0hdW2NIXWMoYzEyKWMobltjSF1uMilOKFtDSDNdKVtDSDJdW0NASF0zW0NIMl1bQ0BASF0oW09IXSlbQ0gyXTM=

> <s_epik_cmdline>
J2VwaWtfcHl0aG9uJywgJy1waCcsICc3LjAnLCAnLXRuJywgJzgnLCAnLW1hJywgJzIwMCcsICctbWV0YWxfYmluZGluZycsICctaW1hZScsICc8aW5maWxlLm1hZT4nLCAnLW9tYWUnLCAnPG91dGZpbGUubWFlPic=

> <r_lp_tautomer_probability>
1.75997e-05

> <r_epik_Ionization_Penalty>
2.28439

> <r_epik_Ionization_Penalty_Charging>
2.28438

> <r_epik_Ionization_Penalty_Neutral>
1.03791e-05

> <r_epik_State_Penalty>
2.43392

> <r_epik_Charging_Adjusted_Penalty>
4.7183

> <i_epik_Tot_Q>
1

> <i_epik_Tot_abs_Q>
1

> <r_epik_Metal_State_Penalty>
2.4464

> <b_epik_Metal_Only>
0

> <s_lp_Force_Field>
OPLS_2005

> <r_lp_Energy>
18.3307

> <b_lp_Chiralities_Consistent>
1

> <s_lp_Variant>
AV-unprocessed.smi:3-4

> <Gold.Version>
5.8.1

> <Gold.Id.Protein>
6NUR|6NUR_protein|mol2

> <Gold.PLP.Fitness>
49.1237

> <Gold.PLP.PLP>
-36.4860

> <Gold.PLP.part.hbond>
-4.9345

> <Gold.PLP.part.metal>
0.0000

> <Gold.PLP.part.buried>
-4.7961

> <Gold.PLP.part.nonpolar>
-27.4900

> <Gold.PLP.part.repulsive>
0.1851

> <Gold.PLP.ligand.clash>
0.1059

> <Gold.PLP.ligand.torsion>
0.4424

> <Gold.PLP.Chemscore.Hbond>
4.4785

> <Gold.PLP.Chemscore.CHOScore>
0.0000

> <Gold.PLP.Chemscore.Metal>
0.0000

> <Gold.Chemscore.Hbonds>
donor molecule, donor type, donor heavy atom, donor atom, acceptor molecule, acceptor atom, score
      L1  H    12    34       P1  7949  1.98
      L1  H    14    20       P1  7948  1.79
      P1  H  6933  6945       L1     7  0.54

> <Gold.PLP.Chemscore.Internal.Correction>
0.1928

> <Gold.Rescore>
     Score         DG    S(hbond)    S(metal)    S(lipo)     H(rot)  DE(clash)    DE(int)     intcor
     15.37     -16.03       2.24        0.00      67.07       1.86       0.23       0.43       ----

> <Gold.Chemscore.Fitness>
15.3731

> <Gold.Chemscore.DG>
-16.0299

> <Gold.Chemscore.ZeroCoef>
-5.4800

> <Gold.Chemscore.Hbond>
2.2384

> <Gold.Chemscore.Metal>
0.0000

> <Gold.Chemscore.Lipo>
67.0656

> <Gold.Chemscore.Internal_Hbond>
0.0000

> <Gold.Chemscore.DEClash>
0.2306

> <Gold.Chemscore.DEInternal>
0.4261

> <Gold.Chemscore.Rot>
1.8645

> <Gold.Chemscore.Internal.Correction>
   9.000000E+99

> <Gold.Chemscore.Hbonds>
donor molecule, donor type, donor heavy atom, donor atom, acceptor molecule, acceptor atom, score
      L1  H    12    34       P1  7949  0.46
      L1  H    14    20       P1  7948  0.88
      P1  H  6933  6945       L1     7  0.53

> <Gold.Chemscore.Hbond.Weighted>
-7.4762

> <Gold.Chemscore.Metal.Weighted>
-0.0000

> <Gold.Chemscore.Lipo.Weighted>
-7.8467

> <Gold.Chemscore.Internal_Hbond.Weighted>
0.0000

> <Gold.Chemscore.DEClash.Weighted>
0.2306

> <Gold.Chemscore.DEInternal.Weighted>
0.4261

> <Gold.Chemscore.Rot.Weighted>
4.7730

> <Gold.Chemscore.Internal.Correction.Weighted>
   9.000000E+99

> <Gold.Protein.RotatedTorsions>
[ 6907 6896 6895 6894 ] final   39.68 input  -60.11 | X-H torsion
[ 7974 7965 7964 7962 ] final  174.69 input  175.53 | X-H torsion
[ 8008 7997 7996 7995 ] final -113.59 input   59.86 | X-H torsion
[ 10167 10162 10161 10158 ] final  -46.46 input  -65.29 | X-H torsion
[ 10718 10713 10712 10709 ] final   -8.02 input   66.30 | X-H torsion
[ 10763 10752 10751 10750 ] final  -99.76 input  -60.55 | X-H torsion
[ 11005 11000 10999 10996 ] final  -72.22 input  -57.11 | X-H torsion

> <Gold.Protein.ActiveResidues>
 VAL166  LYS551  ARG553  GLY616  TRP617  ASP618  TYR619  PRO620  LYS621  CYS622 
 ASP623  PHE694  ASN695  SER759  ASP760  ASP761  ALA762  ILE779  LEU786  VAL792 
 PHE793  MET794  SER795  GLU796  ALA797  LYS798  CYS799  TRP800  GLU811  SER814 

> <Gold.Protein.RotatedAtoms>
  152.1727  134.8821  160.0532 H   0  0  0  0  0  0  0  0  0  0  0  0  # atno 6907 bound_to 6896
  151.9774  133.3741  159.4102 H   0  0  0  0  0  0  0  0  0  0  0  0  # atno 6908 bound_to 6896
  150.6904  134.3998  159.5157 H   0  0  0  0  0  0  0  0  0  0  0  0  # atno 6909 bound_to 6896
  144.7216  139.9835  143.6439 H   0  0  0  0  0  0  0  0  0  0  0  0  # atno 7974 bound_to 7965
  155.0232  140.0393  157.2445 H   0  0  0  0  0  0  0  0  0  0  0  0  # atno 8008 bound_to 7997
  154.7360  140.2740  155.6391 H   0  0  0  0  0  0  0  0  0  0  0  0  # atno 8009 bound_to 7997
  156.2853  140.2675  156.2074 H   0  0  0  0  0  0  0  0  0  0  0  0  # atno 8010 bound_to 7997
  140.6816  143.2830  151.3786 H   0  0  0  0  0  0  0  0  0  0  0  0  # atno 10167 bound_to 10162
  156.7087  130.5115  149.5898 H   0  0  0  0  0  0  0  0  0  0  0  0  # atno 10718 bound_to 10713
  154.7524  135.4960  153.9314 H   0  0  0  0  0  0  0  0  0  0  0  0  # atno 10763 bound_to 10752
  153.1158  135.6720  153.9428 H   0  0  0  0  0  0  0  0  0  0  0  0  # atno 10764 bound_to 10752
  153.9174  135.3092  155.3427 H   0  0  0  0  0  0  0  0  0  0  0  0  # atno 10765 bound_to 10752
  141.1605  133.6840  156.7025 H   0  0  0  0  0  0  0  0  0  0  0  0  # atno 11005 bound_to 11000
  146.0468  139.3473  143.0663 LP  0  0  0  0  0  0  0  0  0  0  0  0  # atno 17320 bound_to 7965
  145.8265  140.9653  143.0871 LP  0  0  0  0  0  0  0  0  0  0  0  0  # atno 17321 bound_to 7965
  139.6143  144.1035  152.2330 LP  0  0  0  0  0  0  0  0  0  0  0  0  # atno 17342 bound_to 10162
  140.0459  144.5971  150.7374 LP  0  0  0  0  0  0  0  0  0  0  0  0  # atno 17343 bound_to 10162
  156.1677  130.6416  151.0798 LP  0  0  0  0  0  0  0  0  0  0  0  0  # atno 17370 bound_to 10713
  157.6945  131.0799  150.7011 LP  0  0  0  0  0  0  0  0  0  0  0  0  # atno 17371 bound_to 10713
  140.2948  134.8211  157.4047 LP  0  0  0  0  0  0  0  0  0  0  0  0  # atno 17394 bound_to 11000
  140.1314  134.5090  155.8102 LP  0  0  0  0  0  0  0  0  0  0  0  0  # atno 17395 bound_to 11000

$$$$
