AV-unprocessed.smi:2254|AV-procd|sdf|9123|dock4
  -GOLD-   2272012323D 1   1.00000     0.00000
 Structure written by MMmdl.
 41 42  0  0  0  0  0  0  0  0  1 V2000
  143.7496  144.4716  154.9171 C   0  0  0  0  0  0  0  0  0  0  0  0
  144.7824  143.3610  154.9936 C   0  0  0  0  0  0  0  0  0  0  0  0
  145.6175  143.2349  153.8796 N   0  0  0  0  0  0  0  0  0  0  0  0
  146.5184  142.3079  153.8507 C   0  0  0  0  0  0  0  0  0  0  0  0
  146.6867  141.4103  154.9171 N   0  0  0  0  0  0  0  0  0  0  0  0
  147.7429  140.3986  154.7570 C   0  0  0  0  0  0  0  0  0  0  0  0
  149.1432  141.0401  154.6184 C   0  0  2  0  0  0  0  0  0  0  0  0
  149.4752  141.1242  153.2471 O   0  0  0  0  0  0  0  0  0  0  0  0
  150.2356  140.2062  155.3046 C   0  0  0  0  0  0  0  0  0  0  0  0
  151.2554  141.0859  155.7466 O   0  0  0  0  0  0  0  0  0  0  0  0
  151.6953  140.8163  157.0669 C   0  0  0  0  0  0  0  0  0  0  0  0
  151.8181  142.0799  157.8987 C   0  0  0  0  0  0  0  0  0  0  0  0
  151.4403  143.3325  157.3669 C   0  0  0  0  0  0  0  0  0  0  0  0
  151.5731  144.5008  158.1423 C   0  0  0  0  0  0  0  0  0  0  0  0
  152.0899  144.4243  159.4502 C   0  0  0  0  0  0  0  0  0  0  0  0
  152.2538  145.8559  160.3993 Cl  0  0  0  0  0  0  0  0  0  0  0  0
  152.4762  143.1784  159.9815 C   0  0  0  0  0  0  0  0  0  0  0  0
  152.3431  142.0097  159.2063 C   0  0  0  0  0  0  0  0  0  0  0  0
  145.9303  141.4768  156.0510 C   0  0  0  0  0  0  0  0  0  0  0  0
  146.1062  140.7011  156.9927 O   0  0  0  0  0  0  0  0  0  0  0  0
  144.9036  142.5313  156.0659 C   0  0  0  0  0  0  0  0  0  0  0  0
  144.0212  142.6196  157.3049 C   0  0  0  0  0  0  0  0  0  0  0  0
  143.9066  145.1948  155.7176 H   0  0  0  0  0  0  0  0  0  0  0  0
  142.7424  144.0637  155.0071 H   0  0  0  0  0  0  0  0  0  0  0  0
  143.8094  145.0050  153.9676 H   0  0  0  0  0  0  0  0  0  0  0  0
  147.1976  142.1691  153.0078 H   0  0  0  0  0  0  0  0  0  0  0  0
  147.7200  139.7461  155.6320 H   0  0  0  0  0  0  0  0  0  0  0  0
  147.5422  139.7190  153.9258 H   0  0  0  0  0  0  0  0  0  0  0  0
  149.1611  142.0474  155.0371 H   0  0  0  0  0  0  0  0  0  0  0  0
  149.0603  140.4070  152.7927 H   0  0  0  0  0  0  0  0  0  0  0  0
  149.8230  139.6413  156.1424 H   0  0  0  0  0  0  0  0  0  0  0  0
  150.6607  139.4896  154.5996 H   0  0  0  0  0  0  0  0  0  0  0  0
  150.9948  140.1348  157.5526 H   0  0  0  0  0  0  0  0  0  0  0  0
  152.6684  140.3236  157.0425 H   0  0  0  0  0  0  0  0  0  0  0  0
  151.0468  143.4055  156.3636 H   0  0  0  0  0  0  0  0  0  0  0  0
  151.2794  145.4552  157.7307 H   0  0  0  0  0  0  0  0  0  0  0  0
  152.8760  143.1175  160.9830 H   0  0  0  0  0  0  0  0  0  0  0  0
  152.6448  141.0584  159.6196 H   0  0  0  0  0  0  0  0  0  0  0  0
  143.4487  141.6991  157.4236 H   0  0  0  0  0  0  0  0  0  0  0  0
  143.3133  143.4460  157.2711 H   0  0  0  0  0  0  0  0  0  0  0  0
  144.6355  142.7524  158.1960 H   0  0  0  0  0  0  0  0  0  0  0  0
  1  2  1  0  0  0  0
  1 23  1  0  0  0  0
  1 24  1  0  0  0  0
  1 25  1  0  0  0  0
  2 21  2  0  0  0  0
  2  3  1  0  0  0  0
  3  4  2  0  0  0  0
  4  5  1  0  0  0  0
  4 26  1  0  0  0  0
  5  6  1  0  0  0  0
  5 19  1  0  0  0  0
  6  7  1  0  0  0  0
  6 27  1  0  0  0  0
  6 28  1  0  0  0  0
  7  8  1  0  0  0  0
  7  9  1  0  0  0  0
  7 29  1  0  0  0  0
  8 30  1  0  0  0  0
  9 10  1  0  0  0  0
  9 31  1  0  0  0  0
  9 32  1  0  0  0  0
 10 11  1  0  0  0  0
 11 12  1  0  0  0  0
 11 33  1  0  0  0  0
 11 34  1  0  0  0  0
 12 18  1  0  0  0  0
 12 13  2  0  0  0  0
 13 14  1  0  0  0  0
 13 35  1  0  0  0  0
 14 15  2  0  0  0  0
 14 36  1  0  0  0  0
 15 16  1  0  0  0  0
 15 17  1  0  0  0  0
 17 18  2  0  0  0  0
 17 37  1  0  0  0  0
 18 38  1  0  0  0  0
 19 20  2  0  0  0  0
 19 21  1  0  0  0  0
 21 22  1  0  0  0  0
 22 39  1  0  0  0  0
 22 40  1  0  0  0  0
 22 41  1  0  0  0  0
M  END
> <s_m_source_file>
AV-unprocessed.smi

> <i_m_source_file_index>
2254

> <i_lp_mmshare_version>
43012

> <i_f3d_flags>
0

> <s_epik_input>
W0NIM11jMW5bY0hdbihjKD1PKWMxW0NIM10pW0NIMl1bQ0BIXShbT0hdKVtDSDJdT1tDSDJdYzJbY0hdW2NIXWMoQ2wpW2NIXVtjSF0y

> <s_epik_cmdline>
J2VwaWtfcHl0aG9uJywgJy1waCcsICc3LjAnLCAnLXRuJywgJzgnLCAnLW1hJywgJzIwMCcsICctbWV0YWxfYmluZGluZycsICctaW1hZScsICc8aW5maWxlLm1hZT4nLCAnLW9tYWUnLCAnPG91dGZpbGUubWFlPic=

> <r_lp_tautomer_probability>
1

> <r_epik_Ionization_Penalty>
5.36e-05

> <r_epik_Ionization_Penalty_Charging>
1.17753e-07

> <r_epik_Ionization_Penalty_Neutral>
5.34822e-05

> <r_epik_State_Penalty>
-0

> <r_epik_Charging_Adjusted_Penalty>
1.17753e-07

> <i_epik_Tot_Q>
0

> <i_epik_Tot_abs_Q>
0

> <r_epik_Metal_State_Penalty>
-0

> <b_epik_Metal_Only>
0

> <s_lp_Force_Field>
OPLS_2005

> <r_lp_Energy>
20.9698

> <b_lp_Chiralities_Consistent>
1

> <s_lp_Variant>
AV-unprocessed.smi:2254-1

> <Gold.Version>
5.8.1

> <Gold.Id.Protein>
6NUR|6NUR_protein|mol2

> <Gold.PLP.Fitness>
48.0469

> <Gold.PLP.PLP>
-46.7713

> <Gold.PLP.part.hbond>
-2.9330

> <Gold.PLP.part.metal>
0.0000

> <Gold.PLP.part.buried>
-7.8357

> <Gold.PLP.part.nonpolar>
-36.7821

> <Gold.PLP.part.repulsive>
0.2635

> <Gold.PLP.ligand.clash>
0.0000

> <Gold.PLP.ligand.torsion>
1.5460

> <Gold.PLP.Chemscore.Hbond>
1.4317

> <Gold.PLP.Chemscore.CHOScore>
0.0000

> <Gold.PLP.Chemscore.Metal>
0.0000

> <Gold.Chemscore.Hbonds>
donor molecule, donor type, donor heavy atom, donor atom, acceptor molecule, acceptor atom, score
      L1  H     8    30       P1  7957  0.35
      P1  H  7989  7998       L1     8  0.08
      P1  H  8011  8017       L1     8  1.00

> <Gold.PLP.Chemscore.Internal.Correction>
0.0726

> <Gold.Rescore>
     Score         DG    S(hbond)    S(metal)    S(lipo)     H(rot)  DE(clash)    DE(int)     intcor
     15.46     -17.24       1.38        0.00     116.10       2.52       0.11       1.66       ----

> <Gold.Chemscore.Fitness>
15.4599

> <Gold.Chemscore.DG>
-17.2361

> <Gold.Chemscore.ZeroCoef>
-5.4800

> <Gold.Chemscore.Hbond>
1.3815

> <Gold.Chemscore.Metal>
0.0000

> <Gold.Chemscore.Lipo>
116.0963

> <Gold.Chemscore.Internal_Hbond>
0.0000

> <Gold.Chemscore.DEClash>
0.1135

> <Gold.Chemscore.DEInternal>
1.6627

> <Gold.Chemscore.Rot>
2.5162

> <Gold.Chemscore.Internal.Correction>
   9.000000E+99

> <Gold.Chemscore.Hbonds>
donor molecule, donor type, donor heavy atom, donor atom, acceptor molecule, acceptor atom, score
      L1  H     8    30       P1  7957  0.36
      P1  H  7989  7998       L1     8  0.02
      P1  H  8011  8017       L1     8  0.89

> <Gold.Chemscore.Hbond.Weighted>
-4.6143

> <Gold.Chemscore.Metal.Weighted>
-0.0000

> <Gold.Chemscore.Lipo.Weighted>
-13.5833

> <Gold.Chemscore.Internal_Hbond.Weighted>
0.0000

> <Gold.Chemscore.DEClash.Weighted>
0.1135

> <Gold.Chemscore.DEInternal.Weighted>
1.6627

> <Gold.Chemscore.Rot.Weighted>
6.4414

> <Gold.Chemscore.Internal.Correction.Weighted>
   9.000000E+99

> <Gold.Protein.RotatedTorsions>
[ 6907 6896 6895 6894 ] final   80.25 input  -60.11 | X-H torsion
[ 7974 7965 7964 7962 ] final  -38.08 input  175.53 | X-H torsion
[ 8008 7997 7996 7995 ] final -121.76 input   59.86 | X-H torsion
[ 10167 10162 10161 10158 ] final  -67.45 input  -65.29 | X-H torsion
[ 10718 10713 10712 10709 ] final   25.31 input   66.30 | X-H torsion
[ 10763 10752 10751 10750 ] final -165.96 input  -60.55 | X-H torsion
[ 11005 11000 10999 10996 ] final  139.81 input  -57.11 | X-H torsion

> <Gold.Protein.ActiveResidues>
 VAL166  LYS551  ARG553  GLY616  TRP617  ASP618  TYR619  PRO620  LYS621  CYS622 
 ASP623  PHE694  ASN695  SER759  ASP760  ASP761  ALA762  ILE779  LEU786  VAL792 
 PHE793  MET794  SER795  GLU796  ALA797  LYS798  CYS799  TRP800  GLU811  SER814 

> <Gold.Protein.RotatedAtoms>
  152.5228  134.3386  159.9208 H   0  0  0  0  0  0  0  0  0  0  0  0  # atno 6907 bound_to 6896
  151.3335  133.3984  159.2672 H   0  0  0  0  0  0  0  0  0  0  0  0  # atno 6908 bound_to 6896
  150.9861  134.9224  159.7930 H   0  0  0  0  0  0  0  0  0  0  0  0  # atno 6909 bound_to 6896
  146.0518  140.6470  142.9038 H   0  0  0  0  0  0  0  0  0  0  0  0  # atno 7974 bound_to 7965
  155.1533  140.0404  157.2826 H   0  0  0  0  0  0  0  0  0  0  0  0  # atno 8008 bound_to 7997
  154.6388  140.2542  155.7319 H   0  0  0  0  0  0  0  0  0  0  0  0  # atno 8009 bound_to 7997
  156.2522  140.2860  156.0773 H   0  0  0  0  0  0  0  0  0  0  0  0  # atno 8010 bound_to 7997
  140.5582  143.2312  151.6779 H   0  0  0  0  0  0  0  0  0  0  0  0  # atno 10167 bound_to 10162
  157.1916  130.6849  149.6152 H   0  0  0  0  0  0  0  0  0  0  0  0  # atno 10718 bound_to 10713
  154.6880  135.2966  154.9520 H   0  0  0  0  0  0  0  0  0  0  0  0  # atno 10763 bound_to 10752
  154.0493  135.6647  153.4802 H   0  0  0  0  0  0  0  0  0  0  0  0  # atno 10764 bound_to 10752
  153.0592  135.5126  154.7957 H   0  0  0  0  0  0  0  0  0  0  0  0  # atno 10765 bound_to 10752
  140.0282  134.9365  157.0610 H   0  0  0  0  0  0  0  0  0  0  0  0  # atno 11005 bound_to 11000
  144.7127  140.4097  143.7068 LP  0  0  0  0  0  0  0  0  0  0  0  0  # atno 17320 bound_to 7965
  145.6711  139.1599  143.2754 LP  0  0  0  0  0  0  0  0  0  0  0  0  # atno 17321 bound_to 7965
  139.5058  144.3705  152.0474 LP  0  0  0  0  0  0  0  0  0  0  0  0  # atno 17342 bound_to 10162
  140.2829  144.3839  150.6113 LP  0  0  0  0  0  0  0  0  0  0  0  0  # atno 17343 bound_to 10162
  155.9711  130.4612  150.6103 LP  0  0  0  0  0  0  0  0  0  0  0  0  # atno 17370 bound_to 10713
  157.3855  131.0787  151.1440 LP  0  0  0  0  0  0  0  0  0  0  0  0  # atno 17371 bound_to 10713
  140.4271  134.1820  155.7166 LP  0  0  0  0  0  0  0  0  0  0  0  0  # atno 17394 bound_to 11000
  141.1815  133.8403  157.1240 LP  0  0  0  0  0  0  0  0  0  0  0  0  # atno 17395 bound_to 11000

$$$$
