AV-unprocessed.smi:1285|AV-procd|sdf|5370|dock1
  -GOLD-   22720 4513D 1   1.00000     0.00000
 Structure written by MMmdl.
 46 47  0  0  0  0  0  0  0  0  1 V2000
  151.2785  138.4273  155.3621 C   0  0  0  0  0  0  0  0  0  0  0  0
  151.6079  139.8342  155.8944 C   0  0  0  0  0  0  0  0  0  0  0  0
  151.1826  140.1144  157.3711 C   0  0  2  0  0  0  0  0  0  0  0  0
  151.8224  138.9906  158.2303 C   0  0  0  0  0  0  0  0  0  0  0  0
  149.6264  139.9929  157.4637 C   0  0  0  0  0  0  0  0  0  0  0  0
  149.1470  138.6296  157.6906 N   0  0  0  0  0  0  0  0  0  0  0  0
  147.8902  138.2821  158.0117 C   0  0  0  0  0  0  0  0  0  0  0  0
  146.9824  139.0996  158.1673 O   0  0  0  0  0  0  0  0  0  0  0  0
  147.6233  136.7791  158.1817 C   0  0  1  0  0  0  0  0  0  0  0  0
  148.8336  135.9177  157.7668 C   0  0  0  0  0  0  0  0  0  0  0  0
  147.1809  136.5011  159.5429 N   0  0  0  0  0  0  0  0  0  0  0  0
  146.7950  135.3505  160.0994 C   0  0  0  0  0  0  0  0  0  0  0  0
  146.4017  135.4657  161.3600 N   0  0  0  0  0  0  0  0  0  0  0  0
  146.5684  136.8110  161.5282 C   0  0  0  0  0  0  0  0  0  0  0  0
  147.0216  137.4803  160.4684 N   0  0  0  0  0  0  0  0  0  0  0  0
  151.6652  141.4501  157.8241 N   0  0  0  0  0  0  0  0  0  0  0  0
  151.4595  141.7400  159.2487 C   0  0  0  0  0  0  0  0  0  0  0  0
  152.1117  143.0687  159.6667 C   0  0  0  0  0  0  0  0  0  0  0  0
  151.6048  144.1265  158.8621 O   0  0  0  0  0  0  0  0  0  0  0  0
  151.8338  143.9120  157.4746 C   0  0  0  0  0  0  0  0  0  0  0  0
  151.1763  142.5911  157.0404 C   0  0  0  0  0  0  0  0  0  0  0  0
  151.6198  138.3202  154.3323 H   0  0  0  0  0  0  0  0  0  0  0  0
  150.2065  138.2327  155.3684 H   0  0  0  0  0  0  0  0  0  0  0  0
  151.7651  137.6469  155.9472 H   0  0  0  0  0  0  0  0  0  0  0  0
  152.6750  140.0162  155.7674 H   0  0  0  0  0  0  0  0  0  0  0  0
  151.1303  140.5524  155.2270 H   0  0  0  0  0  0  0  0  0  0  0  0
  151.6913  138.0056  157.7811 H   0  0  0  0  0  0  0  0  0  0  0  0
  151.3798  138.9357  159.2251 H   0  0  0  0  0  0  0  0  0  0  0  0
  152.8942  139.1423  158.3599 H   0  0  0  0  0  0  0  0  0  0  0  0
  149.2261  140.6519  158.2341 H   0  0  0  0  0  0  0  0  0  0  0  0
  149.1652  140.3189  156.5320 H   0  0  0  0  0  0  0  0  0  0  0  0
  149.8277  137.8909  157.5891 H   0  0  0  0  0  0  0  0  0  0  0  0
  146.7986  136.5123  157.5182 H   0  0  0  0  0  0  0  0  0  0  0  0
  149.1167  136.1121  156.7317 H   0  0  0  0  0  0  0  0  0  0  0  0
  148.5992  134.8558  157.8461 H   0  0  0  0  0  0  0  0  0  0  0  0
  149.7093  136.1093  158.3882 H   0  0  0  0  0  0  0  0  0  0  0  0
  146.7974  134.4093  159.5695 H   0  0  0  0  0  0  0  0  0  0  0  0
  146.3423  137.3131  162.4573 H   0  0  0  0  0  0  0  0  0  0  0  0
  150.3948  141.7890  159.4765 H   0  0  0  0  0  0  0  0  0  0  0  0
  151.8806  140.9537  159.8725 H   0  0  0  0  0  0  0  0  0  0  0  0
  151.8964  143.2832  160.7135 H   0  0  0  0  0  0  0  0  0  0  0  0
  153.1970  143.0137  159.5677 H   0  0  0  0  0  0  0  0  0  0  0  0
  151.4149  144.7465  156.9121 H   0  0  0  0  0  0  0  0  0  0  0  0
  152.9060  143.8948  157.2723 H   0  0  0  0  0  0  0  0  0  0  0  0
  151.3762  142.4524  155.9796 H   0  0  0  0  0  0  0  0  0  0  0  0
  150.0962  142.6894  157.1491 H   0  0  0  0  0  0  0  0  0  0  0  0
  1  2  1  0  0  0  0
  1 22  1  0  0  0  0
  1 23  1  0  0  0  0
  1 24  1  0  0  0  0
  2  3  1  0  0  0  0
  2 25  1  0  0  0  0
  2 26  1  0  0  0  0
  3  4  1  0  0  0  0
  3  5  1  0  0  0  0
  3 16  1  0  0  0  0
  4 27  1  0  0  0  0
  4 28  1  0  0  0  0
  4 29  1  0  0  0  0
  5  6  1  0  0  0  0
  5 30  1  0  0  0  0
  5 31  1  0  0  0  0
  6  7  1  0  0  0  0
  6 32  1  0  0  0  0
  7  8  2  0  0  0  0
  7  9  1  0  0  0  0
  9 10  1  0  0  0  0
  9 11  1  0  0  0  0
  9 33  1  0  0  0  0
 10 34  1  0  0  0  0
 10 35  1  0  0  0  0
 10 36  1  0  0  0  0
 11 15  1  0  0  0  0
 11 12  1  0  0  0  0
 12 13  2  0  0  0  0
 12 37  1  0  0  0  0
 13 14  1  0  0  0  0
 14 15  2  0  0  0  0
 14 38  1  0  0  0  0
 16 21  1  0  0  0  0
 16 17  1  0  0  0  0
 17 18  1  0  0  0  0
 17 39  1  0  0  0  0
 17 40  1  0  0  0  0
 18 19  1  0  0  0  0
 18 41  1  0  0  0  0
 18 42  1  0  0  0  0
 19 20  1  0  0  0  0
 20 21  1  0  0  0  0
 20 43  1  0  0  0  0
 20 44  1  0  0  0  0
 21 45  1  0  0  0  0
 21 46  1  0  0  0  0
M  END
> <s_m_source_file>
AV-unprocessed.smi

> <i_m_source_file_index>
1285

> <i_lp_mmshare_version>
43012

> <i_f3d_flags>
0

> <s_epik_input>
W0NIMl0xW0NIMl1PW0NIMl1bQ0gyXU4xW0NAQF0oW0NIM10pKFtDSDJdW0NIM10pW0NIMl1bTkhdQyg9TylbQ0BIXShbQ0gzXSluMltjSF1uW2NIXW4y

> <s_epik_cmdline>
J2VwaWtfcHl0aG9uJywgJy1waCcsICc3LjAnLCAnLXRuJywgJzgnLCAnLW1hJywgJzIwMCcsICctbWV0YWxfYmluZGluZycsICctaW1hZScsICc8aW5maWxlLm1hZT4nLCAnLW9tYWUnLCAnPG91dGZpbGUubWFlPic=

> <r_lp_tautomer_probability>
1

> <r_epik_Ionization_Penalty>
0.285697

> <r_epik_Ionization_Penalty_Charging>
0

> <r_epik_Ionization_Penalty_Neutral>
0.285697

> <r_epik_State_Penalty>
0.278478

> <r_epik_Charging_Adjusted_Penalty>
0.278478

> <i_epik_Tot_Q>
0

> <i_epik_Tot_abs_Q>
0

> <r_epik_Metal_State_Penalty>
0.278477

> <b_epik_Metal_Only>
0

> <s_lp_Force_Field>
OPLS_2005

> <r_lp_Energy>
49.308

> <b_lp_Chiralities_Consistent>
1

> <s_lp_Variant>
AV-unprocessed.smi:1285-4

> <Gold.Version>
5.8.1

> <Gold.Id.Protein>
6NUR|6NUR_protein|mol2

> <Gold.PLP.Fitness>
36.7538

> <Gold.PLP.PLP>
-33.7515

> <Gold.PLP.part.hbond>
-2.9028

> <Gold.PLP.part.metal>
0.0000

> <Gold.PLP.part.buried>
-6.1744

> <Gold.PLP.part.nonpolar>
-27.2018

> <Gold.PLP.part.repulsive>
0.1773

> <Gold.PLP.ligand.clash>
0.6873

> <Gold.PLP.ligand.torsion>
0.7189

> <Gold.PLP.Chemscore.Hbond>
1.5840

> <Gold.PLP.Chemscore.CHOScore>
0.0000

> <Gold.PLP.Chemscore.Metal>
0.0000

> <Gold.Chemscore.Hbonds>
donor molecule, donor type, donor heavy atom, donor atom, acceptor molecule, acceptor atom, score
      P1  H  6934  6947       L1    15  1.00

> <Gold.PLP.Chemscore.Internal.Correction>
0.3753

> <Gold.Rescore>
     Score         DG    S(hbond)    S(metal)    S(lipo)     H(rot)  DE(clash)    DE(int)     intcor
      8.58     -11.48       1.43        0.00      69.20       2.68       0.48       2.42       ----

> <Gold.Chemscore.Fitness>
8.5825

> <Gold.Chemscore.DG>
-11.4797

> <Gold.Chemscore.ZeroCoef>
-5.4800

> <Gold.Chemscore.Hbond>
1.4278

> <Gold.Chemscore.Metal>
0.0000

> <Gold.Chemscore.Lipo>
69.2038

> <Gold.Chemscore.Internal_Hbond>
0.0000

> <Gold.Chemscore.DEClash>
0.4766

> <Gold.Chemscore.DEInternal>
2.4206

> <Gold.Chemscore.Rot>
2.6821

> <Gold.Chemscore.Internal.Correction>
   9.000000E+99

> <Gold.Chemscore.Hbonds>
donor molecule, donor type, donor heavy atom, donor atom, acceptor molecule, acceptor atom, score
      P1  H  6934  6947       L1    15  0.60

> <Gold.Chemscore.Hbond.Weighted>
-4.7690

> <Gold.Chemscore.Metal.Weighted>
-0.0000

> <Gold.Chemscore.Lipo.Weighted>
-8.0968

> <Gold.Chemscore.Internal_Hbond.Weighted>
0.0000

> <Gold.Chemscore.DEClash.Weighted>
0.4766

> <Gold.Chemscore.DEInternal.Weighted>
2.4206

> <Gold.Chemscore.Rot.Weighted>
6.8661

> <Gold.Chemscore.Internal.Correction.Weighted>
   9.000000E+99

> <Gold.Protein.RotatedTorsions>
[ 6907 6896 6895 6894 ] final  -90.49 input  -60.11 | X-H torsion
[ 7974 7965 7964 7962 ] final  155.79 input  175.53 | X-H torsion
[ 8008 7997 7996 7995 ] final -152.87 input   59.86 | X-H torsion
[ 10167 10162 10161 10158 ] final  163.07 input  -65.29 | X-H torsion
[ 10718 10713 10712 10709 ] final   76.88 input   66.30 | X-H torsion
[ 10763 10752 10751 10750 ] final -176.73 input  -60.55 | X-H torsion
[ 11005 11000 10999 10996 ] final   70.09 input  -57.11 | X-H torsion

> <Gold.Protein.ActiveResidues>
 VAL166  LYS551  ARG553  GLY616  TRP617  ASP618  TYR619  PRO620  LYS621  CYS622 
 ASP623  PHE694  ASN695  SER759  ASP760  ASP761  ALA762  ILE779  LEU786  VAL792 
 PHE793  MET794  SER795  GLU796  ALA797  LYS798  CYS799  TRP800  GLU811  SER814 

> <Gold.Protein.RotatedAtoms>
  150.6882  134.2423  159.4477 H   0  0  0  0  0  0  0  0  0  0  0  0  # atno 6907 bound_to 6896
  152.0367  134.9733  160.0582 H   0  0  0  0  0  0  0  0  0  0  0  0  # atno 6908 bound_to 6896
  152.1251  133.4341  159.4731 H   0  0  0  0  0  0  0  0  0  0  0  0  # atno 6909 bound_to 6896
  144.8003  139.7116  143.6185 H   0  0  0  0  0  0  0  0  0  0  0  0  # atno 7974 bound_to 7965
  155.6620  140.0723  157.2551 H   0  0  0  0  0  0  0  0  0  0  0  0  # atno 8008 bound_to 7997
  154.4140  140.1714  156.1837 H   0  0  0  0  0  0  0  0  0  0  0  0  # atno 8009 bound_to 7997
  155.9689  140.3363  155.6561 H   0  0  0  0  0  0  0  0  0  0  0  0  # atno 8010 bound_to 7997
  139.4869  144.4374  151.8994 H   0  0  0  0  0  0  0  0  0  0  0  0  # atno 10167 bound_to 10162
  157.6690  130.9795  150.1561 H   0  0  0  0  0  0  0  0  0  0  0  0  # atno 10718 bound_to 10713
  154.5687  135.2826  155.0848 H   0  0  0  0  0  0  0  0  0  0  0  0  # atno 10763 bound_to 10752
  154.2229  135.6388  153.5154 H   0  0  0  0  0  0  0  0  0  0  0  0  # atno 10764 bound_to 10752
  153.0051  135.5518  154.6304 H   0  0  0  0  0  0  0  0  0  0  0  0  # atno 10765 bound_to 10752
  139.9617  134.7050  156.0632 H   0  0  0  0  0  0  0  0  0  0  0  0  # atno 11005 bound_to 11000
  146.2282  139.5763  142.9573 LP  0  0  0  0  0  0  0  0  0  0  0  0  # atno 17320 bound_to 7965
  145.5570  141.0408  143.2247 LP  0  0  0  0  0  0  0  0  0  0  0  0  # atno 17321 bound_to 7965
  140.3824  144.2719  150.5907 LP  0  0  0  0  0  0  0  0  0  0  0  0  # atno 17342 bound_to 10162
  140.5221  143.2263  151.8373 LP  0  0  0  0  0  0  0  0  0  0  0  0  # atno 17343 bound_to 10162
  156.2349  130.3685  149.8403 LP  0  0  0  0  0  0  0  0  0  0  0  0  # atno 17370 bound_to 10713
  156.6219  130.8630  151.3477 LP  0  0  0  0  0  0  0  0  0  0  0  0  # atno 17371 bound_to 10713
  141.1294  133.6590  156.3424 LP  0  0  0  0  0  0  0  0  0  0  0  0  # atno 17394 bound_to 11000
  140.5486  134.6050  157.5401 LP  0  0  0  0  0  0  0  0  0  0  0  0  # atno 17395 bound_to 11000

$$$$
