AV-unprocessed.smi:386|AV-procd|sdf|2473|dock3
  -GOLD-   2262022413D 1   1.00000     0.00000
 Structure written by MMmdl.
 27 28  0  0  0  0  0  0  0  0  1 V2000
  150.1112  140.4487  154.6142 N   0  0  0  0  0  0  0  0  0  0  0  0
  150.6049  140.8233  155.5918 C   0  0  0  0  0  0  0  0  0  0  0  0
  151.2205  141.3108  156.7813 C   0  0  0  0  0  0  0  0  0  0  0  0
  151.2298  142.6236  157.0905 C   0  0  0  0  0  0  0  0  0  0  0  0
  151.8131  143.1108  158.2398 N   0  0  0  0  0  0  0  0  0  0  0  0
  151.9514  144.5216  158.4690 C   0  0  0  0  0  0  0  0  0  0  0  0
  151.8177  145.0876  159.8694 C   0  0  0  0  0  0  0  0  0  0  0  0
  150.7286  145.3262  158.8522 C   0  0  0  0  0  0  0  0  0  0  0  0
  152.5030  142.2384  159.1098 C   0  0  0  0  0  0  0  0  0  0  0  0
  153.1157  142.6679  160.0906 O   0  0  0  0  0  0  0  0  0  0  0  0
  152.4813  140.8537  158.8143 N   0  0  0  0  0  0  0  0  0  0  0  0
  153.1840  139.9231  159.7254 C   0  0  0  0  0  0  0  0  0  0  0  0
  154.6719  140.2568  159.9176 C   0  0  0  0  0  0  0  0  0  0  0  0
  155.0094  140.8161  161.0816 N   0  0  0  0  0  0  0  0  0  0  0  0
  155.5037  140.0206  159.0425 O   0  0  0  0  0  0  0  0  0  0  0  0
  151.8520  140.3267  157.6575 C   0  0  0  0  0  0  0  0  0  0  0  0
  151.8626  139.1167  157.4240 O   0  0  0  0  0  0  0  0  0  0  0  0
  150.7582  143.3227  156.4147 H   0  0  0  0  0  0  0  0  0  0  0  0
  152.6667  145.0272  157.8226 H   0  0  0  0  0  0  0  0  0  0  0  0
  151.5938  144.4014  160.6842 H   0  0  0  0  0  0  0  0  0  0  0  0
  152.4556  145.9290  160.1320 H   0  0  0  0  0  0  0  0  0  0  0  0
  150.6379  146.3287  158.4394 H   0  0  0  0  0  0  0  0  0  0  0  0
  149.7895  144.7952  158.9955 H   0  0  0  0  0  0  0  0  0  0  0  0
  152.7054  139.9024  160.7058 H   0  0  0  0  0  0  0  0  0  0  0  0
  153.1015  138.8945  159.3709 H   0  0  0  0  0  0  0  0  0  0  0  0
  155.9721  141.0590  161.2653 H   0  0  0  0  0  0  0  0  0  0  0  0
  154.2980  140.9957  161.7754 H   0  0  0  0  0  0  0  0  0  0  0  0
  1  2  3  0  0  0  0
  2  3  1  0  0  0  0
  3 16  1  0  0  0  0
  3  4  2  0  0  0  0
  4  5  1  0  0  0  0
  4 18  1  0  0  0  0
  5  6  1  0  0  0  0
  5  9  1  0  0  0  0
  6  8  1  0  0  0  0
  6  7  1  0  0  0  0
  6 19  1  0  0  0  0
  7  8  1  0  0  0  0
  7 20  1  0  0  0  0
  7 21  1  0  0  0  0
  8 22  1  0  0  0  0
  8 23  1  0  0  0  0
  9 10  2  0  0  0  0
  9 11  1  0  0  0  0
 11 12  1  0  0  0  0
 11 16  1  0  0  0  0
 12 13  1  0  0  0  0
 12 24  1  0  0  0  0
 12 25  1  0  0  0  0
 13 14  1  0  0  0  0
 13 15  2  0  0  0  0
 14 26  1  0  0  0  0
 14 27  1  0  0  0  0
 16 17  2  0  0  0  0
M  END
> <s_m_source_file>
AV-unprocessed.smi

> <i_m_source_file_index>
386

> <i_lp_mmshare_version>
43012

> <i_f3d_flags>
0

> <s_epik_input>
TiNDYzFbY0hdbihbQ0hdMltDSDJdW0NIMl0yKWMoPU8pbihjMT1PKVtDSDJdQyg9TylbTkgyXQ==

> <s_epik_cmdline>
J2VwaWtfcHl0aG9uJywgJy1waCcsICc3LjAnLCAnLXRuJywgJzgnLCAnLW1hJywgJzIwMCcsICctbWV0YWxfYmluZGluZycsICctaW1hZScsICc8aW5maWxlLm1hZT4nLCAnLW9tYWUnLCAnPG91dGZpbGUubWFlPic=

> <r_lp_tautomer_probability>
1

> <r_epik_Ionization_Penalty>
3.46323e-08

> <r_epik_Ionization_Penalty_Charging>
7.2855e-11

> <r_epik_Ionization_Penalty_Neutral>
3.45594e-08

> <r_epik_State_Penalty>
-0

> <r_epik_Charging_Adjusted_Penalty>
7.2855e-11

> <i_epik_Tot_Q>
0

> <i_epik_Tot_abs_Q>
0

> <r_epik_Metal_State_Penalty>
-0

> <b_epik_Metal_Only>
0

> <s_lp_Force_Field>
OPLS_2005

> <r_lp_Energy>
26.3068

> <b_lp_Chiralities_Consistent>
1

> <s_lp_Variant>
AV-unprocessed.smi:386-1

> <Gold.Version>
5.8.1

> <Gold.Id.Protein>
6NUR|6NUR_protein|mol2

> <Gold.PLP.Fitness>
45.5877

> <Gold.PLP.PLP>
-37.7656

> <Gold.PLP.part.hbond>
-2.6645

> <Gold.PLP.part.metal>
0.0000

> <Gold.PLP.part.buried>
-5.5287

> <Gold.PLP.part.nonpolar>
-29.2609

> <Gold.PLP.part.repulsive>
0.1053

> <Gold.PLP.ligand.clash>
0.0000

> <Gold.PLP.ligand.torsion>
0.5425

> <Gold.PLP.Chemscore.Hbond>
1.9440

> <Gold.PLP.Chemscore.CHOScore>
0.9552

> <Gold.PLP.Chemscore.Metal>
0.0000

> <Gold.Chemscore.Hbonds>
donor molecule, donor type, donor heavy atom, donor atom, acceptor molecule, acceptor atom, score
      P1  H  7989  7998       L1     1  0.71
      P1  H  7997  8009       L1    15  1.00
      L1  C     4    18       P1  8028  1.00

> <Gold.PLP.Chemscore.Internal.Correction>
0.2094

> <Gold.Rescore>
     Score         DG    S(hbond)    S(metal)    S(lipo)     H(rot)  DE(clash)    DE(int)     intcor
     10.47     -10.93       1.07        0.00      60.48       2.03       0.10       0.36       ----

> <Gold.Chemscore.Fitness>
10.4702

> <Gold.Chemscore.DG>
-10.9306

> <Gold.Chemscore.ZeroCoef>
-5.4800

> <Gold.Chemscore.Hbond>
1.0703

> <Gold.Chemscore.Metal>
0.0000

> <Gold.Chemscore.Lipo>
60.4773

> <Gold.Chemscore.Internal_Hbond>
0.0000

> <Gold.Chemscore.DEClash>
0.0997

> <Gold.Chemscore.DEInternal>
0.3607

> <Gold.Chemscore.Rot>
2.0313

> <Gold.Chemscore.Internal.Correction>
   9.000000E+99

> <Gold.Chemscore.Hbonds>
donor molecule, donor type, donor heavy atom, donor atom, acceptor molecule, acceptor atom, score
      P1  H  7989  7998       L1     1  0.08
      P1  H  7997  8009       L1    15  0.97

> <Gold.Chemscore.Hbond.Weighted>
-3.5749

> <Gold.Chemscore.Metal.Weighted>
-0.0000

> <Gold.Chemscore.Lipo.Weighted>
-7.0758

> <Gold.Chemscore.Internal_Hbond.Weighted>
0.0000

> <Gold.Chemscore.DEClash.Weighted>
0.0997

> <Gold.Chemscore.DEInternal.Weighted>
0.3607

> <Gold.Chemscore.Rot.Weighted>
5.2001

> <Gold.Chemscore.Internal.Correction.Weighted>
   9.000000E+99

> <Gold.Protein.RotatedTorsions>
[ 6907 6896 6895 6894 ] final  102.47 input  -60.11 | X-H torsion
[ 7974 7965 7964 7962 ] final   25.04 input  175.53 | X-H torsion
[ 8008 7997 7996 7995 ] final  103.02 input   59.86 | X-H torsion
[ 10167 10162 10161 10158 ] final   47.90 input  -65.29 | X-H torsion
[ 10718 10713 10712 10709 ] final   61.32 input   66.30 | X-H torsion
[ 10763 10752 10751 10750 ] final   14.08 input  -60.55 | X-H torsion
[ 11005 11000 10999 10996 ] final  -30.71 input  -57.11 | X-H torsion

> <Gold.Protein.ActiveResidues>
 VAL166  LYS551  ARG553  GLY616  TRP617  ASP618  TYR619  PRO620  LYS621  CYS622 
 ASP623  PHE694  ASN695  SER759  ASP760  ASP761  ALA762  ILE779  LEU786  VAL792 
 PHE793  MET794  SER795  GLU796  ALA797  LYS798  CYS799  TRP800  GLU811  SER814 

> <Gold.Protein.RotatedAtoms>
  152.5323  133.9971  159.7877 H   0  0  0  0  0  0  0  0  0  0  0  0  # atno 6907 bound_to 6896
  151.0197  133.5880  159.2680 H   0  0  0  0  0  0  0  0  0  0  0  0  # atno 6908 bound_to 6896
  151.2925  135.0752  159.9263 H   0  0  0  0  0  0  0  0  0  0  0  0  # atno 6909 bound_to 6896
  146.1908  139.7521  142.8833 H   0  0  0  0  0  0  0  0  0  0  0  0  # atno 7974 bound_to 7965
  156.1446  140.3172  155.8549 H   0  0  0  0  0  0  0  0  0  0  0  0  # atno 8008 bound_to 7997
  155.4089  140.0504  157.3050 H   0  0  0  0  0  0  0  0  0  0  0  0  # atno 8009 bound_to 7997
  154.5005  140.2127  155.9369 H   0  0  0  0  0  0  0  0  0  0  0  0  # atno 8010 bound_to 7997
  140.2989  144.2958  150.6223 H   0  0  0  0  0  0  0  0  0  0  0  0  # atno 10167 bound_to 10162
  157.5819  130.8988  149.9446 H   0  0  0  0  0  0  0  0  0  0  0  0  # atno 10718 bound_to 10713
  153.1657  135.6804  153.8678 H   0  0  0  0  0  0  0  0  0  0  0  0  # atno 10763 bound_to 10752
  153.8059  135.3149  155.3396 H   0  0  0  0  0  0  0  0  0  0  0  0  # atno 10764 bound_to 10752
  154.7964  135.4804  154.0261 H   0  0  0  0  0  0  0  0  0  0  0  0  # atno 10765 bound_to 10752
  140.9406  133.7281  156.1070 H   0  0  0  0  0  0  0  0  0  0  0  0  # atno 11005 bound_to 11000
  145.3798  141.0356  143.3184 LP  0  0  0  0  0  0  0  0  0  0  0  0  # atno 17320 bound_to 7965
  144.8483  139.5361  143.6868 LP  0  0  0  0  0  0  0  0  0  0  0  0  # atno 17321 bound_to 7965
  140.5668  143.2185  151.7669 LP  0  0  0  0  0  0  0  0  0  0  0  0  # atno 17342 bound_to 10162
  139.4920  144.4272  151.9913 LP  0  0  0  0  0  0  0  0  0  0  0  0  # atno 17343 bound_to 10162
  156.0865  130.3667  150.0477 LP  0  0  0  0  0  0  0  0  0  0  0  0  # atno 17370 bound_to 10713
  156.8615  130.9493  151.3617 LP  0  0  0  0  0  0  0  0  0  0  0  0  # atno 17371 bound_to 10713
  140.7739  134.3801  157.5502 LP  0  0  0  0  0  0  0  0  0  0  0  0  # atno 17394 bound_to 11000
  139.8819  134.9039  156.2866 LP  0  0  0  0  0  0  0  0  0  0  0  0  # atno 17395 bound_to 11000

$$$$
