AV-unprocessed.smi:2271|AV-procd|sdf|9161|dock2
  -GOLD-   2272012373D 1   1.00000     0.00000
 Structure written by MMmdl.
 46 47  0  0  0  0  0  0  0  0  2 V2000
  153.5506  141.1750  160.1805 C   0  0  0  0  0  0  0  0  0  0  0  0
  152.7684  142.3314  159.5943 C   0  0  0  0  0  0  0  0  0  0  0  0
  152.8812  143.6290  160.1306 C   0  0  0  0  0  0  0  0  0  0  0  0
  152.1292  144.6589  159.5377 C   0  0  0  0  0  0  0  0  0  0  0  0
  151.3018  144.3514  158.4406 C   0  0  0  0  0  0  0  0  0  0  0  0
  151.2453  143.0224  157.9638 C   0  0  0  0  0  0  0  0  0  0  0  0
  150.3843  142.8162  156.8531 N   0  0  0  0  0  0  0  0  0  0  0  0
  150.1358  141.6684  156.1984 C   0  0  0  0  0  0  0  0  0  0  0  0
  150.6108  140.5684  156.4832 O   0  0  0  0  0  0  0  0  0  0  0  0
  149.2979  141.8663  155.1694 N   0  0  0  0  0  0  0  0  0  0  0  0
  148.8241  140.8324  154.2531 C   0  0  0  0  0  0  0  0  0  0  0  0
  147.4772  141.2022  153.5865 C   0  0  2  0  0  0  0  0  0  0  0  0
  146.3082  141.1679  154.5885 C   0  0  0  0  0  0  0  0  0  0  0  0
  145.8988  139.7303  154.9606 C   0  0  0  0  0  0  0  0  0  0  0  0
  145.5700  138.9282  153.7538 N   0  3  2  0  0  0  0  0  0  0  0  0
  145.0626  137.5760  154.1015 C   0  0  0  0  0  0  0  0  0  0  0  0
  144.4016  136.8624  152.9093 C   0  0  0  0  0  0  0  0  0  0  0  0
  143.5218  137.7438  152.2442 O   0  0  0  0  0  0  0  0  0  0  0  0
  146.6981  138.9037  152.7859 C   0  0  0  0  0  0  0  0  0  0  0  0
  147.1012  140.3293  152.3714 C   0  0  0  0  0  0  0  0  0  0  0  0
  151.9754  142.0361  158.5419 N   0  0  0  0  0  0  0  0  0  0  0  0
  154.0605  141.4679  161.0986 H   0  0  0  0  0  0  0  0  0  0  0  0
  154.3001  140.8274  159.4694 H   0  0  0  0  0  0  0  0  0  0  0  0
  152.8847  140.3433  160.4132 H   0  0  0  0  0  0  0  0  0  0  0  0
  153.5260  143.8331  160.9728 H   0  0  0  0  0  0  0  0  0  0  0  0
  152.1859  145.6685  159.9169 H   0  0  0  0  0  0  0  0  0  0  0  0
  150.7187  145.1317  157.9730 H   0  0  0  0  0  0  0  0  0  0  0  0
  149.9118  143.6403  156.5125 H   0  0  0  0  0  0  0  0  0  0  0  0
  148.9571  142.8032  155.0094 H   0  0  0  0  0  0  0  0  0  0  0  0
  149.5853  140.6006  153.5074 H   0  0  0  0  0  0  0  0  0  0  0  0
  148.6986  139.9210  154.8381 H   0  0  0  0  0  0  0  0  0  0  0  0
  147.5743  142.2304  153.2344 H   0  0  0  0  0  0  0  0  0  0  0  0
  146.5638  141.7290  155.4880 H   0  0  0  0  0  0  0  0  0  0  0  0
  145.4480  141.6772  154.1515 H   0  0  0  0  0  0  0  0  0  0  0  0
  146.6927  139.2375  155.5232 H   0  0  0  0  0  0  0  0  0  0  0  0
  145.0297  139.7710  155.6183 H   0  0  0  0  0  0  0  0  0  0  0  0
  145.8808  136.9732  154.4981 H   0  0  0  0  0  0  0  0  0  0  0  0
  144.3261  137.6528  154.9029 H   0  0  0  0  0  0  0  0  0  0  0  0
  145.1323  136.4686  152.2040 H   0  0  0  0  0  0  0  0  0  0  0  0
  143.8227  136.0105  153.2671 H   0  0  0  0  0  0  0  0  0  0  0  0
  143.6277  138.6091  152.6107 H   0  0  0  0  0  0  0  0  0  0  0  0
  147.5463  138.3770  153.2244 H   0  0  0  0  0  0  0  0  0  0  0  0
  146.4183  138.3496  151.8911 H   0  0  0  0  0  0  0  0  0  0  0  0
  146.2626  140.7914  151.8487 H   0  0  0  0  0  0  0  0  0  0  0  0
  147.9123  140.2953  151.6449 H   0  0  0  0  0  0  0  0  0  0  0  0
  144.8037  139.4058  153.3004 H   0  0  0  0  0  0  0  0  0  0  0  0
  1  2  1  0  0  0  0
  1 22  1  0  0  0  0
  1 23  1  0  0  0  0
  1 24  1  0  0  0  0
  2 21  1  0  0  0  0
  2  3  2  0  0  0  0
  3  4  1  0  0  0  0
  3 25  1  0  0  0  0
  4  5  2  0  0  0  0
  4 26  1  0  0  0  0
  5  6  1  0  0  0  0
  5 27  1  0  0  0  0
  6  7  1  0  0  0  0
  6 21  2  0  0  0  0
  7  8  1  0  0  0  0
  7 28  1  0  0  0  0
  8  9  2  0  0  0  0
  8 10  1  0  0  0  0
 10 11  1  0  0  0  0
 10 29  1  0  0  0  0
 11 12  1  0  0  0  0
 11 30  1  0  0  0  0
 11 31  1  0  0  0  0
 12 20  1  0  0  0  0
 12 13  1  0  0  0  0
 12 32  1  0  0  0  0
 13 14  1  0  0  0  0
 13 33  1  0  0  0  0
 13 34  1  0  0  0  0
 14 15  1  0  0  0  0
 14 35  1  0  0  0  0
 14 36  1  0  0  0  0
 15 16  1  0  0  0  0
 15 19  1  0  0  0  0
 15 46  1  0  0  0  0
 16 17  1  0  0  0  0
 16 37  1  0  0  0  0
 16 38  1  0  0  0  0
 17 18  1  0  0  0  0
 17 39  1  0  0  0  0
 17 40  1  0  0  0  0
 18 41  1  0  0  0  0
 19 20  1  0  0  0  0
 19 42  1  0  0  0  0
 19 43  1  0  0  0  0
 20 44  1  0  0  0  0
 20 45  1  0  0  0  0
M  CHG  1  15   1
M  END
> <s_m_source_file>
AV-unprocessed.smi

> <i_m_source_file_index>
2271

> <i_lp_mmshare_version>
43012

> <i_f3d_flags>
0

> <s_epik_input>
W0NIM11jMVtjSF1bY0hdW2NIXWMobjEpW05IXUMoPU8pW05IXVtDSDJdW0NIXTJbQ0gyXVtDSDJdTihbQ0gyXVtDSDJdMilbQ0gyXVtDSDJdW09IXQ==

> <s_epik_cmdline>
J2VwaWtfcHl0aG9uJywgJy1waCcsICc3LjAnLCAnLXRuJywgJzgnLCAnLW1hJywgJzIwMCcsICctbWV0YWxfYmluZGluZycsICctaW1hZScsICc8aW5maWxlLm1hZT4nLCAnLW9tYWUnLCAnPG91dGZpbGUubWFlPic=

> <r_epik_Ionization_Penalty>
0.00184663

> <r_epik_Ionization_Penalty_Charging>
0.00177223

> <r_epik_Ionization_Penalty_Neutral>
7.44064e-05

> <r_epik_State_Penalty>
0.00120075

> <r_epik_Charging_Adjusted_Penalty>
0.00297297

> <i_epik_Tot_Q>
1

> <i_epik_Tot_abs_Q>
1

> <r_epik_Metal_State_Penalty>
-0

> <b_epik_Metal_Only>
0

> <s_lp_Force_Field>
OPLS_2005

> <r_lp_Energy>
20.3482

> <b_lp_Chiralities_Consistent>
1

> <s_lp_Variant>
AV-unprocessed.smi:2271-2

> <Gold.Version>
5.8.1

> <Gold.Id.Protein>
6NUR|6NUR_protein|mol2

> <Gold.PLP.Fitness>
58.1818

> <Gold.PLP.PLP>
-43.9447

> <Gold.PLP.part.hbond>
-5.0000

> <Gold.PLP.part.metal>
0.0000

> <Gold.PLP.part.buried>
-4.7495

> <Gold.PLP.part.nonpolar>
-35.6705

> <Gold.PLP.part.repulsive>
0.2539

> <Gold.PLP.ligand.clash>
0.0000

> <Gold.PLP.ligand.torsion>
0.3489

> <Gold.PLP.Chemscore.Hbond>
4.9440

> <Gold.PLP.Chemscore.CHOScore>
0.0000

> <Gold.PLP.Chemscore.Metal>
0.0000

> <Gold.Chemscore.Hbonds>
donor molecule, donor type, donor heavy atom, donor atom, acceptor molecule, acceptor atom, score
      L1  H     7    28       P1  8028  1.00
      L1  H    10    29       P1  8028  0.96
      L1  H    15    46       P1 10175  2.00
      L1  H    18    41       P1 10175  1.00

> <Gold.PLP.Chemscore.Internal.Correction>
0.1030

> <Gold.Rescore>
     Score         DG    S(hbond)    S(metal)    S(lipo)     H(rot)  DE(clash)    DE(int)     intcor
     22.38     -24.49       3.88        0.00     104.10       2.39       0.50       1.60       ----

> <Gold.Chemscore.Fitness>
22.3847

> <Gold.Chemscore.DG>
-24.4854

> <Gold.Chemscore.ZeroCoef>
-5.4800

> <Gold.Chemscore.Hbond>
3.8781

> <Gold.Chemscore.Metal>
0.0000

> <Gold.Chemscore.Lipo>
104.1016

> <Gold.Chemscore.Internal_Hbond>
0.0000

> <Gold.Chemscore.DEClash>
0.4996

> <Gold.Chemscore.DEInternal>
1.6011

> <Gold.Chemscore.Rot>
2.3935

> <Gold.Chemscore.Internal.Correction>
   9.000000E+99

> <Gold.Chemscore.Hbonds>
donor molecule, donor type, donor heavy atom, donor atom, acceptor molecule, acceptor atom, score
      L1  H     7    28       P1  8028  1.00
      L1  H    10    29       P1  8028  0.88
      L1  H    15    46       P1 10175  1.00
      L1  H    18    41       P1 10175  0.95

> <Gold.Chemscore.Hbond.Weighted>
-12.9529

> <Gold.Chemscore.Metal.Weighted>
-0.0000

> <Gold.Chemscore.Lipo.Weighted>
-12.1799

> <Gold.Chemscore.Internal_Hbond.Weighted>
0.0000

> <Gold.Chemscore.DEClash.Weighted>
0.4996

> <Gold.Chemscore.DEInternal.Weighted>
1.6011

> <Gold.Chemscore.Rot.Weighted>
6.1274

> <Gold.Chemscore.Internal.Correction.Weighted>
   9.000000E+99

> <Gold.Protein.RotatedTorsions>
[ 6907 6896 6895 6894 ] final  115.07 input  -60.11 | X-H torsion
[ 7974 7965 7964 7962 ] final  -76.35 input  175.53 | X-H torsion
[ 8008 7997 7996 7995 ] final -139.34 input   59.86 | X-H torsion
[ 10167 10162 10161 10158 ] final  -69.61 input  -65.29 | X-H torsion
[ 10718 10713 10712 10709 ] final   50.80 input   66.30 | X-H torsion
[ 10763 10752 10751 10750 ] final  -24.09 input  -60.55 | X-H torsion
[ 11005 11000 10999 10996 ] final -130.56 input  -57.11 | X-H torsion

> <Gold.Protein.ActiveResidues>
 VAL166  LYS551  ARG553  GLY616  TRP617  ASP618  TYR619  PRO620  LYS621  CYS622 
 ASP623  PHE694  ASN695  SER759  ASP760  ASP761  ALA762  ILE779  LEU786  VAL792 
 PHE793  MET794  SER795  GLU796  ALA797  LYS798  CYS799  TRP800  GLU811  SER814 

> <Gold.Protein.RotatedAtoms>
  152.4764  133.8149  159.7022 H   0  0  0  0  0  0  0  0  0  0  0  0  # atno 6907 bound_to 6896
  150.8784  133.7397  159.2946 H   0  0  0  0  0  0  0  0  0  0  0  0  # atno 6908 bound_to 6896
  151.4909  135.1061  159.9855 H   0  0  0  0  0  0  0  0  0  0  0  0  # atno 6909 bound_to 6896
  145.6140  140.9380  143.1174 H   0  0  0  0  0  0  0  0  0  0  0  0  # atno 7974 bound_to 7965
  155.4433  140.0533  157.3008 H   0  0  0  0  0  0  0  0  0  0  0  0  # atno 8008 bound_to 7997
  154.4809  140.2081  155.9724 H   0  0  0  0  0  0  0  0  0  0  0  0  # atno 8009 bound_to 7997
  156.1203  140.3189  155.8204 H   0  0  0  0  0  0  0  0  0  0  0  0  # atno 8010 bound_to 7997
  140.5417  143.2314  151.7077 H   0  0  0  0  0  0  0  0  0  0  0  0  # atno 10167 bound_to 10162
  157.4919  130.8382  149.8213 H   0  0  0  0  0  0  0  0  0  0  0  0  # atno 10718 bound_to 10713
  153.6782  135.6968  153.5126 H   0  0  0  0  0  0  0  0  0  0  0  0  # atno 10763 bound_to 10752
  153.2505  135.4276  155.0792 H   0  0  0  0  0  0  0  0  0  0  0  0  # atno 10764 bound_to 10752
  154.8408  135.3530  154.6325 H   0  0  0  0  0  0  0  0  0  0  0  0  # atno 10765 bound_to 10752
  140.9335  134.1287  157.4214 H   0  0  0  0  0  0  0  0  0  0  0  0  # atno 11005 bound_to 11000
  144.7258  139.7880  143.7365 LP  0  0  0  0  0  0  0  0  0  0  0  0  # atno 17320 bound_to 7965
  146.1483  139.4558  143.0065 LP  0  0  0  0  0  0  0  0  0  0  0  0  # atno 17321 bound_to 7965
  139.4991  144.3958  152.0233 LP  0  0  0  0  0  0  0  0  0  0  0  0  # atno 17342 bound_to 10162
  140.3067  144.3584  150.6045 LP  0  0  0  0  0  0  0  0  0  0  0  0  # atno 17343 bound_to 10162
  156.0178  130.3807  150.2054 LP  0  0  0  0  0  0  0  0  0  0  0  0  # atno 17370 bound_to 10713
  157.0243  130.9988  151.3330 LP  0  0  0  0  0  0  0  0  0  0  0  0  # atno 17371 bound_to 10713
  139.8802  135.0013  156.6060 LP  0  0  0  0  0  0  0  0  0  0  0  0  # atno 17394 bound_to 11000
  140.7830  133.8644  155.8583 LP  0  0  0  0  0  0  0  0  0  0  0  0  # atno 17395 bound_to 11000

$$$$
