AV-unprocessed.smi:693|AV-procd|sdf|3375|dock3
  -GOLD-   22720 0353D 1   1.00000     0.00000
 Structure written by MMmdl.
 47 48  0  0  0  0  0  0  0  0  2 V2000
  146.1044  138.4361  152.1920 C   0  0  0  0  0  0  0  0  0  0  0  0
  146.9571  139.3371  153.0602 C   0  0  0  0  0  0  0  0  0  0  0  0
  148.2160  138.9279  153.5488 C   0  0  0  0  0  0  0  0  0  0  0  0
  148.9648  139.8135  154.3519 C   0  0  0  0  0  0  0  0  0  0  0  0
  148.4393  141.0899  154.6499 C   0  0  0  0  0  0  0  0  0  0  0  0
  149.2209  142.0714  155.5007 C   0  0  0  0  0  0  0  0  0  0  0  0
  149.2267  141.6698  156.9846 C   0  0  0  0  0  0  0  0  0  0  0  0
  150.3988  142.1910  157.6782 N   0  0  0  0  0  0  0  0  0  0  0  0
  150.3660  143.0625  158.7011 C   0  0  0  0  0  0  0  0  0  0  0  0
  149.3046  143.4841  159.1635 O   0  0  0  0  0  0  0  0  0  0  0  0
  151.5821  143.4112  159.1930 N   0  0  0  0  0  0  0  0  0  0  0  0
  151.8516  144.4691  160.1800 C   0  0  0  0  0  0  0  0  0  0  0  0
  152.1405  143.8056  161.5367 C   0  0  0  0  0  0  0  0  0  0  0  0
  153.3056  142.8034  161.4266 C   0  0  0  0  0  0  0  0  0  0  0  0
  153.1201  141.8095  160.2516 C   0  0  2  0  0  0  0  0  0  0  0  0
  154.3419  140.8908  160.0218 C   0  0  0  0  0  0  0  0  0  0  0  0
  154.8125  140.1568  161.2820 C   0  0  0  0  0  0  0  0  0  0  0  0
  154.7820  138.8220  161.2548 N   0  0  0  0  0  0  0  0  0  0  0  0
  155.2200  140.7821  162.2585 O   0  0  0  0  0  0  0  0  0  0  0  0
  152.7764  142.5886  158.9618 C   0  0  0  0  0  0  0  0  0  0  0  0
  147.1742  141.4443  154.1345 C   0  0  0  0  0  0  0  0  0  0  0  0
  146.4880  140.5671  153.3699 N   0  3  0  0  0  0  0  0  0  0  0  0
  146.6913  138.0453  151.3605 H   0  0  0  0  0  0  0  0  0  0  0  0
  145.2487  138.9730  151.7809 H   0  0  0  0  0  0  0  0  0  0  0  0
  145.7322  137.5934  152.7751 H   0  0  0  0  0  0  0  0  0  0  0  0
  148.6045  137.9481  153.3107 H   0  0  0  0  0  0  0  0  0  0  0  0
  149.9316  139.5154  154.7308 H   0  0  0  0  0  0  0  0  0  0  0  0
  150.2412  142.1290  155.1186 H   0  0  0  0  0  0  0  0  0  0  0  0
  148.7930  143.0681  155.3836 H   0  0  0  0  0  0  0  0  0  0  0  0
  148.3358  142.0575  157.4798 H   0  0  0  0  0  0  0  0  0  0  0  0
  149.1901  140.5838  157.0870 H   0  0  0  0  0  0  0  0  0  0  0  0
  151.3020  141.8777  157.3531 H   0  0  0  0  0  0  0  0  0  0  0  0
  152.7182  145.0485  159.8580 H   0  0  0  0  0  0  0  0  0  0  0  0
  151.0448  145.1939  160.2856 H   0  0  0  0  0  0  0  0  0  0  0  0
  152.3724  144.5647  162.2843 H   0  0  0  0  0  0  0  0  0  0  0  0
  151.2459  143.2891  161.8874 H   0  0  0  0  0  0  0  0  0  0  0  0
  154.2352  143.3562  161.2853 H   0  0  0  0  0  0  0  0  0  0  0  0
  153.4047  142.2725  162.3732 H   0  0  0  0  0  0  0  0  0  0  0  0
  152.2644  141.1730  160.4850 H   0  0  0  0  0  0  0  0  0  0  0  0
  154.1041  140.1501  159.2567 H   0  0  0  0  0  0  0  0  0  0  0  0
  155.1755  141.4722  159.6258 H   0  0  0  0  0  0  0  0  0  0  0  0
  155.0840  138.2936  162.0604 H   0  0  0  0  0  0  0  0  0  0  0  0
  154.4580  138.3453  160.4258 H   0  0  0  0  0  0  0  0  0  0  0  0
  152.6454  141.8990  158.1263 H   0  0  0  0  0  0  0  0  0  0  0  0
  153.6098  143.2330  158.6776 H   0  0  0  0  0  0  0  0  0  0  0  0
  146.6950  142.3973  154.3065 H   0  0  0  0  0  0  0  0  0  0  0  0
  145.5756  140.8464  153.0088 H   0  0  0  0  0  0  0  0  0  0  0  0
  1  2  1  0  0  0  0
  1 23  1  0  0  0  0
  1 24  1  0  0  0  0
  1 25  1  0  0  0  0
  2 22  1  0  0  0  0
  2  3  2  0  0  0  0
  3  4  1  0  0  0  0
  3 26  1  0  0  0  0
  4  5  2  0  0  0  0
  4 27  1  0  0  0  0
  5  6  1  0  0  0  0
  5 21  1  0  0  0  0
  6  7  1  0  0  0  0
  6 28  1  0  0  0  0
  6 29  1  0  0  0  0
  7  8  1  0  0  0  0
  7 30  1  0  0  0  0
  7 31  1  0  0  0  0
  8  9  1  0  0  0  0
  8 32  1  0  0  0  0
  9 10  2  0  0  0  0
  9 11  1  0  0  0  0
 11 20  1  0  0  0  0
 11 12  1  0  0  0  0
 12 13  1  0  0  0  0
 12 33  1  0  0  0  0
 12 34  1  0  0  0  0
 13 14  1  0  0  0  0
 13 35  1  0  0  0  0
 13 36  1  0  0  0  0
 14 15  1  0  0  0  0
 14 37  1  0  0  0  0
 14 38  1  0  0  0  0
 15 16  1  0  0  0  0
 15 20  1  0  0  0  0
 15 39  1  0  0  0  0
 16 17  1  0  0  0  0
 16 40  1  0  0  0  0
 16 41  1  0  0  0  0
 17 18  1  0  0  0  0
 17 19  2  0  0  0  0
 18 42  1  0  0  0  0
 18 43  1  0  0  0  0
 20 44  1  0  0  0  0
 20 45  1  0  0  0  0
 21 22  2  0  0  0  0
 21 46  1  0  0  0  0
 22 47  1  0  0  0  0
M  CHG  1  22   1
M  END
> <s_m_source_file>
AV-unprocessed.smi

> <i_m_source_file_index>
693

> <i_lp_mmshare_version>
43012

> <i_f3d_flags>
0

> <s_epik_input>
W0NIM11jMVtjSF1bY0hdYyhbY0hdbjEpW0NIMl1bQ0gyXVtOSF1DKD1PKU4yW0NIMl1bQ0gyXVtDSDJdW0NASF0oW0NIMl0yKVtDSDJdQyg9TylbTkgyXQ==

> <s_epik_cmdline>
J2VwaWtfcHl0aG9uJywgJy1waCcsICc3LjAnLCAnLXRuJywgJzgnLCAnLW1hJywgJzIwMCcsICctbWV0YWxfYmluZGluZycsICctaW1hZScsICc8aW5maWxlLm1hZT4nLCAnLW9tYWUnLCAnPG91dGZpbGUubWFlPic=

> <r_epik_Ionization_Penalty>
1.41666

> <r_epik_Ionization_Penalty_Charging>
1.4166

> <r_epik_Ionization_Penalty_Neutral>
5.77403e-05

> <r_epik_State_Penalty>
1.50002

> <r_epik_Charging_Adjusted_Penalty>
2.91662

> <i_epik_Tot_Q>
1

> <i_epik_Tot_abs_Q>
1

> <r_epik_Metal_State_Penalty>
1.55252

> <b_epik_Metal_Only>
0

> <s_lp_Force_Field>
OPLS_2005

> <r_lp_Energy>
32.8

> <b_lp_Chiralities_Consistent>
1

> <s_lp_Variant>
AV-unprocessed.smi:693-4

> <Gold.Version>
5.8.1

> <Gold.Id.Protein>
6NUR|6NUR_protein|mol2

> <Gold.PLP.Fitness>
49.3466

> <Gold.PLP.PLP>
-44.8460

> <Gold.PLP.part.hbond>
-2.2831

> <Gold.PLP.part.metal>
0.0000

> <Gold.PLP.part.buried>
-0.7553

> <Gold.PLP.part.nonpolar>
-43.4490

> <Gold.PLP.part.repulsive>
0.2143

> <Gold.PLP.ligand.clash>
0.6844

> <Gold.PLP.ligand.torsion>
0.4404

> <Gold.PLP.Chemscore.Hbond>
1.9825

> <Gold.PLP.Chemscore.CHOScore>
0.0000

> <Gold.PLP.Chemscore.Metal>
0.0000

> <Gold.Chemscore.Hbonds>
donor molecule, donor type, donor heavy atom, donor atom, acceptor molecule, acceptor atom, score
      L1  H    22    47       P1 10175  2.00

> <Gold.PLP.Chemscore.Internal.Correction>
0.1183

> <Gold.Rescore>
     Score         DG    S(hbond)    S(metal)    S(lipo)     H(rot)  DE(clash)    DE(int)     intcor
     13.41     -16.12       0.86        0.00     117.41       2.34       1.31       1.40       ----

> <Gold.Chemscore.Fitness>
13.4088

> <Gold.Chemscore.DG>
-16.1186

> <Gold.Chemscore.ZeroCoef>
-5.4800

> <Gold.Chemscore.Hbond>
0.8625

> <Gold.Chemscore.Metal>
0.0000

> <Gold.Chemscore.Lipo>
117.4051

> <Gold.Chemscore.Internal_Hbond>
0.0000

> <Gold.Chemscore.DEClash>
1.3136

> <Gold.Chemscore.DEInternal>
1.3962

> <Gold.Chemscore.Rot>
2.3354

> <Gold.Chemscore.Internal.Correction>
   9.000000E+99

> <Gold.Chemscore.Hbonds>
donor molecule, donor type, donor heavy atom, donor atom, acceptor molecule, acceptor atom, score
      L1  H    22    47       P1 10175  0.47

> <Gold.Chemscore.Hbond.Weighted>
-2.8807

> <Gold.Chemscore.Metal.Weighted>
-0.0000

> <Gold.Chemscore.Lipo.Weighted>
-13.7364

> <Gold.Chemscore.Internal_Hbond.Weighted>
0.0000

> <Gold.Chemscore.DEClash.Weighted>
1.3136

> <Gold.Chemscore.DEInternal.Weighted>
1.3962

> <Gold.Chemscore.Rot.Weighted>
5.9785

> <Gold.Chemscore.Internal.Correction.Weighted>
   9.000000E+99

> <Gold.Protein.RotatedTorsions>
[ 6907 6896 6895 6894 ] final  158.27 input  -60.11 | X-H torsion
[ 7974 7965 7964 7962 ] final   22.51 input  175.53 | X-H torsion
[ 8008 7997 7996 7995 ] final   -0.90 input   59.86 | X-H torsion
[ 10167 10162 10161 10158 ] final  -16.21 input  -65.29 | X-H torsion
[ 10718 10713 10712 10709 ] final  162.36 input   66.30 | X-H torsion
[ 10763 10752 10751 10750 ] final -137.86 input  -60.55 | X-H torsion
[ 11005 11000 10999 10996 ] final   41.04 input  -57.11 | X-H torsion

> <Gold.Protein.ActiveResidues>
 VAL166  LYS551  ARG553  GLY616  TRP617  ASP618  TYR619  PRO620  LYS621  CYS622 
 ASP623  PHE694  ASN695  SER759  ASP760  ASP761  ALA762  ILE779  LEU786  VAL792 
 PHE793  MET794  SER795  GLU796  ALA797  LYS798  CYS799  TRP800  GLU811  SER814 

> <Gold.Protein.RotatedAtoms>
  152.0028  133.3832  159.4188 H   0  0  0  0  0  0  0  0  0  0  0  0  # atno 6907 bound_to 6896
  150.6908  134.3815  159.5045 H   0  0  0  0  0  0  0  0  0  0  0  0  # atno 6908 bound_to 6896
  152.1565  134.8946  160.0595 H   0  0  0  0  0  0  0  0  0  0  0  0  # atno 6909 bound_to 6896
  146.2025  139.7875  142.8750 H   0  0  0  0  0  0  0  0  0  0  0  0  # atno 7974 bound_to 7965
  154.6528  140.2573  155.7194 H   0  0  0  0  0  0  0  0  0  0  0  0  # atno 8008 bound_to 7997
  156.2583  140.2864  156.0890 H   0  0  0  0  0  0  0  0  0  0  0  0  # atno 8009 bound_to 7997
  155.1425  140.0380  157.2792 H   0  0  0  0  0  0  0  0  0  0  0  0  # atno 8010 bound_to 7997
  140.7230  143.5139  150.9716 H   0  0  0  0  0  0  0  0  0  0  0  0  # atno 10167 bound_to 10162
  157.1236  131.0498  151.2404 H   0  0  0  0  0  0  0  0  0  0  0  0  # atno 10718 bound_to 10713
  154.8651  135.3629  154.5292 H   0  0  0  0  0  0  0  0  0  0  0  0  # atno 10763 bound_to 10752
  153.5918  135.7015  153.5425 H   0  0  0  0  0  0  0  0  0  0  0  0  # atno 10764 bound_to 10752
  153.3366  135.4109  155.1500 H   0  0  0  0  0  0  0  0  0  0  0  0  # atno 10765 bound_to 10752
  140.1872  134.4030  155.8166 H   0  0  0  0  0  0  0  0  0  0  0  0  # atno 11005 bound_to 11000
  145.3433  141.0292  143.3380 LP  0  0  0  0  0  0  0  0  0  0  0  0  # atno 17320 bound_to 7965
  144.8717  139.5029  143.6765 LP  0  0  0  0  0  0  0  0  0  0  0  0  # atno 17321 bound_to 7965
  139.8854  143.7020  152.3152 LP  0  0  0  0  0  0  0  0  0  0  0  0  # atno 17342 bound_to 10162
  139.7317  144.7581  151.0792 LP  0  0  0  0  0  0  0  0  0  0  0  0  # atno 17343 bound_to 10162
  157.4455  130.7568  149.7106 LP  0  0  0  0  0  0  0  0  0  0  0  0  # atno 17370 bound_to 10713
  155.9823  130.4011  150.3424 LP  0  0  0  0  0  0  0  0  0  0  0  0  # atno 17371 bound_to 10713
  141.2225  133.7029  156.8034 LP  0  0  0  0  0  0  0  0  0  0  0  0  # atno 17394 bound_to 11000
  140.2200  134.8764  157.3366 LP  0  0  0  0  0  0  0  0  0  0  0  0  # atno 17395 bound_to 11000

$$$$
