AV-unprocessed.smi:2379|AV-procd|sdf|9451|dock10
  -GOLD-   2272013 83D 1   1.00000     0.00000
 Structure written by MMmdl.
 53 55  0  0  0  0  0  0  0  0  2 V2000
  154.0275  141.0114  161.2595 C   0  0  0  0  0  0  0  0  0  0  0  0
  153.1905  141.5739  160.1298 C   0  0  0  0  0  0  0  0  0  0  0  0
  153.1080  142.9626  159.9130 C   0  0  0  0  0  0  0  0  0  0  0  0
  152.3121  143.4227  158.8455 C   0  0  0  0  0  0  0  0  0  0  0  0
  152.1765  144.9029  158.5562 C   0  0  0  0  0  0  0  0  0  0  0  0
  151.6281  142.5952  158.0264 N   0  0  0  0  0  0  0  0  0  0  0  0
  151.6997  141.2559  158.2266 C   0  0  0  0  0  0  0  0  0  0  0  0
  151.0200  140.3018  157.4238 N   0  0  0  0  0  0  0  0  0  0  0  0
  149.7907  140.3924  156.8868 C   0  0  0  0  0  0  0  0  0  0  0  0
  149.0268  141.3506  157.0074 O   0  0  0  0  0  0  0  0  0  0  0  0
  149.4884  139.2931  156.1805 N   0  0  0  0  0  0  0  0  0  0  0  0
  148.2388  139.0759  155.4572 C   0  0  2  0  0  0  0  0  0  0  0  0
  147.9445  137.5691  155.3695 C   0  0  0  0  0  0  0  0  0  0  0  0
  146.6934  137.2897  154.5195 C   0  0  0  0  0  0  0  0  0  0  0  0
  146.8282  137.8776  153.1620 N   0  3  1  0  0  0  0  0  0  0  0  0
  145.7185  137.4981  152.2500 C   0  0  0  0  0  0  0  0  0  0  0  0
  145.9118  136.0832  151.6723 C   0  0  2  0  0  0  0  0  0  0  0  0
  144.8052  135.5945  150.7569 C   0  0  0  0  0  0  0  0  0  0  0  0
  145.0133  134.0826  150.7753 C   0  0  0  0  0  0  0  0  0  0  0  0
  145.5903  133.7817  152.0428 O   0  0  0  0  0  0  0  0  0  0  0  0
  145.9000  134.9858  152.7359 C   0  0  0  0  0  0  0  0  0  0  0  0
  147.0541  139.3448  153.2268 C   0  0  0  0  0  0  0  0  0  0  0  0
  148.3173  139.6722  154.0390 C   0  0  0  0  0  0  0  0  0  0  0  0
  152.4746  140.7115  159.2752 C   0  0  0  0  0  0  0  0  0  0  0  0
  154.6360  141.7873  161.7254 H   0  0  0  0  0  0  0  0  0  0  0  0
  154.6952  140.2340  160.8872 H   0  0  0  0  0  0  0  0  0  0  0  0
  153.3836  140.5759  162.0236 H   0  0  0  0  0  0  0  0  0  0  0  0
  153.6395  143.6566  160.5479 H   0  0  0  0  0  0  0  0  0  0  0  0
  152.8524  145.4908  159.1777 H   0  0  0  0  0  0  0  0  0  0  0  0
  151.1566  145.2340  158.7534 H   0  0  0  0  0  0  0  0  0  0  0  0
  152.4096  145.1104  157.5115 H   0  0  0  0  0  0  0  0  0  0  0  0
  151.5342  139.4552  157.2307 H   0  0  0  0  0  0  0  0  0  0  0  0
  150.1748  138.5540  156.1380 H   0  0  0  0  0  0  0  0  0  0  0  0
  147.4215  139.5538  156.0013 H   0  0  0  0  0  0  0  0  0  0  0  0
  148.7987  137.0489  154.9329 H   0  0  0  0  0  0  0  0  0  0  0  0
  147.8095  137.1553  156.3696 H   0  0  0  0  0  0  0  0  0  0  0  0
  146.5521  136.2110  154.4415 H   0  0  0  0  0  0  0  0  0  0  0  0
  145.8050  137.6935  155.0078 H   0  0  0  0  0  0  0  0  0  0  0  0
  144.7765  137.5026  152.8009 H   0  0  0  0  0  0  0  0  0  0  0  0
  145.5966  138.2371  151.4562 H   0  0  0  0  0  0  0  0  0  0  0  0
  146.8628  136.0318  151.1388 H   0  0  0  0  0  0  0  0  0  0  0  0
  143.8275  135.8401  151.1746 H   0  0  0  0  0  0  0  0  0  0  0  0
  144.8624  136.0107  149.7505 H   0  0  0  0  0  0  0  0  0  0  0  0
  144.0830  133.5349  150.6213 H   0  0  0  0  0  0  0  0  0  0  0  0
  145.7155  133.7836  149.9957 H   0  0  0  0  0  0  0  0  0  0  0  0
  146.8497  134.9057  153.2656 H   0  0  0  0  0  0  0  0  0  0  0  0
  145.1167  135.1697  153.4729 H   0  0  0  0  0  0  0  0  0  0  0  0
  147.1571  139.7551  152.2229 H   0  0  0  0  0  0  0  0  0  0  0  0
  146.1853  139.8295  153.6756 H   0  0  0  0  0  0  0  0  0  0  0  0
  148.4471  140.7540  154.0902 H   0  0  0  0  0  0  0  0  0  0  0  0
  149.1932  139.2811  153.5188 H   0  0  0  0  0  0  0  0  0  0  0  0
  152.5227  139.6423  159.4251 H   0  0  0  0  0  0  0  0  0  0  0  0
  147.6642  137.4708  152.7675 H   0  0  0  0  0  0  0  0  0  0  0  0
  1  2  1  0  0  0  0
  1 25  1  0  0  0  0
  1 26  1  0  0  0  0
  1 27  1  0  0  0  0
  2 24  1  0  0  0  0
  2  3  2  0  0  0  0
  3  4  1  0  0  0  0
  3 28  1  0  0  0  0
  4  5  1  0  0  0  0
  4  6  2  0  0  0  0
  5 29  1  0  0  0  0
  5 30  1  0  0  0  0
  5 31  1  0  0  0  0
  6  7  1  0  0  0  0
  7  8  1  0  0  0  0
  7 24  2  0  0  0  0
  8  9  1  0  0  0  0
  8 32  1  0  0  0  0
  9 10  2  0  0  0  0
  9 11  1  0  0  0  0
 11 12  1  0  0  0  0
 11 33  1  0  0  0  0
 12 23  1  0  0  0  0
 12 13  1  0  0  0  0
 12 34  1  0  0  0  0
 13 14  1  0  0  0  0
 13 35  1  0  0  0  0
 13 36  1  0  0  0  0
 14 15  1  0  0  0  0
 14 37  1  0  0  0  0
 14 38  1  0  0  0  0
 15 16  1  0  0  0  0
 15 22  1  0  0  0  0
 15 53  1  0  0  0  0
 16 17  1  0  0  0  0
 16 39  1  0  0  0  0
 16 40  1  0  0  0  0
 17 21  1  0  0  0  0
 17 18  1  0  0  0  0
 17 41  1  0  0  0  0
 18 19  1  0  0  0  0
 18 42  1  0  0  0  0
 18 43  1  0  0  0  0
 19 20  1  0  0  0  0
 19 44  1  0  0  0  0
 19 45  1  0  0  0  0
 20 21  1  0  0  0  0
 21 46  1  0  0  0  0
 21 47  1  0  0  0  0
 22 23  1  0  0  0  0
 22 48  1  0  0  0  0
 22 49  1  0  0  0  0
 23 50  1  0  0  0  0
 23 51  1  0  0  0  0
 24 52  1  0  0  0  0
M  CHG  1  15   1
M  END
> <s_m_source_file>
AV-unprocessed.smi

> <i_m_source_file_index>
2379

> <i_lp_mmshare_version>
43012

> <i_f3d_flags>
0

> <s_epik_input>
W0NIM11jMVtjSF1jKFtDSDNdKW5jKFtjSF0xKVtOSF1DKD1PKVtOSF1bQ0hdMltDSDJdW0NIMl1OKFtDSDJdW0NIMl0yKVtDSDJdW0NAQEhdM1tDSDJdW0NIMl1PW0NIMl0z

> <s_epik_cmdline>
J2VwaWtfcHl0aG9uJywgJy1waCcsICc3LjAnLCAnLXRuJywgJzgnLCAnLW1hJywgJzIwMCcsICctbWV0YWxfYmluZGluZycsICctaW1hZScsICc8aW5maWxlLm1hZT4nLCAnLW9tYWUnLCAnPG91dGZpbGUubWFlPic=

> <r_epik_Ionization_Penalty>
0.00766556

> <r_epik_Ionization_Penalty_Charging>
0.00747775

> <r_epik_Ionization_Penalty_Neutral>
0.00018781

> <r_epik_State_Penalty>
0.00558817

> <r_epik_Charging_Adjusted_Penalty>
0.0130659

> <i_epik_Tot_Q>
1

> <i_epik_Tot_abs_Q>
1

> <r_epik_Metal_State_Penalty>
-0

> <b_epik_Metal_Only>
0

> <s_lp_Force_Field>
OPLS_2005

> <r_lp_Energy>
36.075

> <b_lp_Chiralities_Consistent>
1

> <s_lp_Variant>
AV-unprocessed.smi:2379-1

> <Gold.Version>
5.8.1

> <Gold.Id.Protein>
6NUR|6NUR_protein|mol2

> <Gold.PLP.Fitness>
44.5244

> <Gold.PLP.PLP>
-40.2942

> <Gold.PLP.part.hbond>
-1.0000

> <Gold.PLP.part.metal>
0.0000

> <Gold.PLP.part.buried>
-3.6873

> <Gold.PLP.part.nonpolar>
-36.7580

> <Gold.PLP.part.repulsive>
0.2998

> <Gold.PLP.ligand.clash>
0.0000

> <Gold.PLP.ligand.torsion>
0.9035

> <Gold.PLP.Chemscore.Hbond>
2.0000

> <Gold.PLP.Chemscore.CHOScore>
0.0000

> <Gold.PLP.Chemscore.Metal>
0.0000

> <Gold.Chemscore.Hbonds>
donor molecule, donor type, donor heavy atom, donor atom, acceptor molecule, acceptor atom, score
      L1  H    15    53       P1  7948  2.00

> <Gold.PLP.Chemscore.Internal.Correction>
0.0373

> <Gold.Rescore>
     Score         DG    S(hbond)    S(metal)    S(lipo)     H(rot)  DE(clash)    DE(int)     intcor
     16.53     -18.25       0.99        0.00     110.80       1.37       0.08       1.64       ----

> <Gold.Chemscore.Fitness>
16.5283

> <Gold.Chemscore.DG>
-18.2489

> <Gold.Chemscore.ZeroCoef>
-5.4800

> <Gold.Chemscore.Hbond>
0.9936

> <Gold.Chemscore.Metal>
0.0000

> <Gold.Chemscore.Lipo>
110.8025

> <Gold.Chemscore.Internal_Hbond>
0.0000

> <Gold.Chemscore.DEClash>
0.0767

> <Gold.Chemscore.DEInternal>
1.6439

> <Gold.Chemscore.Rot>
1.3725

> <Gold.Chemscore.Internal.Correction>
   9.000000E+99

> <Gold.Chemscore.Hbonds>
donor molecule, donor type, donor heavy atom, donor atom, acceptor molecule, acceptor atom, score
      L1  H    15    53       P1  7948  0.97

> <Gold.Chemscore.Hbond.Weighted>
-3.3186

> <Gold.Chemscore.Metal.Weighted>
-0.0000

> <Gold.Chemscore.Lipo.Weighted>
-12.9639

> <Gold.Chemscore.Internal_Hbond.Weighted>
0.0000

> <Gold.Chemscore.DEClash.Weighted>
0.0767

> <Gold.Chemscore.DEInternal.Weighted>
1.6439

> <Gold.Chemscore.Rot.Weighted>
3.5136

> <Gold.Chemscore.Internal.Correction.Weighted>
   9.000000E+99

> <Gold.Protein.RotatedTorsions>
[ 6907 6896 6895 6894 ] final  -19.97 input  -60.11 | X-H torsion
[ 7974 7965 7964 7962 ] final  -62.26 input  175.53 | X-H torsion
[ 8008 7997 7996 7995 ] final  -40.58 input   59.86 | X-H torsion
[ 10167 10162 10161 10158 ] final  159.18 input  -65.29 | X-H torsion
[ 10718 10713 10712 10709 ] final  -11.64 input   66.30 | X-H torsion
[ 10763 10752 10751 10750 ] final -137.93 input  -60.55 | X-H torsion
[ 11005 11000 10999 10996 ] final -137.25 input  -57.11 | X-H torsion

> <Gold.Protein.ActiveResidues>
 VAL166  LYS551  ARG553  GLY616  TRP617  ASP618  TYR619  PRO620  LYS621  CYS622 
 ASP623  PHE694  ASN695  SER759  ASP760  ASP761  ALA762  ILE779  LEU786  VAL792 
 PHE793  MET794  SER795  GLU796  ALA797  LYS798  CYS799  TRP800  GLU811  SER814 

> <Gold.Protein.RotatedAtoms>
  151.2551  135.0635  159.9076 H   0  0  0  0  0  0  0  0  0  0  0  0  # atno 6907 bound_to 6896
  152.5374  134.0290  159.8026 H   0  0  0  0  0  0  0  0  0  0  0  0  # atno 6908 bound_to 6896
  151.0504  133.5579  159.2674 H   0  0  0  0  0  0  0  0  0  0  0  0  # atno 6909 bound_to 6896
  145.7935  140.8696  143.0268 H   0  0  0  0  0  0  0  0  0  0  0  0  # atno 7974 bound_to 7965
  154.4011  140.1522  156.3050 H   0  0  0  0  0  0  0  0  0  0  0  0  # atno 8008 bound_to 7997
  155.8667  140.3451  155.5771 H   0  0  0  0  0  0  0  0  0  0  0  0  # atno 8009 bound_to 7997
  155.7820  140.0845  157.2044 H   0  0  0  0  0  0  0  0  0  0  0  0  # atno 8010 bound_to 7997
  139.4831  144.4754  151.8519 H   0  0  0  0  0  0  0  0  0  0  0  0  # atno 10167 bound_to 10162
  156.6561  130.4968  149.6046 H   0  0  0  0  0  0  0  0  0  0  0  0  # atno 10718 bound_to 10713
  154.8650  135.3627  154.5303 H   0  0  0  0  0  0  0  0  0  0  0  0  # atno 10763 bound_to 10752
  153.5929  135.7015  153.5420 H   0  0  0  0  0  0  0  0  0  0  0  0  # atno 10764 bound_to 10752
  153.3358  135.4112  155.1494 H   0  0  0  0  0  0  0  0  0  0  0  0  # atno 10765 bound_to 10752
  140.8729  134.2029  157.4640 H   0  0  0  0  0  0  0  0  0  0  0  0  # atno 11005 bound_to 11000
  144.6778  140.0157  143.7484 LP  0  0  0  0  0  0  0  0  0  0  0  0  # atno 17320 bound_to 7965
  145.9952  139.3047  143.0960 LP  0  0  0  0  0  0  0  0  0  0  0  0  # atno 17321 bound_to 7965
  140.4226  144.2223  150.5887 LP  0  0  0  0  0  0  0  0  0  0  0  0  # atno 17342 bound_to 10162
  140.4859  143.2363  151.8889 LP  0  0  0  0  0  0  0  0  0  0  0  0  # atno 17343 bound_to 10162
  156.2047  130.6641  151.1205 LP  0  0  0  0  0  0  0  0  0  0  0  0  # atno 17370 bound_to 10713
  157.7125  131.0727  150.6449 LP  0  0  0  0  0  0  0  0  0  0  0  0  # atno 17371 bound_to 10713
  139.8713  134.9782  156.4989 LP  0  0  0  0  0  0  0  0  0  0  0  0  # atno 17394 bound_to 11000
  140.8553  133.8101  155.9209 LP  0  0  0  0  0  0  0  0  0  0  0  0  # atno 17395 bound_to 11000

$$$$
