AV-unprocessed.smi:2997|AV-procd|sdf|11413|dock5
  -GOLD-   2272016333D 1   1.00000     0.00000
 Structure written by MMmdl.
 38 40  0  0  0  0  0  0  0  0  1 V2000
  151.3118  144.9420  159.0195 C   0  0  0  0  0  0  0  0  0  0  0  0
  151.9546  143.6004  159.3244 C   0  0  0  0  0  0  0  0  0  0  0  0
  152.7044  143.4523  160.5130 C   0  0  0  0  0  0  0  0  0  0  0  0
  153.3175  142.2214  160.8338 C   0  0  0  0  0  0  0  0  0  0  0  0
  154.0836  141.8572  161.9279 N   0  0  0  0  0  0  0  0  0  0  0  0
  154.3595  140.5861  161.6499 C   0  0  0  0  0  0  0  0  0  0  0  0
  153.8620  140.0834  160.5034 N   0  0  0  0  0  0  0  0  0  0  0  0
  154.0276  138.7354  159.9901 C   0  0  0  0  0  0  0  0  0  0  0  0
  153.1538  137.7095  160.7361 C   0  0  1  0  0  0  0  0  0  0  0  0
  152.2782  137.0743  159.8222 O   0  0  0  0  0  0  0  0  0  0  0  0
  154.0051  136.6523  161.4656 C   0  0  0  0  0  0  0  0  0  0  0  0
  154.3839  137.0628  162.8062 N   0  0  0  0  0  0  0  0  0  0  0  0
  153.8478  136.6583  164.0108 C   0  0  0  0  0  0  0  0  0  0  0  0
  154.5297  137.3098  164.9982 C   0  0  0  0  0  0  0  0  0  0  0  0
  155.4776  138.0997  164.2895 C   0  0  0  0  0  0  0  0  0  0  0  0
  155.3907  137.9467  162.9778 N   0  0  0  0  0  0  0  0  0  0  0  0
  153.1595  141.1344  159.9251 C   0  0  0  0  0  0  0  0  0  0  0  0
  152.4169  141.2695  158.7388 C   0  0  0  0  0  0  0  0  0  0  0  0
  151.8106  142.5063  158.4338 C   0  0  0  0  0  0  0  0  0  0  0  0
  151.0109  142.6431  157.1503 C   0  0  0  0  0  0  0  0  0  0  0  0
  151.4927  145.6611  159.8189 H   0  0  0  0  0  0  0  0  0  0  0  0
  150.2329  144.8328  158.9070 H   0  0  0  0  0  0  0  0  0  0  0  0
  151.7166  145.3581  158.0968 H   0  0  0  0  0  0  0  0  0  0  0  0
  152.8155  144.2858  161.1910 H   0  0  0  0  0  0  0  0  0  0  0  0
  154.9603  139.9853  162.3169 H   0  0  0  0  0  0  0  0  0  0  0  0
  153.7948  138.7348  158.9241 H   0  0  0  0  0  0  0  0  0  0  0  0
  155.0811  138.4668  160.0784 H   0  0  0  0  0  0  0  0  0  0  0  0
  152.5401  138.2360  161.4685 H   0  0  0  0  0  0  0  0  0  0  0  0
  152.1271  137.6576  159.0944 H   0  0  0  0  0  0  0  0  0  0  0  0
  153.4633  135.7078  161.5325 H   0  0  0  0  0  0  0  0  0  0  0  0
  154.9165  136.4486  160.9016 H   0  0  0  0  0  0  0  0  0  0  0  0
  153.0343  135.9500  164.0643 H   0  0  0  0  0  0  0  0  0  0  0  0
  154.3748  137.2338  166.0642 H   0  0  0  0  0  0  0  0  0  0  0  0
  156.2222  138.7737  164.6867 H   0  0  0  0  0  0  0  0  0  0  0  0
  152.3165  140.4276  158.0698 H   0  0  0  0  0  0  0  0  0  0  0  0
  151.0144  141.7147  156.5785 H   0  0  0  0  0  0  0  0  0  0  0  0
  151.4316  143.4259  156.5189 H   0  0  0  0  0  0  0  0  0  0  0  0
  149.9739  142.8958  157.3716 H   0  0  0  0  0  0  0  0  0  0  0  0
  1  2  1  0  0  0  0
  1 21  1  0  0  0  0
  1 22  1  0  0  0  0
  1 23  1  0  0  0  0
  2 19  1  0  0  0  0
  2  3  2  0  0  0  0
  3  4  1  0  0  0  0
  3 24  1  0  0  0  0
  4 17  2  0  0  0  0
  4  5  1  0  0  0  0
  5  6  2  0  0  0  0
  6  7  1  0  0  0  0
  6 25  1  0  0  0  0
  7  8  1  0  0  0  0
  7 17  1  0  0  0  0
  8  9  1  0  0  0  0
  8 26  1  0  0  0  0
  8 27  1  0  0  0  0
  9 10  1  0  0  0  0
  9 11  1  0  0  0  0
  9 28  1  0  0  0  0
 10 29  1  0  0  0  0
 11 12  1  0  0  0  0
 11 30  1  0  0  0  0
 11 31  1  0  0  0  0
 12 16  1  0  0  0  0
 12 13  1  0  0  0  0
 13 14  2  0  0  0  0
 13 32  1  0  0  0  0
 14 15  1  0  0  0  0
 14 33  1  0  0  0  0
 15 16  2  0  0  0  0
 15 34  1  0  0  0  0
 17 18  1  0  0  0  0
 18 19  2  0  0  0  0
 18 35  1  0  0  0  0
 19 20  1  0  0  0  0
 20 36  1  0  0  0  0
 20 37  1  0  0  0  0
 20 38  1  0  0  0  0
M  END
> <s_m_source_file>
AV-unprocessed.smi

> <i_m_source_file_index>
2997

> <i_lp_mmshare_version>
43012

> <i_f3d_flags>
0

> <s_epik_input>
W0NIM11jKFtjSF0xKWMoW0NIM10pW2NIXWMoYzEyKW4oW2NIXW4yKVtDSDJdW0NASF0oW09IXSlbQ0gyXW4zW2NIXVtjSF1bY0hdbjM=

> <s_epik_cmdline>
J2VwaWtfcHl0aG9uJywgJy1waCcsICc3LjAnLCAnLXRuJywgJzgnLCAnLW1hJywgJzIwMCcsICctbWV0YWxfYmluZGluZycsICctaW1hZScsICc8aW5maWxlLm1hZT4nLCAnLW9tYWUnLCAnPG91dGZpbGUubWFlPic=

> <r_lp_tautomer_probability>
1

> <r_epik_Ionization_Penalty>
0.102113

> <r_epik_Ionization_Penalty_Charging>
0

> <r_epik_Ionization_Penalty_Neutral>
0.102113

> <r_epik_State_Penalty>
0.0920694

> <r_epik_Charging_Adjusted_Penalty>
0.0920694

> <i_epik_Tot_Q>
0

> <i_epik_Tot_abs_Q>
0

> <r_epik_Metal_State_Penalty>
0.0784306

> <b_epik_Metal_Only>
0

> <s_lp_Force_Field>
OPLS_2005

> <r_lp_Energy>
7.68531

> <b_lp_Chiralities_Consistent>
1

> <s_lp_Variant>
AV-unprocessed.smi:2997-2

> <Gold.Version>
5.8.1

> <Gold.Id.Protein>
6NUR|6NUR_protein|mol2

> <Gold.PLP.Fitness>
49.2799

> <Gold.PLP.PLP>
-49.3230

> <Gold.PLP.part.hbond>
-2.0000

> <Gold.PLP.part.metal>
0.0000

> <Gold.PLP.part.buried>
-4.5883

> <Gold.PLP.part.nonpolar>
-43.9318

> <Gold.PLP.part.repulsive>
0.0008

> <Gold.PLP.ligand.clash>
0.0000

> <Gold.PLP.ligand.torsion>
1.5303

> <Gold.PLP.Chemscore.Hbond>
1.0000

> <Gold.PLP.Chemscore.CHOScore>
0.0000

> <Gold.PLP.Chemscore.Metal>
0.0000

> <Gold.Chemscore.Hbonds>
donor molecule, donor type, donor heavy atom, donor atom, acceptor molecule, acceptor atom, score
      P1  H  6896  6908       L1    10  1.00

> <Gold.PLP.Chemscore.Internal.Correction>
0.0175

> <Gold.Rescore>
     Score         DG    S(hbond)    S(metal)    S(lipo)     H(rot)  DE(clash)    DE(int)     intcor
     16.38     -18.02       0.98        0.00     126.24       2.15       0.20       1.44       ----

> <Gold.Chemscore.Fitness>
16.3844

> <Gold.Chemscore.DG>
-18.0212

> <Gold.Chemscore.ZeroCoef>
-5.4800

> <Gold.Chemscore.Hbond>
0.9833

> <Gold.Chemscore.Metal>
0.0000

> <Gold.Chemscore.Lipo>
126.2371

> <Gold.Chemscore.Internal_Hbond>
0.0000

> <Gold.Chemscore.DEClash>
0.2012

> <Gold.Chemscore.DEInternal>
1.4355

> <Gold.Chemscore.Rot>
2.1534

> <Gold.Chemscore.Internal.Correction>
   9.000000E+99

> <Gold.Chemscore.Hbonds>
donor molecule, donor type, donor heavy atom, donor atom, acceptor molecule, acceptor atom, score
      P1  H  6896  6908       L1    10  0.95

> <Gold.Chemscore.Hbond.Weighted>
-3.2842

> <Gold.Chemscore.Metal.Weighted>
-0.0000

> <Gold.Chemscore.Lipo.Weighted>
-14.7697

> <Gold.Chemscore.Internal_Hbond.Weighted>
0.0000

> <Gold.Chemscore.DEClash.Weighted>
0.2012

> <Gold.Chemscore.DEInternal.Weighted>
1.4355

> <Gold.Chemscore.Rot.Weighted>
5.5127

> <Gold.Chemscore.Internal.Correction.Weighted>
   9.000000E+99

> <Gold.Protein.RotatedTorsions>
[ 6907 6896 6895 6894 ] final -109.85 input  -60.11 | X-H torsion
[ 7974 7965 7964 7962 ] final   40.39 input  175.53 | X-H torsion
[ 8008 7997 7996 7995 ] final -150.16 input   59.86 | X-H torsion
[ 10167 10162 10161 10158 ] final    7.93 input  -65.29 | X-H torsion
[ 10718 10713 10712 10709 ] final  103.28 input   66.30 | X-H torsion
[ 10763 10752 10751 10750 ] final  -49.71 input  -60.55 | X-H torsion
[ 11005 11000 10999 10996 ] final   76.05 input  -57.11 | X-H torsion

> <Gold.Protein.ActiveResidues>
 VAL166  LYS551  ARG553  GLY616  TRP617  ASP618  TYR619  PRO620  LYS621  CYS622 
 ASP623  PHE694  ASN695  SER759  ASP760  ASP761  ALA762  ILE779  LEU786  VAL792 
 PHE793  MET794  SER795  GLU796  ALA797  LYS798  CYS799  TRP800  GLU811  SER814 

> <Gold.Protein.RotatedAtoms>
  150.7588  133.9468  159.3473 H   0  0  0  0  0  0  0  0  0  0  0  0  # atno 6907 bound_to 6896
  151.7382  135.0858  160.0320 H   0  0  0  0  0  0  0  0  0  0  0  0  # atno 6908 bound_to 6896
  152.3546  133.6184  159.6005 H   0  0  0  0  0  0  0  0  0  0  0  0  # atno 6909 bound_to 6896
  146.0909  139.5539  142.9476 H   0  0  0  0  0  0  0  0  0  0  0  0  # atno 7974 bound_to 7965
  155.6191  140.0679  157.2683 H   0  0  0  0  0  0  0  0  0  0  0  0  # atno 8008 bound_to 7997
  154.4234  140.1788  156.1401 H   0  0  0  0  0  0  0  0  0  0  0  0  # atno 8009 bound_to 7997
  156.0024  140.3335  155.6862 H   0  0  0  0  0  0  0  0  0  0  0  0  # atno 8010 bound_to 7997
  140.6344  143.7921  150.7338 H   0  0  0  0  0  0  0  0  0  0  0  0  # atno 10167 bound_to 10162
  157.6777  131.0775  150.5531 H   0  0  0  0  0  0  0  0  0  0  0  0  # atno 10718 bound_to 10713
  154.0986  135.6567  153.4864 H   0  0  0  0  0  0  0  0  0  0  0  0  # atno 10763 bound_to 10752
  153.0296  135.5219  154.7309 H   0  0  0  0  0  0  0  0  0  0  0  0  # atno 10764 bound_to 10752
  154.6454  135.2994  155.0021 H   0  0  0  0  0  0  0  0  0  0  0  0  # atno 10765 bound_to 10752
  139.9315  134.7569  156.1347 H   0  0  0  0  0  0  0  0  0  0  0  0  # atno 11005 bound_to 11000
  145.6041  141.0350  143.2002 LP  0  0  0  0  0  0  0  0  0  0  0  0  # atno 17320 bound_to 7965
  144.7359  139.7587  143.7329 LP  0  0  0  0  0  0  0  0  0  0  0  0  # atno 17321 bound_to 7965
  140.1539  143.4334  152.2113 LP  0  0  0  0  0  0  0  0  0  0  0  0  # atno 17342 bound_to 10162
  139.5555  144.7369  151.4307 LP  0  0  0  0  0  0  0  0  0  0  0  0  # atno 17343 bound_to 10162
  156.5836  130.4311  149.5967 LP  0  0  0  0  0  0  0  0  0  0  0  0  # atno 17370 bound_to 10713
  156.2641  130.6979  151.1757 LP  0  0  0  0  0  0  0  0  0  0  0  0  # atno 17371 bound_to 10713
  141.0907  133.6715  156.2534 LP  0  0  0  0  0  0  0  0  0  0  0  0  # atno 17394 bound_to 11000
  140.6188  134.5383  157.5544 LP  0  0  0  0  0  0  0  0  0  0  0  0  # atno 17395 bound_to 11000

$$$$
