AV-unprocessed.smi:208|AV-procd|sdf|1606|dock2
  -GOLD-   2262019523D 1   1.00000     0.00000
 Structure written by MMmdl.
 50 53  0  0  0  0  0  0  0  0  1 V2000
  148.9614  143.0834  158.6899 C   0  0  0  0  0  0  0  0  0  0  0  0
  149.4305  141.7428  158.1035 C   0  0  0  0  0  0  0  0  0  0  0  0
  150.9358  141.6866  157.7222 C   0  0  1  0  0  0  0  0  0  0  0  0
  151.7621  142.5229  158.7248 C   0  0  0  0  0  0  0  0  0  0  0  0
  151.6340  143.7483  158.7037 O   0  0  0  0  0  0  0  0  0  0  0  0
  152.6034  141.9039  159.5870 N   0  0  0  0  0  0  0  0  0  0  0  0
  153.4004  142.6803  160.5380 C   0  0  0  0  0  0  0  0  0  0  0  0
  152.8190  140.4523  159.6412 C   0  0  0  0  0  0  0  0  0  0  0  0
  151.7734  139.6308  158.8742 C   0  0  0  0  0  0  0  0  0  0  0  0
  151.4216  140.3021  157.6271 N   0  0  0  0  0  0  0  0  0  0  0  0
  151.0454  139.5457  156.5618 C   0  0  0  0  0  0  0  0  0  0  0  0
  150.5812  140.1633  155.4424 N   0  0  0  0  0  0  0  0  0  0  0  0
  150.2393  139.4495  154.3666 C   0  0  0  0  0  0  0  0  0  0  0  0
  150.2784  138.1276  154.1972 N   0  0  0  0  0  0  0  0  0  0  0  0
  150.7243  137.4969  155.3201 C   0  0  0  0  0  0  0  0  0  0  0  0
  151.1252  138.1230  156.5356 C   0  0  0  0  0  0  0  0  0  0  0  0
  151.5092  137.1543  157.4556 N   0  0  0  0  0  0  0  0  0  0  0  0
  151.3632  136.0267  156.8170 C   0  0  0  0  0  0  0  0  0  0  0  0
  150.8865  136.1382  155.5306 N   0  0  0  0  0  0  0  0  0  0  0  0
  150.6316  135.0449  154.6038 C   0  0  0  0  0  0  0  0  0  0  0  0
  149.3957  134.1897  154.9478 C   0  0  0  0  0  0  0  0  0  0  0  0
  148.2111  135.1221  155.2769 C   0  0  0  0  0  0  0  0  0  0  0  0
  147.7890  135.8776  154.1588 O   0  0  0  0  0  0  0  0  0  0  0  0
  149.0881  133.0245  153.9954 C   0  0  0  0  0  0  0  0  0  0  0  0
  149.0707  132.0687  155.0783 O   0  0  0  0  0  0  0  0  0  0  0  0
  149.6636  133.0564  155.9493 C   0  0  0  0  0  0  0  0  0  0  0  0
  147.9445  142.9977  159.0729 H   0  0  0  0  0  0  0  0  0  0  0  0
  148.9543  143.8776  157.9455 H   0  0  0  0  0  0  0  0  0  0  0  0
  149.5995  143.3992  159.5155 H   0  0  0  0  0  0  0  0  0  0  0  0
  149.2195  140.9856  158.8600 H   0  0  0  0  0  0  0  0  0  0  0  0
  148.8060  141.4785  157.2499 H   0  0  0  0  0  0  0  0  0  0  0  0
  151.0647  142.1937  156.7680 H   0  0  0  0  0  0  0  0  0  0  0  0
  152.7538  143.1613  161.2732 H   0  0  0  0  0  0  0  0  0  0  0  0
  153.9722  143.4556  160.0257 H   0  0  0  0  0  0  0  0  0  0  0  0
  154.1133  142.0572  161.0795 H   0  0  0  0  0  0  0  0  0  0  0  0
  153.8038  140.2578  159.2142 H   0  0  0  0  0  0  0  0  0  0  0  0
  152.8573  140.1128  160.6772 H   0  0  0  0  0  0  0  0  0  0  0  0
  152.1746  138.6313  158.6996 H   0  0  0  0  0  0  0  0  0  0  0  0
  150.8747  139.5097  159.4797 H   0  0  0  0  0  0  0  0  0  0  0  0
  149.8872  140.0196  153.5196 H   0  0  0  0  0  0  0  0  0  0  0  0
  151.5924  135.0749  157.2738 H   0  0  0  0  0  0  0  0  0  0  0  0
  150.5379  135.4711  153.6042 H   0  0  0  0  0  0  0  0  0  0  0  0
  151.5228  134.4169  154.5714 H   0  0  0  0  0  0  0  0  0  0  0  0
  147.3569  134.5506  155.6413 H   0  0  0  0  0  0  0  0  0  0  0  0
  148.4754  135.8334  156.0595 H   0  0  0  0  0  0  0  0  0  0  0  0
  148.4580  135.8307  153.4928 H   0  0  0  0  0  0  0  0  0  0  0  0
  148.1267  133.1038  153.4869 H   0  0  0  0  0  0  0  0  0  0  0  0
  149.8855  132.8030  153.2855 H   0  0  0  0  0  0  0  0  0  0  0  0
  150.7231  132.8576  156.1193 H   0  0  0  0  0  0  0  0  0  0  0  0
  149.1346  133.1552  156.8976 H   0  0  0  0  0  0  0  0  0  0  0  0
  1  2  1  0  0  0  0
  1 27  1  0  0  0  0
  1 28  1  0  0  0  0
  1 29  1  0  0  0  0
  2  3  1  0  0  0  0
  2 30  1  0  0  0  0
  2 31  1  0  0  0  0
  3 10  1  0  0  0  0
  3  4  1  0  0  0  0
  3 32  1  0  0  0  0
  4  5  2  0  0  0  0
  4  6  1  0  0  0  0
  6  7  1  0  0  0  0
  6  8  1  0  0  0  0
  7 33  1  0  0  0  0
  7 34  1  0  0  0  0
  7 35  1  0  0  0  0
  8  9  1  0  0  0  0
  8 36  1  0  0  0  0
  8 37  1  0  0  0  0
  9 10  1  0  0  0  0
  9 38  1  0  0  0  0
  9 39  1  0  0  0  0
 10 11  1  0  0  0  0
 11 16  1  0  0  0  0
 11 12  2  0  0  0  0
 12 13  1  0  0  0  0
 13 14  2  0  0  0  0
 13 40  1  0  0  0  0
 14 15  1  0  0  0  0
 15 19  1  0  0  0  0
 15 16  2  0  0  0  0
 16 17  1  0  0  0  0
 17 18  2  0  0  0  0
 18 19  1  0  0  0  0
 18 41  1  0  0  0  0
 19 20  1  0  0  0  0
 20 21  1  0  0  0  0
 20 42  1  0  0  0  0
 20 43  1  0  0  0  0
 21 26  1  0  0  0  0
 21 22  1  0  0  0  0
 21 24  1  0  0  0  0
 22 23  1  0  0  0  0
 22 44  1  0  0  0  0
 22 45  1  0  0  0  0
 23 46  1  0  0  0  0
 24 25  1  0  0  0  0
 24 47  1  0  0  0  0
 24 48  1  0  0  0  0
 25 26  1  0  0  0  0
 26 49  1  0  0  0  0
 26 50  1  0  0  0  0
M  END
> <s_m_source_file>
AV-unprocessed.smi

> <i_m_source_file_index>
208

> <i_lp_mmshare_version>
43012

> <i_f3d_flags>
0

> <s_epik_input>
W0NIM11bQ0gyXVtDQEBIXTFDKD1PKU4oW0NIM10pW0NIMl1bQ0gyXU4xYyhuW2NIXW4yKWMoYzIzKW5bY0hdbjNbQ0gyXUM0KFtDSDJdW09IXSlbQ0gyXU9bQ0gyXTQ=

> <s_epik_cmdline>
J2VwaWtfcHl0aG9uJywgJy1waCcsICc3LjAnLCAnLXRuJywgJzgnLCAnLW1hJywgJzIwMCcsICctbWV0YWxfYmluZGluZycsICctaW1hZScsICc8aW5maWxlLm1hZT4nLCAnLW9tYWUnLCAnPG91dGZpbGUubWFlPic=

> <r_lp_tautomer_probability>
1

> <r_epik_Ionization_Penalty>
0.000581289

> <r_epik_Ionization_Penalty_Charging>
0

> <r_epik_Ionization_Penalty_Neutral>
0.000581289

> <r_epik_State_Penalty>
0.000280365

> <r_epik_Charging_Adjusted_Penalty>
0.000280365

> <i_epik_Tot_Q>
0

> <i_epik_Tot_abs_Q>
0

> <r_epik_Metal_State_Penalty>
-0

> <b_epik_Metal_Only>
0

> <s_lp_Force_Field>
OPLS_2005

> <r_lp_Energy>
42.9171

> <b_lp_Chiralities_Consistent>
1

> <s_lp_Variant>
AV-unprocessed.smi:208-2

> <Gold.Version>
5.8.1

> <Gold.Id.Protein>
6NUR|6NUR_protein|mol2

> <Gold.PLP.Fitness>
41.4946

> <Gold.PLP.PLP>
-36.4217

> <Gold.PLP.part.hbond>
-1.2120

> <Gold.PLP.part.metal>
0.0000

> <Gold.PLP.part.buried>
-6.1888

> <Gold.PLP.part.nonpolar>
-29.9256

> <Gold.PLP.part.repulsive>
0.3300

> <Gold.PLP.ligand.clash>
0.0000

> <Gold.PLP.ligand.torsion>
0.7321

> <Gold.PLP.Chemscore.Hbond>
1.0000

> <Gold.PLP.Chemscore.CHOScore>
1.0000

> <Gold.PLP.Chemscore.Metal>
0.0000

> <Gold.Chemscore.Hbonds>
donor molecule, donor type, donor heavy atom, donor atom, acceptor molecule, acceptor atom, score
      L1  H    23    46       P1  7948  0.98
      L1  C    13    40       P1  7957  1.00

> <Gold.PLP.Chemscore.Internal.Correction>
0.5370

> <Gold.Rescore>
     Score         DG    S(hbond)    S(metal)    S(lipo)     H(rot)  DE(clash)    DE(int)     intcor
      6.41     -10.00       0.99        0.00      64.28       2.46       0.02       3.58       ----

> <Gold.Chemscore.Fitness>
6.4072

> <Gold.Chemscore.DG>
-10.0048

> <Gold.Chemscore.ZeroCoef>
-5.4800

> <Gold.Chemscore.Hbond>
0.9884

> <Gold.Chemscore.Metal>
0.0000

> <Gold.Chemscore.Lipo>
64.2785

> <Gold.Chemscore.Internal_Hbond>
0.0000

> <Gold.Chemscore.DEClash>
0.0159

> <Gold.Chemscore.DEInternal>
3.5817

> <Gold.Chemscore.Rot>
2.4598

> <Gold.Chemscore.Internal.Correction>
   9.000000E+99

> <Gold.Chemscore.Hbonds>
donor molecule, donor type, donor heavy atom, donor atom, acceptor molecule, acceptor atom, score
      L1  H    23    46       P1  7948  0.93

> <Gold.Chemscore.Hbond.Weighted>
-3.3014

> <Gold.Chemscore.Metal.Weighted>
-0.0000

> <Gold.Chemscore.Lipo.Weighted>
-7.5206

> <Gold.Chemscore.Internal_Hbond.Weighted>
0.0000

> <Gold.Chemscore.DEClash.Weighted>
0.0159

> <Gold.Chemscore.DEInternal.Weighted>
3.5817

> <Gold.Chemscore.Rot.Weighted>
6.2972

> <Gold.Chemscore.Internal.Correction.Weighted>
   9.000000E+99

> <Gold.Protein.RotatedTorsions>
[ 6907 6896 6895 6894 ] final   69.69 input  -60.11 | X-H torsion
[ 7974 7965 7964 7962 ] final   88.96 input  175.53 | X-H torsion
[ 8008 7997 7996 7995 ] final  -50.73 input   59.86 | X-H torsion
[ 10167 10162 10161 10158 ] final  -80.54 input  -65.29 | X-H torsion
[ 10718 10713 10712 10709 ] final  177.24 input   66.30 | X-H torsion
[ 10763 10752 10751 10750 ] final  -35.32 input  -60.55 | X-H torsion
[ 11005 11000 10999 10996 ] final  -69.07 input  -57.11 | X-H torsion

> <Gold.Protein.ActiveResidues>
 VAL166  LYS551  ARG553  GLY616  TRP617  ASP618  TYR619  PRO620  LYS621  CYS622 
 ASP623  PHE694  ASN695  SER759  ASP760  ASP761  ALA762  ILE779  LEU786  VAL792 
 PHE793  MET794  SER795  GLU796  ALA797  LYS798  CYS799  TRP800  GLU811  SER814 

> <Gold.Protein.RotatedAtoms>
  152.4702  134.4979  159.9715 H   0  0  0  0  0  0  0  0  0  0  0  0  # atno 6907 bound_to 6896
  151.5008  133.3499  159.2876 H   0  0  0  0  0  0  0  0  0  0  0  0  # atno 6908 bound_to 6896
  150.8707  134.8108  159.7214 H   0  0  0  0  0  0  0  0  0  0  0  0  # atno 6909 bound_to 6896
  145.5388  139.2287  143.2577 H   0  0  0  0  0  0  0  0  0  0  0  0  # atno 7974 bound_to 7965
  154.4068  140.1265  156.4714 H   0  0  0  0  0  0  0  0  0  0  0  0  # atno 8008 bound_to 7997
  155.7176  140.3493  155.4981 H   0  0  0  0  0  0  0  0  0  0  0  0  # atno 8009 bound_to 7997
  155.9244  140.1058  157.1172 H   0  0  0  0  0  0  0  0  0  0  0  0  # atno 8010 bound_to 7997
  140.4493  143.2488  151.8512 H   0  0  0  0  0  0  0  0  0  0  0  0  # atno 10167 bound_to 10162
  156.9083  130.9901  151.3025 H   0  0  0  0  0  0  0  0  0  0  0  0  # atno 10718 bound_to 10713
  153.8612  135.6840  153.4782 H   0  0  0  0  0  0  0  0  0  0  0  0  # atno 10763 bound_to 10752
  153.1341  135.4685  154.9392 H   0  0  0  0  0  0  0  0  0  0  0  0  # atno 10764 bound_to 10752
  154.7758  135.3253  154.8045 H   0  0  0  0  0  0  0  0  0  0  0  0  # atno 10765 bound_to 10752
  141.1546  133.6755  156.6543 H   0  0  0  0  0  0  0  0  0  0  0  0  # atno 11005 bound_to 11000
  146.1995  140.6207  142.9109 LP  0  0  0  0  0  0  0  0  0  0  0  0  # atno 17320 bound_to 7965
  144.7588  140.5372  143.6750 LP  0  0  0  0  0  0  0  0  0  0  0  0  # atno 17321 bound_to 7965
  139.4795  144.5138  151.8896 LP  0  0  0  0  0  0  0  0  0  0  0  0  # atno 17342 bound_to 10162
  140.4226  144.2223  150.5887 LP  0  0  0  0  0  0  0  0  0  0  0  0  # atno 17343 bound_to 10162
  157.5983  130.8494  149.8763 LP  0  0  0  0  0  0  0  0  0  0  0  0  # atno 17370 bound_to 10713
  156.0548  130.3710  150.1117 LP  0  0  0  0  0  0  0  0  0  0  0  0  # atno 17371 bound_to 10713
  140.3296  134.7940  157.4316 LP  0  0  0  0  0  0  0  0  0  0  0  0  # atno 17394 bound_to 11000
  140.1028  134.5450  155.8337 LP  0  0  0  0  0  0  0  0  0  0  0  0  # atno 17395 bound_to 11000

$$$$
