AV-unprocessed.smi:610|AV-procd|sdf|3055|dock7
  -GOLD-   2262023573D 1   1.00000     0.00000
 Structure written by MMmdl.
 38 39  0  0  0  0  0  0  0  0  2 V2000
  149.1612  132.5052  154.2240 C   0  0  0  0  0  0  0  0  0  0  0  0
  148.3137  131.3257  153.7247 C   0  0  2  0  0  0  0  0  0  0  0  0
  149.1671  130.0609  153.5105 C   0  0  0  0  0  0  0  0  0  0  0  0
  148.3622  128.9222  153.1067 N   0  0  0  0  0  0  0  0  0  0  0  0
  148.6138  128.0473  152.0583 C   0  0  0  0  0  0  0  0  0  0  0  0
  147.5970  127.1193  152.0683 C   0  0  0  0  0  0  0  0  0  0  0  0
  146.7139  127.4025  153.1079 N   0  0  0  0  0  0  0  0  0  0  0  0
  147.2278  128.4872  153.6727 C   0  0  0  0  0  0  0  0  0  0  0  0
  147.6441  131.6851  152.4769 N   0  0  0  0  0  0  0  0  0  0  0  0
  146.4105  132.2036  152.3649 C   0  0  0  0  0  0  0  0  0  0  0  0
  145.7215  132.4850  153.3461 O   0  0  0  0  0  0  0  0  0  0  0  0
  145.8337  132.4209  150.9460 C   0  0  0  0  0  0  0  0  0  0  0  0
  146.7962  131.8391  149.9917 N   0  3  0  0  0  0  0  0  0  0  0  0
  144.4488  131.7647  150.8119 C   0  0  0  0  0  0  0  0  0  0  0  0
  143.4545  132.8028  151.3517 C   0  0  0  0  0  0  0  0  0  0  0  0
  144.1339  134.1720  151.1880 C   0  0  0  0  0  0  0  0  0  0  0  0
  145.5187  133.8890  150.5884 C   0  0  0  0  0  0  0  0  0  0  0  0
  149.6697  132.2551  155.1556 H   0  0  0  0  0  0  0  0  0  0  0  0
  148.5428  133.3830  154.4149 H   0  0  0  0  0  0  0  0  0  0  0  0
  149.9217  132.7853  153.4944 H   0  0  0  0  0  0  0  0  0  0  0  0
  147.5644  131.0991  154.4857 H   0  0  0  0  0  0  0  0  0  0  0  0
  149.9339  130.2361  152.7542 H   0  0  0  0  0  0  0  0  0  0  0  0
  149.6890  129.7969  154.4310 H   0  0  0  0  0  0  0  0  0  0  0  0
  149.4736  128.1523  151.4128 H   0  0  0  0  0  0  0  0  0  0  0  0
  147.4350  126.2756  151.4136 H   0  0  0  0  0  0  0  0  0  0  0  0
  146.7743  128.9696  154.5263 H   0  0  0  0  0  0  0  0  0  0  0  0
  148.1500  131.4906  151.6249 H   0  0  0  0  0  0  0  0  0  0  0  0
  147.5981  131.4827  150.4913 H   0  0  0  0  0  0  0  0  0  0  0  0
  147.0918  132.5546  149.3426 H   0  0  0  0  0  0  0  0  0  0  0  0
  144.2282  131.5732  149.7604 H   0  0  0  0  0  0  0  0  0  0  0  0
  144.3622  130.8094  151.3320 H   0  0  0  0  0  0  0  0  0  0  0  0
  142.5007  132.7532  150.8255 H   0  0  0  0  0  0  0  0  0  0  0  0
  143.2531  132.6163  152.4074 H   0  0  0  0  0  0  0  0  0  0  0  0
  143.5547  134.8399  150.5493 H   0  0  0  0  0  0  0  0  0  0  0  0
  144.2305  134.6563  152.1606 H   0  0  0  0  0  0  0  0  0  0  0  0
  146.2734  134.6046  150.9180 H   0  0  0  0  0  0  0  0  0  0  0  0
  145.4553  133.9928  149.5038 H   0  0  0  0  0  0  0  0  0  0  0  0
  146.3525  131.0887  149.4818 H   0  0  0  0  0  0  0  0  0  0  0  0
  1  2  1  0  0  0  0
  1 18  1  0  0  0  0
  1 19  1  0  0  0  0
  1 20  1  0  0  0  0
  2  3  1  0  0  0  0
  2  9  1  0  0  0  0
  2 21  1  0  0  0  0
  3  4  1  0  0  0  0
  3 22  1  0  0  0  0
  3 23  1  0  0  0  0
  4  8  1  0  0  0  0
  4  5  1  0  0  0  0
  5  6  2  0  0  0  0
  5 24  1  0  0  0  0
  6  7  1  0  0  0  0
  6 25  1  0  0  0  0
  7  8  2  0  0  0  0
  8 26  1  0  0  0  0
  9 10  1  0  0  0  0
  9 27  1  0  0  0  0
 10 11  2  0  0  0  0
 10 12  1  0  0  0  0
 12 17  1  0  0  0  0
 12 13  1  0  0  0  0
 12 14  1  0  0  0  0
 13 28  1  0  0  0  0
 13 29  1  0  0  0  0
 13 38  1  0  0  0  0
 14 15  1  0  0  0  0
 14 30  1  0  0  0  0
 14 31  1  0  0  0  0
 15 16  1  0  0  0  0
 15 32  1  0  0  0  0
 15 33  1  0  0  0  0
 16 17  1  0  0  0  0
 16 34  1  0  0  0  0
 16 35  1  0  0  0  0
 17 36  1  0  0  0  0
 17 37  1  0  0  0  0
M  CHG  1  13   1
M  END
> <s_m_source_file>
AV-unprocessed.smi

> <i_m_source_file_index>
610

> <i_lp_mmshare_version>
43012

> <i_f3d_flags>
0

> <s_epik_input>
W2NIXTFuW2NIXVtjSF1uMVtDSDJdW0NAQEhdKFtDSDNdKVtOSF1DKD1PKUMyKFtOSDJdKVtDSDJdW0NIMl1bQ0gyXVtDSDJdMg==

> <s_epik_cmdline>
J2VwaWtfcHl0aG9uJywgJy1waCcsICc3LjAnLCAnLXRuJywgJzgnLCAnLW1hJywgJzIwMCcsICctbWV0YWxfYmluZGluZycsICctaW1hZScsICc8aW5maWxlLm1hZT4nLCAnLW9tYWUnLCAnPG91dGZpbGUubWFlPic=

> <r_lp_tautomer_probability>
1

> <r_epik_Ionization_Penalty>
0.661147

> <r_epik_Ionization_Penalty_Charging>
0.661145

> <r_epik_Ionization_Penalty_Neutral>
1.19451e-06

> <r_epik_State_Penalty>
0.679243

> <r_epik_Charging_Adjusted_Penalty>
1.34039

> <i_epik_Tot_Q>
1

> <i_epik_Tot_abs_Q>
1

> <r_epik_Metal_State_Penalty>
0.372892

> <b_epik_Metal_Only>
0

> <s_lp_Force_Field>
OPLS_2005

> <r_lp_Energy>
25.3563

> <b_lp_Chiralities_Consistent>
1

> <s_lp_Variant>
AV-unprocessed.smi:610-3

> <Gold.Version>
5.8.1

> <Gold.Id.Protein>
6NUR|6NUR_protein|mol2

> <Gold.PLP.Fitness>
39.1841

> <Gold.PLP.PLP>
-31.8610

> <Gold.PLP.part.hbond>
-1.7775

> <Gold.PLP.part.metal>
0.0000

> <Gold.PLP.part.buried>
-5.1610

> <Gold.PLP.part.nonpolar>
-24.8177

> <Gold.PLP.part.repulsive>
0.3527

> <Gold.PLP.ligand.clash>
0.0000

> <Gold.PLP.ligand.torsion>
0.5982

> <Gold.PLP.Chemscore.Hbond>
1.8247

> <Gold.PLP.Chemscore.CHOScore>
1.0000

> <Gold.PLP.Chemscore.Metal>
0.0000

> <Gold.Chemscore.Hbonds>
donor molecule, donor type, donor heavy atom, donor atom, acceptor molecule, acceptor atom, score
      L1  H     9    27       P1 10747  1.00
      L1  H    13    28       P1 10747  0.82
      L1  C     5    24       P1 10737  0.83

> <Gold.PLP.Chemscore.Internal.Correction>
0.0454

> <Gold.Rescore>
     Score         DG    S(hbond)    S(metal)    S(lipo)     H(rot)  DE(clash)    DE(int)     intcor
     13.60     -15.12       1.92        0.00      71.38       2.00       0.04       1.48       ----

> <Gold.Chemscore.Fitness>
13.6023

> <Gold.Chemscore.DG>
-15.1235

> <Gold.Chemscore.ZeroCoef>
-5.4800

> <Gold.Chemscore.Hbond>
1.9177

> <Gold.Chemscore.Metal>
0.0000

> <Gold.Chemscore.Lipo>
71.3766

> <Gold.Chemscore.Internal_Hbond>
0.0000

> <Gold.Chemscore.DEClash>
0.0411

> <Gold.Chemscore.DEInternal>
1.4800

> <Gold.Chemscore.Rot>
1.9972

> <Gold.Chemscore.Internal.Correction>
   9.000000E+99

> <Gold.Chemscore.Hbonds>
donor molecule, donor type, donor heavy atom, donor atom, acceptor molecule, acceptor atom, score
      L1  H     9    27       P1 10747  1.00
      L1  H    13    28       P1 10747  0.75

> <Gold.Chemscore.Hbond.Weighted>
-6.4051

> <Gold.Chemscore.Metal.Weighted>
-0.0000

> <Gold.Chemscore.Lipo.Weighted>
-8.3511

> <Gold.Chemscore.Internal_Hbond.Weighted>
0.0000

> <Gold.Chemscore.DEClash.Weighted>
0.0411

> <Gold.Chemscore.DEInternal.Weighted>
1.4800

> <Gold.Chemscore.Rot.Weighted>
5.1127

> <Gold.Chemscore.Internal.Correction.Weighted>
   9.000000E+99

> <Gold.Protein.RotatedTorsions>
[ 6907 6896 6895 6894 ] final   29.17 input  -60.11 | X-H torsion
[ 7974 7965 7964 7962 ] final  147.08 input  175.53 | X-H torsion
[ 8008 7997 7996 7995 ] final  154.55 input   59.86 | X-H torsion
[ 10167 10162 10161 10158 ] final   48.03 input  -65.29 | X-H torsion
[ 10718 10713 10712 10709 ] final -124.22 input   66.30 | X-H torsion
[ 10763 10752 10751 10750 ] final  -37.47 input  -60.55 | X-H torsion
[ 11005 11000 10999 10996 ] final -153.17 input  -57.11 | X-H torsion

> <Gold.Protein.ActiveResidues>
 VAL166  LYS551  ARG553  GLY616  TRP617  ASP618  TYR619  PRO620  LYS621  CYS622 
 ASP623  PHE694  ASN695  SER759  ASP760  ASP761  ALA762  ILE779  LEU786  VAL792 
 PHE793  MET794  SER795  GLU796  ALA797  LYS798  CYS799  TRP800  GLU811  SER814 

> <Gold.Protein.RotatedAtoms>
  152.0276  134.9786  160.0571 H   0  0  0  0  0  0  0  0  0  0  0  0  # atno 6907 bound_to 6896
  152.1276  133.4384  159.4713 H   0  0  0  0  0  0  0  0  0  0  0  0  # atno 6908 bound_to 6896
  150.6853  134.2378  159.4503 H   0  0  0  0  0  0  0  0  0  0  0  0  # atno 6909 bound_to 6896
  144.8620  139.5985  143.5926 H   0  0  0  0  0  0  0  0  0  0  0  0  # atno 7974 bound_to 7965
  156.2525  140.1963  156.6663 H   0  0  0  0  0  0  0  0  0  0  0  0  # atno 8008 bound_to 7997
  154.6426  140.0581  156.9889 H   0  0  0  0  0  0  0  0  0  0  0  0  # atno 8009 bound_to 7997
  155.1540  140.3254  155.4428 H   0  0  0  0  0  0  0  0  0  0  0  0  # atno 8010 bound_to 7997
  140.2975  144.2973  150.6226 H   0  0  0  0  0  0  0  0  0  0  0  0  # atno 10167 bound_to 10162
  156.1568  130.6574  150.9994 H   0  0  0  0  0  0  0  0  0  0  0  0  # atno 10718 bound_to 10713
  153.8968  135.6806  153.4757 H   0  0  0  0  0  0  0  0  0  0  0  0  # atno 10763 bound_to 10752
  153.1151  135.4765  154.9099 H   0  0  0  0  0  0  0  0  0  0  0  0  # atno 10764 bound_to 10752
  154.7595  135.3207  154.8359 H   0  0  0  0  0  0  0  0  0  0  0  0  # atno 10765 bound_to 10752
  140.7110  134.3833  157.5197 H   0  0  0  0  0  0  0  0  0  0  0  0  # atno 11005 bound_to 11000
  146.2867  139.7024  142.9190 LP  0  0  0  0  0  0  0  0  0  0  0  0  # atno 17320 bound_to 7965
  145.4295  141.0414  143.2919 LP  0  0  0  0  0  0  0  0  0  0  0  0  # atno 17321 bound_to 7965
  140.5679  143.2184  151.7650 LP  0  0  0  0  0  0  0  0  0  0  0  0  # atno 17342 bound_to 10162
  139.4923  144.4257  151.9928 LP  0  0  0  0  0  0  0  0  0  0  0  0  # atno 17343 bound_to 10162
  157.6701  131.0863  150.7632 LP  0  0  0  0  0  0  0  0  0  0  0  0  # atno 17370 bound_to 10713
  156.7697  130.4825  149.5421 LP  0  0  0  0  0  0  0  0  0  0  0  0  # atno 17371 bound_to 10713
  139.8872  134.8890  156.2543 LP  0  0  0  0  0  0  0  0  0  0  0  0  # atno 17394 bound_to 11000
  141.0084  133.7110  156.1072 LP  0  0  0  0  0  0  0  0  0  0  0  0  # atno 17395 bound_to 11000

$$$$
