AV-unprocessed.smi:682|AV-procd|sdf|3329|dock2
  -GOLD-   22720 0293D 1   1.00000     0.00000
 Structure written by MMmdl.
 41 42  0  0  0  0  0  0  0  0  1 V2000
  149.1706  141.6911  154.4278 C   0  0  0  0  0  0  0  0  0  0  0  0
  150.2068  140.7363  154.2384 O   0  0  0  0  0  0  0  0  0  0  0  0
  150.3082  139.7073  155.2242 C   0  0  2  0  0  0  0  0  0  0  0  0
  150.7525  140.3073  156.5672 C   0  0  0  0  0  0  0  0  0  0  0  0
  151.0665  138.4740  154.7010 C   0  0  0  0  0  0  0  0  0  0  0  0
  149.9795  137.6329  155.3664 C   0  0  2  0  0  0  0  0  0  0  0  0
  149.6404  136.4420  154.5948 N   0  0  0  0  0  0  0  0  0  0  0  0
  149.8059  135.1862  155.0307 C   0  0  0  0  0  0  0  0  0  0  0  0
  150.2725  134.9061  156.1348 O   0  0  0  0  0  0  0  0  0  0  0  0
  149.3962  134.2938  154.1150 N   0  0  0  0  0  0  0  0  0  0  0  0
  149.4078  132.8814  154.2296 C   0  0  0  0  0  0  0  0  0  0  0  0
  149.8779  132.0669  155.2987 C   0  0  0  0  0  0  0  0  0  0  0  0
  149.7120  130.7814  155.0245 N   0  0  0  0  0  0  0  0  0  0  0  0
  149.1421  130.7537  153.7955 N   0  0  0  0  0  0  0  0  0  0  0  0
  148.8218  129.4777  153.1921 C   0  0  0  0  0  0  0  0  0  0  0  0
  148.9420  132.0196  153.2825 C   0  0  0  0  0  0  0  0  0  0  0  0
  149.0138  138.8315  155.1786 C   0  0  0  0  0  0  0  0  0  0  0  0
  147.9930  139.0497  156.3000 C   0  0  0  0  0  0  0  0  0  0  0  0
  148.2094  138.8760  153.8635 C   0  0  0  0  0  0  0  0  0  0  0  0
  149.2640  142.4724  153.6736 H   0  0  0  0  0  0  0  0  0  0  0  0
  149.2293  142.1693  155.4056 H   0  0  0  0  0  0  0  0  0  0  0  0
  148.1823  141.2469  154.3124 H   0  0  0  0  0  0  0  0  0  0  0  0
  150.7001  139.5779  157.3749 H   0  0  0  0  0  0  0  0  0  0  0  0
  150.1253  141.1529  156.8504 H   0  0  0  0  0  0  0  0  0  0  0  0
  151.7847  140.6546  156.5358 H   0  0  0  0  0  0  0  0  0  0  0  0
  151.0779  138.3952  153.6121 H   0  0  0  0  0  0  0  0  0  0  0  0
  152.0635  138.3377  155.1211 H   0  0  0  0  0  0  0  0  0  0  0  0
  150.2103  137.4289  156.4147 H   0  0  0  0  0  0  0  0  0  0  0  0
  149.2505  136.5860  153.6750 H   0  0  0  0  0  0  0  0  0  0  0  0
  149.0361  134.6634  153.2473 H   0  0  0  0  0  0  0  0  0  0  0  0
  150.3221  132.3469  156.2421 H   0  0  0  0  0  0  0  0  0  0  0  0
  148.4477  129.6259  152.1786 H   0  0  0  0  0  0  0  0  0  0  0  0
  148.0563  128.9734  153.7826 H   0  0  0  0  0  0  0  0  0  0  0  0
  149.7142  128.8522  153.1517 H   0  0  0  0  0  0  0  0  0  0  0  0
  148.4966  132.1911  152.3134 H   0  0  0  0  0  0  0  0  0  0  0  0
  147.1628  138.3462  156.2290 H   0  0  0  0  0  0  0  0  0  0  0  0
  147.5756  140.0564  156.2679 H   0  0  0  0  0  0  0  0  0  0  0  0
  148.4333  138.9113  157.2871 H   0  0  0  0  0  0  0  0  0  0  0  0
  147.4385  138.1051  153.8363 H   0  0  0  0  0  0  0  0  0  0  0  0
  148.8397  138.7266  152.9868 H   0  0  0  0  0  0  0  0  0  0  0  0
  147.7085  139.8362  153.7357 H   0  0  0  0  0  0  0  0  0  0  0  0
  1  2  1  0  0  0  0
  1 20  1  0  0  0  0
  1 21  1  0  0  0  0
  1 22  1  0  0  0  0
  2  3  1  0  0  0  0
  3 17  1  0  0  0  0
  3  4  1  0  0  0  0
  3  5  1  0  0  0  0
  4 23  1  0  0  0  0
  4 24  1  0  0  0  0
  4 25  1  0  0  0  0
  5  6  1  0  0  0  0
  5 26  1  0  0  0  0
  5 27  1  0  0  0  0
  6  7  1  0  0  0  0
  6 17  1  0  0  0  0
  6 28  1  0  0  0  0
  7  8  1  0  0  0  0
  7 29  1  0  0  0  0
  8  9  2  0  0  0  0
  8 10  1  0  0  0  0
 10 11  1  0  0  0  0
 10 30  1  0  0  0  0
 11 16  2  0  0  0  0
 11 12  1  0  0  0  0
 12 13  2  0  0  0  0
 12 31  1  0  0  0  0
 13 14  1  0  0  0  0
 14 15  1  0  0  0  0
 14 16  1  0  0  0  0
 15 32  1  0  0  0  0
 15 33  1  0  0  0  0
 15 34  1  0  0  0  0
 16 35  1  0  0  0  0
 17 18  1  0  0  0  0
 17 19  1  0  0  0  0
 18 36  1  0  0  0  0
 18 37  1  0  0  0  0
 18 38  1  0  0  0  0
 19 39  1  0  0  0  0
 19 40  1  0  0  0  0
 19 41  1  0  0  0  0
M  END
> <s_m_source_file>
AV-unprocessed.smi

> <i_m_source_file_index>
682

> <i_lp_mmshare_version>
43012

> <i_f3d_flags>
0

> <s_epik_input>
W0NIM11PW0NAQF0xKFtDSDNdKVtDSDJdW0NASF0oQzEoW0NIM10pW0NIM10pW05IXUMoPU8pW05IXWMyW2NIXW5uKFtDSDNdKVtjSF0y

> <s_epik_cmdline>
J2VwaWtfcHl0aG9uJywgJy1waCcsICc3LjAnLCAnLXRuJywgJzgnLCAnLW1hJywgJzIwMCcsICctbWV0YWxfYmluZGluZycsICctaW1hZScsICc8aW5maWxlLm1hZT4nLCAnLW9tYWUnLCAnPG91dGZpbGUubWFlPic=

> <r_lp_tautomer_probability>
1

> <r_epik_Ionization_Penalty>
0.000192302

> <r_epik_Ionization_Penalty_Charging>
0

> <r_epik_Ionization_Penalty_Neutral>
0.000192302

> <r_epik_State_Penalty>
-0

> <r_epik_Charging_Adjusted_Penalty>
0

> <i_epik_Tot_Q>
0

> <i_epik_Tot_abs_Q>
0

> <r_epik_Metal_State_Penalty>
-0

> <b_epik_Metal_Only>
0

> <s_lp_Force_Field>
OPLS_2005

> <r_lp_Energy>
23.9348

> <b_lp_Chiralities_Consistent>
1

> <s_lp_Variant>
AV-unprocessed.smi:682-4

> <Gold.Version>
5.8.1

> <Gold.Id.Protein>
6NUR|6NUR_protein|mol2

> <Gold.PLP.Fitness>
38.1188

> <Gold.PLP.PLP>
-28.4076

> <Gold.PLP.part.hbond>
-2.6417

> <Gold.PLP.part.metal>
0.0000

> <Gold.PLP.part.buried>
0.0401

> <Gold.PLP.part.nonpolar>
-24.2168

> <Gold.PLP.part.repulsive>
0.2280

> <Gold.PLP.ligand.clash>
0.0000

> <Gold.PLP.ligand.torsion>
0.2933

> <Gold.PLP.Chemscore.Hbond>
2.4432

> <Gold.PLP.Chemscore.CHOScore>
0.8656

> <Gold.PLP.Chemscore.Metal>
0.0000

> <Gold.Chemscore.Hbonds>
donor molecule, donor type, donor heavy atom, donor atom, acceptor molecule, acceptor atom, score
      L1  H     7    29       P1  7948  1.00
      L1  H    10    30       P1  7948  0.67
      P1  H  7989  7998       L1     2  0.72
      L1  C    16    35       P1 10747  0.88

> <Gold.PLP.Chemscore.Internal.Correction>
0.3713

> <Gold.Rescore>
     Score         DG    S(hbond)    S(metal)    S(lipo)     H(rot)  DE(clash)    DE(int)     intcor
     15.89     -17.20       2.40        0.00      58.73       1.23       0.04       1.26       ----

> <Gold.Chemscore.Fitness>
15.8944

> <Gold.Chemscore.DG>
-17.1963

> <Gold.Chemscore.ZeroCoef>
-5.4800

> <Gold.Chemscore.Hbond>
2.3961

> <Gold.Chemscore.Metal>
0.0000

> <Gold.Chemscore.Lipo>
58.7289

> <Gold.Chemscore.Internal_Hbond>
0.0000

> <Gold.Chemscore.DEClash>
0.0402

> <Gold.Chemscore.DEInternal>
1.2616

> <Gold.Chemscore.Rot>
1.2336

> <Gold.Chemscore.Internal.Correction>
   9.000000E+99

> <Gold.Chemscore.Hbonds>
donor molecule, donor type, donor heavy atom, donor atom, acceptor molecule, acceptor atom, score
      L1  H     7    29       P1  7948  0.94
      L1  H    10    30       P1  7948  0.06
      P1  H  7989  7998       L1     2  0.53

> <Gold.Chemscore.Hbond.Weighted>
-8.0031

> <Gold.Chemscore.Metal.Weighted>
-0.0000

> <Gold.Chemscore.Lipo.Weighted>
-6.8713

> <Gold.Chemscore.Internal_Hbond.Weighted>
0.0000

> <Gold.Chemscore.DEClash.Weighted>
0.0402

> <Gold.Chemscore.DEInternal.Weighted>
1.2616

> <Gold.Chemscore.Rot.Weighted>
3.1581

> <Gold.Chemscore.Internal.Correction.Weighted>
   9.000000E+99

> <Gold.Protein.RotatedTorsions>
[ 6907 6896 6895 6894 ] final   86.03 input  -60.11 | X-H torsion
[ 7974 7965 7964 7962 ] final  128.16 input  175.53 | X-H torsion
[ 8008 7997 7996 7995 ] final -169.71 input   59.86 | X-H torsion
[ 10167 10162 10161 10158 ] final  142.62 input  -65.29 | X-H torsion
[ 10718 10713 10712 10709 ] final   -3.71 input   66.30 | X-H torsion
[ 10763 10752 10751 10750 ] final   46.82 input  -60.55 | X-H torsion
[ 11005 11000 10999 10996 ] final  -64.76 input  -57.11 | X-H torsion

> <Gold.Protein.ActiveResidues>
 VAL166  LYS551  ARG553  GLY616  TRP617  ASP618  TYR619  PRO620  LYS621  CYS622 
 ASP623  PHE694  ASN695  SER759  ASP760  ASP761  ALA762  ILE779  LEU786  VAL792 
 PHE793  MET794  SER795  GLU796  ALA797  LYS798  CYS799  TRP800  GLU811  SER814 

> <Gold.Protein.RotatedAtoms>
  152.5386  134.2494  159.8892 H   0  0  0  0  0  0  0  0  0  0  0  0  # atno 6907 bound_to 6896
  151.2458  133.4369  159.2617 H   0  0  0  0  0  0  0  0  0  0  0  0  # atno 6908 bound_to 6896
  151.0584  134.9734  159.8304 H   0  0  0  0  0  0  0  0  0  0  0  0  # atno 6909 bound_to 6896
  145.0426  139.3950  143.5094 H   0  0  0  0  0  0  0  0  0  0  0  0  # atno 7974 bound_to 7965
  155.9086  140.1053  157.1296 H   0  0  0  0  0  0  0  0  0  0  0  0  # atno 8008 bound_to 7997
  154.4036  140.1278  156.4593 H   0  0  0  0  0  0  0  0  0  0  0  0  # atno 8009 bound_to 7997
  155.7337  140.3468  155.5074 H   0  0  0  0  0  0  0  0  0  0  0  0  # atno 8010 bound_to 7997
  139.4989  144.6095  151.6304 H   0  0  0  0  0  0  0  0  0  0  0  0  # atno 10167 bound_to 10162
  156.7721  130.5303  149.5765 H   0  0  0  0  0  0  0  0  0  0  0  0  # atno 10718 bound_to 10713
  152.9806  135.5996  154.3661 H   0  0  0  0  0  0  0  0  0  0  0  0  # atno 10763 bound_to 10752
  154.3339  135.2768  155.2460 H   0  0  0  0  0  0  0  0  0  0  0  0  # atno 10764 bound_to 10752
  154.4571  135.5975  153.6286 H   0  0  0  0  0  0  0  0  0  0  0  0  # atno 10765 bound_to 10752
  141.1434  133.6670  156.5882 H   0  0  0  0  0  0  0  0  0  0  0  0  # atno 11005 bound_to 11000
  146.3511  140.0035  142.8674 LP  0  0  0  0  0  0  0  0  0  0  0  0  # atno 17320 bound_to 7965
  145.1628  140.9681  143.4367 LP  0  0  0  0  0  0  0  0  0  0  0  0  # atno 17321 bound_to 7965
  140.5765  144.0019  150.6244 LP  0  0  0  0  0  0  0  0  0  0  0  0  # atno 17342 bound_to 10162
  140.3154  143.3171  152.0837 LP  0  0  0  0  0  0  0  0  0  0  0  0  # atno 17343 bound_to 10162
  156.1271  130.6152  151.0280 LP  0  0  0  0  0  0  0  0  0  0  0  0  # atno 17370 bound_to 10713
  157.6686  131.0866  150.7668 LP  0  0  0  0  0  0  0  0  0  0  0  0  # atno 17371 bound_to 10713
  140.3784  134.7545  157.4645 LP  0  0  0  0  0  0  0  0  0  0  0  0  # atno 17394 bound_to 11000
  140.0657  134.5933  155.8698 LP  0  0  0  0  0  0  0  0  0  0  0  0  # atno 17395 bound_to 11000

$$$$
