AV-unprocessed.smi:813|AV-procd|sdf|3820|dock7
  -GOLD-   22720 1263D 1   1.00000     0.00000
 Structure written by MMmdl.
 35 36  0  0  0  0  0  0  0  0  2 V2000
  149.3891  140.2041  154.8997 C   0  0  0  0  0  0  0  0  0  0  0  0
  149.6221  141.6798  155.2638 C   0  0  1  0  0  0  0  0  0  0  0  0
  148.3916  142.2003  155.8587 N   0  0  0  0  0  0  0  0  0  0  0  0
  147.7004  141.6350  156.8604 C   0  0  0  0  0  0  0  0  0  0  0  0
  148.0984  140.5820  157.3646 O   0  0  0  0  0  0  0  0  0  0  0  0
  146.5914  142.3233  157.2143 N   0  5  0  0  0  0  0  0  0  0  0  0
  146.4731  142.8107  158.4604 C   0  0  0  0  0  0  0  0  0  0  0  0
  147.4800  142.7655  159.3476 N   0  0  0  0  0  0  0  0  0  0  0  0
  147.1521  143.3264  160.5747 N   0  0  0  0  0  0  0  0  0  0  0  0
  145.9030  143.7913  160.5777 C   0  0  0  0  0  0  0  0  0  0  0  0
  145.0142  143.5872  159.0830 S   0  0  0  0  0  0  0  0  0  0  0  0
  150.7784  141.7535  156.2735 C   0  0  0  0  0  0  0  0  0  0  0  0
  151.4225  140.7448  156.5669 O   0  0  0  0  0  0  0  0  0  0  0  0
  151.0337  142.9646  156.7909 N   0  0  0  0  0  0  0  0  0  0  0  0
  152.0687  143.2564  157.7784 C   0  0  0  0  0  0  0  0  0  0  0  0
  151.6834  142.7199  159.1717 C   0  0  0  0  0  0  0  0  0  0  0  0
  151.3200  143.9470  160.0070 C   0  0  0  0  0  0  0  0  0  0  0  0
  152.2080  145.0532  159.4467 C   0  0  0  0  0  0  0  0  0  0  0  0
  152.2556  144.7774  157.9425 C   0  0  0  0  0  0  0  0  0  0  0  0
  150.2786  139.7625  154.4488 H   0  0  0  0  0  0  0  0  0  0  0  0
  148.5774  140.1068  154.1778 H   0  0  0  0  0  0  0  0  0  0  0  0
  149.1251  139.6053  155.7728 H   0  0  0  0  0  0  0  0  0  0  0  0
  149.8665  142.2425  154.3606 H   0  0  0  0  0  0  0  0  0  0  0  0
  148.0258  143.0571  155.4702 H   0  0  0  0  0  0  0  0  0  0  0  0
  145.5033  144.2596  161.4647 H   0  0  0  0  0  0  0  0  0  0  0  0
  150.4525  143.7356  156.4957 H   0  0  0  0  0  0  0  0  0  0  0  0
  153.0117  142.8060  157.4625 H   0  0  0  0  0  0  0  0  0  0  0  0
  150.8758  141.9865  159.1501 H   0  0  0  0  0  0  0  0  0  0  0  0
  152.5492  142.2271  159.6162 H   0  0  0  0  0  0  0  0  0  0  0  0
  150.2709  144.2014  159.8497 H   0  0  0  0  0  0  0  0  0  0  0  0
  151.4693  143.7869  161.0752 H   0  0  0  0  0  0  0  0  0  0  0  0
  151.8344  146.0508  159.6793 H   0  0  0  0  0  0  0  0  0  0  0  0
  153.2102  144.9658  159.8684 H   0  0  0  0  0  0  0  0  0  0  0  0
  153.1870  145.1270  157.4962 H   0  0  0  0  0  0  0  0  0  0  0  0
  151.4436  145.3206  157.4561 H   0  0  0  0  0  0  0  0  0  0  0  0
  1  2  1  0  0  0  0
  1 20  1  0  0  0  0
  1 21  1  0  0  0  0
  1 22  1  0  0  0  0
  2  3  1  0  0  0  0
  2 12  1  0  0  0  0
  2 23  1  0  0  0  0
  3  4  1  0  0  0  0
  3 24  1  0  0  0  0
  4  5  2  0  0  0  0
  4  6  1  0  0  0  0
  6  7  1  0  0  0  0
  7 11  1  0  0  0  0
  7  8  2  0  0  0  0
  8  9  1  0  0  0  0
  9 10  2  0  0  0  0
 10 11  1  0  0  0  0
 10 25  1  0  0  0  0
 12 13  2  0  0  0  0
 12 14  1  0  0  0  0
 14 15  1  0  0  0  0
 14 26  1  0  0  0  0
 15 19  1  0  0  0  0
 15 16  1  0  0  0  0
 15 27  1  0  0  0  0
 16 17  1  0  0  0  0
 16 28  1  0  0  0  0
 16 29  1  0  0  0  0
 17 18  1  0  0  0  0
 17 30  1  0  0  0  0
 17 31  1  0  0  0  0
 18 19  1  0  0  0  0
 18 32  1  0  0  0  0
 18 33  1  0  0  0  0
 19 34  1  0  0  0  0
 19 35  1  0  0  0  0
M  CHG  1   6  -1
M  END
> <s_m_source_file>
AV-unprocessed.smi

> <i_m_source_file_index>
813

> <i_lp_mmshare_version>
43012

> <i_f3d_flags>
0

> <s_epik_input>
W0NIMl0xW0NIMl1bQ0gyXVtDSDJdW0NIXTFbTkhdQyg9TylbQ0BIXShbQ0gzXSlbTkhdQyg9TylbTkhdYzJubltjSF1zMg==

> <s_epik_cmdline>
J2VwaWtfcHl0aG9uJywgJy1waCcsICc3LjAnLCAnLXRuJywgJzgnLCAnLW1hJywgJzIwMCcsICctbWV0YWxfYmluZGluZycsICctaW1hZScsICc8aW5maWxlLm1hZT4nLCAnLW9tYWUnLCAnPG91dGZpbGUubWFlPic=

> <r_lp_tautomer_probability>
1

> <r_epik_Ionization_Penalty>
3.13682

> <r_epik_Ionization_Penalty_Charging>
3.09647

> <r_epik_Ionization_Penalty_Neutral>
0.0403479

> <r_epik_State_Penalty>
3.09328

> <r_epik_Charging_Adjusted_Penalty>
6.18976

> <i_epik_Tot_Q>
-1

> <i_epik_Tot_abs_Q>
1

> <r_epik_Metal_State_Penalty>
0.461392

> <b_epik_Metal_Only>
1

> <s_lp_Force_Field>
OPLS_2005

> <r_lp_Energy>
15.2454

> <b_lp_Chiralities_Consistent>
1

> <s_lp_Variant>
AV-unprocessed.smi:813-4

> <Gold.Version>
5.8.1

> <Gold.Id.Protein>
6NUR|6NUR_protein|mol2

> <Gold.PLP.Fitness>
39.3060

> <Gold.PLP.PLP>
-34.4997

> <Gold.PLP.part.hbond>
-5.5101

> <Gold.PLP.part.metal>
0.0000

> <Gold.PLP.part.buried>
-6.0098

> <Gold.PLP.part.nonpolar>
-23.7010

> <Gold.PLP.part.repulsive>
0.3879

> <Gold.PLP.ligand.clash>
0.0000

> <Gold.PLP.ligand.torsion>
0.8366

> <Gold.PLP.Chemscore.Hbond>
2.1460

> <Gold.PLP.Chemscore.CHOScore>
0.0000

> <Gold.PLP.Chemscore.Metal>
0.0000

> <Gold.Chemscore.Hbonds>
donor molecule, donor type, donor heavy atom, donor atom, acceptor molecule, acceptor atom, score
      L1  H     3    24       P1  8028  0.50
      L1  H    14    26       P1  8028  1.00
      P1  H  6933  6944       L1     9  0.60

> <Gold.PLP.Chemscore.Internal.Correction>
0.0416

> <Gold.Rescore>
     Score         DG    S(hbond)    S(metal)    S(lipo)     H(rot)  DE(clash)    DE(int)     intcor
     13.12     -15.58       1.61        0.00      78.09       1.72       0.03       2.43       ----

> <Gold.Chemscore.Fitness>
13.1214

> <Gold.Chemscore.DG>
-15.5814

> <Gold.Chemscore.ZeroCoef>
-5.4800

> <Gold.Chemscore.Hbond>
1.6066

> <Gold.Chemscore.Metal>
0.0000

> <Gold.Chemscore.Lipo>
78.0942

> <Gold.Chemscore.Internal_Hbond>
0.0000

> <Gold.Chemscore.DEClash>
0.0294

> <Gold.Chemscore.DEInternal>
2.4306

> <Gold.Chemscore.Rot>
1.7194

> <Gold.Chemscore.Internal.Correction>
   9.000000E+99

> <Gold.Chemscore.Hbonds>
donor molecule, donor type, donor heavy atom, donor atom, acceptor molecule, acceptor atom, score
      L1  H     3    24       P1  8028  0.41
      L1  H    14    26       P1  8028  0.94
      P1  H  6933  6944       L1     9  0.04

> <Gold.Chemscore.Hbond.Weighted>
-5.3660

> <Gold.Chemscore.Metal.Weighted>
-0.0000

> <Gold.Chemscore.Lipo.Weighted>
-9.1370

> <Gold.Chemscore.Internal_Hbond.Weighted>
0.0000

> <Gold.Chemscore.DEClash.Weighted>
0.0294

> <Gold.Chemscore.DEInternal.Weighted>
2.4306

> <Gold.Chemscore.Rot.Weighted>
4.4016

> <Gold.Chemscore.Internal.Correction.Weighted>
   9.000000E+99

> <Gold.Protein.RotatedTorsions>
[ 6907 6896 6895 6894 ] final   78.80 input  -60.11 | X-H torsion
[ 7974 7965 7964 7962 ] final   89.26 input  175.53 | X-H torsion
[ 8008 7997 7996 7995 ] final -143.72 input   59.86 | X-H torsion
[ 10167 10162 10161 10158 ] final -145.63 input  -65.29 | X-H torsion
[ 10718 10713 10712 10709 ] final  -76.04 input   66.30 | X-H torsion
[ 10763 10752 10751 10750 ] final   -5.10 input  -60.55 | X-H torsion
[ 11005 11000 10999 10996 ] final  173.45 input  -57.11 | X-H torsion

> <Gold.Protein.ActiveResidues>
 VAL166  LYS551  ARG553  GLY616  TRP617  ASP618  TYR619  PRO620  LYS621  CYS622 
 ASP623  PHE694  ASN695  SER759  ASP760  ASP761  ALA762  ILE779  LEU786  VAL792 
 PHE793  MET794  SER795  GLU796  ALA797  LYS798  CYS799  TRP800  GLU811  SER814 

> <Gold.Protein.RotatedAtoms>
  152.5174  134.3609  159.9284 H   0  0  0  0  0  0  0  0  0  0  0  0  # atno 6907 bound_to 6896
  151.3561  133.3900  159.2693 H   0  0  0  0  0  0  0  0  0  0  0  0  # atno 6908 bound_to 6896
  150.9688  134.9083  159.7834 H   0  0  0  0  0  0  0  0  0  0  0  0  # atno 6909 bound_to 6896
  145.5347  139.2285  143.2599 H   0  0  0  0  0  0  0  0  0  0  0  0  # atno 7974 bound_to 7965
  155.5152  140.0587  157.2916 H   0  0  0  0  0  0  0  0  0  0  0  0  # atno 8008 bound_to 7997
  154.4537  140.1962  156.0389 H   0  0  0  0  0  0  0  0  0  0  0  0  # atno 8009 bound_to 7997
  156.0756  140.3254  155.7634 H   0  0  0  0  0  0  0  0  0  0  0  0  # atno 8010 bound_to 7997
  139.7788  143.8131  152.2636 H   0  0  0  0  0  0  0  0  0  0  0  0  # atno 10167 bound_to 10162
  156.0188  130.4455  150.3133 H   0  0  0  0  0  0  0  0  0  0  0  0  # atno 10718 bound_to 10713
  153.3939  135.7003  153.6474 H   0  0  0  0  0  0  0  0  0  0  0  0  # atno 10763 bound_to 10752
  153.5035  135.3647  155.2552 H   0  0  0  0  0  0  0  0  0  0  0  0  # atno 10764 bound_to 10752
  154.8705  135.4117  154.3262 H   0  0  0  0  0  0  0  0  0  0  0  0  # atno 10765 bound_to 10752
  140.3406  134.7279  157.4199 H   0  0  0  0  0  0  0  0  0  0  0  0  # atno 11005 bound_to 11000
  146.2021  140.6165  142.9098 LP  0  0  0  0  0  0  0  0  0  0  0  0  # atno 17320 bound_to 7965
  144.7608  140.5416  143.6737 LP  0  0  0  0  0  0  0  0  0  0  0  0  # atno 17321 bound_to 7965
  139.8187  144.7305  150.9601 LP  0  0  0  0  0  0  0  0  0  0  0  0  # atno 17342 bound_to 10162
  140.7817  143.4180  151.0887 LP  0  0  0  0  0  0  0  0  0  0  0  0  # atno 17343 bound_to 10162
  157.1235  131.0253  151.2999 LP  0  0  0  0  0  0  0  0  0  0  0  0  # atno 17370 bound_to 10713
  157.4609  130.7653  149.7235 LP  0  0  0  0  0  0  0  0  0  0  0  0  # atno 17371 bound_to 10713
  140.0784  134.5765  155.8566 LP  0  0  0  0  0  0  0  0  0  0  0  0  # atno 17394 bound_to 11000
  141.2039  133.6635  156.6092 LP  0  0  0  0  0  0  0  0  0  0  0  0  # atno 17395 bound_to 11000

$$$$
