AV-unprocessed.smi:258|AV-procd|sdf|1967|dock4
  -GOLD-   2262021123D 1   1.00000     0.00000
 Structure written by MMmdl.
 57 60  0  0  0  0  0  0  0  0  1 V2000
  146.8087  132.1061  150.0722 O   0  0  0  0  0  0  0  0  0  0  0  0
  146.0877  132.6135  151.1750 C   0  0  0  0  0  0  0  0  0  0  0  0
  147.0323  133.3483  152.1340 C   0  0  0  0  0  0  0  0  0  0  0  0
  147.3984  132.4668  153.1859 O   0  0  0  0  0  0  0  0  0  0  0  0
  148.5377  132.8749  153.9319 C   0  0  2  0  0  0  0  0  0  0  0  0
  148.9576  131.7951  154.9487 C   0  0  0  0  0  0  0  0  0  0  0  0
  150.0952  132.3194  155.8374 C   0  0  0  0  0  0  0  0  0  0  0  0
  149.7000  133.6355  156.5259 C   0  0  0  0  0  0  0  0  0  0  0  0
  149.2369  134.6205  155.5466 N   0  0  0  0  0  0  0  0  0  0  0  0
  149.2594  135.9177  155.9510 C   0  0  0  0  0  0  0  0  0  0  0  0
  148.2047  136.3568  156.6870 N   0  0  0  0  0  0  0  0  0  0  0  0
  148.1604  137.6163  157.1286 C   0  0  0  0  0  0  0  0  0  0  0  0
  149.0510  138.5928  156.9527 N   0  0  0  0  0  0  0  0  0  0  0  0
  150.1129  138.1657  156.2123 C   0  0  0  0  0  0  0  0  0  0  0  0
  150.2987  136.8584  155.6749 C   0  0  0  0  0  0  0  0  0  0  0  0
  151.4968  136.8159  154.9678 N   0  0  0  0  0  0  0  0  0  0  0  0
  151.9916  138.0163  155.0897 C   0  0  0  0  0  0  0  0  0  0  0  0
  151.2290  138.8893  155.8288 N   0  0  0  0  0  0  0  0  0  0  0  0
  151.5452  140.2772  156.1202 C   0  0  0  0  0  0  0  0  0  0  0  0
  151.2760  140.6665  157.5945 C   0  0  1  0  0  0  0  0  0  0  0  0
  151.7469  139.5432  158.5481 C   0  0  0  0  0  0  0  0  0  0  0  0
  153.1351  139.3232  158.4083 O   0  0  0  0  0  0  0  0  0  0  0  0
  151.8471  142.0672  157.9542 C   0  0  2  0  0  0  0  0  0  0  0  0
  151.8212  142.4398  159.4334 C   0  0  0  0  0  0  0  0  0  0  0  0
  151.7220  143.9575  159.3859 C   0  0  0  0  0  0  0  0  0  0  0  0
  150.8275  144.1747  158.3077 O   0  0  0  0  0  0  0  0  0  0  0  0
  151.1553  143.2593  157.2683 C   0  0  0  0  0  0  0  0  0  0  0  0
  148.1611  134.1764  154.6617 C   0  0  0  0  0  0  0  0  0  0  0  0
  147.2953  131.3468  150.3551 H   0  0  0  0  0  0  0  0  0  0  0  0
  145.3416  133.3080  150.7884 H   0  0  0  0  0  0  0  0  0  0  0  0
  145.5504  131.8118  151.6828 H   0  0  0  0  0  0  0  0  0  0  0  0
  147.8996  133.7389  151.6012 H   0  0  0  0  0  0  0  0  0  0  0  0
  146.5054  134.2017  152.5634 H   0  0  0  0  0  0  0  0  0  0  0  0
  149.3682  133.0897  153.2565 H   0  0  0  0  0  0  0  0  0  0  0  0
  148.1038  131.5194  155.5687 H   0  0  0  0  0  0  0  0  0  0  0  0
  149.2834  130.8866  154.4430 H   0  0  0  0  0  0  0  0  0  0  0  0
  150.3611  131.5725  156.5859 H   0  0  0  0  0  0  0  0  0  0  0  0
  150.9866  132.4812  155.2300 H   0  0  0  0  0  0  0  0  0  0  0  0
  148.8974  133.4537  157.2418 H   0  0  0  0  0  0  0  0  0  0  0  0
  150.5513  134.0050  157.0980 H   0  0  0  0  0  0  0  0  0  0  0  0
  147.2869  137.8785  157.7069 H   0  0  0  0  0  0  0  0  0  0  0  0
  152.9344  138.2994  154.6445 H   0  0  0  0  0  0  0  0  0  0  0  0
  152.5951  140.4330  155.8702 H   0  0  0  0  0  0  0  0  0  0  0  0
  150.9732  140.9185  155.4489 H   0  0  0  0  0  0  0  0  0  0  0  0
  150.1940  140.7484  157.7121 H   0  0  0  0  0  0  0  0  0  0  0  0
  151.5365  139.7937  159.5876 H   0  0  0  0  0  0  0  0  0  0  0  0
  151.2419  138.6008  158.3405 H   0  0  0  0  0  0  0  0  0  0  0  0
  153.4685  138.9793  159.2231 H   0  0  0  0  0  0  0  0  0  0  0  0
  152.8878  142.1116  157.6314 H   0  0  0  0  0  0  0  0  0  0  0  0
  150.9399  142.0420  159.9346 H   0  0  0  0  0  0  0  0  0  0  0  0
  152.7005  142.0931  159.9763 H   0  0  0  0  0  0  0  0  0  0  0  0
  151.3462  144.3861  160.3151 H   0  0  0  0  0  0  0  0  0  0  0  0
  152.6899  144.4082  159.1604 H   0  0  0  0  0  0  0  0  0  0  0  0
  151.8375  143.7410  156.5666 H   0  0  0  0  0  0  0  0  0  0  0  0
  150.2593  142.9865  156.7115 H   0  0  0  0  0  0  0  0  0  0  0  0
  147.9409  134.9472  153.9219 H   0  0  0  0  0  0  0  0  0  0  0  0
  147.2572  134.0211  155.2519 H   0  0  0  0  0  0  0  0  0  0  0  0
  1  2  1  0  0  0  0
  1 29  1  0  0  0  0
  2  3  1  0  0  0  0
  2 30  1  0  0  0  0
  2 31  1  0  0  0  0
  3  4  1  0  0  0  0
  3 32  1  0  0  0  0
  3 33  1  0  0  0  0
  4  5  1  0  0  0  0
  5 28  1  0  0  0  0
  5  6  1  0  0  0  0
  5 34  1  0  0  0  0
  6  7  1  0  0  0  0
  6 35  1  0  0  0  0
  6 36  1  0  0  0  0
  7  8  1  0  0  0  0
  7 37  1  0  0  0  0
  7 38  1  0  0  0  0
  8  9  1  0  0  0  0
  8 39  1  0  0  0  0
  8 40  1  0  0  0  0
  9 10  1  0  0  0  0
  9 28  1  0  0  0  0
 10 15  1  0  0  0  0
 10 11  2  0  0  0  0
 11 12  1  0  0  0  0
 12 13  2  0  0  0  0
 12 41  1  0  0  0  0
 13 14  1  0  0  0  0
 14 18  1  0  0  0  0
 14 15  2  0  0  0  0
 15 16  1  0  0  0  0
 16 17  2  0  0  0  0
 17 18  1  0  0  0  0
 17 42  1  0  0  0  0
 18 19  1  0  0  0  0
 19 20  1  0  0  0  0
 19 43  1  0  0  0  0
 19 44  1  0  0  0  0
 20 21  1  0  0  0  0
 20 23  1  0  0  0  0
 20 45  1  0  0  0  0
 21 22  1  0  0  0  0
 21 46  1  0  0  0  0
 21 47  1  0  0  0  0
 22 48  1  0  0  0  0
 23 27  1  0  0  0  0
 23 24  1  0  0  0  0
 23 49  1  0  0  0  0
 24 25  1  0  0  0  0
 24 50  1  0  0  0  0
 24 51  1  0  0  0  0
 25 26  1  0  0  0  0
 25 52  1  0  0  0  0
 25 53  1  0  0  0  0
 26 27  1  0  0  0  0
 27 54  1  0  0  0  0
 27 55  1  0  0  0  0
 28 56  1  0  0  0  0
 28 57  1  0  0  0  0
M  END
> <s_m_source_file>
AV-unprocessed.smi

> <i_m_source_file_index>
258

> <i_lp_mmshare_version>
43012

> <i_f3d_flags>
0

> <s_epik_input>
W09IXVtDSDJdW0NIMl1PW0NAQEhdMVtDSDJdW0NIMl1bQ0gyXU4oW0NIMl0xKWMobltjSF1uMiljKGMyMyluW2NIXW4zW0NIMl1bQ0BIXShbQ0gyXVtPSF0pW0NAQEhdNFtDSDJdW0NIMl1PW0NIMl00

> <s_epik_cmdline>
J2VwaWtfcHl0aG9uJywgJy1waCcsICc3LjAnLCAnLXRuJywgJzgnLCAnLW1hJywgJzIwMCcsICctbWV0YWxfYmluZGluZycsICctaW1hZScsICc8aW5maWxlLm1hZT4nLCAnLW9tYWUnLCAnPG91dGZpbGUubWFlPic=

> <r_lp_tautomer_probability>
1

> <r_epik_Ionization_Penalty>
0.00349036

> <r_epik_Ionization_Penalty_Charging>
0

> <r_epik_Ionization_Penalty_Neutral>
0.00349036

> <r_epik_State_Penalty>
0.00229798

> <r_epik_Charging_Adjusted_Penalty>
0.00229798

> <i_epik_Tot_Q>
0

> <i_epik_Tot_abs_Q>
0

> <r_epik_Metal_State_Penalty>
-0

> <b_epik_Metal_Only>
0

> <s_lp_Force_Field>
OPLS_2005

> <r_lp_Energy>
47.4534

> <b_lp_Chiralities_Consistent>
1

> <s_lp_Variant>
AV-unprocessed.smi:258-3

> <Gold.Version>
5.8.1

> <Gold.Id.Protein>
6NUR|6NUR_protein|mol2

> <Gold.PLP.Fitness>
52.1720

> <Gold.PLP.PLP>
-46.6966

> <Gold.PLP.part.hbond>
-3.0571

> <Gold.PLP.part.metal>
0.0000

> <Gold.PLP.part.buried>
-7.6288

> <Gold.PLP.part.nonpolar>
-36.1197

> <Gold.PLP.part.repulsive>
0.4200

> <Gold.PLP.ligand.clash>
0.0000

> <Gold.PLP.ligand.torsion>
2.1337

> <Gold.PLP.Chemscore.Hbond>
3.0000

> <Gold.PLP.Chemscore.CHOScore>
0.0000

> <Gold.PLP.Chemscore.Metal>
0.0000

> <Gold.Chemscore.Hbonds>
donor molecule, donor type, donor heavy atom, donor atom, acceptor molecule, acceptor atom, score
      L1  H     1    29       P1 10747  0.69
      P1  H  7997  8008       L1    22  0.75
      P1  H 10752 10763       L1    16  1.00

> <Gold.PLP.Chemscore.Internal.Correction>
0.7428

> <Gold.Rescore>
     Score         DG    S(hbond)    S(metal)    S(lipo)     H(rot)  DE(clash)    DE(int)     intcor
     15.33     -17.38       2.95        0.00     103.75       3.94       0.12       1.93       ----

> <Gold.Chemscore.Fitness>
15.3317

> <Gold.Chemscore.DG>
-17.3824

> <Gold.Chemscore.ZeroCoef>
-5.4800

> <Gold.Chemscore.Hbond>
2.9456

> <Gold.Chemscore.Metal>
0.0000

> <Gold.Chemscore.Lipo>
103.7530

> <Gold.Chemscore.Internal_Hbond>
0.0000

> <Gold.Chemscore.DEClash>
0.1193

> <Gold.Chemscore.DEInternal>
1.9314

> <Gold.Chemscore.Rot>
3.9356

> <Gold.Chemscore.Internal.Correction>
   9.000000E+99

> <Gold.Chemscore.Hbonds>
donor molecule, donor type, donor heavy atom, donor atom, acceptor molecule, acceptor atom, score
      L1  H     1    29       P1 10747  0.70
      P1  H  7997  8008       L1    22  0.71
      P1  H 10752 10763       L1    16  0.65

> <Gold.Chemscore.Hbond.Weighted>
-9.8384

> <Gold.Chemscore.Metal.Weighted>
-0.0000

> <Gold.Chemscore.Lipo.Weighted>
-12.1391

> <Gold.Chemscore.Internal_Hbond.Weighted>
0.0000

> <Gold.Chemscore.DEClash.Weighted>
0.1193

> <Gold.Chemscore.DEInternal.Weighted>
1.9314

> <Gold.Chemscore.Rot.Weighted>
10.0751

> <Gold.Chemscore.Internal.Correction.Weighted>
   9.000000E+99

> <Gold.Protein.RotatedTorsions>
[ 6907 6896 6895 6894 ] final  157.19 input  -60.11 | X-H torsion
[ 7974 7965 7964 7962 ] final   79.15 input  175.53 | X-H torsion
[ 8008 7997 7996 7995 ] final  -83.22 input   59.86 | X-H torsion
[ 10167 10162 10161 10158 ] final  123.52 input  -65.29 | X-H torsion
[ 10718 10713 10712 10709 ] final  115.23 input   66.30 | X-H torsion
[ 10763 10752 10751 10750 ] final   57.46 input  -60.55 | X-H torsion
[ 11005 11000 10999 10996 ] final  168.56 input  -57.11 | X-H torsion

> <Gold.Protein.ActiveResidues>
 VAL166  LYS551  ARG553  GLY616  TRP617  ASP618  TYR619  PRO620  LYS621  CYS622 
 ASP623  PHE694  ASN695  SER759  ASP760  ASP761  ALA762  ILE779  LEU786  VAL792 
 PHE793  MET794  SER795  GLU796  ALA797  LYS798  CYS799  TRP800  GLU811  SER814 

> <Gold.Protein.RotatedAtoms>
  152.0187  133.3890  159.4249 H   0  0  0  0  0  0  0  0  0  0  0  0  # atno 6907 bound_to 6896
  150.6892  134.3650  159.4976 H   0  0  0  0  0  0  0  0  0  0  0  0  # atno 6908 bound_to 6896
  152.1421  134.9054  160.0604 H   0  0  0  0  0  0  0  0  0  0  0  0  # atno 6909 bound_to 6896
  145.6679  139.2489  143.1885 H   0  0  0  0  0  0  0  0  0  0  0  0  # atno 7974 bound_to 7965
  154.6167  140.0622  156.9564 H   0  0  0  0  0  0  0  0  0  0  0  0  # atno 8008 bound_to 7997
  155.1883  140.3305  155.4344 H   0  0  0  0  0  0  0  0  0  0  0  0  # atno 8009 bound_to 7997
  156.2408  140.1885  156.6975 H   0  0  0  0  0  0  0  0  0  0  0  0  # atno 8010 bound_to 7997
  139.5795  144.6979  151.3566 H   0  0  0  0  0  0  0  0  0  0  0  0  # atno 10167 bound_to 10162
  157.6234  131.1009  150.7300 H   0  0  0  0  0  0  0  0  0  0  0  0  # atno 10718 bound_to 10713
  152.9850  135.5641  154.5395 H   0  0  0  0  0  0  0  0  0  0  0  0  # atno 10763 bound_to 10752
  154.4852  135.2790  155.1542 H   0  0  0  0  0  0  0  0  0  0  0  0  # atno 10764 bound_to 10752
  154.3034  135.6303  153.5487 H   0  0  0  0  0  0  0  0  0  0  0  0  # atno 10765 bound_to 10752
  140.2885  134.7693  157.3818 H   0  0  0  0  0  0  0  0  0  0  0  0  # atno 11005 bound_to 11000
  146.1070  140.7475  142.9521 LP  0  0  0  0  0  0  0  0  0  0  0  0  # atno 17320 bound_to 7965
  144.7067  140.3878  143.7113 LP  0  0  0  0  0  0  0  0  0  0  0  0  # atno 17321 bound_to 7965
  140.7074  143.7478  150.7506 LP  0  0  0  0  0  0  0  0  0  0  0  0  # atno 17342 bound_to 10162
  140.1006  143.4791  152.2427 LP  0  0  0  0  0  0  0  0  0  0  0  0  # atno 17343 bound_to 10162
  156.7653  130.4811  149.5429 LP  0  0  0  0  0  0  0  0  0  0  0  0  # atno 17370 bound_to 10713
  156.1392  130.6233  151.0443 LP  0  0  0  0  0  0  0  0  0  0  0  0  # atno 17371 bound_to 10713
  140.1217  134.5210  155.8178 LP  0  0  0  0  0  0  0  0  0  0  0  0  # atno 17394 bound_to 11000
  141.2150  133.6759  156.6878 LP  0  0  0  0  0  0  0  0  0  0  0  0  # atno 17395 bound_to 11000

$$$$
