AV-unprocessed.smi:2324|AV-procd|sdf|9294|dock5
  -GOLD-   2272012513D 1   1.00000     0.00000
 Structure written by MMmdl.
 37 39  0  0  0  0  0  0  0  0  1 V2000
  150.4455  134.6297  155.9200 O   0  0  0  0  0  0  0  0  0  0  0  0
  150.0213  135.0789  154.8566 C   0  0  0  0  0  0  0  0  0  0  0  0
  149.4448  134.2695  153.9426 N   0  0  0  0  0  0  0  0  0  0  0  0
  149.1987  132.8653  153.9430 C   0  0  0  0  0  0  0  0  0  0  0  0
  150.0755  132.1133  154.7541 C   0  0  0  0  0  0  0  0  0  0  0  0
  149.9052  130.7195  154.8122 C   0  0  0  0  0  0  0  0  0  0  0  0
  148.8625  130.1667  154.0499 C   0  0  0  0  0  0  0  0  0  0  0  0
  148.0451  130.9226  153.2859 N   0  0  0  0  0  0  0  0  0  0  0  0
  148.2145  132.2480  153.2366 N   0  0  0  0  0  0  0  0  0  0  0  0
  150.0981  136.3816  154.5377 N   0  0  0  0  0  0  0  0  0  0  0  0
  150.6776  137.4261  155.3761 C   0  0  1  0  0  0  0  0  0  0  0  0
  151.9716  136.9163  156.0239 C   0  0  0  0  0  0  0  0  0  0  0  0
  152.6570  138.0375  156.8193 C   0  0  0  0  0  0  0  0  0  0  0  0
  152.9083  139.1633  155.9805 O   0  0  0  0  0  0  0  0  0  0  0  0
  151.7530  139.7406  155.3693 C   0  0  2  0  0  0  0  0  0  0  0  0
  150.8740  140.4626  156.3821 C   0  0  0  0  0  0  0  0  0  0  0  0
  150.1189  141.7120  155.9935 C   0  0  0  0  0  0  0  0  0  0  0  0
  151.2881  141.8019  156.9447 C   0  0  0  0  0  0  0  0  0  0  0  0
  150.9912  138.6833  154.5463 C   0  0  0  0  0  0  0  0  0  0  0  0
  149.1312  134.7449  153.1089 H   0  0  0  0  0  0  0  0  0  0  0  0
  150.8625  132.5903  155.3200 H   0  0  0  0  0  0  0  0  0  0  0  0
  150.5492  130.0985  155.4171 H   0  0  0  0  0  0  0  0  0  0  0  0
  148.6805  129.1022  154.0508 H   0  0  0  0  0  0  0  0  0  0  0  0
  149.7240  136.6702  153.6445 H   0  0  0  0  0  0  0  0  0  0  0  0
  149.9706  137.6773  156.1686 H   0  0  0  0  0  0  0  0  0  0  0  0
  151.7601  136.0702  156.6787 H   0  0  0  0  0  0  0  0  0  0  0  0
  152.6548  136.5528  155.2549 H   0  0  0  0  0  0  0  0  0  0  0  0
  152.0552  138.3261  157.6813 H   0  0  0  0  0  0  0  0  0  0  0  0
  153.6089  137.6820  157.2138 H   0  0  0  0  0  0  0  0  0  0  0  0
  152.1251  140.4940  154.6740 H   0  0  0  0  0  0  0  0  0  0  0  0
  150.3508  139.8057  157.0732 H   0  0  0  0  0  0  0  0  0  0  0  0
  150.2595  142.0972  154.9855 H   0  0  0  0  0  0  0  0  0  0  0  0
  149.1211  141.8422  156.4070 H   0  0  0  0  0  0  0  0  0  0  0  0
  151.0711  141.9938  157.9935 H   0  0  0  0  0  0  0  0  0  0  0  0
  152.2072  142.2476  156.5696 H   0  0  0  0  0  0  0  0  0  0  0  0
  151.6042  138.4021  153.6887 H   0  0  0  0  0  0  0  0  0  0  0  0
  150.0759  139.1146  154.1389 H   0  0  0  0  0  0  0  0  0  0  0  0
  1  2  2  0  0  0  0
  2  3  1  0  0  0  0
  2 10  1  0  0  0  0
  3  4  1  0  0  0  0
  3 20  1  0  0  0  0
  4  9  1  0  0  0  0
  4  5  2  0  0  0  0
  5  6  1  0  0  0  0
  5 21  1  0  0  0  0
  6  7  2  0  0  0  0
  6 22  1  0  0  0  0
  7  8  1  0  0  0  0
  7 23  1  0  0  0  0
  8  9  2  0  0  0  0
 10 11  1  0  0  0  0
 10 24  1  0  0  0  0
 11 19  1  0  0  0  0
 11 12  1  0  0  0  0
 11 25  1  0  0  0  0
 12 13  1  0  0  0  0
 12 26  1  0  0  0  0
 12 27  1  0  0  0  0
 13 14  1  0  0  0  0
 13 28  1  0  0  0  0
 13 29  1  0  0  0  0
 14 15  1  0  0  0  0
 15 16  1  0  0  0  0
 15 19  1  0  0  0  0
 15 30  1  0  0  0  0
 16 18  1  0  0  0  0
 16 17  1  0  0  0  0
 16 31  1  0  0  0  0
 17 18  1  0  0  0  0
 17 32  1  0  0  0  0
 17 33  1  0  0  0  0
 18 34  1  0  0  0  0
 18 35  1  0  0  0  0
 19 36  1  0  0  0  0
 19 37  1  0  0  0  0
M  END
> <s_m_source_file>
AV-unprocessed.smi

> <i_m_source_file_index>
2324

> <i_lp_mmshare_version>
43012

> <i_f3d_flags>
0

> <s_epik_input>
bjFuW2NIXVtjSF1bY0hdYzFbTkhdQyg9TylbTkhdW0NAQEhdMltDSDJdW0NIMl1PW0NASF0oW0NIMl0yKVtDSF0zW0NIMl1bQ0gyXTM=

> <s_epik_cmdline>
J2VwaWtfcHl0aG9uJywgJy1waCcsICc3LjAnLCAnLXRuJywgJzgnLCAnLW1hJywgJzIwMCcsICctbWV0YWxfYmluZGluZycsICctaW1hZScsICc8aW5maWxlLm1hZT4nLCAnLW9tYWUnLCAnPG91dGZpbGUubWFlPic=

> <r_lp_tautomer_probability>
1

> <r_epik_Ionization_Penalty>
0.00521499

> <r_epik_Ionization_Penalty_Charging>
0

> <r_epik_Ionization_Penalty_Neutral>
0.00521499

> <r_epik_State_Penalty>
-0

> <r_epik_Charging_Adjusted_Penalty>
0

> <i_epik_Tot_Q>
0

> <i_epik_Tot_abs_Q>
0

> <r_epik_Metal_State_Penalty>
-0

> <b_epik_Metal_Only>
0

> <s_lp_Force_Field>
OPLS_2005

> <r_lp_Energy>
28.1305

> <b_lp_Chiralities_Consistent>
1

> <s_lp_Variant>
AV-unprocessed.smi:2324-4

> <Gold.Version>
5.8.1

> <Gold.Id.Protein>
6NUR|6NUR_protein|mol2

> <Gold.PLP.Fitness>
37.3249

> <Gold.PLP.PLP>
-30.0180

> <Gold.PLP.part.hbond>
-3.1524

> <Gold.PLP.part.metal>
0.0000

> <Gold.PLP.part.buried>
-2.1205

> <Gold.PLP.part.nonpolar>
-24.7401

> <Gold.PLP.part.repulsive>
0.3254

> <Gold.PLP.ligand.clash>
0.0000

> <Gold.PLP.ligand.torsion>
0.9363

> <Gold.PLP.Chemscore.Hbond>
2.7000

> <Gold.PLP.Chemscore.CHOScore>
0.0000

> <Gold.PLP.Chemscore.Metal>
0.0000

> <Gold.Chemscore.Hbonds>
donor molecule, donor type, donor heavy atom, donor atom, acceptor molecule, acceptor atom, score
      L1  H     3    20       P1  7948  0.55
      L1  H    10    24       P1  7948  1.00
      P1  H  7997  8009       L1    14  1.00

> <Gold.PLP.Chemscore.Internal.Correction>
1.0794

> <Gold.Rescore>
     Score         DG    S(hbond)    S(metal)    S(lipo)     H(rot)  DE(clash)    DE(int)     intcor
     13.46     -17.17       2.29        0.00      61.80       1.25       0.07       3.64       ----

> <Gold.Chemscore.Fitness>
13.4607

> <Gold.Chemscore.DG>
-17.1696

> <Gold.Chemscore.ZeroCoef>
-5.4800

> <Gold.Chemscore.Hbond>
2.2912

> <Gold.Chemscore.Metal>
0.0000

> <Gold.Chemscore.Lipo>
61.8001

> <Gold.Chemscore.Internal_Hbond>
0.0000

> <Gold.Chemscore.DEClash>
0.0688

> <Gold.Chemscore.DEInternal>
3.6401

> <Gold.Chemscore.Rot>
1.2476

> <Gold.Chemscore.Internal.Correction>
   9.000000E+99

> <Gold.Chemscore.Hbonds>
donor molecule, donor type, donor heavy atom, donor atom, acceptor molecule, acceptor atom, score
      L1  H     3    20       P1  7948  0.03
      L1  H    10    24       P1  7948  0.51
      P1  H  7997  8009       L1    14  0.84

> <Gold.Chemscore.Hbond.Weighted>
-7.6527

> <Gold.Chemscore.Metal.Weighted>
-0.0000

> <Gold.Chemscore.Lipo.Weighted>
-7.2306

> <Gold.Chemscore.Internal_Hbond.Weighted>
0.0000

> <Gold.Chemscore.DEClash.Weighted>
0.0688

> <Gold.Chemscore.DEInternal.Weighted>
3.6401

> <Gold.Chemscore.Rot.Weighted>
3.1938

> <Gold.Chemscore.Internal.Correction.Weighted>
   9.000000E+99

> <Gold.Protein.RotatedTorsions>
[ 6907 6896 6895 6894 ] final  -24.33 input  -60.11 | X-H torsion
[ 7974 7965 7964 7962 ] final -150.98 input  175.53 | X-H torsion
[ 8008 7997 7996 7995 ] final -172.40 input   59.86 | X-H torsion
[ 10167 10162 10161 10158 ] final  149.90 input  -65.29 | X-H torsion
[ 10718 10713 10712 10709 ] final -169.52 input   66.30 | X-H torsion
[ 10763 10752 10751 10750 ] final  -79.39 input  -60.55 | X-H torsion
[ 11005 11000 10999 10996 ] final   74.16 input  -57.11 | X-H torsion

> <Gold.Protein.ActiveResidues>
 VAL166  LYS551  ARG553  GLY616  TRP617  ASP618  TYR619  PRO620  LYS621  CYS622 
 ASP623  PHE694  ASN695  SER759  ASP760  ASP761  ALA762  ILE779  LEU786  VAL792 
 PHE793  MET794  SER795  GLU796  ALA797  LYS798  CYS799  TRP800  GLU811  SER814 

> <Gold.Protein.RotatedAtoms>
  151.1911  135.0403  159.8832 H   0  0  0  0  0  0  0  0  0  0  0  0  # atno 6907 bound_to 6896
  152.5439  134.0955  159.8305 H   0  0  0  0  0  0  0  0  0  0  0  0  # atno 6908 bound_to 6896
  151.1083  133.5144  159.2639 H   0  0  0  0  0  0  0  0  0  0  0  0  # atno 6909 bound_to 6896
  144.7876  140.4858  143.5795 H   0  0  0  0  0  0  0  0  0  0  0  0  # atno 7974 bound_to 7965
  155.9441  140.1114  157.1031 H   0  0  0  0  0  0  0  0  0  0  0  0  # atno 8008 bound_to 7997
  154.4095  140.1213  156.5032 H   0  0  0  0  0  0  0  0  0  0  0  0  # atno 8009 bound_to 7997
  155.6925  140.3472  155.4902 H   0  0  0  0  0  0  0  0  0  0  0  0  # atno 8010 bound_to 7997
  139.4856  144.5565  151.7308 H   0  0  0  0  0  0  0  0  0  0  0  0  # atno 10167 bound_to 10162
  156.7127  130.9240  151.3091 H   0  0  0  0  0  0  0  0  0  0  0  0  # atno 10718 bound_to 10713
  154.5380  135.5697  153.6815 H   0  0  0  0  0  0  0  0  0  0  0  0  # atno 10763 bound_to 10752
  152.9956  135.6221  154.2541 H   0  0  0  0  0  0  0  0  0  0  0  0  # atno 10764 bound_to 10752
  154.2470  135.2860  155.2811 H   0  0  0  0  0  0  0  0  0  0  0  0  # atno 10765 bound_to 10752
  139.9404  134.7409  156.1114 H   0  0  0  0  0  0  0  0  0  0  0  0  # atno 11005 bound_to 11000
  145.5881  139.1493  143.3198 LP  0  0  0  0  0  0  0  0  0  0  0  0  # atno 17320 bound_to 7965
  146.2114  140.6008  142.9058 LP  0  0  0  0  0  0  0  0  0  0  0  0  # atno 17321 bound_to 7965
  140.5127  144.1000  150.6000 LP  0  0  0  0  0  0  0  0  0  0  0  0  # atno 17342 bound_to 10162
  140.3931  143.2742  152.0037 LP  0  0  0  0  0  0  0  0  0  0  0  0  # atno 17343 bound_to 10162
  157.6929  130.9252  150.0564 LP  0  0  0  0  0  0  0  0  0  0  0  0  # atno 17370 bound_to 10713
  156.1649  130.3645  149.9246 LP  0  0  0  0  0  0  0  0  0  0  0  0  # atno 17371 bound_to 10713
  141.1036  133.6668  156.2812 LP  0  0  0  0  0  0  0  0  0  0  0  0  # atno 17394 bound_to 11000
  140.5966  134.5597  157.5509 LP  0  0  0  0  0  0  0  0  0  0  0  0  # atno 17395 bound_to 11000

$$$$
