AV-unprocessed.smi:2300|AV-procd|sdf|9232|dock5
  -GOLD-   2272012453D 1   1.00000     0.00000
 Structure written by MMmdl.
 51 52  0  0  0  0  0  0  0  0  1 V2000
  146.7642  138.3347  152.1739 C   0  0  0  0  0  0  0  0  0  0  0  0
  147.2204  138.9969  153.4697 C   0  0  0  0  0  0  0  0  0  0  0  0
  146.8664  138.5382  154.5554 O   0  0  0  0  0  0  0  0  0  0  0  0
  148.0055  140.0767  153.3415 N   0  0  0  0  0  0  0  0  0  0  0  0
  148.5562  140.8487  154.4502 C   0  0  0  0  0  0  0  0  0  0  0  0
  149.6774  140.0853  155.1751 C   0  0  2  0  0  0  0  0  0  0  0  0
  150.4555  140.9981  156.1416 C   0  0  0  0  0  0  0  0  0  0  0  0
  151.5770  140.2761  156.7396 N   0  0  0  0  0  0  0  0  0  0  0  0
  152.2344  140.8734  157.8367 C   0  0  0  0  0  0  0  0  0  0  0  0
  151.8151  142.1270  158.3421 C   0  0  0  0  0  0  0  0  0  0  0  0
  152.5316  142.6476  159.4406 C   0  0  0  0  0  0  0  0  0  0  0  0
  152.1663  143.9902  160.0578 C   0  0  0  0  0  0  0  0  0  0  0  0
  151.8624  143.8640  161.5589 C   0  0  0  0  0  0  0  0  0  0  0  0
  151.0302  144.6813  159.2877 C   0  0  0  0  0  0  0  0  0  0  0  0
  153.5719  141.9805  159.9869 N   0  0  0  0  0  0  0  0  0  0  0  0
  153.8959  140.8072  159.4367 C   0  0  0  0  0  0  0  0  0  0  0  0
  155.0708  140.0564  160.0493 C   0  0  0  0  0  0  0  0  0  0  0  0
  155.3539  138.7355  159.3173 C   0  0  0  0  0  0  0  0  0  0  0  0
  154.9126  139.8815  161.5676 C   0  0  0  0  0  0  0  0  0  0  0  0
  153.2860  140.2277  158.3986 N   0  0  0  0  0  0  0  0  0  0  0  0
  152.4407  139.6275  155.7564 C   0  0  0  0  0  0  0  0  0  0  0  0
  151.6047  138.7747  154.7874 C   0  0  0  0  0  0  0  0  0  0  0  0
  150.5836  139.5740  154.2004 O   0  0  0  0  0  0  0  0  0  0  0  0
  147.5965  138.2368  151.4761 H   0  0  0  0  0  0  0  0  0  0  0  0
  145.9835  138.9300  151.7000 H   0  0  0  0  0  0  0  0  0  0  0  0
  146.3651  137.3386  152.3683 H   0  0  0  0  0  0  0  0  0  0  0  0
  148.2499  140.3792  152.4098 H   0  0  0  0  0  0  0  0  0  0  0  0
  148.9382  141.7916  154.0582 H   0  0  0  0  0  0  0  0  0  0  0  0
  147.7592  141.1058  155.1500 H   0  0  0  0  0  0  0  0  0  0  0  0
  149.2429  139.2562  155.7370 H   0  0  0  0  0  0  0  0  0  0  0  0
  150.8331  141.8744  155.6126 H   0  0  0  0  0  0  0  0  0  0  0  0
  149.7802  141.3529  156.9212 H   0  0  0  0  0  0  0  0  0  0  0  0
  150.9964  142.6780  157.9048 H   0  0  0  0  0  0  0  0  0  0  0  0
  153.0425  144.6336  159.9682 H   0  0  0  0  0  0  0  0  0  0  0  0
  152.7077  143.4299  162.0940 H   0  0  0  0  0  0  0  0  0  0  0  0
  150.9933  143.2303  161.7388 H   0  0  0  0  0  0  0  0  0  0  0  0
  151.6578  144.8393  162.0010 H   0  0  0  0  0  0  0  0  0  0  0  0
  151.2946  144.8161  158.2386 H   0  0  0  0  0  0  0  0  0  0  0  0
  150.8176  145.6666  159.7035 H   0  0  0  0  0  0  0  0  0  0  0  0
  150.1085  144.0997  159.3271 H   0  0  0  0  0  0  0  0  0  0  0  0
  155.9576  140.6770  159.9071 H   0  0  0  0  0  0  0  0  0  0  0  0
  155.5411  138.9087  158.2572 H   0  0  0  0  0  0  0  0  0  0  0  0
  154.5134  138.0457  159.3997 H   0  0  0  0  0  0  0  0  0  0  0  0
  156.2316  138.2383  159.7311 H   0  0  0  0  0  0  0  0  0  0  0  0
  154.7902  140.8458  162.0614 H   0  0  0  0  0  0  0  0  0  0  0  0
  155.7890  139.3981  162.0001 H   0  0  0  0  0  0  0  0  0  0  0  0
  154.0432  139.2695  161.8103 H   0  0  0  0  0  0  0  0  0  0  0  0
  152.9825  140.3960  155.2038 H   0  0  0  0  0  0  0  0  0  0  0  0
  153.1874  138.9918  156.2300 H   0  0  0  0  0  0  0  0  0  0  0  0
  152.2400  138.3747  153.9972 H   0  0  0  0  0  0  0  0  0  0  0  0
  151.1624  137.9205  155.3024 H   0  0  0  0  0  0  0  0  0  0  0  0
  1  2  1  0  0  0  0
  1 24  1  0  0  0  0
  1 25  1  0  0  0  0
  1 26  1  0  0  0  0
  2  3  2  0  0  0  0
  2  4  1  0  0  0  0
  4  5  1  0  0  0  0
  4 27  1  0  0  0  0
  5  6  1  0  0  0  0
  5 28  1  0  0  0  0
  5 29  1  0  0  0  0
  6 23  1  0  0  0  0
  6  7  1  0  0  0  0
  6 30  1  0  0  0  0
  7  8  1  0  0  0  0
  7 31  1  0  0  0  0
  7 32  1  0  0  0  0
  8  9  1  0  0  0  0
  8 21  1  0  0  0  0
  9 20  1  0  0  0  0
  9 10  2  0  0  0  0
 10 11  1  0  0  0  0
 10 33  1  0  0  0  0
 11 12  1  0  0  0  0
 11 15  2  0  0  0  0
 12 13  1  0  0  0  0
 12 14  1  0  0  0  0
 12 34  1  0  0  0  0
 13 35  1  0  0  0  0
 13 36  1  0  0  0  0
 13 37  1  0  0  0  0
 14 38  1  0  0  0  0
 14 39  1  0  0  0  0
 14 40  1  0  0  0  0
 15 16  1  0  0  0  0
 16 17  1  0  0  0  0
 16 20  2  0  0  0  0
 17 18  1  0  0  0  0
 17 19  1  0  0  0  0
 17 41  1  0  0  0  0
 18 42  1  0  0  0  0
 18 43  1  0  0  0  0
 18 44  1  0  0  0  0
 19 45  1  0  0  0  0
 19 46  1  0  0  0  0
 19 47  1  0  0  0  0
 21 22  1  0  0  0  0
 21 48  1  0  0  0  0
 21 49  1  0  0  0  0
 22 23  1  0  0  0  0
 22 50  1  0  0  0  0
 22 51  1  0  0  0  0
M  END
> <s_m_source_file>
AV-unprocessed.smi

> <i_m_source_file_index>
2300

> <i_lp_mmshare_version>
43012

> <i_f3d_flags>
0

> <s_epik_input>
W0NIM11DKD1PKVtOSF1bQ0gyXVtDQEBIXTFbQ0gyXU4oW0NIMl1bQ0gyXU8xKWMyW2NIXWMoW0NIXShbQ0gzXSlbQ0gzXSluYyhuMilbQ0hdKFtDSDNdKVtDSDNd

> <s_epik_cmdline>
J2VwaWtfcHl0aG9uJywgJy1waCcsICc3LjAnLCAnLXRuJywgJzgnLCAnLW1hJywgJzIwMCcsICctbWV0YWxfYmluZGluZycsICctaW1hZScsICc8aW5maWxlLm1hZT4nLCAnLW9tYWUnLCAnPG91dGZpbGUubWFlPic=

> <r_lp_tautomer_probability>
1

> <r_epik_Ionization_Penalty>
0.0035465

> <r_epik_Ionization_Penalty_Charging>
0

> <r_epik_Ionization_Penalty_Neutral>
0.0035465

> <r_epik_State_Penalty>
0.00247846

> <r_epik_Charging_Adjusted_Penalty>
0.00247846

> <i_epik_Tot_Q>
0

> <i_epik_Tot_abs_Q>
0

> <r_epik_Metal_State_Penalty>
-0

> <b_epik_Metal_Only>
0

> <s_lp_Force_Field>
OPLS_2005

> <r_lp_Energy>
0.953056

> <b_lp_Chiralities_Consistent>
1

> <s_lp_Variant>
AV-unprocessed.smi:2300-1

> <Gold.Version>
5.8.1

> <Gold.Id.Protein>
6NUR|6NUR_protein|mol2

> <Gold.PLP.Fitness>
58.1642

> <Gold.PLP.PLP>
-50.4403

> <Gold.PLP.part.hbond>
-2.7979

> <Gold.PLP.part.metal>
0.0000

> <Gold.PLP.part.buried>
-5.7878

> <Gold.PLP.part.nonpolar>
-42.2142

> <Gold.PLP.part.repulsive>
0.6196

> <Gold.PLP.ligand.clash>
0.0000

> <Gold.PLP.ligand.torsion>
0.4897

> <Gold.PLP.Chemscore.Hbond>
2.7353

> <Gold.PLP.Chemscore.CHOScore>
0.0000

> <Gold.PLP.Chemscore.Metal>
0.0000

> <Gold.Chemscore.Hbonds>
donor molecule, donor type, donor heavy atom, donor atom, acceptor molecule, acceptor atom, score
      L1  H     4    27       P1  7957  0.77
      P1  H  7989  7998       L1    23  0.95
      P1  H  7997  8008       L1    20  0.93

> <Gold.PLP.Chemscore.Internal.Correction>
0.4973

> <Gold.Rescore>
     Score         DG    S(hbond)    S(metal)    S(lipo)     H(rot)  DE(clash)    DE(int)     intcor
     18.28     -19.26       1.21        0.00     123.03       1.82       0.08       0.90       ----

> <Gold.Chemscore.Fitness>
18.2770

> <Gold.Chemscore.DG>
-19.2566

> <Gold.Chemscore.ZeroCoef>
-5.4800

> <Gold.Chemscore.Hbond>
1.2065

> <Gold.Chemscore.Metal>
0.0000

> <Gold.Chemscore.Lipo>
123.0338

> <Gold.Chemscore.Internal_Hbond>
0.0000

> <Gold.Chemscore.DEClash>
0.0822

> <Gold.Chemscore.DEInternal>
0.8974

> <Gold.Chemscore.Rot>
1.8156

> <Gold.Chemscore.Internal.Correction>
   9.000000E+99

> <Gold.Chemscore.Hbonds>
donor molecule, donor type, donor heavy atom, donor atom, acceptor molecule, acceptor atom, score
      L1  H     4    27       P1  7957  0.76
      P1  H  7989  7998       L1    23  0.18
      P1  H  7997  8008       L1    20  0.29

> <Gold.Chemscore.Hbond.Weighted>
-4.0297

> <Gold.Chemscore.Metal.Weighted>
-0.0000

> <Gold.Chemscore.Lipo.Weighted>
-14.3950

> <Gold.Chemscore.Internal_Hbond.Weighted>
0.0000

> <Gold.Chemscore.DEClash.Weighted>
0.0822

> <Gold.Chemscore.DEInternal.Weighted>
0.8974

> <Gold.Chemscore.Rot.Weighted>
4.6481

> <Gold.Chemscore.Internal.Correction.Weighted>
   9.000000E+99

> <Gold.Protein.RotatedTorsions>
[ 6907 6896 6895 6894 ] final -117.78 input  -60.11 | X-H torsion
[ 7974 7965 7964 7962 ] final   67.03 input  175.53 | X-H torsion
[ 8008 7997 7996 7995 ] final  -82.28 input   59.86 | X-H torsion
[ 10167 10162 10161 10158 ] final  -64.47 input  -65.29 | X-H torsion
[ 10718 10713 10712 10709 ] final   45.47 input   66.30 | X-H torsion
[ 10763 10752 10751 10750 ] final  168.11 input  -60.55 | X-H torsion
[ 11005 11000 10999 10996 ] final -153.20 input  -57.11 | X-H torsion

> <Gold.Protein.ActiveResidues>
 VAL166  LYS551  ARG553  GLY616  TRP617  ASP618  TYR619  PRO620  LYS621  CYS622 
 ASP623  PHE694  ASN695  SER759  ASP760  ASP761  ALA762  ILE779  LEU786  VAL792 
 PHE793  MET794  SER795  GLU796  ALA797  LYS798  CYS799  TRP800  GLU811  SER814 

> <Gold.Protein.RotatedAtoms>
  150.8165  133.8328  159.3157 H   0  0  0  0  0  0  0  0  0  0  0  0  # atno 6907 bound_to 6896
  151.6098  135.1039  160.0088 H   0  0  0  0  0  0  0  0  0  0  0  0  # atno 6908 bound_to 6896
  152.4256  133.7149  159.6557 H   0  0  0  0  0  0  0  0  0  0  0  0  # atno 6909 bound_to 6896
  145.8195  139.3077  143.1051 H   0  0  0  0  0  0  0  0  0  0  0  0  # atno 7974 bound_to 7965
  154.6070  140.0635  156.9444 H   0  0  0  0  0  0  0  0  0  0  0  0  # atno 8008 bound_to 7997
  155.2036  140.3317  155.4321 H   0  0  0  0  0  0  0  0  0  0  0  0  # atno 8009 bound_to 7997
  156.2353  140.1860  156.7118 H   0  0  0  0  0  0  0  0  0  0  0  0  # atno 8010 bound_to 7997
  140.5799  143.2326  151.6364 H   0  0  0  0  0  0  0  0  0  0  0  0  # atno 10167 bound_to 10162
  157.4379  130.8064  149.7666 H   0  0  0  0  0  0  0  0  0  0  0  0  # atno 10718 bound_to 10713
  154.3638  135.2753  155.2305 H   0  0  0  0  0  0  0  0  0  0  0  0  # atno 10763 bound_to 10752
  154.4482  135.5937  153.6177 H   0  0  0  0  0  0  0  0  0  0  0  0  # atno 10764 bound_to 10752
  152.9842  135.6035  154.3861 H   0  0  0  0  0  0  0  0  0  0  0  0  # atno 10765 bound_to 10752
  140.7107  134.3836  157.5198 H   0  0  0  0  0  0  0  0  0  0  0  0  # atno 11005 bound_to 11000
  145.9690  140.8775  143.0172 LP  0  0  0  0  0  0  0  0  0  0  0  0  # atno 17320 bound_to 7965
  144.6749  140.1919  143.7396 LP  0  0  0  0  0  0  0  0  0  0  0  0  # atno 17321 bound_to 7965
  139.5164  144.3349  152.0793 LP  0  0  0  0  0  0  0  0  0  0  0  0  # atno 17342 bound_to 10162
  140.2498  144.4181  150.6226 LP  0  0  0  0  0  0  0  0  0  0  0  0  # atno 17343 bound_to 10162
  155.9937  130.3922  150.2887 LP  0  0  0  0  0  0  0  0  0  0  0  0  # atno 17370 bound_to 10713
  157.1050  131.0206  151.3071 LP  0  0  0  0  0  0  0  0  0  0  0  0  # atno 17371 bound_to 10713
  139.8872  134.8888  156.2539 LP  0  0  0  0  0  0  0  0  0  0  0  0  # atno 17394 bound_to 11000
  141.0087  133.7108  156.1076 LP  0  0  0  0  0  0  0  0  0  0  0  0  # atno 17395 bound_to 11000

$$$$
