AV-unprocessed.smi:313|AV-procd|sdf|2311|dock3
  -GOLD-   2262022213D 1   1.00000     0.00000
 Structure written by MMmdl.
 50 51  0  0  0  0  0  0  0  0  1 V2000
  145.4520  134.2658  150.7318 C   0  0  0  0  0  0  0  0  0  0  0  0
  145.5525  134.3618  152.2614 C   0  0  0  0  0  0  0  0  0  0  0  0
  145.1012  135.7220  152.8257 C   0  0  2  0  0  0  0  0  0  0  0  0
  143.6464  136.0412  152.4504 C   0  0  0  0  0  0  0  0  0  0  0  0
  145.9829  136.7813  152.3425 N   0  0  0  0  0  0  0  0  0  0  0  0
  145.9208  138.0735  152.6975 C   0  0  0  0  0  0  0  0  0  0  0  0
  145.0642  138.5283  153.4575 O   0  0  0  0  0  0  0  0  0  0  0  0
  146.9970  138.9907  152.0966 C   0  0  1  0  0  0  0  0  0  0  0  0
  146.3014  140.0896  151.2759 C   0  0  0  0  0  0  0  0  0  0  0  0
  147.7570  139.6337  153.1661 N   0  0  0  0  0  0  0  0  0  0  0  0
  147.2538  140.5086  154.0537 C   0  0  0  0  0  0  0  0  0  0  0  0
  146.0648  140.8259  154.0972 O   0  0  0  0  0  0  0  0  0  0  0  0
  148.2325  141.0513  155.0533 C   0  0  0  0  0  0  0  0  0  0  0  0
  147.8151  141.5412  156.3097 C   0  0  0  0  0  0  0  0  0  0  0  0
  148.7824  142.0144  157.2167 C   0  0  0  0  0  0  0  0  0  0  0  0
  150.1491  141.9782  156.8515 C   0  0  0  0  0  0  0  0  0  0  0  0
  151.1363  142.4481  157.7450 N   0  0  0  0  0  0  0  0  0  0  0  0
  151.1722  143.8943  157.9486 C   0  0  0  0  0  0  0  0  0  0  0  0
  152.4656  144.2999  158.6757 C   0  0  0  0  0  0  0  0  0  0  0  0
  152.5843  143.5692  159.8916 O   0  0  0  0  0  0  0  0  0  0  0  0
  152.6587  142.1664  159.6614 C   0  0  0  0  0  0  0  0  0  0  0  0
  151.3721  141.6856  158.9695 C   0  0  0  0  0  0  0  0  0  0  0  0
  150.5473  141.5021  155.6463 N   0  0  0  0  0  0  0  0  0  0  0  0
  149.6168  141.0468  154.7807 C   0  0  0  0  0  0  0  0  0  0  0  0
  145.8282  133.3053  150.3796 H   0  0  0  0  0  0  0  0  0  0  0  0
  146.0382  135.0483  150.2497 H   0  0  0  0  0  0  0  0  0  0  0  0
  144.4215  134.3609  150.3886 H   0  0  0  0  0  0  0  0  0  0  0  0
  144.9650  133.5607  152.7118 H   0  0  0  0  0  0  0  0  0  0  0  0
  146.5873  134.1788  152.5534 H   0  0  0  0  0  0  0  0  0  0  0  0
  145.1648  135.6645  153.9140 H   0  0  0  0  0  0  0  0  0  0  0  0
  142.9693  135.2681  152.8145 H   0  0  0  0  0  0  0  0  0  0  0  0
  143.5208  136.1109  151.3694 H   0  0  0  0  0  0  0  0  0  0  0  0
  143.3257  136.9885  152.8852 H   0  0  0  0  0  0  0  0  0  0  0  0
  146.7211  136.5024  151.7125 H   0  0  0  0  0  0  0  0  0  0  0  0
  147.6682  138.4222  151.4494 H   0  0  0  0  0  0  0  0  0  0  0  0
  145.7074  139.6626  150.4668 H   0  0  0  0  0  0  0  0  0  0  0  0
  147.0349  140.7566  150.8219 H   0  0  0  0  0  0  0  0  0  0  0  0
  145.6378  140.7007  151.8899 H   0  0  0  0  0  0  0  0  0  0  0  0
  148.7420  139.4184  153.2170 H   0  0  0  0  0  0  0  0  0  0  0  0
  146.7708  141.5584  156.5857 H   0  0  0  0  0  0  0  0  0  0  0  0
  148.4644  142.4075  158.1706 H   0  0  0  0  0  0  0  0  0  0  0  0
  151.1098  144.4388  157.0077 H   0  0  0  0  0  0  0  0  0  0  0  0
  150.3045  144.1866  158.5415 H   0  0  0  0  0  0  0  0  0  0  0  0
  153.3380  144.1225  158.0448 H   0  0  0  0  0  0  0  0  0  0  0  0
  152.4491  145.3659  158.9032 H   0  0  0  0  0  0  0  0  0  0  0  0
  153.5362  141.9320  159.0567 H   0  0  0  0  0  0  0  0  0  0  0  0
  152.7844  141.6558  160.6160 H   0  0  0  0  0  0  0  0  0  0  0  0
  150.5202  141.8075  159.6396 H   0  0  0  0  0  0  0  0  0  0  0  0
  151.4606  140.6226  158.7427 H   0  0  0  0  0  0  0  0  0  0  0  0
  149.9963  140.6739  153.8405 H   0  0  0  0  0  0  0  0  0  0  0  0
  1  2  1  0  0  0  0
  1 25  1  0  0  0  0
  1 26  1  0  0  0  0
  1 27  1  0  0  0  0
  2  3  1  0  0  0  0
  2 28  1  0  0  0  0
  2 29  1  0  0  0  0
  3  4  1  0  0  0  0
  3  5  1  0  0  0  0
  3 30  1  0  0  0  0
  4 31  1  0  0  0  0
  4 32  1  0  0  0  0
  4 33  1  0  0  0  0
  5  6  1  0  0  0  0
  5 34  1  0  0  0  0
  6  7  2  0  0  0  0
  6  8  1  0  0  0  0
  8  9  1  0  0  0  0
  8 10  1  0  0  0  0
  8 35  1  0  0  0  0
  9 36  1  0  0  0  0
  9 37  1  0  0  0  0
  9 38  1  0  0  0  0
 10 11  1  0  0  0  0
 10 39  1  0  0  0  0
 11 12  2  0  0  0  0
 11 13  1  0  0  0  0
 13 24  1  0  0  0  0
 13 14  2  0  0  0  0
 14 15  1  0  0  0  0
 14 40  1  0  0  0  0
 15 16  2  0  0  0  0
 15 41  1  0  0  0  0
 16 17  1  0  0  0  0
 16 23  1  0  0  0  0
 17 22  1  0  0  0  0
 17 18  1  0  0  0  0
 18 19  1  0  0  0  0
 18 42  1  0  0  0  0
 18 43  1  0  0  0  0
 19 20  1  0  0  0  0
 19 44  1  0  0  0  0
 19 45  1  0  0  0  0
 20 21  1  0  0  0  0
 21 22  1  0  0  0  0
 21 46  1  0  0  0  0
 21 47  1  0  0  0  0
 22 48  1  0  0  0  0
 22 49  1  0  0  0  0
 23 24  2  0  0  0  0
 24 50  1  0  0  0  0
M  END
> <s_m_source_file>
AV-unprocessed.smi

> <i_m_source_file_index>
313

> <i_lp_mmshare_version>
43012

> <i_f3d_flags>
0

> <s_epik_input>
W0NIM11bQ0gyXVtDQEhdKFtDSDNdKVtOSF1DKD1PKVtDQEhdKFtDSDNdKVtOSF1DKD1PKWMxW2NIXVtjSF1jKG5bY0hdMSlOMltDSDJdW0NIMl1PW0NIMl1bQ0gyXTI=

> <s_epik_cmdline>
J2VwaWtfcHl0aG9uJywgJy1waCcsICc3LjAnLCAnLXRuJywgJzgnLCAnLW1hJywgJzIwMCcsICctbWV0YWxfYmluZGluZycsICctaW1hZScsICc8aW5maWxlLm1hZT4nLCAnLW9tYWUnLCAnPG91dGZpbGUubWFlPic=

> <r_lp_tautomer_probability>
1

> <r_epik_Ionization_Penalty>
9.96442e-06

> <r_epik_Ionization_Penalty_Charging>
0

> <r_epik_Ionization_Penalty_Neutral>
9.96442e-06

> <r_epik_State_Penalty>
-0

> <r_epik_Charging_Adjusted_Penalty>
0

> <i_epik_Tot_Q>
0

> <i_epik_Tot_abs_Q>
0

> <r_epik_Metal_State_Penalty>
-0

> <b_epik_Metal_Only>
0

> <s_lp_Force_Field>
OPLS_2005

> <r_lp_Energy>
19.146

> <b_lp_Chiralities_Consistent>
1

> <s_lp_Variant>
AV-unprocessed.smi:313-3

> <Gold.Version>
5.8.1

> <Gold.Id.Protein>
6NUR|6NUR_protein|mol2

> <Gold.PLP.Fitness>
37.8652

> <Gold.PLP.PLP>
-35.6091

> <Gold.PLP.part.hbond>
-2.1426

> <Gold.PLP.part.metal>
0.0000

> <Gold.PLP.part.buried>
0.0930

> <Gold.PLP.part.nonpolar>
-34.8523

> <Gold.PLP.part.repulsive>
0.8629

> <Gold.PLP.ligand.clash>
0.0000

> <Gold.PLP.ligand.torsion>
0.4358

> <Gold.PLP.Chemscore.Hbond>
0.9120

> <Gold.PLP.Chemscore.CHOScore>
0.0000

> <Gold.PLP.Chemscore.Metal>
0.0000

> <Gold.Chemscore.Hbonds>
donor molecule, donor type, donor heavy atom, donor atom, acceptor molecule, acceptor atom, score
      L1  H     5    34       P1  7948  0.38
      L1  H    10    39       P1  7957  0.03
      L1  C    24    50       P1  7957  0.39

> <Gold.PLP.Chemscore.Internal.Correction>
0.3917

> <Gold.Rescore>
     Score         DG    S(hbond)    S(metal)    S(lipo)     H(rot)  DE(clash)    DE(int)     intcor
      9.81     -15.31       0.94        0.00      96.34       1.79       1.11       4.39       ----

> <Gold.Chemscore.Fitness>
9.8078

> <Gold.Chemscore.DG>
-15.3122

> <Gold.Chemscore.ZeroCoef>
-5.4800

> <Gold.Chemscore.Hbond>
0.9399

> <Gold.Chemscore.Metal>
0.0000

> <Gold.Chemscore.Lipo>
96.3436

> <Gold.Chemscore.Internal_Hbond>
0.0000

> <Gold.Chemscore.DEClash>
1.1136

> <Gold.Chemscore.DEInternal>
4.3908

> <Gold.Chemscore.Rot>
1.7888

> <Gold.Chemscore.Internal.Correction>
   9.000000E+99

> <Gold.Chemscore.Hbonds>
donor molecule, donor type, donor heavy atom, donor atom, acceptor molecule, acceptor atom, score
      L1  H     5    34       P1  7948  0.38
      L1  H    10    39       P1  7957  0.03

> <Gold.Chemscore.Hbond.Weighted>
-3.1393

> <Gold.Chemscore.Metal.Weighted>
-0.0000

> <Gold.Chemscore.Lipo.Weighted>
-11.2722

> <Gold.Chemscore.Internal_Hbond.Weighted>
0.0000

> <Gold.Chemscore.DEClash.Weighted>
1.1136

> <Gold.Chemscore.DEInternal.Weighted>
4.3908

> <Gold.Chemscore.Rot.Weighted>
4.5793

> <Gold.Chemscore.Internal.Correction.Weighted>
   9.000000E+99

> <Gold.Protein.RotatedTorsions>
[ 6907 6896 6895 6894 ] final -163.66 input  -60.11 | X-H torsion
[ 7974 7965 7964 7962 ] final   42.83 input  175.53 | X-H torsion
[ 8008 7997 7996 7995 ] final -171.39 input   59.86 | X-H torsion
[ 10167 10162 10161 10158 ] final  -12.90 input  -65.29 | X-H torsion
[ 10718 10713 10712 10709 ] final  -73.27 input   66.30 | X-H torsion
[ 10763 10752 10751 10750 ] final -135.88 input  -60.55 | X-H torsion
[ 11005 11000 10999 10996 ] final  -79.07 input  -57.11 | X-H torsion

> <Gold.Protein.ActiveResidues>
 VAL166  LYS551  ARG553  GLY616  TRP617  ASP618  TYR619  PRO620  LYS621  CYS622 
 ASP623  PHE694  ASN695  SER759  ASP760  ASP761  ALA762  ILE779  LEU786  VAL792 
 PHE793  MET794  SER795  GLU796  ALA797  LYS798  CYS799  TRP800  GLU811  SER814 

> <Gold.Protein.RotatedAtoms>
  151.3995  133.3762  159.2730 H   0  0  0  0  0  0  0  0  0  0  0  0  # atno 6907 bound_to 6896
  150.9444  134.8851  159.7643 H   0  0  0  0  0  0  0  0  0  0  0  0  # atno 6908 bound_to 6896
  152.5085  134.3947  159.9448 H   0  0  0  0  0  0  0  0  0  0  0  0  # atno 6909 bound_to 6896
  146.0707  139.5256  142.9599 H   0  0  0  0  0  0  0  0  0  0  0  0  # atno 7974 bound_to 7965
  155.9310  140.1091  157.1132 H   0  0  0  0  0  0  0  0  0  0  0  0  # atno 8008 bound_to 7997
  154.4071  140.1237  156.4868 H   0  0  0  0  0  0  0  0  0  0  0  0  # atno 8009 bound_to 7997
  155.7080  140.3471  155.4964 H   0  0  0  0  0  0  0  0  0  0  0  0  # atno 8010 bound_to 7997
  140.7171  143.5483  150.9330 H   0  0  0  0  0  0  0  0  0  0  0  0  # atno 10167 bound_to 10162
  156.0287  130.4390  150.2717 H   0  0  0  0  0  0  0  0  0  0  0  0  # atno 10718 bound_to 10713
  154.8695  135.3690  154.4970 H   0  0  0  0  0  0  0  0  0  0  0  0  # atno 10763 bound_to 10752
  153.5613  135.7023  153.5551 H   0  0  0  0  0  0  0  0  0  0  0  0  # atno 10764 bound_to 10752
  153.3625  135.4042  155.1692 H   0  0  0  0  0  0  0  0  0  0  0  0  # atno 10765 bound_to 10752
  141.1666  133.7090  156.8067 H   0  0  0  0  0  0  0  0  0  0  0  0  # atno 11005 bound_to 11000
  145.6396  141.0287  143.1819 LP  0  0  0  0  0  0  0  0  0  0  0  0  # atno 17320 bound_to 7965
  144.7230  139.7967  143.7375 LP  0  0  0  0  0  0  0  0  0  0  0  0  # atno 17321 bound_to 7965
  139.9207  143.6609  152.3097 LP  0  0  0  0  0  0  0  0  0  0  0  0  # atno 17342 bound_to 10162
  139.7025  144.7633  151.1248 LP  0  0  0  0  0  0  0  0  0  0  0  0  # atno 17343 bound_to 10162
  157.0820  131.0146  151.3153 LP  0  0  0  0  0  0  0  0  0  0  0  0  # atno 17370 bound_to 10713
  157.4920  130.7827  149.7517 LP  0  0  0  0  0  0  0  0  0  0  0  0  # atno 17371 bound_to 10713
  140.2217  134.8752  157.3384 LP  0  0  0  0  0  0  0  0  0  0  0  0  # atno 17394 bound_to 11000
  140.1981  134.4289  155.7678 LP  0  0  0  0  0  0  0  0  0  0  0  0  # atno 17395 bound_to 11000

$$$$
