AV-unprocessed.smi:3033|AV-procd|sdf|11574|dock3
  -GOLD-   2272016543D 1   1.00000     0.00000
 Structure written by MMmdl.
 33 34  0  0  0  0  0  0  0  0  1 V2000
  155.0745  139.4605  160.5320 C   0  0  0  0  0  0  0  0  0  0  0  0
  154.3643  139.7641  159.3401 O   0  0  0  0  0  0  0  0  0  0  0  0
  153.4549  140.7994  159.3729 C   0  0  0  0  0  0  0  0  0  0  0  0
  153.6866  141.8259  160.3106 C   0  0  0  0  0  0  0  0  0  0  0  0
  152.8148  142.9264  160.4026 C   0  0  0  0  0  0  0  0  0  0  0  0
  151.6972  143.0126  159.5530 C   0  0  0  0  0  0  0  0  0  0  0  0
  151.4452  141.9938  158.6083 C   0  0  0  0  0  0  0  0  0  0  0  0
  150.2646  142.0816  157.6447 C   0  0  1  0  0  0  0  0  0  0  0  0
  149.4949  143.2584  157.7932 O   0  0  0  0  0  0  0  0  0  0  0  0
  150.6392  141.8900  156.1502 C   0  0  0  0  0  0  0  0  0  0  0  0
  149.5850  141.3687  155.3091 N   0  0  0  0  0  0  0  0  0  0  0  0
  148.3344  141.9627  155.2173 C   0  0  0  0  0  0  0  0  0  0  0  0
  147.3229  141.4528  154.4743 C   0  0  0  0  0  0  0  0  0  0  0  0
  145.7881  142.2437  154.4242 Cl  0  0  0  0  0  0  0  0  0  0  0  0
  147.5230  140.2195  153.7146 C   0  0  0  0  0  0  0  0  0  0  0  0
  146.6773  139.6720  153.0099 O   0  0  0  0  0  0  0  0  0  0  0  0
  148.7973  139.6570  153.8361 N   0  0  0  0  0  0  0  0  0  0  0  0
  149.8433  140.1726  154.6021 C   0  0  0  0  0  0  0  0  0  0  0  0
  150.9225  139.5825  154.6443 O   0  0  0  0  0  0  0  0  0  0  0  0
  152.3221  140.8911  158.5257 C   0  0  0  0  0  0  0  0  0  0  0  0
  148.9744  138.8016  153.3299 H   0  0  0  0  0  0  0  0  0  0  0  0
  155.7332  138.6110  160.3522 H   0  0  0  0  0  0  0  0  0  0  0  0
  154.3965  139.1858  161.3414 H   0  0  0  0  0  0  0  0  0  0  0  0
  155.6962  140.2990  160.8490 H   0  0  0  0  0  0  0  0  0  0  0  0
  154.5453  141.7712  160.9637 H   0  0  0  0  0  0  0  0  0  0  0  0
  153.0075  143.7089  161.1217 H   0  0  0  0  0  0  0  0  0  0  0  0
  151.0460  143.8717  159.6224 H   0  0  0  0  0  0  0  0  0  0  0  0
  149.5771  141.2786  157.9137 H   0  0  0  0  0  0  0  0  0  0  0  0
  149.2260  143.5508  156.9357 H   0  0  0  0  0  0  0  0  0  0  0  0
  150.8671  142.8669  155.7207 H   0  0  0  0  0  0  0  0  0  0  0  0
  151.5406  141.2940  155.9884 H   0  0  0  0  0  0  0  0  0  0  0  0
  148.1478  142.8702  155.7738 H   0  0  0  0  0  0  0  0  0  0  0  0
  152.1129  140.1304  157.7891 H   0  0  0  0  0  0  0  0  0  0  0  0
  1  2  1  0  0  0  0
  1 22  1  0  0  0  0
  1 23  1  0  0  0  0
  1 24  1  0  0  0  0
  2  3  1  0  0  0  0
  3 20  1  0  0  0  0
  3  4  2  0  0  0  0
  4  5  1  0  0  0  0
  4 25  1  0  0  0  0
  5  6  2  0  0  0  0
  5 26  1  0  0  0  0
  6  7  1  0  0  0  0
  6 27  1  0  0  0  0
  7  8  1  0  0  0  0
  7 20  2  0  0  0  0
  8  9  1  0  0  0  0
  8 10  1  0  0  0  0
  8 28  1  0  0  0  0
  9 29  1  0  0  0  0
 10 11  1  0  0  0  0
 10 30  1  0  0  0  0
 10 31  1  0  0  0  0
 11 18  1  0  0  0  0
 11 12  1  0  0  0  0
 12 13  2  0  0  0  0
 12 32  1  0  0  0  0
 13 14  1  0  0  0  0
 13 15  1  0  0  0  0
 15 16  2  0  0  0  0
 15 17  1  0  0  0  0
 17 21  1  0  0  0  0
 17 18  1  0  0  0  0
 18 19  2  0  0  0  0
 20 33  1  0  0  0  0
M  END
> <s_m_source_file>
AV-unprocessed.smi

> <i_m_source_file_index>
3033

> <i_lp_mmshare_version>
43012

> <i_f3d_flags>
0

> <s_epik_input>
W0NIM11PYzFbY0hdW2NIXVtjSF1jKFtjSF0xKVtDQEhdKFtPSF0pW0NIMl1uMltjSF1jKENsKWMoPU8pW25IXWMyPU8=

> <s_epik_cmdline>
J2VwaWtfcHl0aG9uJywgJy1waCcsICc3LjAnLCAnLXRuJywgJzgnLCAnLW1hJywgJzIwMCcsICctbWV0YWxfYmluZGluZycsICctaW1hZScsICc8aW5maWxlLm1hZT4nLCAnLW9tYWUnLCAnPG91dGZpbGUubWFlPic=

> <r_lp_tautomer_probability>
0.999537

> <r_epik_Ionization_Penalty>
0.0292058

> <r_epik_Ionization_Penalty_Charging>
0.0292057

> <r_epik_Ionization_Penalty_Neutral>
7.1713e-08

> <r_epik_State_Penalty>
0.0240115

> <r_epik_Charging_Adjusted_Penalty>
0.0532172

> <i_epik_Tot_Q>
0

> <i_epik_Tot_abs_Q>
0

> <r_epik_Metal_State_Penalty>
2.21956

> <b_epik_Metal_Only>
0

> <s_lp_Force_Field>
OPLS_2005

> <r_lp_Energy>
15.9701

> <b_lp_Chiralities_Consistent>
1

> <s_lp_Variant>
AV-unprocessed.smi:3033-2

> <Gold.Version>
5.8.1

> <Gold.Id.Protein>
6NUR|6NUR_protein|mol2

> <Gold.PLP.Fitness>
48.4945

> <Gold.PLP.PLP>
-38.8265

> <Gold.PLP.part.hbond>
-4.5365

> <Gold.PLP.part.metal>
0.0000

> <Gold.PLP.part.buried>
-2.5263

> <Gold.PLP.part.nonpolar>
-34.4479

> <Gold.PLP.part.repulsive>
0.5311

> <Gold.PLP.ligand.clash>
0.0000

> <Gold.PLP.ligand.torsion>
0.6952

> <Gold.PLP.Chemscore.Hbond>
2.6500

> <Gold.PLP.Chemscore.CHOScore>
1.0000

> <Gold.PLP.Chemscore.Metal>
0.0000

> <Gold.Chemscore.Hbonds>
donor molecule, donor type, donor heavy atom, donor atom, acceptor molecule, acceptor atom, score
      L1  H     9    29       P1  8028  1.00
      P1  H  7989  7998       L1    19  0.45
      P1  H  7997  8010       L1     2  0.66
      L1  C    12    32       P1  8028  0.87

> <Gold.PLP.Chemscore.Internal.Correction>
0.1084

> <Gold.Rescore>
     Score         DG    S(hbond)    S(metal)    S(lipo)     H(rot)  DE(clash)    DE(int)     intcor
     13.85     -15.07       1.46        0.00      95.28       2.51       0.45       0.77       ----

> <Gold.Chemscore.Fitness>
13.8543

> <Gold.Chemscore.DG>
-15.0697

> <Gold.Chemscore.ZeroCoef>
-5.4800

> <Gold.Chemscore.Hbond>
1.4580

> <Gold.Chemscore.Metal>
0.0000

> <Gold.Chemscore.Lipo>
95.2753

> <Gold.Chemscore.Internal_Hbond>
0.0000

> <Gold.Chemscore.DEClash>
0.4455

> <Gold.Chemscore.DEInternal>
0.7699

> <Gold.Chemscore.Rot>
2.5107

> <Gold.Chemscore.Internal.Correction>
   9.000000E+99

> <Gold.Chemscore.Hbonds>
donor molecule, donor type, donor heavy atom, donor atom, acceptor molecule, acceptor atom, score
      L1  H     9    29       P1  8028  0.81
      P1  H  7989  7998       L1    19  0.02
      P1  H  7997  8010       L1     2  0.15

> <Gold.Chemscore.Hbond.Weighted>
-4.8699

> <Gold.Chemscore.Metal.Weighted>
-0.0000

> <Gold.Chemscore.Lipo.Weighted>
-11.1472

> <Gold.Chemscore.Internal_Hbond.Weighted>
0.0000

> <Gold.Chemscore.DEClash.Weighted>
0.4455

> <Gold.Chemscore.DEInternal.Weighted>
0.7699

> <Gold.Chemscore.Rot.Weighted>
6.4274

> <Gold.Chemscore.Internal.Correction.Weighted>
   9.000000E+99

> <Gold.Protein.RotatedTorsions>
[ 6907 6896 6895 6894 ] final  -53.68 input  -60.11 | X-H torsion
[ 7974 7965 7964 7962 ] final -126.56 input  175.53 | X-H torsion
[ 8008 7997 7996 7995 ] final   -0.13 input   59.86 | X-H torsion
[ 10167 10162 10161 10158 ] final  -23.77 input  -65.29 | X-H torsion
[ 10718 10713 10712 10709 ] final   64.60 input   66.30 | X-H torsion
[ 10763 10752 10751 10750 ] final  113.34 input  -60.55 | X-H torsion
[ 11005 11000 10999 10996 ] final  -53.25 input  -57.11 | X-H torsion

> <Gold.Protein.ActiveResidues>
 VAL166  LYS551  ARG553  GLY616  TRP617  ASP618  TYR619  PRO620  LYS621  CYS622 
 ASP623  PHE694  ASN695  SER759  ASP760  ASP761  ALA762  ILE779  LEU786  VAL792 
 PHE793  MET794  SER795  GLU796  ALA797  LYS798  CYS799  TRP800  GLU811  SER814 

> <Gold.Protein.RotatedAtoms>
  150.8405  134.7695  159.6928 H   0  0  0  0  0  0  0  0  0  0  0  0  # atno 6907 bound_to 6896
  152.4493  134.5424  159.9852 H   0  0  0  0  0  0  0  0  0  0  0  0  # atno 6908 bound_to 6896
  151.5564  133.3372  159.2998 H   0  0  0  0  0  0  0  0  0  0  0  0  # atno 6909 bound_to 6896
  144.9860  140.7687  143.4583 H   0  0  0  0  0  0  0  0  0  0  0  0  # atno 7974 bound_to 7965
  154.6615  140.2591  155.7103 H   0  0  0  0  0  0  0  0  0  0  0  0  # atno 8008 bound_to 7997
  156.2620  140.2847  156.1011 H   0  0  0  0  0  0  0  0  0  0  0  0  # atno 8009 bound_to 7997
  155.1301  140.0378  157.2763 H   0  0  0  0  0  0  0  0  0  0  0  0  # atno 8010 bound_to 7997
  140.7288  143.4413  151.0653 H   0  0  0  0  0  0  0  0  0  0  0  0  # atno 10167 bound_to 10162
  157.6050  130.9169  149.9867 H   0  0  0  0  0  0  0  0  0  0  0  0  # atno 10718 bound_to 10713
  153.4910  135.3658  155.2492 H   0  0  0  0  0  0  0  0  0  0  0  0  # atno 10763 bound_to 10752
  154.8752  135.3977  154.3588 H   0  0  0  0  0  0  0  0  0  0  0  0  # atno 10764 bound_to 10752
  153.4208  135.7080  153.6361 H   0  0  0  0  0  0  0  0  0  0  0  0  # atno 10765 bound_to 10752
  141.0966  133.6623  156.4144 H   0  0  0  0  0  0  0  0  0  0  0  0  # atno 11005 bound_to 11000
  145.2353  139.2097  143.5021 LP  0  0  0  0  0  0  0  0  0  0  0  0  # atno 17320 bound_to 7965
  146.3420  140.2237  142.8592 LP  0  0  0  0  0  0  0  0  0  0  0  0  # atno 17321 bound_to 7965
  139.8080  143.7991  152.3169 LP  0  0  0  0  0  0  0  0  0  0  0  0  # atno 17342 bound_to 10162
  139.8030  144.7366  150.9799 LP  0  0  0  0  0  0  0  0  0  0  0  0  # atno 17343 bound_to 10162
  156.1134  130.3649  150.0009 LP  0  0  0  0  0  0  0  0  0  0  0  0  # atno 17370 bound_to 10713
  156.8103  130.9322  151.3644 LP  0  0  0  0  0  0  0  0  0  0  0  0  # atno 17371 bound_to 10713
  140.5124  134.6382  157.5289 LP  0  0  0  0  0  0  0  0  0  0  0  0  # atno 17394 bound_to 11000
  139.9805  134.7145  155.9869 LP  0  0  0  0  0  0  0  0  0  0  0  0  # atno 17395 bound_to 11000

$$$$
