AV-unprocessed.smi:3099|AV-procd|sdf|11802|dock7
  -GOLD-   2272017173D 1   1.00000     0.00000
 Structure written by MMmdl.
 33 34  0  0  0  0  0  0  0  0  2 V2000
  152.9135  138.0872  156.0438 C   0  0  0  0  0  0  0  0  0  0  0  0
  151.6340  138.3476  155.3804 N   0  0  0  0  0  0  0  0  0  0  0  0
  151.0813  137.4714  154.5321 C   0  0  0  0  0  0  0  0  0  0  0  0
  149.9344  138.0101  154.1132 N   0  3  0  0  0  0  0  0  0  0  0  0
  149.7519  139.2345  154.6946 C   0  0  0  0  0  0  0  0  0  0  0  0
  150.8361  139.4619  155.5090 C   0  0  0  0  0  0  0  0  0  0  0  0
  151.1980  140.6181  156.3911 C   0  0  0  0  0  0  0  0  0  0  0  0
  150.1573  141.7514  156.3482 C   0  0  0  0  0  0  0  0  0  0  0  0
  150.7305  143.0216  156.7774 N   0  0  0  0  0  0  0  0  0  0  0  0
  151.5995  143.1708  157.7887 C   0  0  0  0  0  0  0  0  0  0  0  0
  152.0092  142.2292  158.4685 O   0  0  0  0  0  0  0  0  0  0  0  0
  152.0738  144.6002  158.0670 C   0  0  0  0  0  0  0  0  0  0  0  0
  151.9659  144.9922  159.5314 C   0  0  0  0  0  0  0  0  0  0  0  0
  152.1403  143.9614  160.6250 C   0  0  0  0  0  0  0  0  0  0  0  0
  150.7811  144.5627  160.3669 C   0  0  0  0  0  0  0  0  0  0  0  0
  153.3255  137.1346  155.7080 H   0  0  0  0  0  0  0  0  0  0  0  0
  152.7556  138.0533  157.1220 H   0  0  0  0  0  0  0  0  0  0  0  0
  153.6125  138.8880  155.8008 H   0  0  0  0  0  0  0  0  0  0  0  0
  151.4812  136.5163  154.2410 H   0  0  0  0  0  0  0  0  0  0  0  0
  148.8824  139.8421  154.4896 H   0  0  0  0  0  0  0  0  0  0  0  0
  151.3088  140.2563  157.4140 H   0  0  0  0  0  0  0  0  0  0  0  0
  152.1738  140.9946  156.0818 H   0  0  0  0  0  0  0  0  0  0  0  0
  149.7408  141.8548  155.3445 H   0  0  0  0  0  0  0  0  0  0  0  0
  149.3235  141.5190  157.0110 H   0  0  0  0  0  0  0  0  0  0  0  0
  150.4491  143.8473  156.2684 H   0  0  0  0  0  0  0  0  0  0  0  0
  153.1112  144.7027  157.7474 H   0  0  0  0  0  0  0  0  0  0  0  0
  151.4854  145.2964  157.4669 H   0  0  0  0  0  0  0  0  0  0  0  0
  152.3661  145.9812  159.7491 H   0  0  0  0  0  0  0  0  0  0  0  0
  152.2968  142.9269  160.3261 H   0  0  0  0  0  0  0  0  0  0  0  0
  152.6655  144.2706  161.5263 H   0  0  0  0  0  0  0  0  0  0  0  0
  150.3991  145.2737  161.0967 H   0  0  0  0  0  0  0  0  0  0  0  0
  150.0318  143.9259  159.9008 H   0  0  0  0  0  0  0  0  0  0  0  0
  149.2956  137.5741  153.4599 H   0  0  0  0  0  0  0  0  0  0  0  0
  1  2  1  0  0  0  0
  1 16  1  0  0  0  0
  1 17  1  0  0  0  0
  1 18  1  0  0  0  0
  2  6  1  0  0  0  0
  2  3  1  0  0  0  0
  3  4  2  0  0  0  0
  3 19  1  0  0  0  0
  4  5  1  0  0  0  0
  4 33  1  0  0  0  0
  5  6  2  0  0  0  0
  5 20  1  0  0  0  0
  6  7  1  0  0  0  0
  7  8  1  0  0  0  0
  7 21  1  0  0  0  0
  7 22  1  0  0  0  0
  8  9  1  0  0  0  0
  8 23  1  0  0  0  0
  8 24  1  0  0  0  0
  9 10  1  0  0  0  0
  9 25  1  0  0  0  0
 10 11  2  0  0  0  0
 10 12  1  0  0  0  0
 12 13  1  0  0  0  0
 12 26  1  0  0  0  0
 12 27  1  0  0  0  0
 13 15  1  0  0  0  0
 13 14  1  0  0  0  0
 13 28  1  0  0  0  0
 14 15  1  0  0  0  0
 14 29  1  0  0  0  0
 14 30  1  0  0  0  0
 15 31  1  0  0  0  0
 15 32  1  0  0  0  0
M  CHG  1   4   1
M  END
> <s_m_source_file>
AV-unprocessed.smi

> <i_m_source_file_index>
3099

> <i_lp_mmshare_version>
43012

> <i_f3d_flags>
0

> <s_epik_input>
W0NIM11uMVtjSF1uW2NIXWMxW0NIMl1bQ0gyXVtOSF1DKD1PKVtDSDJdW0NIXTJbQ0gyXVtDSDJdMg==

> <s_epik_cmdline>
J2VwaWtfcHl0aG9uJywgJy1waCcsICc3LjAnLCAnLXRuJywgJzgnLCAnLW1hJywgJzIwMCcsICctbWV0YWxfYmluZGluZycsICctaW1hZScsICc8aW5maWxlLm1hZT4nLCAnLW9tYWUnLCAnPG91dGZpbGUubWFlPic=

> <r_lp_tautomer_probability>
1

> <r_epik_Ionization_Penalty>
0.156092

> <r_epik_Ionization_Penalty_Charging>
0

> <r_epik_Ionization_Penalty_Neutral>
0.156092

> <r_epik_State_Penalty>
0.145389

> <r_epik_Charging_Adjusted_Penalty>
0.145389

> <i_epik_Tot_Q>
1

> <i_epik_Tot_abs_Q>
1

> <r_epik_Metal_State_Penalty>
0.466304

> <b_epik_Metal_Only>
0

> <s_lp_Force_Field>
OPLS_2005

> <r_lp_Energy>
10.1208

> <b_lp_Chiralities_Consistent>
1

> <s_lp_Variant>
AV-unprocessed.smi:3099-1

> <Gold.Version>
5.8.1

> <Gold.Id.Protein>
6NUR|6NUR_protein|mol2

> <Gold.PLP.Fitness>
50.4386

> <Gold.PLP.PLP>
-39.9070

> <Gold.PLP.part.hbond>
-2.4828

> <Gold.PLP.part.metal>
0.0000

> <Gold.PLP.part.buried>
-2.3784

> <Gold.PLP.part.nonpolar>
-34.9371

> <Gold.PLP.part.repulsive>
0.1213

> <Gold.PLP.ligand.clash>
0.0000

> <Gold.PLP.ligand.torsion>
0.6210

> <Gold.PLP.Chemscore.Hbond>
2.9280

> <Gold.PLP.Chemscore.CHOScore>
0.8169

> <Gold.PLP.Chemscore.Metal>
0.0000

> <Gold.Chemscore.Hbonds>
donor molecule, donor type, donor heavy atom, donor atom, acceptor molecule, acceptor atom, score
      L1  H     4    33       P1  7948  1.68
      L1  H     9    25       P1  8028  0.83
      L1  C     3    19       P1  7949  0.19

> <Gold.PLP.Chemscore.Internal.Correction>
0.5388

> <Gold.Rescore>
     Score         DG    S(hbond)    S(metal)    S(lipo)     H(rot)  DE(clash)    DE(int)     intcor
     12.59     -16.25       1.82        0.00      83.79       1.99       0.17       3.49       ----

> <Gold.Chemscore.Fitness>
12.5906

> <Gold.Chemscore.DG>
-16.2550

> <Gold.Chemscore.ZeroCoef>
-5.4800

> <Gold.Chemscore.Hbond>
1.8165

> <Gold.Chemscore.Metal>
0.0000

> <Gold.Chemscore.Lipo>
83.7896

> <Gold.Chemscore.Internal_Hbond>
0.0000

> <Gold.Chemscore.DEClash>
0.1743

> <Gold.Chemscore.DEInternal>
3.4900

> <Gold.Chemscore.Rot>
1.9905

> <Gold.Chemscore.Internal.Correction>
   9.000000E+99

> <Gold.Chemscore.Hbonds>
donor molecule, donor type, donor heavy atom, donor atom, acceptor molecule, acceptor atom, score
      L1  H     4    33       P1  7948  0.76
      L1  H     9    25       P1  8028  0.83

> <Gold.Chemscore.Hbond.Weighted>
-6.0673

> <Gold.Chemscore.Metal.Weighted>
-0.0000

> <Gold.Chemscore.Lipo.Weighted>
-9.8034

> <Gold.Chemscore.Internal_Hbond.Weighted>
0.0000

> <Gold.Chemscore.DEClash.Weighted>
0.1743

> <Gold.Chemscore.DEInternal.Weighted>
3.4900

> <Gold.Chemscore.Rot.Weighted>
5.0957

> <Gold.Chemscore.Internal.Correction.Weighted>
   9.000000E+99

> <Gold.Protein.RotatedTorsions>
[ 6907 6896 6895 6894 ] final    6.34 input  -60.11 | X-H torsion
[ 7974 7965 7964 7962 ] final  100.04 input  175.53 | X-H torsion
[ 8008 7997 7996 7995 ] final   48.24 input   59.86 | X-H torsion
[ 10167 10162 10161 10158 ] final -121.88 input  -65.29 | X-H torsion
[ 10718 10713 10712 10709 ] final  136.83 input   66.30 | X-H torsion
[ 10763 10752 10751 10750 ] final  111.23 input  -60.55 | X-H torsion
[ 11005 11000 10999 10996 ] final  149.57 input  -57.11 | X-H torsion

> <Gold.Protein.ActiveResidues>
 VAL166  LYS551  ARG553  GLY616  TRP617  ASP618  TYR619  PRO620  LYS621  CYS622 
 ASP623  PHE694  ASN695  SER759  ASP760  ASP761  ALA762  ILE779  LEU786  VAL792 
 PHE793  MET794  SER795  GLU796  ALA797  LYS798  CYS799  TRP800  GLU811  SER814 

> <Gold.Protein.RotatedAtoms>
  151.6721  135.0974  160.0199 H   0  0  0  0  0  0  0  0  0  0  0  0  # atno 6907 bound_to 6896
  152.3885  133.6641  159.6227 H   0  0  0  0  0  0  0  0  0  0  0  0  # atno 6908 bound_to 6896
  150.7806  133.8911  159.3355 H   0  0  0  0  0  0  0  0  0  0  0  0  # atno 6909 bound_to 6896
  145.3909  139.2363  143.3352 H   0  0  0  0  0  0  0  0  0  0  0  0  # atno 7974 bound_to 7965
  155.3823  140.3429  155.4247 H   0  0  0  0  0  0  0  0  0  0  0  0  # atno 8008 bound_to 7997
  156.1603  140.1599  156.8656 H   0  0  0  0  0  0  0  0  0  0  0  0  # atno 8009 bound_to 7997
  154.5133  140.0784  156.8015 H   0  0  0  0  0  0  0  0  0  0  0  0  # atno 8010 bound_to 7997
  140.0202  143.5352  152.2224 H   0  0  0  0  0  0  0  0  0  0  0  0  # atno 10167 bound_to 10162
  157.4425  131.1059  151.0126 H   0  0  0  0  0  0  0  0  0  0  0  0  # atno 10718 bound_to 10713
  153.4604  135.3723  155.2335 H   0  0  0  0  0  0  0  0  0  0  0  0  # atno 10763 bound_to 10752
  154.8757  135.3907  154.3932 H   0  0  0  0  0  0  0  0  0  0  0  0  # atno 10764 bound_to 10752
  153.4504  135.7085  153.6176 H   0  0  0  0  0  0  0  0  0  0  0  0  # atno 10765 bound_to 10752
  140.1056  134.8956  157.1861 H   0  0  0  0  0  0  0  0  0  0  0  0  # atno 11005 bound_to 11000
  146.2798  140.4591  142.8781 LP  0  0  0  0  0  0  0  0  0  0  0  0  # atno 17320 bound_to 7965
  144.8441  140.6902  143.6210 LP  0  0  0  0  0  0  0  0  0  0  0  0  # atno 17321 bound_to 7965
  139.6145  144.7616  151.2878 LP  0  0  0  0  0  0  0  0  0  0  0  0  # atno 17342 bound_to 10162
  140.7345  143.6763  150.8039 LP  0  0  0  0  0  0  0  0  0  0  0  0  # atno 17343 bound_to 10162
  157.0984  130.5971  149.5455 LP  0  0  0  0  0  0  0  0  0  0  0  0  # atno 17370 bound_to 10713
  155.9954  130.5021  150.7459 LP  0  0  0  0  0  0  0  0  0  0  0  0  # atno 17371 bound_to 10713
  140.3160  134.2970  155.7256 LP  0  0  0  0  0  0  0  0  0  0  0  0  # atno 17394 bound_to 11000
  141.2117  133.7680  156.9844 LP  0  0  0  0  0  0  0  0  0  0  0  0  # atno 17395 bound_to 11000

$$$$
