AV-unprocessed.smi:1093|AV-procd|sdf|4741|dock4
  -GOLD-   22720 3273D 1   1.00000     0.00000
 Structure written by MMmdl.
 48 49  0  0  0  0  0  0  0  0  3 V2000
  145.4303  136.0872  152.4905 C   0  0  0  0  0  0  0  0  0  0  0  0
  145.9239  134.9091  153.3427 C   0  0  0  0  0  0  0  0  0  0  0  0
  147.3633  135.0198  153.6905 N   0  3  2  0  0  0  0  0  0  0  0  0
  147.9791  133.6931  153.9534 C   0  0  0  0  0  0  0  0  0  0  0  0
  149.4960  133.8173  154.1702 C   0  0  0  0  0  0  0  0  0  0  0  0
  149.8133  134.7987  155.3056 C   0  0  0  0  0  0  0  0  0  0  0  0
  149.1403  136.1556  155.0330 C   0  0  2  0  0  0  0  0  0  0  0  0
  149.3652  137.0761  156.1448 N   0  0  0  0  0  0  0  0  0  0  0  0
  149.8240  138.3307  156.0266 C   0  0  0  0  0  0  0  0  0  0  0  0
  150.1145  138.8464  154.9477 O   0  0  0  0  0  0  0  0  0  0  0  0
  149.9381  138.9246  157.2274 N   0  0  0  0  0  0  0  0  0  0  0  0
  150.3536  140.2522  157.5219 C   0  0  0  0  0  0  0  0  0  0  0  0
  151.1265  140.4588  158.6836 C   0  0  0  0  0  0  0  0  0  0  0  0
  151.5470  141.7604  159.0258 C   0  0  0  0  0  0  0  0  0  0  0  0
  151.1841  142.8572  158.2060 C   0  0  0  0  0  0  0  0  0  0  0  0
  151.5642  144.1885  158.4821 N   0  0  0  0  0  0  0  0  0  0  0  0
  150.7506  145.0024  159.3760 C   0  0  0  0  0  0  0  0  0  0  0  0
  152.8362  144.6963  157.9799 C   0  0  0  0  0  0  0  0  0  0  0  0
  150.4299  142.6101  157.1071 N   0  3  0  0  0  0  0  0  0  0  0  0
  150.0074  141.3807  156.7413 C   0  0  0  0  0  0  0  0  0  0  0  0
  147.6280  135.9725  154.8024 C   0  0  0  0  0  0  0  0  0  0  0  0
  144.3999  135.9242  152.1735 H   0  0  0  0  0  0  0  0  0  0  0  0
  146.0361  136.2043  151.5917 H   0  0  0  0  0  0  0  0  0  0  0  0
  145.4525  137.0286  153.0381 H   0  0  0  0  0  0  0  0  0  0  0  0
  145.3250  134.8106  154.2492 H   0  0  0  0  0  0  0  0  0  0  0  0
  145.7635  133.9966  152.7668 H   0  0  0  0  0  0  0  0  0  0  0  0
  147.5091  133.2386  154.8271 H   0  0  0  0  0  0  0  0  0  0  0  0
  147.7941  133.0257  153.1107 H   0  0  0  0  0  0  0  0  0  0  0  0
  149.9220  132.8388  154.3941 H   0  0  0  0  0  0  0  0  0  0  0  0
  149.9709  134.1577  153.2489 H   0  0  0  0  0  0  0  0  0  0  0  0
  149.4595  134.3888  156.2529 H   0  0  0  0  0  0  0  0  0  0  0  0
  150.8932  134.9189  155.4008 H   0  0  0  0  0  0  0  0  0  0  0  0
  149.5673  136.5842  154.1240 H   0  0  0  0  0  0  0  0  0  0  0  0
  149.1592  136.7306  157.0710 H   0  0  0  0  0  0  0  0  0  0  0  0
  149.7389  138.3457  158.0301 H   0  0  0  0  0  0  0  0  0  0  0  0
  151.4022  139.6248  159.3126 H   0  0  0  0  0  0  0  0  0  0  0  0
  152.1417  141.8951  159.9168 H   0  0  0  0  0  0  0  0  0  0  0  0
  149.7453  145.1295  158.9725 H   0  0  0  0  0  0  0  0  0  0  0  0
  151.1813  145.9947  159.5111 H   0  0  0  0  0  0  0  0  0  0  0  0
  150.6763  144.5346  160.3583 H   0  0  0  0  0  0  0  0  0  0  0  0
  152.8693  144.6402  156.8914 H   0  0  0  0  0  0  0  0  0  0  0  0
  153.6661  144.1153  158.3832 H   0  0  0  0  0  0  0  0  0  0  0  0
  152.9883  145.7379  158.2635 H   0  0  0  0  0  0  0  0  0  0  0  0
  149.4015  141.3593  155.8482 H   0  0  0  0  0  0  0  0  0  0  0  0
  147.1862  136.9428  154.5763 H   0  0  0  0  0  0  0  0  0  0  0  0
  147.1454  135.6102  155.7119 H   0  0  0  0  0  0  0  0  0  0  0  0
  147.8268  135.3863  152.8712 H   0  0  0  0  0  0  0  0  0  0  0  0
  150.1619  143.4007  156.5207 H   0  0  0  0  0  0  0  0  0  0  0  0
  1  2  1  0  0  0  0
  1 22  1  0  0  0  0
  1 23  1  0  0  0  0
  1 24  1  0  0  0  0
  2  3  1  0  0  0  0
  2 25  1  0  0  0  0
  2 26  1  0  0  0  0
  3 21  1  0  0  0  0
  3  4  1  0  0  0  0
  3 47  1  0  0  0  0
  4  5  1  0  0  0  0
  4 27  1  0  0  0  0
  4 28  1  0  0  0  0
  5  6  1  0  0  0  0
  5 29  1  0  0  0  0
  5 30  1  0  0  0  0
  6  7  1  0  0  0  0
  6 31  1  0  0  0  0
  6 32  1  0  0  0  0
  7  8  1  0  0  0  0
  7 21  1  0  0  0  0
  7 33  1  0  0  0  0
  8  9  1  0  0  0  0
  8 34  1  0  0  0  0
  9 10  2  0  0  0  0
  9 11  1  0  0  0  0
 11 12  1  0  0  0  0
 11 35  1  0  0  0  0
 12 20  1  0  0  0  0
 12 13  2  0  0  0  0
 13 14  1  0  0  0  0
 13 36  1  0  0  0  0
 14 15  2  0  0  0  0
 14 37  1  0  0  0  0
 15 16  1  0  0  0  0
 15 19  1  0  0  0  0
 16 17  1  0  0  0  0
 16 18  1  0  0  0  0
 17 38  1  0  0  0  0
 17 39  1  0  0  0  0
 17 40  1  0  0  0  0
 18 41  1  0  0  0  0
 18 42  1  0  0  0  0
 18 43  1  0  0  0  0
 19 20  2  0  0  0  0
 19 48  1  0  0  0  0
 20 44  1  0  0  0  0
 21 45  1  0  0  0  0
 21 46  1  0  0  0  0
M  CHG  1   3   1
M  CHG  1  19   1
M  END
> <s_m_source_file>
AV-unprocessed.smi

> <i_m_source_file_index>
1093

> <i_lp_mmshare_version>
43012

> <i_f3d_flags>
0

> <s_epik_input>
W0NIM11bQ0gyXU4xW0NIMl1bQ0gyXVtDSDJdW0NASF0oW0NIMl0xKVtOSF1DKD1PKVtOSF1jMltjSF1bY0hdYyhOKFtDSDNdKVtDSDNdKW5bY0hdMg==

> <s_epik_cmdline>
J2VwaWtfcHl0aG9uJywgJy1waCcsICc3LjAnLCAnLXRuJywgJzgnLCAnLW1hJywgJzIwMCcsICctbWV0YWxfYmluZGluZycsICctaW1hZScsICc8aW5maWxlLm1hZT4nLCAnLW9tYWUnLCAnPG91dGZpbGUubWFlPic=

> <r_lp_tautomer_probability>
0.999994

> <r_epik_Ionization_Penalty>
0.346711

> <r_epik_Ionization_Penalty_Charging>
0.346691

> <r_epik_Ionization_Penalty_Neutral>
1.93006e-05

> <r_epik_State_Penalty>
0.339838

> <r_epik_Charging_Adjusted_Penalty>
0.68653

> <i_epik_Tot_Q>
2

> <i_epik_Tot_abs_Q>
2

> <r_epik_Metal_State_Penalty>
0.600835

> <b_epik_Metal_Only>
0

> <s_lp_Force_Field>
OPLS_2005

> <r_lp_Energy>
27.882

> <b_lp_Chiralities_Consistent>
1

> <s_lp_Variant>
AV-unprocessed.smi:1093-4

> <Gold.Version>
5.8.1

> <Gold.Id.Protein>
6NUR|6NUR_protein|mol2

> <Gold.PLP.Fitness>
40.5286

> <Gold.PLP.PLP>
-32.7132

> <Gold.PLP.part.hbond>
-2.0000

> <Gold.PLP.part.metal>
0.0000

> <Gold.PLP.part.buried>
-4.3033

> <Gold.PLP.part.nonpolar>
-26.6928

> <Gold.PLP.part.repulsive>
0.1523

> <Gold.PLP.ligand.clash>
0.0000

> <Gold.PLP.ligand.torsion>
2.1052

> <Gold.PLP.Chemscore.Hbond>
4.0000

> <Gold.PLP.Chemscore.CHOScore>
0.0000

> <Gold.PLP.Chemscore.Metal>
0.0000

> <Gold.Chemscore.Hbonds>
donor molecule, donor type, donor heavy atom, donor atom, acceptor molecule, acceptor atom, score
      L1  H     3    47       P1  7948  2.00
      L1  H    19    48       P1  8028  2.00

> <Gold.PLP.Chemscore.Internal.Correction>
0.0258

> <Gold.Rescore>
     Score         DG    S(hbond)    S(metal)    S(lipo)     H(rot)  DE(clash)    DE(int)     intcor
     15.77     -17.87       1.98        0.00      75.61       1.19       0.16       1.95       ----

> <Gold.Chemscore.Fitness>
15.7695

> <Gold.Chemscore.DG>
-17.8726

> <Gold.Chemscore.ZeroCoef>
-5.4800

> <Gold.Chemscore.Hbond>
1.9775

> <Gold.Chemscore.Metal>
0.0000

> <Gold.Chemscore.Lipo>
75.6120

> <Gold.Chemscore.Internal_Hbond>
0.0000

> <Gold.Chemscore.DEClash>
0.1553

> <Gold.Chemscore.DEInternal>
1.9478

> <Gold.Chemscore.Rot>
1.1949

> <Gold.Chemscore.Internal.Correction>
   9.000000E+99

> <Gold.Chemscore.Hbonds>
donor molecule, donor type, donor heavy atom, donor atom, acceptor molecule, acceptor atom, score
      L1  H     3    47       P1  7948  1.00
      L1  H    19    48       P1  8028  0.93

> <Gold.Chemscore.Hbond.Weighted>
-6.6049

> <Gold.Chemscore.Metal.Weighted>
-0.0000

> <Gold.Chemscore.Lipo.Weighted>
-8.8466

> <Gold.Chemscore.Internal_Hbond.Weighted>
0.0000

> <Gold.Chemscore.DEClash.Weighted>
0.1553

> <Gold.Chemscore.DEInternal.Weighted>
1.9478

> <Gold.Chemscore.Rot.Weighted>
3.0590

> <Gold.Chemscore.Internal.Correction.Weighted>
   9.000000E+99

> <Gold.Protein.RotatedTorsions>
[ 6907 6896 6895 6894 ] final  -52.82 input  -60.11 | X-H torsion
[ 7974 7965 7964 7962 ] final   35.37 input  175.53 | X-H torsion
[ 8008 7997 7996 7995 ] final  159.46 input   59.86 | X-H torsion
[ 10167 10162 10161 10158 ] final  123.57 input  -65.29 | X-H torsion
[ 10718 10713 10712 10709 ] final  -12.29 input   66.30 | X-H torsion
[ 10763 10752 10751 10750 ] final  -52.09 input  -60.55 | X-H torsion
[ 11005 11000 10999 10996 ] final   41.88 input  -57.11 | X-H torsion

> <Gold.Protein.ActiveResidues>
 VAL166  LYS551  ARG553  GLY616  TRP617  ASP618  TYR619  PRO620  LYS621  CYS622 
 ASP623  PHE694  ASN695  SER759  ASP760  ASP761  ALA762  ILE779  LEU786  VAL792 
 PHE793  MET794  SER795  GLU796  ALA797  LYS798  CYS799  TRP800  GLU811  SER814 

> <Gold.Protein.RotatedAtoms>
  150.8482  134.7799  159.6987 H   0  0  0  0  0  0  0  0  0  0  0  0  # atno 6907 bound_to 6896
  152.4554  134.5300  159.9818 H   0  0  0  0  0  0  0  0  0  0  0  0  # atno 6908 bound_to 6896
  151.5426  133.3392  159.2974 H   0  0  0  0  0  0  0  0  0  0  0  0  # atno 6909 bound_to 6896
  146.1287  139.6150  142.9241 H   0  0  0  0  0  0  0  0  0  0  0  0  # atno 7974 bound_to 7965
  156.2237  140.1830  156.7415 H   0  0  0  0  0  0  0  0  0  0  0  0  # atno 8008 bound_to 7997
  154.5906  140.0651  156.9262 H   0  0  0  0  0  0  0  0  0  0  0  0  # atno 8009 bound_to 7997
  155.2342  140.3317  155.4302 H   0  0  0  0  0  0  0  0  0  0  0  0  # atno 8010 bound_to 7997
  139.5791  144.6978  151.3574 H   0  0  0  0  0  0  0  0  0  0  0  0  # atno 10167 bound_to 10162
  156.6467  130.4943  149.6076 H   0  0  0  0  0  0  0  0  0  0  0  0  # atno 10718 bound_to 10713
  154.1371  135.6511  153.4934 H   0  0  0  0  0  0  0  0  0  0  0  0  # atno 10763 bound_to 10752
  153.0177  135.5306  154.6942 H   0  0  0  0  0  0  0  0  0  0  0  0  # atno 10764 bound_to 10752
  154.6193  135.2963  155.0314 H   0  0  0  0  0  0  0  0  0  0  0  0  # atno 10765 bound_to 10752
  140.1792  134.4125  155.8210 H   0  0  0  0  0  0  0  0  0  0  0  0  # atno 11005 bound_to 11000
  145.5308  141.0427  143.2384 LP  0  0  0  0  0  0  0  0  0  0  0  0  # atno 17320 bound_to 7965
  144.7669  139.6825  143.7211 LP  0  0  0  0  0  0  0  0  0  0  0  0  # atno 17321 bound_to 7965
  140.7071  143.7485  150.7502 LP  0  0  0  0  0  0  0  0  0  0  0  0  # atno 17342 bound_to 10162
  140.1013  143.4785  152.2424 LP  0  0  0  0  0  0  0  0  0  0  0  0  # atno 17343 bound_to 10162
  156.2116  130.6682  151.1275 LP  0  0  0  0  0  0  0  0  0  0  0  0  # atno 17370 bound_to 10713
  157.7154  131.0712  150.6347 LP  0  0  0  0  0  0  0  0  0  0  0  0  # atno 17371 bound_to 10713
  141.2222  133.6992  156.7901 LP  0  0  0  0  0  0  0  0  0  0  0  0  # atno 17394 bound_to 11000
  140.2287  134.8702  157.3453 LP  0  0  0  0  0  0  0  0  0  0  0  0  # atno 17395 bound_to 11000

$$$$
