AV-unprocessed.smi:2439|AV-procd|sdf|9606|dock9
  -GOLD-   2272013243D 1   1.00000     0.00000
 Structure written by MMmdl.
 41 43  0  0  0  0  0  0  0  0  2 V2000
  151.5145  139.5023  155.4418 N   0  0  0  0  0  0  0  0  0  0  0  0
  150.4802  139.7632  154.9940 C   0  0  0  0  0  0  0  0  0  0  0  0
  149.1771  140.0924  154.4286 C   0  0  0  0  0  0  0  0  0  0  0  0
  148.6479  139.2717  153.4105 C   0  0  0  0  0  0  0  0  0  0  0  0
  147.3924  139.5861  152.8594 C   0  0  0  0  0  0  0  0  0  0  0  0
  146.7120  140.7137  153.3529 C   0  0  0  0  0  0  0  0  0  0  0  0
  147.2064  141.5070  154.3260 N   0  0  0  0  0  0  0  0  0  0  0  0
  148.4167  141.2120  154.8614 C   0  0  0  0  0  0  0  0  0  0  0  0
  148.9073  142.0577  155.8740 N   0  0  0  0  0  0  0  0  0  0  0  0
  149.3692  141.5429  157.1577 C   0  0  0  0  0  0  0  0  0  0  0  0
  150.7844  142.0299  157.5133 C   0  0  1  0  0  0  0  0  0  0  0  0
  150.7574  143.4414  158.1260 C   0  0  0  0  0  0  0  0  0  0  0  0
  152.1198  143.8561  158.5433 N   0  3  1  0  0  0  0  0  0  0  0  0
  152.1861  145.2345  159.0955 C   0  0  0  0  0  0  0  0  0  0  0  0
  151.6156  145.3177  160.5243 C   0  0  0  0  0  0  0  0  0  0  0  0
  152.2976  144.3029  161.4518 C   0  0  0  0  0  0  0  0  0  0  0  0
  152.2076  142.8897  160.8586 C   0  0  0  0  0  0  0  0  0  0  0  0
  152.7769  142.8503  159.4231 C   0  0  1  0  0  0  0  0  0  0  0  0
  152.6882  141.4489  158.7875 C   0  0  0  0  0  0  0  0  0  0  0  0
  151.3368  141.1351  158.4731 O   0  0  0  0  0  0  0  0  0  0  0  0
  149.1937  138.4106  153.0518 H   0  0  0  0  0  0  0  0  0  0  0  0
  146.9615  138.9772  152.0782 H   0  0  0  0  0  0  0  0  0  0  0  0
  145.7459  140.9874  152.9553 H   0  0  0  0  0  0  0  0  0  0  0  0
  148.8456  143.0589  155.7539 H   0  0  0  0  0  0  0  0  0  0  0  0
  148.6617  141.8283  157.9372 H   0  0  0  0  0  0  0  0  0  0  0  0
  149.3514  140.4534  157.1186 H   0  0  0  0  0  0  0  0  0  0  0  0
  151.4081  142.0398  156.6176 H   0  0  0  0  0  0  0  0  0  0  0  0
  150.3729  144.1537  157.3949 H   0  0  0  0  0  0  0  0  0  0  0  0
  150.0747  143.4623  158.9755 H   0  0  0  0  0  0  0  0  0  0  0  0
  153.2307  145.5487  159.1051 H   0  0  0  0  0  0  0  0  0  0  0  0
  151.6642  145.9271  158.4342 H   0  0  0  0  0  0  0  0  0  0  0  0
  151.7507  146.3258  160.9176 H   0  0  0  0  0  0  0  0  0  0  0  0
  150.5401  145.1404  160.5111 H   0  0  0  0  0  0  0  0  0  0  0  0
  153.3443  144.5772  161.5893 H   0  0  0  0  0  0  0  0  0  0  0  0
  151.8370  144.3267  162.4398 H   0  0  0  0  0  0  0  0  0  0  0  0
  152.7553  142.1933  161.4943 H   0  0  0  0  0  0  0  0  0  0  0  0
  151.1701  142.5540  160.8662 H   0  0  0  0  0  0  0  0  0  0  0  0
  153.8332  143.1171  159.4831 H   0  0  0  0  0  0  0  0  0  0  0  0
  153.2974  141.3971  157.8837 H   0  0  0  0  0  0  0  0  0  0  0  0
  153.0798  140.6949  159.4705 H   0  0  0  0  0  0  0  0  0  0  0  0
  152.6618  143.8740  157.6908 H   0  0  0  0  0  0  0  0  0  0  0  0
  1  2  3  0  0  0  0
  2  3  1  0  0  0  0
  3  8  1  0  0  0  0
  3  4  2  0  0  0  0
  4  5  1  0  0  0  0
  4 21  1  0  0  0  0
  5  6  2  0  0  0  0
  5 22  1  0  0  0  0
  6  7  1  0  0  0  0
  6 23  1  0  0  0  0
  7  8  2  0  0  0  0
  8  9  1  0  0  0  0
  9 10  1  0  0  0  0
  9 24  1  0  0  0  0
 10 11  1  0  0  0  0
 10 25  1  0  0  0  0
 10 26  1  0  0  0  0
 11 20  1  0  0  0  0
 11 12  1  0  0  0  0
 11 27  1  0  0  0  0
 12 13  1  0  0  0  0
 12 28  1  0  0  0  0
 12 29  1  0  0  0  0
 13 18  1  0  0  0  0
 13 14  1  0  0  0  0
 13 41  1  0  0  0  0
 14 15  1  0  0  0  0
 14 30  1  0  0  0  0
 14 31  1  0  0  0  0
 15 16  1  0  0  0  0
 15 32  1  0  0  0  0
 15 33  1  0  0  0  0
 16 17  1  0  0  0  0
 16 34  1  0  0  0  0
 16 35  1  0  0  0  0
 17 18  1  0  0  0  0
 17 36  1  0  0  0  0
 17 37  1  0  0  0  0
 18 19  1  0  0  0  0
 18 38  1  0  0  0  0
 19 20  1  0  0  0  0
 19 39  1  0  0  0  0
 19 40  1  0  0  0  0
M  CHG  1  13   1
M  END
> <s_m_source_file>
AV-unprocessed.smi

> <i_m_source_file_index>
2439

> <i_lp_mmshare_version>
43012

> <i_f3d_flags>
0

> <s_epik_input>
TiNDYzFbY0hdW2NIXVtjSF1uYzFbTkhdW0NIMl1bQ0BIXShbQ0gyXTIpT1tDSDJdW0NAQEhdKE4yMylbQ0gyXVtDSDJdW0NIMl1bQ0gyXTM=

> <s_epik_cmdline>
J2VwaWtfcHl0aG9uJywgJy1waCcsICc3LjAnLCAnLXRuJywgJzgnLCAnLW1hJywgJzIwMCcsICctbWV0YWxfYmluZGluZycsICctaW1hZScsICc8aW5maWxlLm1hZT4nLCAnLW9tYWUnLCAnPG91dGZpbGUubWFlPic=

> <r_epik_Ionization_Penalty>
0.0803594

> <r_epik_Ionization_Penalty_Charging>
0.0803403

> <r_epik_Ionization_Penalty_Neutral>
1.90988e-05

> <r_epik_State_Penalty>
0.0711481

> <r_epik_Charging_Adjusted_Penalty>
0.151488

> <i_epik_Tot_Q>
1

> <i_epik_Tot_abs_Q>
1

> <r_epik_Metal_State_Penalty>
0.0711482

> <b_epik_Metal_Only>
0

> <s_lp_Force_Field>
OPLS_2005

> <r_lp_Energy>
29.8986

> <b_lp_Chiralities_Consistent>
1

> <s_lp_Variant>
AV-unprocessed.smi:2439-4

> <Gold.Version>
5.8.1

> <Gold.Id.Protein>
6NUR|6NUR_protein|mol2

> <Gold.PLP.Fitness>
42.9358

> <Gold.PLP.PLP>
-38.3558

> <Gold.PLP.part.hbond>
-1.0000

> <Gold.PLP.part.metal>
0.0000

> <Gold.PLP.part.buried>
0.7328

> <Gold.PLP.part.nonpolar>
-39.2223

> <Gold.PLP.part.repulsive>
0.2654

> <Gold.PLP.ligand.clash>
0.0000

> <Gold.PLP.ligand.torsion>
0.7087

> <Gold.PLP.Chemscore.Hbond>
1.0000

> <Gold.PLP.Chemscore.CHOScore>
0.9982

> <Gold.PLP.Chemscore.Metal>
0.0000

> <Gold.Chemscore.Hbonds>
donor molecule, donor type, donor heavy atom, donor atom, acceptor molecule, acceptor atom, score
      L1  H     9    24       P1  8028  1.00
      L1  C     6    23       P1 10175  1.00

> <Gold.PLP.Chemscore.Internal.Correction>
0.0028

> <Gold.Rescore>
     Score         DG    S(hbond)    S(metal)    S(lipo)     H(rot)  DE(clash)    DE(int)     intcor
     17.12     -19.31       1.00        0.00     117.38       1.27       0.47       1.73       ----

> <Gold.Chemscore.Fitness>
17.1206

> <Gold.Chemscore.DG>
-19.3131

> <Gold.Chemscore.ZeroCoef>
-5.4800

> <Gold.Chemscore.Hbond>
1.0000

> <Gold.Chemscore.Metal>
0.0000

> <Gold.Chemscore.Lipo>
117.3839

> <Gold.Chemscore.Internal_Hbond>
0.0000

> <Gold.Chemscore.DEClash>
0.4659

> <Gold.Chemscore.DEInternal>
1.7265

> <Gold.Chemscore.Rot>
1.2659

> <Gold.Chemscore.Internal.Correction>
   9.000000E+99

> <Gold.Chemscore.Hbonds>
donor molecule, donor type, donor heavy atom, donor atom, acceptor molecule, acceptor atom, score
      L1  H     9    24       P1  8028  1.00

> <Gold.Chemscore.Hbond.Weighted>
-3.3399

> <Gold.Chemscore.Metal.Weighted>
-0.0000

> <Gold.Chemscore.Lipo.Weighted>
-13.7339

> <Gold.Chemscore.Internal_Hbond.Weighted>
0.0000

> <Gold.Chemscore.DEClash.Weighted>
0.4659

> <Gold.Chemscore.DEInternal.Weighted>
1.7265

> <Gold.Chemscore.Rot.Weighted>
3.2408

> <Gold.Chemscore.Internal.Correction.Weighted>
   9.000000E+99

> <Gold.Protein.RotatedTorsions>
[ 6907 6896 6895 6894 ] final   -4.64 input  -60.11 | X-H torsion
[ 7974 7965 7964 7962 ] final  -58.65 input  175.53 | X-H torsion
[ 8008 7997 7996 7995 ] final   72.21 input   59.86 | X-H torsion
[ 10167 10162 10161 10158 ] final   -5.28 input  -65.29 | X-H torsion
[ 10718 10713 10712 10709 ] final   56.18 input   66.30 | X-H torsion
[ 10763 10752 10751 10750 ] final -168.64 input  -60.55 | X-H torsion
[ 11005 11000 10999 10996 ] final  140.91 input  -57.11 | X-H torsion

> <Gold.Protein.ActiveResidues>
 VAL166  LYS551  ARG553  GLY616  TRP617  ASP618  TYR619  PRO620  LYS621  CYS622 
 ASP623  PHE694  ASN695  SER759  ASP760  ASP761  ALA762  ILE779  LEU786  VAL792 
 PHE793  MET794  SER795  GLU796  ALA797  LYS798  CYS799  TRP800  GLU811  SER814 

> <Gold.Protein.RotatedAtoms>
  151.4944  135.1059  159.9811 H   0  0  0  0  0  0  0  0  0  0  0  0  # atno 6907 bound_to 6896
  152.4728  133.8064  159.6990 H   0  0  0  0  0  0  0  0  0  0  0  0  # atno 6908 bound_to 6896
  150.8747  133.7394  159.2976 H   0  0  0  0  0  0  0  0  0  0  0  0  # atno 6909 bound_to 6896
  145.8368  140.8444  143.0055 H   0  0  0  0  0  0  0  0  0  0  0  0  # atno 7974 bound_to 7965
  155.7654  140.3485  155.5219 H   0  0  0  0  0  0  0  0  0  0  0  0  # atno 8008 bound_to 7997
  155.8873  140.1012  157.1464 H   0  0  0  0  0  0  0  0  0  0  0  0  # atno 8009 bound_to 7997
  154.4030  140.1311  156.4259 H   0  0  0  0  0  0  0  0  0  0  0  0  # atno 8010 bound_to 7997
  140.6957  143.6327  150.8508 H   0  0  0  0  0  0  0  0  0  0  0  0  # atno 10167 bound_to 10162
  157.5408  130.8696  149.8820 H   0  0  0  0  0  0  0  0  0  0  0  0  # atno 10718 bound_to 10713
  154.6607  135.2924  154.9870 H   0  0  0  0  0  0  0  0  0  0  0  0  # atno 10763 bound_to 10752
  154.0931  135.6588  153.4859 H   0  0  0  0  0  0  0  0  0  0  0  0  # atno 10764 bound_to 10752
  153.0428  135.5224  154.7557 H   0  0  0  0  0  0  0  0  0  0  0  0  # atno 10765 bound_to 10752
  140.0362  134.9327  157.0757 H   0  0  0  0  0  0  0  0  0  0  0  0  # atno 11005 bound_to 11000
  144.6736  140.0752  143.7471 LP  0  0  0  0  0  0  0  0  0  0  0  0  # atno 17320 bound_to 7965
  145.9510  139.2734  143.1212 LP  0  0  0  0  0  0  0  0  0  0  0  0  # atno 17321 bound_to 7965
  140.0044  143.5709  152.2863 LP  0  0  0  0  0  0  0  0  0  0  0  0  # atno 17342 bound_to 10162
  139.6410  144.7654  151.2338 LP  0  0  0  0  0  0  0  0  0  0  0  0  # atno 17343 bound_to 10162
  156.0495  130.3720  150.1234 LP  0  0  0  0  0  0  0  0  0  0  0  0  # atno 17370 bound_to 10713
  156.9414  130.9745  151.3515 LP  0  0  0  0  0  0  0  0  0  0  0  0  # atno 17371 bound_to 10713
  140.4144  134.1947  155.7163 LP  0  0  0  0  0  0  0  0  0  0  0  0  # atno 17394 bound_to 11000
  141.1858  133.8314  157.1090 LP  0  0  0  0  0  0  0  0  0  0  0  0  # atno 17395 bound_to 11000

$$$$
