AV-unprocessed.smi:2632|AV-procd|sdf|10251|dock2
  -GOLD-   2272014263D 1   1.00000     0.00000
 Structure written by MMmdl.
 37 38  0  0  0  0  0  0  0  0  2 V2000
  145.6687  136.3617  159.1627 C   0  0  0  0  0  0  0  0  0  0  0  0
  146.2081  137.6708  159.1375 O   0  0  0  0  0  0  0  0  0  0  0  0
  146.4807  138.1231  157.8219 C   0  0  0  0  0  0  0  0  0  0  0  0
  147.5759  137.2510  157.1837 C   0  0  0  0  0  0  0  0  0  0  0  0
  148.8898  137.4531  157.8310 N   0  0  0  0  0  0  0  0  0  0  0  0
  149.8105  138.3621  157.2454 C   0  0  0  0  0  0  0  0  0  0  0  0
  149.4705  139.0467  156.0900 N   0  0  0  0  0  0  0  0  0  0  0  0
  151.0147  138.5543  157.8292 C   0  0  0  0  0  0  0  0  0  0  0  0
  152.2861  139.6594  157.2575 S   0  0  0  0  0  0  0  0  0  0  0  0
  152.1881  140.9340  158.4706 C   0  0  0  0  0  0  0  0  0  0  0  0
  152.8318  140.7742  159.7134 C   0  0  0  0  0  0  0  0  0  0  0  0
  152.7592  141.7981  160.6781 C   0  0  0  0  0  0  0  0  0  0  0  0
  152.0412  142.9808  160.4036 C   0  0  0  0  0  0  0  0  0  0  0  0
  151.9699  144.0791  161.4442 C   0  0  0  0  0  0  0  0  0  0  0  0
  151.3966  143.1358  159.1583 C   0  0  0  0  0  0  0  0  0  0  0  0
  151.4689  142.1130  158.1929 C   0  0  0  0  0  0  0  0  0  0  0  0
  151.3717  137.8324  159.0521 C   0  0  0  0  0  0  0  0  0  0  0  0
  152.4689  137.9885  159.5898 O   0  0  0  0  0  0  0  0  0  0  0  0
  150.4307  136.9897  159.5587 N   0  5  0  0  0  0  0  0  0  0  0  0
  149.2057  136.7881  158.9873 C   0  0  0  0  0  0  0  0  0  0  0  0
  148.3804  136.0224  159.4871 O   0  0  0  0  0  0  0  0  0  0  0  0
  145.4822  136.0634  160.1942 H   0  0  0  0  0  0  0  0  0  0  0  0
  146.3597  135.6413  158.7233 H   0  0  0  0  0  0  0  0  0  0  0  0
  144.7225  136.3150  158.6220 H   0  0  0  0  0  0  0  0  0  0  0  0
  145.5708  138.0556  157.2239 H   0  0  0  0  0  0  0  0  0  0  0  0
  146.7812  139.1718  157.8344 H   0  0  0  0  0  0  0  0  0  0  0  0
  147.2656  136.2052  157.2001 H   0  0  0  0  0  0  0  0  0  0  0  0
  147.6477  137.4774  156.1198 H   0  0  0  0  0  0  0  0  0  0  0  0
  148.5742  138.9181  155.6433 H   0  0  0  0  0  0  0  0  0  0  0  0
  150.0696  139.7596  155.6998 H   0  0  0  0  0  0  0  0  0  0  0  0
  153.3839  139.8711  159.9273 H   0  0  0  0  0  0  0  0  0  0  0  0
  153.2566  141.6742  161.6289 H   0  0  0  0  0  0  0  0  0  0  0  0
  151.2233  144.8284  161.1790 H   0  0  0  0  0  0  0  0  0  0  0  0
  152.9361  144.5757  161.5340 H   0  0  0  0  0  0  0  0  0  0  0  0
  151.7034  143.6654  162.4169 H   0  0  0  0  0  0  0  0  0  0  0  0
  150.8464  144.0385  158.9375 H   0  0  0  0  0  0  0  0  0  0  0  0
  150.9765  142.2370  157.2393 H   0  0  0  0  0  0  0  0  0  0  0  0
  1  2  1  0  0  0  0
  1 22  1  0  0  0  0
  1 23  1  0  0  0  0
  1 24  1  0  0  0  0
  2  3  1  0  0  0  0
  3  4  1  0  0  0  0
  3 25  1  0  0  0  0
  3 26  1  0  0  0  0
  4  5  1  0  0  0  0
  4 27  1  0  0  0  0
  4 28  1  0  0  0  0
  5 20  1  0  0  0  0
  5  6  1  0  0  0  0
  6  7  1  0  0  0  0
  6  8  2  0  0  0  0
  7 29  1  0  0  0  0
  7 30  1  0  0  0  0
  8  9  1  0  0  0  0
  8 17  1  0  0  0  0
  9 10  1  0  0  0  0
 10 16  1  0  0  0  0
 10 11  2  0  0  0  0
 11 12  1  0  0  0  0
 11 31  1  0  0  0  0
 12 13  2  0  0  0  0
 12 32  1  0  0  0  0
 13 14  1  0  0  0  0
 13 15  1  0  0  0  0
 14 33  1  0  0  0  0
 14 34  1  0  0  0  0
 14 35  1  0  0  0  0
 15 16  2  0  0  0  0
 15 36  1  0  0  0  0
 16 37  1  0  0  0  0
 17 18  2  0  0  0  0
 17 19  1  0  0  0  0
 19 20  1  0  0  0  0
 20 21  2  0  0  0  0
M  CHG  1  19  -1
M  END
> <s_m_source_file>
AV-unprocessed.smi

> <i_m_source_file_index>
2632

> <i_lp_mmshare_version>
43012

> <i_f3d_flags>
0

> <s_epik_input>
W0NIM11PW0NIMl1bQ0gyXW4xYyhbTkgyXSljKGMoPU8pW25IXWMxPU8pU2MyW2NIXVtjSF1jKFtDSDNdKVtjSF1bY0hdMg==

> <s_epik_cmdline>
J2VwaWtfcHl0aG9uJywgJy1waCcsICc3LjAnLCAnLXRuJywgJzgnLCAnLW1hJywgJzIwMCcsICctbWV0YWxfYmluZGluZycsICctaW1hZScsICc8aW5maWxlLm1hZT4nLCAnLW9tYWUnLCAnPG91dGZpbGUubWFlPic=

> <r_lp_tautomer_probability>
1

> <r_epik_Ionization_Penalty>
6.52921

> <r_epik_Ionization_Penalty_Charging>
0.111036

> <r_epik_Ionization_Penalty_Neutral>
6.41817

> <r_epik_State_Penalty>
6.41816

> <r_epik_Charging_Adjusted_Penalty>
6.5292

> <i_epik_Tot_Q>
-1

> <i_epik_Tot_abs_Q>
1

> <r_epik_Metal_State_Penalty>
2.337

> <b_epik_Metal_Only>
1

> <s_epik_Chemistry_Notes>
This compound has an imine and may undergo hydrolysis.

> <s_lp_Force_Field>
OPLS_2005

> <r_lp_Energy>
30.26

> <b_lp_Chiralities_Consistent>
1

> <s_lp_Variant>
AV-unprocessed.smi:2632-2

> <Gold.Version>
5.8.1

> <Gold.Id.Protein>
6NUR|6NUR_protein|mol2

> <Gold.PLP.Fitness>
38.6060

> <Gold.PLP.PLP>
-31.3407

> <Gold.PLP.part.hbond>
-2.0000

> <Gold.PLP.part.metal>
0.0000

> <Gold.PLP.part.buried>
-4.9967

> <Gold.PLP.part.nonpolar>
-23.8774

> <Gold.PLP.part.repulsive>
0.0000

> <Gold.PLP.ligand.clash>
0.0000

> <Gold.PLP.ligand.torsion>
0.7938

> <Gold.PLP.Chemscore.Hbond>
2.9120

> <Gold.PLP.Chemscore.CHOScore>
0.0000

> <Gold.PLP.Chemscore.Metal>
0.0000

> <Gold.Chemscore.Hbonds>
donor molecule, donor type, donor heavy atom, donor atom, acceptor molecule, acceptor atom, score
      P1  H  6896  6907       L1    19  1.44
      P1  H  6934  6947       L1     2  0.03

> <Gold.PLP.Chemscore.Internal.Correction>
0.1168

> <Gold.Rescore>
     Score         DG    S(hbond)    S(metal)    S(lipo)     H(rot)  DE(clash)    DE(int)     intcor
     10.63     -14.09       1.44        0.00      75.74       1.97       0.01       3.45       ----

> <Gold.Chemscore.Fitness>
10.6294

> <Gold.Chemscore.DG>
-14.0870

> <Gold.Chemscore.ZeroCoef>
-5.4800

> <Gold.Chemscore.Hbond>
1.4370

> <Gold.Chemscore.Metal>
0.0000

> <Gold.Chemscore.Lipo>
75.7431

> <Gold.Chemscore.Internal_Hbond>
0.0000

> <Gold.Chemscore.DEClash>
0.0053

> <Gold.Chemscore.DEInternal>
3.4523

> <Gold.Chemscore.Rot>
1.9744

> <Gold.Chemscore.Internal.Correction>
   9.000000E+99

> <Gold.Chemscore.Hbonds>
donor molecule, donor type, donor heavy atom, donor atom, acceptor molecule, acceptor atom, score
      P1  H  6896  6907       L1    19  0.11
      P1  H  6934  6947       L1     2  0.06

> <Gold.Chemscore.Hbond.Weighted>
-4.7996

> <Gold.Chemscore.Metal.Weighted>
-0.0000

> <Gold.Chemscore.Lipo.Weighted>
-8.8619

> <Gold.Chemscore.Internal_Hbond.Weighted>
0.0000

> <Gold.Chemscore.DEClash.Weighted>
0.0053

> <Gold.Chemscore.DEInternal.Weighted>
3.4523

> <Gold.Chemscore.Rot.Weighted>
5.0546

> <Gold.Chemscore.Internal.Correction.Weighted>
   9.000000E+99

> <Gold.Protein.RotatedTorsions>
[ 6907 6896 6895 6894 ] final  -40.88 input  -60.11 | X-H torsion
[ 7974 7965 7964 7962 ] final   84.77 input  175.53 | X-H torsion
[ 8008 7997 7996 7995 ] final   98.63 input   59.86 | X-H torsion
[ 10167 10162 10161 10158 ] final    8.69 input  -65.29 | X-H torsion
[ 10718 10713 10712 10709 ] final -130.30 input   66.30 | X-H torsion
[ 10763 10752 10751 10750 ] final -178.44 input  -60.55 | X-H torsion
[ 11005 11000 10999 10996 ] final  -58.73 input  -57.11 | X-H torsion

> <Gold.Protein.ActiveResidues>
 VAL166  LYS551  ARG553  GLY616  TRP617  ASP618  TYR619  PRO620  LYS621  CYS622 
 ASP623  PHE694  ASN695  SER759  ASP760  ASP761  ALA762  ILE779  LEU786  VAL792 
 PHE793  MET794  SER795  GLU796  ALA797  LYS798  CYS799  TRP800  GLU811  SER814 

> <Gold.Protein.RotatedAtoms>
  150.9732  134.9101  159.7800 H   0  0  0  0  0  0  0  0  0  0  0  0  # atno 6907 bound_to 6896
  152.5197  134.3512  159.9262 H   0  0  0  0  0  0  0  0  0  0  0  0  # atno 6908 bound_to 6896
  151.3521  133.3880  159.2716 H   0  0  0  0  0  0  0  0  0  0  0  0  # atno 6909 bound_to 6896
  145.5943  139.2342  143.2281 H   0  0  0  0  0  0  0  0  0  0  0  0  # atno 7974 bound_to 7965
  156.1023  140.3241  155.7959 H   0  0  0  0  0  0  0  0  0  0  0  0  # atno 8008 bound_to 7997
  155.4815  140.0554  157.2983 H   0  0  0  0  0  0  0  0  0  0  0  0  # atno 8009 bound_to 7997
  154.4705  140.2009  156.0022 H   0  0  0  0  0  0  0  0  0  0  0  0  # atno 8010 bound_to 7997
  140.6299  143.8017  150.7282 H   0  0  0  0  0  0  0  0  0  0  0  0  # atno 10167 bound_to 10162
  156.2131  130.6931  151.0672 H   0  0  0  0  0  0  0  0  0  0  0  0  # atno 10718 bound_to 10713
  154.5476  135.2810  155.1038 H   0  0  0  0  0  0  0  0  0  0  0  0  # atno 10763 bound_to 10752
  154.2496  135.6342  153.5239 H   0  0  0  0  0  0  0  0  0  0  0  0  # atno 10764 bound_to 10752
  152.9994  135.5579  154.6033 H   0  0  0  0  0  0  0  0  0  0  0  0  # atno 10765 bound_to 10752
  141.1219  133.6613  156.4965 H   0  0  0  0  0  0  0  0  0  0  0  0  # atno 11005 bound_to 11000
  146.1623  140.6769  142.9271 LP  0  0  0  0  0  0  0  0  0  0  0  0  # atno 17320 bound_to 7965
  144.7337  140.4747  143.6919 LP  0  0  0  0  0  0  0  0  0  0  0  0  # atno 17321 bound_to 7965
  140.1626  143.4262  152.2056 LP  0  0  0  0  0  0  0  0  0  0  0  0  # atno 17342 bound_to 10162
  139.5514  144.7340  151.4423 LP  0  0  0  0  0  0  0  0  0  0  0  0  # atno 17343 bound_to 10162
  157.7049  131.0760  150.6700 LP  0  0  0  0  0  0  0  0  0  0  0  0  # atno 17370 bound_to 10713
  156.6760  130.4553  149.5642 LP  0  0  0  0  0  0  0  0  0  0  0  0  # atno 17371 bound_to 10713
  140.4481  134.6954  157.5026 LP  0  0  0  0  0  0  0  0  0  0  0  0  # atno 17394 bound_to 11000
  140.0184  134.6584  155.9275 LP  0  0  0  0  0  0  0  0  0  0  0  0  # atno 17395 bound_to 11000

$$$$
