AV-unprocessed.smi:1697|AV-procd|sdf|6805|dock5
  -GOLD-   22720 7573D 1   1.00000     0.00000
 Structure written by MMmdl.
 54 56  0  0  0  0  0  0  0  0  2 V2000
  148.2228  138.0446  154.5230 C   0  0  0  0  0  0  0  0  0  0  0  0
  148.9613  139.3892  154.5710 C   0  0  0  0  0  0  0  0  0  0  0  0
  149.3283  139.7464  155.8977 O   0  0  0  0  0  0  0  0  0  0  0  0
  150.4870  140.5668  156.0101 C   0  0  2  0  0  0  0  0  0  0  0  0
  151.7326  139.6859  155.8305 C   0  0  0  0  0  0  0  0  0  0  0  0
  151.8986  138.6888  156.9906 C   0  0  0  0  0  0  0  0  0  0  0  0
  151.9312  139.3871  158.3015 N   0  3  2  0  0  0  0  0  0  0  0  0
  152.2349  138.4621  159.4233 C   0  0  0  0  0  0  0  0  0  0  0  0
  153.7512  138.3031  159.6750 C   0  0  2  0  0  0  0  0  0  0  0  0
  153.9381  137.7715  160.9725 O   0  0  0  0  0  0  0  0  0  0  0  0
  154.5366  139.6278  159.5509 C   0  0  0  0  0  0  0  0  0  0  0  0
  154.0630  140.6731  160.4440 N   0  0  0  0  0  0  0  0  0  0  0  0
  154.2335  140.7398  161.7787 C   0  0  0  0  0  0  0  0  0  0  0  0
  153.7039  141.7834  162.4096 N   0  0  0  0  0  0  0  0  0  0  0  0
  153.1289  142.4807  161.3614 C   0  0  0  0  0  0  0  0  0  0  0  0
  152.3974  143.6882  161.3557 C   0  0  0  0  0  0  0  0  0  0  0  0
  151.8904  144.2229  160.1502 C   0  0  0  0  0  0  0  0  0  0  0  0
  151.1025  145.5203  160.1920 C   0  0  0  0  0  0  0  0  0  0  0  0
  152.1199  143.5507  158.9228 C   0  0  0  0  0  0  0  0  0  0  0  0
  151.5886  144.1083  157.6141 C   0  0  0  0  0  0  0  0  0  0  0  0
  152.8495  142.3436  158.9104 C   0  0  0  0  0  0  0  0  0  0  0  0
  153.3420  141.8173  160.1177 C   0  0  0  0  0  0  0  0  0  0  0  0
  150.7001  140.1925  158.5180 C   0  0  0  0  0  0  0  0  0  0  0  0
  150.5107  141.2291  157.3971 C   0  0  0  0  0  0  0  0  0  0  0  0
  148.0121  137.7574  153.4927 H   0  0  0  0  0  0  0  0  0  0  0  0
  147.2707  138.0871  155.0517 H   0  0  0  0  0  0  0  0  0  0  0  0
  148.8224  137.2528  154.9726 H   0  0  0  0  0  0  0  0  0  0  0  0
  149.8777  139.3103  153.9858 H   0  0  0  0  0  0  0  0  0  0  0  0
  148.3686  140.1804  154.1096 H   0  0  0  0  0  0  0  0  0  0  0  0
  150.4971  141.3419  155.2417 H   0  0  0  0  0  0  0  0  0  0  0  0
  151.6777  139.1507  154.8818 H   0  0  0  0  0  0  0  0  0  0  0  0
  152.6182  140.3204  155.7729 H   0  0  0  0  0  0  0  0  0  0  0  0
  151.0853  137.9612  156.9851 H   0  0  0  0  0  0  0  0  0  0  0  0
  152.8238  138.1295  156.8464 H   0  0  0  0  0  0  0  0  0  0  0  0
  151.7317  138.8153  160.3246 H   0  0  0  0  0  0  0  0  0  0  0  0
  151.8125  137.4804  159.2041 H   0  0  0  0  0  0  0  0  0  0  0  0
  154.1830  137.5984  158.9656 H   0  0  0  0  0  0  0  0  0  0  0  0
  154.1374  136.8505  160.8955 H   0  0  0  0  0  0  0  0  0  0  0  0
  155.5963  139.4594  159.7481 H   0  0  0  0  0  0  0  0  0  0  0  0
  154.4745  139.9990  158.5273 H   0  0  0  0  0  0  0  0  0  0  0  0
  154.7702  139.9737  162.3193 H   0  0  0  0  0  0  0  0  0  0  0  0
  152.2260  144.2018  162.2906 H   0  0  0  0  0  0  0  0  0  0  0  0
  151.6226  146.2998  159.6349 H   0  0  0  0  0  0  0  0  0  0  0  0
  150.9686  145.8722  161.2152 H   0  0  0  0  0  0  0  0  0  0  0  0
  150.1131  145.3825  159.7551 H   0  0  0  0  0  0  0  0  0  0  0  0
  151.9244  143.5149  156.7634 H   0  0  0  0  0  0  0  0  0  0  0  0
  151.9344  145.1310  157.4635 H   0  0  0  0  0  0  0  0  0  0  0  0
  150.4985  144.1078  157.6153 H   0  0  0  0  0  0  0  0  0  0  0  0
  153.0293  141.8224  157.9820 H   0  0  0  0  0  0  0  0  0  0  0  0
  149.8346  139.5300  158.5672 H   0  0  0  0  0  0  0  0  0  0  0  0
  150.7472  140.7144  159.4728 H   0  0  0  0  0  0  0  0  0  0  0  0
  151.3249  141.9538  157.4369 H   0  0  0  0  0  0  0  0  0  0  0  0
  149.5921  141.7924  157.5625 H   0  0  0  0  0  0  0  0  0  0  0  0
  152.7064  140.0336  158.2557 H   0  0  0  0  0  0  0  0  0  0  0  0
  1  2  1  0  0  0  0
  1 25  1  0  0  0  0
  1 26  1  0  0  0  0
  1 27  1  0  0  0  0
  2  3  1  0  0  0  0
  2 28  1  0  0  0  0
  2 29  1  0  0  0  0
  3  4  1  0  0  0  0
  4 24  1  0  0  0  0
  4  5  1  0  0  0  0
  4 30  1  0  0  0  0
  5  6  1  0  0  0  0
  5 31  1  0  0  0  0
  5 32  1  0  0  0  0
  6  7  1  0  0  0  0
  6 33  1  0  0  0  0
  6 34  1  0  0  0  0
  7  8  1  0  0  0  0
  7 23  1  0  0  0  0
  7 54  1  0  0  0  0
  8  9  1  0  0  0  0
  8 35  1  0  0  0  0
  8 36  1  0  0  0  0
  9 10  1  0  0  0  0
  9 11  1  0  0  0  0
  9 37  1  0  0  0  0
 10 38  1  0  0  0  0
 11 12  1  0  0  0  0
 11 39  1  0  0  0  0
 11 40  1  0  0  0  0
 12 22  1  0  0  0  0
 12 13  1  0  0  0  0
 13 14  2  0  0  0  0
 13 41  1  0  0  0  0
 14 15  1  0  0  0  0
 15 22  2  0  0  0  0
 15 16  1  0  0  0  0
 16 17  2  0  0  0  0
 16 42  1  0  0  0  0
 17 18  1  0  0  0  0
 17 19  1  0  0  0  0
 18 43  1  0  0  0  0
 18 44  1  0  0  0  0
 18 45  1  0  0  0  0
 19 20  1  0  0  0  0
 19 21  2  0  0  0  0
 20 46  1  0  0  0  0
 20 47  1  0  0  0  0
 20 48  1  0  0  0  0
 21 22  1  0  0  0  0
 21 49  1  0  0  0  0
 23 24  1  0  0  0  0
 23 50  1  0  0  0  0
 23 51  1  0  0  0  0
 24 52  1  0  0  0  0
 24 53  1  0  0  0  0
M  CHG  1   7   1
M  END
> <s_m_source_file>
AV-unprocessed.smi

> <i_m_source_file_index>
1697

> <i_lp_mmshare_version>
43012

> <i_f3d_flags>
0

> <s_epik_input>
W0NIM11bQ0gyXU9bQ0hdMVtDSDJdW0NIMl1OKFtDSDJdW0NIMl0xKVtDSDJdW0NASF0oW09IXSlbQ0gyXW4oW2NIXW4yKWMoYzIzKVtjSF1jKFtDSDNdKWMoW2NIXTMpW0NIM10=

> <s_epik_cmdline>
J2VwaWtfcHl0aG9uJywgJy1waCcsICc3LjAnLCAnLXRuJywgJzgnLCAnLW1hJywgJzIwMCcsICctbWV0YWxfYmluZGluZycsICctaW1hZScsICc8aW5maWxlLm1hZT4nLCAnLW9tYWUnLCAnPG91dGZpbGUubWFlPic=

> <r_epik_Ionization_Penalty>
0.112476

> <r_epik_Ionization_Penalty_Charging>
0.0244612

> <r_epik_Ionization_Penalty_Neutral>
0.0880147

> <r_epik_State_Penalty>
0.0961447

> <r_epik_Charging_Adjusted_Penalty>
0.120606

> <i_epik_Tot_Q>
1

> <i_epik_Tot_abs_Q>
1

> <r_epik_Metal_State_Penalty>
0.0206204

> <b_epik_Metal_Only>
0

> <s_lp_Force_Field>
OPLS_2005

> <r_lp_Energy>
22.8908

> <b_lp_Chiralities_Consistent>
1

> <s_lp_Variant>
AV-unprocessed.smi:1697-3

> <Gold.Version>
5.8.1

> <Gold.Id.Protein>
6NUR|6NUR_protein|mol2

> <Gold.PLP.Fitness>
51.5032

> <Gold.PLP.PLP>
-53.4279

> <Gold.PLP.part.hbond>
0.0000

> <Gold.PLP.part.metal>
0.0000

> <Gold.PLP.part.buried>
-3.9347

> <Gold.PLP.part.nonpolar>
-49.2514

> <Gold.PLP.part.repulsive>
0.1642

> <Gold.PLP.ligand.clash>
0.0000

> <Gold.PLP.ligand.torsion>
1.0459

> <Gold.PLP.Chemscore.Hbond>
0.0000

> <Gold.PLP.Chemscore.CHOScore>
0.0000

> <Gold.PLP.Chemscore.Metal>
0.0000

> <Gold.PLP.Chemscore.Internal.Correction>
0.1670

> <Gold.Rescore>
     Score         DG    S(hbond)    S(metal)    S(lipo)     H(rot)  DE(clash)    DE(int)     intcor
     16.33     -17.22       0.00        0.00     150.03       2.27       0.03       0.87       ----

> <Gold.Chemscore.Fitness>
16.3263

> <Gold.Chemscore.DG>
-17.2202

> <Gold.Chemscore.ZeroCoef>
-5.4800

> <Gold.Chemscore.Hbond>
0.0000

> <Gold.Chemscore.Metal>
0.0000

> <Gold.Chemscore.Lipo>
150.0336

> <Gold.Chemscore.Internal_Hbond>
0.0000

> <Gold.Chemscore.DEClash>
0.0256

> <Gold.Chemscore.DEInternal>
0.8683

> <Gold.Chemscore.Rot>
2.2710

> <Gold.Chemscore.Internal.Correction>
   9.000000E+99

> <Gold.Chemscore.Hbond.Weighted>
-0.0000

> <Gold.Chemscore.Metal.Weighted>
-0.0000

> <Gold.Chemscore.Lipo.Weighted>
-17.5539

> <Gold.Chemscore.Internal_Hbond.Weighted>
0.0000

> <Gold.Chemscore.DEClash.Weighted>
0.0256

> <Gold.Chemscore.DEInternal.Weighted>
0.8683

> <Gold.Chemscore.Rot.Weighted>
5.8137

> <Gold.Chemscore.Internal.Correction.Weighted>
   9.000000E+99

> <Gold.Protein.RotatedTorsions>
[ 6907 6896 6895 6894 ] final -101.43 input  -60.11 | X-H torsion
[ 7974 7965 7964 7962 ] final   65.28 input  175.53 | X-H torsion
[ 8008 7997 7996 7995 ] final  -63.40 input   59.86 | X-H torsion
[ 10167 10162 10161 10158 ] final  -68.25 input  -65.29 | X-H torsion
[ 10718 10713 10712 10709 ] final -172.39 input   66.30 | X-H torsion
[ 10763 10752 10751 10750 ] final  -80.45 input  -60.55 | X-H torsion
[ 11005 11000 10999 10996 ] final  -84.45 input  -57.11 | X-H torsion

> <Gold.Protein.ActiveResidues>
 VAL166  LYS551  ARG553  GLY616  TRP617  ASP618  TYR619  PRO620  LYS621  CYS622 
 ASP623  PHE694  ASN695  SER759  ASP760  ASP761  ALA762  ILE779  LEU786  VAL792 
 PHE793  MET794  SER795  GLU796  ALA797  LYS798  CYS799  TRP800  GLU811  SER814 

> <Gold.Protein.RotatedAtoms>
  150.7154  134.0735  159.3872 H   0  0  0  0  0  0  0  0  0  0  0  0  # atno 6907 bound_to 6896
  151.8717  135.0484  160.0489 H   0  0  0  0  0  0  0  0  0  0  0  0  # atno 6908 bound_to 6896
  152.2638  133.5285  159.5434 H   0  0  0  0  0  0  0  0  0  0  0  0  # atno 6909 bound_to 6896
  145.8404  139.3192  143.0935 H   0  0  0  0  0  0  0  0  0  0  0  0  # atno 7974 bound_to 7965
  154.4552  140.0976  156.6736 H   0  0  0  0  0  0  0  0  0  0  0  0  # atno 8008 bound_to 7997
  155.5161  140.3477  155.4379 H   0  0  0  0  0  0  0  0  0  0  0  0  # atno 8009 bound_to 7997
  156.0763  140.1362  156.9756 H   0  0  0  0  0  0  0  0  0  0  0  0  # atno 8010 bound_to 7997
  140.5521  143.2312  151.6891 H   0  0  0  0  0  0  0  0  0  0  0  0  # atno 10167 bound_to 10162
  156.7549  130.9392  151.3116 H   0  0  0  0  0  0  0  0  0  0  0  0  # atno 10718 bound_to 10713
  154.5514  135.5660  153.6925 H   0  0  0  0  0  0  0  0  0  0  0  0  # atno 10763 bound_to 10752
  152.9990  135.6251  154.2369 H   0  0  0  0  0  0  0  0  0  0  0  0  # atno 10764 bound_to 10752
  154.2304  135.2866  155.2872 H   0  0  0  0  0  0  0  0  0  0  0  0  # atno 10765 bound_to 10752
  141.1650  133.7346  156.8869 H   0  0  0  0  0  0  0  0  0  0  0  0  # atno 11005 bound_to 11000
  145.9472  140.8936  143.0277 LP  0  0  0  0  0  0  0  0  0  0  0  0  # atno 17320 bound_to 7965
  144.6734  140.1630  143.7421 LP  0  0  0  0  0  0  0  0  0  0  0  0  # atno 17321 bound_to 7965
  139.5032  144.3801  152.0385 LP  0  0  0  0  0  0  0  0  0  0  0  0  # atno 17342 bound_to 10162
  140.2919  144.3745  150.6086 LP  0  0  0  0  0  0  0  0  0  0  0  0  # atno 17343 bound_to 10162
  157.6760  130.9095  150.0152 LP  0  0  0  0  0  0  0  0  0  0  0  0  # atno 17370 bound_to 10713
  156.1377  130.3642  149.9632 LP  0  0  0  0  0  0  0  0  0  0  0  0  # atno 17371 bound_to 10713
  140.1676  134.9122  157.2793 LP  0  0  0  0  0  0  0  0  0  0  0  0  # atno 17394 bound_to 11000
  140.2539  134.3650  155.7431 LP  0  0  0  0  0  0  0  0  0  0  0  0  # atno 17395 bound_to 11000

$$$$
