AV-unprocessed.smi:1363|AV-procd|sdf|5564|dock10
  -GOLD-   22720 5153D 1   1.00000     0.00000
 Structure written by MMmdl.
 44 45  0  0  0  0  0  0  0  0  1 V2000
  146.2527  138.1404  152.5557 C   0  0  0  0  0  0  0  0  0  0  0  0
  147.1234  139.1204  153.3131 C   0  0  0  0  0  0  0  0  0  0  0  0
  146.6788  140.1995  153.8685 N   0  0  0  0  0  0  0  0  0  0  0  0
  147.5838  141.0336  154.5395 C   0  0  0  0  0  0  0  0  0  0  0  0
  146.9870  142.2861  155.1587 C   0  0  0  0  0  0  0  0  0  0  0  0
  148.9127  140.7301  154.6205 C   0  0  0  0  0  0  0  0  0  0  0  0
  149.9234  141.6232  155.3389 C   0  0  0  0  0  0  0  0  0  0  0  0
  150.9020  140.9036  156.2703 C   0  0  0  0  0  0  0  0  0  0  0  0
  151.8588  140.2816  155.8077 O   0  0  0  0  0  0  0  0  0  0  0  0
  150.6554  141.0047  157.5851 N   0  0  0  0  0  0  0  0  0  0  0  0
  151.4792  140.4228  158.6379 C   0  0  0  0  0  0  0  0  0  0  0  0
  152.7161  141.2956  158.9290 C   0  0  0  0  0  0  0  0  0  0  0  0
  152.4308  142.7388  159.3323 C   0  0  0  0  0  0  0  0  0  0  0  0
  152.4328  143.7834  158.4764 C   0  0  0  0  0  0  0  0  0  0  0  0
  152.1147  145.2145  158.8738 C   0  0  0  0  0  0  0  0  0  0  0  0
  151.4452  145.3056  160.2544 C   0  0  0  0  0  0  0  0  0  0  0  0
  152.1455  144.3912  161.2655 C   0  0  0  0  0  0  0  0  0  0  0  0
  152.1088  142.9213  160.8110 C   0  0  0  0  0  0  0  0  0  0  0  0
  149.4089  139.4947  153.9836 C   0  0  0  0  0  0  0  0  0  0  0  0
  150.5834  139.1292  153.9900 O   0  0  0  0  0  0  0  0  0  0  0  0
  148.4672  138.7528  153.3590 N   0  0  0  0  0  0  0  0  0  0  0  0
  148.7572  137.8986  152.9054 H   0  0  0  0  0  0  0  0  0  0  0  0
  145.7684  138.6403  151.7166 H   0  0  0  0  0  0  0  0  0  0  0  0
  145.4783  137.7422  153.2115 H   0  0  0  0  0  0  0  0  0  0  0  0
  146.8331  137.3035  152.1648 H   0  0  0  0  0  0  0  0  0  0  0  0
  147.0994  142.2684  156.2427 H   0  0  0  0  0  0  0  0  0  0  0  0
  145.9228  142.3695  154.9351 H   0  0  0  0  0  0  0  0  0  0  0  0
  147.4781  143.1792  154.7725 H   0  0  0  0  0  0  0  0  0  0  0  0
  150.4930  142.1705  154.5870 H   0  0  0  0  0  0  0  0  0  0  0  0
  149.4124  142.3952  155.9150 H   0  0  0  0  0  0  0  0  0  0  0  0
  149.8460  141.5330  157.8777 H   0  0  0  0  0  0  0  0  0  0  0  0
  150.8608  140.3374  159.5318 H   0  0  0  0  0  0  0  0  0  0  0  0
  151.7747  139.4101  158.3578 H   0  0  0  0  0  0  0  0  0  0  0  0
  153.3020  140.8401  159.7283 H   0  0  0  0  0  0  0  0  0  0  0  0
  153.3582  141.3125  158.0476 H   0  0  0  0  0  0  0  0  0  0  0  0
  152.6747  143.6449  157.4338 H   0  0  0  0  0  0  0  0  0  0  0  0
  153.0463  145.7812  158.8676 H   0  0  0  0  0  0  0  0  0  0  0  0
  151.4666  145.6611  158.1191 H   0  0  0  0  0  0  0  0  0  0  0  0
  151.4518  146.3377  160.6055 H   0  0  0  0  0  0  0  0  0  0  0  0
  150.3975  145.0129  160.1725 H   0  0  0  0  0  0  0  0  0  0  0  0
  153.1821  144.7113  161.3787 H   0  0  0  0  0  0  0  0  0  0  0  0
  151.6840  144.4883  162.2485 H   0  0  0  0  0  0  0  0  0  0  0  0
  151.1186  142.5016  160.9921 H   0  0  0  0  0  0  0  0  0  0  0  0
  152.8101  142.3414  161.4122 H   0  0  0  0  0  0  0  0  0  0  0  0
  1  2  1  0  0  0  0
  1 23  1  0  0  0  0
  1 24  1  0  0  0  0
  1 25  1  0  0  0  0
  2 21  1  0  0  0  0
  2  3  2  0  0  0  0
  3  4  1  0  0  0  0
  4  5  1  0  0  0  0
  4  6  2  0  0  0  0
  5 26  1  0  0  0  0
  5 27  1  0  0  0  0
  5 28  1  0  0  0  0
  6  7  1  0  0  0  0
  6 19  1  0  0  0  0
  7  8  1  0  0  0  0
  7 29  1  0  0  0  0
  7 30  1  0  0  0  0
  8  9  2  0  0  0  0
  8 10  1  0  0  0  0
 10 11  1  0  0  0  0
 10 31  1  0  0  0  0
 11 12  1  0  0  0  0
 11 32  1  0  0  0  0
 11 33  1  0  0  0  0
 12 13  1  0  0  0  0
 12 34  1  0  0  0  0
 12 35  1  0  0  0  0
 13 18  1  0  0  0  0
 13 14  2  0  0  0  0
 14 15  1  0  0  0  0
 14 36  1  0  0  0  0
 15 16  1  0  0  0  0
 15 37  1  0  0  0  0
 15 38  1  0  0  0  0
 16 17  1  0  0  0  0
 16 39  1  0  0  0  0
 16 40  1  0  0  0  0
 17 18  1  0  0  0  0
 17 41  1  0  0  0  0
 17 42  1  0  0  0  0
 18 43  1  0  0  0  0
 18 44  1  0  0  0  0
 19 20  2  0  0  0  0
 19 21  1  0  0  0  0
 21 22  1  0  0  0  0
M  END
> <s_m_source_file>
AV-unprocessed.smi

> <i_m_source_file_index>
1363

> <i_lp_mmshare_version>
43012

> <i_f3d_flags>
0

> <s_epik_input>
W0NIM11jMW5jKFtDSDNdKWMoYyg9TylbbkhdMSlbQ0gyXUMoPU8pW05IXVtDSDJdW0NIMl1DMj1bQ0hdW0NIMl1bQ0gyXVtDSDJdW0NIMl0y

> <s_epik_cmdline>
J2VwaWtfcHl0aG9uJywgJy1waCcsICc3LjAnLCAnLXRuJywgJzgnLCAnLW1hJywgJzIwMCcsICctbWV0YWxfYmluZGluZycsICctaW1hZScsICc8aW5maWxlLm1hZT4nLCAnLW9tYWUnLCAnPG91dGZpbGUubWFlPic=

> <r_lp_tautomer_probability>
0.839158

> <r_epik_Ionization_Penalty>
0.000390001

> <r_epik_Ionization_Penalty_Charging>
0.000357609

> <r_epik_Ionization_Penalty_Neutral>
3.23917e-05

> <r_epik_State_Penalty>
0.0470088

> <r_epik_Charging_Adjusted_Penalty>
0.0473664

> <i_epik_Tot_Q>
0

> <i_epik_Tot_abs_Q>
0

> <r_epik_Metal_State_Penalty>
0.223611

> <b_epik_Metal_Only>
0

> <s_lp_Force_Field>
OPLS_2005

> <r_lp_Energy>
9.33337

> <b_lp_Chiralities_Consistent>
1

> <s_lp_Variant>
AV-unprocessed.smi:1363-1

> <Gold.Version>
5.8.1

> <Gold.Id.Protein>
6NUR|6NUR_protein|mol2

> <Gold.PLP.Fitness>
51.6937

> <Gold.PLP.PLP>
-47.4217

> <Gold.PLP.part.hbond>
-3.5262

> <Gold.PLP.part.metal>
0.0000

> <Gold.PLP.part.buried>
-0.0522

> <Gold.PLP.part.nonpolar>
-43.5474

> <Gold.PLP.part.repulsive>
0.5536

> <Gold.PLP.ligand.clash>
0.0000

> <Gold.PLP.ligand.torsion>
0.8682

> <Gold.PLP.Chemscore.Hbond>
2.0000

> <Gold.PLP.Chemscore.CHOScore>
0.0000

> <Gold.PLP.Chemscore.Metal>
0.0000

> <Gold.Chemscore.Hbonds>
donor molecule, donor type, donor heavy atom, donor atom, acceptor molecule, acceptor atom, score
      L1  H    21    22       P1  7948  1.00
      P1  H  7989  7998       L1    20  0.88

> <Gold.PLP.Chemscore.Internal.Correction>
0.0085

> <Gold.Rescore>
     Score         DG    S(hbond)    S(metal)    S(lipo)     H(rot)  DE(clash)    DE(int)     intcor
     15.91     -19.74       1.53        0.00     118.87       1.86       0.18       3.66       ----

> <Gold.Chemscore.Fitness>
15.9115

> <Gold.Chemscore.DG>
-19.7442

> <Gold.Chemscore.ZeroCoef>
-5.4800

> <Gold.Chemscore.Hbond>
1.5347

> <Gold.Chemscore.Metal>
0.0000

> <Gold.Chemscore.Lipo>
118.8697

> <Gold.Chemscore.Internal_Hbond>
0.0000

> <Gold.Chemscore.DEClash>
0.1770

> <Gold.Chemscore.DEInternal>
3.6556

> <Gold.Chemscore.Rot>
1.8631

> <Gold.Chemscore.Internal.Correction>
   9.000000E+99

> <Gold.Chemscore.Hbonds>
donor molecule, donor type, donor heavy atom, donor atom, acceptor molecule, acceptor atom, score
      L1  H    21    22       P1  7948  0.99
      P1  H  7989  7998       L1    20  0.38

> <Gold.Chemscore.Hbond.Weighted>
-5.1261

> <Gold.Chemscore.Metal.Weighted>
-0.0000

> <Gold.Chemscore.Lipo.Weighted>
-13.9078

> <Gold.Chemscore.Internal_Hbond.Weighted>
0.0000

> <Gold.Chemscore.DEClash.Weighted>
0.1770

> <Gold.Chemscore.DEInternal.Weighted>
3.6556

> <Gold.Chemscore.Rot.Weighted>
4.7697

> <Gold.Chemscore.Internal.Correction.Weighted>
   9.000000E+99

> <Gold.Protein.RotatedTorsions>
[ 6907 6896 6895 6894 ] final  -92.64 input  -60.11 | X-H torsion
[ 7974 7965 7964 7962 ] final   18.18 input  175.53 | X-H torsion
[ 8008 7997 7996 7995 ] final   69.27 input   59.86 | X-H torsion
[ 10167 10162 10161 10158 ] final -170.78 input  -65.29 | X-H torsion
[ 10718 10713 10712 10709 ] final   63.93 input   66.30 | X-H torsion
[ 10763 10752 10751 10750 ] final -161.27 input  -60.55 | X-H torsion
[ 11005 11000 10999 10996 ] final  -42.49 input  -57.11 | X-H torsion

> <Gold.Protein.ActiveResidues>
 VAL166  LYS551  ARG553  GLY616  TRP617  ASP618  TYR619  PRO620  LYS621  CYS622 
 ASP623  PHE694  ASN695  SER759  ASP760  ASP761  ALA762  ILE779  LEU786  VAL792 
 PHE793  MET794  SER795  GLU796  ALA797  LYS798  CYS799  TRP800  GLU811  SER814 

> <Gold.Protein.RotatedAtoms>
  150.6909  134.2091  159.4351 H   0  0  0  0  0  0  0  0  0  0  0  0  # atno 6907 bound_to 6896
  152.0053  134.9903  160.0575 H   0  0  0  0  0  0  0  0  0  0  0  0  # atno 6908 bound_to 6896
  152.1539  133.4504  159.4864 H   0  0  0  0  0  0  0  0  0  0  0  0  # atno 6909 bound_to 6896
  146.2194  139.8495  142.8625 H   0  0  0  0  0  0  0  0  0  0  0  0  # atno 7974 bound_to 7965
  155.7211  140.3493  155.5016 H   0  0  0  0  0  0  0  0  0  0  0  0  # atno 8008 bound_to 7997
  155.9269  140.1077  157.1185 H   0  0  0  0  0  0  0  0  0  0  0  0  # atno 8009 bound_to 7997
  154.4079  140.1238  156.4739 H   0  0  0  0  0  0  0  0  0  0  0  0  # atno 8010 bound_to 7997
  139.5841  144.1358  152.1553 H   0  0  0  0  0  0  0  0  0  0  0  0  # atno 10167 bound_to 10162
  157.6005  130.9132  149.9780 H   0  0  0  0  0  0  0  0  0  0  0  0  # atno 10718 bound_to 10713
  154.7318  135.3048  154.8878 H   0  0  0  0  0  0  0  0  0  0  0  0  # atno 10763 bound_to 10752
  153.9719  135.6741  153.4751 H   0  0  0  0  0  0  0  0  0  0  0  0  # atno 10764 bound_to 10752
  153.0925  135.4952  154.8639 H   0  0  0  0  0  0  0  0  0  0  0  0  # atno 10765 bound_to 10752
  141.0319  133.6816  156.2601 H   0  0  0  0  0  0  0  0  0  0  0  0  # atno 11005 bound_to 11000
  145.2816  141.0140  143.3714 LP  0  0  0  0  0  0  0  0  0  0  0  0  # atno 17320 bound_to 7965
  144.9146  139.4487  143.6571 LP  0  0  0  0  0  0  0  0  0  0  0  0  # atno 17321 bound_to 7965
  140.0917  144.5615  150.7050 LP  0  0  0  0  0  0  0  0  0  0  0  0  # atno 17342 bound_to 10162
  140.7115  143.2509  151.4566 LP  0  0  0  0  0  0  0  0  0  0  0  0  # atno 17343 bound_to 10162
  156.1077  130.3651  150.0104 LP  0  0  0  0  0  0  0  0  0  0  0  0  # atno 17370 bound_to 10713
  156.8208  130.9358  151.3641 LP  0  0  0  0  0  0  0  0  0  0  0  0  # atno 17371 bound_to 10713
  140.6392  134.5184  157.5568 LP  0  0  0  0  0  0  0  0  0  0  0  0  # atno 17394 bound_to 11000
  139.9213  134.8142  156.1201 LP  0  0  0  0  0  0  0  0  0  0  0  0  # atno 17395 bound_to 11000

$$$$
