AV-unprocessed.smi:2727|AV-procd|sdf|10523|dock6
  -GOLD-   2272014563D 1   1.00000     0.00000
 Structure written by MMmdl.
 40 41  0  0  0  0  0  0  0  0  1 V2000
  151.7859  139.8519  155.1813 O   0  0  0  0  0  0  0  0  0  0  0  0
  150.6360  139.4428  155.3738 C   0  0  0  0  0  0  0  0  0  0  0  0
  150.2299  139.0425  156.5883 N   0  0  0  0  0  0  0  0  0  0  0  0
  151.0502  139.0439  157.7952 C   0  0  0  0  0  0  0  0  0  0  0  0
  151.4528  140.4753  158.2053 C   0  0  0  0  0  0  0  0  0  0  0  0
  152.6607  140.5286  159.1579 C   0  0  0  0  0  0  0  0  0  0  0  0
  153.1021  139.4766  159.6242 O   0  0  0  0  0  0  0  0  0  0  0  0
  153.2020  141.7325  159.4679 N   0  0  0  0  0  0  0  0  0  0  0  0
  154.3036  141.8512  160.4311 C   0  0  0  0  0  0  0  0  0  0  0  0
  153.7998  141.8547  161.8889 C   0  0  0  0  0  0  0  0  0  0  0  0
  152.4458  142.5572  162.1321 C   0  0  0  0  0  0  0  0  0  0  0  0
  152.2398  143.8758  161.3607 C   0  0  0  0  0  0  0  0  0  0  0  0
  151.7172  143.6777  159.9218 C   0  0  0  0  0  0  0  0  0  0  0  0
  152.7272  143.0268  158.9577 C   0  0  0  0  0  0  0  0  0  0  0  0
  149.5979  139.3228  154.4601 N   0  0  0  0  0  0  0  0  0  0  0  0
  148.7064  140.2613  154.3608 C   0  0  0  0  0  0  0  0  0  0  0  0
  148.5282  141.4757  155.0189 N   0  0  0  0  0  0  0  0  0  0  0  0
  147.4065  142.0731  154.5159 C   0  0  0  0  0  0  0  0  0  0  0  0
  146.8984  141.2743  153.5825 C   0  0  0  0  0  0  0  0  0  0  0  0
  147.6723  140.1588  153.4648 O   0  0  0  0  0  0  0  0  0  0  0  0
  149.2778  138.7200  156.6845 H   0  0  0  0  0  0  0  0  0  0  0  0
  150.5147  138.5415  158.6032 H   0  0  0  0  0  0  0  0  0  0  0  0
  151.9414  138.4479  157.5955 H   0  0  0  0  0  0  0  0  0  0  0  0
  151.6802  141.0588  157.3126 H   0  0  0  0  0  0  0  0  0  0  0  0
  150.6039  140.9541  158.6930 H   0  0  0  0  0  0  0  0  0  0  0  0
  155.0351  141.0539  160.2890 H   0  0  0  0  0  0  0  0  0  0  0  0
  154.8631  142.7702  160.2541 H   0  0  0  0  0  0  0  0  0  0  0  0
  153.7167  140.8262  162.2421 H   0  0  0  0  0  0  0  0  0  0  0  0
  154.5640  142.3178  162.5141 H   0  0  0  0  0  0  0  0  0  0  0  0
  151.6294  141.8728  161.8973 H   0  0  0  0  0  0  0  0  0  0  0  0
  152.3571  142.7534  163.2011 H   0  0  0  0  0  0  0  0  0  0  0  0
  151.5012  144.4699  161.8998 H   0  0  0  0  0  0  0  0  0  0  0  0
  153.1556  144.4680  161.3621 H   0  0  0  0  0  0  0  0  0  0  0  0
  150.7982  143.0918  159.9494 H   0  0  0  0  0  0  0  0  0  0  0  0
  151.4335  144.6493  159.5161 H   0  0  0  0  0  0  0  0  0  0  0  0
  153.5683  143.7041  158.8053 H   0  0  0  0  0  0  0  0  0  0  0  0
  152.2826  142.9303  157.9674 H   0  0  0  0  0  0  0  0  0  0  0  0
  149.0995  141.8824  155.7456 H   0  0  0  0  0  0  0  0  0  0  0  0
  147.0829  143.0328  154.8911 H   0  0  0  0  0  0  0  0  0  0  0  0
  146.0321  141.3528  152.9423 H   0  0  0  0  0  0  0  0  0  0  0  0
  1  2  2  0  0  0  0
  2 15  1  0  0  0  0
  2  3  1  0  0  0  0
  3  4  1  0  0  0  0
  3 21  1  0  0  0  0
  4  5  1  0  0  0  0
  4 22  1  0  0  0  0
  4 23  1  0  0  0  0
  5  6  1  0  0  0  0
  5 24  1  0  0  0  0
  5 25  1  0  0  0  0
  6  7  2  0  0  0  0
  6  8  1  0  0  0  0
  8 14  1  0  0  0  0
  8  9  1  0  0  0  0
  9 10  1  0  0  0  0
  9 26  1  0  0  0  0
  9 27  1  0  0  0  0
 10 11  1  0  0  0  0
 10 28  1  0  0  0  0
 10 29  1  0  0  0  0
 11 12  1  0  0  0  0
 11 30  1  0  0  0  0
 11 31  1  0  0  0  0
 12 13  1  0  0  0  0
 12 32  1  0  0  0  0
 12 33  1  0  0  0  0
 13 14  1  0  0  0  0
 13 34  1  0  0  0  0
 13 35  1  0  0  0  0
 14 36  1  0  0  0  0
 14 37  1  0  0  0  0
 15 16  2  0  0  0  0
 16 20  1  0  0  0  0
 16 17  1  0  0  0  0
 17 38  1  0  0  0  0
 17 18  1  0  0  0  0
 18 39  1  0  0  0  0
 18 19  2  0  0  0  0
 19 40  1  0  0  0  0
 19 20  1  0  0  0  0
M  END
> <s_m_source_file>
AV-unprocessed.smi

> <i_m_source_file_index>
2727

> <i_lp_mmshare_version>
43012

> <i_f3d_flags>
0

> <s_epik_input>
bzFbY0hdW2NIXW5jMVtOSF1DKD1PKVtOSF1bQ0gyXVtDSDJdQyg9TylOMltDSDJdW0NIMl1bQ0gyXVtDSDJdW0NIMl1bQ0gyXTI=

> <s_epik_cmdline>
J2VwaWtfcHl0aG9uJywgJy1waCcsICc3LjAnLCAnLXRuJywgJzgnLCAnLW1hJywgJzIwMCcsICctbWV0YWxfYmluZGluZycsICctaW1hZScsICc8aW5maWxlLm1hZT4nLCAnLW9tYWUnLCAnPG91dGZpbGUubWFlPic=

> <r_lp_tautomer_probability>
0.107061

> <r_epik_Ionization_Penalty>
0.376272

> <r_epik_Ionization_Penalty_Charging>
0.375918

> <r_epik_Ionization_Penalty_Neutral>
0.000353756

> <r_epik_State_Penalty>
2.48665

> <r_epik_Charging_Adjusted_Penalty>
2.86256

> <i_epik_Tot_Q>
0

> <i_epik_Tot_abs_Q>
0

> <r_epik_Metal_State_Penalty>
4.1171

> <b_epik_Metal_Only>
0

> <s_lp_Force_Field>
OPLS_2005

> <r_lp_Energy>
47.9019

> <b_lp_Chiralities_Consistent>
1

> <s_lp_Variant>
AV-unprocessed.smi:2727-3

> <Gold.Version>
5.8.1

> <Gold.Id.Protein>
6NUR|6NUR_protein|mol2

> <Gold.PLP.Fitness>
46.3797

> <Gold.PLP.PLP>
-40.8785

> <Gold.PLP.part.hbond>
-1.0119

> <Gold.PLP.part.metal>
0.0000

> <Gold.PLP.part.buried>
-5.9995

> <Gold.PLP.part.nonpolar>
-35.1018

> <Gold.PLP.part.repulsive>
1.2534

> <Gold.PLP.ligand.clash>
0.0000

> <Gold.PLP.ligand.torsion>
0.8964

> <Gold.PLP.Chemscore.Hbond>
0.9920

> <Gold.PLP.Chemscore.CHOScore>
1.4350

> <Gold.PLP.Chemscore.Metal>
0.0000

> <Gold.Chemscore.Hbonds>
donor molecule, donor type, donor heavy atom, donor atom, acceptor molecule, acceptor atom, score
      P1  H  7989  7998       L1     1  0.98
      L1  C    18    39       P1  8028  0.66
      L1  C    19    40       P1 10175  0.72

> <Gold.PLP.Chemscore.Internal.Correction>
0.0131

> <Gold.Rescore>
     Score         DG    S(hbond)    S(metal)    S(lipo)     H(rot)  DE(clash)    DE(int)     intcor
     14.08     -15.04       0.99        0.00      90.62       1.70       0.12       0.84       ----

> <Gold.Chemscore.Fitness>
14.0809

> <Gold.Chemscore.DG>
-15.0366

> <Gold.Chemscore.ZeroCoef>
-5.4800

> <Gold.Chemscore.Hbond>
0.9917

> <Gold.Chemscore.Metal>
0.0000

> <Gold.Chemscore.Lipo>
90.6204

> <Gold.Chemscore.Internal_Hbond>
0.0000

> <Gold.Chemscore.DEClash>
0.1183

> <Gold.Chemscore.DEInternal>
0.8374

> <Gold.Chemscore.Rot>
1.7025

> <Gold.Chemscore.Internal.Correction>
   9.000000E+99

> <Gold.Chemscore.Hbonds>
donor molecule, donor type, donor heavy atom, donor atom, acceptor molecule, acceptor atom, score
      P1  H  7989  7998       L1     1  0.41

> <Gold.Chemscore.Hbond.Weighted>
-3.3124

> <Gold.Chemscore.Metal.Weighted>
-0.0000

> <Gold.Chemscore.Lipo.Weighted>
-10.6026

> <Gold.Chemscore.Internal_Hbond.Weighted>
0.0000

> <Gold.Chemscore.DEClash.Weighted>
0.1183

> <Gold.Chemscore.DEInternal.Weighted>
0.8374

> <Gold.Chemscore.Rot.Weighted>
4.3584

> <Gold.Chemscore.Internal.Correction.Weighted>
   9.000000E+99

> <Gold.Protein.RotatedTorsions>
[ 6907 6896 6895 6894 ] final -165.49 input  -60.11 | X-H torsion
[ 7974 7965 7964 7962 ] final   44.53 input  175.53 | X-H torsion
[ 8008 7997 7996 7995 ] final  158.83 input   59.86 | X-H torsion
[ 10167 10162 10161 10158 ] final -142.93 input  -65.29 | X-H torsion
[ 10718 10713 10712 10709 ] final  -67.54 input   66.30 | X-H torsion
[ 10763 10752 10751 10750 ] final -140.21 input  -60.55 | X-H torsion
[ 11005 11000 10999 10996 ] final -169.37 input  -57.11 | X-H torsion

> <Gold.Protein.ActiveResidues>
 VAL166  LYS551  ARG553  GLY616  TRP617  ASP618  TYR619  PRO620  LYS621  CYS622 
 ASP623  PHE694  ASN695  SER759  ASP760  ASP761  ALA762  ILE779  LEU786  VAL792 
 PHE793  MET794  SER795  GLU796  ALA797  LYS798  CYS799  TRP800  GLU811  SER814 

> <Gold.Protein.RotatedAtoms>
  151.4285  133.3677  159.2765 H   0  0  0  0  0  0  0  0  0  0  0  0  # atno 6907 bound_to 6896
  150.9242  134.8660  159.7519 H   0  0  0  0  0  0  0  0  0  0  0  0  # atno 6908 bound_to 6896
  152.4996  134.4225  159.9537 H   0  0  0  0  0  0  0  0  0  0  0  0  # atno 6909 bound_to 6896
  146.0561  139.5065  142.9688 H   0  0  0  0  0  0  0  0  0  0  0  0  # atno 7974 bound_to 7965
  156.2278  140.1847  156.7320 H   0  0  0  0  0  0  0  0  0  0  0  0  # atno 8008 bound_to 7997
  154.5970  140.0642  156.9345 H   0  0  0  0  0  0  0  0  0  0  0  0  # atno 8009 bound_to 7997
  155.2238  140.3309  155.4314 H   0  0  0  0  0  0  0  0  0  0  0  0  # atno 8010 bound_to 7997
  139.8041  143.7792  152.2660 H   0  0  0  0  0  0  0  0  0  0  0  0  # atno 10167 bound_to 10162
  156.0552  130.4279  150.1869 H   0  0  0  0  0  0  0  0  0  0  0  0  # atno 10718 bound_to 10713
  154.8585  135.3560  154.5671 H   0  0  0  0  0  0  0  0  0  0  0  0  # atno 10763 bound_to 10752
  153.6285  135.7003  153.5289 H   0  0  0  0  0  0  0  0  0  0  0  0  # atno 10764 bound_to 10752
  153.3069  135.4190  155.1261 H   0  0  0  0  0  0  0  0  0  0  0  0  # atno 10765 bound_to 10752
  140.5315  134.5611  157.5076 H   0  0  0  0  0  0  0  0  0  0  0  0  # atno 11005 bound_to 11000
  145.6642  141.0233  143.1693 LP  0  0  0  0  0  0  0  0  0  0  0  0  # atno 17320 bound_to 7965
  144.7148  139.8235  143.7402 LP  0  0  0  0  0  0  0  0  0  0  0  0  # atno 17321 bound_to 7965
  139.7921  144.7406  150.9940 LP  0  0  0  0  0  0  0  0  0  0  0  0  # atno 17342 bound_to 10162
  140.7819  143.4431  151.0522 LP  0  0  0  0  0  0  0  0  0  0  0  0  # atno 17343 bound_to 10162
  156.9946  130.9904  151.3406 LP  0  0  0  0  0  0  0  0  0  0  0  0  # atno 17370 bound_to 10713
  157.5516  130.8186  149.8152 LP  0  0  0  0  0  0  0  0  0  0  0  0  # atno 17371 bound_to 10713
  139.9551  134.7548  156.0359 LP  0  0  0  0  0  0  0  0  0  0  0  0  # atno 17394 bound_to 11000
  141.1278  133.6594  156.3384 LP  0  0  0  0  0  0  0  0  0  0  0  0  # atno 17395 bound_to 11000

$$$$
