AV-unprocessed.smi:1818|AV-procd|sdf|7381|dock10
  -GOLD-   22720 9 53D 1   1.00000     0.00000
 Structure written by MMmdl.
 37 38  0  0  0  0  0  0  0  0  2 V2000
  150.4112  138.5972  159.1661 N   0  0  0  0  0  0  0  0  0  0  0  0
  150.7379  139.5833  158.6565 C   0  0  0  0  0  0  0  0  0  0  0  0
  151.1551  140.8418  158.0071 C   0  0  0  0  0  0  0  0  0  0  0  0
  150.7897  140.8292  156.5869 N   0  0  0  0  0  0  0  0  0  0  0  0
  149.5508  140.8188  156.0666 C   0  0  0  0  0  0  0  0  0  0  0  0
  148.5236  140.8382  156.7426 O   0  0  0  0  0  0  0  0  0  0  0  0
  149.4557  140.7544  154.5427 C   0  0  0  0  0  0  0  0  0  0  0  0
  148.1096  141.1125  154.0860 N   0  0  0  0  0  0  0  0  0  0  0  0
  147.5103  142.3452  154.1449 C   0  0  0  0  0  0  0  0  0  0  0  0
  146.2633  142.2003  153.5932 C   0  0  0  0  0  0  0  0  0  0  0  0
  146.1544  140.8873  153.2200 N   0  3  0  0  0  0  0  0  0  0  0  0
  147.2777  140.2275  153.5204 C   0  0  0  0  0  0  0  0  0  0  0  0
  150.3595  141.9880  158.6785 C   0  0  0  0  0  0  0  0  0  0  0  0
  150.9465  143.4020  158.5194 C   0  0  0  0  0  0  0  0  0  0  0  0
  151.9380  143.7573  159.6421 C   0  0  0  0  0  0  0  0  0  0  0  0
  153.2918  143.0337  159.5658 C   0  0  0  0  0  0  0  0  0  0  0  0
  153.2054  141.4987  159.4939 C   0  0  0  0  0  0  0  0  0  0  0  0
  152.6934  141.0053  158.1302 C   0  0  0  0  0  0  0  0  0  0  0  0
  151.5617  140.8172  155.9366 H   0  0  0  0  0  0  0  0  0  0  0  0
  150.1720  141.4401  154.0872 H   0  0  0  0  0  0  0  0  0  0  0  0
  149.6886  139.7509  154.1833 H   0  0  0  0  0  0  0  0  0  0  0  0
  148.0025  143.2116  154.5629 H   0  0  0  0  0  0  0  0  0  0  0  0
  145.4668  142.9143  153.4413 H   0  0  0  0  0  0  0  0  0  0  0  0
  147.4762  139.1860  153.3380 H   0  0  0  0  0  0  0  0  0  0  0  0
  149.3407  141.9841  158.2875 H   0  0  0  0  0  0  0  0  0  0  0  0
  150.2397  141.7781  159.7426 H   0  0  0  0  0  0  0  0  0  0  0  0
  151.3957  143.5376  157.5351 H   0  0  0  0  0  0  0  0  0  0  0  0
  150.1233  144.1154  158.5711 H   0  0  0  0  0  0  0  0  0  0  0  0
  152.1249  144.8313  159.6159 H   0  0  0  0  0  0  0  0  0  0  0  0
  151.4769  143.5656  160.6117 H   0  0  0  0  0  0  0  0  0  0  0  0
  153.8568  143.4080  158.7112 H   0  0  0  0  0  0  0  0  0  0  0  0
  153.8751  143.3094  160.4449 H   0  0  0  0  0  0  0  0  0  0  0  0
  154.2122  141.1054  159.6392 H   0  0  0  0  0  0  0  0  0  0  0  0
  152.6075  141.0952  160.3117 H   0  0  0  0  0  0  0  0  0  0  0  0
  153.1576  140.0394  157.9262 H   0  0  0  0  0  0  0  0  0  0  0  0
  153.0708  141.6661  157.3482 H   0  0  0  0  0  0  0  0  0  0  0  0
  145.3424  140.4731  152.7794 H   0  0  0  0  0  0  0  0  0  0  0  0
  1  2  3  0  0  0  0
  2  3  1  0  0  0  0
  3 18  1  0  0  0  0
  3  4  1  0  0  0  0
  3 13  1  0  0  0  0
  4  5  1  0  0  0  0
  4 19  1  0  0  0  0
  5  6  2  0  0  0  0
  5  7  1  0  0  0  0
  7  8  1  0  0  0  0
  7 20  1  0  0  0  0
  7 21  1  0  0  0  0
  8 12  1  0  0  0  0
  8  9  1  0  0  0  0
  9 10  2  0  0  0  0
  9 22  1  0  0  0  0
 10 11  1  0  0  0  0
 10 23  1  0  0  0  0
 11 12  2  0  0  0  0
 11 37  1  0  0  0  0
 12 24  1  0  0  0  0
 13 14  1  0  0  0  0
 13 25  1  0  0  0  0
 13 26  1  0  0  0  0
 14 15  1  0  0  0  0
 14 27  1  0  0  0  0
 14 28  1  0  0  0  0
 15 16  1  0  0  0  0
 15 29  1  0  0  0  0
 15 30  1  0  0  0  0
 16 17  1  0  0  0  0
 16 31  1  0  0  0  0
 16 32  1  0  0  0  0
 17 18  1  0  0  0  0
 17 33  1  0  0  0  0
 17 34  1  0  0  0  0
 18 35  1  0  0  0  0
 18 36  1  0  0  0  0
M  CHG  1  11   1
M  END
> <s_m_source_file>
AV-unprocessed.smi

> <i_m_source_file_index>
1818

> <i_lp_mmshare_version>
43012

> <i_f3d_flags>
0

> <s_epik_input>
W0NIMl0xW0NIMl1bQ0gyXVtDSDJdW0NIMl1bQ0gyXUMxKEMjTilbTkhdQyg9TylbQ0gyXW4yW2NIXVtjSF1uW2NIXTI=

> <s_epik_cmdline>
J2VwaWtfcHl0aG9uJywgJy1waCcsICc3LjAnLCAnLXRuJywgJzgnLCAnLW1hJywgJzIwMCcsICctbWV0YWxfYmluZGluZycsICctaW1hZScsICc8aW5maWxlLm1hZT4nLCAnLW9tYWUnLCAnPG91dGZpbGUubWFlPic=

> <r_lp_tautomer_probability>
1

> <r_epik_Ionization_Penalty>
0.70502

> <r_epik_Ionization_Penalty_Charging>
0

> <r_epik_Ionization_Penalty_Neutral>
0.70502

> <r_epik_State_Penalty>
0.72808

> <r_epik_Charging_Adjusted_Penalty>
0.72808

> <i_epik_Tot_Q>
1

> <i_epik_Tot_abs_Q>
1

> <r_epik_Metal_State_Penalty>
0.891186

> <b_epik_Metal_Only>
0

> <s_lp_Force_Field>
OPLS_2005

> <r_lp_Energy>
19.4839

> <b_lp_Chiralities_Consistent>
1

> <s_lp_Variant>
AV-unprocessed.smi:1818-2

> <Gold.Version>
5.8.1

> <Gold.Id.Protein>
6NUR|6NUR_protein|mol2

> <Gold.PLP.Fitness>
38.4763

> <Gold.PLP.PLP>
-30.2178

> <Gold.PLP.part.hbond>
-2.0000

> <Gold.PLP.part.metal>
0.0000

> <Gold.PLP.part.buried>
-1.0069

> <Gold.PLP.part.nonpolar>
-27.1965

> <Gold.PLP.part.repulsive>
0.1418

> <Gold.PLP.ligand.clash>
0.0000

> <Gold.PLP.ligand.torsion>
0.3450

> <Gold.PLP.Chemscore.Hbond>
1.9840

> <Gold.PLP.Chemscore.CHOScore>
0.9959

> <Gold.PLP.Chemscore.Metal>
0.0000

> <Gold.Chemscore.Hbonds>
donor molecule, donor type, donor heavy atom, donor atom, acceptor molecule, acceptor atom, score
      L1  H    11    37       P1 10175  1.98
      L1  C     9    22       P1  8028  0.98

> <Gold.PLP.Chemscore.Internal.Correction>
0.0087

> <Gold.Rescore>
     Score         DG    S(hbond)    S(metal)    S(lipo)     H(rot)  DE(clash)    DE(int)     intcor
     12.41     -14.11       0.90        0.00      85.19       1.69       0.07       1.64       ----

> <Gold.Chemscore.Fitness>
12.4089

> <Gold.Chemscore.DG>
-14.1149

> <Gold.Chemscore.ZeroCoef>
-5.4800

> <Gold.Chemscore.Hbond>
0.9002

> <Gold.Chemscore.Metal>
0.0000

> <Gold.Chemscore.Lipo>
85.1870

> <Gold.Chemscore.Internal_Hbond>
0.0000

> <Gold.Chemscore.DEClash>
0.0661

> <Gold.Chemscore.DEInternal>
1.6399

> <Gold.Chemscore.Rot>
1.6947

> <Gold.Chemscore.Internal.Correction>
   9.000000E+99

> <Gold.Chemscore.Hbonds>
donor molecule, donor type, donor heavy atom, donor atom, acceptor molecule, acceptor atom, score
      L1  H    11    37       P1 10175  0.74

> <Gold.Chemscore.Hbond.Weighted>
-3.0066

> <Gold.Chemscore.Metal.Weighted>
-0.0000

> <Gold.Chemscore.Lipo.Weighted>
-9.9669

> <Gold.Chemscore.Internal_Hbond.Weighted>
0.0000

> <Gold.Chemscore.DEClash.Weighted>
0.0661

> <Gold.Chemscore.DEInternal.Weighted>
1.6399

> <Gold.Chemscore.Rot.Weighted>
4.3386

> <Gold.Chemscore.Internal.Correction.Weighted>
   9.000000E+99

> <Gold.Protein.RotatedTorsions>
[ 6907 6896 6895 6894 ] final  -33.02 input  -60.11 | X-H torsion
[ 7974 7965 7964 7962 ] final  -62.77 input  175.53 | X-H torsion
[ 8008 7997 7996 7995 ] final  162.01 input   59.86 | X-H torsion
[ 10167 10162 10161 10158 ] final  -89.64 input  -65.29 | X-H torsion
[ 10718 10713 10712 10709 ] final -177.37 input   66.30 | X-H torsion
[ 10763 10752 10751 10750 ] final -131.10 input  -60.55 | X-H torsion
[ 11005 11000 10999 10996 ] final   31.13 input  -57.11 | X-H torsion

> <Gold.Protein.ActiveResidues>
 VAL166  LYS551  ARG553  GLY616  TRP617  ASP618  TYR619  PRO620  LYS621  CYS622 
 ASP623  PHE694  ASN695  SER759  ASP760  ASP761  ALA762  ILE779  LEU786  VAL792 
 PHE793  MET794  SER795  GLU796  ALA797  LYS798  CYS799  TRP800  GLU811  SER814 

> <Gold.Protein.RotatedAtoms>
  151.0711  134.9799  159.8308 H   0  0  0  0  0  0  0  0  0  0  0  0  # atno 6907 bound_to 6896
  152.5408  134.2298  159.8830 H   0  0  0  0  0  0  0  0  0  0  0  0  # atno 6908 bound_to 6896
  151.2323  133.4400  159.2638 H   0  0  0  0  0  0  0  0  0  0  0  0  # atno 6909 bound_to 6896
  145.7873  140.8729  143.0299 H   0  0  0  0  0  0  0  0  0  0  0  0  # atno 7974 bound_to 7965
  156.2062  140.1762  156.7794 H   0  0  0  0  0  0  0  0  0  0  0  0  # atno 8008 bound_to 7997
  154.5658  140.0691  156.8920 H   0  0  0  0  0  0  0  0  0  0  0  0  # atno 8009 bound_to 7997
  155.2763  140.3346  155.4264 H   0  0  0  0  0  0  0  0  0  0  0  0  # atno 8010 bound_to 7997
  140.3628  143.2833  151.9594 H   0  0  0  0  0  0  0  0  0  0  0  0  # atno 10167 bound_to 10162
  156.8285  130.9645  151.3108 H   0  0  0  0  0  0  0  0  0  0  0  0  # atno 10718 bound_to 10713
  154.8752  135.3841  154.4190 H   0  0  0  0  0  0  0  0  0  0  0  0  # atno 10763 bound_to 10752
  153.4896  135.7030  153.5897 H   0  0  0  0  0  0  0  0  0  0  0  0  # atno 10764 bound_to 10752
  153.4276  135.3886  155.2117 H   0  0  0  0  0  0  0  0  0  0  0  0  # atno 10765 bound_to 10752
  140.2871  134.2907  155.7785 H   0  0  0  0  0  0  0  0  0  0  0  0  # atno 11005 bound_to 11000
  144.6787  140.0073  143.7484 LP  0  0  0  0  0  0  0  0  0  0  0  0  # atno 17320 bound_to 7965
  146.0013  139.3093  143.0926 LP  0  0  0  0  0  0  0  0  0  0  0  0  # atno 17321 bound_to 7965
  139.4812  144.5977  151.7661 LP  0  0  0  0  0  0  0  0  0  0  0  0  # atno 17342 bound_to 10162
  140.5110  144.1025  150.5995 LP  0  0  0  0  0  0  0  0  0  0  0  0  # atno 17343 bound_to 10162
  157.6419  130.8812  149.9464 LP  0  0  0  0  0  0  0  0  0  0  0  0  # atno 17370 bound_to 10713
  156.0947  130.3660  150.0328 LP  0  0  0  0  0  0  0  0  0  0  0  0  # atno 17371 bound_to 10713
  141.2153  133.7561  156.9568 LP  0  0  0  0  0  0  0  0  0  0  0  0  # atno 17394 bound_to 11000
  140.1230  134.9405  157.2230 LP  0  0  0  0  0  0  0  0  0  0  0  0  # atno 17395 bound_to 11000

$$$$
