AV-unprocessed.smi:2973|AV-procd|sdf|11345|dock4
  -GOLD-   2272016263D 1   1.00000     0.00000
 Structure written by MMmdl.
 48 50  0  0  0  0  0  0  0  0  2 V2000
  147.5119  134.6733  162.7680 C   0  0  0  0  0  0  0  0  0  0  0  0
  146.4630  135.7351  162.3680 C   0  0  2  0  0  0  0  0  0  0  0  0
  145.0414  135.1416  162.4900 C   0  0  0  0  0  0  0  0  0  0  0  0
  143.9551  136.1795  162.1725 C   0  0  0  0  0  0  0  0  0  0  0  0
  144.1557  136.7850  160.7777 C   0  0  0  0  0  0  0  0  0  0  0  0
  145.5605  137.3967  160.6408 C   0  0  0  0  0  0  0  0  0  0  0  0
  146.7044  136.4002  160.9709 C   0  0  1  0  0  0  0  0  0  0  0  0
  147.9614  137.1284  160.9691 N   0  5  0  0  0  0  0  0  0  0  0  0
  148.7629  136.6285  160.0005 C   0  0  0  0  0  0  0  0  0  0  0  0
  149.9018  137.0028  159.7228 O   0  0  0  0  0  0  0  0  0  0  0  0
  148.1549  135.6254  159.3400 N   0  0  0  0  0  0  0  0  0  0  0  0
  148.7611  134.8492  158.2501 C   0  0  0  0  0  0  0  0  0  0  0  0
  147.9345  134.8738  156.9567 C   0  0  0  0  0  0  0  0  0  0  0  0
  146.7836  135.3127  156.9468 O   0  0  0  0  0  0  0  0  0  0  0  0
  148.5525  134.4117  155.8596 N   0  0  0  0  0  0  0  0  0  0  0  0
  147.9585  134.3378  154.5301 C   0  0  0  0  0  0  0  0  0  0  0  0
  148.1072  132.9353  153.9176 C   0  0  0  0  0  0  0  0  0  0  0  0
  147.3111  132.7836  152.6350 C   0  0  0  0  0  0  0  0  0  0  0  0
  146.6898  131.5575  152.3141 C   0  0  0  0  0  0  0  0  0  0  0  0
  145.9532  131.4717  151.1167 C   0  0  0  0  0  0  0  0  0  0  0  0
  145.8647  132.6093  150.2914 C   0  0  0  0  0  0  0  0  0  0  0  0
  146.5197  133.7875  150.7022 C   0  0  0  0  0  0  0  0  0  0  0  0
  147.2285  133.8803  151.8480 N   0  0  0  0  0  0  0  0  0  0  0  0
  146.9331  135.4032  159.8363 C   0  0  0  0  0  0  0  0  0  0  0  0
  146.1251  134.5495  159.4678 O   0  0  0  0  0  0  0  0  0  0  0  0
  147.4869  133.8071  162.1065 H   0  0  0  0  0  0  0  0  0  0  0  0
  147.3314  134.3129  163.7807 H   0  0  0  0  0  0  0  0  0  0  0  0
  148.5237  135.0783  162.7478 H   0  0  0  0  0  0  0  0  0  0  0  0
  146.5328  136.5288  163.1140 H   0  0  0  0  0  0  0  0  0  0  0  0
  144.9313  134.2826  161.8278 H   0  0  0  0  0  0  0  0  0  0  0  0
  144.8865  134.7630  163.5008 H   0  0  0  0  0  0  0  0  0  0  0  0
  142.9695  135.7183  162.2388 H   0  0  0  0  0  0  0  0  0  0  0  0
  143.9774  136.9722  162.9215 H   0  0  0  0  0  0  0  0  0  0  0  0
  143.9979  136.0214  160.0163 H   0  0  0  0  0  0  0  0  0  0  0  0
  143.4025  137.5524  160.5977 H   0  0  0  0  0  0  0  0  0  0  0  0
  145.6802  137.7950  159.6317 H   0  0  0  0  0  0  0  0  0  0  0  0
  145.6277  138.2580  161.3074 H   0  0  0  0  0  0  0  0  0  0  0  0
  149.7598  135.2266  158.0258 H   0  0  0  0  0  0  0  0  0  0  0  0
  148.9020  133.8161  158.5728 H   0  0  0  0  0  0  0  0  0  0  0  0
  149.4991  134.0741  155.9574 H   0  0  0  0  0  0  0  0  0  0  0  0
  146.9018  134.5912  154.6200 H   0  0  0  0  0  0  0  0  0  0  0  0
  148.4038  135.0918  153.8785 H   0  0  0  0  0  0  0  0  0  0  0  0
  149.1567  132.7234  153.7074 H   0  0  0  0  0  0  0  0  0  0  0  0
  147.7807  132.1793  154.6331 H   0  0  0  0  0  0  0  0  0  0  0  0
  146.7725  130.7030  152.9699 H   0  0  0  0  0  0  0  0  0  0  0  0
  145.4639  130.5502  150.8372 H   0  0  0  0  0  0  0  0  0  0  0  0
  145.3077  132.5805  149.3666 H   0  0  0  0  0  0  0  0  0  0  0  0
  146.4725  134.6792  150.0948 H   0  0  0  0  0  0  0  0  0  0  0  0
  1  2  1  0  0  0  0
  1 26  1  0  0  0  0
  1 27  1  0  0  0  0
  1 28  1  0  0  0  0
  2  7  1  0  0  0  0
  2  3  1  0  0  0  0
  2 29  1  0  0  0  0
  3  4  1  0  0  0  0
  3 30  1  0  0  0  0
  3 31  1  0  0  0  0
  4  5  1  0  0  0  0
  4 32  1  0  0  0  0
  4 33  1  0  0  0  0
  5  6  1  0  0  0  0
  5 34  1  0  0  0  0
  5 35  1  0  0  0  0
  6  7  1  0  0  0  0
  6 36  1  0  0  0  0
  6 37  1  0  0  0  0
  7 24  1  0  0  0  0
  7  8  1  0  0  0  0
  8  9  1  0  0  0  0
  9 10  2  0  0  0  0
  9 11  1  0  0  0  0
 11 12  1  0  0  0  0
 11 24  1  0  0  0  0
 12 13  1  0  0  0  0
 12 38  1  0  0  0  0
 12 39  1  0  0  0  0
 13 14  2  0  0  0  0
 13 15  1  0  0  0  0
 15 16  1  0  0  0  0
 15 40  1  0  0  0  0
 16 17  1  0  0  0  0
 16 41  1  0  0  0  0
 16 42  1  0  0  0  0
 17 18  1  0  0  0  0
 17 43  1  0  0  0  0
 17 44  1  0  0  0  0
 18 23  1  0  0  0  0
 18 19  2  0  0  0  0
 19 20  1  0  0  0  0
 19 45  1  0  0  0  0
 20 21  2  0  0  0  0
 20 46  1  0  0  0  0
 21 22  1  0  0  0  0
 21 47  1  0  0  0  0
 22 23  2  0  0  0  0
 22 48  1  0  0  0  0
 24 25  2  0  0  0  0
M  CHG  1   8  -1
M  END
> <s_m_source_file>
AV-unprocessed.smi

> <i_m_source_file_index>
2973

> <i_lp_mmshare_version>
43012

> <i_f3d_flags>
0

> <s_epik_input>
W0NIMl0xW0NIMl1bQ0gyXVtDSDJdW0NAQEhdKFtDSDNdKVtDQF0xMltOSF1DKD1PKU4oQzI9TylbQ0gyXUMoPU8pW05IXVtDSDJdW0NIMl1jM1tjSF1bY0hdW2NIXVtjSF1uMw==

> <s_epik_cmdline>
J2VwaWtfcHl0aG9uJywgJy1waCcsICc3LjAnLCAnLXRuJywgJzgnLCAnLW1hJywgJzIwMCcsICctbWV0YWxfYmluZGluZycsICctaW1hZScsICc8aW5maWxlLm1hZT4nLCAnLW9tYWUnLCAnPG91dGZpbGUubWFlPic=

> <r_lp_tautomer_probability>
1

> <r_epik_Ionization_Penalty>
6.04175

> <r_epik_Ionization_Penalty_Charging>
6.01728

> <r_epik_Ionization_Penalty_Neutral>
0.0244696

> <r_epik_State_Penalty>
6.03712

> <r_epik_Charging_Adjusted_Penalty>
12.0544

> <i_epik_Tot_Q>
-1

> <i_epik_Tot_abs_Q>
1

> <r_epik_Metal_State_Penalty>
2.01153

> <b_epik_Metal_Only>
1

> <s_lp_Force_Field>
OPLS_2005

> <r_lp_Energy>
12.5421

> <b_lp_Chiralities_Consistent>
1

> <s_lp_Variant>
AV-unprocessed.smi:2973-9

> <Gold.Version>
5.8.1

> <Gold.Id.Protein>
6NUR|6NUR_protein|mol2

> <Gold.PLP.Fitness>
49.6693

> <Gold.PLP.PLP>
-35.8346

> <Gold.PLP.part.hbond>
-2.6451

> <Gold.PLP.part.metal>
0.0000

> <Gold.PLP.part.buried>
-6.3323

> <Gold.PLP.part.nonpolar>
-27.8906

> <Gold.PLP.part.repulsive>
0.2015

> <Gold.PLP.ligand.clash>
0.0000

> <Gold.PLP.ligand.torsion>
0.5436

> <Gold.PLP.Chemscore.Hbond>
3.9809

> <Gold.PLP.Chemscore.CHOScore>
0.9801

> <Gold.PLP.Chemscore.Metal>
0.0000

> <Gold.Chemscore.Hbonds>
donor molecule, donor type, donor heavy atom, donor atom, acceptor molecule, acceptor atom, score
      P1  H  6896  6909       L1    10  0.41
      P1  H  6931  6943       L1     8  1.92
      P1  H  6934  6947       L1     8  1.35
      L1  C    22    48       P1  7921  0.84

> <Gold.PLP.Chemscore.Internal.Correction>
0.0389

> <Gold.Rescore>
     Score         DG    S(hbond)    S(metal)    S(lipo)     H(rot)  DE(clash)    DE(int)     intcor
     14.42     -17.63       1.88        0.00      89.75       1.81       0.14       3.08       ----

> <Gold.Chemscore.Fitness>
14.4175

> <Gold.Chemscore.DG>
-17.6332

> <Gold.Chemscore.ZeroCoef>
-5.4800

> <Gold.Chemscore.Hbond>
1.8814

> <Gold.Chemscore.Metal>
0.0000

> <Gold.Chemscore.Lipo>
89.7462

> <Gold.Chemscore.Internal_Hbond>
0.0000

> <Gold.Chemscore.DEClash>
0.1391

> <Gold.Chemscore.DEInternal>
3.0766

> <Gold.Chemscore.Rot>
1.8090

> <Gold.Chemscore.Internal.Correction>
   9.000000E+99

> <Gold.Chemscore.Hbonds>
donor molecule, donor type, donor heavy atom, donor atom, acceptor molecule, acceptor atom, score
      P1  H  6896  6909       L1    10  0.11
      P1  H  6931  6943       L1     8  0.41
      P1  H  6934  6947       L1     8  0.12

> <Gold.Chemscore.Hbond.Weighted>
-6.2839

> <Gold.Chemscore.Metal.Weighted>
-0.0000

> <Gold.Chemscore.Lipo.Weighted>
-10.5003

> <Gold.Chemscore.Internal_Hbond.Weighted>
0.0000

> <Gold.Chemscore.DEClash.Weighted>
0.1391

> <Gold.Chemscore.DEInternal.Weighted>
3.0766

> <Gold.Chemscore.Rot.Weighted>
4.6310

> <Gold.Chemscore.Internal.Correction.Weighted>
   9.000000E+99

> <Gold.Protein.RotatedTorsions>
[ 6907 6896 6895 6894 ] final   85.40 input  -60.11 | X-H torsion
[ 7974 7965 7964 7962 ] final   58.76 input  175.53 | X-H torsion
[ 8008 7997 7996 7995 ] final  -24.51 input   59.86 | X-H torsion
[ 10167 10162 10161 10158 ] final   67.61 input  -65.29 | X-H torsion
[ 10718 10713 10712 10709 ] final -173.23 input   66.30 | X-H torsion
[ 10763 10752 10751 10750 ] final -139.19 input  -60.55 | X-H torsion
[ 11005 11000 10999 10996 ] final  -43.82 input  -57.11 | X-H torsion

> <Gold.Protein.ActiveResidues>
 VAL166  LYS551  ARG553  GLY616  TRP617  ASP618  TYR619  PRO620  LYS621  CYS622 
 ASP623  PHE694  ASN695  SER759  ASP760  ASP761  ALA762  ILE779  LEU786  VAL792 
 PHE793  MET794  SER795  GLU796  ALA797  LYS798  CYS799  TRP800  GLU811  SER814 

> <Gold.Protein.RotatedAtoms>
  152.5374  134.2592  159.8928 H   0  0  0  0  0  0  0  0  0  0  0  0  # atno 6907 bound_to 6896
  151.2552  133.4323  159.2621 H   0  0  0  0  0  0  0  0  0  0  0  0  # atno 6908 bound_to 6896
  151.0503  134.9682  159.8264 H   0  0  0  0  0  0  0  0  0  0  0  0  # atno 6909 bound_to 6896
  145.9146  139.3681  143.0515 H   0  0  0  0  0  0  0  0  0  0  0  0  # atno 7974 bound_to 7965
  154.4525  140.1952  156.0475 H   0  0  0  0  0  0  0  0  0  0  0  0  # atno 8008 bound_to 7997
  156.0679  140.3288  155.7512 H   0  0  0  0  0  0  0  0  0  0  0  0  # atno 8009 bound_to 7997
  155.5310  140.0578  157.2879 H   0  0  0  0  0  0  0  0  0  0  0  0  # atno 8010 bound_to 7997
  140.0876  144.5016  150.7120 H   0  0  0  0  0  0  0  0  0  0  0  0  # atno 10167 bound_to 10162
  156.7672  130.9435  151.3119 H   0  0  0  0  0  0  0  0  0  0  0  0  # atno 10718 bound_to 10713
  154.8616  135.3590  154.5507 H   0  0  0  0  0  0  0  0  0  0  0  0  # atno 10763 bound_to 10752
  153.6125  135.7009  153.5346 H   0  0  0  0  0  0  0  0  0  0  0  0  # atno 10764 bound_to 10752
  153.3197  135.4155  155.1367 H   0  0  0  0  0  0  0  0  0  0  0  0  # atno 10765 bound_to 10752
  141.0409  133.6780  156.2786 H   0  0  0  0  0  0  0  0  0  0  0  0  # atno 11005 bound_to 11000
  145.8627  140.9466  143.0691 LP  0  0  0  0  0  0  0  0  0  0  0  0  # atno 17320 bound_to 7965
  144.6746  140.0552  143.7477 LP  0  0  0  0  0  0  0  0  0  0  0  0  # atno 17321 bound_to 7965
  140.7045  143.2458  151.4766 LP  0  0  0  0  0  0  0  0  0  0  0  0  # atno 17342 bound_to 10162
  139.5743  144.1855  152.1881 LP  0  0  0  0  0  0  0  0  0  0  0  0  # atno 17343 bound_to 10162
  157.6707  130.9049  150.0035 LP  0  0  0  0  0  0  0  0  0  0  0  0  # atno 17370 bound_to 10713
  156.1301  130.3643  149.9746 LP  0  0  0  0  0  0  0  0  0  0  0  0  # atno 17371 bound_to 10713
  140.6236  134.5336  157.5551 LP  0  0  0  0  0  0  0  0  0  0  0  0  # atno 17394 bound_to 11000
  139.9275  134.8027  156.1026 LP  0  0  0  0  0  0  0  0  0  0  0  0  # atno 17395 bound_to 11000

$$$$
