AV-unprocessed.smi:1248|AV-procd|sdf|5251|dock4
  -GOLD-   22720 4363D 1   1.00000     0.00000
 Structure written by MMmdl.
 44 46  0  0  0  0  0  0  0  0  2 V2000
  144.0825  132.6977  149.0697 C   0  0  0  0  0  0  0  0  0  0  0  0
  143.9464  132.5794  150.5921 C   0  0  0  0  0  0  0  0  0  0  0  0
  144.3049  133.8151  151.2604 N   0  0  0  0  0  0  0  0  0  0  0  0
  145.5265  134.4589  151.2684 C   0  0  0  0  0  0  0  0  0  0  0  0
  145.3545  135.5731  152.0334 C   0  0  0  0  0  0  0  0  0  0  0  0
  146.3652  136.5265  152.3130 N   0  0  0  0  0  0  0  0  0  0  0  0
  146.1944  137.8049  152.6861 C   0  0  0  0  0  0  0  0  0  0  0  0
  145.1063  138.3635  152.8249 O   0  0  0  0  0  0  0  0  0  0  0  0
  147.3705  138.4134  152.8970 N   0  0  0  0  0  0  0  0  0  0  0  0
  147.5343  139.8027  153.3159 C   0  0  2  0  0  0  0  0  0  0  0  0
  148.9627  140.0240  153.8423 C   0  0  0  0  0  0  0  0  0  0  0  0
  149.1448  141.4551  154.3841 C   0  0  0  0  0  0  0  0  0  0  0  0
  148.1373  141.7931  155.4221 N   0  3  2  0  0  0  0  0  0  0  0  0
  148.3975  141.1406  156.7270 C   0  0  0  0  0  0  0  0  0  0  0  0
  148.2048  142.0566  157.9131 C   0  0  0  0  0  0  0  0  0  0  0  0
  149.6000  141.6974  157.4528 C   0  0  0  0  0  0  0  0  0  0  0  0
  146.7479  141.6001  154.9341 C   0  0  0  0  0  0  0  0  0  0  0  0
  146.5117  140.1723  154.4078 C   0  0  0  0  0  0  0  0  0  0  0  0
  143.9962  135.5464  152.4587 C   0  0  0  0  0  0  0  0  0  0  0  0
  143.3707  134.4794  151.9845 N   0  0  0  0  0  0  0  0  0  0  0  0
  143.8088  131.7621  148.5821 H   0  0  0  0  0  0  0  0  0  0  0  0
  145.1078  132.9342  148.7842 H   0  0  0  0  0  0  0  0  0  0  0  0
  143.4344  133.4807  148.6746 H   0  0  0  0  0  0  0  0  0  0  0  0
  142.9226  132.3166  150.8624 H   0  0  0  0  0  0  0  0  0  0  0  0
  144.5879  131.7811  150.9673 H   0  0  0  0  0  0  0  0  0  0  0  0
  146.3883  134.0757  150.7423 H   0  0  0  0  0  0  0  0  0  0  0  0
  147.3158  136.1966  152.2322 H   0  0  0  0  0  0  0  0  0  0  0  0
  148.2138  137.8764  152.7561 H   0  0  0  0  0  0  0  0  0  0  0  0
  147.3838  140.4538  152.4524 H   0  0  0  0  0  0  0  0  0  0  0  0
  149.1879  139.3010  154.6274 H   0  0  0  0  0  0  0  0  0  0  0  0
  149.6848  139.8414  153.0457 H   0  0  0  0  0  0  0  0  0  0  0  0
  150.1503  141.5853  154.7857 H   0  0  0  0  0  0  0  0  0  0  0  0
  149.0470  142.1689  153.5651 H   0  0  0  0  0  0  0  0  0  0  0  0
  148.1484  140.0842  156.8075 H   0  0  0  0  0  0  0  0  0  0  0  0
  147.8621  143.0733  157.7303 H   0  0  0  0  0  0  0  0  0  0  0  0
  147.8552  141.6080  158.8409 H   0  0  0  0  0  0  0  0  0  0  0  0
  150.1701  141.0138  158.0786 H   0  0  0  0  0  0  0  0  0  0  0  0
  150.1828  142.4769  156.9653 H   0  0  0  0  0  0  0  0  0  0  0  0
  146.0375  141.8354  155.7274 H   0  0  0  0  0  0  0  0  0  0  0  0
  146.5619  142.3176  154.1340 H   0  0  0  0  0  0  0  0  0  0  0  0
  145.4973  140.0968  154.0142 H   0  0  0  0  0  0  0  0  0  0  0  0
  146.5710  139.4598  155.2313 H   0  0  0  0  0  0  0  0  0  0  0  0
  143.4483  136.2400  153.0787 H   0  0  0  0  0  0  0  0  0  0  0  0
  148.2371  142.7830  155.5964 H   0  0  0  0  0  0  0  0  0  0  0  0
  1  2  1  0  0  0  0
  1 21  1  0  0  0  0
  1 22  1  0  0  0  0
  1 23  1  0  0  0  0
  2  3  1  0  0  0  0
  2 24  1  0  0  0  0
  2 25  1  0  0  0  0
  3 20  1  0  0  0  0
  3  4  1  0  0  0  0
  4  5  2  0  0  0  0
  4 26  1  0  0  0  0
  5  6  1  0  0  0  0
  5 19  1  0  0  0  0
  6  7  1  0  0  0  0
  6 27  1  0  0  0  0
  7  8  2  0  0  0  0
  7  9  1  0  0  0  0
  9 10  1  0  0  0  0
  9 28  1  0  0  0  0
 10 18  1  0  0  0  0
 10 11  1  0  0  0  0
 10 29  1  0  0  0  0
 11 12  1  0  0  0  0
 11 30  1  0  0  0  0
 11 31  1  0  0  0  0
 12 13  1  0  0  0  0
 12 32  1  0  0  0  0
 12 33  1  0  0  0  0
 13 14  1  0  0  0  0
 13 17  1  0  0  0  0
 13 44  1  0  0  0  0
 14 16  1  0  0  0  0
 14 15  1  0  0  0  0
 14 34  1  0  0  0  0
 15 16  1  0  0  0  0
 15 35  1  0  0  0  0
 15 36  1  0  0  0  0
 16 37  1  0  0  0  0
 16 38  1  0  0  0  0
 17 18  1  0  0  0  0
 17 39  1  0  0  0  0
 17 40  1  0  0  0  0
 18 41  1  0  0  0  0
 18 42  1  0  0  0  0
 19 20  2  0  0  0  0
 19 43  1  0  0  0  0
M  CHG  1  13   1
M  END
> <s_m_source_file>
AV-unprocessed.smi

> <i_m_source_file_index>
1248

> <i_lp_mmshare_version>
43012

> <i_f3d_flags>
0

> <s_epik_input>
W0NIM11bQ0gyXW4xW2NIXWMoW2NIXW4xKVtOSF1DKD1PKVtOSF1bQ0hdMltDSDJdW0NIMl1OKFtDSDJdW0NIMl0yKVtDSF0zW0NIMl1bQ0gyXTM=

> <s_epik_cmdline>
J2VwaWtfcHl0aG9uJywgJy1waCcsICc3LjAnLCAnLXRuJywgJzgnLCAnLW1hJywgJzIwMCcsICctbWV0YWxfYmluZGluZycsICctaW1hZScsICc8aW5maWxlLm1hZT4nLCAnLW9tYWUnLCAnPG91dGZpbGUubWFlPic=

> <r_lp_tautomer_probability>
1

> <r_epik_Ionization_Penalty>
0.115699

> <r_epik_Ionization_Penalty_Charging>
0.115549

> <r_epik_Ionization_Penalty_Neutral>
0.00014958

> <r_epik_State_Penalty>
0.105184

> <r_epik_Charging_Adjusted_Penalty>
0.220733

> <i_epik_Tot_Q>
1

> <i_epik_Tot_abs_Q>
1

> <r_epik_Metal_State_Penalty>
0.105189

> <b_epik_Metal_Only>
0

> <s_lp_Force_Field>
OPLS_2005

> <r_lp_Energy>
31.7182

> <b_lp_Chiralities_Consistent>
1

> <s_lp_Variant>
AV-unprocessed.smi:1248-2

> <Gold.Version>
5.8.1

> <Gold.Id.Protein>
6NUR|6NUR_protein|mol2

> <Gold.PLP.Fitness>
40.5641

> <Gold.PLP.PLP>
-29.6377

> <Gold.PLP.part.hbond>
-3.2983

> <Gold.PLP.part.metal>
0.0000

> <Gold.PLP.part.buried>
-1.0340

> <Gold.PLP.part.nonpolar>
-28.7309

> <Gold.PLP.part.repulsive>
4.2014

> <Gold.PLP.ligand.clash>
0.0000

> <Gold.PLP.ligand.torsion>
0.9937

> <Gold.PLP.Chemscore.Hbond>
3.8800

> <Gold.PLP.Chemscore.CHOScore>
0.0000

> <Gold.PLP.Chemscore.Metal>
0.0000

> <Gold.Chemscore.Hbonds>
donor molecule, donor type, donor heavy atom, donor atom, acceptor molecule, acceptor atom, score
      L1  H     6    27       P1  7948  1.00
      L1  H     9    28       P1  7948  0.88
      L1  H    13    44       P1  8028  2.00

> <Gold.PLP.Chemscore.Internal.Correction>
1.2738

> <Gold.Rescore>
     Score         DG    S(hbond)    S(metal)    S(lipo)     H(rot)  DE(clash)    DE(int)     intcor
     14.60     -20.08       2.77        0.00      75.06       1.34       2.94       2.53       ----

> <Gold.Chemscore.Fitness>
14.6041

> <Gold.Chemscore.DG>
-20.0774

> <Gold.Chemscore.ZeroCoef>
-5.4800

> <Gold.Chemscore.Hbond>
2.7713

> <Gold.Chemscore.Metal>
0.0000

> <Gold.Chemscore.Lipo>
75.0553

> <Gold.Chemscore.Internal_Hbond>
0.0000

> <Gold.Chemscore.DEClash>
2.9401

> <Gold.Chemscore.DEInternal>
2.5332

> <Gold.Chemscore.Rot>
1.3438

> <Gold.Chemscore.Internal.Correction>
   9.000000E+99

> <Gold.Chemscore.Hbonds>
donor molecule, donor type, donor heavy atom, donor atom, acceptor molecule, acceptor atom, score
      L1  H     6    27       P1  7948  0.99
      L1  H     9    28       P1  7948  0.84
      L1  H    13    44       P1  8028  0.91

> <Gold.Chemscore.Hbond.Weighted>
-9.2560

> <Gold.Chemscore.Metal.Weighted>
-0.0000

> <Gold.Chemscore.Lipo.Weighted>
-8.7815

> <Gold.Chemscore.Internal_Hbond.Weighted>
0.0000

> <Gold.Chemscore.DEClash.Weighted>
2.9401

> <Gold.Chemscore.DEInternal.Weighted>
2.5332

> <Gold.Chemscore.Rot.Weighted>
3.4401

> <Gold.Chemscore.Internal.Correction.Weighted>
   9.000000E+99

> <Gold.Protein.RotatedTorsions>
[ 6907 6896 6895 6894 ] final  135.53 input  -60.11 | X-H torsion
[ 7974 7965 7964 7962 ] final   74.43 input  175.53 | X-H torsion
[ 8008 7997 7996 7995 ] final -122.21 input   59.86 | X-H torsion
[ 10167 10162 10161 10158 ] final -174.08 input  -65.29 | X-H torsion
[ 10718 10713 10712 10709 ] final   53.57 input   66.30 | X-H torsion
[ 10763 10752 10751 10750 ] final -147.42 input  -60.55 | X-H torsion
[ 11005 11000 10999 10996 ] final   34.52 input  -57.11 | X-H torsion

> <Gold.Protein.ActiveResidues>
 VAL166  LYS551  ARG553  GLY616  TRP617  ASP618  TYR619  PRO620  LYS621  CYS622 
 ASP623  PHE694  ASN695  SER759  ASP760  ASP761  ALA762  ILE779  LEU786  VAL792 
 PHE793  MET794  SER795  GLU796  ALA797  LYS798  CYS799  TRP800  GLU811  SER814 

> <Gold.Protein.RotatedAtoms>
  152.2994  133.5640  159.5608 H   0  0  0  0  0  0  0  0  0  0  0  0  # atno 6907 bound_to 6896
  150.7270  134.0314  159.3743 H   0  0  0  0  0  0  0  0  0  0  0  0  # atno 6908 bound_to 6896
  151.8214  135.0650  160.0476 H   0  0  0  0  0  0  0  0  0  0  0  0  # atno 6909 bound_to 6896
  145.7284  139.2674  143.1555 H   0  0  0  0  0  0  0  0  0  0  0  0  # atno 7974 bound_to 7965
  155.1606  140.0406  157.2841 H   0  0  0  0  0  0  0  0  0  0  0  0  # atno 8008 bound_to 7997
  154.6339  140.2531  155.7374 H   0  0  0  0  0  0  0  0  0  0  0  0  # atno 8009 bound_to 7997
  156.2499  140.2869  156.0703 H   0  0  0  0  0  0  0  0  0  0  0  0  # atno 8010 bound_to 7997
  139.5653  144.1770  152.1303 H   0  0  0  0  0  0  0  0  0  0  0  0  # atno 10167 bound_to 10162
  157.5179  130.8545  149.8520 H   0  0  0  0  0  0  0  0  0  0  0  0  # atno 10718 bound_to 10713
  154.8287  135.3361  154.6815 H   0  0  0  0  0  0  0  0  0  0  0  0  # atno 10763 bound_to 10752
  153.7437  135.6944  153.4965 H   0  0  0  0  0  0  0  0  0  0  0  0  # atno 10764 bound_to 10752
  153.2225  135.4444  155.0456 H   0  0  0  0  0  0  0  0  0  0  0  0  # atno 10765 bound_to 10752
  140.2520  134.3292  155.7887 H   0  0  0  0  0  0  0  0  0  0  0  0  # atno 11005 bound_to 11000
  146.0560  140.8020  142.9758 LP  0  0  0  0  0  0  0  0  0  0  0  0  # atno 17320 bound_to 7965
  144.6899  140.3125  143.7246 LP  0  0  0  0  0  0  0  0  0  0  0  0  # atno 17321 bound_to 7965
  140.1292  144.5304  150.6813 LP  0  0  0  0  0  0  0  0  0  0  0  0  # atno 17342 bound_to 10162
  140.6936  143.2390  151.5063 LP  0  0  0  0  0  0  0  0  0  0  0  0  # atno 17343 bound_to 10162
  156.0333  130.3758  150.1628 LP  0  0  0  0  0  0  0  0  0  0  0  0  # atno 17370 bound_to 10713
  156.9817  130.9866  151.3436 LP  0  0  0  0  0  0  0  0  0  0  0  0  # atno 17371 bound_to 10713
  141.2200  133.7359  156.9052 LP  0  0  0  0  0  0  0  0  0  0  0  0  # atno 17394 bound_to 11000
  140.1549  134.9205  157.2640 LP  0  0  0  0  0  0  0  0  0  0  0  0  # atno 17395 bound_to 11000

$$$$
