AV-unprocessed.smi:1|AV-procd|sdf|24|dock2
  -GOLD-   2262015133D 1   1.00000     0.00000
 Structure written by MMmdl.
 56 61  0  0  0  0  0  0  0  0  2 V2000
  153.3110  139.7353  158.2284 O   0  0  0  0  0  0  0  0  0  0  0  0
  152.3336  140.4703  158.0713 C   0  0  0  0  0  0  0  0  0  0  0  0
  151.3816  140.3972  157.1069 N   0  5  0  0  0  0  0  0  0  0  0  0
  151.3131  139.3170  156.3142 C   0  0  0  0  0  0  0  0  0  0  0  0
  151.2110  139.4582  154.9679 N   0  0  0  0  0  0  0  0  0  0  0  0
  151.1322  138.3800  154.1796 C   0  0  0  0  0  0  0  0  0  0  0  0
  151.1296  137.0881  154.5210 N   0  0  0  0  0  0  0  0  0  0  0  0
  151.2269  136.9317  155.8740 C   0  0  0  0  0  0  0  0  0  0  0  0
  151.3181  137.9901  156.8246 C   0  0  0  0  0  0  0  0  0  0  0  0
  151.3987  137.4882  158.1152 N   0  0  0  0  0  0  0  0  0  0  0  0
  151.3599  136.1761  157.8958 C   0  0  0  0  0  0  0  0  0  0  0  0
  151.2631  135.7616  156.6174 N   0  0  0  0  0  0  0  0  0  0  0  0
  151.2189  134.3492  156.1293 C   0  0  1  0  0  0  0  0  0  0  0  0
  152.4110  133.7165  156.4750 O   0  0  0  0  0  0  0  0  0  0  0  0
  152.1740  132.3336  156.7082 C   0  0  2  0  0  0  0  0  0  0  0  0
  152.2435  131.5734  155.3742 C   0  0  0  0  0  0  0  0  0  0  0  0
  150.9913  131.6749  154.7168 O   0  0  0  0  0  0  0  0  0  0  0  0
  150.2986  130.5620  154.4065 C   0  0  0  0  0  0  0  0  0  0  0  0
  150.7440  129.4207  154.5437 O   0  0  0  0  0  0  0  0  0  0  0  0
  148.9350  130.8563  153.8789 C   0  0  0  0  0  0  0  0  0  0  0  0
  147.9848  129.8121  153.7933 C   0  0  0  0  0  0  0  0  0  0  0  0
  146.6897  130.0593  153.2977 C   0  0  0  0  0  0  0  0  0  0  0  0
  146.3292  131.3540  152.8811 C   0  0  0  0  0  0  0  0  0  0  0  0
  147.2649  132.4017  152.9623 C   0  0  0  0  0  0  0  0  0  0  0  0
  148.5604  132.1564  153.4582 C   0  0  0  0  0  0  0  0  0  0  0  0
  150.7770  132.3082  157.3305 C   0  0  1  0  0  0  0  0  0  0  0  0
  150.8716  132.4418  158.7373 O   0  0  0  0  0  0  0  0  0  0  0  0
  149.6780  133.4913  159.2447 S   0  0  0  0  0  0  0  0  0  0  0  0
  148.4886  132.6956  159.5858 O   0  0  0  0  0  0  0  0  0  0  0  0
  150.2693  134.4636  160.1756 O   0  0  0  0  0  0  0  0  0  0  0  0
  149.3885  134.2508  157.7860 O   0  0  0  0  0  0  0  0  0  0  0  0
  150.0655  133.5446  156.7549 C   0  0  1  0  0  0  0  0  0  0  0  0
  152.1562  141.6481  158.9919 C   0  0  0  0  0  0  0  0  0  0  0  0
  152.9106  141.7246  160.1851 C   0  0  0  0  0  0  0  0  0  0  0  0
  152.7409  142.8057  161.0720 C   0  0  0  0  0  0  0  0  0  0  0  0
  151.8079  143.8180  160.7796 C   0  0  0  0  0  0  0  0  0  0  0  0
  151.0408  143.7457  159.6018 C   0  0  0  0  0  0  0  0  0  0  0  0
  151.2100  142.6650  158.7142 C   0  0  0  0  0  0  0  0  0  0  0  0
  151.0593  138.5818  153.1215 H   0  0  0  0  0  0  0  0  0  0  0  0
  151.4107  135.4726  158.7138 H   0  0  0  0  0  0  0  0  0  0  0  0
  151.1387  134.4299  155.0442 H   0  0  0  0  0  0  0  0  0  0  0  0
  152.9159  131.9296  157.3984 H   0  0  0  0  0  0  0  0  0  0  0  0
  153.0087  132.0128  154.7331 H   0  0  0  0  0  0  0  0  0  0  0  0
  152.5141  130.5291  155.5371 H   0  0  0  0  0  0  0  0  0  0  0  0
  148.2388  128.8096  154.1067 H   0  0  0  0  0  0  0  0  0  0  0  0
  145.9725  129.2541  153.2374 H   0  0  0  0  0  0  0  0  0  0  0  0
  145.3365  131.5430  152.5001 H   0  0  0  0  0  0  0  0  0  0  0  0
  146.9893  133.3961  152.6433 H   0  0  0  0  0  0  0  0  0  0  0  0
  149.2538  132.9834  153.5076 H   0  0  0  0  0  0  0  0  0  0  0  0
  150.2396  131.3849  157.1111 H   0  0  0  0  0  0  0  0  0  0  0  0
  149.3647  133.2697  155.9662 H   0  0  0  0  0  0  0  0  0  0  0  0
  153.6301  140.9549  160.4250 H   0  0  0  0  0  0  0  0  0  0  0  0
  153.3271  142.8568  161.9775 H   0  0  0  0  0  0  0  0  0  0  0  0
  151.6776  144.6468  161.4594 H   0  0  0  0  0  0  0  0  0  0  0  0
  150.3195  144.5180  159.3789 H   0  0  0  0  0  0  0  0  0  0  0  0
  150.6039  142.6234  157.8206 H   0  0  0  0  0  0  0  0  0  0  0  0
  1  2  2  0  0  0  0
  2  3  1  0  0  0  0
  2 33  1  0  0  0  0
  3  4  1  0  0  0  0
  4  9  1  0  0  0  0
  4  5  2  0  0  0  0
  5  6  1  0  0  0  0
  6  7  2  0  0  0  0
  6 39  1  0  0  0  0
  7  8  1  0  0  0  0
  8 12  1  0  0  0  0
  8  9  2  0  0  0  0
  9 10  1  0  0  0  0
 10 11  2  0  0  0  0
 11 12  1  0  0  0  0
 11 40  1  0  0  0  0
 12 13  1  0  0  0  0
 13 32  1  0  0  0  0
 13 14  1  0  0  0  0
 13 41  1  0  0  0  0
 14 15  1  0  0  0  0
 15 16  1  0  0  0  0
 15 26  1  0  0  0  0
 15 42  1  0  0  0  0
 16 17  1  0  0  0  0
 16 43  1  0  0  0  0
 16 44  1  0  0  0  0
 17 18  1  0  0  0  0
 18 19  2  0  0  0  0
 18 20  1  0  0  0  0
 20 25  1  0  0  0  0
 20 21  2  0  0  0  0
 21 22  1  0  0  0  0
 21 45  1  0  0  0  0
 22 23  2  0  0  0  0
 22 46  1  0  0  0  0
 23 24  1  0  0  0  0
 23 47  1  0  0  0  0
 24 25  2  0  0  0  0
 24 48  1  0  0  0  0
 25 49  1  0  0  0  0
 26 32  1  0  0  0  0
 26 27  1  0  0  0  0
 26 50  1  0  0  0  0
 27 28  1  0  0  0  0
 28 29  2  0  0  0  0
 28 30  2  0  0  0  0
 28 31  1  0  0  0  0
 31 32  1  0  0  0  0
 32 51  1  0  0  0  0
 33 38  1  0  0  0  0
 33 34  2  0  0  0  0
 34 35  1  0  0  0  0
 34 52  1  0  0  0  0
 35 36  2  0  0  0  0
 35 53  1  0  0  0  0
 36 37  1  0  0  0  0
 36 54  1  0  0  0  0
 37 38  2  0  0  0  0
 37 55  1  0  0  0  0
 38 56  1  0  0  0  0
M  CHG  1   3  -1
M  END
> <s_m_source_file>
AV-unprocessed.smi

> <i_m_source_file_index>
1

> <i_lp_mmshare_version>
43012

> <i_f3d_flags>
0

> <s_epik_input>
W2NIXTFbY0hdW2NIXVtjSF1bY0hdYzFDKD1PKVtOSF1jKG5bY0hdbjIpYyhjMjMpbltjSF1uM1tDQEBIXShbQ0BIXShbQ0BIXTQ1KU9TKE81KSg9Tyk9TylPW0NASF00W0NIMl1PQyg9TyljNltjSF1bY0hdW2NIXVtjSF1bY0hdNg==

> <s_epik_cmdline>
J2VwaWtfcHl0aG9uJywgJy1waCcsICc3LjAnLCAnLXRuJywgJzgnLCAnLW1hJywgJzIwMCcsICctbWV0YWxfYmluZGluZycsICctaW1hZScsICc8aW5maWxlLm1hZT4nLCAnLW9tYWUnLCAnPG91dGZpbGUubWFlPic=

> <r_lp_tautomer_probability>
1

> <r_epik_Ionization_Penalty>
4.39121

> <r_epik_Ionization_Penalty_Charging>
3.39398

> <r_epik_Ionization_Penalty_Neutral>
0.997232

> <r_epik_State_Penalty>
3.39839

> <r_epik_Charging_Adjusted_Penalty>
6.79237

> <i_epik_Tot_Q>
-1

> <i_epik_Tot_abs_Q>
1

> <r_epik_Metal_State_Penalty>
0.497663

> <b_epik_Metal_Only>
1

> <s_epik_Chemistry_Notes>
This compound has an ester and may undergo hydrolysis at high or low pH. This compound contains an acetal/aminal-like group ( X-CH(R)-Y where X, Y are N, S, or O) that may be acid/base labile, releasing an aldehyde.

> <s_lp_Force_Field>
OPLS_2005

> <r_lp_Energy>
44.7553

> <b_lp_Chiralities_Consistent>
1

> <s_lp_Variant>
AV-unprocessed.smi:1-24

> <Gold.Version>
5.8.1

> <Gold.Id.Protein>
6NUR|6NUR_protein|mol2

> <Gold.PLP.Fitness>
65.3202

> <Gold.PLP.PLP>
-56.6012

> <Gold.PLP.part.hbond>
-5.5962

> <Gold.PLP.part.metal>
0.0000

> <Gold.PLP.part.buried>
-7.1966

> <Gold.PLP.part.nonpolar>
-44.4500

> <Gold.PLP.part.repulsive>
0.2865

> <Gold.PLP.ligand.clash>
0.0000

> <Gold.PLP.ligand.torsion>
1.3398

> <Gold.PLP.Chemscore.Hbond>
3.4778

> <Gold.PLP.Chemscore.CHOScore>
0.0000

> <Gold.PLP.Chemscore.Metal>
0.0000

> <Gold.Chemscore.Hbonds>
donor molecule, donor type, donor heavy atom, donor atom, acceptor molecule, acceptor atom, score
      P1  H  7989  7998       L1     5  0.79
      P1  H  7997  8008       L1     1  0.88
      P1  H 10752 10764       L1     7  0.13
      L1  C     6    39       P1  7957  0.23

> <Gold.PLP.Chemscore.Internal.Correction>
0.9651

> <Gold.Rescore>
     Score         DG    S(hbond)    S(metal)    S(lipo)     H(rot)  DE(clash)    DE(int)     intcor
     10.76     -18.16       1.24        0.00     119.05       2.11       1.49       5.91       ----

> <Gold.Chemscore.Fitness>
10.7557

> <Gold.Chemscore.DG>
-18.1559

> <Gold.Chemscore.ZeroCoef>
-5.4800

> <Gold.Chemscore.Hbond>
1.2449

> <Gold.Chemscore.Metal>
0.0000

> <Gold.Chemscore.Lipo>
119.0490

> <Gold.Chemscore.Internal_Hbond>
0.0000

> <Gold.Chemscore.DEClash>
1.4870

> <Gold.Chemscore.DEInternal>
5.9132

> <Gold.Chemscore.Rot>
2.1136

> <Gold.Chemscore.Internal.Correction>
   9.000000E+99

> <Gold.Chemscore.Hbonds>
donor molecule, donor type, donor heavy atom, donor atom, acceptor molecule, acceptor atom, score
      P1  H  7989  7998       L1     5  0.15
      P1  H  7997  8008       L1     1  0.84
      P1  H 10752 10764       L1     7  0.01

> <Gold.Chemscore.Hbond.Weighted>
-4.1579

> <Gold.Chemscore.Metal.Weighted>
-0.0000

> <Gold.Chemscore.Lipo.Weighted>
-13.9287

> <Gold.Chemscore.Internal_Hbond.Weighted>
0.0000

> <Gold.Chemscore.DEClash.Weighted>
1.4870

> <Gold.Chemscore.DEInternal.Weighted>
5.9132

> <Gold.Chemscore.Rot.Weighted>
5.4107

> <Gold.Chemscore.Internal.Correction.Weighted>
   9.000000E+99

> <Gold.Protein.RotatedTorsions>
[ 6907 6896 6895 6894 ] final -179.60 input  -60.11 | X-H torsion
[ 7974 7965 7964 7962 ] final   83.80 input  175.53 | X-H torsion
[ 8008 7997 7996 7995 ] final -108.46 input   59.86 | X-H torsion
[ 10167 10162 10161 10158 ] final   39.99 input  -65.29 | X-H torsion
[ 10718 10713 10712 10709 ] final   28.04 input   66.30 | X-H torsion
[ 10763 10752 10751 10750 ] final  -85.61 input  -60.55 | X-H torsion
[ 11005 11000 10999 10996 ] final  -76.86 input  -57.11 | X-H torsion

> <Gold.Protein.ActiveResidues>
 VAL166  LYS551  ARG553  GLY616  TRP617  ASP618  TYR619  PRO620  LYS621  CYS622 
 ASP623  PHE694  ASN695  SER759  ASP760  ASP761  ALA762  ILE779  LEU786  VAL792 
 PHE793  MET794  SER795  GLU796  ALA797  LYS798  CYS799  TRP800  GLU811  SER814 

> <Gold.Protein.RotatedAtoms>
  151.6561  133.3319  159.3162 H   0  0  0  0  0  0  0  0  0  0  0  0  # atno 6907 bound_to 6896
  150.7936  134.6983  159.6545 H   0  0  0  0  0  0  0  0  0  0  0  0  # atno 6908 bound_to 6896
  152.4020  134.6274  160.0118 H   0  0  0  0  0  0  0  0  0  0  0  0  # atno 6909 bound_to 6896
  145.6072  139.2362  143.2212 H   0  0  0  0  0  0  0  0  0  0  0  0  # atno 7974 bound_to 7965
  154.9445  140.0402  157.2113 H   0  0  0  0  0  0  0  0  0  0  0  0  # atno 8008 bound_to 7997
  154.8037  140.2856  155.5881 H   0  0  0  0  0  0  0  0  0  0  0  0  # atno 8009 bound_to 7997
  156.2964  140.2550  156.2910 H   0  0  0  0  0  0  0  0  0  0  0  0  # atno 8010 bound_to 7997
  140.3786  144.2010  150.6131 H   0  0  0  0  0  0  0  0  0  0  0  0  # atno 10167 bound_to 10162
  157.2282  130.7011  149.6301 H   0  0  0  0  0  0  0  0  0  0  0  0  # atno 10718 bound_to 10713
  154.6131  135.5479  153.7494 H   0  0  0  0  0  0  0  0  0  0  0  0  # atno 10763 bound_to 10752
  153.0204  135.6394  154.1550 H   0  0  0  0  0  0  0  0  0  0  0  0  # atno 10764 bound_to 10752
  154.1487  135.2904  155.3121 H   0  0  0  0  0  0  0  0  0  0  0  0  # atno 10765 bound_to 10752
  141.1657  133.7000  156.7733 H   0  0  0  0  0  0  0  0  0  0  0  0  # atno 11005 bound_to 11000
  146.1532  140.6896  142.9312 LP  0  0  0  0  0  0  0  0  0  0  0  0  # atno 17320 bound_to 7965
  144.7285  140.4599  143.6955 LP  0  0  0  0  0  0  0  0  0  0  0  0  # atno 17321 bound_to 7965
  140.4961  143.2332  151.8748 LP  0  0  0  0  0  0  0  0  0  0  0  0  # atno 17342 bound_to 10162
  139.4797  144.5112  151.8930 LP  0  0  0  0  0  0  0  0  0  0  0  0  # atno 17343 bound_to 10162
  155.9677  130.4497  150.5670 LP  0  0  0  0  0  0  0  0  0  0  0  0  # atno 17370 bound_to 10713
  157.3505  131.0732  151.1717 LP  0  0  0  0  0  0  0  0  0  0  0  0  # atno 17371 bound_to 10713
  140.2448  134.8586  157.3609 LP  0  0  0  0  0  0  0  0  0  0  0  0  # atno 17394 bound_to 11000
  140.1760  134.4549  155.7801 LP  0  0  0  0  0  0  0  0  0  0  0  0  # atno 17395 bound_to 11000

$$$$
