AV-unprocessed.smi:99|AV-procd|sdf|896|dock4
  -GOLD-   2262017393D 1   1.00000     0.00000
 Structure written by MMmdl.
 52 55  0  0  0  0  0  0  0  0  2 V2000
  144.7536  136.8040  153.0919 O   0  0  0  0  0  0  0  0  0  0  0  0
  145.4936  135.8366  153.2799 C   0  0  0  0  0  0  0  0  0  0  0  0
  146.3021  135.7098  154.3495 O   0  0  0  0  0  0  0  0  0  0  0  0
  146.1382  136.5446  155.4847 C   0  0  0  0  0  0  0  0  0  0  0  0
  147.5220  136.8930  156.0475 C   0  0  1  0  0  0  0  0  0  0  0  0
  147.9780  138.1212  155.4901 O   0  0  0  0  0  0  0  0  0  0  0  0
  148.9068  138.7235  156.3499 C   0  0  2  0  0  0  0  0  0  0  0  0
  150.2795  138.7053  155.7043 N   0  0  0  0  0  0  0  0  0  0  0  0
  150.5138  138.0296  154.5176 C   0  0  0  0  0  0  0  0  0  0  0  0
  151.7372  138.0138  153.9494 C   0  0  0  0  0  0  0  0  0  0  0  0
  152.8382  138.7216  154.5966 C   0  0  0  0  0  0  0  0  0  0  0  0
  153.9486  138.7050  154.0692 O   0  0  0  0  0  0  0  0  0  0  0  0
  152.5832  139.3730  155.7680 N   0  5  0  0  0  0  0  0  0  0  0  0
  151.3475  139.3872  156.3474 C   0  0  0  0  0  0  0  0  0  0  0  0
  151.1078  139.9559  157.4129 O   0  0  0  0  0  0  0  0  0  0  0  0
  148.8579  137.9559  157.6938 C   0  0  2  0  0  0  0  0  0  0  0  0
  149.9544  137.0692  157.8631 O   0  0  0  0  0  0  0  0  0  0  0  0
  147.5476  137.1979  157.5444 C   0  0  2  0  0  0  0  0  0  0  0  0
  147.4908  136.0508  158.3889 O   0  0  0  0  0  0  0  0  0  0  0  0
  147.4126  136.1688  159.7322 C   0  0  0  0  0  0  0  0  0  0  0  0
  146.9286  137.1440  160.3100 O   0  0  0  0  0  0  0  0  0  0  0  0
  147.9347  134.9693  160.4467 C   0  0  0  0  0  0  0  0  0  0  0  0
  148.1282  135.0269  161.8466 C   0  0  0  0  0  0  0  0  0  0  0  0
  148.5950  133.9014  162.5527 C   0  0  0  0  0  0  0  0  0  0  0  0
  148.8770  132.7058  161.8669 C   0  0  0  0  0  0  0  0  0  0  0  0
  148.6922  132.6371  160.4739 C   0  0  0  0  0  0  0  0  0  0  0  0
  148.2235  133.7610  159.7662 C   0  0  0  0  0  0  0  0  0  0  0  0
  145.5709  134.6651  152.3598 C   0  0  0  0  0  0  0  0  0  0  0  0
  144.5993  134.5159  151.3431 C   0  0  0  0  0  0  0  0  0  0  0  0
  144.6337  133.4068  150.4756 C   0  0  0  0  0  0  0  0  0  0  0  0
  145.6401  132.4335  150.6141 C   0  0  0  0  0  0  0  0  0  0  0  0
  146.6152  132.5728  151.6187 C   0  0  0  0  0  0  0  0  0  0  0  0
  146.5836  133.6821  152.4855 C   0  0  0  0  0  0  0  0  0  0  0  0
  145.6138  137.4510  155.1810 H   0  0  0  0  0  0  0  0  0  0  0  0
  145.5368  136.0576  156.2539 H   0  0  0  0  0  0  0  0  0  0  0  0
  148.2425  136.1108  155.8023 H   0  0  0  0  0  0  0  0  0  0  0  0
  148.6344  139.7764  156.4408 H   0  0  0  0  0  0  0  0  0  0  0  0
  149.7146  137.4965  154.0262 H   0  0  0  0  0  0  0  0  0  0  0  0
  151.9026  137.4805  153.0248 H   0  0  0  0  0  0  0  0  0  0  0  0
  148.8343  138.6592  158.5265 H   0  0  0  0  0  0  0  0  0  0  0  0
  150.5795  137.2377  157.1739 H   0  0  0  0  0  0  0  0  0  0  0  0
  146.7393  137.8954  157.7701 H   0  0  0  0  0  0  0  0  0  0  0  0
  147.9107  135.9317  162.3956 H   0  0  0  0  0  0  0  0  0  0  0  0
  148.7334  133.9556  163.6223 H   0  0  0  0  0  0  0  0  0  0  0  0
  149.2344  131.8423  162.4084 H   0  0  0  0  0  0  0  0  0  0  0  0
  148.9095  131.7204  159.9460 H   0  0  0  0  0  0  0  0  0  0  0  0
  148.0902  133.6743  158.6977 H   0  0  0  0  0  0  0  0  0  0  0  0
  143.8127  135.2468  151.2218 H   0  0  0  0  0  0  0  0  0  0  0  0
  143.8846  133.3018  149.7047 H   0  0  0  0  0  0  0  0  0  0  0  0
  145.6641  131.5813  149.9514 H   0  0  0  0  0  0  0  0  0  0  0  0
  147.3865  131.8251  151.7297 H   0  0  0  0  0  0  0  0  0  0  0  0
  147.3430  133.7534  153.2504 H   0  0  0  0  0  0  0  0  0  0  0  0
  1  2  2  0  0  0  0
  2  3  1  0  0  0  0
  2 28  1  0  0  0  0
  3  4  1  0  0  0  0
  4  5  1  0  0  0  0
  4 34  1  0  0  0  0
  4 35  1  0  0  0  0
  5 18  1  0  0  0  0
  5  6  1  0  0  0  0
  5 36  1  0  0  0  0
  6  7  1  0  0  0  0
  7  8  1  0  0  0  0
  7 16  1  0  0  0  0
  7 37  1  0  0  0  0
  8 14  1  0  0  0  0
  8  9  1  0  0  0  0
  9 10  2  0  0  0  0
  9 38  1  0  0  0  0
 10 11  1  0  0  0  0
 10 39  1  0  0  0  0
 11 12  2  0  0  0  0
 11 13  1  0  0  0  0
 13 14  1  0  0  0  0
 14 15  2  0  0  0  0
 16 17  1  0  0  0  0
 16 18  1  0  0  0  0
 16 40  1  0  0  0  0
 17 41  1  0  0  0  0
 18 19  1  0  0  0  0
 18 42  1  0  0  0  0
 19 20  1  0  0  0  0
 20 21  2  0  0  0  0
 20 22  1  0  0  0  0
 22 27  1  0  0  0  0
 22 23  2  0  0  0  0
 23 24  1  0  0  0  0
 23 43  1  0  0  0  0
 24 25  2  0  0  0  0
 24 44  1  0  0  0  0
 25 26  1  0  0  0  0
 25 45  1  0  0  0  0
 26 27  2  0  0  0  0
 26 46  1  0  0  0  0
 27 47  1  0  0  0  0
 28 33  1  0  0  0  0
 28 29  2  0  0  0  0
 29 30  1  0  0  0  0
 29 48  1  0  0  0  0
 30 31  2  0  0  0  0
 30 49  1  0  0  0  0
 31 32  1  0  0  0  0
 31 50  1  0  0  0  0
 32 33  2  0  0  0  0
 32 51  1  0  0  0  0
 33 52  1  0  0  0  0
M  CHG  1  13  -1
M  END
> <s_m_source_file>
AV-unprocessed.smi

> <i_m_source_file_index>
99

> <i_lp_mmshare_version>
43012

> <i_f3d_flags>
0

> <s_epik_input>
W2NIXTFbY0hdW2NIXVtjSF1bY0hdYzFDKD1PKU9bQ0gyXVtDQEBIXTJPW0NAQEhdKG4zW2NIXVtjSF1jKD1PKVtuSF1jMz1PKVtDQEBIXShbT0hdKVtDQEhdMk9DKD1PKWM0W2NIXVtjSF1bY0hdW2NIXVtjSF00

> <s_epik_cmdline>
J2VwaWtfcHl0aG9uJywgJy1waCcsICc3LjAnLCAnLXRuJywgJzgnLCAnLW1hJywgJzIwMCcsICctbWV0YWxfYmluZGluZycsICctaW1hZScsICc8aW5maWxlLm1hZT4nLCAnLW9tYWUnLCAnPG91dGZpbGUubWFlPic=

> <r_lp_tautomer_probability>
1

> <r_epik_Ionization_Penalty>
2.89159

> <r_epik_Ionization_Penalty_Charging>
2.1077e-08

> <r_epik_Ionization_Penalty_Neutral>
2.89159

> <r_epik_State_Penalty>
2.88671

> <r_epik_Charging_Adjusted_Penalty>
2.88671

> <i_epik_Tot_Q>
-1

> <i_epik_Tot_abs_Q>
1

> <r_epik_Metal_State_Penalty>
0.0727308

> <b_epik_Metal_Only>
1

> <s_epik_Chemistry_Notes>
This compound has an ester and may undergo hydrolysis at high or low pH. This compound contains an acetal/aminal-like group ( X-CH(R)-Y where X, Y are N, S, or O) that may be acid/base labile, releasing an aldehyde.

> <s_lp_Force_Field>
OPLS_2005

> <r_lp_Energy>
52.3549

> <b_lp_Chiralities_Consistent>
1

> <s_lp_Variant>
AV-unprocessed.smi:99-32

> <Gold.Version>
5.8.1

> <Gold.Id.Protein>
6NUR|6NUR_protein|mol2

> <Gold.PLP.Fitness>
55.0429

> <Gold.PLP.PLP>
-46.3435

> <Gold.PLP.part.hbond>
-3.1758

> <Gold.PLP.part.metal>
0.0000

> <Gold.PLP.part.buried>
-7.6325

> <Gold.PLP.part.nonpolar>
-36.5080

> <Gold.PLP.part.repulsive>
0.3764

> <Gold.PLP.ligand.clash>
0.0000

> <Gold.PLP.ligand.torsion>
1.4184

> <Gold.PLP.Chemscore.Hbond>
2.8640

> <Gold.PLP.Chemscore.CHOScore>
0.8428

> <Gold.PLP.Chemscore.Metal>
0.0000

> <Gold.Chemscore.Hbonds>
donor molecule, donor type, donor heavy atom, donor atom, acceptor molecule, acceptor atom, score
      P1  H  6934  6947       L1    21  1.00
      P1  H  7997  8010       L1    13  2.00
      L1  C     9    38       P1  7948  0.85

> <Gold.PLP.Chemscore.Internal.Correction>
0.4159

> <Gold.Rescore>
     Score         DG    S(hbond)    S(metal)    S(lipo)     H(rot)  DE(clash)    DE(int)     intcor
     12.43     -14.34       1.78        0.00      93.46       3.13       0.13       1.77       ----

> <Gold.Chemscore.Fitness>
12.4302

> <Gold.Chemscore.DG>
-14.3378

> <Gold.Chemscore.ZeroCoef>
-5.4800

> <Gold.Chemscore.Hbond>
1.7808

> <Gold.Chemscore.Metal>
0.0000

> <Gold.Chemscore.Lipo>
93.4566

> <Gold.Chemscore.Internal_Hbond>
0.0000

> <Gold.Chemscore.DEClash>
0.1336

> <Gold.Chemscore.DEInternal>
1.7739

> <Gold.Chemscore.Rot>
3.1346

> <Gold.Chemscore.Internal.Correction>
   9.000000E+99

> <Gold.Chemscore.Hbonds>
donor molecule, donor type, donor heavy atom, donor atom, acceptor molecule, acceptor atom, score
      P1  H  6934  6947       L1    21  0.97
      P1  H  7997  8010       L1    13  0.34

> <Gold.Chemscore.Hbond.Weighted>
-5.9479

> <Gold.Chemscore.Metal.Weighted>
-0.0000

> <Gold.Chemscore.Lipo.Weighted>
-10.9344

> <Gold.Chemscore.Internal_Hbond.Weighted>
0.0000

> <Gold.Chemscore.DEClash.Weighted>
0.1336

> <Gold.Chemscore.DEInternal.Weighted>
1.7739

> <Gold.Chemscore.Rot.Weighted>
8.0246

> <Gold.Chemscore.Internal.Correction.Weighted>
   9.000000E+99

> <Gold.Protein.RotatedTorsions>
[ 6907 6896 6895 6894 ] final  -35.82 input  -60.11 | X-H torsion
[ 7974 7965 7964 7962 ] final  -76.36 input  175.53 | X-H torsion
[ 8008 7997 7996 7995 ] final   84.74 input   59.86 | X-H torsion
[ 10167 10162 10161 10158 ] final  157.36 input  -65.29 | X-H torsion
[ 10718 10713 10712 10709 ] final -152.01 input   66.30 | X-H torsion
[ 10763 10752 10751 10750 ] final   -8.36 input  -60.55 | X-H torsion
[ 11005 11000 10999 10996 ] final   75.51 input  -57.11 | X-H torsion

> <Gold.Protein.ActiveResidues>
 VAL166  LYS551  ARG553  GLY616  TRP617  ASP618  TYR619  PRO620  LYS621  CYS622 
 ASP623  PHE694  ASN695  SER759  ASP760  ASP761  ALA762  ILE779  LEU786  VAL792 
 PHE793  MET794  SER795  GLU796  ALA797  LYS798  CYS799  TRP800  GLU811  SER814 

> <Gold.Protein.RotatedAtoms>
  151.0350  134.9566  159.8131 H   0  0  0  0  0  0  0  0  0  0  0  0  # atno 6907 bound_to 6896
  152.5353  134.2731  159.8989 H   0  0  0  0  0  0  0  0  0  0  0  0  # atno 6908 bound_to 6896
  151.2742  133.4198  159.2657 H   0  0  0  0  0  0  0  0  0  0  0  0  # atno 6909 bound_to 6896
  145.6139  140.9380  143.1175 H   0  0  0  0  0  0  0  0  0  0  0  0  # atno 7974 bound_to 7965
  155.9410  140.3408  155.6327 H   0  0  0  0  0  0  0  0  0  0  0  0  # atno 8008 bound_to 7997
  155.7039  140.0763  157.2417 H   0  0  0  0  0  0  0  0  0  0  0  0  # atno 8009 bound_to 7997
  154.4102  140.1635  156.2209 H   0  0  0  0  0  0  0  0  0  0  0  0  # atno 8010 bound_to 7997
  139.4823  144.4924  151.8289 H   0  0  0  0  0  0  0  0  0  0  0  0  # atno 10167 bound_to 10162
  156.4667  130.8239  151.2469 H   0  0  0  0  0  0  0  0  0  0  0  0  # atno 10718 bound_to 10713
  153.4393  135.7013  153.6179 H   0  0  0  0  0  0  0  0  0  0  0  0  # atno 10763 bound_to 10752
  153.4561  135.3747  155.2312 H   0  0  0  0  0  0  0  0  0  0  0  0  # atno 10764 bound_to 10752
  154.8727  135.4008  154.3789 H   0  0  0  0  0  0  0  0  0  0  0  0  # atno 10765 bound_to 10752
  139.9340  134.7524  156.1281 H   0  0  0  0  0  0  0  0  0  0  0  0  # atno 11005 bound_to 11000
  144.7259  139.7879  143.7365 LP  0  0  0  0  0  0  0  0  0  0  0  0  # atno 17320 bound_to 7965
  146.1483  139.4559  143.0065 LP  0  0  0  0  0  0  0  0  0  0  0  0  # atno 17321 bound_to 7965
  140.4409  144.1987  150.5891 LP  0  0  0  0  0  0  0  0  0  0  0  0  # atno 17342 bound_to 10162
  140.4683  143.2422  151.9124 LP  0  0  0  0  0  0  0  0  0  0  0  0  # atno 17343 bound_to 10162
  157.7494  131.0089  150.3247 LP  0  0  0  0  0  0  0  0  0  0  0  0  # atno 17370 bound_to 10713
  156.3660  130.3855  149.7213 LP  0  0  0  0  0  0  0  0  0  0  0  0  # atno 17371 bound_to 10713
  141.0944  133.6701  156.2613 LP  0  0  0  0  0  0  0  0  0  0  0  0  # atno 17394 bound_to 11000
  140.6125  134.5444  157.5535 LP  0  0  0  0  0  0  0  0  0  0  0  0  # atno 17395 bound_to 11000

$$$$
