AV-unprocessed.smi:291|AV-procd|sdf|2248|dock10
  -GOLD-   2262022133D 1   1.00000     0.00000
 Structure written by MMmdl.
 35 36  0  0  0  0  0  0  0  0  1 V2000
  149.1622  141.1630  155.5104 C   0  0  0  0  0  0  0  0  0  0  0  0
  150.4910  140.4232  155.7199 C   0  0  2  0  0  0  0  0  0  0  0  0
  150.7671  139.4283  154.5764 C   0  0  0  0  0  0  0  0  0  0  0  0
  152.0952  138.6785  154.7844 C   0  0  0  0  0  0  0  0  0  0  0  0
  152.1570  137.9685  156.1499 C   0  0  2  0  0  0  0  0  0  0  0  0
  151.2298  136.8398  156.1691 N   0  0  0  0  0  0  0  0  0  0  0  0
  151.5122  135.5956  156.5866 C   0  0  0  0  0  0  0  0  0  0  0  0
  152.6136  135.2573  157.0188 O   0  0  0  0  0  0  0  0  0  0  0  0
  150.3722  134.5766  156.5186 C   0  0  0  0  0  0  0  0  0  0  0  0
  149.1755  135.0681  157.1795 N   0  0  0  0  0  0  0  0  0  0  0  0
  147.9529  135.3107  156.6949 C   0  0  0  0  0  0  0  0  0  0  0  0
  147.0966  135.7727  157.5980 N   0  0  0  0  0  0  0  0  0  0  0  0
  147.9220  135.7865  158.6848 C   0  0  0  0  0  0  0  0  0  0  0  0
  147.4558  136.2326  159.9867 C   0  0  0  0  0  0  0  0  0  0  0  0
  147.0842  136.5879  161.0234 N   0  0  0  0  0  0  0  0  0  0  0  0
  149.1751  135.3768  158.4997 N   0  0  0  0  0  0  0  0  0  0  0  0
  151.8539  138.9551  157.2959 C   0  0  0  0  0  0  0  0  0  0  0  0
  150.5259  139.7035  157.0820 C   0  0  0  0  0  0  0  0  0  0  0  0
  148.3188  140.4720  155.5121 H   0  0  0  0  0  0  0  0  0  0  0  0
  149.1548  141.6952  154.5588 H   0  0  0  0  0  0  0  0  0  0  0  0
  148.9932  141.8968  156.2989 H   0  0  0  0  0  0  0  0  0  0  0  0
  151.2867  141.1697  155.7139 H   0  0  0  0  0  0  0  0  0  0  0  0
  149.9474  138.7119  154.5033 H   0  0  0  0  0  0  0  0  0  0  0  0
  150.7955  139.9568  153.6230 H   0  0  0  0  0  0  0  0  0  0  0  0
  152.2485  137.9597  153.9783 H   0  0  0  0  0  0  0  0  0  0  0  0
  152.9190  139.3901  154.7154 H   0  0  0  0  0  0  0  0  0  0  0  0
  153.1710  137.5858  156.2795 H   0  0  0  0  0  0  0  0  0  0  0  0
  150.2940  137.0204  155.8348 H   0  0  0  0  0  0  0  0  0  0  0  0
  150.1289  134.3550  155.4786 H   0  0  0  0  0  0  0  0  0  0  0  0
  150.6877  133.6409  156.9828 H   0  0  0  0  0  0  0  0  0  0  0  0
  147.6866  135.1506  155.6604 H   0  0  0  0  0  0  0  0  0  0  0  0
  151.8383  138.4327  158.2533 H   0  0  0  0  0  0  0  0  0  0  0  0
  152.6641  139.6821  157.3635 H   0  0  0  0  0  0  0  0  0  0  0  0
  150.3819  140.4243  157.8876 H   0  0  0  0  0  0  0  0  0  0  0  0
  149.6945  139.0005  157.1494 H   0  0  0  0  0  0  0  0  0  0  0  0
  1  2  1  0  0  0  0
  1 19  1  0  0  0  0
  1 20  1  0  0  0  0
  1 21  1  0  0  0  0
  2 18  1  0  0  0  0
  2  3  1  0  0  0  0
  2 22  1  0  0  0  0
  3  4  1  0  0  0  0
  3 23  1  0  0  0  0
  3 24  1  0  0  0  0
  4  5  1  0  0  0  0
  4 25  1  0  0  0  0
  4 26  1  0  0  0  0
  5  6  1  0  0  0  0
  5 17  1  0  0  0  0
  5 27  1  0  0  0  0
  6  7  1  0  0  0  0
  6 28  1  0  0  0  0
  7  8  2  0  0  0  0
  7  9  1  0  0  0  0
  9 10  1  0  0  0  0
  9 29  1  0  0  0  0
  9 30  1  0  0  0  0
 10 16  1  0  0  0  0
 10 11  1  0  0  0  0
 11 12  2  0  0  0  0
 11 31  1  0  0  0  0
 12 13  1  0  0  0  0
 13 14  1  0  0  0  0
 13 16  2  0  0  0  0
 14 15  3  0  0  0  0
 17 18  1  0  0  0  0
 17 32  1  0  0  0  0
 17 33  1  0  0  0  0
 18 34  1  0  0  0  0
 18 35  1  0  0  0  0
M  END
> <s_m_source_file>
AV-unprocessed.smi

> <i_m_source_file_index>
291

> <i_lp_mmshare_version>
43012

> <i_f3d_flags>
0

> <s_epik_input>
W0NIM11bQ0BASF0xW0NIMl1bQ0gyXVtDQEhdKFtDSDJdW0NIMl0xKVtOSF1DKD1PKVtDSDJdbjJbY0hdbmMobjIpQyNO

> <s_epik_cmdline>
J2VwaWtfcHl0aG9uJywgJy1waCcsICc3LjAnLCAnLXRuJywgJzgnLCAnLW1hJywgJzIwMCcsICctbWV0YWxfYmluZGluZycsICctaW1hZScsICc8aW5maWxlLm1hZT4nLCAnLW9tYWUnLCAnPG91dGZpbGUubWFlPic=

> <r_lp_tautomer_probability>
1

> <r_epik_Ionization_Penalty>
5.31112e-08

> <r_epik_Ionization_Penalty_Charging>
0

> <r_epik_Ionization_Penalty_Neutral>
5.31112e-08

> <r_epik_State_Penalty>
-0

> <r_epik_Charging_Adjusted_Penalty>
0

> <i_epik_Tot_Q>
0

> <i_epik_Tot_abs_Q>
0

> <r_epik_Metal_State_Penalty>
-0

> <b_epik_Metal_Only>
0

> <s_lp_Force_Field>
OPLS_2005

> <r_lp_Energy>
11.449

> <b_lp_Chiralities_Consistent>
1

> <s_lp_Variant>
AV-unprocessed.smi:291-2

> <Gold.Version>
5.8.1

> <Gold.Id.Protein>
6NUR|6NUR_protein|mol2

> <Gold.PLP.Fitness>
35.0899

> <Gold.PLP.PLP>
-24.0478

> <Gold.PLP.part.hbond>
-4.1194

> <Gold.PLP.part.metal>
0.0000

> <Gold.PLP.part.buried>
-1.8282

> <Gold.PLP.part.nonpolar>
-18.3819

> <Gold.PLP.part.repulsive>
0.0852

> <Gold.PLP.ligand.clash>
0.0000

> <Gold.PLP.ligand.torsion>
0.2180

> <Gold.PLP.Chemscore.Hbond>
3.8240

> <Gold.PLP.Chemscore.CHOScore>
0.0000

> <Gold.PLP.Chemscore.Metal>
0.0000

> <Gold.Chemscore.Hbonds>
donor molecule, donor type, donor heavy atom, donor atom, acceptor molecule, acceptor atom, score
      P1  H  6896  6909       L1    16  1.00
      P1  H 10752 10764       L1     8  0.65

> <Gold.PLP.Chemscore.Internal.Correction>
0.0062

> <Gold.Rescore>
     Score         DG    S(hbond)    S(metal)    S(lipo)     H(rot)  DE(clash)    DE(int)     intcor
     16.62     -16.96       3.25        0.00      47.89       1.95       0.07       0.27       ----

> <Gold.Chemscore.Fitness>
16.6236

> <Gold.Chemscore.DG>
-16.9619

> <Gold.Chemscore.ZeroCoef>
-5.4800

> <Gold.Chemscore.Hbond>
3.2525

> <Gold.Chemscore.Metal>
0.0000

> <Gold.Chemscore.Lipo>
47.8950

> <Gold.Chemscore.Internal_Hbond>
0.0000

> <Gold.Chemscore.DEClash>
0.0706

> <Gold.Chemscore.DEInternal>
0.2677

> <Gold.Chemscore.Rot>
1.9474

> <Gold.Chemscore.Internal.Correction>
   9.000000E+99

> <Gold.Chemscore.Hbonds>
donor molecule, donor type, donor heavy atom, donor atom, acceptor molecule, acceptor atom, score
      P1  H  6896  6909       L1    16  0.85
      P1  H  6934  6947       L1    15  0.03
      P1  H 10752 10764       L1     8  0.06

> <Gold.Chemscore.Hbond.Weighted>
-10.8635

> <Gold.Chemscore.Metal.Weighted>
-0.0000

> <Gold.Chemscore.Lipo.Weighted>
-5.6037

> <Gold.Chemscore.Internal_Hbond.Weighted>
0.0000

> <Gold.Chemscore.DEClash.Weighted>
0.0706

> <Gold.Chemscore.DEInternal.Weighted>
0.2677

> <Gold.Chemscore.Rot.Weighted>
4.9852

> <Gold.Chemscore.Internal.Correction.Weighted>
   9.000000E+99

> <Gold.Protein.RotatedTorsions>
[ 6907 6896 6895 6894 ] final   47.14 input  -60.11 | X-H torsion
[ 7974 7965 7964 7962 ] final -105.26 input  175.53 | X-H torsion
[ 8008 7997 7996 7995 ] final  129.05 input   59.86 | X-H torsion
[ 10167 10162 10161 10158 ] final -166.54 input  -65.29 | X-H torsion
[ 10718 10713 10712 10709 ] final -136.26 input   66.30 | X-H torsion
[ 10763 10752 10751 10750 ] final   -7.30 input  -60.55 | X-H torsion
[ 11005 11000 10999 10996 ] final  147.74 input  -57.11 | X-H torsion

> <Gold.Protein.ActiveResidues>
 VAL166  LYS551  ARG553  GLY616  TRP617  ASP618  TYR619  PRO620  LYS621  CYS622 
 ASP623  PHE694  ASN695  SER759  ASP760  ASP761  ALA762  ILE779  LEU786  VAL792 
 PHE793  MET794  SER795  GLU796  ALA797  LYS798  CYS799  TRP800  GLU811  SER814 

> <Gold.Protein.RotatedAtoms>
  152.2645  134.7998  160.0424 H   0  0  0  0  0  0  0  0  0  0  0  0  # atno 6907 bound_to 6896
  151.8633  133.3456  159.3719 H   0  0  0  0  0  0  0  0  0  0  0  0  # atno 6908 bound_to 6896
  150.7129  134.5112  159.5653 H   0  0  0  0  0  0  0  0  0  0  0  0  # atno 6909 bound_to 6896
  145.2328  140.9177  143.3195 H   0  0  0  0  0  0  0  0  0  0  0  0  # atno 7974 bound_to 7965
  156.2928  140.2630  156.2536 H   0  0  0  0  0  0  0  0  0  0  0  0  # atno 8008 bound_to 7997
  154.9858  140.0389  157.2316 H   0  0  0  0  0  0  0  0  0  0  0  0  # atno 8009 bound_to 7997
  154.7730  140.2781  155.6127 H   0  0  0  0  0  0  0  0  0  0  0  0  # atno 8010 bound_to 7997
  139.6108  144.0818  152.1840 H   0  0  0  0  0  0  0  0  0  0  0  0  # atno 10167 bound_to 10162
  156.2751  130.7288  151.1267 H   0  0  0  0  0  0  0  0  0  0  0  0  # atno 10718 bound_to 10713
  153.4244  135.7010  153.6272 H   0  0  0  0  0  0  0  0  0  0  0  0  # atno 10763 bound_to 10752
  153.4713  135.3714  155.2393 H   0  0  0  0  0  0  0  0  0  0  0  0  # atno 10764 bound_to 10752
  154.8723  135.4043  154.3618 H   0  0  0  0  0  0  0  0  0  0  0  0  # atno 10765 bound_to 10752
  140.0901  134.9046  157.1637 H   0  0  0  0  0  0  0  0  0  0  0  0  # atno 11005 bound_to 11000
  144.9661  139.3929  143.6332 LP  0  0  0  0  0  0  0  0  0  0  0  0  # atno 17320 bound_to 7965
  146.3349  139.8737  142.8836 LP  0  0  0  0  0  0  0  0  0  0  0  0  # atno 17321 bound_to 7965
  140.0436  144.5988  150.7391 LP  0  0  0  0  0  0  0  0  0  0  0  0  # atno 17342 bound_to 10162
  140.7318  143.2698  151.3925 LP  0  0  0  0  0  0  0  0  0  0  0  0  # atno 17343 bound_to 10162
  157.7296  131.0622  150.5764 LP  0  0  0  0  0  0  0  0  0  0  0  0  # atno 17370 bound_to 10713
  156.5864  130.4318  149.5955 LP  0  0  0  0  0  0  0  0  0  0  0  0  # atno 17371 bound_to 10713
  140.3365  134.2752  155.7219 LP  0  0  0  0  0  0  0  0  0  0  0  0  # atno 17394 bound_to 11000
  141.2075  133.7804  157.0115 LP  0  0  0  0  0  0  0  0  0  0  0  0  # atno 17395 bound_to 11000

$$$$
