AV-unprocessed.smi:837|AV-procd|sdf|3900|dock2
  -GOLD-   22720 1363D 1   1.00000     0.00000
 Structure written by MMmdl.
 48 50  0  0  0  0  0  0  0  0  2 V2000
  152.4858  139.1081  157.2164 C   0  0  0  0  0  0  0  0  0  0  0  0
  151.5888  139.7101  156.1126 C   0  0  2  0  0  0  0  0  0  0  0  0
  150.9872  141.0572  156.5681 C   0  0  0  0  0  0  0  0  0  0  0  0
  150.1863  141.7333  155.4454 C   0  0  0  0  0  0  0  0  0  0  0  0
  149.0813  140.8089  154.9174 C   0  0  0  0  0  0  0  0  0  0  0  0
  149.6562  139.4588  154.4540 C   0  0  0  0  0  0  0  0  0  0  0  0
  150.4847  138.7514  155.5581 C   0  0  2  0  0  0  0  0  0  0  0  0
  149.6067  138.2709  156.6136 N   0  5  0  0  0  0  0  0  0  0  0  0
  149.6804  136.9210  156.6664 C   0  0  0  0  0  0  0  0  0  0  0  0
  149.0790  136.1821  157.4455 O   0  0  0  0  0  0  0  0  0  0  0  0
  150.5260  136.4451  155.7327 N   0  0  0  0  0  0  0  0  0  0  0  0
  150.8509  135.0252  155.5431 C   0  0  0  0  0  0  0  0  0  0  0  0
  149.6041  134.1501  155.3593 C   0  0  0  0  0  0  0  0  0  0  0  0
  149.2704  133.3395  156.2247 O   0  0  0  0  0  0  0  0  0  0  0  0
  148.9379  134.3076  154.2058 N   0  0  0  0  0  0  0  0  0  0  0  0
  147.7397  133.5676  153.8228 C   0  0  0  0  0  0  0  0  0  0  0  0
  147.8632  132.9305  152.4261 C   0  0  0  0  0  0  0  0  0  0  0  0
  146.5884  133.0308  151.6064 C   0  0  0  0  0  0  0  0  0  0  0  0
  145.8910  131.8734  151.2028 C   0  0  0  0  0  0  0  0  0  0  0  0
  144.7179  132.0212  150.4377 C   0  0  0  0  0  0  0  0  0  0  0  0
  144.2920  133.3233  150.1077 C   0  0  0  0  0  0  0  0  0  0  0  0
  144.9521  134.4383  150.4882 N   0  0  0  0  0  0  0  0  0  0  0  0
  146.0748  134.2880  151.2232 C   0  0  0  0  0  0  0  0  0  0  0  0
  151.0599  137.4464  155.0245 C   0  0  0  0  0  0  0  0  0  0  0  0
  151.8777  137.3646  154.1066 O   0  0  0  0  0  0  0  0  0  0  0  0
  151.9099  138.8456  158.1041 H   0  0  0  0  0  0  0  0  0  0  0  0
  153.2523  139.8196  157.5238 H   0  0  0  0  0  0  0  0  0  0  0  0
  153.0026  138.2104  156.8774 H   0  0  0  0  0  0  0  0  0  0  0  0
  152.2549  139.9406  155.2792 H   0  0  0  0  0  0  0  0  0  0  0  0
  150.3433  140.9022  157.4350 H   0  0  0  0  0  0  0  0  0  0  0  0
  151.7819  141.7280  156.8956 H   0  0  0  0  0  0  0  0  0  0  0  0
  149.7490  142.6630  155.8102 H   0  0  0  0  0  0  0  0  0  0  0  0
  150.8572  142.0054  154.6297 H   0  0  0  0  0  0  0  0  0  0  0  0
  148.3372  140.6450  155.6976 H   0  0  0  0  0  0  0  0  0  0  0  0
  148.5579  141.2909  154.0915 H   0  0  0  0  0  0  0  0  0  0  0  0
  148.8443  138.8162  154.1088 H   0  0  0  0  0  0  0  0  0  0  0  0
  150.2880  139.6353  153.5818 H   0  0  0  0  0  0  0  0  0  0  0  0
  151.5140  134.9139  154.6833 H   0  0  0  0  0  0  0  0  0  0  0  0
  151.4114  134.6450  156.3986 H   0  0  0  0  0  0  0  0  0  0  0  0
  149.2846  134.9902  153.5476 H   0  0  0  0  0  0  0  0  0  0  0  0
  147.5109  132.8051  154.5688 H   0  0  0  0  0  0  0  0  0  0  0  0
  146.9029  134.2665  153.8333 H   0  0  0  0  0  0  0  0  0  0  0  0
  148.6795  133.4011  151.8762 H   0  0  0  0  0  0  0  0  0  0  0  0
  148.1342  131.8790  152.5260 H   0  0  0  0  0  0  0  0  0  0  0  0
  146.2490  130.8898  151.4700 H   0  0  0  0  0  0  0  0  0  0  0  0
  144.1586  131.1574  150.1102 H   0  0  0  0  0  0  0  0  0  0  0  0
  143.3978  133.4730  149.5210 H   0  0  0  0  0  0  0  0  0  0  0  0
  146.5812  135.1978  151.5100 H   0  0  0  0  0  0  0  0  0  0  0  0
  1  2  1  0  0  0  0
  1 26  1  0  0  0  0
  1 27  1  0  0  0  0
  1 28  1  0  0  0  0
  2  7  1  0  0  0  0
  2  3  1  0  0  0  0
  2 29  1  0  0  0  0
  3  4  1  0  0  0  0
  3 30  1  0  0  0  0
  3 31  1  0  0  0  0
  4  5  1  0  0  0  0
  4 32  1  0  0  0  0
  4 33  1  0  0  0  0
  5  6  1  0  0  0  0
  5 34  1  0  0  0  0
  5 35  1  0  0  0  0
  6  7  1  0  0  0  0
  6 36  1  0  0  0  0
  6 37  1  0  0  0  0
  7 24  1  0  0  0  0
  7  8  1  0  0  0  0
  8  9  1  0  0  0  0
  9 10  2  0  0  0  0
  9 11  1  0  0  0  0
 11 12  1  0  0  0  0
 11 24  1  0  0  0  0
 12 13  1  0  0  0  0
 12 38  1  0  0  0  0
 12 39  1  0  0  0  0
 13 14  2  0  0  0  0
 13 15  1  0  0  0  0
 15 16  1  0  0  0  0
 15 40  1  0  0  0  0
 16 17  1  0  0  0  0
 16 41  1  0  0  0  0
 16 42  1  0  0  0  0
 17 18  1  0  0  0  0
 17 43  1  0  0  0  0
 17 44  1  0  0  0  0
 18 23  1  0  0  0  0
 18 19  2  0  0  0  0
 19 20  1  0  0  0  0
 19 45  1  0  0  0  0
 20 21  2  0  0  0  0
 20 46  1  0  0  0  0
 21 22  1  0  0  0  0
 21 47  1  0  0  0  0
 22 23  2  0  0  0  0
 23 48  1  0  0  0  0
 24 25  2  0  0  0  0
M  CHG  1   8  -1
M  END
> <s_m_source_file>
AV-unprocessed.smi

> <i_m_source_file_index>
837

> <i_lp_mmshare_version>
43012

> <i_f3d_flags>
0

> <s_epik_input>
W0NIMl0xW0NIMl1bQ0gyXVtDSDJdW0NAQEhdKFtDSDNdKVtDQEBdMTJbTkhdQyg9TylOKEMyPU8pW0NIMl1DKD1PKVtOSF1bQ0gyXVtDSDJdYzNbY0hdW2NIXVtjSF1uW2NIXTM=

> <s_epik_cmdline>
J2VwaWtfcHl0aG9uJywgJy1waCcsICc3LjAnLCAnLXRuJywgJzgnLCAnLW1hJywgJzIwMCcsICctbWV0YWxfYmluZGluZycsICctaW1hZScsICc8aW5maWxlLm1hZT4nLCAnLW9tYWUnLCAnPG91dGZpbGUubWFlPic=

> <r_lp_tautomer_probability>
1

> <r_epik_Ionization_Penalty>
6.03002

> <r_epik_Ionization_Penalty_Charging>
6.01728

> <r_epik_Ionization_Penalty_Neutral>
0.0127382

> <r_epik_State_Penalty>
6.02713

> <r_epik_Charging_Adjusted_Penalty>
12.0444

> <i_epik_Tot_Q>
-1

> <i_epik_Tot_abs_Q>
1

> <r_epik_Metal_State_Penalty>
1.99078

> <b_epik_Metal_Only>
1

> <s_lp_Force_Field>
OPLS_2005

> <r_lp_Energy>
20.4671

> <b_lp_Chiralities_Consistent>
1

> <s_lp_Variant>
AV-unprocessed.smi:837-9

> <Gold.Version>
5.8.1

> <Gold.Id.Protein>
6NUR|6NUR_protein|mol2

> <Gold.PLP.Fitness>
50.0808

> <Gold.PLP.PLP>
-39.5384

> <Gold.PLP.part.hbond>
-2.0000

> <Gold.PLP.part.metal>
0.0000

> <Gold.PLP.part.buried>
-5.2404

> <Gold.PLP.part.nonpolar>
-33.6706

> <Gold.PLP.part.repulsive>
1.1703

> <Gold.PLP.ligand.clash>
0.0000

> <Gold.PLP.ligand.torsion>
0.4640

> <Gold.PLP.Chemscore.Hbond>
1.8265

> <Gold.PLP.Chemscore.CHOScore>
1.9883

> <Gold.PLP.Chemscore.Metal>
0.0000

> <Gold.Chemscore.Hbonds>
donor molecule, donor type, donor heavy atom, donor atom, acceptor molecule, acceptor atom, score
      L1  H    15    40       P1  7948  0.70
      P1  H 10752 10763       L1    25  1.00
      L1  C    21    47       P1 10186  0.90
      L1  C    23    48       P1  7948  0.91

> <Gold.PLP.Chemscore.Internal.Correction>
0.0261

> <Gold.Rescore>
     Score         DG    S(hbond)    S(metal)    S(lipo)     H(rot)  DE(clash)    DE(int)     intcor
     13.97     -15.78       1.27        0.00      91.19       1.81       0.10       1.70       ----

> <Gold.Chemscore.Fitness>
13.9746

> <Gold.Chemscore.DG>
-15.7753

> <Gold.Chemscore.ZeroCoef>
-5.4800

> <Gold.Chemscore.Hbond>
1.2746

> <Gold.Chemscore.Metal>
0.0000

> <Gold.Chemscore.Lipo>
91.1901

> <Gold.Chemscore.Internal_Hbond>
0.0000

> <Gold.Chemscore.DEClash>
0.0959

> <Gold.Chemscore.DEInternal>
1.7048

> <Gold.Chemscore.Rot>
1.8090

> <Gold.Chemscore.Internal.Correction>
   9.000000E+99

> <Gold.Chemscore.Hbonds>
donor molecule, donor type, donor heavy atom, donor atom, acceptor molecule, acceptor atom, score
      L1  H    15    40       P1  7948  0.10
      P1  H 10752 10763       L1    25  0.74

> <Gold.Chemscore.Hbond.Weighted>
-4.2571

> <Gold.Chemscore.Metal.Weighted>
-0.0000

> <Gold.Chemscore.Lipo.Weighted>
-10.6692

> <Gold.Chemscore.Internal_Hbond.Weighted>
0.0000

> <Gold.Chemscore.DEClash.Weighted>
0.0959

> <Gold.Chemscore.DEInternal.Weighted>
1.7048

> <Gold.Chemscore.Rot.Weighted>
4.6310

> <Gold.Chemscore.Internal.Correction.Weighted>
   9.000000E+99

> <Gold.Protein.RotatedTorsions>
[ 6907 6896 6895 6894 ] final -110.70 input  -60.11 | X-H torsion
[ 7974 7965 7964 7962 ] final  102.18 input  175.53 | X-H torsion
[ 8008 7997 7996 7995 ] final -168.50 input   59.86 | X-H torsion
[ 10167 10162 10161 10158 ] final  -54.07 input  -65.29 | X-H torsion
[ 10718 10713 10712 10709 ] final   75.13 input   66.30 | X-H torsion
[ 10763 10752 10751 10750 ] final   37.02 input  -60.55 | X-H torsion
[ 11005 11000 10999 10996 ] final  -52.81 input  -57.11 | X-H torsion

> <Gold.Protein.ActiveResidues>
 VAL166  LYS551  ARG553  GLY616  TRP617  ASP618  TYR619  PRO620  LYS621  CYS622 
 ASP623  PHE694  ASN695  SER759  ASP760  ASP761  ALA762  ILE779  LEU786  VAL792 
 PHE793  MET794  SER795  GLU796  ALA797  LYS798  CYS799  TRP800  GLU811  SER814 

> <Gold.Protein.RotatedAtoms>
  150.7642  133.9343  159.3436 H   0  0  0  0  0  0  0  0  0  0  0  0  # atno 6907 bound_to 6896
  151.7244  135.0886  160.0299 H   0  0  0  0  0  0  0  0  0  0  0  0  # atno 6908 bound_to 6896
  152.3629  133.6282  159.6064 H   0  0  0  0  0  0  0  0  0  0  0  0  # atno 6909 bound_to 6896
  145.3625  139.2415  143.3499 H   0  0  0  0  0  0  0  0  0  0  0  0  # atno 7974 bound_to 7965
  155.8922  140.1027  157.1410 H   0  0  0  0  0  0  0  0  0  0  0  0  # atno 8008 bound_to 7997
  154.4016  140.1308  156.4394 H   0  0  0  0  0  0  0  0  0  0  0  0  # atno 8009 bound_to 7997
  155.7520  140.3465  155.5157 H   0  0  0  0  0  0  0  0  0  0  0  0  # atno 8010 bound_to 7997
  140.6451  143.2530  151.4882 H   0  0  0  0  0  0  0  0  0  0  0  0  # atno 10167 bound_to 10162
  157.6621  130.9711  150.1310 H   0  0  0  0  0  0  0  0  0  0  0  0  # atno 10718 bound_to 10713
  153.0054  135.6289  154.2078 H   0  0  0  0  0  0  0  0  0  0  0  0  # atno 10763 bound_to 10752
  154.1821  135.2813  155.3050 H   0  0  0  0  0  0  0  0  0  0  0  0  # atno 10764 bound_to 10752
  154.5826  135.5642  153.7260 H   0  0  0  0  0  0  0  0  0  0  0  0  # atno 10765 bound_to 10752
  141.0943  133.6627  156.4078 H   0  0  0  0  0  0  0  0  0  0  0  0  # atno 11005 bound_to 11000
  146.2921  140.4261  142.8735 LP  0  0  0  0  0  0  0  0  0  0  0  0  # atno 17320 bound_to 7965
  144.8636  140.7174  143.6092 LP  0  0  0  0  0  0  0  0  0  0  0  0  # atno 17321 bound_to 7965
  139.5661  144.2039  152.1767 LP  0  0  0  0  0  0  0  0  0  0  0  0  # atno 17342 bound_to 10162
  140.1321  144.5279  150.6796 LP  0  0  0  0  0  0  0  0  0  0  0  0  # atno 17343 bound_to 10162
  156.2156  130.3670  149.8617 LP  0  0  0  0  0  0  0  0  0  0  0  0  # atno 17370 bound_to 10713
  156.6483  130.8733  151.3527 LP  0  0  0  0  0  0  0  0  0  0  0  0  # atno 17371 bound_to 10713
  140.5177  134.6334  157.5307 LP  0  0  0  0  0  0  0  0  0  0  0  0  # atno 17394 bound_to 11000
  139.9776  134.7189  155.9920 LP  0  0  0  0  0  0  0  0  0  0  0  0  # atno 17395 bound_to 11000

$$$$
