AV-unprocessed.smi:2772|AV-procd|sdf|10664|dock4
  -GOLD-   2272015113D 1   1.00000     0.00000
 Structure written by MMmdl.
 55 57  0  0  0  0  0  0  0  0  3 V2000
  152.2798  145.0439  159.5582 C   0  0  0  0  0  0  0  0  0  0  0  0
  151.9625  143.7722  158.7996 C   0  0  0  0  0  0  0  0  0  0  0  0
  152.2718  142.5092  159.3446 C   0  0  0  0  0  0  0  0  0  0  0  0
  151.9591  141.3578  158.5966 C   0  0  0  0  0  0  0  0  0  0  0  0
  151.3555  141.5109  157.3248 C   0  0  0  0  0  0  0  0  0  0  0  0
  150.9762  140.4320  156.4803 N   0  0  0  0  0  0  0  0  0  0  0  0
  150.4131  139.2591  156.8172 C   0  0  0  0  0  0  0  0  0  0  0  0
  150.1409  138.8998  157.9625 O   0  0  0  0  0  0  0  0  0  0  0  0
  150.1949  138.4974  155.7353 N   0  0  0  0  0  0  0  0  0  0  0  0
  149.5973  137.1653  155.7548 C   0  0  2  0  0  0  0  0  0  0  0  0
  150.5351  136.1289  155.1169 C   0  0  0  0  0  0  0  0  0  0  0  0
  149.8698  134.7448  155.0670 C   0  0  0  0  0  0  0  0  0  0  0  0
  148.5813  134.7732  154.3158 N   0  3  1  0  0  0  0  0  0  0  0  0
  148.0170  133.3971  154.1138 C   0  0  2  0  0  0  0  0  0  0  0  0
  149.1480  132.3735  153.8526 C   0  0  0  0  0  0  0  0  0  0  0  0
  148.6051  130.9496  153.6422 C   0  0  0  0  0  0  0  0  0  0  0  0
  147.6325  130.9085  152.5252 N   0  3  1  0  0  0  0  0  0  0  0  0
  147.1759  129.5343  152.2242 C   0  0  0  0  0  0  0  0  0  0  0  0
  146.5040  131.8420  152.7508 C   0  0  0  0  0  0  0  0  0  0  0  0
  147.0038  133.2843  152.9460 C   0  0  0  0  0  0  0  0  0  0  0  0
  147.6463  135.7681  154.9190 C   0  0  0  0  0  0  0  0  0  0  0  0
  148.2696  137.1736  154.9866 C   0  0  0  0  0  0  0  0  0  0  0  0
  151.0792  142.8224  156.8833 C   0  0  0  0  0  0  0  0  0  0  0  0
  151.3761  143.9312  157.5937 N   0  0  0  0  0  0  0  0  0  0  0  0
  152.5154  144.8306  160.6011 H   0  0  0  0  0  0  0  0  0  0  0  0
  151.4301  145.7271  159.5364 H   0  0  0  0  0  0  0  0  0  0  0  0
  153.1370  145.5464  159.1094 H   0  0  0  0  0  0  0  0  0  0  0  0
  152.7343  142.4202  160.3165 H   0  0  0  0  0  0  0  0  0  0  0  0
  152.1762  140.3893  159.0187 H   0  0  0  0  0  0  0  0  0  0  0  0
  151.2079  140.5489  155.5046 H   0  0  0  0  0  0  0  0  0  0  0  0
  150.4543  138.8699  154.8334 H   0  0  0  0  0  0  0  0  0  0  0  0
  149.3956  136.8800  156.7896 H   0  0  0  0  0  0  0  0  0  0  0  0
  150.8083  136.4405  154.1074 H   0  0  0  0  0  0  0  0  0  0  0  0
  151.4656  136.0640  155.6823 H   0  0  0  0  0  0  0  0  0  0  0  0
  150.5729  134.0491  154.6131 H   0  0  0  0  0  0  0  0  0  0  0  0
  149.6903  134.3852  156.0817 H   0  0  0  0  0  0  0  0  0  0  0  0
  147.4889  133.1163  155.0270 H   0  0  0  0  0  0  0  0  0  0  0  0
  149.7206  132.6755  152.9741 H   0  0  0  0  0  0  0  0  0  0  0  0
  149.8561  132.3429  154.6791 H   0  0  0  0  0  0  0  0  0  0  0  0
  149.4336  130.2732  153.4279 H   0  0  0  0  0  0  0  0  0  0  0  0
  148.1300  130.5892  154.5564 H   0  0  0  0  0  0  0  0  0  0  0  0
  146.6371  129.1059  153.0705 H   0  0  0  0  0  0  0  0  0  0  0  0
  148.0238  128.8875  151.9953 H   0  0  0  0  0  0  0  0  0  0  0  0
  146.5124  129.5296  151.3588 H   0  0  0  0  0  0  0  0  0  0  0  0
  145.8252  131.8052  151.8976 H   0  0  0  0  0  0  0  0  0  0  0  0
  145.9325  131.5214  153.6237 H   0  0  0  0  0  0  0  0  0  0  0  0
  146.1293  133.9090  153.1296 H   0  0  0  0  0  0  0  0  0  0  0  0
  147.4592  133.6377  152.0195 H   0  0  0  0  0  0  0  0  0  0  0  0
  146.7383  135.8582  154.3245 H   0  0  0  0  0  0  0  0  0  0  0  0
  147.3509  135.4363  155.9158 H   0  0  0  0  0  0  0  0  0  0  0  0
  147.5695  137.8627  155.4606 H   0  0  0  0  0  0  0  0  0  0  0  0
  148.4301  137.5460  153.9735 H   0  0  0  0  0  0  0  0  0  0  0  0
  150.6082  142.9898  155.9256 H   0  0  0  0  0  0  0  0  0  0  0  0
  148.7915  135.1263  153.3930 H   0  0  0  0  0  0  0  0  0  0  0  0
  148.1198  131.2328  151.7017 H   0  0  0  0  0  0  0  0  0  0  0  0
  1  2  1  0  0  0  0
  1 25  1  0  0  0  0
  1 26  1  0  0  0  0
  1 27  1  0  0  0  0
  2 24  1  0  0  0  0
  2  3  2  0  0  0  0
  3  4  1  0  0  0  0
  3 28  1  0  0  0  0
  4  5  2  0  0  0  0
  4 29  1  0  0  0  0
  5  6  1  0  0  0  0
  5 23  1  0  0  0  0
  6  7  1  0  0  0  0
  6 30  1  0  0  0  0
  7  8  2  0  0  0  0
  7  9  1  0  0  0  0
  9 10  1  0  0  0  0
  9 31  1  0  0  0  0
 10 22  1  0  0  0  0
 10 11  1  0  0  0  0
 10 32  1  0  0  0  0
 11 12  1  0  0  0  0
 11 33  1  0  0  0  0
 11 34  1  0  0  0  0
 12 13  1  0  0  0  0
 12 35  1  0  0  0  0
 12 36  1  0  0  0  0
 13 14  1  0  0  0  0
 13 21  1  0  0  0  0
 13 54  1  0  0  0  0
 14 20  1  0  0  0  0
 14 15  1  0  0  0  0
 14 37  1  0  0  0  0
 15 16  1  0  0  0  0
 15 38  1  0  0  0  0
 15 39  1  0  0  0  0
 16 17  1  0  0  0  0
 16 40  1  0  0  0  0
 16 41  1  0  0  0  0
 17 18  1  0  0  0  0
 17 19  1  0  0  0  0
 17 55  1  0  0  0  0
 18 42  1  0  0  0  0
 18 43  1  0  0  0  0
 18 44  1  0  0  0  0
 19 20  1  0  0  0  0
 19 45  1  0  0  0  0
 19 46  1  0  0  0  0
 20 47  1  0  0  0  0
 20 48  1  0  0  0  0
 21 22  1  0  0  0  0
 21 49  1  0  0  0  0
 21 50  1  0  0  0  0
 22 51  1  0  0  0  0
 22 52  1  0  0  0  0
 23 24  2  0  0  0  0
 23 53  1  0  0  0  0
M  CHG  1  13   1
M  CHG  1  17   1
M  END
> <s_m_source_file>
AV-unprocessed.smi

> <i_m_source_file_index>
2772

> <i_lp_mmshare_version>
43012

> <i_f3d_flags>
0

> <s_epik_input>
W0NIM11jMVtjSF1bY0hdYyhbY0hdbjEpW05IXUMoPU8pW05IXVtDSF0yW0NIMl1bQ0gyXU4oW0NIMl1bQ0gyXTIpW0NIXTNbQ0gyXVtDSDJdTihbQ0gzXSlbQ0gyXVtDSDJdMw==

> <s_epik_cmdline>
J2VwaWtfcHl0aG9uJywgJy1waCcsICc3LjAnLCAnLXRuJywgJzgnLCAnLW1hJywgJzIwMCcsICctbWV0YWxfYmluZGluZycsICctaW1hZScsICc8aW5maWxlLm1hZT4nLCAnLW9tYWUnLCAnPG91dGZpbGUubWFlPic=

> <r_epik_Ionization_Penalty>
0.196786

> <r_epik_Ionization_Penalty_Charging>
0.180787

> <r_epik_Ionization_Penalty_Neutral>
0.0159988

> <r_epik_State_Penalty>
0.163322

> <r_epik_Charging_Adjusted_Penalty>
0.344109

> <i_epik_Tot_Q>
2

> <i_epik_Tot_abs_Q>
2

> <r_epik_Metal_State_Penalty>
0.163596

> <b_epik_Metal_Only>
0

> <s_lp_Force_Field>
OPLS_2005

> <r_lp_Energy>
43.2769

> <b_lp_Chiralities_Consistent>
1

> <s_lp_Variant>
AV-unprocessed.smi:2772-1

> <Gold.Version>
5.8.1

> <Gold.Id.Protein>
6NUR|6NUR_protein|mol2

> <Gold.PLP.Fitness>
46.9576

> <Gold.PLP.PLP>
-36.8646

> <Gold.PLP.part.hbond>
-2.0000

> <Gold.PLP.part.metal>
0.0000

> <Gold.PLP.part.buried>
-3.5262

> <Gold.PLP.part.nonpolar>
-31.7795

> <Gold.PLP.part.repulsive>
0.2740

> <Gold.PLP.ligand.clash>
0.0000

> <Gold.PLP.ligand.torsion>
0.6529

> <Gold.PLP.Chemscore.Hbond>
2.9760

> <Gold.PLP.Chemscore.CHOScore>
0.8126

> <Gold.PLP.Chemscore.Metal>
0.0000

> <Gold.Chemscore.Hbonds>
donor molecule, donor type, donor heavy atom, donor atom, acceptor molecule, acceptor atom, score
      L1  H    13    54       P1  7948  2.00
      L1  H    17    55       P1 10747  0.96
      L1  C    23    53       P1  8028  0.82

> <Gold.PLP.Chemscore.Internal.Correction>
0.0330

> <Gold.Rescore>
     Score         DG    S(hbond)    S(metal)    S(lipo)     H(rot)  DE(clash)    DE(int)     intcor
     20.22     -21.06       1.74        0.00     109.96       1.21       0.19       0.65       ----

> <Gold.Chemscore.Fitness>
20.2201

> <Gold.Chemscore.DG>
-21.0623

> <Gold.Chemscore.ZeroCoef>
-5.4800

> <Gold.Chemscore.Hbond>
1.7403

> <Gold.Chemscore.Metal>
0.0000

> <Gold.Chemscore.Lipo>
109.9593

> <Gold.Chemscore.Internal_Hbond>
0.0000

> <Gold.Chemscore.DEClash>
0.1909

> <Gold.Chemscore.DEInternal>
0.6513

> <Gold.Chemscore.Rot>
1.2092

> <Gold.Chemscore.Internal.Correction>
   9.000000E+99

> <Gold.Chemscore.Hbonds>
donor molecule, donor type, donor heavy atom, donor atom, acceptor molecule, acceptor atom, score
      L1  H    13    54       P1  7948  0.65
      L1  H    17    55       P1 10747  0.92

> <Gold.Chemscore.Hbond.Weighted>
-5.8126

> <Gold.Chemscore.Metal.Weighted>
-0.0000

> <Gold.Chemscore.Lipo.Weighted>
-12.8652

> <Gold.Chemscore.Internal_Hbond.Weighted>
0.0000

> <Gold.Chemscore.DEClash.Weighted>
0.1909

> <Gold.Chemscore.DEInternal.Weighted>
0.6513

> <Gold.Chemscore.Rot.Weighted>
3.0955

> <Gold.Chemscore.Internal.Correction.Weighted>
   9.000000E+99

> <Gold.Protein.RotatedTorsions>
[ 6907 6896 6895 6894 ] final    7.96 input  -60.11 | X-H torsion
[ 7974 7965 7964 7962 ] final  -78.96 input  175.53 | X-H torsion
[ 8008 7997 7996 7995 ] final -124.45 input   59.86 | X-H torsion
[ 10167 10162 10161 10158 ] final  -44.00 input  -65.29 | X-H torsion
[ 10718 10713 10712 10709 ] final   69.87 input   66.30 | X-H torsion
[ 10763 10752 10751 10750 ] final  -26.75 input  -60.55 | X-H torsion
[ 11005 11000 10999 10996 ] final   25.93 input  -57.11 | X-H torsion

> <Gold.Protein.ActiveResidues>
 VAL166  LYS551  ARG553  GLY616  TRP617  ASP618  TYR619  PRO620  LYS621  CYS622 
 ASP623  PHE694  ASN695  SER759  ASP760  ASP761  ALA762  ILE779  LEU786  VAL792 
 PHE793  MET794  SER795  GLU796  ALA797  LYS798  CYS799  TRP800  GLU811  SER814 

> <Gold.Protein.RotatedAtoms>
  151.6984  135.0934  160.0246 H   0  0  0  0  0  0  0  0  0  0  0  0  # atno 6907 bound_to 6896
  152.3736  133.6447  159.6114 H   0  0  0  0  0  0  0  0  0  0  0  0  # atno 6908 bound_to 6896
  150.7692  133.9147  159.3421 H   0  0  0  0  0  0  0  0  0  0  0  0  # atno 6909 bound_to 6896
  145.5795  140.9451  143.1351 H   0  0  0  0  0  0  0  0  0  0  0  0  # atno 7974 bound_to 7965
  155.1972  140.0415  157.2911 H   0  0  0  0  0  0  0  0  0  0  0  0  # atno 8008 bound_to 7997
  154.6099  140.2474  155.7654 H   0  0  0  0  0  0  0  0  0  0  0  0  # atno 8009 bound_to 7997
  156.2373  140.2917  156.0356 H   0  0  0  0  0  0  0  0  0  0  0  0  # atno 8010 bound_to 7997
  140.6913  143.2953  151.3433 H   0  0  0  0  0  0  0  0  0  0  0  0  # atno 10167 bound_to 10162
  157.6369  130.9448  150.0573 H   0  0  0  0  0  0  0  0  0  0  0  0  # atno 10718 bound_to 10713
  153.7210  135.6945  153.5013 H   0  0  0  0  0  0  0  0  0  0  0  0  # atno 10763 bound_to 10752
  153.2204  135.4372  155.0481 H   0  0  0  0  0  0  0  0  0  0  0  0  # atno 10764 bound_to 10752
  154.8284  135.3459  154.6743 H   0  0  0  0  0  0  0  0  0  0  0  0  # atno 10765 bound_to 10752
  140.3425  134.2317  155.7688 H   0  0  0  0  0  0  0  0  0  0  0  0  # atno 11005 bound_to 11000
  144.7400  139.7475  143.7314 LP  0  0  0  0  0  0  0  0  0  0  0  0  # atno 17320 bound_to 7965
  146.1726  139.4883  142.9917 LP  0  0  0  0  0  0  0  0  0  0  0  0  # atno 17321 bound_to 7965
  139.6319  144.0704  152.2483 LP  0  0  0  0  0  0  0  0  0  0  0  0  # atno 17342 bound_to 10162
  140.0182  144.6173  150.7589 LP  0  0  0  0  0  0  0  0  0  0  0  0  # atno 17343 bound_to 10162
  156.1616  130.3644  149.9291 LP  0  0  0  0  0  0  0  0  0  0  0  0  # atno 17370 bound_to 10713
  156.7287  130.9035  151.3624 LP  0  0  0  0  0  0  0  0  0  0  0  0  # atno 17371 bound_to 10713
  141.2034  133.7912  157.0339 LP  0  0  0  0  0  0  0  0  0  0  0  0  # atno 17394 bound_to 11000
  140.0769  134.9670  157.1560 LP  0  0  0  0  0  0  0  0  0  0  0  0  # atno 17395 bound_to 11000

$$$$
