AV-unprocessed.smi:171|AV-procd|sdf|1418|dock4
  -GOLD-   2262019183D 1   1.00000     0.00000
 Structure written by MMmdl.
 56 59  0  0  0  0  0  0  0  0  1 V2000
  147.2893  137.0346  163.1445 C   0  0  0  0  0  0  0  0  0  0  0  0
  147.0617  135.9262  162.1030 C   0  0  0  0  0  0  0  0  0  0  0  0
  146.9824  134.5570  162.7967 C   0  0  0  0  0  0  0  0  0  0  0  0
  148.1426  135.9171  160.9887 C   0  0  0  0  0  0  0  0  0  0  0  0
  147.6393  136.1196  159.5293 C   0  0  2  0  0  0  0  0  0  0  0  0
  146.5375  135.1127  159.1269 C   0  0  0  0  0  0  0  0  0  0  0  0
  145.5991  134.8955  159.8911 O   0  0  0  0  0  0  0  0  0  0  0  0
  146.6083  134.5098  157.9276 N   0  0  0  0  0  0  0  0  0  0  0  0
  147.6775  134.6913  156.9500 C   0  0  0  0  0  0  0  0  0  0  0  0
  148.4469  136.0020  157.1644 C   0  0  0  0  0  0  0  0  0  0  0  0
  148.7620  136.1639  158.5772 N   0  0  0  0  0  0  0  0  0  0  0  0
  149.7083  137.1039  158.7960 C   0  0  0  0  0  0  0  0  0  0  0  0
  150.6632  136.9047  159.7412 N   0  0  0  0  0  0  0  0  0  0  0  0
  151.6092  137.8292  159.9344 C   0  0  0  0  0  0  0  0  0  0  0  0
  151.7809  138.9938  159.3038 N   0  0  0  0  0  0  0  0  0  0  0  0
  150.8185  139.1926  158.3574 C   0  0  0  0  0  0  0  0  0  0  0  0
  149.7473  138.3098  158.0505 C   0  0  0  0  0  0  0  0  0  0  0  0
  148.9601  138.8423  157.0384 N   0  0  0  0  0  0  0  0  0  0  0  0
  149.5411  139.9752  156.7528 C   0  0  0  0  0  0  0  0  0  0  0  0
  150.6702  140.2591  157.4882 N   0  0  0  0  0  0  0  0  0  0  0  0
  151.5155  141.4349  157.3627 C   0  0  0  0  0  0  0  0  0  0  0  0
  151.5277  142.3159  158.6348 C   0  0  1  0  0  0  0  0  0  0  0  0
  150.1869  142.6016  158.9994 O   0  0  0  0  0  0  0  0  0  0  0  0
  152.2255  141.6798  159.8279 C   0  0  0  0  0  0  0  0  0  0  0  0
  152.6147  142.8900  160.6683 C   0  0  0  0  0  0  0  0  0  0  0  0
  152.9330  143.9064  159.7258 O   0  0  0  0  0  0  0  0  0  0  0  0
  152.3376  143.6182  158.4613 C   0  0  2  0  0  0  0  0  0  0  0  0
  151.5733  144.8363  157.9193 C   0  0  0  0  0  0  0  0  0  0  0  0
  148.2685  136.9432  163.6155 H   0  0  0  0  0  0  0  0  0  0  0  0
  146.5380  136.9896  163.9333 H   0  0  0  0  0  0  0  0  0  0  0  0
  147.2227  138.0267  162.7006 H   0  0  0  0  0  0  0  0  0  0  0  0
  146.0835  136.0989  161.6556 H   0  0  0  0  0  0  0  0  0  0  0  0
  147.9276  134.2993  163.2754 H   0  0  0  0  0  0  0  0  0  0  0  0
  146.7417  133.7677  162.0833 H   0  0  0  0  0  0  0  0  0  0  0  0
  146.2065  134.5482  163.5628 H   0  0  0  0  0  0  0  0  0  0  0  0
  148.9162  136.6489  161.2254 H   0  0  0  0  0  0  0  0  0  0  0  0
  148.6715  134.9638  161.0218 H   0  0  0  0  0  0  0  0  0  0  0  0
  147.1399  137.0891  159.4902 H   0  0  0  0  0  0  0  0  0  0  0  0
  145.8713  133.8648  157.6818 H   0  0  0  0  0  0  0  0  0  0  0  0
  148.3596  133.8455  157.0436 H   0  0  0  0  0  0  0  0  0  0  0  0
  147.2620  134.6532  155.9429 H   0  0  0  0  0  0  0  0  0  0  0  0
  149.3543  136.0008  156.5576 H   0  0  0  0  0  0  0  0  0  0  0  0
  147.8424  136.8487  156.8347 H   0  0  0  0  0  0  0  0  0  0  0  0
  152.3362  137.6010  160.6999 H   0  0  0  0  0  0  0  0  0  0  0  0
  149.1651  140.6349  155.9842 H   0  0  0  0  0  0  0  0  0  0  0  0
  152.5253  141.0954  157.1287 H   0  0  0  0  0  0  0  0  0  0  0  0
  151.1816  142.0147  156.5012 H   0  0  0  0  0  0  0  0  0  0  0  0
  150.0168  142.2105  159.8428 H   0  0  0  0  0  0  0  0  0  0  0  0
  151.6073  140.9623  160.3698 H   0  0  0  0  0  0  0  0  0  0  0  0
  153.1301  141.1644  159.5023 H   0  0  0  0  0  0  0  0  0  0  0  0
  151.7708  143.2227  161.2741 H   0  0  0  0  0  0  0  0  0  0  0  0
  153.4521  142.6867  161.3361 H   0  0  0  0  0  0  0  0  0  0  0  0
  153.1739  143.4178  157.7904 H   0  0  0  0  0  0  0  0  0  0  0  0
  151.1135  144.6131  156.9563 H   0  0  0  0  0  0  0  0  0  0  0  0
  152.2474  145.6810  157.7765 H   0  0  0  0  0  0  0  0  0  0  0  0
  150.7873  145.1576  158.6029 H   0  0  0  0  0  0  0  0  0  0  0  0
  1  2  1  0  0  0  0
  1 29  1  0  0  0  0
  1 30  1  0  0  0  0
  1 31  1  0  0  0  0
  2  3  1  0  0  0  0
  2  4  1  0  0  0  0
  2 32  1  0  0  0  0
  3 33  1  0  0  0  0
  3 34  1  0  0  0  0
  3 35  1  0  0  0  0
  4  5  1  0  0  0  0
  4 36  1  0  0  0  0
  4 37  1  0  0  0  0
  5 11  1  0  0  0  0
  5  6  1  0  0  0  0
  5 38  1  0  0  0  0
  6  7  2  0  0  0  0
  6  8  1  0  0  0  0
  8  9  1  0  0  0  0
  8 39  1  0  0  0  0
  9 10  1  0  0  0  0
  9 40  1  0  0  0  0
  9 41  1  0  0  0  0
 10 11  1  0  0  0  0
 10 42  1  0  0  0  0
 10 43  1  0  0  0  0
 11 12  1  0  0  0  0
 12 17  1  0  0  0  0
 12 13  2  0  0  0  0
 13 14  1  0  0  0  0
 14 15  2  0  0  0  0
 14 44  1  0  0  0  0
 15 16  1  0  0  0  0
 16 20  1  0  0  0  0
 16 17  2  0  0  0  0
 17 18  1  0  0  0  0
 18 19  2  0  0  0  0
 19 20  1  0  0  0  0
 19 45  1  0  0  0  0
 20 21  1  0  0  0  0
 21 22  1  0  0  0  0
 21 46  1  0  0  0  0
 21 47  1  0  0  0  0
 22 27  1  0  0  0  0
 22 23  1  0  0  0  0
 22 24  1  0  0  0  0
 23 48  1  0  0  0  0
 24 25  1  0  0  0  0
 24 49  1  0  0  0  0
 24 50  1  0  0  0  0
 25 26  1  0  0  0  0
 25 51  1  0  0  0  0
 25 52  1  0  0  0  0
 26 27  1  0  0  0  0
 27 28  1  0  0  0  0
 27 53  1  0  0  0  0
 28 54  1  0  0  0  0
 28 55  1  0  0  0  0
 28 56  1  0  0  0  0
M  END
> <s_m_source_file>
AV-unprocessed.smi

> <i_m_source_file_index>
171

> <i_lp_mmshare_version>
43012

> <i_f3d_flags>
0

> <s_epik_input>
W0NIM11bQ0hdKFtDSDNdKVtDSDJdW0NAQEhdMUMoPU8pW05IXVtDSDJdW0NIMl1OMWMobltjSF1uMiljKGMyMyluW2NIXW4zW0NIMl1bQ0BAXTQoW09IXSlbQ0gyXVtDSDJdT1tDQEhdNFtDSDNd

> <s_epik_cmdline>
J2VwaWtfcHl0aG9uJywgJy1waCcsICc3LjAnLCAnLXRuJywgJzgnLCAnLW1hJywgJzIwMCcsICctbWV0YWxfYmluZGluZycsICctaW1hZScsICc8aW5maWxlLm1hZT4nLCAnLW9tYWUnLCAnPG91dGZpbGUubWFlPic=

> <r_lp_tautomer_probability>
1

> <r_epik_Ionization_Penalty>
0.000670584

> <r_epik_Ionization_Penalty_Charging>
0

> <r_epik_Ionization_Penalty_Neutral>
0.000670584

> <r_epik_State_Penalty>
0.000304767

> <r_epik_Charging_Adjusted_Penalty>
0.000304767

> <i_epik_Tot_Q>
0

> <i_epik_Tot_abs_Q>
0

> <r_epik_Metal_State_Penalty>
-0

> <b_epik_Metal_Only>
0

> <s_lp_Force_Field>
OPLS_2005

> <r_lp_Energy>
41.3949

> <b_lp_Chiralities_Consistent>
1

> <s_lp_Variant>
AV-unprocessed.smi:171-5

> <Gold.Version>
5.8.1

> <Gold.Id.Protein>
6NUR|6NUR_protein|mol2

> <Gold.PLP.Fitness>
45.8976

> <Gold.PLP.PLP>
-45.2016

> <Gold.PLP.part.hbond>
-2.0000

> <Gold.PLP.part.metal>
0.0000

> <Gold.PLP.part.buried>
-5.6276

> <Gold.PLP.part.nonpolar>
-36.3124

> <Gold.PLP.part.repulsive>
0.0000

> <Gold.PLP.ligand.clash>
0.0000

> <Gold.PLP.ligand.torsion>
1.3696

> <Gold.PLP.Chemscore.Hbond>
1.0000

> <Gold.PLP.Chemscore.CHOScore>
0.0000

> <Gold.PLP.Chemscore.Metal>
0.0000

> <Gold.Chemscore.Hbonds>
donor molecule, donor type, donor heavy atom, donor atom, acceptor molecule, acceptor atom, score
      P1  H  6896  6908       L1    13  0.99

> <Gold.PLP.Chemscore.Internal.Correction>
0.4351

> <Gold.Rescore>
     Score         DG    S(hbond)    S(metal)    S(lipo)     H(rot)  DE(clash)    DE(int)     intcor
     10.24     -14.18       0.90        0.00     105.70       2.61       0.06       3.87       ----

> <Gold.Chemscore.Fitness>
10.2426

> <Gold.Chemscore.DG>
-14.1774

> <Gold.Chemscore.ZeroCoef>
-5.4800

> <Gold.Chemscore.Hbond>
0.8998

> <Gold.Chemscore.Metal>
0.0000

> <Gold.Chemscore.Lipo>
105.7001

> <Gold.Chemscore.Internal_Hbond>
0.0000

> <Gold.Chemscore.DEClash>
0.0609

> <Gold.Chemscore.DEInternal>
3.8740

> <Gold.Chemscore.Rot>
2.6074

> <Gold.Chemscore.Internal.Correction>
   9.000000E+99

> <Gold.Chemscore.Hbonds>
donor molecule, donor type, donor heavy atom, donor atom, acceptor molecule, acceptor atom, score
      P1  H  6896  6908       L1    13  0.46

> <Gold.Chemscore.Hbond.Weighted>
-3.0053

> <Gold.Chemscore.Metal.Weighted>
-0.0000

> <Gold.Chemscore.Lipo.Weighted>
-12.3669

> <Gold.Chemscore.Internal_Hbond.Weighted>
0.0000

> <Gold.Chemscore.DEClash.Weighted>
0.0609

> <Gold.Chemscore.DEInternal.Weighted>
3.8740

> <Gold.Chemscore.Rot.Weighted>
6.6748

> <Gold.Chemscore.Internal.Correction.Weighted>
   9.000000E+99

> <Gold.Protein.RotatedTorsions>
[ 6907 6896 6895 6894 ] final -163.24 input  -60.11 | X-H torsion
[ 7974 7965 7964 7962 ] final  130.93 input  175.53 | X-H torsion
[ 8008 7997 7996 7995 ] final  -53.51 input   59.86 | X-H torsion
[ 10167 10162 10161 10158 ] final  167.95 input  -65.29 | X-H torsion
[ 10718 10713 10712 10709 ] final   75.21 input   66.30 | X-H torsion
[ 10763 10752 10751 10750 ] final  -72.25 input  -60.55 | X-H torsion
[ 11005 11000 10999 10996 ] final    5.37 input  -57.11 | X-H torsion

> <Gold.Protein.ActiveResidues>
 VAL166  LYS551  ARG553  GLY616  TRP617  ASP618  TYR619  PRO620  LYS621  CYS622 
 ASP623  PHE694  ASN695  SER759  ASP760  ASP761  ALA762  ILE779  LEU786  VAL792 
 PHE793  MET794  SER795  GLU796  ALA797  LYS798  CYS799  TRP800  GLU811  SER814 

> <Gold.Protein.RotatedAtoms>
  151.3930  133.3782  159.2722 H   0  0  0  0  0  0  0  0  0  0  0  0  # atno 6907 bound_to 6896
  150.9491  134.8894  159.7671 H   0  0  0  0  0  0  0  0  0  0  0  0  # atno 6908 bound_to 6896
  152.5104  134.3884  159.9428 H   0  0  0  0  0  0  0  0  0  0  0  0  # atno 6909 bound_to 6896
  145.0127  139.4205  143.5237 H   0  0  0  0  0  0  0  0  0  0  0  0  # atno 7974 bound_to 7965
  154.4135  140.1198  156.5166 H   0  0  0  0  0  0  0  0  0  0  0  0  # atno 8008 bound_to 7997
  155.6745  140.3496  155.4812 H   0  0  0  0  0  0  0  0  0  0  0  0  # atno 8009 bound_to 7997
  155.9604  140.1122  157.0890 H   0  0  0  0  0  0  0  0  0  0  0  0  # atno 8010 bound_to 7997
  139.4956  144.3867  151.9562 H   0  0  0  0  0  0  0  0  0  0  0  0  # atno 10167 bound_to 10162
  157.6625  130.9715  150.1321 H   0  0  0  0  0  0  0  0  0  0  0  0  # atno 10718 bound_to 10713
  154.4430  135.5936  153.6142 H   0  0  0  0  0  0  0  0  0  0  0  0  # atno 10763 bound_to 10752
  152.9807  135.6002  154.3698 H   0  0  0  0  0  0  0  0  0  0  0  0  # atno 10764 bound_to 10752
  154.3551  135.2841  155.2330 H   0  0  0  0  0  0  0  0  0  0  0  0  # atno 10765 bound_to 10752
  140.5715  134.0098  155.8010 H   0  0  0  0  0  0  0  0  0  0  0  0  # atno 11005 bound_to 11000
  146.3472  139.9580  142.8721 LP  0  0  0  0  0  0  0  0  0  0  0  0  # atno 17320 bound_to 7965
  145.2002  140.9851  143.4160 LP  0  0  0  0  0  0  0  0  0  0  0  0  # atno 17321 bound_to 7965
  140.3304  144.3323  150.5988 LP  0  0  0  0  0  0  0  0  0  0  0  0  # atno 17342 bound_to 10162
  140.5649  143.2187  151.7700 LP  0  0  0  0  0  0  0  0  0  0  0  0  # atno 17343 bound_to 10162
  156.2165  130.3670  149.8607 LP  0  0  0  0  0  0  0  0  0  0  0  0  # atno 17370 bound_to 10713
  156.6471  130.8728  151.3524 LP  0  0  0  0  0  0  0  0  0  0  0  0  # atno 17371 bound_to 10713
  141.1053  133.9703  157.3007 LP  0  0  0  0  0  0  0  0  0  0  0  0  # atno 17394 bound_to 11000
  139.9360  135.0196  156.8555 LP  0  0  0  0  0  0  0  0  0  0  0  0  # atno 17395 bound_to 11000

$$$$
