AV-unprocessed.smi:767|AV-procd|sdf|3668|dock9
  -GOLD-   22720 1 83D 1   1.00000     0.00000
 Structure written by MMmdl.
 48 50  0  0  0  0  0  0  0  0  2 V2000
  145.9917  129.8109  151.3768 C   0  0  0  0  0  0  0  0  0  0  0  0
  145.6412  131.2780  151.2478 C   0  0  0  0  0  0  0  0  0  0  0  0
  144.3066  131.7370  151.2607 C   0  0  0  0  0  0  0  0  0  0  0  0
  144.0524  133.1178  151.1287 C   0  0  0  0  0  0  0  0  0  0  0  0
  145.1367  134.0120  150.9862 C   0  0  0  0  0  0  0  0  0  0  0  0
  144.8970  135.5000  150.7961 C   0  0  0  0  0  0  0  0  0  0  0  0
  144.9420  136.3060  152.1100 C   0  0  0  0  0  0  0  0  0  0  0  0
  146.2646  136.8667  152.3789 N   0  0  0  0  0  0  0  0  0  0  0  0
  146.5684  137.6862  153.3960 C   0  0  0  0  0  0  0  0  0  0  0  0
  145.7553  138.0811  154.2323 O   0  0  0  0  0  0  0  0  0  0  0  0
  147.8680  138.0084  153.4066 N   0  0  0  0  0  0  0  0  0  0  0  0
  148.4944  138.8394  154.4289 C   0  0  1  0  0  0  0  0  0  0  0  0
  149.8708  139.3696  153.9986 C   0  0  2  0  0  0  0  0  0  0  0  0
  151.1077  138.9154  154.7242 C   0  0  0  0  0  0  0  0  0  0  0  0
  151.3151  140.0166  155.7681 C   0  0  0  0  0  0  0  0  0  0  0  0
  150.0353  140.6303  155.9065 O   0  0  0  0  0  0  0  0  0  0  0  0
  149.4490  140.6979  154.6086 C   0  0  2  0  0  0  0  0  0  0  0  0
  147.9633  140.2934  154.4986 C   0  0  0  0  0  0  0  0  0  0  0  0
  147.2491  140.8480  153.2576 C   0  0  0  0  0  0  0  0  0  0  0  0
  147.0834  140.6335  155.7024 C   0  0  0  0  0  0  0  0  0  0  0  0
  146.4504  133.4958  150.9907 C   0  0  0  0  0  0  0  0  0  0  0  0
  146.6520  132.1661  151.1173 N   0  3  0  0  0  0  0  0  0  0  0  0
  145.1262  129.1829  151.1630 H   0  0  0  0  0  0  0  0  0  0  0  0
  146.3329  129.5915  152.3888 H   0  0  0  0  0  0  0  0  0  0  0  0
  146.7853  129.5413  150.6790 H   0  0  0  0  0  0  0  0  0  0  0  0
  143.4866  131.0416  151.3642 H   0  0  0  0  0  0  0  0  0  0  0  0
  143.0355  133.4820  151.1226 H   0  0  0  0  0  0  0  0  0  0  0  0
  145.6358  135.8962  150.0982 H   0  0  0  0  0  0  0  0  0  0  0  0
  143.9266  135.6367  150.3175 H   0  0  0  0  0  0  0  0  0  0  0  0
  144.2326  137.1318  152.0537 H   0  0  0  0  0  0  0  0  0  0  0  0
  144.6148  135.6850  152.9457 H   0  0  0  0  0  0  0  0  0  0  0  0
  147.0057  136.6034  151.7457 H   0  0  0  0  0  0  0  0  0  0  0  0
  148.4650  137.6426  152.6793 H   0  0  0  0  0  0  0  0  0  0  0  0
  148.5349  138.3673  155.4135 H   0  0  0  0  0  0  0  0  0  0  0  0
  149.9766  139.4407  152.9145 H   0  0  0  0  0  0  0  0  0  0  0  0
  150.9457  137.9496  155.2041 H   0  0  0  0  0  0  0  0  0  0  0  0
  151.9708  138.8216  154.0646 H   0  0  0  0  0  0  0  0  0  0  0  0
  151.6797  139.6300  156.7200 H   0  0  0  0  0  0  0  0  0  0  0  0
  152.0267  140.7595  155.4051 H   0  0  0  0  0  0  0  0  0  0  0  0
  149.7568  141.5720  154.0326 H   0  0  0  0  0  0  0  0  0  0  0  0
  147.1194  141.9286  153.3237 H   0  0  0  0  0  0  0  0  0  0  0  0
  146.2592  140.4083  153.1310 H   0  0  0  0  0  0  0  0  0  0  0  0
  147.8111  140.6506  152.3445 H   0  0  0  0  0  0  0  0  0  0  0  0
  146.9705  141.7113  155.8236 H   0  0  0  0  0  0  0  0  0  0  0  0
  147.5043  140.2468  156.6308 H   0  0  0  0  0  0  0  0  0  0  0  0
  146.0858  140.2050  155.6018 H   0  0  0  0  0  0  0  0  0  0  0  0
  147.3390  134.0995  150.8786 H   0  0  0  0  0  0  0  0  0  0  0  0
  147.6101  131.8159  151.1069 H   0  0  0  0  0  0  0  0  0  0  0  0
  1  2  1  0  0  0  0
  1 23  1  0  0  0  0
  1 24  1  0  0  0  0
  1 25  1  0  0  0  0
  2 22  1  0  0  0  0
  2  3  2  0  0  0  0
  3  4  1  0  0  0  0
  3 26  1  0  0  0  0
  4  5  2  0  0  0  0
  4 27  1  0  0  0  0
  5  6  1  0  0  0  0
  5 21  1  0  0  0  0
  6  7  1  0  0  0  0
  6 28  1  0  0  0  0
  6 29  1  0  0  0  0
  7  8  1  0  0  0  0
  7 30  1  0  0  0  0
  7 31  1  0  0  0  0
  8  9  1  0  0  0  0
  8 32  1  0  0  0  0
  9 10  2  0  0  0  0
  9 11  1  0  0  0  0
 11 12  1  0  0  0  0
 11 33  1  0  0  0  0
 12 18  1  0  0  0  0
 12 13  1  0  0  0  0
 12 34  1  0  0  0  0
 13 17  1  0  0  0  0
 13 14  1  0  0  0  0
 13 35  1  0  0  0  0
 14 15  1  0  0  0  0
 14 36  1  0  0  0  0
 14 37  1  0  0  0  0
 15 16  1  0  0  0  0
 15 38  1  0  0  0  0
 15 39  1  0  0  0  0
 16 17  1  0  0  0  0
 17 18  1  0  0  0  0
 17 40  1  0  0  0  0
 18 19  1  0  0  0  0
 18 20  1  0  0  0  0
 19 41  1  0  0  0  0
 19 42  1  0  0  0  0
 19 43  1  0  0  0  0
 20 44  1  0  0  0  0
 20 45  1  0  0  0  0
 20 46  1  0  0  0  0
 21 22  2  0  0  0  0
 21 47  1  0  0  0  0
 22 48  1  0  0  0  0
M  CHG  1  22   1
M  END
> <s_m_source_file>
AV-unprocessed.smi

> <i_m_source_file_index>
767

> <i_lp_mmshare_version>
43012

> <i_f3d_flags>
0

> <s_epik_input>
W0NIM11jMVtjSF1bY0hdYyhbY0hdbjEpW0NIMl1bQ0gyXVtOSF1DKD1PKVtOSF1bQ0BIXTJDKFtDSDNdKShbQ0gzXSlbQ0BIXShbQ0BASF0yMylPW0NIMl1bQ0gyXTM=

> <s_epik_cmdline>
J2VwaWtfcHl0aG9uJywgJy1waCcsICc3LjAnLCAnLXRuJywgJzgnLCAnLW1hJywgJzIwMCcsICctbWV0YWxfYmluZGluZycsICctaW1hZScsICc8aW5maWxlLm1hZT4nLCAnLW9tYWUnLCAnPG91dGZpbGUubWFlPic=

> <r_epik_Ionization_Penalty>
1.41853

> <r_epik_Ionization_Penalty_Charging>
1.41848

> <r_epik_Ionization_Penalty_Neutral>
5.17407e-05

> <r_epik_State_Penalty>
1.50205

> <r_epik_Charging_Adjusted_Penalty>
2.92053

> <i_epik_Tot_Q>
1

> <i_epik_Tot_abs_Q>
1

> <r_epik_Metal_State_Penalty>
1.5544

> <b_epik_Metal_Only>
0

> <s_lp_Force_Field>
OPLS_2005

> <r_lp_Energy>
39.2779

> <b_lp_Chiralities_Consistent>
1

> <s_lp_Variant>
AV-unprocessed.smi:767-12

> <Gold.Version>
5.8.1

> <Gold.Id.Protein>
6NUR|6NUR_protein|mol2

> <Gold.PLP.Fitness>
47.5316

> <Gold.PLP.PLP>
-40.8913

> <Gold.PLP.part.hbond>
-3.0000

> <Gold.PLP.part.metal>
0.0000

> <Gold.PLP.part.buried>
-4.4886

> <Gold.PLP.part.nonpolar>
-34.2224

> <Gold.PLP.part.repulsive>
0.2796

> <Gold.PLP.ligand.clash>
0.0000

> <Gold.PLP.ligand.torsion>
0.7056

> <Gold.PLP.Chemscore.Hbond>
2.6240

> <Gold.PLP.Chemscore.CHOScore>
0.0000

> <Gold.PLP.Chemscore.Metal>
0.0000

> <Gold.Chemscore.Hbonds>
donor molecule, donor type, donor heavy atom, donor atom, acceptor molecule, acceptor atom, score
      L1  H     8    32       P1  7948  0.77
      L1  H    11    33       P1  7948  0.93
      L1  H    22    48       P1 10747  1.00

> <Gold.PLP.Chemscore.Internal.Correction>
0.1796

> <Gold.Rescore>
     Score         DG    S(hbond)    S(metal)    S(lipo)     H(rot)  DE(clash)    DE(int)     intcor
     22.52     -23.27       2.76        0.00     106.74       1.52       0.03       0.72       ----

> <Gold.Chemscore.Fitness>
22.5239

> <Gold.Chemscore.DG>
-23.2729

> <Gold.Chemscore.ZeroCoef>
-5.4800

> <Gold.Chemscore.Hbond>
2.7556

> <Gold.Chemscore.Metal>
0.0000

> <Gold.Chemscore.Lipo>
106.7426

> <Gold.Chemscore.Internal_Hbond>
0.0000

> <Gold.Chemscore.DEClash>
0.0322

> <Gold.Chemscore.DEInternal>
0.7168

> <Gold.Chemscore.Rot>
1.5233

> <Gold.Chemscore.Internal.Correction>
   9.000000E+99

> <Gold.Chemscore.Hbonds>
donor molecule, donor type, donor heavy atom, donor atom, acceptor molecule, acceptor atom, score
      L1  H     8    32       P1  7948  0.77
      L1  H    11    33       P1  7948  0.90
      L1  H    22    48       P1 10747  0.94

> <Gold.Chemscore.Hbond.Weighted>
-9.2036

> <Gold.Chemscore.Metal.Weighted>
-0.0000

> <Gold.Chemscore.Lipo.Weighted>
-12.4889

> <Gold.Chemscore.Internal_Hbond.Weighted>
0.0000

> <Gold.Chemscore.DEClash.Weighted>
0.0322

> <Gold.Chemscore.DEInternal.Weighted>
0.7168

> <Gold.Chemscore.Rot.Weighted>
3.8995

> <Gold.Chemscore.Internal.Correction.Weighted>
   9.000000E+99

> <Gold.Protein.RotatedTorsions>
[ 6907 6896 6895 6894 ] final   78.99 input  -60.11 | X-H torsion
[ 7974 7965 7964 7962 ] final  137.21 input  175.53 | X-H torsion
[ 8008 7997 7996 7995 ] final    5.45 input   59.86 | X-H torsion
[ 10167 10162 10161 10158 ] final  114.86 input  -65.29 | X-H torsion
[ 10718 10713 10712 10709 ] final   18.18 input   66.30 | X-H torsion
[ 10763 10752 10751 10750 ] final   98.97 input  -60.55 | X-H torsion
[ 11005 11000 10999 10996 ] final   94.07 input  -57.11 | X-H torsion

> <Gold.Protein.ActiveResidues>
 VAL166  LYS551  ARG553  GLY616  TRP617  ASP618  TYR619  PRO620  LYS621  CYS622 
 ASP623  PHE694  ASN695  SER759  ASP760  ASP761  ALA762  ILE779  LEU786  VAL792 
 PHE793  MET794  SER795  GLU796  ALA797  LYS798  CYS799  TRP800  GLU811  SER814 

> <Gold.Protein.RotatedAtoms>
  152.5181  134.3579  159.9274 H   0  0  0  0  0  0  0  0  0  0  0  0  # atno 6907 bound_to 6896
  151.3531  133.3911  159.2690 H   0  0  0  0  0  0  0  0  0  0  0  0  # atno 6908 bound_to 6896
  150.9711  134.9103  159.7847 H   0  0  0  0  0  0  0  0  0  0  0  0  # atno 6909 bound_to 6896
  144.9490  139.4841  143.5535 H   0  0  0  0  0  0  0  0  0  0  0  0  # atno 7974 bound_to 7965
  154.7285  140.2726  155.6477 H   0  0  0  0  0  0  0  0  0  0  0  0  # atno 8008 bound_to 7997
  156.2843  140.2720  156.1903 H   0  0  0  0  0  0  0  0  0  0  0  0  # atno 8009 bound_to 7997
  155.0413  140.0371  157.2500 H   0  0  0  0  0  0  0  0  0  0  0  0  # atno 8010 bound_to 7997
  139.6358  144.7119  151.2337 H   0  0  0  0  0  0  0  0  0  0  0  0  # atno 10167 bound_to 10162
  157.0926  130.6434  149.5852 H   0  0  0  0  0  0  0  0  0  0  0  0  # atno 10718 bound_to 10713
  153.2957  135.4129  155.1207 H   0  0  0  0  0  0  0  0  0  0  0  0  # atno 10763 bound_to 10752
  154.8534  135.3529  154.5921 H   0  0  0  0  0  0  0  0  0  0  0  0  # atno 10764 bound_to 10752
  153.6345  135.7059  153.5322 H   0  0  0  0  0  0  0  0  0  0  0  0  # atno 10765 bound_to 10752
  139.8802  134.8825  156.3810 H   0  0  0  0  0  0  0  0  0  0  0  0  # atno 11005 bound_to 11000
  146.3314  139.8562  142.8864 LP  0  0  0  0  0  0  0  0  0  0  0  0  # atno 17320 bound_to 7965
  145.2874  141.0157  143.3683 LP  0  0  0  0  0  0  0  0  0  0  0  0  # atno 17321 bound_to 7965
  140.7464  143.6398  150.8345 LP  0  0  0  0  0  0  0  0  0  0  0  0  # atno 17342 bound_to 10162
  140.0029  143.5724  152.2868 LP  0  0  0  0  0  0  0  0  0  0  0  0  # atno 17343 bound_to 10162
  155.9894  130.4941  150.7212 LP  0  0  0  0  0  0  0  0  0  0  0  0  # atno 17370 bound_to 10713
  157.4708  131.0893  151.0644 LP  0  0  0  0  0  0  0  0  0  0  0  0  # atno 17371 bound_to 10713
  140.9399  133.7522  156.0133 LP  0  0  0  0  0  0  0  0  0  0  0  0  # atno 17394 bound_to 11000
  140.8232  134.3265  157.5374 LP  0  0  0  0  0  0  0  0  0  0  0  0  # atno 17395 bound_to 11000

$$$$
