AV-unprocessed.smi:1999|AV-procd|sdf|8093|dock10
  -GOLD-   2272010313D 1   1.00000     0.00000
 Structure written by MMmdl.
 38 39  0  0  0  0  0  0  0  0  1 V2000
  146.0862  129.9367  153.1923 C   0  0  0  0  0  0  0  0  0  0  0  0
  146.9271  131.0779  153.6523 C   0  0  0  0  0  0  0  0  0  0  0  0
  147.5822  131.0679  154.8193 N   0  0  0  0  0  0  0  0  0  0  0  0
  148.3002  132.2370  155.0298 N   0  0  0  0  0  0  0  0  0  0  0  0
  148.1663  133.0960  154.0100 C   0  0  0  0  0  0  0  0  0  0  0  0
  148.7915  134.3702  153.9637 N   0  0  0  0  0  0  0  0  0  0  0  0
  149.2749  135.0995  154.9849 C   0  0  0  0  0  0  0  0  0  0  0  0
  149.2621  134.7627  156.1692 O   0  0  0  0  0  0  0  0  0  0  0  0
  149.7864  136.2607  154.5501 N   0  0  0  0  0  0  0  0  0  0  0  0
  150.3935  137.2894  155.3902 C   0  0  1  0  0  0  0  0  0  0  0  0
  151.2620  136.6260  156.4730 C   0  0  0  0  0  0  0  0  0  0  0  0
  151.2069  138.2423  154.4901 C   0  0  0  0  0  0  0  0  0  0  0  0
  150.9063  139.6674  154.6336 N   0  0  0  0  0  0  0  0  0  0  0  0
  151.1209  140.1581  155.9939 C   0  0  0  0  0  0  0  0  0  0  0  0
  150.7678  141.6499  156.1289 C   0  0  0  0  0  0  0  0  0  0  0  0
  149.4223  141.8648  155.7160 O   0  0  0  0  0  0  0  0  0  0  0  0
  149.1870  141.4438  154.3767 C   0  0  0  0  0  0  0  0  0  0  0  0
  149.5301  139.9506  154.2403 C   0  0  0  0  0  0  0  0  0  0  0  0
  147.1402  132.5409  152.6983 S   0  0  0  0  0  0  0  0  0  0  0  0
  145.6095  129.4488  154.0431 H   0  0  0  0  0  0  0  0  0  0  0  0
  146.7037  129.2065  152.6694 H   0  0  0  0  0  0  0  0  0  0  0  0
  145.3094  130.2895  152.5139 H   0  0  0  0  0  0  0  0  0  0  0  0
  148.8802  134.7746  153.0434 H   0  0  0  0  0  0  0  0  0  0  0  0
  149.7546  136.4499  153.5592 H   0  0  0  0  0  0  0  0  0  0  0  0
  149.5937  137.8505  155.8743 H   0  0  0  0  0  0  0  0  0  0  0  0
  151.7016  137.3703  157.1374 H   0  0  0  0  0  0  0  0  0  0  0  0
  152.0771  136.0515  156.0319 H   0  0  0  0  0  0  0  0  0  0  0  0
  150.6730  135.9482  157.0916 H   0  0  0  0  0  0  0  0  0  0  0  0
  152.2642  138.0830  154.7070 H   0  0  0  0  0  0  0  0  0  0  0  0
  151.0728  137.9521  153.4466 H   0  0  0  0  0  0  0  0  0  0  0  0
  150.5190  139.5793  156.6959 H   0  0  0  0  0  0  0  0  0  0  0  0
  152.1613  140.0236  156.2869 H   0  0  0  0  0  0  0  0  0  0  0  0
  150.8793  141.9741  157.1635 H   0  0  0  0  0  0  0  0  0  0  0  0
  151.4418  142.2613  155.5268 H   0  0  0  0  0  0  0  0  0  0  0  0
  148.1400  141.6172  154.1274 H   0  0  0  0  0  0  0  0  0  0  0  0
  149.7849  142.0430  153.6881 H   0  0  0  0  0  0  0  0  0  0  0  0
  149.3680  139.6381  153.2082 H   0  0  0  0  0  0  0  0  0  0  0  0
  148.8426  139.3668  154.8544 H   0  0  0  0  0  0  0  0  0  0  0  0
  1  2  1  0  0  0  0
  1 20  1  0  0  0  0
  1 21  1  0  0  0  0
  1 22  1  0  0  0  0
  2 19  1  0  0  0  0
  2  3  2  0  0  0  0
  3  4  1  0  0  0  0
  4  5  2  0  0  0  0
  5  6  1  0  0  0  0
  5 19  1  0  0  0  0
  6  7  1  0  0  0  0
  6 23  1  0  0  0  0
  7  8  2  0  0  0  0
  7  9  1  0  0  0  0
  9 10  1  0  0  0  0
  9 24  1  0  0  0  0
 10 11  1  0  0  0  0
 10 12  1  0  0  0  0
 10 25  1  0  0  0  0
 11 26  1  0  0  0  0
 11 27  1  0  0  0  0
 11 28  1  0  0  0  0
 12 13  1  0  0  0  0
 12 29  1  0  0  0  0
 12 30  1  0  0  0  0
 13 18  1  0  0  0  0
 13 14  1  0  0  0  0
 14 15  1  0  0  0  0
 14 31  1  0  0  0  0
 14 32  1  0  0  0  0
 15 16  1  0  0  0  0
 15 33  1  0  0  0  0
 15 34  1  0  0  0  0
 16 17  1  0  0  0  0
 17 18  1  0  0  0  0
 17 35  1  0  0  0  0
 17 36  1  0  0  0  0
 18 37  1  0  0  0  0
 18 38  1  0  0  0  0
M  END
> <s_m_source_file>
AV-unprocessed.smi

> <i_m_source_file_index>
1999

> <i_lp_mmshare_version>
43012

> <i_f3d_flags>
0

> <s_epik_input>
W0NIM11jMW5uYyhzMSlbTkhdQyg9TylbTkhdW0NASF0oW0NIM10pW0NIMl1OMltDSDJdW0NIMl1PW0NIMl1bQ0gyXTI=

> <s_epik_cmdline>
J2VwaWtfcHl0aG9uJywgJy1waCcsICc3LjAnLCAnLXRuJywgJzgnLCAnLW1hJywgJzIwMCcsICctbWV0YWxfYmluZGluZycsICctaW1hZScsICc8aW5maWxlLm1hZT4nLCAnLW9tYWUnLCAnPG91dGZpbGUubWFlPic=

> <r_lp_tautomer_probability>
1

> <r_epik_Ionization_Penalty>
0.221412

> <r_epik_Ionization_Penalty_Charging>
0

> <r_epik_Ionization_Penalty_Neutral>
0.221412

> <r_epik_State_Penalty>
0.209349

> <r_epik_Charging_Adjusted_Penalty>
0.209349

> <i_epik_Tot_Q>
0

> <i_epik_Tot_abs_Q>
0

> <r_epik_Metal_State_Penalty>
0.56886

> <b_epik_Metal_Only>
0

> <s_lp_Force_Field>
OPLS_2005

> <r_lp_Energy>
22.0732

> <b_lp_Chiralities_Consistent>
1

> <s_lp_Variant>
AV-unprocessed.smi:1999-2

> <Gold.Version>
5.8.1

> <Gold.Id.Protein>
6NUR|6NUR_protein|mol2

> <Gold.PLP.Fitness>
36.9842

> <Gold.PLP.PLP>
-31.0941

> <Gold.PLP.part.hbond>
-3.3326

> <Gold.PLP.part.metal>
0.0000

> <Gold.PLP.part.buried>
-4.5904

> <Gold.PLP.part.nonpolar>
-24.8918

> <Gold.PLP.part.repulsive>
0.9245

> <Gold.PLP.ligand.clash>
0.0000

> <Gold.PLP.ligand.torsion>
1.0530

> <Gold.PLP.Chemscore.Hbond>
2.6500

> <Gold.PLP.Chemscore.CHOScore>
0.0000

> <Gold.PLP.Chemscore.Metal>
0.0000

> <Gold.Chemscore.Hbonds>
donor molecule, donor type, donor heavy atom, donor atom, acceptor molecule, acceptor atom, score
      L1  H     6    23       P1  7948  0.80
      L1  H     9    24       P1  7948  1.00
      P1  H  7989  7998       L1    13  0.75

> <Gold.PLP.Chemscore.Internal.Correction>
0.0462

> <Gold.Rescore>
     Score         DG    S(hbond)    S(metal)    S(lipo)     H(rot)  DE(clash)    DE(int)     intcor
     10.31     -14.27       1.82        0.00      57.70       1.58       0.22       3.74       ----

> <Gold.Chemscore.Fitness>
10.3104

> <Gold.Chemscore.DG>
-14.2698

> <Gold.Chemscore.ZeroCoef>
-5.4800

> <Gold.Chemscore.Hbond>
1.8242

> <Gold.Chemscore.Metal>
0.0000

> <Gold.Chemscore.Lipo>
57.7010

> <Gold.Chemscore.Internal_Hbond>
0.0000

> <Gold.Chemscore.DEClash>
0.2227

> <Gold.Chemscore.DEInternal>
3.7368

> <Gold.Chemscore.Rot>
1.5837

> <Gold.Chemscore.Internal.Correction>
   9.000000E+99

> <Gold.Chemscore.Hbonds>
donor molecule, donor type, donor heavy atom, donor atom, acceptor molecule, acceptor atom, score
      L1  H     6    23       P1  7948  0.12
      L1  H     9    24       P1  7948  0.33
      P1  H  7989  7998       L1    13  0.06

> <Gold.Chemscore.Hbond.Weighted>
-6.0930

> <Gold.Chemscore.Metal.Weighted>
-0.0000

> <Gold.Chemscore.Lipo.Weighted>
-6.7510

> <Gold.Chemscore.Internal_Hbond.Weighted>
0.0000

> <Gold.Chemscore.DEClash.Weighted>
0.2227

> <Gold.Chemscore.DEInternal.Weighted>
3.7368

> <Gold.Chemscore.Rot.Weighted>
4.0542

> <Gold.Chemscore.Internal.Correction.Weighted>
   9.000000E+99

> <Gold.Protein.RotatedTorsions>
[ 6907 6896 6895 6894 ] final   75.90 input  -60.11 | X-H torsion
[ 7974 7965 7964 7962 ] final  -34.34 input  175.53 | X-H torsion
[ 8008 7997 7996 7995 ] final  152.31 input   59.86 | X-H torsion
[ 10167 10162 10161 10158 ] final  -70.86 input  -65.29 | X-H torsion
[ 10718 10713 10712 10709 ] final -156.58 input   66.30 | X-H torsion
[ 10763 10752 10751 10750 ] final    0.46 input  -60.55 | X-H torsion
[ 11005 11000 10999 10996 ] final  144.98 input  -57.11 | X-H torsion

> <Gold.Protein.ActiveResidues>
 VAL166  LYS551  ARG553  GLY616  TRP617  ASP618  TYR619  PRO620  LYS621  CYS622 
 ASP623  PHE694  ASN695  SER759  ASP760  ASP761  ALA762  ILE779  LEU786  VAL792 
 PHE793  MET794  SER795  GLU796  ALA797  LYS798  CYS799  TRP800  GLU811  SER814 

> <Gold.Protein.RotatedAtoms>
  152.5048  134.4050  159.9428 H   0  0  0  0  0  0  0  0  0  0  0  0  # atno 6907 bound_to 6896
  151.4015  133.3750  159.2740 H   0  0  0  0  0  0  0  0  0  0  0  0  # atno 6908 bound_to 6896
  150.9358  134.8792  159.7640 H   0  0  0  0  0  0  0  0  0  0  0  0  # atno 6909 bound_to 6896
  146.0837  140.6026  142.8896 H   0  0  0  0  0  0  0  0  0  0  0  0  # atno 7974 bound_to 7965
  156.2635  140.2024  156.6313 H   0  0  0  0  0  0  0  0  0  0  0  0  # atno 8008 bound_to 7997
  154.6681  140.0553  157.0160 H   0  0  0  0  0  0  0  0  0  0  0  0  # atno 8009 bound_to 7997
  155.1177  140.3221  155.4508 H   0  0  0  0  0  0  0  0  0  0  0  0  # atno 8010 bound_to 7997
  140.5319  143.2321  151.7246 H   0  0  0  0  0  0  0  0  0  0  0  0  # atno 10167 bound_to 10162
  156.5285  130.8510  151.2708 H   0  0  0  0  0  0  0  0  0  0  0  0  # atno 10718 bound_to 10713
  153.3204  135.6969  153.7036 H   0  0  0  0  0  0  0  0  0  0  0  0  # atno 10763 bound_to 10752
  153.5878  135.3485  155.2900 H   0  0  0  0  0  0  0  0  0  0  0  0  # atno 10764 bound_to 10752
  154.8596  135.4310  154.2366 H   0  0  0  0  0  0  0  0  0  0  0  0  # atno 10765 bound_to 10752
  140.0676  134.9170  157.1290 H   0  0  0  0  0  0  0  0  0  0  0  0  # atno 11005 bound_to 11000
  144.7311  140.4674  143.6937 LP  0  0  0  0  0  0  0  0  0  0  0  0  # atno 17320 bound_to 7965
  145.6169  139.1519  143.3044 LP  0  0  0  0  0  0  0  0  0  0  0  0  # atno 17321 bound_to 7965
  139.4957  144.4101  152.0090 LP  0  0  0  0  0  0  0  0  0  0  0  0  # atno 17342 bound_to 10162
  140.3203  144.3435  150.6011 LP  0  0  0  0  0  0  0  0  0  0  0  0  # atno 17343 bound_to 10162
  157.7425  130.9893  150.2525 LP  0  0  0  0  0  0  0  0  0  0  0  0  # atno 17370 bound_to 10713
  156.3082  130.3768  149.7686 LP  0  0  0  0  0  0  0  0  0  0  0  0  # atno 17371 bound_to 10713
  140.3676  134.2426  155.7181 LP  0  0  0  0  0  0  0  0  0  0  0  0  # atno 17394 bound_to 11000
  141.1999  133.8001  157.0515 LP  0  0  0  0  0  0  0  0  0  0  0  0  # atno 17395 bound_to 11000

$$$$
