AV-unprocessed.smi:2565|AV-procd|sdf|10071|dock2
  -GOLD-   2272014103D 1   1.00000     0.00000
 Structure written by MMmdl.
 24 25  0  0  0  0  0  0  0  0  1 V2000
  151.4448  143.4434  158.4803 C   0  0  0  0  0  0  0  0  0  0  0  0
  152.1306  142.1742  158.6187 N   0  0  0  0  0  0  0  0  0  0  0  0
  152.8924  141.7410  159.6341 C   0  0  0  0  0  0  0  0  0  0  0  0
  153.4054  140.5221  159.4741 N   0  0  0  0  0  0  0  0  0  0  0  0
  152.9413  140.1099  158.2406 N   0  0  0  0  0  0  0  0  0  0  0  0
  152.1862  141.1176  157.7817 C   0  0  0  0  0  0  0  0  0  0  0  0
  151.4903  141.1087  156.4521 C   0  0  1  0  0  0  0  0  0  0  0  0
  151.6957  139.7828  155.6941 C   0  0  0  0  0  0  0  0  0  0  0  0
  150.9344  139.7897  154.4459 N   0  0  0  0  0  0  0  0  0  0  0  0
  149.5199  140.0683  154.6908 C   0  0  0  0  0  0  0  0  0  0  0  0
  149.3597  141.3773  155.4850 C   0  0  0  0  0  0  0  0  0  0  0  0
  150.0983  141.2937  156.6993 O   0  0  0  0  0  0  0  0  0  0  0  0
  151.7179  144.1086  159.3000 H   0  0  0  0  0  0  0  0  0  0  0  0
  150.3667  143.2829  158.4983 H   0  0  0  0  0  0  0  0  0  0  0  0
  151.7231  143.9132  157.5367 H   0  0  0  0  0  0  0  0  0  0  0  0
  153.0811  142.3355  160.5161 H   0  0  0  0  0  0  0  0  0  0  0  0
  151.8549  141.9459  155.8547 H   0  0  0  0  0  0  0  0  0  0  0  0
  152.7547  139.6296  155.4846 H   0  0  0  0  0  0  0  0  0  0  0  0
  151.3747  138.9475  156.3177 H   0  0  0  0  0  0  0  0  0  0  0  0
  151.0284  138.8901  153.9855 H   0  0  0  0  0  0  0  0  0  0  0  0
  148.9825  140.1363  153.7446 H   0  0  0  0  0  0  0  0  0  0  0  0
  149.0706  139.2452  155.2477 H   0  0  0  0  0  0  0  0  0  0  0  0
  149.6937  142.2341  154.8975 H   0  0  0  0  0  0  0  0  0  0  0  0
  148.3091  141.5452  155.7217 H   0  0  0  0  0  0  0  0  0  0  0  0
  1  2  1  0  0  0  0
  1 13  1  0  0  0  0
  1 14  1  0  0  0  0
  1 15  1  0  0  0  0
  2  6  1  0  0  0  0
  2  3  1  0  0  0  0
  3  4  2  0  0  0  0
  3 16  1  0  0  0  0
  4  5  1  0  0  0  0
  5  6  2  0  0  0  0
  6  7  1  0  0  0  0
  7 12  1  0  0  0  0
  7  8  1  0  0  0  0
  7 17  1  0  0  0  0
  8  9  1  0  0  0  0
  8 18  1  0  0  0  0
  8 19  1  0  0  0  0
  9 10  1  0  0  0  0
  9 20  1  0  0  0  0
 10 11  1  0  0  0  0
 10 21  1  0  0  0  0
 10 22  1  0  0  0  0
 11 12  1  0  0  0  0
 11 23  1  0  0  0  0
 11 24  1  0  0  0  0
M  END
> <s_m_source_file>
AV-unprocessed.smi

> <i_m_source_file_index>
2565

> <i_lp_mmshare_version>
43012

> <i_f3d_flags>
0

> <s_epik_input>
W0NIM11uMVtjSF1ubmMxW0NAQEhdMltDSDJdW05IXVtDSDJdW0NIMl1PMg==

> <s_epik_cmdline>
J2VwaWtfcHl0aG9uJywgJy1waCcsICc3LjAnLCAnLXRuJywgJzgnLCAnLW1hJywgJzIwMCcsICctbWV0YWxfYmluZGluZycsICctaW1hZScsICc8aW5maWxlLm1hZT4nLCAnLW9tYWUnLCAnPG91dGZpbGUubWFlPic=

> <r_lp_tautomer_probability>
1

> <r_epik_Ionization_Penalty>
0.980774

> <r_epik_Ionization_Penalty_Charging>
0

> <r_epik_Ionization_Penalty_Neutral>
0.980774

> <r_epik_State_Penalty>
1.0271

> <r_epik_Charging_Adjusted_Penalty>
1.0271

> <i_epik_Tot_Q>
0

> <i_epik_Tot_abs_Q>
0

> <r_epik_Metal_State_Penalty>
1.02688

> <b_epik_Metal_Only>
0

> <s_lp_Force_Field>
OPLS_2005

> <r_lp_Energy>
14.243

> <b_lp_Chiralities_Consistent>
1

> <s_lp_Variant>
AV-unprocessed.smi:2565-4

> <Gold.Version>
5.8.1

> <Gold.Id.Protein>
6NUR|6NUR_protein|mol2

> <Gold.PLP.Fitness>
27.7395

> <Gold.PLP.PLP>
-21.7475

> <Gold.PLP.part.hbond>
-2.0000

> <Gold.PLP.part.metal>
0.0000

> <Gold.PLP.part.buried>
-3.4683

> <Gold.PLP.part.nonpolar>
-15.3805

> <Gold.PLP.part.repulsive>
0.0655

> <Gold.PLP.ligand.clash>
0.0000

> <Gold.PLP.ligand.torsion>
0.0055

> <Gold.PLP.Chemscore.Hbond>
2.0000

> <Gold.PLP.Chemscore.CHOScore>
0.0000

> <Gold.PLP.Chemscore.Metal>
0.0000

> <Gold.Chemscore.Hbonds>
donor molecule, donor type, donor heavy atom, donor atom, acceptor molecule, acceptor atom, score
      P1  H  7989  7998       L1     9  1.00
      P1  H  7997  8008       L1     5  0.96

> <Gold.PLP.Chemscore.Internal.Correction>
0.0030

> <Gold.Rescore>
     Score         DG    S(hbond)    S(metal)    S(lipo)     H(rot)  DE(clash)    DE(int)     intcor
      9.97     -10.05       0.86        0.00      36.33       1.00       0.07       0.00       ----

> <Gold.Chemscore.Fitness>
9.9741

> <Gold.Chemscore.DG>
-10.0498

> <Gold.Chemscore.ZeroCoef>
-5.4800

> <Gold.Chemscore.Hbond>
0.8621

> <Gold.Chemscore.Metal>
0.0000

> <Gold.Chemscore.Lipo>
36.3278

> <Gold.Chemscore.Internal_Hbond>
0.0000

> <Gold.Chemscore.DEClash>
0.0739

> <Gold.Chemscore.DEInternal>
0.0018

> <Gold.Chemscore.Rot>
1.0000

> <Gold.Chemscore.Internal.Correction>
   9.000000E+99

> <Gold.Chemscore.Hbonds>
donor molecule, donor type, donor heavy atom, donor atom, acceptor molecule, acceptor atom, score
      P1  H  7989  7998       L1     9  0.28
      P1  H  7997  8008       L1     5  0.24

> <Gold.Chemscore.Hbond.Weighted>
-2.8795

> <Gold.Chemscore.Metal.Weighted>
-0.0000

> <Gold.Chemscore.Lipo.Weighted>
-4.2504

> <Gold.Chemscore.Internal_Hbond.Weighted>
0.0000

> <Gold.Chemscore.DEClash.Weighted>
0.0739

> <Gold.Chemscore.DEInternal.Weighted>
0.0018

> <Gold.Chemscore.Rot.Weighted>
2.5600

> <Gold.Chemscore.Internal.Correction.Weighted>
   9.000000E+99

> <Gold.Protein.RotatedTorsions>
[ 6907 6896 6895 6894 ] final    5.46 input  -60.11 | X-H torsion
[ 7974 7965 7964 7962 ] final -156.36 input  175.53 | X-H torsion
[ 8008 7997 7996 7995 ] final  -76.37 input   59.86 | X-H torsion
[ 10167 10162 10161 10158 ] final   -3.22 input  -65.29 | X-H torsion
[ 10718 10713 10712 10709 ] final   87.96 input   66.30 | X-H torsion
[ 10763 10752 10751 10750 ] final  -79.39 input  -60.55 | X-H torsion
[ 11005 11000 10999 10996 ] final  -13.59 input  -57.11 | X-H torsion

> <Gold.Protein.ActiveResidues>
 VAL166  LYS551  ARG553  GLY616  TRP617  ASP618  TYR619  PRO620  LYS621  CYS622 
 ASP623  PHE694  ASN695  SER759  ASP760  ASP761  ALA762  ILE779  LEU786  VAL792 
 PHE793  MET794  SER795  GLU796  ALA797  LYS798  CYS799  TRP800  GLU811  SER814 

> <Gold.Protein.RotatedAtoms>
  151.6579  135.0993  160.0173 H   0  0  0  0  0  0  0  0  0  0  0  0  # atno 6907 bound_to 6896
  152.3963  133.6748  159.6288 H   0  0  0  0  0  0  0  0  0  0  0  0  # atno 6908 bound_to 6896
  150.7870  133.8784  159.3320 H   0  0  0  0  0  0  0  0  0  0  0  0  # atno 6909 bound_to 6896
  144.7597  140.4120  143.5986 H   0  0  0  0  0  0  0  0  0  0  0  0  # atno 7974 bound_to 7965
  154.5499  140.0728  156.8651 H   0  0  0  0  0  0  0  0  0  0  0  0  # atno 8008 bound_to 7997
  155.3013  140.3384  155.4229 H   0  0  0  0  0  0  0  0  0  0  0  0  # atno 8009 bound_to 7997
  156.1952  140.1701  156.7998 H   0  0  0  0  0  0  0  0  0  0  0  0  # atno 8010 bound_to 7997
  140.6882  143.6565  150.8304 H   0  0  0  0  0  0  0  0  0  0  0  0  # atno 10167 bound_to 10162
  157.6945  131.0276  150.3202 H   0  0  0  0  0  0  0  0  0  0  0  0  # atno 10718 bound_to 10713
  154.5380  135.5697  153.6815 H   0  0  0  0  0  0  0  0  0  0  0  0  # atno 10763 bound_to 10752
  152.9956  135.6221  154.2540 H   0  0  0  0  0  0  0  0  0  0  0  0  # atno 10764 bound_to 10752
  154.2470  135.2860  155.2811 H   0  0  0  0  0  0  0  0  0  0  0  0  # atno 10765 bound_to 10752
  140.7777  133.8388  155.9264 H   0  0  0  0  0  0  0  0  0  0  0  0  # atno 11005 bound_to 11000
  145.6661  139.1590  143.2781 LP  0  0  0  0  0  0  0  0  0  0  0  0  # atno 17320 bound_to 7965
  146.1646  140.6737  142.9261 LP  0  0  0  0  0  0  0  0  0  0  0  0  # atno 17321 bound_to 7965
  140.0274  143.5479  152.2774 LP  0  0  0  0  0  0  0  0  0  0  0  0  # atno 17342 bound_to 10162
  139.6259  144.7637  151.2640 LP  0  0  0  0  0  0  0  0  0  0  0  0  # atno 17343 bound_to 10162
  156.3690  130.3860  149.7190 LP  0  0  0  0  0  0  0  0  0  0  0  0  # atno 17370 bound_to 10713
  156.4611  130.7952  151.2972 LP  0  0  0  0  0  0  0  0  0  0  0  0  # atno 17371 bound_to 10713
  140.9513  134.1775  157.4726 LP  0  0  0  0  0  0  0  0  0  0  0  0  # atno 17394 bound_to 11000
  139.8747  134.9910  156.5529 LP  0  0  0  0  0  0  0  0  0  0  0  0  # atno 17395 bound_to 11000

$$$$
