AV-unprocessed.smi:1482|AV-procd|sdf|5988|dock8
  -GOLD-   22720 6 83D 1   1.00000     0.00000
 Structure written by MMmdl.
 36 37  0  0  0  0  0  0  0  0  1 V2000
  156.7280  138.0043  154.1029 C   0  0  0  0  0  0  0  0  0  0  0  0
  155.4207  138.5048  153.8835 O   0  0  0  0  0  0  0  0  0  0  0  0
  154.5219  138.1454  154.9194 C   0  0  0  0  0  0  0  0  0  0  0  0
  153.1197  138.6452  154.5619 C   0  0  0  0  0  0  0  0  0  0  0  0
  152.6668  139.5032  155.6040 O   0  0  0  0  0  0  0  0  0  0  0  0
  151.4042  140.0546  155.5109 C   0  0  0  0  0  0  0  0  0  0  0  0
  150.6593  139.7761  154.4110 N   0  0  0  0  0  0  0  0  0  0  0  0
  149.4206  140.3029  154.3202 C   0  0  0  0  0  0  0  0  0  0  0  0
  148.8601  141.1304  155.3111 C   0  0  0  0  0  0  0  0  0  0  0  0
  149.6316  141.4217  156.4509 C   0  0  0  0  0  0  0  0  0  0  0  0
  150.9295  140.8790  156.5596 C   0  0  0  0  0  0  0  0  0  0  0  0
  151.7774  141.1787  157.7882 C   0  0  0  0  0  0  0  0  0  0  0  0
  151.8905  142.6057  158.0666 N   0  0  0  0  0  0  0  0  0  0  0  0
  152.7285  143.1484  158.9630 C   0  0  0  0  0  0  0  0  0  0  0  0
  153.5032  142.4789  159.6482 O   0  0  0  0  0  0  0  0  0  0  0  0
  152.6362  144.6365  159.0549 C   0  0  0  0  0  0  0  0  0  0  0  0
  152.1717  145.2317  160.3687 C   0  0  0  0  0  0  0  0  0  0  0  0
  151.2557  145.2503  159.1711 C   0  0  0  0  0  0  0  0  0  0  0  0
  157.3781  138.3049  153.2814 H   0  0  0  0  0  0  0  0  0  0  0  0
  156.7306  136.9147  154.1526 H   0  0  0  0  0  0  0  0  0  0  0  0
  157.1508  138.3980  155.0279 H   0  0  0  0  0  0  0  0  0  0  0  0
  154.5097  137.0619  155.0476 H   0  0  0  0  0  0  0  0  0  0  0  0
  154.8442  138.5865  155.8638 H   0  0  0  0  0  0  0  0  0  0  0  0
  153.1515  139.1857  153.6144 H   0  0  0  0  0  0  0  0  0  0  0  0
  152.4458  137.7948  154.4462 H   0  0  0  0  0  0  0  0  0  0  0  0
  148.8590  140.0565  153.4313 H   0  0  0  0  0  0  0  0  0  0  0  0
  147.8633  141.5303  155.1997 H   0  0  0  0  0  0  0  0  0  0  0  0
  149.2318  142.0526  157.2311 H   0  0  0  0  0  0  0  0  0  0  0  0
  151.4058  140.6597  158.6723 H   0  0  0  0  0  0  0  0  0  0  0  0
  152.7803  140.7893  157.6123 H   0  0  0  0  0  0  0  0  0  0  0  0
  151.2891  143.2243  157.5422 H   0  0  0  0  0  0  0  0  0  0  0  0
  153.3768  145.2055  158.4944 H   0  0  0  0  0  0  0  0  0  0  0  0
  151.9147  144.5577  161.1842 H   0  0  0  0  0  0  0  0  0  0  0  0
  152.6312  146.1689  160.6757 H   0  0  0  0  0  0  0  0  0  0  0  0
  151.0943  146.2000  158.6655 H   0  0  0  0  0  0  0  0  0  0  0  0
  150.3911  144.5890  159.1931 H   0  0  0  0  0  0  0  0  0  0  0  0
  1  2  1  0  0  0  0
  1 19  1  0  0  0  0
  1 20  1  0  0  0  0
  1 21  1  0  0  0  0
  2  3  1  0  0  0  0
  3  4  1  0  0  0  0
  3 22  1  0  0  0  0
  3 23  1  0  0  0  0
  4  5  1  0  0  0  0
  4 24  1  0  0  0  0
  4 25  1  0  0  0  0
  5  6  1  0  0  0  0
  6 11  1  0  0  0  0
  6  7  2  0  0  0  0
  7  8  1  0  0  0  0
  8  9  2  0  0  0  0
  8 26  1  0  0  0  0
  9 10  1  0  0  0  0
  9 27  1  0  0  0  0
 10 11  2  0  0  0  0
 10 28  1  0  0  0  0
 11 12  1  0  0  0  0
 12 13  1  0  0  0  0
 12 29  1  0  0  0  0
 12 30  1  0  0  0  0
 13 14  1  0  0  0  0
 13 31  1  0  0  0  0
 14 15  2  0  0  0  0
 14 16  1  0  0  0  0
 16 18  1  0  0  0  0
 16 17  1  0  0  0  0
 16 32  1  0  0  0  0
 17 18  1  0  0  0  0
 17 33  1  0  0  0  0
 17 34  1  0  0  0  0
 18 35  1  0  0  0  0
 18 36  1  0  0  0  0
M  END
> <s_m_source_file>
AV-unprocessed.smi

> <i_m_source_file_index>
1482

> <i_lp_mmshare_version>
43012

> <i_f3d_flags>
0

> <s_epik_input>
W0NIM11PW0NIMl1bQ0gyXU9jMW5bY0hdW2NIXVtjSF1jMVtDSDJdW05IXUMoPU8pW0NIXTJbQ0gyXVtDSDJdMg==

> <s_epik_cmdline>
J2VwaWtfcHl0aG9uJywgJy1waCcsICc3LjAnLCAnLXRuJywgJzgnLCAnLW1hJywgJzIwMCcsICctbWV0YWxfYmluZGluZycsICctaW1hZScsICc8aW5maWxlLm1hZT4nLCAnLW9tYWUnLCAnPG91dGZpbGUubWFlPic=

> <r_lp_tautomer_probability>
1

> <r_epik_Ionization_Penalty>
6.12052e-05

> <r_epik_Ionization_Penalty_Charging>
0

> <r_epik_Ionization_Penalty_Neutral>
6.12052e-05

> <r_epik_State_Penalty>
-0

> <r_epik_Charging_Adjusted_Penalty>
0

> <i_epik_Tot_Q>
0

> <i_epik_Tot_abs_Q>
0

> <r_epik_Metal_State_Penalty>
-0

> <b_epik_Metal_Only>
0

> <s_lp_Force_Field>
OPLS_2005

> <r_lp_Energy>
6.94905

> <b_lp_Chiralities_Consistent>
1

> <s_lp_Variant>
AV-unprocessed.smi:1482-1

> <Gold.Version>
5.8.1

> <Gold.Id.Protein>
6NUR|6NUR_protein|mol2

> <Gold.PLP.Fitness>
46.2391

> <Gold.PLP.PLP>
-39.4218

> <Gold.PLP.part.hbond>
-3.0000

> <Gold.PLP.part.metal>
0.0000

> <Gold.PLP.part.buried>
0.4207

> <Gold.PLP.part.nonpolar>
-36.3302

> <Gold.PLP.part.repulsive>
0.1592

> <Gold.PLP.ligand.clash>
0.0000

> <Gold.PLP.ligand.torsion>
0.6293

> <Gold.PLP.Chemscore.Hbond>
1.6424

> <Gold.PLP.Chemscore.CHOScore>
1.0000

> <Gold.PLP.Chemscore.Metal>
0.0000

> <Gold.Chemscore.Hbonds>
donor molecule, donor type, donor heavy atom, donor atom, acceptor molecule, acceptor atom, score
      P1  H  7989  7998       L1     7  0.50
      P1  H  7997  8010       L1     5  0.94
      L1  C     8    26       P1  7957  0.97

> <Gold.PLP.Chemscore.Internal.Correction>
0.1486

> <Gold.Rescore>
     Score         DG    S(hbond)    S(metal)    S(lipo)     H(rot)  DE(clash)    DE(int)     intcor
     10.38     -12.68       0.44        0.00      97.43       2.21       1.73       0.58       ----

> <Gold.Chemscore.Fitness>
10.3801

> <Gold.Chemscore.DG>
-12.6840

> <Gold.Chemscore.ZeroCoef>
-5.4800

> <Gold.Chemscore.Hbond>
0.4405

> <Gold.Chemscore.Metal>
0.0000

> <Gold.Chemscore.Lipo>
97.4278

> <Gold.Chemscore.Internal_Hbond>
0.0000

> <Gold.Chemscore.DEClash>
1.7251

> <Gold.Chemscore.DEInternal>
0.5788

> <Gold.Chemscore.Rot>
2.2134

> <Gold.Chemscore.Internal.Correction>
   9.000000E+99

> <Gold.Chemscore.Hbonds>
donor molecule, donor type, donor heavy atom, donor atom, acceptor molecule, acceptor atom, score
      P1  H  7989  7998       L1     7  0.01
      P1  H  7997  8010       L1     5  0.39

> <Gold.Chemscore.Hbond.Weighted>
-1.4712

> <Gold.Chemscore.Metal.Weighted>
-0.0000

> <Gold.Chemscore.Lipo.Weighted>
-11.3991

> <Gold.Chemscore.Internal_Hbond.Weighted>
0.0000

> <Gold.Chemscore.DEClash.Weighted>
1.7251

> <Gold.Chemscore.DEInternal.Weighted>
0.5788

> <Gold.Chemscore.Rot.Weighted>
5.6663

> <Gold.Chemscore.Internal.Correction.Weighted>
   9.000000E+99

> <Gold.Protein.RotatedTorsions>
[ 6907 6896 6895 6894 ] final  129.91 input  -60.11 | X-H torsion
[ 7974 7965 7964 7962 ] final   93.40 input  175.53 | X-H torsion
[ 8008 7997 7996 7995 ] final   66.17 input   59.86 | X-H torsion
[ 10167 10162 10161 10158 ] final   21.29 input  -65.29 | X-H torsion
[ 10718 10713 10712 10709 ] final   94.04 input   66.30 | X-H torsion
[ 10763 10752 10751 10750 ] final   -4.32 input  -60.55 | X-H torsion
[ 11005 11000 10999 10996 ] final  -59.44 input  -57.11 | X-H torsion

> <Gold.Protein.ActiveResidues>
 VAL166  LYS551  ARG553  GLY616  TRP617  ASP618  TYR619  PRO620  LYS621  CYS622 
 ASP623  PHE694  ASN695  SER759  ASP760  ASP761  ALA762  ILE779  LEU786  VAL792 
 PHE793  MET794  SER795  GLU796  ALA797  LYS798  CYS799  TRP800  GLU811  SER814 

> <Gold.Protein.RotatedAtoms>
  152.3578  133.6258  159.5991 H   0  0  0  0  0  0  0  0  0  0  0  0  # atno 6907 bound_to 6896
  150.7580  133.9473  159.3483 H   0  0  0  0  0  0  0  0  0  0  0  0  # atno 6908 bound_to 6896
  151.7315  135.0874  160.0352 H   0  0  0  0  0  0  0  0  0  0  0  0  # atno 6909 bound_to 6896
  145.4794  139.2279  143.2891 H   0  0  0  0  0  0  0  0  0  0  0  0  # atno 7974 bound_to 7965
  155.6732  140.3497  155.4826 H   0  0  0  0  0  0  0  0  0  0  0  0  # atno 8008 bound_to 7997
  155.9670  140.1148  157.0868 H   0  0  0  0  0  0  0  0  0  0  0  0  # atno 8009 bound_to 7997
  154.4157  140.1164  156.5242 H   0  0  0  0  0  0  0  0  0  0  0  0  # atno 8010 bound_to 7997
  140.5438  143.9631  150.6535 H   0  0  0  0  0  0  0  0  0  0  0  0  # atno 10167 bound_to 10162
  157.6951  131.0499  150.4126 H   0  0  0  0  0  0  0  0  0  0  0  0  # atno 10718 bound_to 10713
  153.3832  135.6999  153.6550 H   0  0  0  0  0  0  0  0  0  0  0  0  # atno 10763 bound_to 10752
  153.5152  135.3623  155.2606 H   0  0  0  0  0  0  0  0  0  0  0  0  # atno 10764 bound_to 10752
  154.8695  135.4144  154.3134 H   0  0  0  0  0  0  0  0  0  0  0  0  # atno 10765 bound_to 10752
  141.1248  133.6616  156.5072 H   0  0  0  0  0  0  0  0  0  0  0  0  # atno 11005 bound_to 11000
  146.2350  140.5579  142.8959 LP  0  0  0  0  0  0  0  0  0  0  0  0  # atno 17320 bound_to 7965
  144.7898  140.6009  143.6549 LP  0  0  0  0  0  0  0  0  0  0  0  0  # atno 17321 bound_to 7965
  140.3038  143.3243  152.0945 LP  0  0  0  0  0  0  0  0  0  0  0  0  # atno 17342 bound_to 10162
  139.4999  144.6680  151.6311 LP  0  0  0  0  0  0  0  0  0  0  0  0  # atno 17343 bound_to 10162
  156.4508  130.4011  149.6637 LP  0  0  0  0  0  0  0  0  0  0  0  0  # atno 17370 bound_to 10713
  156.3787  130.7568  151.2558 LP  0  0  0  0  0  0  0  0  0  0  0  0  # atno 17371 bound_to 10713
  140.4398  134.7026  157.4985 LP  0  0  0  0  0  0  0  0  0  0  0  0  # atno 17394 bound_to 11000
  140.0237  134.6509  155.9203 LP  0  0  0  0  0  0  0  0  0  0  0  0  # atno 17395 bound_to 11000

$$$$
