AV-unprocessed.smi:1438|AV-procd|sdf|5868|dock2
  -GOLD-   22720 5543D 1   1.00000     0.00000
 Structure written by MMmdl.
 43 44  0  0  0  0  0  0  0  0  1 V2000
  148.3956  135.3252  154.8887 C   0  0  0  0  0  0  0  0  0  0  0  0
  149.8319  134.7777  154.8790 C   0  0  1  0  0  0  0  0  0  0  0  0
  150.8639  135.8833  155.1348 C   0  0  0  0  0  0  0  0  0  0  0  0
  151.7770  135.7107  155.9424 O   0  0  0  0  0  0  0  0  0  0  0  0
  150.7154  137.0132  154.4257 N   0  0  0  0  0  0  0  0  0  0  0  0
  151.6473  138.1333  154.4392 C   0  0  0  0  0  0  0  0  0  0  0  0
  150.9879  139.4104  154.9248 C   0  0  0  0  0  0  0  0  0  0  0  0
  149.8075  139.8854  154.3222 C   0  0  0  0  0  0  0  0  0  0  0  0
  149.2223  141.0571  154.8354 C   0  0  0  0  0  0  0  0  0  0  0  0
  149.7392  141.7489  155.8724 N   0  0  0  0  0  0  0  0  0  0  0  0
  150.8796  141.3041  156.4571 C   0  0  0  0  0  0  0  0  0  0  0  0
  151.4131  142.0442  157.5350 N   0  0  0  0  0  0  0  0  0  0  0  0
  152.5088  141.4009  158.2567 C   0  0  0  0  0  0  0  0  0  0  0  0
  152.8079  142.1541  159.5646 C   0  0  0  0  0  0  0  0  0  0  0  0
  153.0609  143.5268  159.2849 O   0  0  0  0  0  0  0  0  0  0  0  0
  151.9353  144.1604  158.6864 C   0  0  0  0  0  0  0  0  0  0  0  0
  151.6115  143.4804  157.3454 C   0  0  0  0  0  0  0  0  0  0  0  0
  151.5285  140.1270  156.0122 C   0  0  0  0  0  0  0  0  0  0  0  0
  150.0098  133.4444  156.1561 S   0  0  0  0  0  0  0  0  0  0  0  0
  151.7208  132.8187  155.8749 C   0  0  0  0  0  0  0  0  0  0  0  0
  149.9619  134.0532  157.4945 O   0  0  0  0  0  0  0  0  0  0  0  0
  149.0658  132.3670  155.8215 O   0  0  0  0  0  0  0  0  0  0  0  0
  148.2708  136.1244  154.1570 H   0  0  0  0  0  0  0  0  0  0  0  0
  148.1230  135.7210  155.8679 H   0  0  0  0  0  0  0  0  0  0  0  0
  147.6803  134.5405  154.6415 H   0  0  0  0  0  0  0  0  0  0  0  0
  150.0244  134.3195  153.9083 H   0  0  0  0  0  0  0  0  0  0  0  0
  149.9333  137.0801  153.7910 H   0  0  0  0  0  0  0  0  0  0  0  0
  152.4752  137.8851  155.1036 H   0  0  0  0  0  0  0  0  0  0  0  0
  152.0842  138.2868  153.4508 H   0  0  0  0  0  0  0  0  0  0  0  0
  149.3532  139.3605  153.4945 H   0  0  0  0  0  0  0  0  0  0  0  0
  148.3137  141.4489  154.4027 H   0  0  0  0  0  0  0  0  0  0  0  0
  152.2828  140.3621  158.4923 H   0  0  0  0  0  0  0  0  0  0  0  0
  153.3943  141.3959  157.6195 H   0  0  0  0  0  0  0  0  0  0  0  0
  151.9765  142.0609  160.2652 H   0  0  0  0  0  0  0  0  0  0  0  0
  153.6833  141.7247  160.0519 H   0  0  0  0  0  0  0  0  0  0  0  0
  151.0788  144.1189  159.3611 H   0  0  0  0  0  0  0  0  0  0  0  0
  152.1644  145.2142  158.5269 H   0  0  0  0  0  0  0  0  0  0  0  0
  152.4273  143.6423  156.6392 H   0  0  0  0  0  0  0  0  0  0  0  0
  150.7148  143.9324  156.9189 H   0  0  0  0  0  0  0  0  0  0  0  0
  152.4206  139.7626  156.4998 H   0  0  0  0  0  0  0  0  0  0  0  0
  151.8970  131.9556  156.5163 H   0  0  0  0  0  0  0  0  0  0  0  0
  152.4463  133.5942  156.1199 H   0  0  0  0  0  0  0  0  0  0  0  0
  151.8379  132.5231  154.8327 H   0  0  0  0  0  0  0  0  0  0  0  0
  1  2  1  0  0  0  0
  1 23  1  0  0  0  0
  1 24  1  0  0  0  0
  1 25  1  0  0  0  0
  2  3  1  0  0  0  0
  2 19  1  0  0  0  0
  2 26  1  0  0  0  0
  3  4  2  0  0  0  0
  3  5  1  0  0  0  0
  5  6  1  0  0  0  0
  5 27  1  0  0  0  0
  6  7  1  0  0  0  0
  6 28  1  0  0  0  0
  6 29  1  0  0  0  0
  7 18  1  0  0  0  0
  7  8  2  0  0  0  0
  8  9  1  0  0  0  0
  8 30  1  0  0  0  0
  9 10  2  0  0  0  0
  9 31  1  0  0  0  0
 10 11  1  0  0  0  0
 11 12  1  0  0  0  0
 11 18  2  0  0  0  0
 12 17  1  0  0  0  0
 12 13  1  0  0  0  0
 13 14  1  0  0  0  0
 13 32  1  0  0  0  0
 13 33  1  0  0  0  0
 14 15  1  0  0  0  0
 14 34  1  0  0  0  0
 14 35  1  0  0  0  0
 15 16  1  0  0  0  0
 16 17  1  0  0  0  0
 16 36  1  0  0  0  0
 16 37  1  0  0  0  0
 17 38  1  0  0  0  0
 17 39  1  0  0  0  0
 18 40  1  0  0  0  0
 19 20  1  0  0  0  0
 19 21  2  0  0  0  0
 19 22  2  0  0  0  0
 20 41  1  0  0  0  0
 20 42  1  0  0  0  0
 20 43  1  0  0  0  0
M  END
> <s_m_source_file>
AV-unprocessed.smi

> <i_m_source_file_index>
1438

> <i_lp_mmshare_version>
43012

> <i_f3d_flags>
0

> <s_epik_input>
W0NIM11TKD1PKSg9TylbQ0BIXShbQ0gzXSlDKD1PKVtOSF1bQ0gyXWMxW2NIXVtjSF1uYyhbY0hdMSlOMltDSDJdW0NIMl1PW0NIMl1bQ0gyXTI=

> <s_epik_cmdline>
J2VwaWtfcHl0aG9uJywgJy1waCcsICc3LjAnLCAnLXRuJywgJzgnLCAnLW1hJywgJzIwMCcsICctbWV0YWxfYmluZGluZycsICctaW1hZScsICc8aW5maWxlLm1hZT4nLCAnLW9tYWUnLCAnPG91dGZpbGUubWFlPic=

> <r_lp_tautomer_probability>
1

> <r_epik_Ionization_Penalty>
0.00387635

> <r_epik_Ionization_Penalty_Charging>
0

> <r_epik_Ionization_Penalty_Neutral>
0.00387635

> <r_epik_State_Penalty>
0.0027681

> <r_epik_Charging_Adjusted_Penalty>
0.0027681

> <i_epik_Tot_Q>
0

> <i_epik_Tot_abs_Q>
0

> <r_epik_Metal_State_Penalty>
-0

> <b_epik_Metal_Only>
0

> <s_lp_Force_Field>
OPLS_2005

> <r_lp_Energy>
13.2689

> <b_lp_Chiralities_Consistent>
1

> <s_lp_Variant>
AV-unprocessed.smi:1438-2

> <Gold.Version>
5.8.1

> <Gold.Id.Protein>
6NUR|6NUR_protein|mol2

> <Gold.PLP.Fitness>
45.5307

> <Gold.PLP.PLP>
-39.4282

> <Gold.PLP.part.hbond>
-2.6374

> <Gold.PLP.part.metal>
0.0000

> <Gold.PLP.part.buried>
-5.6750

> <Gold.PLP.part.nonpolar>
-31.4180

> <Gold.PLP.part.repulsive>
0.3236

> <Gold.PLP.ligand.clash>
0.0000

> <Gold.PLP.ligand.torsion>
0.5507

> <Gold.PLP.Chemscore.Hbond>
2.2330

> <Gold.PLP.Chemscore.CHOScore>
0.0000

> <Gold.PLP.Chemscore.Metal>
0.0000

> <Gold.Chemscore.Hbonds>
donor molecule, donor type, donor heavy atom, donor atom, acceptor molecule, acceptor atom, score
      L1  H     5    27       P1  7948  0.31
      P1  H  6896  6907       L1    21  0.91
      P1  H 10752 10765       L1     4  1.00

> <Gold.PLP.Chemscore.Internal.Correction>
0.5051

> <Gold.Rescore>
     Score         DG    S(hbond)    S(metal)    S(lipo)     H(rot)  DE(clash)    DE(int)     intcor
     14.84     -17.45       1.96        0.00      91.75       2.08       0.17       2.44       ----

> <Gold.Chemscore.Fitness>
14.8422

> <Gold.Chemscore.DG>
-17.4474

> <Gold.Chemscore.ZeroCoef>
-5.4800

> <Gold.Chemscore.Hbond>
1.9607

> <Gold.Chemscore.Metal>
0.0000

> <Gold.Chemscore.Lipo>
91.7458

> <Gold.Chemscore.Internal_Hbond>
0.0000

> <Gold.Chemscore.DEClash>
0.1665

> <Gold.Chemscore.DEInternal>
2.4387

> <Gold.Chemscore.Rot>
2.0764

> <Gold.Chemscore.Internal.Correction>
   9.000000E+99

> <Gold.Chemscore.Hbonds>
donor molecule, donor type, donor heavy atom, donor atom, acceptor molecule, acceptor atom, score
      L1  H     5    27       P1  7948  0.15
      P1  H  6896  6907       L1    21  0.86
      P1  H 10752 10765       L1     4  0.45

> <Gold.Chemscore.Hbond.Weighted>
-6.5486

> <Gold.Chemscore.Metal.Weighted>
-0.0000

> <Gold.Chemscore.Lipo.Weighted>
-10.7343

> <Gold.Chemscore.Internal_Hbond.Weighted>
0.0000

> <Gold.Chemscore.DEClash.Weighted>
0.1665

> <Gold.Chemscore.DEInternal.Weighted>
2.4387

> <Gold.Chemscore.Rot.Weighted>
5.3155

> <Gold.Chemscore.Internal.Correction.Weighted>
   9.000000E+99

> <Gold.Protein.RotatedTorsions>
[ 6907 6896 6895 6894 ] final  -99.00 input  -60.11 | X-H torsion
[ 7974 7965 7964 7962 ] final  -27.19 input  175.53 | X-H torsion
[ 8008 7997 7996 7995 ] final   83.56 input   59.86 | X-H torsion
[ 10167 10162 10161 10158 ] final  137.82 input  -65.29 | X-H torsion
[ 10718 10713 10712 10709 ] final   57.38 input   66.30 | X-H torsion
[ 10763 10752 10751 10750 ] final -154.05 input  -60.55 | X-H torsion
[ 11005 11000 10999 10996 ] final  -32.01 input  -57.11 | X-H torsion

> <Gold.Protein.ActiveResidues>
 VAL166  LYS551  ARG553  GLY616  TRP617  ASP618  TYR619  PRO620  LYS621  CYS622 
 ASP623  PHE694  ASN695  SER759  ASP760  ASP761  ALA762  ILE779  LEU786  VAL792 
 PHE793  MET794  SER795  GLU796  ALA797  LYS798  CYS799  TRP800  GLU811  SER814 

> <Gold.Protein.RotatedAtoms>
  150.7065  134.1108  159.3999 H   0  0  0  0  0  0  0  0  0  0  0  0  # atno 6907 bound_to 6896
  151.9095  135.0343  160.0522 H   0  0  0  0  0  0  0  0  0  0  0  0  # atno 6908 bound_to 6896
  152.2348  133.5052  159.5273 H   0  0  0  0  0  0  0  0  0  0  0  0  # atno 6909 bound_to 6896
  146.1374  140.5119  142.8666 H   0  0  0  0  0  0  0  0  0  0  0  0  # atno 7974 bound_to 7965
  155.9255  140.3418  155.6207 H   0  0  0  0  0  0  0  0  0  0  0  0  # atno 8008 bound_to 7997
  155.7221  140.0785  157.2344 H   0  0  0  0  0  0  0  0  0  0  0  0  # atno 8009 bound_to 7997
  154.4076  140.1603  156.2401 H   0  0  0  0  0  0  0  0  0  0  0  0  # atno 8010 bound_to 7997
  139.5131  144.6388  151.5624 H   0  0  0  0  0  0  0  0  0  0  0  0  # atno 10167 bound_to 10162
  157.5510  130.8765  149.8963 H   0  0  0  0  0  0  0  0  0  0  0  0  # atno 10718 bound_to 10713
  154.7886  135.3199  154.7830 H   0  0  0  0  0  0  0  0  0  0  0  0  # atno 10763 bound_to 10752
  153.8524  135.6861  153.4795 H   0  0  0  0  0  0  0  0  0  0  0  0  # atno 10764 bound_to 10752
  153.1547  135.4685  154.9627 H   0  0  0  0  0  0  0  0  0  0  0  0  # atno 10765 bound_to 10752
  140.9516  133.7217  156.1229 H   0  0  0  0  0  0  0  0  0  0  0  0  # atno 11005 bound_to 11000
  144.7755  140.5730  143.6641 LP  0  0  0  0  0  0  0  0  0  0  0  0  # atno 17320 bound_to 7965
  145.5124  139.1479  143.3597 LP  0  0  0  0  0  0  0  0  0  0  0  0  # atno 17321 bound_to 7965
  140.6147  143.9370  150.6480 LP  0  0  0  0  0  0  0  0  0  0  0  0  # atno 17342 bound_to 10162
  140.2624  143.3514  152.1311 LP  0  0  0  0  0  0  0  0  0  0  0  0  # atno 17343 bound_to 10162
  156.0576  130.3705  150.1054 LP  0  0  0  0  0  0  0  0  0  0  0  0  # atno 17370 bound_to 10713
  156.9227  130.9688  151.3546 LP  0  0  0  0  0  0  0  0  0  0  0  0  # atno 17371 bound_to 10713
  140.7594  134.3956  157.5528 LP  0  0  0  0  0  0  0  0  0  0  0  0  # atno 17394 bound_to 11000
  139.8849  134.8952  156.2674 LP  0  0  0  0  0  0  0  0  0  0  0  0  # atno 17395 bound_to 11000

$$$$
