AV-unprocessed.smi:1056|AV-procd|sdf|4636|dock6
  -GOLD-   22720 3143D 1   1.00000     0.00000
 Structure written by MMmdl.
 46 48  0  0  0  0  0  0  0  0  3 V2000
  152.5346  142.8162  161.3729 C   0  0  0  0  0  0  0  0  0  0  0  0
  152.3054  142.1635  160.0202 C   0  0  0  0  0  0  0  0  0  0  0  0
  151.3956  142.7683  159.1241 C   0  0  0  0  0  0  0  0  0  0  0  0
  151.2085  142.1476  157.8948 C   0  0  0  0  0  0  0  0  0  0  0  0
  150.3941  142.4901  156.8137 N   0  3  0  0  0  0  0  0  0  0  0  0
  150.5488  141.5733  155.8192 C   0  0  0  0  0  0  0  0  0  0  0  0
  151.4483  140.6468  156.2494 N   0  0  0  0  0  0  0  0  0  0  0  0
  151.9666  139.4539  155.5625 C   0  0  0  0  0  0  0  0  0  0  0  0
  150.8775  138.3975  155.2883 C   0  0  2  0  0  0  0  0  0  0  0  0
  151.4434  137.2952  154.6052 O   0  0  0  0  0  0  0  0  0  0  0  0
  149.7286  138.9695  154.4347 C   0  0  0  0  0  0  0  0  0  0  0  0
  148.7124  137.9432  154.0883 N   0  3  1  0  0  0  0  0  0  0  0  0
  148.4495  136.9760  155.1806 C   0  0  0  0  0  0  0  0  0  0  0  0
  147.5564  135.8309  154.6718 C   0  0  0  0  0  0  0  0  0  0  0  0
  146.4475  136.2973  153.8426 N   0  0  0  0  0  0  0  0  0  0  0  0
  146.3429  137.5207  153.2985 C   0  0  0  0  0  0  0  0  0  0  0  0
  145.3830  137.8388  152.6013 O   0  0  0  0  0  0  0  0  0  0  0  0
  147.4576  138.5434  153.5676 C   0  0  0  0  0  0  0  0  0  0  0  0
  151.8887  140.9657  157.5408 C   0  0  0  0  0  0  0  0  0  0  0  0
  152.7874  140.3562  158.4141 C   0  0  0  0  0  0  0  0  0  0  0  0
  152.9927  140.9730  159.6691 C   0  0  0  0  0  0  0  0  0  0  0  0
  153.9692  140.3314  160.6401 C   0  0  0  0  0  0  0  0  0  0  0  0
  151.9055  143.6971  161.5030 H   0  0  0  0  0  0  0  0  0  0  0  0
  153.5736  143.1304  161.4745 H   0  0  0  0  0  0  0  0  0  0  0  0
  152.3021  142.1204  162.1794 H   0  0  0  0  0  0  0  0  0  0  0  0
  150.8688  143.6748  159.3843 H   0  0  0  0  0  0  0  0  0  0  0  0
  150.0473  141.5817  154.8621 H   0  0  0  0  0  0  0  0  0  0  0  0
  152.3979  139.7922  154.6196 H   0  0  0  0  0  0  0  0  0  0  0  0
  152.7915  139.0336  156.1379 H   0  0  0  0  0  0  0  0  0  0  0  0
  150.4973  138.0394  156.2448 H   0  0  0  0  0  0  0  0  0  0  0  0
  150.8718  137.0519  153.8927 H   0  0  0  0  0  0  0  0  0  0  0  0
  149.2391  139.7965  154.9516 H   0  0  0  0  0  0  0  0  0  0  0  0
  150.1528  139.3927  153.5222 H   0  0  0  0  0  0  0  0  0  0  0  0
  149.3772  136.5639  155.5760 H   0  0  0  0  0  0  0  0  0  0  0  0
  147.9583  137.4950  156.0055 H   0  0  0  0  0  0  0  0  0  0  0  0
  148.1509  135.1433  154.0693 H   0  0  0  0  0  0  0  0  0  0  0  0
  147.1642  135.2544  155.5100 H   0  0  0  0  0  0  0  0  0  0  0  0
  145.7037  135.6375  153.6624 H   0  0  0  0  0  0  0  0  0  0  0  0
  147.0790  139.2727  154.2853 H   0  0  0  0  0  0  0  0  0  0  0  0
  147.6715  139.0830  152.6441 H   0  0  0  0  0  0  0  0  0  0  0  0
  153.3107  139.4487  158.1536 H   0  0  0  0  0  0  0  0  0  0  0  0
  154.4427  139.4497  160.2071 H   0  0  0  0  0  0  0  0  0  0  0  0
  153.4545  140.0211  161.5495 H   0  0  0  0  0  0  0  0  0  0  0  0
  154.7588  141.0328  160.9105 H   0  0  0  0  0  0  0  0  0  0  0  0
  149.0991  137.4106  153.3218 H   0  0  0  0  0  0  0  0  0  0  0  0
  149.7783  143.2914  156.7561 H   0  0  0  0  0  0  0  0  0  0  0  0
  1  2  1  0  0  0  0
  1 23  1  0  0  0  0
  1 24  1  0  0  0  0
  1 25  1  0  0  0  0
  2 21  1  0  0  0  0
  2  3  2  0  0  0  0
  3  4  1  0  0  0  0
  3 26  1  0  0  0  0
  4 19  2  0  0  0  0
  4  5  1  0  0  0  0
  5  6  2  0  0  0  0
  5 46  1  0  0  0  0
  6  7  1  0  0  0  0
  6 27  1  0  0  0  0
  7  8  1  0  0  0  0
  7 19  1  0  0  0  0
  8  9  1  0  0  0  0
  8 28  1  0  0  0  0
  8 29  1  0  0  0  0
  9 10  1  0  0  0  0
  9 11  1  0  0  0  0
  9 30  1  0  0  0  0
 10 31  1  0  0  0  0
 11 12  1  0  0  0  0
 11 32  1  0  0  0  0
 11 33  1  0  0  0  0
 12 18  1  0  0  0  0
 12 13  1  0  0  0  0
 12 45  1  0  0  0  0
 13 14  1  0  0  0  0
 13 34  1  0  0  0  0
 13 35  1  0  0  0  0
 14 15  1  0  0  0  0
 14 36  1  0  0  0  0
 14 37  1  0  0  0  0
 15 16  1  0  0  0  0
 15 38  1  0  0  0  0
 16 17  2  0  0  0  0
 16 18  1  0  0  0  0
 18 39  1  0  0  0  0
 18 40  1  0  0  0  0
 19 20  1  0  0  0  0
 20 21  2  0  0  0  0
 20 41  1  0  0  0  0
 21 22  1  0  0  0  0
 22 42  1  0  0  0  0
 22 43  1  0  0  0  0
 22 44  1  0  0  0  0
M  CHG  1   5   1
M  CHG  1  12   1
M  END
> <s_m_source_file>
AV-unprocessed.smi

> <i_m_source_file_index>
1056

> <i_lp_mmshare_version>
43012

> <i_f3d_flags>
0

> <s_epik_input>
W0NIM11jKFtjSF0xKWMoW0NIM10pW2NIXWMoYzEyKW4oW2NIXW4yKVtDSDJdW0NASF0oW09IXSlbQ0gyXU4zW0NIMl1bQ0gyXVtOSF1DKD1PKVtDSDJdMw==

> <s_epik_cmdline>
J2VwaWtfcHl0aG9uJywgJy1waCcsICc3LjAnLCAnLXRuJywgJzgnLCAnLW1hJywgJzIwMCcsICctbWV0YWxfYmluZGluZycsICctaW1hZScsICc8aW5maWxlLm1hZT4nLCAnLW9tYWUnLCAnPG91dGZpbGUubWFlPic=

> <r_epik_Ionization_Penalty>
1.262

> <r_epik_Ionization_Penalty_Charging>
1.26188

> <r_epik_Ionization_Penalty_Neutral>
0.000125436

> <r_epik_State_Penalty>
1.3387

> <r_epik_Charging_Adjusted_Penalty>
2.60058

> <i_epik_Tot_Q>
2

> <i_epik_Tot_abs_Q>
2

> <r_epik_Metal_State_Penalty>
1.58938

> <b_epik_Metal_Only>
0

> <s_lp_Force_Field>
OPLS_2005

> <r_lp_Energy>
35.3013

> <b_lp_Chiralities_Consistent>
1

> <s_lp_Variant>
AV-unprocessed.smi:1056-7

> <Gold.Version>
5.8.1

> <Gold.Id.Protein>
6NUR|6NUR_protein|mol2

> <Gold.PLP.Fitness>
50.9975

> <Gold.PLP.PLP>
-37.8752

> <Gold.PLP.part.hbond>
-2.8887

> <Gold.PLP.part.metal>
0.0000

> <Gold.PLP.part.buried>
-4.0817

> <Gold.PLP.part.nonpolar>
-30.9164

> <Gold.PLP.part.repulsive>
0.2832

> <Gold.PLP.ligand.clash>
0.0000

> <Gold.PLP.ligand.torsion>
0.1950

> <Gold.PLP.Chemscore.Hbond>
4.4875

> <Gold.PLP.Chemscore.CHOScore>
0.0000

> <Gold.PLP.Chemscore.Metal>
0.0000

> <Gold.Chemscore.Hbonds>
donor molecule, donor type, donor heavy atom, donor atom, acceptor molecule, acceptor atom, score
      L1  H     5    46       P1  8028  2.00
      L1  H    12    45       P1  7948  2.00
      P1  H 10752 10763       L1    10  0.47

> <Gold.PLP.Chemscore.Internal.Correction>
0.0498

> <Gold.Rescore>
     Score         DG    S(hbond)    S(metal)    S(lipo)     H(rot)  DE(clash)    DE(int)     intcor
     17.27     -17.58       2.03        0.00      98.81       2.44       0.12       0.20       ----

> <Gold.Chemscore.Fitness>
17.2658

> <Gold.Chemscore.DG>
-17.5812

> <Gold.Chemscore.ZeroCoef>
-5.4800

> <Gold.Chemscore.Hbond>
2.0286

> <Gold.Chemscore.Metal>
0.0000

> <Gold.Chemscore.Lipo>
98.8122

> <Gold.Chemscore.Internal_Hbond>
0.0000

> <Gold.Chemscore.DEClash>
0.1167

> <Gold.Chemscore.DEInternal>
0.1987

> <Gold.Chemscore.Rot>
2.4357

> <Gold.Chemscore.Internal.Correction>
   9.000000E+99

> <Gold.Chemscore.Hbonds>
donor molecule, donor type, donor heavy atom, donor atom, acceptor molecule, acceptor atom, score
      L1  H     5    46       P1  8028  0.91
      L1  H    12    45       P1  7948  0.97
      P1  H 10752 10763       L1    10  0.12

> <Gold.Chemscore.Hbond.Weighted>
-6.7755

> <Gold.Chemscore.Metal.Weighted>
-0.0000

> <Gold.Chemscore.Lipo.Weighted>
-11.5610

> <Gold.Chemscore.Internal_Hbond.Weighted>
0.0000

> <Gold.Chemscore.DEClash.Weighted>
0.1167

> <Gold.Chemscore.DEInternal.Weighted>
0.1987

> <Gold.Chemscore.Rot.Weighted>
6.2353

> <Gold.Chemscore.Internal.Correction.Weighted>
   9.000000E+99

> <Gold.Protein.RotatedTorsions>
[ 6907 6896 6895 6894 ] final  155.75 input  -60.11 | X-H torsion
[ 7974 7965 7964 7962 ] final -125.39 input  175.53 | X-H torsion
[ 8008 7997 7996 7995 ] final   -3.81 input   59.86 | X-H torsion
[ 10167 10162 10161 10158 ] final  -39.14 input  -65.29 | X-H torsion
[ 10718 10713 10712 10709 ] final  -49.16 input   66.30 | X-H torsion
[ 10763 10752 10751 10750 ] final   54.71 input  -60.55 | X-H torsion
[ 11005 11000 10999 10996 ] final  142.66 input  -57.11 | X-H torsion

> <Gold.Protein.ActiveResidues>
 VAL166  LYS551  ARG553  GLY616  TRP617  ASP618  TYR619  PRO620  LYS621  CYS622 
 ASP623  PHE694  ASN695  SER759  ASP760  ASP761  ALA762  ILE779  LEU786  VAL792 
 PHE793  MET794  SER795  GLU796  ALA797  LYS798  CYS799  TRP800  GLU811  SER814 

> <Gold.Protein.RotatedAtoms>
  152.0397  133.3972  159.4331 H   0  0  0  0  0  0  0  0  0  0  0  0  # atno 6907 bound_to 6896
  150.6876  134.3429  159.4885 H   0  0  0  0  0  0  0  0  0  0  0  0  # atno 6908 bound_to 6896
  152.1225  134.9194  160.0613 H   0  0  0  0  0  0  0  0  0  0  0  0  # atno 6909 bound_to 6896
  144.9981  140.7795  143.4513 H   0  0  0  0  0  0  0  0  0  0  0  0  # atno 7974 bound_to 7965
  154.6209  140.2500  155.7550 H   0  0  0  0  0  0  0  0  0  0  0  0  # atno 8008 bound_to 7997
  156.2426  140.2927  156.0436 H   0  0  0  0  0  0  0  0  0  0  0  0  # atno 8009 bound_to 7997
  155.1898  140.0391  157.2888 H   0  0  0  0  0  0  0  0  0  0  0  0  # atno 8010 bound_to 7997
  140.7072  143.3232  151.2741 H   0  0  0  0  0  0  0  0  0  0  0  0  # atno 10167 bound_to 10162
  156.1919  130.4153  149.9359 H   0  0  0  0  0  0  0  0  0  0  0  0  # atno 10718 bound_to 10713
  152.9808  135.5736  154.4948 H   0  0  0  0  0  0  0  0  0  0  0  0  # atno 10763 bound_to 10752
  154.4477  135.2777  155.1805 H   0  0  0  0  0  0  0  0  0  0  0  0  # atno 10764 bound_to 10752
  154.3446  135.6222  153.5667 H   0  0  0  0  0  0  0  0  0  0  0  0  # atno 10765 bound_to 10752
  140.0494  134.9264  157.0988 H   0  0  0  0  0  0  0  0  0  0  0  0  # atno 11005 bound_to 11000
  145.2191  139.2167  143.5102 LP  0  0  0  0  0  0  0  0  0  0  0  0  # atno 17320 bound_to 7965
  146.3446  140.2045  142.8589 LP  0  0  0  0  0  0  0  0  0  0  0  0  # atno 17321 bound_to 7965
  139.6693  144.0049  152.2743 LP  0  0  0  0  0  0  0  0  0  0  0  0  # atno 17342 bound_to 10162
  139.9642  144.6537  150.8050 LP  0  0  0  0  0  0  0  0  0  0  0  0  # atno 17343 bound_to 10162
  156.7096  130.8965  151.3608 LP  0  0  0  0  0  0  0  0  0  0  0  0  # atno 17370 bound_to 10713
  157.6934  130.9257  150.0577 LP  0  0  0  0  0  0  0  0  0  0  0  0  # atno 17371 bound_to 10713
  140.3942  134.2152  155.7165 LP  0  0  0  0  0  0  0  0  0  0  0  0  # atno 17394 bound_to 11000
  141.1923  133.8177  157.0846 LP  0  0  0  0  0  0  0  0  0  0  0  0  # atno 17395 bound_to 11000

$$$$
