AV-unprocessed.smi:1567|AV-procd|sdf|6308|dock2
  -GOLD-   22720 6503D 1   1.00000     0.00000
 Structure written by MMmdl.
 43 45  0  0  0  0  0  0  0  0  2 V2000
  149.1383  135.6055  154.4905 O   0  0  0  0  0  0  0  0  0  0  0  0
  150.5348  135.4287  154.5814 C   0  0  0  0  0  0  0  0  0  0  0  0
  151.1357  136.5197  155.4817 C   0  0  0  0  0  0  0  0  0  0  0  0
  151.5859  137.7753  154.7168 C   0  0  0  0  0  0  0  0  0  0  0  0
  150.4581  138.7265  154.4672 C   0  0  0  0  0  0  0  0  0  0  0  0
  149.3757  138.4839  153.6752 N   0  3  0  0  0  0  0  0  0  0  0  0
  148.5339  139.5965  153.6701 C   0  0  0  0  0  0  0  0  0  0  0  0
  147.3238  139.8193  153.0201 C   0  0  0  0  0  0  0  0  0  0  0  0
  146.7135  141.0731  153.2314 C   0  0  0  0  0  0  0  0  0  0  0  0
  147.3058  142.0470  154.0611 C   0  0  0  0  0  0  0  0  0  0  0  0
  148.5336  141.8099  154.7135 C   0  0  0  0  0  0  0  0  0  0  0  0
  149.1322  140.5682  154.4981 C   0  0  0  0  0  0  0  0  0  0  0  0
  150.3197  139.9899  154.9643 N   0  0  0  0  0  0  0  0  0  0  0  0
  151.1983  140.7594  155.8607 C   0  0  0  0  0  0  0  0  0  0  0  0
  150.9977  140.4059  157.3487 C   0  0  2  0  0  0  0  0  0  0  0  0
  149.6214  140.3952  157.6743 O   0  0  0  0  0  0  0  0  0  0  0  0
  151.7978  141.3305  158.2556 C   0  0  0  0  0  0  0  0  0  0  0  0
  151.6230  142.7280  158.1539 C   0  0  0  0  0  0  0  0  0  0  0  0
  152.3503  143.5998  158.9870 C   0  0  0  0  0  0  0  0  0  0  0  0
  152.1767  144.9384  158.8811 F   0  0  0  0  0  0  0  0  0  0  0  0
  153.2571  143.0801  159.9298 C   0  0  0  0  0  0  0  0  0  0  0  0
  153.4343  141.6879  160.0400 C   0  0  0  0  0  0  0  0  0  0  0  0
  152.7079  140.8136  159.2077 C   0  0  0  0  0  0  0  0  0  0  0  0
  152.8885  139.4766  159.3329 F   0  0  0  0  0  0  0  0  0  0  0  0
  148.9238  135.8711  153.6091 H   0  0  0  0  0  0  0  0  0  0  0  0
  150.7419  134.4379  154.9865 H   0  0  0  0  0  0  0  0  0  0  0  0
  150.9581  135.4684  153.5773 H   0  0  0  0  0  0  0  0  0  0  0  0
  150.4144  136.8011  156.2502 H   0  0  0  0  0  0  0  0  0  0  0  0
  151.9962  136.1075  156.0100 H   0  0  0  0  0  0  0  0  0  0  0  0
  152.3550  138.2952  155.2887 H   0  0  0  0  0  0  0  0  0  0  0  0
  152.0481  137.4942  153.7705 H   0  0  0  0  0  0  0  0  0  0  0  0
  146.8672  139.0738  152.3857 H   0  0  0  0  0  0  0  0  0  0  0  0
  145.7716  141.2916  152.7494 H   0  0  0  0  0  0  0  0  0  0  0  0
  146.8080  142.9955  154.2019 H   0  0  0  0  0  0  0  0  0  0  0  0
  148.9730  142.5612  155.3529 H   0  0  0  0  0  0  0  0  0  0  0  0
  152.2264  140.5471  155.5666 H   0  0  0  0  0  0  0  0  0  0  0  0
  151.0526  141.8238  155.6776 H   0  0  0  0  0  0  0  0  0  0  0  0
  151.3511  139.3863  157.5074 H   0  0  0  0  0  0  0  0  0  0  0  0
  149.5033  140.8533  158.4926 H   0  0  0  0  0  0  0  0  0  0  0  0
  150.9288  143.1394  157.4357 H   0  0  0  0  0  0  0  0  0  0  0  0
  153.8154  143.7485  160.5687 H   0  0  0  0  0  0  0  0  0  0  0  0
  154.1284  141.2893  160.7652 H   0  0  0  0  0  0  0  0  0  0  0  0
  149.2260  137.6174  153.1743 H   0  0  0  0  0  0  0  0  0  0  0  0
  1  2  1  0  0  0  0
  1 25  1  0  0  0  0
  2  3  1  0  0  0  0
  2 26  1  0  0  0  0
  2 27  1  0  0  0  0
  3  4  1  0  0  0  0
  3 28  1  0  0  0  0
  3 29  1  0  0  0  0
  4  5  1  0  0  0  0
  4 30  1  0  0  0  0
  4 31  1  0  0  0  0
  5 13  1  0  0  0  0
  5  6  2  0  0  0  0
  6  7  1  0  0  0  0
  6 43  1  0  0  0  0
  7 12  2  0  0  0  0
  7  8  1  0  0  0  0
  8  9  2  0  0  0  0
  8 32  1  0  0  0  0
  9 10  1  0  0  0  0
  9 33  1  0  0  0  0
 10 11  2  0  0  0  0
 10 34  1  0  0  0  0
 11 12  1  0  0  0  0
 11 35  1  0  0  0  0
 12 13  1  0  0  0  0
 13 14  1  0  0  0  0
 14 15  1  0  0  0  0
 14 36  1  0  0  0  0
 14 37  1  0  0  0  0
 15 16  1  0  0  0  0
 15 17  1  0  0  0  0
 15 38  1  0  0  0  0
 16 39  1  0  0  0  0
 17 23  1  0  0  0  0
 17 18  2  0  0  0  0
 18 19  1  0  0  0  0
 18 40  1  0  0  0  0
 19 20  1  0  0  0  0
 19 21  2  0  0  0  0
 21 22  1  0  0  0  0
 21 41  1  0  0  0  0
 22 23  2  0  0  0  0
 22 42  1  0  0  0  0
 23 24  1  0  0  0  0
M  CHG  1   6   1
M  END
> <s_m_source_file>
AV-unprocessed.smi

> <i_m_source_file_index>
1567

> <i_lp_mmshare_version>
43012

> <i_f3d_flags>
0

> <s_epik_input>
W09IXVtDSDJdW0NIMl1bQ0gyXWMobjEpbihjKGMxMilbY0hdW2NIXVtjSF1bY0hdMilbQ0gyXVtDQEhdKFtPSF0pYzNbY0hdYyhGKVtjSF1bY0hdYzNG

> <s_epik_cmdline>
J2VwaWtfcHl0aG9uJywgJy1waCcsICc3LjAnLCAnLXRuJywgJzgnLCAnLW1hJywgJzIwMCcsICctbWV0YWxfYmluZGluZycsICctaW1hZScsICc8aW5maWxlLm1hZT4nLCAnLW9tYWUnLCAnPG91dGZpbGUubWFlPic=

> <r_epik_Ionization_Penalty>
0.786443

> <r_epik_Ionization_Penalty_Charging>
0.786439

> <r_epik_Ionization_Penalty_Neutral>
3.69699e-06

> <r_epik_State_Penalty>
0.816472

> <r_epik_Charging_Adjusted_Penalty>
1.60291

> <i_epik_Tot_Q>
1

> <i_epik_Tot_abs_Q>
1

> <r_epik_Metal_State_Penalty>
4.73733

> <b_epik_Metal_Only>
0

> <s_lp_Force_Field>
OPLS_2005

> <r_lp_Energy>
17.4114

> <b_lp_Chiralities_Consistent>
1

> <s_lp_Variant>
AV-unprocessed.smi:1567-3

> <Gold.Version>
5.8.1

> <Gold.Id.Protein>
6NUR|6NUR_protein|mol2

> <Gold.PLP.Fitness>
63.1410

> <Gold.PLP.PLP>
-55.7038

> <Gold.PLP.part.hbond>
-2.9206

> <Gold.PLP.part.metal>
0.0000

> <Gold.PLP.part.buried>
0.3058

> <Gold.PLP.part.nonpolar>
-53.5535

> <Gold.PLP.part.repulsive>
0.0527

> <Gold.PLP.ligand.clash>
0.0000

> <Gold.PLP.ligand.torsion>
0.8284

> <Gold.PLP.Chemscore.Hbond>
3.0000

> <Gold.PLP.Chemscore.CHOScore>
0.0000

> <Gold.PLP.Chemscore.Metal>
0.0000

> <Gold.Chemscore.Hbonds>
donor molecule, donor type, donor heavy atom, donor atom, acceptor molecule, acceptor atom, score
      L1  H     1    25       P1  7948  1.00
      L1  H     6    43       P1  7948  2.00

> <Gold.PLP.Chemscore.Internal.Correction>
0.0940

> <Gold.Rescore>
     Score         DG    S(hbond)    S(metal)    S(lipo)     H(rot)  DE(clash)    DE(int)     intcor
     17.53     -18.66       1.83        0.00     132.95       3.31       0.44       0.69       ----

> <Gold.Chemscore.Fitness>
17.5293

> <Gold.Chemscore.DG>
-18.6588

> <Gold.Chemscore.ZeroCoef>
-5.4800

> <Gold.Chemscore.Hbond>
1.8274

> <Gold.Chemscore.Metal>
0.0000

> <Gold.Chemscore.Lipo>
132.9539

> <Gold.Chemscore.Internal_Hbond>
0.0000

> <Gold.Chemscore.DEClash>
0.4378

> <Gold.Chemscore.DEInternal>
0.6917

> <Gold.Chemscore.Rot>
3.3127

> <Gold.Chemscore.Internal.Correction>
   9.000000E+99

> <Gold.Chemscore.Hbonds>
donor molecule, donor type, donor heavy atom, donor atom, acceptor molecule, acceptor atom, score
      L1  H     1    25       P1  7948  0.96
      L1  H     6    43       P1  7948  0.99

> <Gold.Chemscore.Hbond.Weighted>
-6.1037

> <Gold.Chemscore.Metal.Weighted>
-0.0000

> <Gold.Chemscore.Lipo.Weighted>
-15.5556

> <Gold.Chemscore.Internal_Hbond.Weighted>
0.0000

> <Gold.Chemscore.DEClash.Weighted>
0.4378

> <Gold.Chemscore.DEInternal.Weighted>
0.6917

> <Gold.Chemscore.Rot.Weighted>
8.4805

> <Gold.Chemscore.Internal.Correction.Weighted>
   9.000000E+99

> <Gold.Protein.RotatedTorsions>
[ 6907 6896 6895 6894 ] final  -77.34 input  -60.11 | X-H torsion
[ 7974 7965 7964 7962 ] final  -43.92 input  175.53 | X-H torsion
[ 8008 7997 7996 7995 ] final  -65.13 input   59.86 | X-H torsion
[ 10167 10162 10161 10158 ] final   13.06 input  -65.29 | X-H torsion
[ 10718 10713 10712 10709 ] final   -5.88 input   66.30 | X-H torsion
[ 10763 10752 10751 10750 ] final  -12.05 input  -60.55 | X-H torsion
[ 11005 11000 10999 10996 ] final  119.55 input  -57.11 | X-H torsion

> <Gold.Protein.ActiveResidues>
 VAL166  LYS551  ARG553  GLY616  TRP617  ASP618  TYR619  PRO620  LYS621  CYS622 
 ASP623  PHE694  ASN695  SER759  ASP760  ASP761  ALA762  ILE779  LEU786  VAL792 
 PHE793  MET794  SER795  GLU796  ALA797  LYS798  CYS799  TRP800  GLU811  SER814 

> <Gold.Protein.RotatedAtoms>
  150.7001  134.4437  159.5303 H   0  0  0  0  0  0  0  0  0  0  0  0  # atno 6907 bound_to 6896
  152.2143  134.8470  160.0503 H   0  0  0  0  0  0  0  0  0  0  0  0  # atno 6908 bound_to 6896
  151.9344  133.3585  159.3979 H   0  0  0  0  0  0  0  0  0  0  0  0  # atno 6909 bound_to 6896
  145.9971  140.7116  142.9288 H   0  0  0  0  0  0  0  0  0  0  0  0  # atno 7974 bound_to 7965
  154.4653  140.0939  156.7003 H   0  0  0  0  0  0  0  0  0  0  0  0  # atno 8008 bound_to 7997
  155.4876  140.3469  155.4331 H   0  0  0  0  0  0  0  0  0  0  0  0  # atno 8009 bound_to 7997
  156.0945  140.1406  156.9538 H   0  0  0  0  0  0  0  0  0  0  0  0  # atno 8010 bound_to 7997
  140.6027  143.8571  150.6982 H   0  0  0  0  0  0  0  0  0  0  0  0  # atno 10167 bound_to 10162
  156.7400  130.5207  149.5826 H   0  0  0  0  0  0  0  0  0  0  0  0  # atno 10718 bound_to 10713
  153.4927  135.7017  153.5875 H   0  0  0  0  0  0  0  0  0  0  0  0  # atno 10763 bound_to 10752
  153.4041  135.3865  155.2007 H   0  0  0  0  0  0  0  0  0  0  0  0  # atno 10764 bound_to 10752
  154.8716  135.3888  154.4389 H   0  0  0  0  0  0  0  0  0  0  0  0  # atno 10765 bound_to 10752
  139.9151  134.9629  156.7673 H   0  0  0  0  0  0  0  0  0  0  0  0  # atno 11005 bound_to 11000
  144.6907  140.3170  143.7239 LP  0  0  0  0  0  0  0  0  0  0  0  0  # atno 17320 bound_to 7965
  145.7543  139.1804  143.2303 LP  0  0  0  0  0  0  0  0  0  0  0  0  # atno 17321 bound_to 7965
  140.2121  143.3875  152.1710 LP  0  0  0  0  0  0  0  0  0  0  0  0  # atno 17342 bound_to 10162
  139.5303  144.7151  151.5081 LP  0  0  0  0  0  0  0  0  0  0  0  0  # atno 17343 bound_to 10162
  156.1471  130.6284  151.0545 LP  0  0  0  0  0  0  0  0  0  0  0  0  # atno 17370 bound_to 10713
  157.6822  131.0835  150.7339 LP  0  0  0  0  0  0  0  0  0  0  0  0  # atno 17371 bound_to 10713
  140.6649  133.9611  155.7825 LP  0  0  0  0  0  0  0  0  0  0  0  0  # atno 17394 bound_to 11000
  141.0617  134.0336  157.3649 LP  0  0  0  0  0  0  0  0  0  0  0  0  # atno 17395 bound_to 11000

$$$$
