AV-unprocessed.smi:3345|AV-procd|sdf|12904|dock2
  -GOLD-   2272019313D 1   1.00000     0.00000
 Structure written by MMmdl.
 41 42  0  0  0  0  0  0  0  0  2 V2000
  145.9457  137.8904  154.6727 C   0  0  0  0  0  0  0  0  0  0  0  0
  146.4572  136.5354  154.1652 C   0  0  1  0  0  0  0  0  0  0  0  0
  145.9191  136.2278  152.7485 C   0  0  0  0  0  0  0  0  0  0  0  0
  146.4716  134.9746  152.1750 N   0  3  0  0  0  0  0  0  0  0  0  0
  146.7108  133.9158  153.1856 C   0  0  0  0  0  0  0  0  0  0  0  0
  147.3591  132.6889  152.5237 C   0  0  0  0  0  0  0  0  0  0  0  0
  146.5216  132.2178  151.4746 O   0  0  0  0  0  0  0  0  0  0  0  0
  146.3400  133.1948  150.4570 C   0  0  0  0  0  0  0  0  0  0  0  0
  145.6660  134.4437  151.0509 C   0  0  0  0  0  0  0  0  0  0  0  0
  147.9203  136.5411  154.1925 N   0  0  0  0  0  0  0  0  0  0  0  0
  148.6944  136.1650  155.2240 C   0  0  0  0  0  0  0  0  0  0  0  0
  148.2406  135.7186  156.2781 O   0  0  0  0  0  0  0  0  0  0  0  0
  150.2103  136.3128  155.0267 C   0  0  2  0  0  0  0  0  0  0  0  0
  151.0181  135.5791  156.1164 C   0  0  0  0  0  0  0  0  0  0  0  0
  150.5658  137.7228  154.9268 N   0  0  0  0  0  0  0  0  0  0  0  0
  150.2102  138.6340  154.0182 C   0  0  0  0  0  0  0  0  0  0  0  0
  150.6785  139.8498  154.2622 N   0  0  0  0  0  0  0  0  0  0  0  0
  151.3538  139.6054  155.4241 C   0  0  0  0  0  0  0  0  0  0  0  0
  151.3082  138.3511  155.8725 N   0  0  0  0  0  0  0  0  0  0  0  0
  144.8560  137.9113  154.7026 H   0  0  0  0  0  0  0  0  0  0  0  0
  146.2760  138.7080  154.0308 H   0  0  0  0  0  0  0  0  0  0  0  0
  146.3053  138.0931  155.6823 H   0  0  0  0  0  0  0  0  0  0  0  0
  146.0898  135.7805  154.8617 H   0  0  0  0  0  0  0  0  0  0  0  0
  144.8291  136.1778  152.7508 H   0  0  0  0  0  0  0  0  0  0  0  0
  146.1812  137.0645  152.0990 H   0  0  0  0  0  0  0  0  0  0  0  0
  147.3612  134.2852  153.9779 H   0  0  0  0  0  0  0  0  0  0  0  0
  145.7667  133.6323  153.6533 H   0  0  0  0  0  0  0  0  0  0  0  0
  148.3494  132.9338  152.1356 H   0  0  0  0  0  0  0  0  0  0  0  0
  147.4914  131.8920  153.2555 H   0  0  0  0  0  0  0  0  0  0  0  0
  147.3005  133.4486  150.0053 H   0  0  0  0  0  0  0  0  0  0  0  0
  145.7184  132.7720  149.6676 H   0  0  0  0  0  0  0  0  0  0  0  0
  144.6619  134.1993  151.4014 H   0  0  0  0  0  0  0  0  0  0  0  0
  145.5613  135.2047  150.2767 H   0  0  0  0  0  0  0  0  0  0  0  0
  148.3826  136.8939  153.3668 H   0  0  0  0  0  0  0  0  0  0  0  0
  150.4670  135.8512  154.0715 H   0  0  0  0  0  0  0  0  0  0  0  0
  150.7719  134.5170  156.1390 H   0  0  0  0  0  0  0  0  0  0  0  0
  150.8285  135.9821  157.1120 H   0  0  0  0  0  0  0  0  0  0  0  0
  152.0887  135.6617  155.9267 H   0  0  0  0  0  0  0  0  0  0  0  0
  149.5921  138.4047  153.1626 H   0  0  0  0  0  0  0  0  0  0  0  0
  151.8883  140.3763  155.9595 H   0  0  0  0  0  0  0  0  0  0  0  0
  147.3725  135.2152  151.7860 H   0  0  0  0  0  0  0  0  0  0  0  0
  1  2  1  0  0  0  0
  1 20  1  0  0  0  0
  1 21  1  0  0  0  0
  1 22  1  0  0  0  0
  2  3  1  0  0  0  0
  2 10  1  0  0  0  0
  2 23  1  0  0  0  0
  3  4  1  0  0  0  0
  3 24  1  0  0  0  0
  3 25  1  0  0  0  0
  4  9  1  0  0  0  0
  4  5  1  0  0  0  0
  4 41  1  0  0  0  0
  5  6  1  0  0  0  0
  5 26  1  0  0  0  0
  5 27  1  0  0  0  0
  6  7  1  0  0  0  0
  6 28  1  0  0  0  0
  6 29  1  0  0  0  0
  7  8  1  0  0  0  0
  8  9  1  0  0  0  0
  8 30  1  0  0  0  0
  8 31  1  0  0  0  0
  9 32  1  0  0  0  0
  9 33  1  0  0  0  0
 10 11  1  0  0  0  0
 10 34  1  0  0  0  0
 11 12  2  0  0  0  0
 11 13  1  0  0  0  0
 13 14  1  0  0  0  0
 13 15  1  0  0  0  0
 13 35  1  0  0  0  0
 14 36  1  0  0  0  0
 14 37  1  0  0  0  0
 14 38  1  0  0  0  0
 15 19  1  0  0  0  0
 15 16  1  0  0  0  0
 16 17  2  0  0  0  0
 16 39  1  0  0  0  0
 17 18  1  0  0  0  0
 18 19  2  0  0  0  0
 18 40  1  0  0  0  0
M  CHG  1   4   1
M  END
> <s_m_source_file>
AV-unprocessed.smi

> <i_m_source_file_index>
3345

> <i_lp_mmshare_version>
43012

> <i_f3d_flags>
0

> <s_epik_input>
W0NIMl0xW0NIMl1PW0NIMl1bQ0gyXU4xW0NIMl1bQ0BASF0oW0NIM10pW05IXUMoPU8pW0NASF0oW0NIM10pbjJbY0hdbltjSF1uMg==

> <s_epik_cmdline>
J2VwaWtfcHl0aG9uJywgJy1waCcsICc3LjAnLCAnLXRuJywgJzgnLCAnLW1hJywgJzIwMCcsICctbWV0YWxfYmluZGluZycsICctaW1hZScsICc8aW5maWxlLm1hZT4nLCAnLW9tYWUnLCAnPG91dGZpbGUubWFlPic=

> <r_lp_tautomer_probability>
1

> <r_epik_Ionization_Penalty>
0.71326

> <r_epik_Ionization_Penalty_Charging>
0.713252

> <r_epik_Ionization_Penalty_Neutral>
8.27671e-06

> <r_epik_State_Penalty>
0.737017

> <r_epik_Charging_Adjusted_Penalty>
1.45027

> <i_epik_Tot_Q>
1

> <i_epik_Tot_abs_Q>
1

> <r_epik_Metal_State_Penalty>
0.73702

> <b_epik_Metal_Only>
0

> <s_lp_Force_Field>
OPLS_2005

> <r_lp_Energy>
28.084

> <b_lp_Chiralities_Consistent>
1

> <s_lp_Variant>
AV-unprocessed.smi:3345-6

> <Gold.Version>
5.8.1

> <Gold.Id.Protein>
6NUR|6NUR_protein|mol2

> <Gold.PLP.Fitness>
39.2033

> <Gold.PLP.PLP>
-24.4101

> <Gold.PLP.part.hbond>
-3.0000

> <Gold.PLP.part.metal>
0.0000

> <Gold.PLP.part.buried>
-2.0063

> <Gold.PLP.part.nonpolar>
-19.2738

> <Gold.PLP.part.repulsive>
0.3189

> <Gold.PLP.ligand.clash>
0.0000

> <Gold.PLP.ligand.torsion>
0.9291

> <Gold.PLP.Chemscore.Hbond>
3.7680

> <Gold.PLP.Chemscore.CHOScore>
1.7287

> <Gold.PLP.Chemscore.Metal>
0.0000

> <Gold.Chemscore.Hbonds>
donor molecule, donor type, donor heavy atom, donor atom, acceptor molecule, acceptor atom, score
      L1  H     4    41       P1  7948  2.00
      L1  H    10    34       P1  7948  0.74
      P1  H  7989  7998       L1    17  1.00
      L1  C    16    39       P1  7948  0.90
      L1  C    16    39       P1  7957  0.70

> <Gold.PLP.Chemscore.Internal.Correction>
0.1615

> <Gold.Rescore>
     Score         DG    S(hbond)    S(metal)    S(lipo)     H(rot)  DE(clash)    DE(int)     intcor
     11.44     -12.45       2.84        0.00      35.83       2.61       0.07       0.94       ----

> <Gold.Chemscore.Fitness>
11.4421

> <Gold.Chemscore.DG>
-12.4534

> <Gold.Chemscore.ZeroCoef>
-5.4800

> <Gold.Chemscore.Hbond>
2.8360

> <Gold.Chemscore.Metal>
0.0000

> <Gold.Chemscore.Lipo>
35.8328

> <Gold.Chemscore.Internal_Hbond>
0.0000

> <Gold.Chemscore.DEClash>
0.0672

> <Gold.Chemscore.DEInternal>
0.9442

> <Gold.Chemscore.Rot>
2.6138

> <Gold.Chemscore.Internal.Correction>
   9.000000E+99

> <Gold.Chemscore.Hbonds>
donor molecule, donor type, donor heavy atom, donor atom, acceptor molecule, acceptor atom, score
      L1  H     4    41       P1  7948  0.91
      L1  H    10    34       P1  7948  0.74
      P1  H  7989  7998       L1    17  0.44

> <Gold.Chemscore.Hbond.Weighted>
-9.4722

> <Gold.Chemscore.Metal.Weighted>
-0.0000

> <Gold.Chemscore.Lipo.Weighted>
-4.1924

> <Gold.Chemscore.Internal_Hbond.Weighted>
0.0000

> <Gold.Chemscore.DEClash.Weighted>
0.0672

> <Gold.Chemscore.DEInternal.Weighted>
0.9442

> <Gold.Chemscore.Rot.Weighted>
6.6912

> <Gold.Chemscore.Internal.Correction.Weighted>
   9.000000E+99

> <Gold.Protein.RotatedTorsions>
[ 6907 6896 6895 6894 ] final  176.01 input  -60.11 | X-H torsion
[ 7974 7965 7964 7962 ] final -177.08 input  175.53 | X-H torsion
[ 8008 7997 7996 7995 ] final -159.03 input   59.86 | X-H torsion
[ 10167 10162 10161 10158 ] final  127.34 input  -65.29 | X-H torsion
[ 10718 10713 10712 10709 ] final  -16.27 input   66.30 | X-H torsion
[ 10763 10752 10751 10750 ] final    0.32 input  -60.55 | X-H torsion
[ 11005 11000 10999 10996 ] final    5.24 input  -57.11 | X-H torsion

> <Gold.Protein.ActiveResidues>
 VAL166  LYS551  ARG553  GLY616  TRP617  ASP618  TYR619  PRO620  LYS621  CYS622 
 ASP623  PHE694  ASN695  SER759  ASP760  ASP761  ALA762  ILE779  LEU786  VAL792 
 PHE793  MET794  SER795  GLU796  ALA797  LYS798  CYS799  TRP800  GLU811  SER814 

> <Gold.Protein.RotatedAtoms>
  151.7270  133.3316  159.3329 H   0  0  0  0  0  0  0  0  0  0  0  0  # atno 6907 bound_to 6896
  150.7629  134.6398  159.6240 H   0  0  0  0  0  0  0  0  0  0  0  0  # atno 6908 bound_to 6896
  152.3616  134.6866  160.0257 H   0  0  0  0  0  0  0  0  0  0  0  0  # atno 6909 bound_to 6896
  144.7127  140.1072  143.6413 H   0  0  0  0  0  0  0  0  0  0  0  0  # atno 7974 bound_to 7965
  155.7565  140.0833  157.2176 H   0  0  0  0  0  0  0  0  0  0  0  0  # atno 8008 bound_to 7997
  154.4007  140.1551  156.2839 H   0  0  0  0  0  0  0  0  0  0  0  0  # atno 8009 bound_to 7997
  155.8881  140.3417  155.5939 H   0  0  0  0  0  0  0  0  0  0  0  0  # atno 8010 bound_to 7997
  139.5584  144.6864  151.4116 H   0  0  0  0  0  0  0  0  0  0  0  0  # atno 10167 bound_to 10162
  156.5899  130.4796  149.6284 H   0  0  0  0  0  0  0  0  0  0  0  0  # atno 10718 bound_to 10713
  153.3221  135.6970  153.7021 H   0  0  0  0  0  0  0  0  0  0  0  0  # atno 10763 bound_to 10752
  153.5857  135.3489  155.2892 H   0  0  0  0  0  0  0  0  0  0  0  0  # atno 10764 bound_to 10752
  154.8600  135.4306  154.2388 H   0  0  0  0  0  0  0  0  0  0  0  0  # atno 10765 bound_to 10752
  140.5729  134.0085  155.8016 H   0  0  0  0  0  0  0  0  0  0  0  0  # atno 11005 bound_to 11000
  145.9486  139.2718  143.1226 LP  0  0  0  0  0  0  0  0  0  0  0  0  # atno 17320 bound_to 7965
  145.9347  140.9023  143.0338 LP  0  0  0  0  0  0  0  0  0  0  0  0  # atno 17321 bound_to 7965
  140.6860  143.7973  150.7187 LP  0  0  0  0  0  0  0  0  0  0  0  0  # atno 17342 bound_to 10162
  140.1441  143.4415  152.2175 LP  0  0  0  0  0  0  0  0  0  0  0  0  # atno 17343 bound_to 10162
  156.2558  130.6934  151.1687 LP  0  0  0  0  0  0  0  0  0  0  0  0  # atno 17370 bound_to 10713
  157.7306  131.0615  150.5718 LP  0  0  0  0  0  0  0  0  0  0  0  0  # atno 17371 bound_to 10713
  141.1045  133.9716  157.3021 LP  0  0  0  0  0  0  0  0  0  0  0  0  # atno 17394 bound_to 11000
  139.9353  135.0197  156.8536 LP  0  0  0  0  0  0  0  0  0  0  0  0  # atno 17395 bound_to 11000

$$$$
