AV-unprocessed.smi:1940|AV-procd|sdf|7839|dock10
  -GOLD-   22720 9583D 1   1.00000     0.00000
 Structure written by MMmdl.
 49 51  0  0  0  0  0  0  0  0  1 V2000
  144.6187  137.4891  153.3335 C   0  0  0  0  0  0  0  0  0  0  0  0
  145.5814  136.2926  153.3264 C   0  0  2  0  0  0  0  0  0  0  0  0
  146.9488  136.7813  153.4985 N   0  0  0  0  0  0  0  0  0  0  0  0
  147.3502  137.7076  154.3812 C   0  0  0  0  0  0  0  0  0  0  0  0
  146.5899  138.2766  155.1631 O   0  0  0  0  0  0  0  0  0  0  0  0
  148.6742  137.9181  154.2840 N   0  0  0  0  0  0  0  0  0  0  0  0
  149.5069  138.8065  155.0194 C   0  0  0  0  0  0  0  0  0  0  0  0
  150.8979  138.9724  154.8193 C   0  0  0  0  0  0  0  0  0  0  0  0
  151.5966  139.8968  155.6196 C   0  0  0  0  0  0  0  0  0  0  0  0
  150.8944  140.6370  156.5988 C   0  0  0  0  0  0  0  0  0  0  0  0
  151.5807  141.5644  157.4120 N   0  0  0  0  0  0  0  0  0  0  0  0
  151.1708  142.9689  157.3347 C   0  0  0  0  0  0  0  0  0  0  0  0
  152.2250  143.8915  157.9696 C   0  0  0  0  0  0  0  0  0  0  0  0
  152.5497  143.4517  159.4044 C   0  0  0  0  0  0  0  0  0  0  0  0
  152.9772  141.9765  159.4179 C   0  0  0  0  0  0  0  0  0  0  0  0
  151.9131  141.0847  158.7551 C   0  0  0  0  0  0  0  0  0  0  0  0
  149.5603  140.4835  156.7810 N   0  0  0  0  0  0  0  0  0  0  0  0
  148.8950  139.5959  156.0134 C   0  0  0  0  0  0  0  0  0  0  0  0
  145.4732  135.4722  152.0261 C   0  0  1  0  0  0  0  0  0  0  0  0
  146.2542  134.1568  152.0304 C   0  0  0  0  0  0  0  0  0  0  0  0
  145.5272  133.3694  150.9651 C   0  0  0  0  0  0  0  0  0  0  0  0
  144.0770  133.7795  151.2057 C   0  0  0  0  0  0  0  0  0  0  0  0
  144.1233  135.0794  151.7900 O   0  0  0  0  0  0  0  0  0  0  0  0
  143.5831  137.1611  153.2389 H   0  0  0  0  0  0  0  0  0  0  0  0
  144.8269  138.1734  152.5103 H   0  0  0  0  0  0  0  0  0  0  0  0
  144.6990  138.0519  154.2640 H   0  0  0  0  0  0  0  0  0  0  0  0
  145.3060  135.6430  154.1593 H   0  0  0  0  0  0  0  0  0  0  0  0
  147.6491  136.3707  152.8984 H   0  0  0  0  0  0  0  0  0  0  0  0
  149.1484  137.3857  153.5695 H   0  0  0  0  0  0  0  0  0  0  0  0
  151.4478  138.4254  154.0708 H   0  0  0  0  0  0  0  0  0  0  0  0
  152.6559  140.0390  155.4648 H   0  0  0  0  0  0  0  0  0  0  0  0
  151.0229  143.2605  156.2941 H   0  0  0  0  0  0  0  0  0  0  0  0
  150.2136  143.0907  157.8437 H   0  0  0  0  0  0  0  0  0  0  0  0
  153.1346  143.8736  157.3676 H   0  0  0  0  0  0  0  0  0  0  0  0
  151.8705  144.9224  157.9642 H   0  0  0  0  0  0  0  0  0  0  0  0
  153.3386  144.0781  159.8216 H   0  0  0  0  0  0  0  0  0  0  0  0
  151.6727  143.5870  160.0387 H   0  0  0  0  0  0  0  0  0  0  0  0
  153.9252  141.8662  158.8895 H   0  0  0  0  0  0  0  0  0  0  0  0
  153.1534  141.6472  160.4421 H   0  0  0  0  0  0  0  0  0  0  0  0
  151.0033  141.0842  159.3568 H   0  0  0  0  0  0  0  0  0  0  0  0
  152.2748  140.0575  158.7374 H   0  0  0  0  0  0  0  0  0  0  0  0
  147.8345  139.5134  156.2026 H   0  0  0  0  0  0  0  0  0  0  0  0
  145.7974  136.0727  151.1739 H   0  0  0  0  0  0  0  0  0  0  0  0
  147.3149  134.2884  151.8146 H   0  0  0  0  0  0  0  0  0  0  0  0
  146.1605  133.6563  152.9954 H   0  0  0  0  0  0  0  0  0  0  0  0
  145.8506  133.6946  149.9754 H   0  0  0  0  0  0  0  0  0  0  0  0
  145.6854  132.2934  151.0409 H   0  0  0  0  0  0  0  0  0  0  0  0
  143.4904  133.7784  150.2867 H   0  0  0  0  0  0  0  0  0  0  0  0
  143.5994  133.1006  151.9128 H   0  0  0  0  0  0  0  0  0  0  0  0
  1  2  1  0  0  0  0
  1 24  1  0  0  0  0
  1 25  1  0  0  0  0
  1 26  1  0  0  0  0
  2  3  1  0  0  0  0
  2 19  1  0  0  0  0
  2 27  1  0  0  0  0
  3  4  1  0  0  0  0
  3 28  1  0  0  0  0
  4  5  2  0  0  0  0
  4  6  1  0  0  0  0
  6  7  1  0  0  0  0
  6 29  1  0  0  0  0
  7 18  1  0  0  0  0
  7  8  2  0  0  0  0
  8  9  1  0  0  0  0
  8 30  1  0  0  0  0
  9 10  2  0  0  0  0
  9 31  1  0  0  0  0
 10 11  1  0  0  0  0
 10 17  1  0  0  0  0
 11 16  1  0  0  0  0
 11 12  1  0  0  0  0
 12 13  1  0  0  0  0
 12 32  1  0  0  0  0
 12 33  1  0  0  0  0
 13 14  1  0  0  0  0
 13 34  1  0  0  0  0
 13 35  1  0  0  0  0
 14 15  1  0  0  0  0
 14 36  1  0  0  0  0
 14 37  1  0  0  0  0
 15 16  1  0  0  0  0
 15 38  1  0  0  0  0
 15 39  1  0  0  0  0
 16 40  1  0  0  0  0
 16 41  1  0  0  0  0
 17 18  2  0  0  0  0
 18 42  1  0  0  0  0
 19 23  1  0  0  0  0
 19 20  1  0  0  0  0
 19 43  1  0  0  0  0
 20 21  1  0  0  0  0
 20 44  1  0  0  0  0
 20 45  1  0  0  0  0
 21 22  1  0  0  0  0
 21 46  1  0  0  0  0
 21 47  1  0  0  0  0
 22 23  1  0  0  0  0
 22 48  1  0  0  0  0
 22 49  1  0  0  0  0
M  END
> <s_m_source_file>
AV-unprocessed.smi

> <i_m_source_file_index>
1940

> <i_lp_mmshare_version>
43012

> <i_f3d_flags>
0

> <s_epik_input>
TzFbQ0gyXVtDSDJdW0NIMl1bQ0BIXTFbQ0BIXShbQ0gzXSlbTkhdQyg9TylbTkhdYzJbY0hdW2NIXWMobltjSF0yKU4zW0NIMl1bQ0gyXVtDSDJdW0NIMl1bQ0gyXTM=

> <s_epik_cmdline>
J2VwaWtfcHl0aG9uJywgJy1waCcsICc3LjAnLCAnLXRuJywgJzgnLCAnLW1hJywgJzIwMCcsICctbWV0YWxfYmluZGluZycsICctaW1hZScsICc8aW5maWxlLm1hZT4nLCAnLW9tYWUnLCAnPG91dGZpbGUubWFlPic=

> <r_lp_tautomer_probability>
1

> <r_epik_Ionization_Penalty>
0.105688

> <r_epik_Ionization_Penalty_Charging>
0

> <r_epik_Ionization_Penalty_Neutral>
0.105688

> <r_epik_State_Penalty>
0.0895745

> <r_epik_Charging_Adjusted_Penalty>
0.0895745

> <i_epik_Tot_Q>
0

> <i_epik_Tot_abs_Q>
0

> <r_epik_Metal_State_Penalty>
0.0765749

> <b_epik_Metal_Only>
0

> <s_lp_Force_Field>
OPLS_2005

> <r_lp_Energy>
32.8596

> <b_lp_Chiralities_Consistent>
1

> <s_lp_Variant>
AV-unprocessed.smi:1940-3

> <Gold.Version>
5.8.1

> <Gold.Id.Protein>
6NUR|6NUR_protein|mol2

> <Gold.PLP.Fitness>
43.4630

> <Gold.PLP.PLP>
-38.3346

> <Gold.PLP.part.hbond>
-1.9601

> <Gold.PLP.part.metal>
0.0000

> <Gold.PLP.part.buried>
-3.5850

> <Gold.PLP.part.nonpolar>
-33.0155

> <Gold.PLP.part.repulsive>
0.2514

> <Gold.PLP.ligand.clash>
0.0000

> <Gold.PLP.ligand.torsion>
0.4885

> <Gold.PLP.Chemscore.Hbond>
1.8960

> <Gold.PLP.Chemscore.CHOScore>
0.0000

> <Gold.PLP.Chemscore.Metal>
0.0000

> <Gold.Chemscore.Hbonds>
donor molecule, donor type, donor heavy atom, donor atom, acceptor molecule, acceptor atom, score
      L1  H     3    28       P1  7948  1.00
      L1  H     6    29       P1  7948  0.92

> <Gold.PLP.Chemscore.Internal.Correction>
0.4173

> <Gold.Rescore>
     Score         DG    S(hbond)    S(metal)    S(lipo)     H(rot)  DE(clash)    DE(int)     intcor
     18.12     -20.17       1.91        0.00     100.17       1.34       0.05       2.01       ----

> <Gold.Chemscore.Fitness>
18.1154

> <Gold.Chemscore.DG>
-20.1661

> <Gold.Chemscore.ZeroCoef>
-5.4800

> <Gold.Chemscore.Hbond>
1.9119

> <Gold.Chemscore.Metal>
0.0000

> <Gold.Chemscore.Lipo>
100.1738

> <Gold.Chemscore.Internal_Hbond>
0.0000

> <Gold.Chemscore.DEClash>
0.0451

> <Gold.Chemscore.DEInternal>
2.0056

> <Gold.Chemscore.Rot>
1.3359

> <Gold.Chemscore.Internal.Correction>
   9.000000E+99

> <Gold.Chemscore.Hbonds>
donor molecule, donor type, donor heavy atom, donor atom, acceptor molecule, acceptor atom, score
      L1  H     3    28       P1  7948  1.00
      L1  H     6    29       P1  7948  0.83

> <Gold.Chemscore.Hbond.Weighted>
-6.3856

> <Gold.Chemscore.Metal.Weighted>
-0.0000

> <Gold.Chemscore.Lipo.Weighted>
-11.7203

> <Gold.Chemscore.Internal_Hbond.Weighted>
0.0000

> <Gold.Chemscore.DEClash.Weighted>
0.0451

> <Gold.Chemscore.DEInternal.Weighted>
2.0056

> <Gold.Chemscore.Rot.Weighted>
3.4199

> <Gold.Chemscore.Internal.Correction.Weighted>
   9.000000E+99

> <Gold.Protein.RotatedTorsions>
[ 6907 6896 6895 6894 ] final   26.85 input  -60.11 | X-H torsion
[ 7974 7965 7964 7962 ] final    6.33 input  175.53 | X-H torsion
[ 8008 7997 7996 7995 ] final -146.10 input   59.86 | X-H torsion
[ 10167 10162 10161 10158 ] final  162.07 input  -65.29 | X-H torsion
[ 10718 10713 10712 10709 ] final   24.99 input   66.30 | X-H torsion
[ 10763 10752 10751 10750 ] final  -90.12 input  -60.55 | X-H torsion
[ 11005 11000 10999 10996 ] final   75.41 input  -57.11 | X-H torsion

> <Gold.Protein.ActiveResidues>
 VAL166  LYS551  ARG553  GLY616  TRP617  ASP618  TYR619  PRO620  LYS621  CYS622 
 ASP623  PHE694  ASN695  SER759  ASP760  ASP761  ALA762  ILE779  LEU786  VAL792 
 PHE793  MET794  SER795  GLU796  ALA797  LYS798  CYS799  TRP800  GLU811  SER814 

> <Gold.Protein.RotatedAtoms>
  151.9936  134.9966  160.0562 H   0  0  0  0  0  0  0  0  0  0  0  0  # atno 6907 bound_to 6896
  152.1585  133.4562  159.4857 H   0  0  0  0  0  0  0  0  0  0  0  0  # atno 6908 bound_to 6896
  150.6884  134.2018  159.4368 H   0  0  0  0  0  0  0  0  0  0  0  0  # atno 6909 bound_to 6896
  146.2435  140.0250  142.8394 H   0  0  0  0  0  0  0  0  0  0  0  0  # atno 7974 bound_to 7965
  155.5539  140.0619  157.2844 H   0  0  0  0  0  0  0  0  0  0  0  0  # atno 8008 bound_to 7997
  154.4412  140.1897  156.0759 H   0  0  0  0  0  0  0  0  0  0  0  0  # atno 8009 bound_to 7997
  156.0496  140.3286  155.7339 H   0  0  0  0  0  0  0  0  0  0  0  0  # atno 8010 bound_to 7997
  139.4856  144.4474  151.8874 H   0  0  0  0  0  0  0  0  0  0  0  0  # atno 10167 bound_to 10162
  157.1873  130.6830  149.6136 H   0  0  0  0  0  0  0  0  0  0  0  0  # atno 10718 bound_to 10713
  154.6624  135.5316  153.8035 H   0  0  0  0  0  0  0  0  0  0  0  0  # atno 10763 bound_to 10752
  153.0450  135.6509  154.0851 H   0  0  0  0  0  0  0  0  0  0  0  0  # atno 10764 bound_to 10752
  154.0758  135.2951  155.3279 H   0  0  0  0  0  0  0  0  0  0  0  0  # atno 10765 bound_to 10752
  139.9345  134.7515  156.1267 H   0  0  0  0  0  0  0  0  0  0  0  0  # atno 11005 bound_to 11000
  145.1206  140.9460  143.4602 LP  0  0  0  0  0  0  0  0  0  0  0  0  # atno 17320 bound_to 7965
  145.0485  139.3201  143.5941 LP  0  0  0  0  0  0  0  0  0  0  0  0  # atno 17321 bound_to 7965
  140.3928  144.2593  150.5898 LP  0  0  0  0  0  0  0  0  0  0  0  0  # atno 17342 bound_to 10162
  140.5130  143.2285  151.8507 LP  0  0  0  0  0  0  0  0  0  0  0  0  # atno 17343 bound_to 10162
  155.9716  130.4626  150.6153 LP  0  0  0  0  0  0  0  0  0  0  0  0  # atno 17370 bound_to 10713
  157.3894  131.0793  151.1407 LP  0  0  0  0  0  0  0  0  0  0  0  0  # atno 17371 bound_to 10713
  141.0952  133.6698  156.2628 LP  0  0  0  0  0  0  0  0  0  0  0  0  # atno 17394 bound_to 11000
  140.6112  134.5456  157.5534 LP  0  0  0  0  0  0  0  0  0  0  0  0  # atno 17395 bound_to 11000

$$$$
