AV-unprocessed.smi:3048|AV-procd|sdf|11628|dock5
  -GOLD-   2272017 13D 1   1.00000     0.00000
 Structure written by MMmdl.
 37 38  0  0  0  0  0  0  0  0  1 V2000
  152.6206  143.7984  162.3522 C   0  0  0  0  0  0  0  0  0  0  0  0
  152.2737  144.1779  160.9415 C   0  0  0  0  0  0  0  0  0  0  0  0
  151.9676  145.4729  160.4344 C   0  0  0  0  0  0  0  0  0  0  0  0
  151.6996  145.4684  159.1388 N   0  0  0  0  0  0  0  0  0  0  0  0
  151.8239  144.1748  158.7740 N   0  0  0  0  0  0  0  0  0  0  0  0
  151.5909  143.7875  157.3946 C   0  0  0  0  0  0  0  0  0  0  0  0
  151.1555  142.3190  157.2646 C   0  0  0  0  0  0  0  0  0  0  0  0
  149.8555  142.2015  156.6099 N   0  0  0  0  0  0  0  0  0  0  0  0
  149.8908  141.4091  155.3855 C   0  0  0  0  0  0  0  0  0  0  0  0
  150.6291  140.0803  155.6069 C   0  0  1  0  0  0  0  0  0  0  0  0
  149.7665  139.0741  156.3932 C   0  0  0  0  0  0  0  0  0  0  0  0
  150.4892  137.7279  156.5221 C   0  0  0  0  0  0  0  0  0  0  0  0
  150.9176  137.2359  155.1355 C   0  0  0  0  0  0  0  0  0  0  0  0
  151.7100  138.3300  154.4032 C   0  0  0  0  0  0  0  0  0  0  0  0
  150.9337  139.5219  154.3300 O   0  0  0  0  0  0  0  0  0  0  0  0
  152.1713  143.3743  159.8415 C   0  0  0  0  0  0  0  0  0  0  0  0
  153.1032  144.6184  162.8844 H   0  0  0  0  0  0  0  0  0  0  0  0
  153.3026  142.9485  162.3862 H   0  0  0  0  0  0  0  0  0  0  0  0
  151.7331  143.5226  162.9222 H   0  0  0  0  0  0  0  0  0  0  0  0
  151.9315  146.4115  160.9677 H   0  0  0  0  0  0  0  0  0  0  0  0
  150.8212  144.4404  156.9803 H   0  0  0  0  0  0  0  0  0  0  0  0
  152.4987  143.9711  156.8180 H   0  0  0  0  0  0  0  0  0  0  0  0
  151.9100  141.7616  156.7081 H   0  0  0  0  0  0  0  0  0  0  0  0
  151.1080  141.8699  158.2572 H   0  0  0  0  0  0  0  0  0  0  0  0
  149.4924  143.1272  156.4054 H   0  0  0  0  0  0  0  0  0  0  0  0
  148.8684  141.1980  155.0689 H   0  0  0  0  0  0  0  0  0  0  0  0
  150.3585  141.9705  154.5757 H   0  0  0  0  0  0  0  0  0  0  0  0
  151.5536  140.2673  156.1572 H   0  0  0  0  0  0  0  0  0  0  0  0
  149.5354  139.4668  157.3840 H   0  0  0  0  0  0  0  0  0  0  0  0
  148.8129  138.9293  155.8836 H   0  0  0  0  0  0  0  0  0  0  0  0
  151.3674  137.8424  157.1587 H   0  0  0  0  0  0  0  0  0  0  0  0
  149.8442  136.9929  157.0048 H   0  0  0  0  0  0  0  0  0  0  0  0
  151.5161  136.3288  155.2241 H   0  0  0  0  0  0  0  0  0  0  0  0
  150.0353  136.9735  154.5505 H   0  0  0  0  0  0  0  0  0  0  0  0
  152.6568  138.5300  154.9073 H   0  0  0  0  0  0  0  0  0  0  0  0
  151.9519  138.0042  153.3915 H   0  0  0  0  0  0  0  0  0  0  0  0
  152.3109  142.3088  159.7311 H   0  0  0  0  0  0  0  0  0  0  0  0
  1  2  1  0  0  0  0
  1 17  1  0  0  0  0
  1 18  1  0  0  0  0
  1 19  1  0  0  0  0
  2 16  2  0  0  0  0
  2  3  1  0  0  0  0
  3  4  2  0  0  0  0
  3 20  1  0  0  0  0
  4  5  1  0  0  0  0
  5  6  1  0  0  0  0
  5 16  1  0  0  0  0
  6  7  1  0  0  0  0
  6 21  1  0  0  0  0
  6 22  1  0  0  0  0
  7  8  1  0  0  0  0
  7 23  1  0  0  0  0
  7 24  1  0  0  0  0
  8  9  1  0  0  0  0
  8 25  1  0  0  0  0
  9 10  1  0  0  0  0
  9 26  1  0  0  0  0
  9 27  1  0  0  0  0
 10 15  1  0  0  0  0
 10 11  1  0  0  0  0
 10 28  1  0  0  0  0
 11 12  1  0  0  0  0
 11 29  1  0  0  0  0
 11 30  1  0  0  0  0
 12 13  1  0  0  0  0
 12 31  1  0  0  0  0
 12 32  1  0  0  0  0
 13 14  1  0  0  0  0
 13 33  1  0  0  0  0
 13 34  1  0  0  0  0
 14 15  1  0  0  0  0
 14 35  1  0  0  0  0
 14 36  1  0  0  0  0
 16 37  1  0  0  0  0
M  END
> <s_m_source_file>
AV-unprocessed.smi

> <i_m_source_file_index>
3048

> <i_lp_mmshare_version>
43012

> <i_f3d_flags>
0

> <s_epik_input>
W0NIM11jMVtjSF1ubihbY0hdMSlbQ0gyXVtDSDJdW05IXVtDSDJdW0NAQEhdMltDSDJdW0NIMl1bQ0gyXVtDSDJdTzI=

> <s_epik_cmdline>
J2VwaWtfcHl0aG9uJywgJy1waCcsICc3LjAnLCAnLXRuJywgJzgnLCAnLW1hJywgJzIwMCcsICctbWV0YWxfYmluZGluZycsICctaW1hZScsICc8aW5maWxlLm1hZT4nLCAnLW9tYWUnLCAnPG91dGZpbGUubWFlPic=

> <r_lp_tautomer_probability>
1

> <r_epik_Ionization_Penalty>
2.52229

> <r_epik_Ionization_Penalty_Charging>
0

> <r_epik_Ionization_Penalty_Neutral>
2.52229

> <r_epik_State_Penalty>
2.68614

> <r_epik_Charging_Adjusted_Penalty>
2.68614

> <i_epik_Tot_Q>
0

> <i_epik_Tot_abs_Q>
0

> <r_epik_Metal_State_Penalty>
2.68365

> <b_epik_Metal_Only>
0

> <s_lp_Force_Field>
OPLS_2005

> <r_lp_Energy>
12.9812

> <b_lp_Chiralities_Consistent>
1

> <s_lp_Variant>
AV-unprocessed.smi:3048-4

> <Gold.Version>
5.8.1

> <Gold.Id.Protein>
6NUR|6NUR_protein|mol2

> <Gold.PLP.Fitness>
42.4529

> <Gold.PLP.PLP>
-38.9214

> <Gold.PLP.part.hbond>
-2.5899

> <Gold.PLP.part.metal>
0.0000

> <Gold.PLP.part.buried>
-4.1223

> <Gold.PLP.part.nonpolar>
-32.4308

> <Gold.PLP.part.repulsive>
0.2649

> <Gold.PLP.ligand.clash>
0.0000

> <Gold.PLP.ligand.torsion>
1.2481

> <Gold.PLP.Chemscore.Hbond>
2.0000

> <Gold.PLP.Chemscore.CHOScore>
0.0000

> <Gold.PLP.Chemscore.Metal>
0.0000

> <Gold.Chemscore.Hbonds>
donor molecule, donor type, donor heavy atom, donor atom, acceptor molecule, acceptor atom, score
      L1  H     8    25       P1  8028  1.00
      P1  H  7989  7998       L1    15  1.00

> <Gold.PLP.Chemscore.Internal.Correction>
0.0276

> <Gold.Rescore>
     Score         DG    S(hbond)    S(metal)    S(lipo)     H(rot)  DE(clash)    DE(int)     intcor
     18.11     -19.61       1.79        0.00     103.54       1.54       0.10       1.40       ----

> <Gold.Chemscore.Fitness>
18.1066

> <Gold.Chemscore.DG>
-19.6146

> <Gold.Chemscore.ZeroCoef>
-5.4800

> <Gold.Chemscore.Hbond>
1.7862

> <Gold.Chemscore.Metal>
0.0000

> <Gold.Chemscore.Lipo>
103.5382

> <Gold.Chemscore.Internal_Hbond>
0.0000

> <Gold.Chemscore.DEClash>
0.1049

> <Gold.Chemscore.DEInternal>
1.4031

> <Gold.Chemscore.Rot>
1.5411

> <Gold.Chemscore.Internal.Correction>
   9.000000E+99

> <Gold.Chemscore.Hbonds>
donor molecule, donor type, donor heavy atom, donor atom, acceptor molecule, acceptor atom, score
      L1  H     8    25       P1  8028  1.00
      P1  H  7989  7998       L1    15  0.37

> <Gold.Chemscore.Hbond.Weighted>
-5.9659

> <Gold.Chemscore.Metal.Weighted>
-0.0000

> <Gold.Chemscore.Lipo.Weighted>
-12.1140

> <Gold.Chemscore.Internal_Hbond.Weighted>
0.0000

> <Gold.Chemscore.DEClash.Weighted>
0.1049

> <Gold.Chemscore.DEInternal.Weighted>
1.4031

> <Gold.Chemscore.Rot.Weighted>
3.9452

> <Gold.Chemscore.Internal.Correction.Weighted>
   9.000000E+99

> <Gold.Protein.RotatedTorsions>
[ 6907 6896 6895 6894 ] final -128.65 input  -60.11 | X-H torsion
[ 7974 7965 7964 7962 ] final -107.09 input  175.53 | X-H torsion
[ 8008 7997 7996 7995 ] final  133.68 input   59.86 | X-H torsion
[ 10167 10162 10161 10158 ] final  116.94 input  -65.29 | X-H torsion
[ 10718 10713 10712 10709 ] final  131.74 input   66.30 | X-H torsion
[ 10763 10752 10751 10750 ] final  -66.44 input  -60.55 | X-H torsion
[ 11005 11000 10999 10996 ] final  -15.63 input  -57.11 | X-H torsion

> <Gold.Protein.ActiveResidues>
 VAL166  LYS551  ARG553  GLY616  TRP617  ASP618  TYR619  PRO620  LYS621  CYS622 
 ASP623  PHE694  ASN695  SER759  ASP760  ASP761  ALA762  ILE779  LEU786  VAL792 
 PHE793  MET794  SER795  GLU796  ALA797  LYS798  CYS799  TRP800  GLU811  SER814 

> <Gold.Protein.RotatedAtoms>
  150.9201  133.6890  159.2833 H   0  0  0  0  0  0  0  0  0  0  0  0  # atno 6907 bound_to 6896
  151.4348  135.1012  159.9662 H   0  0  0  0  0  0  0  0  0  0  0  0  # atno 6908 bound_to 6896
  152.4975  133.8623  159.7311 H   0  0  0  0  0  0  0  0  0  0  0  0  # atno 6909 bound_to 6896
  145.2097  140.9091  143.3321 H   0  0  0  0  0  0  0  0  0  0  0  0  # atno 7974 bound_to 7965
  156.2994  140.2515  156.3292 H   0  0  0  0  0  0  0  0  0  0  0  0  # atno 8008 bound_to 7997
  154.9161  140.0402  157.1991 H   0  0  0  0  0  0  0  0  0  0  0  0  # atno 8009 bound_to 7997
  154.8357  140.2883  155.5696 H   0  0  0  0  0  0  0  0  0  0  0  0  # atno 8010 bound_to 7997
  139.6212  144.7101  151.2630 H   0  0  0  0  0  0  0  0  0  0  0  0  # atno 10167 bound_to 10162
  157.4938  131.1091  150.9520 H   0  0  0  0  0  0  0  0  0  0  0  0  # atno 10718 bound_to 10713
  154.3598  135.6118  153.5685 H   0  0  0  0  0  0  0  0  0  0  0  0  # atno 10763 bound_to 10752
  152.9794  135.5812  154.4646 H   0  0  0  0  0  0  0  0  0  0  0  0  # atno 10764 bound_to 10752
  154.4381  135.2849  155.1844 H   0  0  0  0  0  0  0  0  0  0  0  0  # atno 10765 bound_to 10752
  140.7986  133.8231  155.9448 H   0  0  0  0  0  0  0  0  0  0  0  0  # atno 11005 bound_to 11000
  144.9868  139.3729  143.6235 LP  0  0  0  0  0  0  0  0  0  0  0  0  # atno 17320 bound_to 7965
  146.3400  139.9033  142.8791 LP  0  0  0  0  0  0  0  0  0  0  0  0  # atno 17321 bound_to 7965
  140.7383  143.6652  150.8129 LP  0  0  0  0  0  0  0  0  0  0  0  0  # atno 17342 bound_to 10162
  140.0263  143.5490  152.2779 LP  0  0  0  0  0  0  0  0  0  0  0  0  # atno 17343 bound_to 10162
  157.0213  130.5675  149.5332 LP  0  0  0  0  0  0  0  0  0  0  0  0  # atno 17370 bound_to 10713
  156.0189  130.5283  150.8216 LP  0  0  0  0  0  0  0  0  0  0  0  0  # atno 17371 bound_to 10713
  140.9317  134.2013  157.4859 LP  0  0  0  0  0  0  0  0  0  0  0  0  # atno 17394 bound_to 11000
  139.8724  134.9836  156.5203 LP  0  0  0  0  0  0  0  0  0  0  0  0  # atno 17395 bound_to 11000

$$$$
