AV-unprocessed.smi:3331|AV-procd|sdf|12826|dock10
  -GOLD-   2272019203D 1   1.00000     0.00000
 Structure written by MMmdl.
 46 47  0  0  0  0  0  0  0  0  1 V2000
  146.6458  139.1407  152.9663 C   0  0  0  0  0  0  0  0  0  0  0  0
  147.3189  139.7310  154.2128 C   0  0  2  0  0  0  0  0  0  0  0  0
  146.2932  140.4384  155.1273 C   0  0  0  0  0  0  0  0  0  0  0  0
  146.9519  141.1630  156.3226 C   0  0  1  0  0  0  0  0  0  0  0  0
  147.3720  140.1853  157.4345 C   0  0  0  0  0  0  0  0  0  0  0  0
  148.1216  142.0424  155.8281 C   0  0  0  0  0  0  0  0  0  0  0  0
  149.0738  141.2214  155.0641 N   0  0  0  0  0  0  0  0  0  0  0  0
  150.3334  140.8852  155.4456 C   0  0  0  0  0  0  0  0  0  0  0  0
  151.0521  140.1676  154.7472 O   0  0  0  0  0  0  0  0  0  0  0  0
  150.8969  141.4160  156.7815 C   0  0  1  0  0  0  0  0  0  0  0  0
  152.0359  140.5182  157.3144 C   0  0  0  0  0  0  0  0  0  0  0  0
  151.3456  142.8080  156.6127 N   0  0  0  0  0  0  0  0  0  0  0  0
  151.7172  143.4414  157.8721 C   0  0  0  0  0  0  0  0  0  0  0  0
  153.2162  143.2364  158.1482 C   0  0  0  0  0  0  0  0  0  0  0  0
  153.4940  143.0178  159.5571 N   0  0  0  0  0  0  0  0  0  0  0  0
  154.1392  141.9509  160.1465 C   0  0  0  0  0  0  0  0  0  0  0  0
  154.1654  142.1843  161.4916 C   0  0  0  0  0  0  0  0  0  0  0  0
  153.4990  143.4338  161.6305 C   0  0  0  0  0  0  0  0  0  0  0  0
  153.0960  143.9289  160.4714 N   0  0  0  0  0  0  0  0  0  0  0  0
  148.4569  140.7022  153.8357 C   0  0  0  0  0  0  0  0  0  0  0  0
  146.1880  139.9199  152.3563 H   0  0  0  0  0  0  0  0  0  0  0  0
  145.8657  138.4303  153.2412 H   0  0  0  0  0  0  0  0  0  0  0  0
  147.3681  138.6120  152.3437 H   0  0  0  0  0  0  0  0  0  0  0  0
  147.7567  138.9005  154.7687 H   0  0  0  0  0  0  0  0  0  0  0  0
  145.7487  141.1762  154.5364 H   0  0  0  0  0  0  0  0  0  0  0  0
  145.5450  139.7276  155.4805 H   0  0  0  0  0  0  0  0  0  0  0  0
  146.2026  141.8254  156.7581 H   0  0  0  0  0  0  0  0  0  0  0  0
  148.1240  139.4746  157.0918 H   0  0  0  0  0  0  0  0  0  0  0  0
  146.5171  139.6119  157.7937 H   0  0  0  0  0  0  0  0  0  0  0  0
  147.7880  140.7213  158.2879 H   0  0  0  0  0  0  0  0  0  0  0  0
  147.7354  142.8234  155.1713 H   0  0  0  0  0  0  0  0  0  0  0  0
  148.5660  142.5803  156.6628 H   0  0  0  0  0  0  0  0  0  0  0  0
  150.0949  141.3748  157.5182 H   0  0  0  0  0  0  0  0  0  0  0  0
  151.7437  139.4672  157.3192 H   0  0  0  0  0  0  0  0  0  0  0  0
  152.3015  140.7683  158.3410 H   0  0  0  0  0  0  0  0  0  0  0  0
  152.9376  140.6100  156.7073 H   0  0  0  0  0  0  0  0  0  0  0  0
  150.6268  143.3692  156.1783 H   0  0  0  0  0  0  0  0  0  0  0  0
  151.5074  144.5101  157.8125 H   0  0  0  0  0  0  0  0  0  0  0  0
  151.1327  143.0429  158.7007 H   0  0  0  0  0  0  0  0  0  0  0  0
  153.6052  142.4000  157.5646 H   0  0  0  0  0  0  0  0  0  0  0  0
  153.7722  144.1195  157.8319 H   0  0  0  0  0  0  0  0  0  0  0  0
  154.5241  141.1258  159.5654 H   0  0  0  0  0  0  0  0  0  0  0  0
  154.5949  141.5582  162.2593 H   0  0  0  0  0  0  0  0  0  0  0  0
  153.2961  143.9913  162.5330 H   0  0  0  0  0  0  0  0  0  0  0  0
  149.1728  140.1995  153.1840 H   0  0  0  0  0  0  0  0  0  0  0  0
  148.0644  141.5348  153.2497 H   0  0  0  0  0  0  0  0  0  0  0  0
  1  2  1  0  0  0  0
  1 21  1  0  0  0  0
  1 22  1  0  0  0  0
  1 23  1  0  0  0  0
  2 20  1  0  0  0  0
  2  3  1  0  0  0  0
  2 24  1  0  0  0  0
  3  4  1  0  0  0  0
  3 25  1  0  0  0  0
  3 26  1  0  0  0  0
  4  5  1  0  0  0  0
  4  6  1  0  0  0  0
  4 27  1  0  0  0  0
  5 28  1  0  0  0  0
  5 29  1  0  0  0  0
  5 30  1  0  0  0  0
  6  7  1  0  0  0  0
  6 31  1  0  0  0  0
  6 32  1  0  0  0  0
  7  8  1  0  0  0  0
  7 20  1  0  0  0  0
  8  9  2  0  0  0  0
  8 10  1  0  0  0  0
 10 11  1  0  0  0  0
 10 12  1  0  0  0  0
 10 33  1  0  0  0  0
 11 34  1  0  0  0  0
 11 35  1  0  0  0  0
 11 36  1  0  0  0  0
 12 13  1  0  0  0  0
 12 37  1  0  0  0  0
 13 14  1  0  0  0  0
 13 38  1  0  0  0  0
 13 39  1  0  0  0  0
 14 15  1  0  0  0  0
 14 40  1  0  0  0  0
 14 41  1  0  0  0  0
 15 19  1  0  0  0  0
 15 16  1  0  0  0  0
 16 17  2  0  0  0  0
 16 42  1  0  0  0  0
 17 18  1  0  0  0  0
 17 43  1  0  0  0  0
 18 19  2  0  0  0  0
 18 44  1  0  0  0  0
 20 45  1  0  0  0  0
 20 46  1  0  0  0  0
M  END
> <s_m_source_file>
AV-unprocessed.smi

> <i_m_source_file_index>
3331

> <i_lp_mmshare_version>
43012

> <i_f3d_flags>
0

> <s_epik_input>
W0NIM11bQ0BASF0xW0NIMl1bQ0BASF0oW0NIM10pW0NIMl1OKFtDSDJdMSlDKD1PKVtDQEhdKFtDSDNdKVtOSF1bQ0gyXVtDSDJdbjJbY0hdW2NIXVtjSF1uMg==

> <s_epik_cmdline>
J2VwaWtfcHl0aG9uJywgJy1waCcsICc3LjAnLCAnLXRuJywgJzgnLCAnLW1hJywgJzIwMCcsICctbWV0YWxfYmluZGluZycsICctaW1hZScsICc8aW5maWxlLm1hZT4nLCAnLW9tYWUnLCAnPG91dGZpbGUubWFlPic=

> <r_lp_tautomer_probability>
1

> <r_epik_Ionization_Penalty>
0.767994

> <r_epik_Ionization_Penalty_Charging>
0

> <r_epik_Ionization_Penalty_Neutral>
0.767994

> <r_epik_State_Penalty>
0.795453

> <r_epik_Charging_Adjusted_Penalty>
0.795453

> <i_epik_Tot_Q>
0

> <i_epik_Tot_abs_Q>
0

> <r_epik_Metal_State_Penalty>
0.794784

> <b_epik_Metal_Only>
0

> <s_lp_Force_Field>
OPLS_2005

> <r_lp_Energy>
31.6007

> <b_lp_Chiralities_Consistent>
1

> <s_lp_Variant>
AV-unprocessed.smi:3331-10

> <Gold.Version>
5.8.1

> <Gold.Id.Protein>
6NUR|6NUR_protein|mol2

> <Gold.PLP.Fitness>
46.7058

> <Gold.PLP.PLP>
-42.8579

> <Gold.PLP.part.hbond>
-2.0000

> <Gold.PLP.part.metal>
0.0000

> <Gold.PLP.part.buried>
0.1195

> <Gold.PLP.part.nonpolar>
-40.8951

> <Gold.PLP.part.repulsive>
0.1691

> <Gold.PLP.ligand.clash>
0.0000

> <Gold.PLP.ligand.torsion>
1.0979

> <Gold.PLP.Chemscore.Hbond>
2.0000

> <Gold.PLP.Chemscore.CHOScore>
0.0000

> <Gold.PLP.Chemscore.Metal>
0.0000

> <Gold.Chemscore.Hbonds>
donor molecule, donor type, donor heavy atom, donor atom, acceptor molecule, acceptor atom, score
      L1  H    12    37       P1  8028  0.44
      P1  H  7989  7998       L1     9  1.00

> <Gold.PLP.Chemscore.Internal.Correction>
0.0437

> <Gold.Rescore>
     Score         DG    S(hbond)    S(metal)    S(lipo)     H(rot)  DE(clash)    DE(int)     intcor
     13.46     -19.06       1.45        0.00     111.15       1.66       4.30       1.30       ----

> <Gold.Chemscore.Fitness>
13.4630

> <Gold.Chemscore.DG>
-19.0629

> <Gold.Chemscore.ZeroCoef>
-5.4800

> <Gold.Chemscore.Hbond>
1.4491

> <Gold.Chemscore.Metal>
0.0000

> <Gold.Chemscore.Lipo>
111.1542

> <Gold.Chemscore.Internal_Hbond>
0.0000

> <Gold.Chemscore.DEClash>
4.2953

> <Gold.Chemscore.DEInternal>
1.3046

> <Gold.Chemscore.Rot>
1.6649

> <Gold.Chemscore.Internal.Correction>
   9.000000E+99

> <Gold.Chemscore.Hbonds>
donor molecule, donor type, donor heavy atom, donor atom, acceptor molecule, acceptor atom, score
      L1  H    12    37       P1  8028  0.44
      P1  H  7989  7998       L1     9  0.83

> <Gold.Chemscore.Hbond.Weighted>
-4.8399

> <Gold.Chemscore.Metal.Weighted>
-0.0000

> <Gold.Chemscore.Lipo.Weighted>
-13.0050

> <Gold.Chemscore.Internal_Hbond.Weighted>
0.0000

> <Gold.Chemscore.DEClash.Weighted>
4.2953

> <Gold.Chemscore.DEInternal.Weighted>
1.3046

> <Gold.Chemscore.Rot.Weighted>
4.2621

> <Gold.Chemscore.Internal.Correction.Weighted>
   9.000000E+99

> <Gold.Protein.RotatedTorsions>
[ 6907 6896 6895 6894 ] final  -22.54 input  -60.11 | X-H torsion
[ 7974 7965 7964 7962 ] final   91.35 input  175.53 | X-H torsion
[ 8008 7997 7996 7995 ] final  -40.65 input   59.86 | X-H torsion
[ 10167 10162 10161 10158 ] final   33.98 input  -65.29 | X-H torsion
[ 10718 10713 10712 10709 ] final -120.12 input   66.30 | X-H torsion
[ 10763 10752 10751 10750 ] final   78.31 input  -60.55 | X-H torsion
[ 11005 11000 10999 10996 ] final  -45.91 input  -57.11 | X-H torsion

> <Gold.Protein.ActiveResidues>
 VAL166  LYS551  ARG553  GLY616  TRP617  ASP618  TYR619  PRO620  LYS621  CYS622 
 ASP623  PHE694  ASN695  SER759  ASP760  ASP761  ALA762  ILE779  LEU786  VAL792 
 PHE793  MET794  SER795  GLU796  ALA797  LYS798  CYS799  TRP800  GLU811  SER814 

> <Gold.Protein.RotatedAtoms>
  151.2171  135.0504  159.8934 H   0  0  0  0  0  0  0  0  0  0  0  0  # atno 6907 bound_to 6896
  152.5419  134.0681  159.8192 H   0  0  0  0  0  0  0  0  0  0  0  0  # atno 6908 bound_to 6896
  151.0842  133.5318  159.2650 H   0  0  0  0  0  0  0  0  0  0  0  0  # atno 6909 bound_to 6896
  145.5068  139.2276  143.2746 H   0  0  0  0  0  0  0  0  0  0  0  0  # atno 7974 bound_to 7965
  154.4010  140.1520  156.3061 H   0  0  0  0  0  0  0  0  0  0  0  0  # atno 8008 bound_to 7997
  155.8657  140.3451  155.5765 H   0  0  0  0  0  0  0  0  0  0  0  0  # atno 8009 bound_to 7997
  155.7830  140.0846  157.2039 H   0  0  0  0  0  0  0  0  0  0  0  0  # atno 8010 bound_to 7997
  140.4357  144.1260  150.6166 H   0  0  0  0  0  0  0  0  0  0  0  0  # atno 10167 bound_to 10162
  156.1233  130.6340  150.9501 H   0  0  0  0  0  0  0  0  0  0  0  0  # atno 10718 bound_to 10713
  153.0865  135.4881  154.8606 H   0  0  0  0  0  0  0  0  0  0  0  0  # atno 10763 bound_to 10752
  154.7216  135.3041  154.9040 H   0  0  0  0  0  0  0  0  0  0  0  0  # atno 10764 bound_to 10752
  153.9702  135.6802  153.4800 H   0  0  0  0  0  0  0  0  0  0  0  0  # atno 10765 bound_to 10752
  141.0546  133.6730  156.3080 H   0  0  0  0  0  0  0  0  0  0  0  0  # atno 11005 bound_to 11000
  146.2191  140.5872  142.9025 LP  0  0  0  0  0  0  0  0  0  0  0  0  # atno 17320 bound_to 7965
  144.7749  140.5718  143.6645 LP  0  0  0  0  0  0  0  0  0  0  0  0  # atno 17321 bound_to 7965
  140.4376  143.2540  151.9515 LP  0  0  0  0  0  0  0  0  0  0  0  0  # atno 17342 bound_to 10162
  139.4787  144.5685  151.8126 LP  0  0  0  0  0  0  0  0  0  0  0  0  # atno 17343 bound_to 10162
  157.6416  131.0909  150.8240 LP  0  0  0  0  0  0  0  0  0  0  0  0  # atno 17370 bound_to 10713
  156.8333  130.5023  149.5329 LP  0  0  0  0  0  0  0  0  0  0  0  0  # atno 17371 bound_to 10713
  140.5989  134.5574  157.5514 LP  0  0  0  0  0  0  0  0  0  0  0  0  # atno 17394 bound_to 11000
  139.9379  134.7841  156.0755 LP  0  0  0  0  0  0  0  0  0  0  0  0  # atno 17395 bound_to 11000

$$$$
