AV-unprocessed.smi:1703|AV-procd|sdf|6879|dock8
  -GOLD-   22720 8 83D 1   1.00000     0.00000
 Structure written by MMmdl.
 50 52  0  0  0  0  0  0  0  0  3 V2000
  145.4985  144.1921  152.8115 C   0  0  0  0  0  0  0  0  0  0  0  0
  146.1857  143.6564  154.0722 C   0  0  2  0  0  0  0  0  0  0  0  0
  147.2865  142.6304  153.7422 C   0  0  0  0  0  0  0  0  0  0  0  0
  147.8739  142.0797  154.9888 N   0  3  2  0  0  0  0  0  0  0  0  0
  148.9783  141.1132  154.7562 C   0  0  0  0  0  0  0  0  0  0  0  0
  150.1815  141.3273  155.6975 C   0  0  1  0  0  0  0  0  0  0  0  0
  150.7790  142.5780  155.4137 O   0  0  0  0  0  0  0  0  0  0  0  0
  149.7501  141.3025  157.1779 C   0  0  0  0  0  0  0  0  0  0  0  0
  150.8805  141.4522  158.1092 N   0  0  0  0  0  0  0  0  0  0  0  0
  151.8181  140.5517  158.5290 C   0  0  0  0  0  0  0  0  0  0  0  0
  151.9349  139.1159  158.1353 C   0  0  0  0  0  0  0  0  0  0  0  0
  153.1728  138.8265  157.5259 O   0  0  0  0  0  0  0  0  0  0  0  0
  152.6402  141.2023  159.3999 N   0  3  0  0  0  0  0  0  0  0  0  0
  152.2322  142.5293  159.5353 C   0  0  0  0  0  0  0  0  0  0  0  0
  152.7504  143.5693  160.3008 C   0  0  0  0  0  0  0  0  0  0  0  0
  152.0915  144.8129  160.2076 C   0  0  0  0  0  0  0  0  0  0  0  0
  150.9638  144.9862  159.3790 C   0  0  0  0  0  0  0  0  0  0  0  0
  150.4463  143.9238  158.6090 C   0  0  0  0  0  0  0  0  0  0  0  0
  151.1040  142.6978  158.7069 C   0  0  0  0  0  0  0  0  0  0  0  0
  146.8087  141.5182  155.8529 C   0  0  0  0  0  0  0  0  0  0  0  0
  145.7205  142.5736  156.1267 C   0  0  2  0  0  0  0  0  0  0  0  0
  144.5617  142.0074  156.9542 C   0  0  0  0  0  0  0  0  0  0  0  0
  145.1977  143.0332  154.8853 O   0  0  0  0  0  0  0  0  0  0  0  0
  146.2118  144.6967  152.1593 H   0  0  0  0  0  0  0  0  0  0  0  0
  144.7185  144.9095  153.0678 H   0  0  0  0  0  0  0  0  0  0  0  0
  145.0349  143.3866  152.2414 H   0  0  0  0  0  0  0  0  0  0  0  0
  146.6183  144.4988  154.6151 H   0  0  0  0  0  0  0  0  0  0  0  0
  146.8733  141.8160  153.1444 H   0  0  0  0  0  0  0  0  0  0  0  0
  148.0542  143.1116  153.1377 H   0  0  0  0  0  0  0  0  0  0  0  0
  148.6083  140.0961  154.8950 H   0  0  0  0  0  0  0  0  0  0  0  0
  149.2945  141.1803  153.7140 H   0  0  0  0  0  0  0  0  0  0  0  0
  150.9301  140.5520  155.5419 H   0  0  0  0  0  0  0  0  0  0  0  0
  150.1517  143.2641  155.5840 H   0  0  0  0  0  0  0  0  0  0  0  0
  149.0370  142.1021  157.3794 H   0  0  0  0  0  0  0  0  0  0  0  0
  149.2341  140.3714  157.4164 H   0  0  0  0  0  0  0  0  0  0  0  0
  151.8026  138.4781  159.0090 H   0  0  0  0  0  0  0  0  0  0  0  0
  151.1343  138.8678  157.4381 H   0  0  0  0  0  0  0  0  0  0  0  0
  153.0969  138.0006  157.0717 H   0  0  0  0  0  0  0  0  0  0  0  0
  153.6144  143.4391  160.9361 H   0  0  0  0  0  0  0  0  0  0  0  0
  152.4590  145.6506  160.7826 H   0  0  0  0  0  0  0  0  0  0  0  0
  150.4860  145.9543  159.3331 H   0  0  0  0  0  0  0  0  0  0  0  0
  149.5819  144.0677  157.9779 H   0  0  0  0  0  0  0  0  0  0  0  0
  146.3733  140.6415  155.3702 H   0  0  0  0  0  0  0  0  0  0  0  0
  147.2397  141.1843  156.7976 H   0  0  0  0  0  0  0  0  0  0  0  0
  146.1535  143.4166  156.6683 H   0  0  0  0  0  0  0  0  0  0  0  0
  144.9098  141.6465  157.9225 H   0  0  0  0  0  0  0  0  0  0  0  0
  144.0780  141.1754  156.4410 H   0  0  0  0  0  0  0  0  0  0  0  0
  143.8048  142.7703  157.1376 H   0  0  0  0  0  0  0  0  0  0  0  0
  148.2699  142.8550  155.5009 H   0  0  0  0  0  0  0  0  0  0  0  0
  153.4236  140.7650  159.8680 H   0  0  0  0  0  0  0  0  0  0  0  0
  1  2  1  0  0  0  0
  1 24  1  0  0  0  0
  1 25  1  0  0  0  0
  1 26  1  0  0  0  0
  2 23  1  0  0  0  0
  2  3  1  0  0  0  0
  2 27  1  0  0  0  0
  3  4  1  0  0  0  0
  3 28  1  0  0  0  0
  3 29  1  0  0  0  0
  4  5  1  0  0  0  0
  4 20  1  0  0  0  0
  4 49  1  0  0  0  0
  5  6  1  0  0  0  0
  5 30  1  0  0  0  0
  5 31  1  0  0  0  0
  6  7  1  0  0  0  0
  6  8  1  0  0  0  0
  6 32  1  0  0  0  0
  7 33  1  0  0  0  0
  8  9  1  0  0  0  0
  8 34  1  0  0  0  0
  8 35  1  0  0  0  0
  9 19  1  0  0  0  0
  9 10  1  0  0  0  0
 10 11  1  0  0  0  0
 10 13  2  0  0  0  0
 11 12  1  0  0  0  0
 11 36  1  0  0  0  0
 11 37  1  0  0  0  0
 12 38  1  0  0  0  0
 13 14  1  0  0  0  0
 13 50  1  0  0  0  0
 14 19  2  0  0  0  0
 14 15  1  0  0  0  0
 15 16  2  0  0  0  0
 15 39  1  0  0  0  0
 16 17  1  0  0  0  0
 16 40  1  0  0  0  0
 17 18  2  0  0  0  0
 17 41  1  0  0  0  0
 18 19  1  0  0  0  0
 18 42  1  0  0  0  0
 20 21  1  0  0  0  0
 20 43  1  0  0  0  0
 20 44  1  0  0  0  0
 21 22  1  0  0  0  0
 21 23  1  0  0  0  0
 21 45  1  0  0  0  0
 22 46  1  0  0  0  0
 22 47  1  0  0  0  0
 22 48  1  0  0  0  0
M  CHG  1   4   1
M  CHG  1  13   1
M  END
> <s_m_source_file>
AV-unprocessed.smi

> <i_m_source_file_index>
1703

> <i_lp_mmshare_version>
43012

> <i_f3d_flags>
0

> <s_epik_input>
W0NIM11bQ0BASF0xW0NIMl1OKFtDSDJdW0NASF0oTzEpW0NIM10pW0NIMl1bQ0BIXShbT0hdKVtDSDJdbihjKG4yKVtDSDJdW09IXSljKGMyMylbY0hdW2NIXVtjSF1bY0hdMw==

> <s_epik_cmdline>
J2VwaWtfcHl0aG9uJywgJy1waCcsICc3LjAnLCAnLXRuJywgJzgnLCAnLW1hJywgJzIwMCcsICctbWV0YWxfYmluZGluZycsICctaW1hZScsICc8aW5maWxlLm1hZT4nLCAnLW9tYWUnLCAnPG91dGZpbGUubWFlPic=

> <r_epik_Ionization_Penalty>
2.22579

> <r_epik_Ionization_Penalty_Charging>
2.22492

> <r_epik_Ionization_Penalty_Neutral>
0.000870007

> <r_epik_State_Penalty>
2.3141

> <r_epik_Charging_Adjusted_Penalty>
4.53902

> <i_epik_Tot_Q>
2

> <i_epik_Tot_abs_Q>
2

> <r_epik_Metal_State_Penalty>
6.36517

> <b_epik_Metal_Only>
0

> <s_lp_Force_Field>
OPLS_2005

> <r_lp_Energy>
26.5271

> <b_lp_Chiralities_Consistent>
1

> <s_lp_Variant>
AV-unprocessed.smi:1703-27

> <Gold.Version>
5.8.1

> <Gold.Id.Protein>
6NUR|6NUR_protein|mol2

> <Gold.PLP.Fitness>
50.8901

> <Gold.PLP.PLP>
-40.5407

> <Gold.PLP.part.hbond>
-3.6966

> <Gold.PLP.part.metal>
0.0000

> <Gold.PLP.part.buried>
-2.7019

> <Gold.PLP.part.nonpolar>
-34.2447

> <Gold.PLP.part.repulsive>
0.4112

> <Gold.PLP.ligand.clash>
0.0000

> <Gold.PLP.ligand.torsion>
0.8337

> <Gold.PLP.Chemscore.Hbond>
4.0000

> <Gold.PLP.Chemscore.CHOScore>
0.0000

> <Gold.PLP.Chemscore.Metal>
0.0000

> <Gold.Chemscore.Hbonds>
donor molecule, donor type, donor heavy atom, donor atom, acceptor molecule, acceptor atom, score
      L1  H     4    49       P1  8028  2.00
      L1  H     7    33       P1  8028  1.00
      P1  H  7997  8008       L1    12  1.00

> <Gold.PLP.Chemscore.Internal.Correction>
0.0169

> <Gold.Rescore>
     Score         DG    S(hbond)    S(metal)    S(lipo)     H(rot)  DE(clash)    DE(int)     intcor
     17.64     -20.85       2.77        0.00     118.74       3.04       2.25       0.96       ----

> <Gold.Chemscore.Fitness>
17.6378

> <Gold.Chemscore.DG>
-20.8459

> <Gold.Chemscore.ZeroCoef>
-5.4800

> <Gold.Chemscore.Hbond>
2.7693

> <Gold.Chemscore.Metal>
0.0000

> <Gold.Chemscore.Lipo>
118.7444

> <Gold.Chemscore.Internal_Hbond>
0.0000

> <Gold.Chemscore.DEClash>
2.2462

> <Gold.Chemscore.DEInternal>
0.9619

> <Gold.Chemscore.Rot>
3.0378

> <Gold.Chemscore.Internal.Correction>
   9.000000E+99

> <Gold.Chemscore.Hbonds>
donor molecule, donor type, donor heavy atom, donor atom, acceptor molecule, acceptor atom, score
      L1  H     4    49       P1  8028  0.93
      L1  H     7    33       P1  8028  1.00
      P1  H  7997  8008       L1    12  0.82

> <Gold.Chemscore.Hbond.Weighted>
-9.2495

> <Gold.Chemscore.Metal.Weighted>
-0.0000

> <Gold.Chemscore.Lipo.Weighted>
-13.8931

> <Gold.Chemscore.Internal_Hbond.Weighted>
0.0000

> <Gold.Chemscore.DEClash.Weighted>
2.2462

> <Gold.Chemscore.DEInternal.Weighted>
0.9619

> <Gold.Chemscore.Rot.Weighted>
7.7767

> <Gold.Chemscore.Internal.Correction.Weighted>
   9.000000E+99

> <Gold.Protein.RotatedTorsions>
[ 6907 6896 6895 6894 ] final  148.00 input  -60.11 | X-H torsion
[ 7974 7965 7964 7962 ] final  -90.12 input  175.53 | X-H torsion
[ 8008 7997 7996 7995 ] final  -58.72 input   59.86 | X-H torsion
[ 10167 10162 10161 10158 ] final -104.86 input  -65.29 | X-H torsion
[ 10718 10713 10712 10709 ] final  -80.28 input   66.30 | X-H torsion
[ 10763 10752 10751 10750 ] final  -72.80 input  -60.55 | X-H torsion
[ 11005 11000 10999 10996 ] final  -12.02 input  -57.11 | X-H torsion

> <Gold.Protein.ActiveResidues>
 VAL166  LYS551  ARG553  GLY616  TRP617  ASP618  TYR619  PRO620  LYS621  CYS622 
 ASP623  PHE694  ASN695  SER759  ASP760  ASP761  ALA762  ILE779  LEU786  VAL792 
 PHE793  MET794  SER795  GLU796  ALA797  LYS798  CYS799  TRP800  GLU811  SER814 

> <Gold.Protein.RotatedAtoms>
  152.1474  133.4500  159.4796 H   0  0  0  0  0  0  0  0  0  0  0  0  # atno 6907 bound_to 6896
  150.6892  134.2231  159.4414 H   0  0  0  0  0  0  0  0  0  0  0  0  # atno 6908 bound_to 6896
  152.0126  134.9867  160.0619 H   0  0  0  0  0  0  0  0  0  0  0  0  # atno 6909 bound_to 6896
  145.4308  140.9555  143.2129 H   0  0  0  0  0  0  0  0  0  0  0  0  # atno 7974 bound_to 7965
  154.4321  140.1078  156.6001 H   0  0  0  0  0  0  0  0  0  0  0  0  # atno 8008 bound_to 7997
  155.5920  140.3492  155.4550 H   0  0  0  0  0  0  0  0  0  0  0  0  # atno 8009 bound_to 7997
  156.0239  140.1245  157.0318 H   0  0  0  0  0  0  0  0  0  0  0  0  # atno 8010 bound_to 7997
  140.2047  143.3791  152.1100 H   0  0  0  0  0  0  0  0  0  0  0  0  # atno 10167 bound_to 10162
  156.0074  130.4569  150.3776 H   0  0  0  0  0  0  0  0  0  0  0  0  # atno 10718 bound_to 10713
  154.4508  135.5918  153.6190 H   0  0  0  0  0  0  0  0  0  0  0  0  # atno 10763 bound_to 10752
  152.9813  135.6020  154.3608 H   0  0  0  0  0  0  0  0  0  0  0  0  # atno 10764 bound_to 10752
  154.3468  135.2841  155.2372 H   0  0  0  0  0  0  0  0  0  0  0  0  # atno 10765 bound_to 10752
  140.7614  133.8512  155.9127 H   0  0  0  0  0  0  0  0  0  0  0  0  # atno 11005 bound_to 11000
  144.8184  139.5835  143.6998 LP  0  0  0  0  0  0  0  0  0  0  0  0  # atno 17320 bound_to 7965
  146.2608  139.6406  142.9363 LP  0  0  0  0  0  0  0  0  0  0  0  0  # atno 17321 bound_to 7965
  139.5203  144.7031  151.5435 LP  0  0  0  0  0  0  0  0  0  0  0  0  # atno 17342 bound_to 10162
  140.6365  143.8973  150.6652 LP  0  0  0  0  0  0  0  0  0  0  0  0  # atno 17343 bound_to 10162
  157.1857  131.0403  151.2726 LP  0  0  0  0  0  0  0  0  0  0  0  0  # atno 17370 bound_to 10713
  157.4106  130.7383  149.6836 LP  0  0  0  0  0  0  0  0  0  0  0  0  # atno 17371 bound_to 10713
  140.9660  134.1594  157.4616 LP  0  0  0  0  0  0  0  0  0  0  0  0  # atno 17394 bound_to 11000
  139.8770  134.9962  156.5781 LP  0  0  0  0  0  0  0  0  0  0  0  0  # atno 17395 bound_to 11000

$$$$
