AV-unprocessed.smi:2910|AV-procd|sdf|11176|dock9
  -GOLD-   2272016 73D 1   1.00000     0.00000
 Structure written by MMmdl.
 47 48  0  0  0  0  0  0  0  0  1 V2000
  150.1266  142.2547  155.7942 C   0  0  0  0  0  0  0  0  0  0  0  0
  149.9061  140.9189  155.1483 C   0  0  0  0  0  0  0  0  0  0  0  0
  148.6867  140.3775  154.6472 C   0  0  0  0  0  0  0  0  0  0  0  0
  149.0709  139.1493  154.1825 C   0  0  0  0  0  0  0  0  0  0  0  0
  148.3153  138.1811  153.5992 N   0  0  0  0  0  0  0  0  0  0  0  0
  147.0257  137.8739  153.8223 C   0  0  0  0  0  0  0  0  0  0  0  0
  146.2772  138.4631  154.6019 O   0  0  0  0  0  0  0  0  0  0  0  0
  146.6443  136.8272  153.0743 N   0  0  0  0  0  0  0  0  0  0  0  0
  145.3145  136.2109  153.0680 C   0  0  1  0  0  0  0  0  0  0  0  0
  144.2558  137.3017  152.7770 C   0  0  0  0  0  0  0  0  0  0  0  0
  142.8335  136.9401  153.2403 C   0  0  0  0  0  0  0  0  0  0  0  0
  141.9928  138.0673  153.1223 O   0  0  0  0  0  0  0  0  0  0  0  0
  145.2824  135.0248  152.0604 C   0  0  0  0  0  0  0  0  0  0  0  0
  143.9278  134.2735  152.0707 C   0  0  0  0  0  0  0  0  0  0  0  0
  143.9044  133.0894  151.0905 C   0  0  0  0  0  0  0  0  0  0  0  0
  145.0493  132.1085  151.3702 C   0  0  0  0  0  0  0  0  0  0  0  0
  146.4002  132.8322  151.3286 C   0  0  0  0  0  0  0  0  0  0  0  0
  146.4301  134.0123  152.3122 C   0  0  0  0  0  0  0  0  0  0  0  0
  150.4214  138.9934  154.4018 N   0  0  0  0  0  0  0  0  0  0  0  0
  151.2821  137.8703  154.0854 C   0  0  0  0  0  0  0  0  0  0  0  0
  150.9342  140.0915  154.9980 N   0  0  0  0  0  0  0  0  0  0  0  0
  149.2017  142.8304  155.8335 H   0  0  0  0  0  0  0  0  0  0  0  0
  150.8602  142.8425  155.2421 H   0  0  0  0  0  0  0  0  0  0  0  0
  150.4894  142.1408  156.8160 H   0  0  0  0  0  0  0  0  0  0  0  0
  147.7069  140.8305  154.6425 H   0  0  0  0  0  0  0  0  0  0  0  0
  148.7955  137.6156  152.9149 H   0  0  0  0  0  0  0  0  0  0  0  0
  147.3321  136.4112  152.4635 H   0  0  0  0  0  0  0  0  0  0  0  0
  145.0949  135.8029  154.0563 H   0  0  0  0  0  0  0  0  0  0  0  0
  144.5609  138.2410  153.2407 H   0  0  0  0  0  0  0  0  0  0  0  0
  144.2094  137.4910  151.7055 H   0  0  0  0  0  0  0  0  0  0  0  0
  142.4268  136.1286  152.6361 H   0  0  0  0  0  0  0  0  0  0  0  0
  142.8251  136.6110  154.2794 H   0  0  0  0  0  0  0  0  0  0  0  0
  142.5272  138.8461  153.1585 H   0  0  0  0  0  0  0  0  0  0  0  0
  145.4236  135.4360  151.0595 H   0  0  0  0  0  0  0  0  0  0  0  0
  143.7144  133.9146  153.0786 H   0  0  0  0  0  0  0  0  0  0  0  0
  143.1112  134.9418  151.8017 H   0  0  0  0  0  0  0  0  0  0  0  0
  142.9477  132.5709  151.1586 H   0  0  0  0  0  0  0  0  0  0  0  0
  143.9824  133.4605  150.0677 H   0  0  0  0  0  0  0  0  0  0  0  0
  144.9085  131.6471  152.3485 H   0  0  0  0  0  0  0  0  0  0  0  0
  145.0358  131.2992  150.6396 H   0  0  0  0  0  0  0  0  0  0  0  0
  147.2029  132.1329  151.5641 H   0  0  0  0  0  0  0  0  0  0  0  0
  146.5915  133.1939  150.3173 H   0  0  0  0  0  0  0  0  0  0  0  0
  147.4023  134.4974  152.2262 H   0  0  0  0  0  0  0  0  0  0  0  0
  146.3665  133.6350  153.3339 H   0  0  0  0  0  0  0  0  0  0  0  0
  150.8763  136.9615  154.5310 H   0  0  0  0  0  0  0  0  0  0  0  0
  152.2882  138.0348  154.4744 H   0  0  0  0  0  0  0  0  0  0  0  0
  151.3361  137.7448  153.0037 H   0  0  0  0  0  0  0  0  0  0  0  0
  1  2  1  0  0  0  0
  1 22  1  0  0  0  0
  1 23  1  0  0  0  0
  1 24  1  0  0  0  0
  2 21  2  0  0  0  0
  2  3  1  0  0  0  0
  3  4  2  0  0  0  0
  3 25  1  0  0  0  0
  4  5  1  0  0  0  0
  4 19  1  0  0  0  0
  5  6  1  0  0  0  0
  5 26  1  0  0  0  0
  6  7  2  0  0  0  0
  6  8  1  0  0  0  0
  8  9  1  0  0  0  0
  8 27  1  0  0  0  0
  9 10  1  0  0  0  0
  9 13  1  0  0  0  0
  9 28  1  0  0  0  0
 10 11  1  0  0  0  0
 10 29  1  0  0  0  0
 10 30  1  0  0  0  0
 11 12  1  0  0  0  0
 11 31  1  0  0  0  0
 11 32  1  0  0  0  0
 12 33  1  0  0  0  0
 13 18  1  0  0  0  0
 13 14  1  0  0  0  0
 13 34  1  0  0  0  0
 14 15  1  0  0  0  0
 14 35  1  0  0  0  0
 14 36  1  0  0  0  0
 15 16  1  0  0  0  0
 15 37  1  0  0  0  0
 15 38  1  0  0  0  0
 16 17  1  0  0  0  0
 16 39  1  0  0  0  0
 16 40  1  0  0  0  0
 17 18  1  0  0  0  0
 17 41  1  0  0  0  0
 17 42  1  0  0  0  0
 18 43  1  0  0  0  0
 18 44  1  0  0  0  0
 19 20  1  0  0  0  0
 19 21  1  0  0  0  0
 20 45  1  0  0  0  0
 20 46  1  0  0  0  0
 20 47  1  0  0  0  0
M  END
> <s_m_source_file>
AV-unprocessed.smi

> <i_m_source_file_index>
2910

> <i_lp_mmshare_version>
43012

> <i_f3d_flags>
0

> <s_epik_input>
W0NIM11jMVtjSF1jKG4objEpW0NIM10pW05IXUMoPU8pW05IXVtDQEhdKFtDSDJdW0NIMl1bT0hdKVtDSF0yW0NIMl1bQ0gyXVtDSDJdW0NIMl1bQ0gyXTI=

> <s_epik_cmdline>
J2VwaWtfcHl0aG9uJywgJy1waCcsICc3LjAnLCAnLXRuJywgJzgnLCAnLW1hJywgJzIwMCcsICctbWV0YWxfYmluZGluZycsICctaW1hZScsICc8aW5maWxlLm1hZT4nLCAnLW9tYWUnLCAnPG91dGZpbGUubWFlPic=

> <r_lp_tautomer_probability>
1

> <r_epik_Ionization_Penalty>
0.000101449

> <r_epik_Ionization_Penalty_Charging>
0

> <r_epik_Ionization_Penalty_Neutral>
0.000101449

> <r_epik_State_Penalty>
-0

> <r_epik_Charging_Adjusted_Penalty>
0

> <i_epik_Tot_Q>
0

> <i_epik_Tot_abs_Q>
0

> <r_epik_Metal_State_Penalty>
-0

> <b_epik_Metal_Only>
0

> <s_lp_Force_Field>
OPLS_2005

> <r_lp_Energy>
16.2271

> <b_lp_Chiralities_Consistent>
1

> <s_lp_Variant>
AV-unprocessed.smi:2910-2

> <Gold.Version>
5.8.1

> <Gold.Id.Protein>
6NUR|6NUR_protein|mol2

> <Gold.PLP.Fitness>
45.2614

> <Gold.PLP.PLP>
-34.7887

> <Gold.PLP.part.hbond>
-4.0741

> <Gold.PLP.part.metal>
0.0000

> <Gold.PLP.part.buried>
-0.5395

> <Gold.PLP.part.nonpolar>
-29.7177

> <Gold.PLP.part.repulsive>
0.1731

> <Gold.PLP.ligand.clash>
0.0000

> <Gold.PLP.ligand.torsion>
0.4593

> <Gold.PLP.Chemscore.Hbond>
3.7650

> <Gold.PLP.Chemscore.CHOScore>
0.0000

> <Gold.PLP.Chemscore.Metal>
0.0000

> <Gold.Chemscore.Hbonds>
donor molecule, donor type, donor heavy atom, donor atom, acceptor molecule, acceptor atom, score
      L1  H     5    26       P1  7948  1.00
      L1  H     8    27       P1  7948  1.00
      L1  H    12    33       P1 10175  0.98
      P1  H  7989  7998       L1    21  0.76

> <Gold.PLP.Chemscore.Internal.Correction>
0.0962

> <Gold.Rescore>
     Score         DG    S(hbond)    S(metal)    S(lipo)     H(rot)  DE(clash)    DE(int)     intcor
     17.29     -17.89       2.93        0.00      72.11       2.27       0.08       0.53       ----

> <Gold.Chemscore.Fitness>
17.2872

> <Gold.Chemscore.DG>
-17.8913

> <Gold.Chemscore.ZeroCoef>
-5.4800

> <Gold.Chemscore.Hbond>
2.9331

> <Gold.Chemscore.Metal>
0.0000

> <Gold.Chemscore.Lipo>
72.1105

> <Gold.Chemscore.Internal_Hbond>
0.0000

> <Gold.Chemscore.DEClash>
0.0766

> <Gold.Chemscore.DEInternal>
0.5275

> <Gold.Chemscore.Rot>
2.2743

> <Gold.Chemscore.Internal.Correction>
   9.000000E+99

> <Gold.Chemscore.Hbonds>
donor molecule, donor type, donor heavy atom, donor atom, acceptor molecule, acceptor atom, score
      L1  H     5    26       P1  7948  0.98
      L1  H     8    27       P1  7948  0.98
      L1  H    12    33       P1 10175  0.90
      P1  H  7989  7998       L1    21  0.03

> <Gold.Chemscore.Hbond.Weighted>
-9.7966

> <Gold.Chemscore.Metal.Weighted>
-0.0000

> <Gold.Chemscore.Lipo.Weighted>
-8.4369

> <Gold.Chemscore.Internal_Hbond.Weighted>
0.0000

> <Gold.Chemscore.DEClash.Weighted>
0.0766

> <Gold.Chemscore.DEInternal.Weighted>
0.5275

> <Gold.Chemscore.Rot.Weighted>
5.8223

> <Gold.Chemscore.Internal.Correction.Weighted>
   9.000000E+99

> <Gold.Protein.RotatedTorsions>
[ 6907 6896 6895 6894 ] final  100.42 input  -60.11 | X-H torsion
[ 7974 7965 7964 7962 ] final -144.83 input  175.53 | X-H torsion
[ 8008 7997 7996 7995 ] final -161.90 input   59.86 | X-H torsion
[ 10167 10162 10161 10158 ] final -129.53 input  -65.29 | X-H torsion
[ 10718 10713 10712 10709 ] final   76.60 input   66.30 | X-H torsion
[ 10763 10752 10751 10750 ] final  147.11 input  -60.55 | X-H torsion
[ 11005 11000 10999 10996 ] final  -16.70 input  -57.11 | X-H torsion

> <Gold.Protein.ActiveResidues>
 VAL166  LYS551  ARG553  GLY616  TRP617  ASP618  TYR619  PRO620  LYS621  CYS622 
 ASP623  PHE694  ASN695  SER759  ASP760  ASP761  ALA762  ILE779  LEU786  VAL792 
 PHE793  MET794  SER795  GLU796  ALA797  LYS798  CYS799  TRP800  GLU811  SER814 

> <Gold.Protein.RotatedAtoms>
  152.5372  134.0279  159.8011 H   0  0  0  0  0  0  0  0  0  0  0  0  # atno 6907 bound_to 6896
  151.0455  133.5661  159.2654 H   0  0  0  0  0  0  0  0  0  0  0  0  # atno 6908 bound_to 6896
  151.2615  135.0663  159.9154 H   0  0  0  0  0  0  0  0  0  0  0  0  # atno 6909 bound_to 6896
  144.8270  140.5660  143.5540 H   0  0  0  0  0  0  0  0  0  0  0  0  # atno 7974 bound_to 7965
  155.7990  140.0889  157.1967 H   0  0  0  0  0  0  0  0  0  0  0  0  # atno 8008 bound_to 7997
  154.3982  140.1476  156.3311 H   0  0  0  0  0  0  0  0  0  0  0  0  # atno 8009 bound_to 7997
  155.8482  140.3436  155.5678 H   0  0  0  0  0  0  0  0  0  0  0  0  # atno 8010 bound_to 7997
  139.9388  143.6187  152.2509 H   0  0  0  0  0  0  0  0  0  0  0  0  # atno 10167 bound_to 10162
  157.6679  130.9782  150.1520 H   0  0  0  0  0  0  0  0  0  0  0  0  # atno 10718 bound_to 10713
  154.0329  135.2896  155.3366 H   0  0  0  0  0  0  0  0  0  0  0  0  # atno 10763 bound_to 10752
  154.6977  135.5201  153.8485 H   0  0  0  0  0  0  0  0  0  0  0  0  # atno 10764 bound_to 10752
  153.0632  135.6621  154.0540 H   0  0  0  0  0  0  0  0  0  0  0  0  # atno 10765 bound_to 10752
  140.8094  133.8152  155.9548 H   0  0  0  0  0  0  0  0  0  0  0  0  # atno 11005 bound_to 11000
  145.4979  139.1485  143.3673 LP  0  0  0  0  0  0  0  0  0  0  0  0  # atno 17320 bound_to 7965
  146.2574  140.5118  142.8867 LP  0  0  0  0  0  0  0  0  0  0  0  0  # atno 17321 bound_to 7965
  139.6721  144.7660  151.1763 LP  0  0  0  0  0  0  0  0  0  0  0  0  # atno 17342 bound_to 10162
  140.7617  143.5849  150.8856 LP  0  0  0  0  0  0  0  0  0  0  0  0  # atno 17343 bound_to 10162
  156.2317  130.3682  149.8437 LP  0  0  0  0  0  0  0  0  0  0  0  0  # atno 17370 bound_to 10713
  156.6262  130.8647  151.3486 LP  0  0  0  0  0  0  0  0  0  0  0  0  # atno 17371 bound_to 10713
  140.9213  134.2138  157.4924 LP  0  0  0  0  0  0  0  0  0  0  0  0  # atno 17394 bound_to 11000
  139.8715  134.9793  156.5032 LP  0  0  0  0  0  0  0  0  0  0  0  0  # atno 17395 bound_to 11000

$$$$
