AV-unprocessed.smi:505|AV-procd|sdf|2749|dock8
  -GOLD-   2262023213D 1   1.00000     0.00000
 Structure written by MMmdl.
 36 37  0  0  0  0  0  0  0  0  2 V2000
  148.9951  141.3055  154.5413 C   0  0  0  0  0  0  0  0  0  0  0  0
  148.3091  141.1096  155.7652 O   0  0  0  0  0  0  0  0  0  0  0  0
  149.1873  141.0633  156.8771 C   0  0  0  0  0  0  0  0  0  0  0  0
  149.8375  142.4406  157.0546 C   0  0  0  0  0  0  0  0  0  0  0  0
  150.6208  142.5100  158.2837 N   0  0  0  0  0  0  0  0  0  0  0  0
  150.4505  143.3664  159.3208 C   0  0  0  0  0  0  0  0  0  0  0  0
  149.4283  144.3077  159.2970 N   0  0  0  0  0  0  0  0  0  0  0  0
  149.0216  145.3268  160.2469 C   0  0  0  0  0  0  0  0  0  0  0  0
  147.5774  145.1258  160.7273 C   0  0  0  0  0  0  0  0  0  0  0  0
  147.4685  143.9079  161.4333 O   0  0  0  0  0  0  0  0  0  0  0  0
  151.3145  143.2145  160.3259 N   0  0  0  0  0  0  0  0  0  0  0  0
  152.1001  142.1549  159.8925 C   0  0  0  0  0  0  0  0  0  0  0  0
  151.6958  141.7071  158.6727 C   0  0  0  0  0  0  0  0  0  0  0  0
  152.3206  140.5721  157.9612 C   0  0  0  0  0  0  0  0  0  0  0  0
  151.8995  140.2006  156.8675 O   0  0  0  0  0  0  0  0  0  0  0  0
  153.3645  140.0326  158.6674 N   0  5  0  0  0  0  0  0  0  0  0  0
  153.8120  140.4548  159.9012 C   0  0  0  0  0  0  0  0  0  0  0  0
  154.7582  139.9096  160.4709 O   0  0  0  0  0  0  0  0  0  0  0  0
  153.1971  141.5088  160.5254 N   0  0  0  0  0  0  0  0  0  0  0  0
  153.6527  141.9802  161.8363 C   0  0  0  0  0  0  0  0  0  0  0  0
  148.2791  141.3292  153.7200 H   0  0  0  0  0  0  0  0  0  0  0  0
  149.7005  140.4960  154.3497 H   0  0  0  0  0  0  0  0  0  0  0  0
  149.5386  142.2512  154.5414 H   0  0  0  0  0  0  0  0  0  0  0  0
  148.6326  140.7921  157.7769 H   0  0  0  0  0  0  0  0  0  0  0  0
  149.9531  140.3021  156.7202 H   0  0  0  0  0  0  0  0  0  0  0  0
  150.4755  142.6811  156.2052 H   0  0  0  0  0  0  0  0  0  0  0  0
  149.0714  143.2159  157.0709 H   0  0  0  0  0  0  0  0  0  0  0  0
  148.8288  144.2516  158.4865 H   0  0  0  0  0  0  0  0  0  0  0  0
  149.6973  145.2632  161.1004 H   0  0  0  0  0  0  0  0  0  0  0  0
  149.1581  146.3177  159.8127 H   0  0  0  0  0  0  0  0  0  0  0  0
  147.2320  145.9577  161.3421 H   0  0  0  0  0  0  0  0  0  0  0  0
  146.9112  145.0667  159.8664 H   0  0  0  0  0  0  0  0  0  0  0  0
  146.5905  143.8374  161.7755 H   0  0  0  0  0  0  0  0  0  0  0  0
  154.7065  142.2599  161.7980 H   0  0  0  0  0  0  0  0  0  0  0  0
  153.5343  141.1961  162.5850 H   0  0  0  0  0  0  0  0  0  0  0  0
  153.0997  142.8523  162.1850 H   0  0  0  0  0  0  0  0  0  0  0  0
  1  2  1  0  0  0  0
  1 21  1  0  0  0  0
  1 22  1  0  0  0  0
  1 23  1  0  0  0  0
  2  3  1  0  0  0  0
  3  4  1  0  0  0  0
  3 24  1  0  0  0  0
  3 25  1  0  0  0  0
  4  5  1  0  0  0  0
  4 26  1  0  0  0  0
  4 27  1  0  0  0  0
  5 13  1  0  0  0  0
  5  6  1  0  0  0  0
  6  7  1  0  0  0  0
  6 11  2  0  0  0  0
  7  8  1  0  0  0  0
  7 28  1  0  0  0  0
  8  9  1  0  0  0  0
  8 29  1  0  0  0  0
  8 30  1  0  0  0  0
  9 10  1  0  0  0  0
  9 31  1  0  0  0  0
  9 32  1  0  0  0  0
 10 33  1  0  0  0  0
 11 12  1  0  0  0  0
 12 19  1  0  0  0  0
 12 13  2  0  0  0  0
 13 14  1  0  0  0  0
 14 15  2  0  0  0  0
 14 16  1  0  0  0  0
 16 17  1  0  0  0  0
 17 18  2  0  0  0  0
 17 19  1  0  0  0  0
 19 20  1  0  0  0  0
 20 34  1  0  0  0  0
 20 35  1  0  0  0  0
 20 36  1  0  0  0  0
M  CHG  1  16  -1
M  END
> <s_m_source_file>
AV-unprocessed.smi

> <i_m_source_file_index>
505

> <i_lp_mmshare_version>
43012

> <i_f3d_flags>
0

> <s_epik_input>
W09IXVtDSDJdW0NIMl1bTkhdYyhuMSluKFtDSDJdW0NIMl1PW0NIM10pYyhjMTIpYyg9TylbbkhdYyg9TyluMltDSDNd

> <s_epik_cmdline>
J2VwaWtfcHl0aG9uJywgJy1waCcsICc3LjAnLCAnLXRuJywgJzgnLCAnLW1hJywgJzIwMCcsICctbWV0YWxfYmluZGluZycsICctaW1hZScsICc8aW5maWxlLm1hZT4nLCAnLW9tYWUnLCAnPG91dGZpbGUubWFlPic=

> <r_lp_tautomer_probability>
1

> <r_epik_Ionization_Penalty>
5.9232

> <r_epik_Ionization_Penalty_Charging>
1.43987e-08

> <r_epik_Ionization_Penalty_Neutral>
5.9232

> <r_epik_State_Penalty>
5.92302

> <r_epik_Charging_Adjusted_Penalty>
5.92302

> <i_epik_Tot_Q>
-1

> <i_epik_Tot_abs_Q>
1

> <r_epik_Metal_State_Penalty>
1.88194

> <b_epik_Metal_Only>
1

> <s_lp_Force_Field>
OPLS_2005

> <r_lp_Energy>
27.5321

> <b_lp_Chiralities_Consistent>
1

> <s_lp_Variant>
AV-unprocessed.smi:505-2

> <Gold.Version>
5.8.1

> <Gold.Id.Protein>
6NUR|6NUR_protein|mol2

> <Gold.PLP.Fitness>
41.9265

> <Gold.PLP.PLP>
-33.2072

> <Gold.PLP.part.hbond>
-3.9669

> <Gold.PLP.part.metal>
0.0000

> <Gold.PLP.part.buried>
-1.0193

> <Gold.PLP.part.nonpolar>
-26.8243

> <Gold.PLP.part.repulsive>
0.2905

> <Gold.PLP.ligand.clash>
0.0000

> <Gold.PLP.ligand.torsion>
0.0291

> <Gold.PLP.Chemscore.Hbond>
2.9181

> <Gold.PLP.Chemscore.CHOScore>
0.0000

> <Gold.PLP.Chemscore.Metal>
0.0000

> <Gold.Chemscore.Hbonds>
donor molecule, donor type, donor heavy atom, donor atom, acceptor molecule, acceptor atom, score
      L1  H     7    28       P1  8029  0.22
      P1  H  6933  6944       L1    10  1.00
      P1  H  7997  8010       L1    16  1.43

> <Gold.PLP.Chemscore.Internal.Correction>
0.0231

> <Gold.Rescore>
     Score         DG    S(hbond)    S(metal)    S(lipo)     H(rot)  DE(clash)    DE(int)     intcor
      5.68      -7.38       1.19        0.00      48.24       3.02       0.32       1.37       ----

> <Gold.Chemscore.Fitness>
5.6829

> <Gold.Chemscore.DG>
-7.3793

> <Gold.Chemscore.ZeroCoef>
-5.4800

> <Gold.Chemscore.Hbond>
1.1919

> <Gold.Chemscore.Metal>
0.0000

> <Gold.Chemscore.Lipo>
48.2447

> <Gold.Chemscore.Internal_Hbond>
0.0000

> <Gold.Chemscore.DEClash>
0.3234

> <Gold.Chemscore.DEInternal>
1.3730

> <Gold.Chemscore.Rot>
3.0181

> <Gold.Chemscore.Internal.Correction>
   9.000000E+99

> <Gold.Chemscore.Hbonds>
donor molecule, donor type, donor heavy atom, donor atom, acceptor molecule, acceptor atom, score
      L1  H     7    28       P1  8029  0.11
      P1  H  6933  6944       L1    10  0.94
      P1  H  7997  8010       L1    16  0.22

> <Gold.Chemscore.Hbond.Weighted>
-3.9811

> <Gold.Chemscore.Metal.Weighted>
-0.0000

> <Gold.Chemscore.Lipo.Weighted>
-5.6446

> <Gold.Chemscore.Internal_Hbond.Weighted>
0.0000

> <Gold.Chemscore.DEClash.Weighted>
0.3234

> <Gold.Chemscore.DEInternal.Weighted>
1.3730

> <Gold.Chemscore.Rot.Weighted>
7.7264

> <Gold.Chemscore.Internal.Correction.Weighted>
   9.000000E+99

> <Gold.Protein.RotatedTorsions>
[ 6907 6896 6895 6894 ] final -158.61 input  -60.11 | X-H torsion
[ 7974 7965 7964 7962 ] final  -22.57 input  175.53 | X-H torsion
[ 8008 7997 7996 7995 ] final    9.41 input   59.86 | X-H torsion
[ 10167 10162 10161 10158 ] final -126.92 input  -65.29 | X-H torsion
[ 10718 10713 10712 10709 ] final   77.14 input   66.30 | X-H torsion
[ 10763 10752 10751 10750 ] final  -96.05 input  -60.55 | X-H torsion
[ 11005 11000 10999 10996 ] final   53.31 input  -57.11 | X-H torsion

> <Gold.Protein.ActiveResidues>
 VAL166  LYS551  ARG553  GLY616  TRP617  ASP618  TYR619  PRO620  LYS621  CYS622 
 ASP623  PHE694  ASN695  SER759  ASP760  ASP761  ALA762  ILE779  LEU786  VAL792 
 PHE793  MET794  SER795  GLU796  ALA797  LYS798  CYS799  TRP800  GLU811  SER814 

> <Gold.Protein.RotatedAtoms>
  151.3209  133.4040  159.2654 H   0  0  0  0  0  0  0  0  0  0  0  0  # atno 6907 bound_to 6896
  151.0035  134.9342  159.7978 H   0  0  0  0  0  0  0  0  0  0  0  0  # atno 6908 bound_to 6896
  152.5281  134.3174  159.9188 H   0  0  0  0  0  0  0  0  0  0  0  0  # atno 6909 bound_to 6896
  146.1668  140.4497  142.8549 H   0  0  0  0  0  0  0  0  0  0  0  0  # atno 7974 bound_to 7965
  154.7796  140.2816  155.6074 H   0  0  0  0  0  0  0  0  0  0  0  0  # atno 8008 bound_to 7997
  156.2948  140.2625  156.2546 H   0  0  0  0  0  0  0  0  0  0  0  0  # atno 8009 bound_to 7997
  154.9800  140.0375  157.2263 H   0  0  0  0  0  0  0  0  0  0  0  0  # atno 8010 bound_to 7997
  139.9664  143.5894  152.2428 H   0  0  0  0  0  0  0  0  0  0  0  0  # atno 10167 bound_to 10162
  157.6699  130.9807  150.1598 H   0  0  0  0  0  0  0  0  0  0  0  0  # atno 10718 bound_to 10713
  154.7204  135.5098  153.8803 H   0  0  0  0  0  0  0  0  0  0  0  0  # atno 10763 bound_to 10752
  153.0857  135.6644  153.9963 H   0  0  0  0  0  0  0  0  0  0  0  0  # atno 10764 bound_to 10752
  153.9786  135.3031  155.3401 H   0  0  0  0  0  0  0  0  0  0  0  0  # atno 10765 bound_to 10752
  140.0777  134.5381  155.8979 H   0  0  0  0  0  0  0  0  0  0  0  0  # atno 11005 bound_to 11000
  144.8104  140.6374  143.6419 LP  0  0  0  0  0  0  0  0  0  0  0  0  # atno 17320 bound_to 7965
  145.4447  139.1531  143.3951 LP  0  0  0  0  0  0  0  0  0  0  0  0  # atno 17321 bound_to 7965
  139.6515  144.7661  151.2139 LP  0  0  0  0  0  0  0  0  0  0  0  0  # atno 17342 bound_to 10162
  140.7536  143.6154  150.8565 LP  0  0  0  0  0  0  0  0  0  0  0  0  # atno 17343 bound_to 10162
  156.2377  130.3688  149.8373 LP  0  0  0  0  0  0  0  0  0  0  0  0  # atno 17370 bound_to 10713
  156.6181  130.8615  151.3469 LP  0  0  0  0  0  0  0  0  0  0  0  0  # atno 17371 bound_to 10713
  141.2035  133.6633  156.6069 LP  0  0  0  0  0  0  0  0  0  0  0  0  # atno 17394 bound_to 11000
  140.3533  134.7750  157.4482 LP  0  0  0  0  0  0  0  0  0  0  0  0  # atno 17395 bound_to 11000

$$$$
