AV-unprocessed.smi:2457|AV-procd|sdf|9704|dock6
  -GOLD-   2272013343D 1   1.00000     0.00000
 Structure written by MMmdl.
 40 41  0  0  0  0  0  0  0  0  1 V2000
  144.7264  136.0294  153.9581 C   0  0  0  0  0  0  0  0  0  0  0  0
  145.5874  137.1437  153.4537 C   0  0  0  0  0  0  0  0  0  0  0  0
  145.6128  137.6579  152.1816 C   0  0  0  0  0  0  0  0  0  0  0  0
  146.7557  138.9636  152.0325 S   0  0  0  0  0  0  0  0  0  0  0  0
  147.1634  138.7627  153.7338 C   0  0  0  0  0  0  0  0  0  0  0  0
  148.1346  139.6489  154.4550 C   0  0  2  0  0  0  0  0  0  0  0  0
  147.9563  139.5801  155.9784 C   0  0  0  0  0  0  0  0  0  0  0  0
  148.1569  141.0972  153.9167 C   0  0  0  0  0  0  0  0  0  0  0  0
  148.8590  142.0091  154.8187 N   0  0  0  0  0  0  0  0  0  0  0  0
  149.9965  141.7295  155.4715 C   0  0  0  0  0  0  0  0  0  0  0  0
  150.6506  140.6985  155.3139 O   0  0  0  0  0  0  0  0  0  0  0  0
  150.3116  142.6887  156.3524 N   0  0  0  0  0  0  0  0  0  0  0  0
  151.4200  142.6207  157.2999 C   0  0  2  0  0  0  0  0  0  0  0  0
  151.3428  141.3098  158.1117 C   0  0  0  0  0  0  0  0  0  0  0  0
  152.5206  141.1507  159.0863 C   0  0  0  0  0  0  0  0  0  0  0  0
  152.5771  142.2795  160.1256 C   0  0  0  0  0  0  0  0  0  0  0  0
  152.8146  143.8931  159.3328 S   0  0  0  0  0  0  0  0  0  0  0  0
  151.3880  143.8585  158.2125 C   0  0  0  0  0  0  0  0  0  0  0  0
  146.4795  137.7770  154.3230 N   0  0  0  0  0  0  0  0  0  0  0  0
  144.2112  135.5229  153.1416 H   0  0  0  0  0  0  0  0  0  0  0  0
  143.9676  136.4021  154.6468 H   0  0  0  0  0  0  0  0  0  0  0  0
  145.3176  135.2825  154.4884 H   0  0  0  0  0  0  0  0  0  0  0  0
  145.0276  137.3521  151.3270 H   0  0  0  0  0  0  0  0  0  0  0  0
  149.1230  139.2344  154.2513 H   0  0  0  0  0  0  0  0  0  0  0  0
  148.0440  138.5543  156.3379 H   0  0  0  0  0  0  0  0  0  0  0  0
  146.9782  139.9567  156.2801 H   0  0  0  0  0  0  0  0  0  0  0  0
  148.7126  140.1758  156.4896 H   0  0  0  0  0  0  0  0  0  0  0  0
  148.6085  141.1189  152.9234 H   0  0  0  0  0  0  0  0  0  0  0  0
  147.1368  141.4616  153.7922 H   0  0  0  0  0  0  0  0  0  0  0  0
  148.4031  142.8871  155.0188 H   0  0  0  0  0  0  0  0  0  0  0  0
  149.7120  143.4987  156.4101 H   0  0  0  0  0  0  0  0  0  0  0  0
  152.3580  142.6373  156.7415 H   0  0  0  0  0  0  0  0  0  0  0  0
  150.4028  141.2683  158.6637 H   0  0  0  0  0  0  0  0  0  0  0  0
  151.3330  140.4551  157.4338 H   0  0  0  0  0  0  0  0  0  0  0  0
  152.4334  140.1932  159.6009 H   0  0  0  0  0  0  0  0  0  0  0  0
  153.4579  141.1144  158.5295 H   0  0  0  0  0  0  0  0  0  0  0  0
  151.6582  142.3030  160.7123 H   0  0  0  0  0  0  0  0  0  0  0  0
  153.3976  142.1099  160.8233 H   0  0  0  0  0  0  0  0  0  0  0  0
  151.4007  144.7718  157.6168 H   0  0  0  0  0  0  0  0  0  0  0  0
  150.4730  143.8754  158.8057 H   0  0  0  0  0  0  0  0  0  0  0  0
  1  2  1  0  0  0  0
  1 20  1  0  0  0  0
  1 21  1  0  0  0  0
  1 22  1  0  0  0  0
  2 19  1  0  0  0  0
  2  3  2  0  0  0  0
  3  4  1  0  0  0  0
  3 23  1  0  0  0  0
  4  5  1  0  0  0  0
  5  6  1  0  0  0  0
  5 19  2  0  0  0  0
  6  7  1  0  0  0  0
  6  8  1  0  0  0  0
  6 24  1  0  0  0  0
  7 25  1  0  0  0  0
  7 26  1  0  0  0  0
  7 27  1  0  0  0  0
  8  9  1  0  0  0  0
  8 28  1  0  0  0  0
  8 29  1  0  0  0  0
  9 10  1  0  0  0  0
  9 30  1  0  0  0  0
 10 11  2  0  0  0  0
 10 12  1  0  0  0  0
 12 13  1  0  0  0  0
 12 31  1  0  0  0  0
 13 18  1  0  0  0  0
 13 14  1  0  0  0  0
 13 32  1  0  0  0  0
 14 15  1  0  0  0  0
 14 33  1  0  0  0  0
 14 34  1  0  0  0  0
 15 16  1  0  0  0  0
 15 35  1  0  0  0  0
 15 36  1  0  0  0  0
 16 17  1  0  0  0  0
 16 37  1  0  0  0  0
 16 38  1  0  0  0  0
 17 18  1  0  0  0  0
 18 39  1  0  0  0  0
 18 40  1  0  0  0  0
M  END
> <s_m_source_file>
AV-unprocessed.smi

> <i_m_source_file_index>
2457

> <i_lp_mmshare_version>
43012

> <i_f3d_flags>
0

> <s_epik_input>
W0NIM11jMVtjSF1zYyhuMSlbQ0BIXShbQ0gzXSlbQ0gyXVtOSF1DKD1PKVtOSF1bQ0BASF0yW0NIMl1bQ0gyXVtDSDJdU1tDSDJdMg==

> <s_epik_cmdline>
J2VwaWtfcHl0aG9uJywgJy1waCcsICc3LjAnLCAnLXRuJywgJzgnLCAnLW1hJywgJzIwMCcsICctbWV0YWxfYmluZGluZycsICctaW1hZScsICc8aW5maWxlLm1hZT4nLCAnLW9tYWUnLCAnPG91dGZpbGUubWFlPic=

> <r_epik_Ionization_Penalty>
0.00154805

> <r_epik_Ionization_Penalty_Charging>
0

> <r_epik_Ionization_Penalty_Neutral>
0.00154805

> <r_epik_State_Penalty>
0.00100357

> <r_epik_Charging_Adjusted_Penalty>
0.00100357

> <i_epik_Tot_Q>
0

> <i_epik_Tot_abs_Q>
0

> <r_epik_Metal_State_Penalty>
-0

> <b_epik_Metal_Only>
0

> <s_lp_Force_Field>
OPLS_2005

> <r_lp_Energy>
-7.34104

> <b_lp_Chiralities_Consistent>
1

> <s_lp_Variant>
AV-unprocessed.smi:2457-1

> <Gold.Version>
5.8.1

> <Gold.Id.Protein>
6NUR|6NUR_protein|mol2

> <Gold.PLP.Fitness>
43.6004

> <Gold.PLP.PLP>
-34.3277

> <Gold.PLP.part.hbond>
-3.0000

> <Gold.PLP.part.metal>
0.0000

> <Gold.PLP.part.buried>
-2.2931

> <Gold.PLP.part.nonpolar>
-29.1402

> <Gold.PLP.part.repulsive>
0.4716

> <Gold.PLP.ligand.clash>
0.0000

> <Gold.PLP.ligand.torsion>
0.9365

> <Gold.PLP.Chemscore.Hbond>
2.6800

> <Gold.PLP.Chemscore.CHOScore>
0.9942

> <Gold.PLP.Chemscore.Metal>
0.0000

> <Gold.Chemscore.Hbonds>
donor molecule, donor type, donor heavy atom, donor atom, acceptor molecule, acceptor atom, score
      L1  H     9    30       P1  8028  0.80
      L1  H    12    31       P1  8028  1.00
      P1  H  7989  7998       L1    11  0.80
      L1  C     3    23       P1 10171  1.00

> <Gold.PLP.Chemscore.Internal.Correction>
0.1232

> <Gold.Rescore>
     Score         DG    S(hbond)    S(metal)    S(lipo)     H(rot)  DE(clash)    DE(int)     intcor
     16.89     -20.15       2.07        0.00      98.35       1.46       0.12       3.14       ----

> <Gold.Chemscore.Fitness>
16.8873

> <Gold.Chemscore.DG>
-20.1521

> <Gold.Chemscore.ZeroCoef>
-5.4800

> <Gold.Chemscore.Hbond>
2.0678

> <Gold.Chemscore.Metal>
0.0000

> <Gold.Chemscore.Lipo>
98.3531

> <Gold.Chemscore.Internal_Hbond>
0.0000

> <Gold.Chemscore.DEClash>
0.1234

> <Gold.Chemscore.DEInternal>
3.1414

> <Gold.Chemscore.Rot>
1.4616

> <Gold.Chemscore.Internal.Correction>
   9.000000E+99

> <Gold.Chemscore.Hbonds>
donor molecule, donor type, donor heavy atom, donor atom, acceptor molecule, acceptor atom, score
      L1  H     9    30       P1  8028  0.78
      L1  H    12    31       P1  8028  0.94
      P1  H  7989  7998       L1    11  0.42

> <Gold.Chemscore.Hbond.Weighted>
-6.9064

> <Gold.Chemscore.Metal.Weighted>
-0.0000

> <Gold.Chemscore.Lipo.Weighted>
-11.5073

> <Gold.Chemscore.Internal_Hbond.Weighted>
0.0000

> <Gold.Chemscore.DEClash.Weighted>
0.1234

> <Gold.Chemscore.DEInternal.Weighted>
3.1414

> <Gold.Chemscore.Rot.Weighted>
3.7416

> <Gold.Chemscore.Internal.Correction.Weighted>
   9.000000E+99

> <Gold.Protein.RotatedTorsions>
[ 6907 6896 6895 6894 ] final   67.51 input  -60.11 | X-H torsion
[ 7974 7965 7964 7962 ] final -109.84 input  175.53 | X-H torsion
[ 8008 7997 7996 7995 ] final   82.05 input   59.86 | X-H torsion
[ 10167 10162 10161 10158 ] final -143.21 input  -65.29 | X-H torsion
[ 10718 10713 10712 10709 ] final -166.88 input   66.30 | X-H torsion
[ 10763 10752 10751 10750 ] final  125.28 input  -60.55 | X-H torsion
[ 11005 11000 10999 10996 ] final  100.75 input  -57.11 | X-H torsion

> <Gold.Protein.ActiveResidues>
 VAL166  LYS551  ARG553  GLY616  TRP617  ASP618  TYR619  PRO620  LYS621  CYS622 
 ASP623  PHE694  ASN695  SER759  ASP760  ASP761  ALA762  ILE779  LEU786  VAL792 
 PHE793  MET794  SER795  GLU796  ALA797  LYS798  CYS799  TRP800  GLU811  SER814 

> <Gold.Protein.RotatedAtoms>
  152.4556  134.5298  159.9807 H   0  0  0  0  0  0  0  0  0  0  0  0  # atno 6907 bound_to 6896
  151.5359  133.3435  159.2934 H   0  0  0  0  0  0  0  0  0  0  0  0  # atno 6908 bound_to 6896
  150.8500  134.7852  159.7064 H   0  0  0  0  0  0  0  0  0  0  0  0  # atno 6909 bound_to 6896
  145.1756  140.8946  143.3510 H   0  0  0  0  0  0  0  0  0  0  0  0  # atno 7974 bound_to 7965
  155.9054  140.3431  155.6058 H   0  0  0  0  0  0  0  0  0  0  0  0  # atno 8008 bound_to 7997
  155.7451  140.0812  157.2246 H   0  0  0  0  0  0  0  0  0  0  0  0  # atno 8009 bound_to 7997
  154.4049  140.1563  156.2647 H   0  0  0  0  0  0  0  0  0  0  0  0  # atno 8010 bound_to 7997
  139.8015  143.7827  152.2658 H   0  0  0  0  0  0  0  0  0  0  0  0  # atno 10167 bound_to 10162
  156.6743  130.9096  151.3048 H   0  0  0  0  0  0  0  0  0  0  0  0  # atno 10718 bound_to 10713
  153.6748  135.3324  155.3163 H   0  0  0  0  0  0  0  0  0  0  0  0  # atno 10763 bound_to 10752
  154.8481  135.4395  154.1668 H   0  0  0  0  0  0  0  0  0  0  0  0  # atno 10764 bound_to 10752
  153.2668  135.6996  153.7597 H   0  0  0  0  0  0  0  0  0  0  0  0  # atno 10765 bound_to 10752
  139.8771  134.9154  156.4804 H   0  0  0  0  0  0  0  0  0  0  0  0  # atno 11005 bound_to 11000
  145.0188  139.3442  143.6082 LP  0  0  0  0  0  0  0  0  0  0  0  0  # atno 17320 bound_to 7965
  146.3461  139.9481  142.8732 LP  0  0  0  0  0  0  0  0  0  0  0  0  # atno 17321 bound_to 7965
  139.7949  144.7396  150.9904 LP  0  0  0  0  0  0  0  0  0  0  0  0  # atno 17342 bound_to 10162
  140.7820  143.4404  151.0560 LP  0  0  0  0  0  0  0  0  0  0  0  0  # atno 17343 bound_to 10162
  157.7066  130.9392  150.0952 LP  0  0  0  0  0  0  0  0  0  0  0  0  # atno 17370 bound_to 10713
  156.1915  130.3655  149.8903 LP  0  0  0  0  0  0  0  0  0  0  0  0  # atno 17371 bound_to 10713
  140.8732  133.7973  155.9386 LP  0  0  0  0  0  0  0  0  0  0  0  0  # atno 17394 bound_to 11000
  140.8931  134.2470  157.5083 LP  0  0  0  0  0  0  0  0  0  0  0  0  # atno 17395 bound_to 11000

$$$$
