AV-unprocessed.smi:217|AV-procd|sdf|1660|dock5
  -GOLD-   2262020 53D 1   1.00000     0.00000
 Structure written by MMmdl.
 57 61  0  0  0  0  0  0  0  0  1 V2000
  144.7472  135.6312  149.7594 O   0  0  0  0  0  0  0  0  0  0  0  0
  145.5383  135.1325  150.8183 C   0  0  0  0  0  0  0  0  0  0  0  0
  145.0263  135.6318  152.1793 C   0  0  0  0  0  0  0  0  0  0  0  0
  143.6954  134.9271  152.5133 C   0  0  0  0  0  0  0  0  0  0  0  0
  143.8689  133.5322  152.6604 O   0  0  0  0  0  0  0  0  0  0  0  0
  146.0699  135.6418  153.3191 C   0  0  0  0  0  0  0  0  0  0  0  0
  145.5380  136.9988  153.7845 C   0  0  0  0  0  0  0  0  0  0  0  0
  146.4074  137.9698  154.3813 N   0  0  0  0  0  0  0  0  0  0  0  0
  146.1384  139.3057  154.5824 C   0  0  0  0  0  0  0  0  0  0  0  0
  147.0754  139.9776  155.1949 N   0  0  0  0  0  0  0  0  0  0  0  0
  148.0461  139.0234  155.4697 C   0  0  0  0  0  0  0  0  0  0  0  0
  149.3046  139.0565  156.1244 C   0  0  0  0  0  0  0  0  0  0  0  0
  149.8103  140.1957  156.6432 N   0  0  0  0  0  0  0  0  0  0  0  0
  150.7493  140.8711  155.7534 C   0  0  0  0  0  0  0  0  0  0  0  0
  151.1029  142.2663  156.2945 C   0  0  0  0  0  0  0  0  0  0  0  0
  151.6358  142.1949  157.7422 C   0  0  0  0  0  0  0  0  0  0  0  0
  151.9374  143.5925  158.3213 C   0  0  2  0  0  0  0  0  0  0  0  0
  152.3632  143.6029  159.7897 C   0  0  0  0  0  0  0  0  0  0  0  0
  152.0385  145.0236  160.1903 C   0  0  0  0  0  0  0  0  0  0  0  0
  150.7441  145.2816  159.4244 C   0  0  0  0  0  0  0  0  0  0  0  0
  150.7681  144.4082  158.2974 O   0  0  0  0  0  0  0  0  0  0  0  0
  150.6149  141.4352  158.6153 C   0  0  0  0  0  0  0  0  0  0  0  0
  150.2772  140.0591  158.0195 C   0  0  0  0  0  0  0  0  0  0  0  0
  150.0038  137.8953  156.2246 N   0  0  0  0  0  0  0  0  0  0  0  0
  149.4961  136.7675  155.7175 C   0  0  0  0  0  0  0  0  0  0  0  0
  148.3355  136.5852  155.0828 N   0  0  0  0  0  0  0  0  0  0  0  0
  147.6379  137.7530  154.9768 C   0  0  0  0  0  0  0  0  0  0  0  0
  145.0190  137.1667  152.3545 C   0  0  0  0  0  0  0  0  0  0  0  0
  145.1838  135.4422  148.9428 H   0  0  0  0  0  0  0  0  0  0  0  0
  145.5537  134.0438  150.7681 H   0  0  0  0  0  0  0  0  0  0  0  0
  146.5645  135.4592  150.6483 H   0  0  0  0  0  0  0  0  0  0  0  0
  143.2717  135.3064  153.4432 H   0  0  0  0  0  0  0  0  0  0  0  0
  142.9429  135.1080  151.7456 H   0  0  0  0  0  0  0  0  0  0  0  0
  143.3692  133.2445  153.4088 H   0  0  0  0  0  0  0  0  0  0  0  0
  145.9629  134.8429  154.0534 H   0  0  0  0  0  0  0  0  0  0  0  0
  147.0981  135.7010  152.9574 H   0  0  0  0  0  0  0  0  0  0  0  0
  144.7097  136.8688  154.4829 H   0  0  0  0  0  0  0  0  0  0  0  0
  145.2209  139.7724  154.2539 H   0  0  0  0  0  0  0  0  0  0  0  0
  151.6554  140.2711  155.6561 H   0  0  0  0  0  0  0  0  0  0  0  0
  150.3161  140.9600  154.7562 H   0  0  0  0  0  0  0  0  0  0  0  0
  151.8416  142.7259  155.6380 H   0  0  0  0  0  0  0  0  0  0  0  0
  150.2179  142.9032  156.2590 H   0  0  0  0  0  0  0  0  0  0  0  0
  152.5648  141.6228  157.7335 H   0  0  0  0  0  0  0  0  0  0  0  0
  152.7034  144.0903  157.7243 H   0  0  0  0  0  0  0  0  0  0  0  0
  151.7616  142.9028  160.3715 H   0  0  0  0  0  0  0  0  0  0  0  0
  153.4151  143.3535  159.9312 H   0  0  0  0  0  0  0  0  0  0  0  0
  151.9314  145.1537  161.2675 H   0  0  0  0  0  0  0  0  0  0  0  0
  152.8221  145.6969  159.8400 H   0  0  0  0  0  0  0  0  0  0  0  0
  149.8782  145.0298  160.0376 H   0  0  0  0  0  0  0  0  0  0  0  0
  150.6499  146.3233  159.1165 H   0  0  0  0  0  0  0  0  0  0  0  0
  151.0025  141.3055  159.6261 H   0  0  0  0  0  0  0  0  0  0  0  0
  149.7002  142.0225  158.7084 H   0  0  0  0  0  0  0  0  0  0  0  0
  149.5099  139.5725  158.6234 H   0  0  0  0  0  0  0  0  0  0  0  0
  151.1599  139.4183  158.0461 H   0  0  0  0  0  0  0  0  0  0  0  0
  150.1072  135.8850  155.8368 H   0  0  0  0  0  0  0  0  0  0  0  0
  145.7371  137.6710  151.7052 H   0  0  0  0  0  0  0  0  0  0  0  0
  144.0350  137.6313  152.2825 H   0  0  0  0  0  0  0  0  0  0  0  0
  1  2  1  0  0  0  0
  1 29  1  0  0  0  0
  2  3  1  0  0  0  0
  2 30  1  0  0  0  0
  2 31  1  0  0  0  0
  3 28  1  0  0  0  0
  3  4  1  0  0  0  0
  3  6  1  0  0  0  0
  4  5  1  0  0  0  0
  4 32  1  0  0  0  0
  4 33  1  0  0  0  0
  5 34  1  0  0  0  0
  6  7  1  0  0  0  0
  6 35  1  0  0  0  0
  6 36  1  0  0  0  0
  7  8  1  0  0  0  0
  7 28  1  0  0  0  0
  7 37  1  0  0  0  0
  8 27  1  0  0  0  0
  8  9  1  0  0  0  0
  9 10  2  0  0  0  0
  9 38  1  0  0  0  0
 10 11  1  0  0  0  0
 11 27  2  0  0  0  0
 11 12  1  0  0  0  0
 12 13  1  0  0  0  0
 12 24  2  0  0  0  0
 13 23  1  0  0  0  0
 13 14  1  0  0  0  0
 14 15  1  0  0  0  0
 14 39  1  0  0  0  0
 14 40  1  0  0  0  0
 15 16  1  0  0  0  0
 15 41  1  0  0  0  0
 15 42  1  0  0  0  0
 16 17  1  0  0  0  0
 16 22  1  0  0  0  0
 16 43  1  0  0  0  0
 17 21  1  0  0  0  0
 17 18  1  0  0  0  0
 17 44  1  0  0  0  0
 18 19  1  0  0  0  0
 18 45  1  0  0  0  0
 18 46  1  0  0  0  0
 19 20  1  0  0  0  0
 19 47  1  0  0  0  0
 19 48  1  0  0  0  0
 20 21  1  0  0  0  0
 20 49  1  0  0  0  0
 20 50  1  0  0  0  0
 22 23  1  0  0  0  0
 22 51  1  0  0  0  0
 22 52  1  0  0  0  0
 23 53  1  0  0  0  0
 23 54  1  0  0  0  0
 24 25  1  0  0  0  0
 25 26  2  0  0  0  0
 25 55  1  0  0  0  0
 26 27  1  0  0  0  0
 28 56  1  0  0  0  0
 28 57  1  0  0  0  0
M  END
> <s_m_source_file>
AV-unprocessed.smi

> <i_m_source_file_index>
217

> <i_lp_mmshare_version>
43012

> <i_f3d_flags>
0

> <s_epik_input>
W09IXVtDSDJdQzEoW0NIMl1bT0hdKVtDSDJdW0NIXShbQ0gyXTEpbihbY0hdbjIpYyhjMjMpbltjSF1uYzNONFtDSDJdW0NIMl1bQ0hdKFtDSDJdW0NIMl00KVtDQEBIXTVbQ0gyXVtDSDJdW0NIMl1PNQ==

> <s_epik_cmdline>
J2VwaWtfcHl0aG9uJywgJy1waCcsICc3LjAnLCAnLXRuJywgJzgnLCAnLW1hJywgJzIwMCcsICctbWV0YWxfYmluZGluZycsICctaW1hZScsICc8aW5maWxlLm1hZT4nLCAnLW9tYWUnLCAnPG91dGZpbGUubWFlPic=

> <r_lp_tautomer_probability>
1

> <r_epik_Ionization_Penalty>
0.0037022

> <r_epik_Ionization_Penalty_Charging>
0

> <r_epik_Ionization_Penalty_Neutral>
0.0037022

> <r_epik_State_Penalty>
0.00257654

> <r_epik_Charging_Adjusted_Penalty>
0.00257654

> <i_epik_Tot_Q>
0

> <i_epik_Tot_abs_Q>
0

> <r_epik_Metal_State_Penalty>
-0

> <b_epik_Metal_Only>
0

> <s_lp_Force_Field>
OPLS_2005

> <r_lp_Energy>
56.6597

> <b_lp_Chiralities_Consistent>
1

> <s_lp_Variant>
AV-unprocessed.smi:217-1

> <Gold.Version>
5.8.1

> <Gold.Id.Protein>
6NUR|6NUR_protein|mol2

> <Gold.PLP.Fitness>
46.5165

> <Gold.PLP.PLP>
-38.6926

> <Gold.PLP.part.hbond>
-3.0000

> <Gold.PLP.part.metal>
0.0000

> <Gold.PLP.part.buried>
-6.8707

> <Gold.PLP.part.nonpolar>
-28.8924

> <Gold.PLP.part.repulsive>
0.3499

> <Gold.PLP.ligand.clash>
0.0000

> <Gold.PLP.ligand.torsion>
0.9484

> <Gold.PLP.Chemscore.Hbond>
2.0000

> <Gold.PLP.Chemscore.CHOScore>
1.0000

> <Gold.PLP.Chemscore.Metal>
0.0000

> <Gold.Chemscore.Hbonds>
donor molecule, donor type, donor heavy atom, donor atom, acceptor molecule, acceptor atom, score
      L1  H     1    29       P1  7921  1.00
      L1  H     5    34       P1 10957  0.75
      L1  C     9    38       P1 10175  1.00

> <Gold.PLP.Chemscore.Internal.Correction>
0.7207

> <Gold.Rescore>
     Score         DG    S(hbond)    S(metal)    S(lipo)     H(rot)  DE(clash)    DE(int)     intcor
     13.47     -15.32       1.91        0.00     101.46       3.28       0.00       1.84       ----

> <Gold.Chemscore.Fitness>
13.4707

> <Gold.Chemscore.DG>
-15.3157

> <Gold.Chemscore.ZeroCoef>
-5.4800

> <Gold.Chemscore.Hbond>
1.9085

> <Gold.Chemscore.Metal>
0.0000

> <Gold.Chemscore.Lipo>
101.4565

> <Gold.Chemscore.Internal_Hbond>
0.0000

> <Gold.Chemscore.DEClash>
0.0015

> <Gold.Chemscore.DEInternal>
1.8436

> <Gold.Chemscore.Rot>
3.2848

> <Gold.Chemscore.Internal.Correction>
   9.000000E+99

> <Gold.Chemscore.Hbonds>
donor molecule, donor type, donor heavy atom, donor atom, acceptor molecule, acceptor atom, score
      L1  H     1    29       P1  7921  1.00
      L1  H     5    34       P1 10957  0.67

> <Gold.Chemscore.Hbond.Weighted>
-6.3745

> <Gold.Chemscore.Metal.Weighted>
-0.0000

> <Gold.Chemscore.Lipo.Weighted>
-11.8704

> <Gold.Chemscore.Internal_Hbond.Weighted>
0.0000

> <Gold.Chemscore.DEClash.Weighted>
0.0015

> <Gold.Chemscore.DEInternal.Weighted>
1.8436

> <Gold.Chemscore.Rot.Weighted>
8.4092

> <Gold.Chemscore.Internal.Correction.Weighted>
   9.000000E+99

> <Gold.Protein.RotatedTorsions>
[ 6907 6896 6895 6894 ] final   67.11 input  -60.11 | X-H torsion
[ 7974 7965 7964 7962 ] final   95.42 input  175.53 | X-H torsion
[ 8008 7997 7996 7995 ] final  -10.51 input   59.86 | X-H torsion
[ 10167 10162 10161 10158 ] final   94.72 input  -65.29 | X-H torsion
[ 10718 10713 10712 10709 ] final  -38.83 input   66.30 | X-H torsion
[ 10763 10752 10751 10750 ] final  -21.68 input  -60.55 | X-H torsion
[ 11005 11000 10999 10996 ] final   -7.56 input  -57.11 | X-H torsion

> <Gold.Protein.ActiveResidues>
 VAL166  LYS551  ARG553  GLY616  TRP617  ASP618  TYR619  PRO620  LYS621  CYS622 
 ASP623  PHE694  ASN695  SER759  ASP760  ASP761  ALA762  ILE779  LEU786  VAL792 
 PHE793  MET794  SER795  GLU796  ALA797  LYS798  CYS799  TRP800  GLU811  SER814 

> <Gold.Protein.RotatedAtoms>
  152.4529  134.5355  159.9823 H   0  0  0  0  0  0  0  0  0  0  0  0  # atno 6907 bound_to 6896
  151.5423  133.3425  159.2945 H   0  0  0  0  0  0  0  0  0  0  0  0  # atno 6908 bound_to 6896
  150.8463  134.7805  159.7036 H   0  0  0  0  0  0  0  0  0  0  0  0  # atno 6909 bound_to 6896
  145.4524  139.2292  143.3032 H   0  0  0  0  0  0  0  0  0  0  0  0  # atno 7974 bound_to 7965
  154.5548  140.2327  155.8427 H   0  0  0  0  0  0  0  0  0  0  0  0  # atno 8008 bound_to 7997
  156.1979  140.3060  155.9425 H   0  0  0  0  0  0  0  0  0  0  0  0  # atno 8009 bound_to 7997
  155.3001  140.0430  157.3019 H   0  0  0  0  0  0  0  0  0  0  0  0  # atno 8010 bound_to 7997
  139.8057  144.6795  150.9707 H   0  0  0  0  0  0  0  0  0  0  0  0  # atno 10167 bound_to 10162
  156.2993  130.4238  149.8159 H   0  0  0  0  0  0  0  0  0  0  0  0  # atno 10718 bound_to 10713
  153.6399  135.6985  153.5245 H   0  0  0  0  0  0  0  0  0  0  0  0  # atno 10763 bound_to 10752
  153.2791  135.4191  155.1061 H   0  0  0  0  0  0  0  0  0  0  0  0  # atno 10764 bound_to 10752
  154.8502  135.3597  154.5943 H   0  0  0  0  0  0  0  0  0  0  0  0  # atno 10765 bound_to 10752
  140.7140  133.8884  155.8772 H   0  0  0  0  0  0  0  0  0  0  0  0  # atno 11005 bound_to 11000
  146.2497  140.5284  142.8899 LP  0  0  0  0  0  0  0  0  0  0  0  0  # atno 17320 bound_to 7965
  144.8053  140.6289  143.6451 LP  0  0  0  0  0  0  0  0  0  0  0  0  # atno 17321 bound_to 7965
  140.7819  143.4236  151.0802 LP  0  0  0  0  0  0  0  0  0  0  0  0  # atno 17342 bound_to 10162
  139.7906  143.8224  152.3151 LP  0  0  0  0  0  0  0  0  0  0  0  0  # atno 17343 bound_to 10162
  156.5543  130.8355  151.3309 LP  0  0  0  0  0  0  0  0  0  0  0  0  # atno 17370 bound_to 10713
  157.7364  130.9777  150.2133 LP  0  0  0  0  0  0  0  0  0  0  0  0  # atno 17371 bound_to 10713
  141.0060  134.1086  157.4270 LP  0  0  0  0  0  0  0  0  0  0  0  0  # atno 17394 bound_to 11000
  139.8864  135.0081  156.6498 LP  0  0  0  0  0  0  0  0  0  0  0  0  # atno 17395 bound_to 11000

$$$$
