AV-unprocessed.smi:1897|AV-procd|sdf|7690|dock2
  -GOLD-   22720 9433D 1   1.00000     0.00000
 Structure written by MMmdl.
 39 41  0  0  0  0  0  0  0  0  2 V2000
  150.5560  141.3467  155.8685 C   0  0  0  0  0  0  0  0  0  0  0  0
  149.5073  140.6243  155.0936 C   0  0  0  0  0  0  0  0  0  0  0  0
  148.2802  141.1204  154.8937 N   0  0  0  0  0  0  0  0  0  0  0  0
  147.4836  140.2655  154.1465 N   0  0  0  0  0  0  0  0  0  0  0  0
  148.1388  139.1516  153.7877 C   0  0  0  0  0  0  0  0  0  0  0  0
  147.5630  138.0883  153.0336 N   0  0  0  0  0  0  0  0  0  0  0  0
  146.2773  137.7111  152.8717 C   0  0  0  0  0  0  0  0  0  0  0  0
  145.3602  138.3145  153.4257 O   0  0  0  0  0  0  0  0  0  0  0  0
  146.0688  136.6461  152.0804 N   0  0  0  0  0  0  0  0  0  0  0  0
  144.7615  136.0995  151.7329 C   0  0  2  0  0  0  0  0  0  0  0  0
  143.9276  135.7151  152.9483 C   0  0  0  0  0  0  0  0  0  0  0  0
  142.8845  134.7580  152.3626 C   0  0  0  0  0  0  0  0  0  0  0  0
  143.4941  134.1429  151.1576 N   0  3  2  0  0  0  0  0  0  0  0  0
  143.5084  132.6555  151.1787 C   0  0  0  0  0  0  0  0  0  0  0  0
  144.4848  132.1001  150.1315 C   0  0  0  0  0  0  0  0  0  0  0  0
  145.9314  132.5463  150.4172 C   0  0  0  0  0  0  0  0  0  0  0  0
  145.9956  133.8448  151.2438 C   0  0  0  0  0  0  0  0  0  0  0  0
  144.8144  134.7927  150.9188 C   0  0  2  0  0  0  0  0  0  0  0  0
  149.7908  139.0447  154.3728 S   0  0  0  0  0  0  0  0  0  0  0  0
  150.1878  142.3168  156.2042 H   0  0  0  0  0  0  0  0  0  0  0  0
  151.4367  141.5040  155.2459 H   0  0  0  0  0  0  0  0  0  0  0  0
  150.8435  140.7613  156.7419 H   0  0  0  0  0  0  0  0  0  0  0  0
  148.2380  137.4757  152.5987 H   0  0  0  0  0  0  0  0  0  0  0  0
  146.8763  136.2018  151.6663 H   0  0  0  0  0  0  0  0  0  0  0  0
  144.2000  136.8459  151.1668 H   0  0  0  0  0  0  0  0  0  0  0  0
  144.5433  135.1884  153.6792 H   0  0  0  0  0  0  0  0  0  0  0  0
  143.4784  136.5757  153.4451 H   0  0  0  0  0  0  0  0  0  0  0  0
  142.5544  134.0253  153.1002 H   0  0  0  0  0  0  0  0  0  0  0  0
  142.0036  135.3158  152.0433 H   0  0  0  0  0  0  0  0  0  0  0  0
  143.8013  132.2950  152.1665 H   0  0  0  0  0  0  0  0  0  0  0  0
  142.4981  132.2882  150.9958 H   0  0  0  0  0  0  0  0  0  0  0  0
  144.4307  131.0116  150.0958 H   0  0  0  0  0  0  0  0  0  0  0  0
  144.1829  132.4520  149.1440 H   0  0  0  0  0  0  0  0  0  0  0  0
  146.4678  131.7613  150.9514 H   0  0  0  0  0  0  0  0  0  0  0  0
  146.4550  132.6795  149.4698 H   0  0  0  0  0  0  0  0  0  0  0  0
  145.9776  133.5978  152.3063 H   0  0  0  0  0  0  0  0  0  0  0  0
  146.9547  134.3309  151.0637 H   0  0  0  0  0  0  0  0  0  0  0  0
  144.8787  135.0433  149.8588 H   0  0  0  0  0  0  0  0  0  0  0  0
  142.9121  134.4139  150.3778 H   0  0  0  0  0  0  0  0  0  0  0  0
  1  2  1  0  0  0  0
  1 20  1  0  0  0  0
  1 21  1  0  0  0  0
  1 22  1  0  0  0  0
  2 19  1  0  0  0  0
  2  3  2  0  0  0  0
  3  4  1  0  0  0  0
  4  5  2  0  0  0  0
  5  6  1  0  0  0  0
  5 19  1  0  0  0  0
  6  7  1  0  0  0  0
  6 23  1  0  0  0  0
  7  8  2  0  0  0  0
  7  9  1  0  0  0  0
  9 10  1  0  0  0  0
  9 24  1  0  0  0  0
 10 18  1  0  0  0  0
 10 11  1  0  0  0  0
 10 25  1  0  0  0  0
 11 12  1  0  0  0  0
 11 26  1  0  0  0  0
 11 27  1  0  0  0  0
 12 13  1  0  0  0  0
 12 28  1  0  0  0  0
 12 29  1  0  0  0  0
 13 18  1  0  0  0  0
 13 14  1  0  0  0  0
 13 39  1  0  0  0  0
 14 15  1  0  0  0  0
 14 30  1  0  0  0  0
 14 31  1  0  0  0  0
 15 16  1  0  0  0  0
 15 32  1  0  0  0  0
 15 33  1  0  0  0  0
 16 17  1  0  0  0  0
 16 34  1  0  0  0  0
 16 35  1  0  0  0  0
 17 18  1  0  0  0  0
 17 36  1  0  0  0  0
 17 37  1  0  0  0  0
 18 38  1  0  0  0  0
M  CHG  1  13   1
M  END
> <s_m_source_file>
AV-unprocessed.smi

> <i_m_source_file_index>
1897

> <i_lp_mmshare_version>
43012

> <i_f3d_flags>
0

> <s_epik_input>
W0NIM11jMW5uYyhzMSlbTkhdQyg9TylbTkhdW0NASF0oW0NIMl1bQ0gyXTIpW0NAQEhdKE4yMylbQ0gyXVtDSDJdW0NIMl1bQ0gyXTM=

> <s_epik_cmdline>
J2VwaWtfcHl0aG9uJywgJy1waCcsICc3LjAnLCAnLXRuJywgJzgnLCAnLW1hJywgJzIwMCcsICctbWV0YWxfYmluZGluZycsICctaW1hZScsICc8aW5maWxlLm1hZT4nLCAnLW9tYWUnLCAnPG91dGZpbGUubWFlPic=

> <r_lp_tautomer_probability>
1

> <r_epik_Ionization_Penalty>
0.00228891

> <r_epik_Ionization_Penalty_Charging>
0.00107044

> <r_epik_Ionization_Penalty_Neutral>
0.00121847

> <r_epik_State_Penalty>
-0

> <r_epik_Charging_Adjusted_Penalty>
0.00107044

> <i_epik_Tot_Q>
1

> <i_epik_Tot_abs_Q>
1

> <r_epik_Metal_State_Penalty>
0.304057

> <b_epik_Metal_Only>
0

> <s_lp_Force_Field>
OPLS_2005

> <r_lp_Energy>
41.6372

> <b_lp_Chiralities_Consistent>
1

> <s_lp_Variant>
AV-unprocessed.smi:1897-7

> <Gold.Version>
5.8.1

> <Gold.Id.Protein>
6NUR|6NUR_protein|mol2

> <Gold.PLP.Fitness>
43.2279

> <Gold.PLP.PLP>
-33.1097

> <Gold.PLP.part.hbond>
-3.0000

> <Gold.PLP.part.metal>
0.0000

> <Gold.PLP.part.buried>
-5.9118

> <Gold.PLP.part.nonpolar>
-27.4831

> <Gold.PLP.part.repulsive>
2.0001

> <Gold.PLP.ligand.clash>
0.0000

> <Gold.PLP.ligand.torsion>
0.1508

> <Gold.PLP.Chemscore.Hbond>
3.4721

> <Gold.PLP.Chemscore.CHOScore>
0.0000

> <Gold.PLP.Chemscore.Metal>
0.0000

> <Gold.Chemscore.Hbonds>
donor molecule, donor type, donor heavy atom, donor atom, acceptor molecule, acceptor atom, score
      L1  H     6    23       P1  7948  1.00
      L1  H     9    24       P1  7948  0.75
      L1  H    13    39       P1 10186  1.72

> <Gold.PLP.Chemscore.Internal.Correction>
0.0034

> <Gold.Rescore>
     Score         DG    S(hbond)    S(metal)    S(lipo)     H(rot)  DE(clash)    DE(int)     intcor
     17.05     -19.28       2.32        0.00      73.62       1.00       0.33       1.89       ----

> <Gold.Chemscore.Fitness>
17.0516

> <Gold.Chemscore.DG>
-19.2759

> <Gold.Chemscore.ZeroCoef>
-5.4800

> <Gold.Chemscore.Hbond>
2.3182

> <Gold.Chemscore.Metal>
0.0000

> <Gold.Chemscore.Lipo>
73.6171

> <Gold.Chemscore.Internal_Hbond>
0.0000

> <Gold.Chemscore.DEClash>
0.3350

> <Gold.Chemscore.DEInternal>
1.8893

> <Gold.Chemscore.Rot>
1.0000

> <Gold.Chemscore.Internal.Correction>
   9.000000E+99

> <Gold.Chemscore.Hbonds>
donor molecule, donor type, donor heavy atom, donor atom, acceptor molecule, acceptor atom, score
      L1  H     6    23       P1  7948  0.99
      L1  H     9    24       P1  7948  0.72
      L1  H    13    39       P1 10186  0.55

> <Gold.Chemscore.Hbond.Weighted>
-7.7427

> <Gold.Chemscore.Metal.Weighted>
-0.0000

> <Gold.Chemscore.Lipo.Weighted>
-8.6132

> <Gold.Chemscore.Internal_Hbond.Weighted>
0.0000

> <Gold.Chemscore.DEClash.Weighted>
0.3350

> <Gold.Chemscore.DEInternal.Weighted>
1.8893

> <Gold.Chemscore.Rot.Weighted>
2.5600

> <Gold.Chemscore.Internal.Correction.Weighted>
   9.000000E+99

> <Gold.Protein.RotatedTorsions>
[ 6907 6896 6895 6894 ] final  174.66 input  -60.11 | X-H torsion
[ 7974 7965 7964 7962 ] final -137.17 input  175.53 | X-H torsion
[ 8008 7997 7996 7995 ] final -136.43 input   59.86 | X-H torsion
[ 10167 10162 10161 10158 ] final   38.37 input  -65.29 | X-H torsion
[ 10718 10713 10712 10709 ] final  -47.97 input   66.30 | X-H torsion
[ 10763 10752 10751 10750 ] final -123.73 input  -60.55 | X-H torsion
[ 11005 11000 10999 10996 ] final  164.63 input  -57.11 | X-H torsion

> <Gold.Protein.ActiveResidues>
 VAL166  LYS551  ARG553  GLY616  TRP617  ASP618  TYR619  PRO620  LYS621  CYS622 
 ASP623  PHE694  ASN695  SER759  ASP760  ASP761  ALA762  ILE779  LEU786  VAL792 
 PHE793  MET794  SER795  GLU796  ALA797  LYS798  CYS799  TRP800  GLU811  SER814 

> <Gold.Protein.RotatedAtoms>
  151.7488  133.3326  159.3385 H   0  0  0  0  0  0  0  0  0  0  0  0  # atno 6907 bound_to 6896
  150.7544  134.6211  159.6146 H   0  0  0  0  0  0  0  0  0  0  0  0  # atno 6908 bound_to 6896
  152.3482  134.7044  160.0295 H   0  0  0  0  0  0  0  0  0  0  0  0  # atno 6909 bound_to 6896
  144.8865  140.6582  143.5173 H   0  0  0  0  0  0  0  0  0  0  0  0  # atno 7974 bound_to 7965
  155.3952  140.0502  157.3039 H   0  0  0  0  0  0  0  0  0  0  0  0  # atno 8008 bound_to 7997
  154.5017  140.2159  155.9294 H   0  0  0  0  0  0  0  0  0  0  0  0  # atno 8009 bound_to 7997
  156.1475  140.3142  155.8600 H   0  0  0  0  0  0  0  0  0  0  0  0  # atno 8010 bound_to 7997
  140.3943  144.1810  150.6131 H   0  0  0  0  0  0  0  0  0  0  0  0  # atno 10167 bound_to 10162
  156.2033  130.4157  149.9211 H   0  0  0  0  0  0  0  0  0  0  0  0  # atno 10718 bound_to 10713
  154.8712  135.4088  154.2991 H   0  0  0  0  0  0  0  0  0  0  0  0  # atno 10763 bound_to 10752
  153.3853  135.7013  153.6540 H   0  0  0  0  0  0  0  0  0  0  0  0  # atno 10764 bound_to 10752
  153.5345  135.3660  155.2662 H   0  0  0  0  0  0  0  0  0  0  0  0  # atno 10765 bound_to 10752
  140.2479  134.8000  157.3474 H   0  0  0  0  0  0  0  0  0  0  0  0  # atno 11005 bound_to 11000
  145.3860  139.1626  143.4255 LP  0  0  0  0  0  0  0  0  0  0  0  0  # atno 17320 bound_to 7965
  146.3027  140.3945  142.8698 LP  0  0  0  0  0  0  0  0  0  0  0  0  # atno 17321 bound_to 7965
  140.4807  143.2380  151.8960 LP  0  0  0  0  0  0  0  0  0  0  0  0  # atno 17342 bound_to 10162
  139.4787  144.5273  151.8717 LP  0  0  0  0  0  0  0  0  0  0  0  0  # atno 17343 bound_to 10162
  156.6913  130.8897  151.3588 LP  0  0  0  0  0  0  0  0  0  0  0  0  # atno 17370 bound_to 10713
  157.6998  130.9321  150.0752 LP  0  0  0  0  0  0  0  0  0  0  0  0  # atno 17371 bound_to 10713
  140.1587  134.4756  155.7909 LP  0  0  0  0  0  0  0  0  0  0  0  0  # atno 17394 bound_to 11000
  141.2204  133.6892  156.7507 LP  0  0  0  0  0  0  0  0  0  0  0  0  # atno 17395 bound_to 11000

$$$$
