AV-unprocessed.smi:2406|AV-procd|sdf|9516|dock10
  -GOLD-   2272013143D 1   1.00000     0.00000
 Structure written by MMmdl.
 36 37  0  0  0  0  0  0  0  0  1 V2000
  153.0694  138.2728  155.0066 C   0  0  0  0  0  0  0  0  0  0  0  0
  152.5474  139.4519  155.6087 O   0  0  0  0  0  0  0  0  0  0  0  0
  151.2207  139.7612  155.3918 C   0  0  0  0  0  0  0  0  0  0  0  0
  150.4341  138.9072  154.5918 C   0  0  0  0  0  0  0  0  0  0  0  0
  149.0788  139.2573  154.3992 C   0  0  0  0  0  0  0  0  0  0  0  0
  148.3203  138.3660  153.5951 N   0  0  0  0  0  0  0  0  0  0  0  0
  146.9829  138.2807  153.4861 C   0  0  0  0  0  0  0  0  0  0  0  0
  146.1748  139.0049  154.0682 O   0  0  0  0  0  0  0  0  0  0  0  0
  146.6285  137.2960  152.6459 N   0  0  0  0  0  0  0  0  0  0  0  0
  145.2594  136.9120  152.3038 C   0  0  2  0  0  0  0  0  0  0  0  0
  144.5469  136.4171  153.5698 C   0  0  0  0  0  0  0  0  0  0  0  0
  145.2461  135.8419  151.1939 C   0  0  0  0  0  0  0  0  0  0  0  0
  145.5637  134.4428  151.6920 C   0  0  0  0  0  0  0  0  0  0  0  0
  146.8533  133.7573  151.3096 C   0  0  0  0  0  0  0  0  0  0  0  0
  145.5389  133.2614  150.7519 C   0  0  0  0  0  0  0  0  0  0  0  0
  148.5826  140.3818  154.9723 N   0  0  0  0  0  0  0  0  0  0  0  0
  149.4096  141.1245  155.7105 C   0  0  0  0  0  0  0  0  0  0  0  0
  150.6975  140.8780  155.9530 N   0  0  0  0  0  0  0  0  0  0  0  0
  154.1226  138.1703  155.2675 H   0  0  0  0  0  0  0  0  0  0  0  0
  153.0008  138.3178  153.9188 H   0  0  0  0  0  0  0  0  0  0  0  0
  152.5525  137.3799  155.3613 H   0  0  0  0  0  0  0  0  0  0  0  0
  150.8583  138.0179  154.1488 H   0  0  0  0  0  0  0  0  0  0  0  0
  148.8580  137.7089  153.0497 H   0  0  0  0  0  0  0  0  0  0  0  0
  147.3654  136.7594  152.2124 H   0  0  0  0  0  0  0  0  0  0  0  0
  144.7072  137.7819  151.9434 H   0  0  0  0  0  0  0  0  0  0  0  0
  143.5132  136.1439  153.3562 H   0  0  0  0  0  0  0  0  0  0  0  0
  144.5292  137.1905  154.3383 H   0  0  0  0  0  0  0  0  0  0  0  0
  145.0426  135.5408  153.9890 H   0  0  0  0  0  0  0  0  0  0  0  0
  144.2728  135.8204  150.7022 H   0  0  0  0  0  0  0  0  0  0  0  0
  145.9722  136.1106  150.4255 H   0  0  0  0  0  0  0  0  0  0  0  0
  145.2047  134.2437  152.6999 H   0  0  0  0  0  0  0  0  0  0  0  0
  147.5228  134.2808  150.6297 H   0  0  0  0  0  0  0  0  0  0  0  0
  147.3412  133.1512  152.0701 H   0  0  0  0  0  0  0  0  0  0  0  0
  145.1520  132.3205  151.1376 H   0  0  0  0  0  0  0  0  0  0  0  0
  145.3377  133.4518  149.6995 H   0  0  0  0  0  0  0  0  0  0  0  0
  148.9934  142.0146  156.1584 H   0  0  0  0  0  0  0  0  0  0  0  0
  1  2  1  0  0  0  0
  1 19  1  0  0  0  0
  1 20  1  0  0  0  0
  1 21  1  0  0  0  0
  2  3  1  0  0  0  0
  3 18  1  0  0  0  0
  3  4  2  0  0  0  0
  4  5  1  0  0  0  0
  4 22  1  0  0  0  0
  5  6  1  0  0  0  0
  5 16  2  0  0  0  0
  6  7  1  0  0  0  0
  6 23  1  0  0  0  0
  7  8  2  0  0  0  0
  7  9  1  0  0  0  0
  9 10  1  0  0  0  0
  9 24  1  0  0  0  0
 10 11  1  0  0  0  0
 10 12  1  0  0  0  0
 10 25  1  0  0  0  0
 11 26  1  0  0  0  0
 11 27  1  0  0  0  0
 11 28  1  0  0  0  0
 12 13  1  0  0  0  0
 12 29  1  0  0  0  0
 12 30  1  0  0  0  0
 13 15  1  0  0  0  0
 13 14  1  0  0  0  0
 13 31  1  0  0  0  0
 14 15  1  0  0  0  0
 14 32  1  0  0  0  0
 14 33  1  0  0  0  0
 15 34  1  0  0  0  0
 15 35  1  0  0  0  0
 16 17  1  0  0  0  0
 17 18  2  0  0  0  0
 17 36  1  0  0  0  0
M  END
> <s_m_source_file>
AV-unprocessed.smi

> <i_m_source_file_index>
2406

> <i_lp_mmshare_version>
43012

> <i_f3d_flags>
0

> <s_epik_input>
W0NIM11PYzFbY0hdYyhuW2NIXW4xKVtOSF1DKD1PKVtOSF1bQ0BIXShbQ0gzXSlbQ0gyXVtDSF0yW0NIMl1bQ0gyXTI=

> <s_epik_cmdline>
J2VwaWtfcHl0aG9uJywgJy1waCcsICc3LjAnLCAnLXRuJywgJzgnLCAnLW1hJywgJzIwMCcsICctbWV0YWxfYmluZGluZycsICctaW1hZScsICc8aW5maWxlLm1hZT4nLCAnLW9tYWUnLCAnPG91dGZpbGUubWFlPic=

> <r_lp_tautomer_probability>
1

> <r_epik_Ionization_Penalty>
2.82876e-05

> <r_epik_Ionization_Penalty_Charging>
0

> <r_epik_Ionization_Penalty_Neutral>
2.82876e-05

> <r_epik_State_Penalty>
-0

> <r_epik_Charging_Adjusted_Penalty>
0

> <i_epik_Tot_Q>
0

> <i_epik_Tot_abs_Q>
0

> <r_epik_Metal_State_Penalty>
-0

> <b_epik_Metal_Only>
0

> <s_lp_Force_Field>
OPLS_2005

> <r_lp_Energy>
11.282

> <b_lp_Chiralities_Consistent>
1

> <s_lp_Variant>
AV-unprocessed.smi:2406-1

> <Gold.Version>
5.8.1

> <Gold.Id.Protein>
6NUR|6NUR_protein|mol2

> <Gold.PLP.Fitness>
40.9753

> <Gold.PLP.PLP>
-29.9899

> <Gold.PLP.part.hbond>
-5.8031

> <Gold.PLP.part.metal>
0.0000

> <Gold.PLP.part.buried>
0.3620

> <Gold.PLP.part.nonpolar>
-25.5293

> <Gold.PLP.part.repulsive>
0.4150

> <Gold.PLP.ligand.clash>
0.2830

> <Gold.PLP.ligand.torsion>
0.5783

> <Gold.PLP.Chemscore.Hbond>
2.9500

> <Gold.PLP.Chemscore.CHOScore>
1.0000

> <Gold.PLP.Chemscore.Metal>
0.0000

> <Gold.Chemscore.Hbonds>
donor molecule, donor type, donor heavy atom, donor atom, acceptor molecule, acceptor atom, score
      L1  H     6    23       P1  7948  1.00
      L1  H     9    24       P1  7948  1.00
      P1  H  7997  8009       L1     2  0.70
      L1  C    17    36       P1  8028  0.45

> <Gold.PLP.Chemscore.Internal.Correction>
0.5749

> <Gold.Rescore>
     Score         DG    S(hbond)    S(metal)    S(lipo)     H(rot)  DE(clash)    DE(int)     intcor
     12.05     -14.92       2.61        0.00      46.60       1.85       1.07       1.80       ----

> <Gold.Chemscore.Fitness>
12.0453

> <Gold.Chemscore.DG>
-14.9169

> <Gold.Chemscore.ZeroCoef>
-5.4800

> <Gold.Chemscore.Hbond>
2.6078

> <Gold.Chemscore.Metal>
0.0000

> <Gold.Chemscore.Lipo>
46.5986

> <Gold.Chemscore.Internal_Hbond>
0.0000

> <Gold.Chemscore.DEClash>
1.0717

> <Gold.Chemscore.DEInternal>
1.7999

> <Gold.Chemscore.Rot>
1.8458

> <Gold.Chemscore.Internal.Correction>
   9.000000E+99

> <Gold.Chemscore.Hbonds>
donor molecule, donor type, donor heavy atom, donor atom, acceptor molecule, acceptor atom, score
      L1  H     6    23       P1  7948  0.96
      L1  H     9    24       P1  7948  0.99
      P1  H  7997  8009       L1     2  0.07

> <Gold.Chemscore.Hbond.Weighted>
-8.7102

> <Gold.Chemscore.Metal.Weighted>
-0.0000

> <Gold.Chemscore.Lipo.Weighted>
-5.4520

> <Gold.Chemscore.Internal_Hbond.Weighted>
0.0000

> <Gold.Chemscore.DEClash.Weighted>
1.0717

> <Gold.Chemscore.DEInternal.Weighted>
1.7999

> <Gold.Chemscore.Rot.Weighted>
4.7254

> <Gold.Chemscore.Internal.Correction.Weighted>
   9.000000E+99

> <Gold.Protein.RotatedTorsions>
[ 6907 6896 6895 6894 ] final   94.53 input  -60.11 | X-H torsion
[ 7974 7965 7964 7962 ] final -107.07 input  175.53 | X-H torsion
[ 8008 7997 7996 7995 ] final -153.68 input   59.86 | X-H torsion
[ 10167 10162 10161 10158 ] final  -49.72 input  -65.29 | X-H torsion
[ 10718 10713 10712 10709 ] final -169.12 input   66.30 | X-H torsion
[ 10763 10752 10751 10750 ] final   56.88 input  -60.55 | X-H torsion
[ 11005 11000 10999 10996 ] final   41.17 input  -57.11 | X-H torsion

> <Gold.Protein.ActiveResidues>
 VAL166  LYS551  ARG553  GLY616  TRP617  ASP618  TYR619  PRO620  LYS621  CYS622 
 ASP623  PHE694  ASN695  SER759  ASP760  ASP761  ALA762  ILE779  LEU786  VAL792 
 PHE793  MET794  SER795  GLU796  ALA797  LYS798  CYS799  TRP800  GLU811  SER814 

> <Gold.Protein.RotatedAtoms>
  152.5449  134.1180  159.8386 H   0  0  0  0  0  0  0  0  0  0  0  0  # atno 6907 bound_to 6896
  151.1239  133.5077  159.2608 H   0  0  0  0  0  0  0  0  0  0  0  0  # atno 6908 bound_to 6896
  151.1749  135.0344  159.8822 H   0  0  0  0  0  0  0  0  0  0  0  0  # atno 6909 bound_to 6896
  145.2099  140.9092  143.3320 H   0  0  0  0  0  0  0  0  0  0  0  0  # atno 7974 bound_to 7965
  155.6747  140.0737  157.2507 H   0  0  0  0  0  0  0  0  0  0  0  0  # atno 8008 bound_to 7997
  154.4117  140.1693  156.1968 H   0  0  0  0  0  0  0  0  0  0  0  0  # atno 8009 bound_to 7997
  155.9587  140.3371  155.6474 H   0  0  0  0  0  0  0  0  0  0  0  0  # atno 8010 bound_to 7997
  140.6672  143.2686  151.4256 H   0  0  0  0  0  0  0  0  0  0  0  0  # atno 10167 bound_to 10162
  156.7069  130.9218  151.3085 H   0  0  0  0  0  0  0  0  0  0  0  0  # atno 10718 bound_to 10713
  152.9840  135.5661  154.5301 H   0  0  0  0  0  0  0  0  0  0  0  0  # atno 10763 bound_to 10752
  154.4774  135.2787  155.1599 H   0  0  0  0  0  0  0  0  0  0  0  0  # atno 10764 bound_to 10752
  154.3122  135.6286  153.5524 H   0  0  0  0  0  0  0  0  0  0  0  0  # atno 10765 bound_to 10752
  140.1860  134.4046  155.8173 H   0  0  0  0  0  0  0  0  0  0  0  0  # atno 11005 bound_to 11000
  144.9866  139.3730  143.6235 LP  0  0  0  0  0  0  0  0  0  0  0  0  # atno 17320 bound_to 7965
  146.3400  139.9030  142.8791 LP  0  0  0  0  0  0  0  0  0  0  0  0  # atno 17321 bound_to 7965
  139.5925  144.1469  152.2105 LP  0  0  0  0  0  0  0  0  0  0  0  0  # atno 17342 bound_to 10162
  140.0827  144.5687  150.7110 LP  0  0  0  0  0  0  0  0  0  0  0  0  # atno 17343 bound_to 10162
  157.6951  130.9274  150.0623 LP  0  0  0  0  0  0  0  0  0  0  0  0  # atno 17370 bound_to 10713
  156.1689  130.3646  149.9193 LP  0  0  0  0  0  0  0  0  0  0  0  0  # atno 17371 bound_to 10713
  141.2225  133.7023  156.8012 LP  0  0  0  0  0  0  0  0  0  0  0  0  # atno 17394 bound_to 11000
  140.2214  134.8754  157.3381 LP  0  0  0  0  0  0  0  0  0  0  0  0  # atno 17395 bound_to 11000

$$$$
