AV-unprocessed.smi:160|AV-procd|sdf|1362|dock8
  -GOLD-   2262019 73D 1   1.00000     0.00000
 Structure written by MMmdl.
 28 29  0  0  0  0  0  0  0  0  2 V2000
  154.5938  135.6222  156.9389 N   0  5  0  0  0  0  0  0  0  0  0  0
  153.6631  136.3403  157.6046 C   0  0  0  0  0  0  0  0  0  0  0  0
  153.4393  136.2976  158.8139 O   0  0  0  0  0  0  0  0  0  0  0  0
  152.8458  137.2668  156.7358 C   0  0  0  0  0  0  0  0  0  0  0  0
  152.0681  136.7699  155.7260 N   0  0  0  0  0  0  0  0  0  0  0  0
  151.5677  137.9076  155.2638 C   0  0  0  0  0  0  0  0  0  0  0  0
  151.9946  138.9962  155.9096 N   0  0  0  0  0  0  0  0  0  0  0  0
  151.6560  140.4373  155.6902 C   0  0  1  0  0  0  0  0  0  0  0  0
  150.7232  140.4985  154.6535 O   0  0  0  0  0  0  0  0  0  0  0  0
  149.6271  141.3340  155.0185 C   0  0  1  0  0  0  0  0  0  0  0  0
  148.3529  140.9369  154.2522 C   0  0  0  0  0  0  0  0  0  0  0  0
  148.4307  139.5878  153.8434 O   0  0  0  0  0  0  0  0  0  0  0  0
  149.5498  141.2046  156.5465 C   0  0  1  0  0  0  0  0  0  0  0  0
  148.8058  140.0596  156.9256 O   0  0  0  0  0  0  0  0  0  0  0  0
  151.0219  141.1053  156.9274 C   0  0  1  0  0  0  0  0  0  0  0  0
  151.2430  140.4575  158.1696 O   0  0  0  0  0  0  0  0  0  0  0  0
  152.8346  138.5940  156.8945 N   0  0  0  0  0  0  0  0  0  0  0  0
  152.6001  140.8964  155.3945 H   0  0  0  0  0  0  0  0  0  0  0  0
  149.8978  142.3657  154.7857 H   0  0  0  0  0  0  0  0  0  0  0  0
  149.0786  142.0759  157.0022 H   0  0  0  0  0  0  0  0  0  0  0  0
  151.4353  142.1129  156.9884 H   0  0  0  0  0  0  0  0  0  0  0  0
  155.1466  134.9340  157.4637 H   0  0  0  0  0  0  0  0  0  0  0  0
  150.8785  137.9486  154.4332 H   0  0  0  0  0  0  0  0  0  0  0  0
  147.4602  141.0987  154.8575 H   0  0  0  0  0  0  0  0  0  0  0  0
  148.2506  141.5433  153.3517 H   0  0  0  0  0  0  0  0  0  0  0  0
  148.8633  139.5550  153.0040 H   0  0  0  0  0  0  0  0  0  0  0  0
  148.8527  139.9712  157.8656 H   0  0  0  0  0  0  0  0  0  0  0  0
  151.2677  141.1115  158.8509 H   0  0  0  0  0  0  0  0  0  0  0  0
  1  2  1  0  0  0  0
  1 22  1  0  0  0  0
  2  3  2  0  0  0  0
  2  4  1  0  0  0  0
  4 17  2  0  0  0  0
  4  5  1  0  0  0  0
  5  6  2  0  0  0  0
  6  7  1  0  0  0  0
  6 23  1  0  0  0  0
  7  8  1  0  0  0  0
  7 17  1  0  0  0  0
  8 18  1  0  0  0  0
  8 15  1  0  0  0  0
  8  9  1  0  0  0  0
  9 10  1  0  0  0  0
 10 19  1  0  0  0  0
 10 11  1  0  0  0  0
 10 13  1  0  0  0  0
 11 12  1  0  0  0  0
 11 24  1  0  0  0  0
 11 25  1  0  0  0  0
 12 26  1  0  0  0  0
 13 20  1  0  0  0  0
 13 14  1  0  0  0  0
 13 15  1  0  0  0  0
 14 27  1  0  0  0  0
 15 21  1  0  0  0  0
 15 16  1  0  0  0  0
 16 28  1  0  0  0  0
M  CHG  1   1  -1
M  END
> <s_m_source_file>
AV-unprocessed.smi

> <i_m_source_file_index>
160

> <i_lp_mmshare_version>
43012

> <i_f3d_flags>
0

> <s_epik_input>
W05IMl1DKD1PKWMxbltjSF1uKG4xKVtDQEBIXTJPW0NASF0oW0NIMl1bT0hdKVtDQEBIXShbT0hdKVtDQEhdMltPSF0=

> <s_epik_cmdline>
J2VwaWtfcHl0aG9uJywgJy1waCcsICc3LjAnLCAnLXRuJywgJzgnLCAnLW1hJywgJzIwMCcsICctbWV0YWxfYmluZGluZycsICctaW1hZScsICc8aW5maWxlLm1hZT4nLCAnLW9tYWUnLCAnPG91dGZpbGUubWFlPic=

> <r_lp_tautomer_probability>
1

> <r_epik_Ionization_Penalty>
6.6993

> <r_epik_Ionization_Penalty_Charging>
6.6993

> <r_epik_Ionization_Penalty_Neutral>
6.01698e-06

> <r_epik_State_Penalty>
6.69929

> <r_epik_Charging_Adjusted_Penalty>
13.3986

> <i_epik_Tot_Q>
-1

> <i_epik_Tot_abs_Q>
1

> <r_epik_Metal_State_Penalty>
2.62798

> <b_epik_Metal_Only>
1

> <s_epik_Chemistry_Notes>
This compound contains an acetal/aminal-like group ( X-CH(R)-Y where X, Y are N, S, or O) that may be acid/base labile, releasing an aldehyde.

> <s_lp_Force_Field>
OPLS_2005

> <r_lp_Energy>
51.4857

> <b_lp_Chiralities_Consistent>
1

> <s_lp_Variant>
AV-unprocessed.smi:160-20

> <Gold.Version>
5.8.1

> <Gold.Id.Protein>
6NUR|6NUR_protein|mol2

> <Gold.PLP.Fitness>
38.7977

> <Gold.PLP.PLP>
-23.9901

> <Gold.PLP.part.hbond>
-5.1332

> <Gold.PLP.part.metal>
0.0000

> <Gold.PLP.part.buried>
-2.6213

> <Gold.PLP.part.nonpolar>
-16.1996

> <Gold.PLP.part.repulsive>
0.1251

> <Gold.PLP.ligand.clash>
0.0000

> <Gold.PLP.ligand.torsion>
1.6361

> <Gold.PLP.Chemscore.Hbond>
6.0251

> <Gold.PLP.Chemscore.CHOScore>
0.0000

> <Gold.PLP.Chemscore.Metal>
0.0000

> <Gold.Chemscore.Hbonds>
donor molecule, donor type, donor heavy atom, donor atom, acceptor molecule, acceptor atom, score
      L1  H    12    26       P1  7957  0.96
      P1  H  6896  6909       L1     3  0.43
      P1  H  7989  7998       L1     9  0.96
      P1  H  7997  8009       L1    17  0.68
      P1  H 10752 10763       L1     1  2.00
      P1  H 10752 10765       L1     5  0.74

> <Gold.PLP.Chemscore.Internal.Correction>
0.0045

> <Gold.Rescore>
     Score         DG    S(hbond)    S(metal)    S(lipo)     H(rot)  DE(clash)    DE(int)     intcor
      8.78     -11.76       4.08        0.00      25.45       4.04       0.05       2.93       ----

> <Gold.Chemscore.Fitness>
8.7804

> <Gold.Chemscore.DG>
-11.7570

> <Gold.Chemscore.ZeroCoef>
-5.4800

> <Gold.Chemscore.Hbond>
4.0845

> <Gold.Chemscore.Metal>
0.0000

> <Gold.Chemscore.Lipo>
25.4509

> <Gold.Chemscore.Internal_Hbond>
0.0000

> <Gold.Chemscore.DEClash>
0.0456

> <Gold.Chemscore.DEInternal>
2.9309

> <Gold.Chemscore.Rot>
4.0403

> <Gold.Chemscore.Internal.Correction>
   9.000000E+99

> <Gold.Chemscore.Hbonds>
donor molecule, donor type, donor heavy atom, donor atom, acceptor molecule, acceptor atom, score
      L1  H    12    26       P1  7957  0.91
      P1  H  6896  6909       L1     3  0.43
      P1  H  7989  7998       L1     9  0.22
      P1  H  7997  8009       L1    17  0.23
      P1  H 10752 10763       L1     1  0.87
      P1  H 10752 10765       L1     5  0.64

> <Gold.Chemscore.Hbond.Weighted>
-13.6423

> <Gold.Chemscore.Metal.Weighted>
-0.0000

> <Gold.Chemscore.Lipo.Weighted>
-2.9778

> <Gold.Chemscore.Internal_Hbond.Weighted>
0.0000

> <Gold.Chemscore.DEClash.Weighted>
0.0456

> <Gold.Chemscore.DEInternal.Weighted>
2.9309

> <Gold.Chemscore.Rot.Weighted>
10.3431

> <Gold.Chemscore.Internal.Correction.Weighted>
   9.000000E+99

> <Gold.Protein.RotatedTorsions>
[ 6907 6896 6895 6894 ] final  153.16 input  -60.11 | X-H torsion
[ 7974 7965 7964 7962 ] final   98.03 input  175.53 | X-H torsion
[ 8008 7997 7996 7995 ] final  172.31 input   59.86 | X-H torsion
[ 10167 10162 10161 10158 ] final  139.78 input  -65.29 | X-H torsion
[ 10718 10713 10712 10709 ] final   26.67 input   66.30 | X-H torsion
[ 10763 10752 10751 10750 ] final  170.95 input  -60.55 | X-H torsion
[ 11005 11000 10999 10996 ] final -142.59 input  -57.11 | X-H torsion

> <Gold.Protein.ActiveResidues>
 VAL166  LYS551  ARG553  GLY616  TRP617  ASP618  TYR619  PRO620  LYS621  CYS622 
 ASP623  PHE694  ASN695  SER759  ASP760  ASP761  ALA762  ILE779  LEU786  VAL792 
 PHE793  MET794  SER795  GLU796  ALA797  LYS798  CYS799  TRP800  GLU811  SER814 

> <Gold.Protein.RotatedAtoms>
  152.0766  133.4132  159.4482 H   0  0  0  0  0  0  0  0  0  0  0  0  # atno 6907 bound_to 6896
  150.6862  134.3030  159.4723 H   0  0  0  0  0  0  0  0  0  0  0  0  # atno 6908 bound_to 6896
  152.0868  134.9434  160.0623 H   0  0  0  0  0  0  0  0  0  0  0  0  # atno 6909 bound_to 6896
  145.4176  139.2325  143.3214 H   0  0  0  0  0  0  0  0  0  0  0  0  # atno 7974 bound_to 7965
  156.1186  140.1489  156.9236 H   0  0  0  0  0  0  0  0  0  0  0  0  # atno 8008 bound_to 7997
  154.4819  140.0877  156.7439 H   0  0  0  0  0  0  0  0  0  0  0  0  # atno 8009 bound_to 7997
  155.4468  140.3433  155.4298 H   0  0  0  0  0  0  0  0  0  0  0  0  # atno 8010 bound_to 7997
  139.5068  144.6274  151.5903 H   0  0  0  0  0  0  0  0  0  0  0  0  # atno 10167 bound_to 10162
  157.2100  130.6929  149.6224 H   0  0  0  0  0  0  0  0  0  0  0  0  # atno 10718 bound_to 10713
  154.4049  135.2755  155.2073 H   0  0  0  0  0  0  0  0  0  0  0  0  # atno 10763 bound_to 10752
  154.4083  135.6028  153.5941 H   0  0  0  0  0  0  0  0  0  0  0  0  # atno 10764 bound_to 10752
  152.9831  135.5943  154.4322 H   0  0  0  0  0  0  0  0  0  0  0  0  # atno 10765 bound_to 10752
  140.8210  134.2631  157.4900 H   0  0  0  0  0  0  0  0  0  0  0  0  # atno 11005 bound_to 11000
  146.2673  140.4896  142.8829 LP  0  0  0  0  0  0  0  0  0  0  0  0  # atno 17320 bound_to 7965
  144.8267  140.6639  143.6318 LP  0  0  0  0  0  0  0  0  0  0  0  0  # atno 17321 bound_to 7965
  140.5995  143.9635  150.6377 LP  0  0  0  0  0  0  0  0  0  0  0  0  # atno 17342 bound_to 10162
  140.2842  143.3368  152.1123 LP  0  0  0  0  0  0  0  0  0  0  0  0  # atno 17343 bound_to 10162
  155.9691  130.4554  150.5887 LP  0  0  0  0  0  0  0  0  0  0  0  0  # atno 17370 bound_to 10713
  157.3682  131.0761  151.1580 LP  0  0  0  0  0  0  0  0  0  0  0  0  # atno 17371 bound_to 10713
  139.8708  134.9535  156.4147 LP  0  0  0  0  0  0  0  0  0  0  0  0  # atno 17394 bound_to 11000
  140.9099  133.7719  155.9779 LP  0  0  0  0  0  0  0  0  0  0  0  0  # atno 17395 bound_to 11000

$$$$
