AV-unprocessed.smi:113|AV-procd|sdf|1093|dock8
  -GOLD-   2262018193D 1   1.00000     0.00000
 Structure written by MMmdl.
 52 55  0  0  0  0  0  0  0  0  1 V2000
  155.0346  139.8527  162.0424 C   0  0  0  0  0  0  0  0  0  0  0  0
  153.9291  140.3823  161.1529 C   0  0  0  0  0  0  0  0  0  0  0  0
  152.9690  139.5117  160.6082 C   0  0  0  0  0  0  0  0  0  0  0  0
  151.9491  140.0423  159.7857 C   0  0  0  0  0  0  0  0  0  0  0  0
  150.8797  139.1359  159.1650 C   0  0  0  0  0  0  0  0  0  0  0  0
  150.7354  139.1852  157.7165 N   0  0  0  0  0  0  0  0  0  0  0  0
  151.8582  138.8329  156.9287 C   0  0  0  0  0  0  0  0  0  0  0  0
  152.9316  138.5093  157.4419 O   0  0  0  0  0  0  0  0  0  0  0  0
  151.6362  138.8638  155.4814 C   0  0  0  0  0  0  0  0  0  0  0  0
  152.7952  138.4914  154.5702 C   0  0  0  0  0  0  0  0  0  0  0  0
  150.4207  139.2112  154.9945 C   0  0  0  0  0  0  0  0  0  0  0  0
  149.3396  139.5592  155.7855 N   0  0  0  0  0  0  0  0  0  0  0  0
  148.0115  139.8743  155.1271 C   0  0  2  0  0  0  0  0  0  0  0  0
  147.9151  139.3976  153.6736 C   0  0  0  0  0  0  0  0  0  0  0  0
  147.0559  140.4889  153.0696 C   0  0  2  0  0  0  0  0  0  0  0  0
  147.2722  140.5907  151.6773 O   0  0  0  0  0  0  0  0  0  0  0  0
  147.5217  141.7373  153.8262 C   0  0  1  0  0  0  0  0  0  0  0  0
  146.4544  142.8400  153.8980 C   0  0  0  0  0  0  0  0  0  0  0  0
  145.3118  142.3666  154.5784 O   0  0  0  0  0  0  0  0  0  0  0  0
  147.8116  141.2576  155.1403 O   0  0  0  0  0  0  0  0  0  0  0  0
  149.4677  139.5251  157.1924 C   0  0  0  0  0  0  0  0  0  0  0  0
  148.5094  139.7644  157.9294 O   0  0  0  0  0  0  0  0  0  0  0  0
  151.9453  141.4442  159.5522 C   0  0  0  0  0  0  0  0  0  0  0  0
  150.9570  142.0568  158.7443 C   0  0  0  0  0  0  0  0  0  0  0  0
  150.9734  143.4451  158.5220 C   0  0  0  0  0  0  0  0  0  0  0  0
  151.9766  144.2360  159.1057 C   0  0  0  0  0  0  0  0  0  0  0  0
  152.9603  143.6358  159.9119 C   0  0  0  0  0  0  0  0  0  0  0  0
  152.9637  142.2445  160.1491 C   0  0  0  0  0  0  0  0  0  0  0  0
  153.9273  141.7112  160.9316 N   0  0  0  0  0  0  0  0  0  0  0  0
  155.2852  138.8250  161.7773 H   0  0  0  0  0  0  0  0  0  0  0  0
  154.7179  139.8703  163.0854 H   0  0  0  0  0  0  0  0  0  0  0  0
  155.9389  140.4549  161.9471 H   0  0  0  0  0  0  0  0  0  0  0  0
  153.0274  138.4566  160.8282 H   0  0  0  0  0  0  0  0  0  0  0  0
  151.0630  138.0958  159.4390 H   0  0  0  0  0  0  0  0  0  0  0  0
  149.9023  139.3582  159.5951 H   0  0  0  0  0  0  0  0  0  0  0  0
  152.5192  138.5500  153.5169 H   0  0  0  0  0  0  0  0  0  0  0  0
  153.1261  137.4717  154.7712 H   0  0  0  0  0  0  0  0  0  0  0  0
  153.6387  139.1639  154.7314 H   0  0  0  0  0  0  0  0  0  0  0  0
  150.2927  139.2176  153.9215 H   0  0  0  0  0  0  0  0  0  0  0  0
  147.2414  139.4206  155.7518 H   0  0  0  0  0  0  0  0  0  0  0  0
  148.8968  139.3615  153.2025 H   0  0  0  0  0  0  0  0  0  0  0  0
  147.4658  138.4059  153.6161 H   0  0  0  0  0  0  0  0  0  0  0  0
  146.0031  140.2865  153.2728 H   0  0  0  0  0  0  0  0  0  0  0  0
  148.1907  140.7565  151.5275 H   0  0  0  0  0  0  0  0  0  0  0  0
  148.4408  142.1137  153.3739 H   0  0  0  0  0  0  0  0  0  0  0  0
  146.8356  143.6945  154.4580 H   0  0  0  0  0  0  0  0  0  0  0  0
  146.1853  143.1982  152.9041 H   0  0  0  0  0  0  0  0  0  0  0  0
  144.7635  141.9066  153.9613 H   0  0  0  0  0  0  0  0  0  0  0  0
  150.1714  141.4786  158.2827 H   0  0  0  0  0  0  0  0  0  0  0  0
  150.2152  143.9026  157.9035 H   0  0  0  0  0  0  0  0  0  0  0  0
  151.9921  145.3027  158.9364 H   0  0  0  0  0  0  0  0  0  0  0  0
  153.7260  144.2549  160.3562 H   0  0  0  0  0  0  0  0  0  0  0  0
  1  2  1  0  0  0  0
  1 30  1  0  0  0  0
  1 31  1  0  0  0  0
  1 32  1  0  0  0  0
  2 29  1  0  0  0  0
  2  3  2  0  0  0  0
  3  4  1  0  0  0  0
  3 33  1  0  0  0  0
  4  5  1  0  0  0  0
  4 23  2  0  0  0  0
  5  6  1  0  0  0  0
  5 34  1  0  0  0  0
  5 35  1  0  0  0  0
  6 21  1  0  0  0  0
  6  7  1  0  0  0  0
  7  8  2  0  0  0  0
  7  9  1  0  0  0  0
  9 10  1  0  0  0  0
  9 11  2  0  0  0  0
 10 36  1  0  0  0  0
 10 37  1  0  0  0  0
 10 38  1  0  0  0  0
 11 12  1  0  0  0  0
 11 39  1  0  0  0  0
 12 13  1  0  0  0  0
 12 21  1  0  0  0  0
 13 20  1  0  0  0  0
 13 14  1  0  0  0  0
 13 40  1  0  0  0  0
 14 15  1  0  0  0  0
 14 41  1  0  0  0  0
 14 42  1  0  0  0  0
 15 16  1  0  0  0  0
 15 17  1  0  0  0  0
 15 43  1  0  0  0  0
 16 44  1  0  0  0  0
 17 18  1  0  0  0  0
 17 20  1  0  0  0  0
 17 45  1  0  0  0  0
 18 19  1  0  0  0  0
 18 46  1  0  0  0  0
 18 47  1  0  0  0  0
 19 48  1  0  0  0  0
 21 22  2  0  0  0  0
 23 28  1  0  0  0  0
 23 24  1  0  0  0  0
 24 25  2  0  0  0  0
 24 49  1  0  0  0  0
 25 26  1  0  0  0  0
 25 50  1  0  0  0  0
 26 27  2  0  0  0  0
 26 51  1  0  0  0  0
 27 28  1  0  0  0  0
 27 52  1  0  0  0  0
 28 29  2  0  0  0  0
M  END
> <s_m_source_file>
AV-unprocessed.smi

> <i_m_source_file_index>
113

> <i_lp_mmshare_version>
43012

> <i_f3d_flags>
0

> <s_epik_input>
W2NIXTFbY0hdW2NIXVtjSF1jKGMxMiluYyhbQ0gzXSlbY0hdYzJbQ0gyXW4zYyg9TyljKFtDSDNdKVtjSF1uKGMzPU8pW0NAQEhdNFtDSDJdW0NAQEhdKFtPSF0pW0NASF0oTzQpW0NIMl1bT0hd

> <s_epik_cmdline>
J2VwaWtfcHl0aG9uJywgJy1waCcsICc3LjAnLCAnLXRuJywgJzgnLCAnLW1hJywgJzIwMCcsICctbWV0YWxfYmluZGluZycsICctaW1hZScsICc8aW5maWxlLm1hZT4nLCAnLW9tYWUnLCAnPG91dGZpbGUubWFlPic=

> <r_lp_tautomer_probability>
1

> <r_epik_Ionization_Penalty>
0.214728

> <r_epik_Ionization_Penalty_Charging>
3.04883e-08

> <r_epik_Ionization_Penalty_Neutral>
0.214728

> <r_epik_State_Penalty>
0.204913

> <r_epik_Charging_Adjusted_Penalty>
0.204913

> <i_epik_Tot_Q>
0

> <i_epik_Tot_abs_Q>
0

> <r_epik_Metal_State_Penalty>
0.000244761

> <b_epik_Metal_Only>
0

> <s_epik_Chemistry_Notes>
This compound contains an acetal/aminal-like group ( X-CH(R)-Y where X, Y are N, S, or O) that may be acid/base labile, releasing an aldehyde.

> <s_lp_Force_Field>
OPLS_2005

> <r_lp_Energy>
34.9534

> <b_lp_Chiralities_Consistent>
1

> <s_lp_Variant>
AV-unprocessed.smi:113-3

> <Gold.Version>
5.8.1

> <Gold.Id.Protein>
6NUR|6NUR_protein|mol2

> <Gold.PLP.Fitness>
61.0745

> <Gold.PLP.PLP>
-51.5074

> <Gold.PLP.part.hbond>
-3.0668

> <Gold.PLP.part.metal>
0.0000

> <Gold.PLP.part.buried>
-5.5615

> <Gold.PLP.part.nonpolar>
-42.1659

> <Gold.PLP.part.repulsive>
0.0962

> <Gold.PLP.ligand.clash>
0.0000

> <Gold.PLP.ligand.torsion>
0.5119

> <Gold.PLP.Chemscore.Hbond>
3.0000

> <Gold.PLP.Chemscore.CHOScore>
0.5202

> <Gold.PLP.Chemscore.Metal>
0.0000

> <Gold.Chemscore.Hbonds>
donor molecule, donor type, donor heavy atom, donor atom, acceptor molecule, acceptor atom, score
      L1  H    16    44       P1  7957  0.86
      L1  H    19    48       P1 10175  0.19
      P1  H  7997  8008       L1     8  0.46

> <Gold.PLP.Chemscore.Internal.Correction>
0.0302

> <Gold.Rescore>
     Score         DG    S(hbond)    S(metal)    S(lipo)     H(rot)  DE(clash)    DE(int)     intcor
     21.47     -23.99       2.51        0.00     151.09       2.95       0.82       1.70       ----

> <Gold.Chemscore.Fitness>
21.4741

> <Gold.Chemscore.DG>
-23.9920

> <Gold.Chemscore.ZeroCoef>
-5.4800

> <Gold.Chemscore.Hbond>
2.5085

> <Gold.Chemscore.Metal>
0.0000

> <Gold.Chemscore.Lipo>
151.0912

> <Gold.Chemscore.Internal_Hbond>
0.0000

> <Gold.Chemscore.DEClash>
0.8150

> <Gold.Chemscore.DEInternal>
1.7029

> <Gold.Chemscore.Rot>
2.9469

> <Gold.Chemscore.Internal.Correction>
   9.000000E+99

> <Gold.Chemscore.Hbonds>
donor molecule, donor type, donor heavy atom, donor atom, acceptor molecule, acceptor atom, score
      L1  H    16    44       P1  7957  0.85
      L1  H    19    48       P1 10175  0.01
      P1  H  7997  8008       L1     8  0.27

> <Gold.Chemscore.Hbond.Weighted>
-8.3782

> <Gold.Chemscore.Metal.Weighted>
-0.0000

> <Gold.Chemscore.Lipo.Weighted>
-17.6777

> <Gold.Chemscore.Internal_Hbond.Weighted>
0.0000

> <Gold.Chemscore.DEClash.Weighted>
0.8150

> <Gold.Chemscore.DEInternal.Weighted>
1.7029

> <Gold.Chemscore.Rot.Weighted>
7.5439

> <Gold.Chemscore.Internal.Correction.Weighted>
   9.000000E+99

> <Gold.Protein.RotatedTorsions>
[ 6907 6896 6895 6894 ] final  178.05 input  -60.11 | X-H torsion
[ 7974 7965 7964 7962 ] final   19.93 input  175.53 | X-H torsion
[ 8008 7997 7996 7995 ] final  -71.76 input   59.86 | X-H torsion
[ 10167 10162 10161 10158 ] final  131.51 input  -65.29 | X-H torsion
[ 10718 10713 10712 10709 ] final -140.19 input   66.30 | X-H torsion
[ 10763 10752 10751 10750 ] final  109.52 input  -60.55 | X-H torsion
[ 11005 11000 10999 10996 ] final  -80.55 input  -57.11 | X-H torsion

> <Gold.Protein.ActiveResidues>
 VAL166  LYS551  ARG553  GLY616  TRP617  ASP618  TYR619  PRO620  LYS621  CYS622 
 ASP623  PHE694  ASN695  SER759  ASP760  ASP761  ALA762  ILE779  LEU786  VAL792 
 PHE793  MET794  SER795  GLU796  ALA797  LYS798  CYS799  TRP800  GLU811  SER814 

> <Gold.Protein.RotatedAtoms>
  151.6941  133.3311  159.3249 H   0  0  0  0  0  0  0  0  0  0  0  0  # atno 6907 bound_to 6896
  150.7765  134.6673  159.6381 H   0  0  0  0  0  0  0  0  0  0  0  0  # atno 6908 bound_to 6896
  152.3809  134.6594  160.0195 H   0  0  0  0  0  0  0  0  0  0  0  0  # atno 6909 bound_to 6896
  146.2131  139.8242  142.8673 H   0  0  0  0  0  0  0  0  0  0  0  0  # atno 7974 bound_to 7965
  154.5113  140.0809  156.7995 H   0  0  0  0  0  0  0  0  0  0  0  0  # atno 8008 bound_to 7997
  155.3778  140.3426  155.4227 H   0  0  0  0  0  0  0  0  0  0  0  0  # atno 8009 bound_to 7997
  156.1576  140.1578  156.8653 H   0  0  0  0  0  0  0  0  0  0  0  0  # atno 8010 bound_to 7997
  139.5380  144.6703  151.4719 H   0  0  0  0  0  0  0  0  0  0  0  0  # atno 10167 bound_to 10162
  156.3194  130.7526  151.1620 H   0  0  0  0  0  0  0  0  0  0  0  0  # atno 10718 bound_to 10713
  153.4359  135.3777  155.2199 H   0  0  0  0  0  0  0  0  0  0  0  0  # atno 10763 bound_to 10752
  154.8752  135.3851  154.4211 H   0  0  0  0  0  0  0  0  0  0  0  0  # atno 10764 bound_to 10752
  153.4750  135.7087  153.6034 H   0  0  0  0  0  0  0  0  0  0  0  0  # atno 10765 bound_to 10752
  141.1668  133.7155  156.8290 H   0  0  0  0  0  0  0  0  0  0  0  0  # atno 11005 bound_to 11000
  145.3064  141.0208  143.3579 LP  0  0  0  0  0  0  0  0  0  0  0  0  # atno 17320 bound_to 7965
  144.8968  139.4702  143.6652 LP  0  0  0  0  0  0  0  0  0  0  0  0  # atno 17321 bound_to 7965
  140.6597  143.8525  150.6874 LP  0  0  0  0  0  0  0  0  0  0  0  0  # atno 17342 bound_to 10162
  140.1915  143.4032  152.1859 LP  0  0  0  0  0  0  0  0  0  0  0  0  # atno 17343 bound_to 10162
  157.7408  131.0511  150.5137 LP  0  0  0  0  0  0  0  0  0  0  0  0  # atno 17370 bound_to 10713
  156.5288  130.4179  149.6212 LP  0  0  0  0  0  0  0  0  0  0  0  0  # atno 17371 bound_to 10713
  140.2065  134.8859  157.3227 LP  0  0  0  0  0  0  0  0  0  0  0  0  # atno 17394 bound_to 11000
  140.2132  134.4113  155.7602 LP  0  0  0  0  0  0  0  0  0  0  0  0  # atno 17395 bound_to 11000

$$$$
