AV-unprocessed.smi:1464|AV-procd|sdf|5942|dock5
  -GOLD-   22720 6 23D 1   1.00000     0.00000
 Structure written by MMmdl.
 40 41  0  0  0  0  0  0  0  0  2 V2000
  152.5333  143.6902  162.5364 C   0  0  0  0  0  0  0  0  0  0  0  0
  152.1323  143.6357  161.0514 C   0  0  1  0  0  0  0  0  0  0  0  0
  151.8044  145.0565  160.5465 C   0  0  0  0  0  0  0  0  0  0  0  0
  151.3850  145.0655  159.0702 C   0  0  0  0  0  0  0  0  0  0  0  0
  152.4642  144.4183  158.1903 C   0  0  0  0  0  0  0  0  0  0  0  0
  152.8008  142.9890  158.6594 C   0  0  2  0  0  0  0  0  0  0  0  0
  151.6713  142.0924  158.4333 N   0  0  0  0  0  0  0  0  0  0  0  0
  151.7034  140.8798  157.8583 C   0  0  0  0  0  0  0  0  0  0  0  0
  152.7397  140.3592  157.4462 O   0  0  0  0  0  0  0  0  0  0  0  0
  150.3655  140.1337  157.7092 C   0  0  0  0  0  0  0  0  0  0  0  0
  150.4738  138.8253  157.0405 N   0  0  0  0  0  0  0  0  0  0  0  0
  150.1040  137.6952  157.8886 N   0  5  0  0  0  0  0  0  0  0  0  0
  150.0622  136.4481  157.3493 C   0  0  0  0  0  0  0  0  0  0  0  0
  149.7219  135.4563  157.9897 O   0  0  0  0  0  0  0  0  0  0  0  0
  150.4428  136.2928  155.9550 C   0  0  0  0  0  0  0  0  0  0  0  0
  150.8073  137.3500  155.2032 C   0  0  0  0  0  0  0  0  0  0  0  0
  150.8316  138.7093  155.7294 C   0  0  0  0  0  0  0  0  0  0  0  0
  151.1318  139.6831  155.0391 O   0  0  0  0  0  0  0  0  0  0  0  0
  153.2140  142.9687  160.1543 C   0  0  2  0  0  0  0  0  0  0  0  0
  153.5760  141.5403  160.6114 C   0  0  0  0  0  0  0  0  0  0  0  0
  153.4822  144.2094  162.6732 H   0  0  0  0  0  0  0  0  0  0  0  0
  152.6295  142.6933  162.9654 H   0  0  0  0  0  0  0  0  0  0  0  0
  151.7804  144.2150  163.1253 H   0  0  0  0  0  0  0  0  0  0  0  0
  151.2187  143.0424  160.9866 H   0  0  0  0  0  0  0  0  0  0  0  0
  151.0061  145.4907  161.1492 H   0  0  0  0  0  0  0  0  0  0  0  0
  152.6738  145.7024  160.6780 H   0  0  0  0  0  0  0  0  0  0  0  0
  150.4394  144.5344  158.9524 H   0  0  0  0  0  0  0  0  0  0  0  0
  151.2046  146.0891  158.7418 H   0  0  0  0  0  0  0  0  0  0  0  0
  152.1421  144.4127  157.1483 H   0  0  0  0  0  0  0  0  0  0  0  0
  153.3672  145.0290  158.2233 H   0  0  0  0  0  0  0  0  0  0  0  0
  153.6444  142.6266  158.0692 H   0  0  0  0  0  0  0  0  0  0  0  0
  150.7692  142.4206  158.7486 H   0  0  0  0  0  0  0  0  0  0  0  0
  149.9158  140.0167  158.6967 H   0  0  0  0  0  0  0  0  0  0  0  0
  149.6813  140.7780  157.1544 H   0  0  0  0  0  0  0  0  0  0  0  0
  150.4374  135.3070  155.5136 H   0  0  0  0  0  0  0  0  0  0  0  0
  151.0848  137.1873  154.1724 H   0  0  0  0  0  0  0  0  0  0  0  0
  154.1232  143.5657  160.2390 H   0  0  0  0  0  0  0  0  0  0  0  0
  152.6930  140.9039  160.6849 H   0  0  0  0  0  0  0  0  0  0  0  0
  154.0659  141.5415  161.5846 H   0  0  0  0  0  0  0  0  0  0  0  0
  154.2661  141.0691  159.9111 H   0  0  0  0  0  0  0  0  0  0  0  0
  1  2  1  0  0  0  0
  1 21  1  0  0  0  0
  1 22  1  0  0  0  0
  1 23  1  0  0  0  0
  2 19  1  0  0  0  0
  2  3  1  0  0  0  0
  2 24  1  0  0  0  0
  3  4  1  0  0  0  0
  3 25  1  0  0  0  0
  3 26  1  0  0  0  0
  4  5  1  0  0  0  0
  4 27  1  0  0  0  0
  4 28  1  0  0  0  0
  5  6  1  0  0  0  0
  5 29  1  0  0  0  0
  5 30  1  0  0  0  0
  6  7  1  0  0  0  0
  6 19  1  0  0  0  0
  6 31  1  0  0  0  0
  7  8  1  0  0  0  0
  7 32  1  0  0  0  0
  8  9  2  0  0  0  0
  8 10  1  0  0  0  0
 10 33  1  0  0  0  0
 10 34  1  0  0  0  0
 10 11  1  0  0  0  0
 11 12  1  0  0  0  0
 11 17  1  0  0  0  0
 12 13  1  0  0  0  0
 13 14  2  0  0  0  0
 13 15  1  0  0  0  0
 15 35  1  0  0  0  0
 15 16  2  0  0  0  0
 16 36  1  0  0  0  0
 16 17  1  0  0  0  0
 17 18  2  0  0  0  0
 19 20  1  0  0  0  0
 19 37  1  0  0  0  0
 20 38  1  0  0  0  0
 20 39  1  0  0  0  0
 20 40  1  0  0  0  0
M  CHG  1  12  -1
M  END
> <s_m_source_file>
AV-unprocessed.smi

> <i_m_source_file_index>
1464

> <i_lp_mmshare_version>
43012

> <i_f3d_flags>
0

> <s_epik_input>
W0NIM11bQ0BASF0xW0NIMl1bQ0gyXVtDSDJdW0NASF0oW0NASF0xW0NIM10pW05IXUMoPU8pW0NIMl1uMltuSF1jKD1PKVtjSF1bY0hdYzI9Tw==

> <s_epik_cmdline>
J2VwaWtfcHl0aG9uJywgJy1waCcsICc3LjAnLCAnLXRuJywgJzgnLCAnLW1hJywgJzIwMCcsICctbWV0YWxfYmluZGluZycsICctaW1hZScsICc8aW5maWxlLm1hZT4nLCAnLW9tYWUnLCAnPG91dGZpbGUubWFlPic=

> <r_lp_tautomer_probability>
1

> <r_epik_Ionization_Penalty>
0.101366

> <r_epik_Ionization_Penalty_Charging>
0.101366

> <r_epik_Ionization_Penalty_Neutral>
1.90469e-08

> <r_epik_State_Penalty>
0.035861

> <r_epik_Charging_Adjusted_Penalty>
0.137227

> <i_epik_Tot_Q>
-1

> <i_epik_Tot_abs_Q>
1

> <r_epik_Metal_State_Penalty>
0.035861

> <b_epik_Metal_Only>
0

> <s_lp_Force_Field>
OPLS_2005

> <r_lp_Energy>
23.814

> <b_lp_Chiralities_Consistent>
1

> <s_lp_Variant>
AV-unprocessed.smi:1464-8

> <Gold.Version>
5.8.1

> <Gold.Id.Protein>
6NUR|6NUR_protein|mol2

> <Gold.PLP.Fitness>
49.6885

> <Gold.PLP.PLP>
-41.1583

> <Gold.PLP.part.hbond>
-3.0000

> <Gold.PLP.part.metal>
0.0000

> <Gold.PLP.part.buried>
-3.3313

> <Gold.PLP.part.nonpolar>
-34.5744

> <Gold.PLP.part.repulsive>
0.1190

> <Gold.PLP.ligand.clash>
0.0000

> <Gold.PLP.ligand.torsion>
0.1936

> <Gold.PLP.Chemscore.Hbond>
2.9680

> <Gold.PLP.Chemscore.CHOScore>
0.0000

> <Gold.PLP.Chemscore.Metal>
0.0000

> <Gold.Chemscore.Hbonds>
donor molecule, donor type, donor heavy atom, donor atom, acceptor molecule, acceptor atom, score
      P1  H  6896  6908       L1    14  1.00
      P1  H  7989  7998       L1    18  1.00
      P1  H  7997  8008       L1     9  0.93

> <Gold.PLP.Chemscore.Internal.Correction>
0.0133

> <Gold.Rescore>
     Score         DG    S(hbond)    S(metal)    S(lipo)     H(rot)  DE(clash)    DE(int)     intcor
     22.83     -23.28       2.70        0.00     111.02       1.64       0.29       0.16       ----

> <Gold.Chemscore.Fitness>
22.8327

> <Gold.Chemscore.DG>
-23.2801

> <Gold.Chemscore.ZeroCoef>
-5.4800

> <Gold.Chemscore.Hbond>
2.7004

> <Gold.Chemscore.Metal>
0.0000

> <Gold.Chemscore.Lipo>
111.0161

> <Gold.Chemscore.Internal_Hbond>
0.0000

> <Gold.Chemscore.DEClash>
0.2919

> <Gold.Chemscore.DEInternal>
0.1554

> <Gold.Chemscore.Rot>
1.6438

> <Gold.Chemscore.Internal.Correction>
   9.000000E+99

> <Gold.Chemscore.Hbonds>
donor molecule, donor type, donor heavy atom, donor atom, acceptor molecule, acceptor atom, score
      P1  H  6896  6908       L1    14  0.90
      P1  H  7989  7998       L1    18  0.95
      P1  H  7997  8008       L1     9  0.90

> <Gold.Chemscore.Hbond.Weighted>
-9.0192

> <Gold.Chemscore.Metal.Weighted>
-0.0000

> <Gold.Chemscore.Lipo.Weighted>
-12.9889

> <Gold.Chemscore.Internal_Hbond.Weighted>
0.0000

> <Gold.Chemscore.DEClash.Weighted>
0.2919

> <Gold.Chemscore.DEInternal.Weighted>
0.1554

> <Gold.Chemscore.Rot.Weighted>
4.2080

> <Gold.Chemscore.Internal.Correction.Weighted>
   9.000000E+99

> <Gold.Protein.RotatedTorsions>
[ 6907 6896 6895 6894 ] final  161.42 input  -60.11 | X-H torsion
[ 7974 7965 7964 7962 ] final -130.60 input  175.53 | X-H torsion
[ 8008 7997 7996 7995 ] final  -66.28 input   59.86 | X-H torsion
[ 10167 10162 10161 10158 ] final -112.24 input  -65.29 | X-H torsion
[ 10718 10713 10712 10709 ] final  137.08 input   66.30 | X-H torsion
[ 10763 10752 10751 10750 ] final   80.43 input  -60.55 | X-H torsion
[ 11005 11000 10999 10996 ] final   33.77 input  -57.11 | X-H torsion

> <Gold.Protein.ActiveResidues>
 VAL166  LYS551  ARG553  GLY616  TRP617  ASP618  TYR619  PRO620  LYS621  CYS622 
 ASP623  PHE694  ASN695  SER759  ASP760  ASP761  ALA762  ILE779  LEU786  VAL792 
 PHE793  MET794  SER795  GLU796  ALA797  LYS798  CYS799  TRP800  GLU811  SER814 

> <Gold.Protein.RotatedAtoms>
  151.9558  133.3680  159.4016 H   0  0  0  0  0  0  0  0  0  0  0  0  # atno 6907 bound_to 6896
  150.6973  134.4292  159.5250 H   0  0  0  0  0  0  0  0  0  0  0  0  # atno 6908 bound_to 6896
  152.1973  134.8619  160.0562 H   0  0  0  0  0  0  0  0  0  0  0  0  # atno 6909 bound_to 6896
  144.9459  140.7291  143.4817 H   0  0  0  0  0  0  0  0  0  0  0  0  # atno 7974 bound_to 7965
  154.4725  140.0916  156.7179 H   0  0  0  0  0  0  0  0  0  0  0  0  # atno 8008 bound_to 7997
  155.4686  140.3463  155.4304 H   0  0  0  0  0  0  0  0  0  0  0  0  # atno 8009 bound_to 7997
  156.1062  140.1435  156.9389 H   0  0  0  0  0  0  0  0  0  0  0  0  # atno 8010 bound_to 7997
  140.1249  143.4411  152.1666 H   0  0  0  0  0  0  0  0  0  0  0  0  # atno 10167 bound_to 10162
  157.4399  131.1056  151.0155 H   0  0  0  0  0  0  0  0  0  0  0  0  # atno 10718 bound_to 10713
  153.1033  135.4803  154.8906 H   0  0  0  0  0  0  0  0  0  0  0  0  # atno 10763 bound_to 10752
  154.7402  135.3080  154.8743 H   0  0  0  0  0  0  0  0  0  0  0  0  # atno 10764 bound_to 10752
  153.9353  135.6840  153.4798 H   0  0  0  0  0  0  0  0  0  0  0  0  # atno 10765 bound_to 10752
  140.2597  134.3207  155.7862 H   0  0  0  0  0  0  0  0  0  0  0  0  # atno 11005 bound_to 11000
  145.2918  139.1881  143.4736 LP  0  0  0  0  0  0  0  0  0  0  0  0  # atno 17320 bound_to 7965
  146.3303  140.2896  142.8614 LP  0  0  0  0  0  0  0  0  0  0  0  0  # atno 17321 bound_to 7965
  139.5549  144.7365  151.4323 LP  0  0  0  0  0  0  0  0  0  0  0  0  # atno 17342 bound_to 10162
  140.6851  143.7993  150.7174 LP  0  0  0  0  0  0  0  0  0  0  0  0  # atno 17343 bound_to 10162
  157.1022  130.5986  149.5463 LP  0  0  0  0  0  0  0  0  0  0  0  0  # atno 17370 bound_to 10713
  155.9944  130.5008  150.7420 LP  0  0  0  0  0  0  0  0  0  0  0  0  # atno 17371 bound_to 10713
  141.2192  133.7402  156.9167 LP  0  0  0  0  0  0  0  0  0  0  0  0  # atno 17394 bound_to 11000
  140.1477  134.9251  157.2551 LP  0  0  0  0  0  0  0  0  0  0  0  0  # atno 17395 bound_to 11000

$$$$
