AV-unprocessed.smi:2059|AV-procd|sdf|8353|dock9
  -GOLD-   2272011 23D 1   1.00000     0.00000
 Structure written by MMmdl.
 29 30  0  0  0  0  0  0  0  0  2 V2000
  152.3224  144.3842  159.2053 C   0  0  0  0  0  0  0  0  0  0  0  0
  152.7588  143.2412  160.0561 C   0  0  0  0  0  0  0  0  0  0  0  0
  153.2861  142.0146  159.7656 C   0  0  0  0  0  0  0  0  0  0  0  0
  153.4717  141.4283  161.0467 C   0  0  0  0  0  0  0  0  0  0  0  0
  154.0211  140.1183  161.1567 N   0  0  0  0  0  0  0  0  0  0  0  0
  154.7400  139.3725  160.2901 C   0  0  0  0  0  0  0  0  0  0  0  0
  154.9664  139.9110  159.2016 O   0  0  0  0  0  0  0  0  0  0  0  0
  155.1376  138.1267  160.6804 N   0  5  0  0  0  0  0  0  0  0  0  0
  155.1392  137.6308  162.0587 C   0  0  1  0  0  0  0  0  0  0  0  0
  153.6977  137.4299  162.5667 C   0  0  0  0  0  0  0  0  0  0  0  0
  153.7412  136.5937  163.8542 C   0  0  0  0  0  0  0  0  0  0  0  0
  155.1854  135.4759  163.6750 S   0  0  0  0  0  0  0  0  0  0  0  0
  156.1010  135.6943  164.8062 O   0  0  0  0  0  0  0  0  0  0  0  0
  154.7210  134.1220  163.3346 O   0  0  0  0  0  0  0  0  0  0  0  0
  155.8599  136.2780  162.1678 C   0  0  0  0  0  0  0  0  0  0  0  0
  153.0885  142.2313  162.0297 N   0  0  0  0  0  0  0  0  0  0  0  0
  152.6315  143.3952  161.4011 O   0  0  0  0  0  0  0  0  0  0  0  0
  152.0738  144.0471  158.1989 H   0  0  0  0  0  0  0  0  0  0  0  0
  153.1135  145.1298  159.1268 H   0  0  0  0  0  0  0  0  0  0  0  0
  151.4409  144.8682  159.6261 H   0  0  0  0  0  0  0  0  0  0  0  0
  153.5046  141.6040  158.7911 H   0  0  0  0  0  0  0  0  0  0  0  0
  153.8302  139.6614  162.0357 H   0  0  0  0  0  0  0  0  0  0  0  0
  155.6281  138.3285  162.7406 H   0  0  0  0  0  0  0  0  0  0  0  0
  153.1885  138.3808  162.7266 H   0  0  0  0  0  0  0  0  0  0  0  0
  153.1220  136.8837  161.8175 H   0  0  0  0  0  0  0  0  0  0  0  0
  153.9029  137.2228  164.7308 H   0  0  0  0  0  0  0  0  0  0  0  0
  152.8327  136.0119  164.0087 H   0  0  0  0  0  0  0  0  0  0  0  0
  155.6281  135.6360  161.3171 H   0  0  0  0  0  0  0  0  0  0  0  0
  156.9423  136.3784  162.2447 H   0  0  0  0  0  0  0  0  0  0  0  0
  1  2  1  0  0  0  0
  1 18  1  0  0  0  0
  1 19  1  0  0  0  0
  1 20  1  0  0  0  0
  2 17  1  0  0  0  0
  2  3  2  0  0  0  0
  3  4  1  0  0  0  0
  3 21  1  0  0  0  0
  4  5  1  0  0  0  0
  4 16  2  0  0  0  0
  5  6  1  0  0  0  0
  5 22  1  0  0  0  0
  6  7  2  0  0  0  0
  6  8  1  0  0  0  0
  8  9  1  0  0  0  0
  9 15  1  0  0  0  0
  9 10  1  0  0  0  0
  9 23  1  0  0  0  0
 10 11  1  0  0  0  0
 10 24  1  0  0  0  0
 10 25  1  0  0  0  0
 11 12  1  0  0  0  0
 11 26  1  0  0  0  0
 11 27  1  0  0  0  0
 12 13  2  0  0  0  0
 12 14  2  0  0  0  0
 12 15  1  0  0  0  0
 15 28  1  0  0  0  0
 15 29  1  0  0  0  0
 16 17  1  0  0  0  0
M  CHG  1   8  -1
M  END
> <s_m_source_file>
AV-unprocessed.smi

> <i_m_source_file_index>
2059

> <i_lp_mmshare_version>
43012

> <i_f3d_flags>
0

> <s_epik_input>
W0NIM11jMVtjSF1jKG5vMSlbTkhdQyg9TylbTkhdW0NAQEhdKFtDSDJdMilbQ0gyXVtDSDJdUzIoPU8pPU8=

> <s_epik_cmdline>
J2VwaWtfcHl0aG9uJywgJy1waCcsICc3LjAnLCAnLXRuJywgJzgnLCAnLW1hJywgJzIwMCcsICctbWV0YWxfYmluZGluZycsICctaW1hZScsICc8aW5maWxlLm1hZT4nLCAnLW9tYWUnLCAnPG91dGZpbGUubWFlPic=

> <r_lp_tautomer_probability>
1

> <r_epik_Ionization_Penalty>
6.6071

> <r_epik_Ionization_Penalty_Charging>
6.60709

> <r_epik_Ionization_Penalty_Neutral>
5.42629e-06

> <r_epik_State_Penalty>
6.6352

> <r_epik_Charging_Adjusted_Penalty>
13.2423

> <i_epik_Tot_Q>
-1

> <i_epik_Tot_abs_Q>
1

> <r_epik_Metal_State_Penalty>
2.57602

> <b_epik_Metal_Only>
1

> <s_lp_Force_Field>
OPLS_2005

> <r_lp_Energy>
11.3948

> <b_lp_Chiralities_Consistent>
1

> <s_lp_Variant>
AV-unprocessed.smi:2059-6

> <Gold.Version>
5.8.1

> <Gold.Id.Protein>
6NUR|6NUR_protein|mol2

> <Gold.PLP.Fitness>
33.4703

> <Gold.PLP.PLP>
-30.9119

> <Gold.PLP.part.hbond>
-1.0000

> <Gold.PLP.part.metal>
0.0000

> <Gold.PLP.part.buried>
-4.3234

> <Gold.PLP.part.nonpolar>
-25.5336

> <Gold.PLP.part.repulsive>
0.2758

> <Gold.PLP.ligand.clash>
0.0000

> <Gold.PLP.ligand.torsion>
0.2217

> <Gold.PLP.Chemscore.Hbond>
1.0000

> <Gold.PLP.Chemscore.CHOScore>
0.0000

> <Gold.PLP.Chemscore.Metal>
0.0000

> <Gold.Chemscore.Hbonds>
donor molecule, donor type, donor heavy atom, donor atom, acceptor molecule, acceptor atom, score
      P1  H  7997  8010       L1     7  1.00

> <Gold.PLP.Chemscore.Internal.Correction>
0.0017

> <Gold.Rescore>
     Score         DG    S(hbond)    S(metal)    S(lipo)     H(rot)  DE(clash)    DE(int)     intcor
     12.09     -13.79       0.99        0.00      64.51       1.00       0.03       1.67       ----

> <Gold.Chemscore.Fitness>
12.0922

> <Gold.Chemscore.DG>
-13.7863

> <Gold.Chemscore.ZeroCoef>
-5.4800

> <Gold.Chemscore.Hbond>
0.9937

> <Gold.Chemscore.Metal>
0.0000

> <Gold.Chemscore.Lipo>
64.5064

> <Gold.Chemscore.Internal_Hbond>
0.0000

> <Gold.Chemscore.DEClash>
0.0267

> <Gold.Chemscore.DEInternal>
1.6674

> <Gold.Chemscore.Rot>
1.0000

> <Gold.Chemscore.Internal.Correction>
   9.000000E+99

> <Gold.Chemscore.Hbonds>
donor molecule, donor type, donor heavy atom, donor atom, acceptor molecule, acceptor atom, score
      P1  H  7997  8010       L1     7  0.95

> <Gold.Chemscore.Hbond.Weighted>
-3.3190

> <Gold.Chemscore.Metal.Weighted>
-0.0000

> <Gold.Chemscore.Lipo.Weighted>
-7.5472

> <Gold.Chemscore.Internal_Hbond.Weighted>
0.0000

> <Gold.Chemscore.DEClash.Weighted>
0.0267

> <Gold.Chemscore.DEInternal.Weighted>
1.6674

> <Gold.Chemscore.Rot.Weighted>
2.5600

> <Gold.Chemscore.Internal.Correction.Weighted>
   9.000000E+99

> <Gold.Protein.RotatedTorsions>
[ 6907 6896 6895 6894 ] final   32.14 input  -60.11 | X-H torsion
[ 7974 7965 7964 7962 ] final   44.31 input  175.53 | X-H torsion
[ 8008 7997 7996 7995 ] final  -15.64 input   59.86 | X-H torsion
[ 10167 10162 10161 10158 ] final   71.09 input  -65.29 | X-H torsion
[ 10718 10713 10712 10709 ] final   50.72 input   66.30 | X-H torsion
[ 10763 10752 10751 10750 ] final -173.73 input  -60.55 | X-H torsion
[ 11005 11000 10999 10996 ] final   12.57 input  -57.11 | X-H torsion

> <Gold.Protein.ActiveResidues>
 VAL166  LYS551  ARG553  GLY616  TRP617  ASP618  TYR619  PRO620  LYS621  CYS622 
 ASP623  PHE694  ASN695  SER759  ASP760  ASP761  ALA762  ILE779  LEU786  VAL792 
 PHE793  MET794  SER795  GLU796  ALA797  LYS798  CYS799  TRP800  GLU811  SER814 

> <Gold.Protein.RotatedAtoms>
  152.0703  134.9538  160.0574 H   0  0  0  0  0  0  0  0  0  0  0  0  # atno 6907 bound_to 6896
  152.0867  133.4175  159.4533 H   0  0  0  0  0  0  0  0  0  0  0  0  # atno 6908 bound_to 6896
  150.6836  134.2839  159.4682 H   0  0  0  0  0  0  0  0  0  0  0  0  # atno 6909 bound_to 6896
  146.0579  139.5088  142.9677 H   0  0  0  0  0  0  0  0  0  0  0  0  # atno 7974 bound_to 7965
  154.5115  140.2191  155.9148 H   0  0  0  0  0  0  0  0  0  0  0  0  # atno 8008 bound_to 7997
  156.1557  140.3152  155.8689 H   0  0  0  0  0  0  0  0  0  0  0  0  # atno 8009 bound_to 7997
  155.3851  140.0475  157.3033 H   0  0  0  0  0  0  0  0  0  0  0  0  # atno 8010 bound_to 7997
  140.0499  144.5321  150.7371 H   0  0  0  0  0  0  0  0  0  0  0  0  # atno 10167 bound_to 10162
  157.4912  130.8377  149.8205 H   0  0  0  0  0  0  0  0  0  0  0  0  # atno 10718 bound_to 10713
  154.6045  135.2858  155.0500 H   0  0  0  0  0  0  0  0  0  0  0  0  # atno 10763 bound_to 10752
  154.1752  135.6466  153.5023 H   0  0  0  0  0  0  0  0  0  0  0  0  # atno 10764 bound_to 10752
  153.0170  135.5410  154.6776 H   0  0  0  0  0  0  0  0  0  0  0  0  # atno 10765 bound_to 10752
  140.4904  134.0846  155.7770 H   0  0  0  0  0  0  0  0  0  0  0  0  # atno 11005 bound_to 11000
  145.6611  141.0240  143.1708 LP  0  0  0  0  0  0  0  0  0  0  0  0  # atno 17320 bound_to 7965
  144.7158  139.8201  143.7399 LP  0  0  0  0  0  0  0  0  0  0  0  0  # atno 17321 bound_to 7965
  140.7222  143.2599  151.4242 LP  0  0  0  0  0  0  0  0  0  0  0  0  # atno 17342 bound_to 10162
  139.5960  144.1397  152.2144 LP  0  0  0  0  0  0  0  0  0  0  0  0  # atno 17343 bound_to 10162
  156.0175  130.3808  150.2066 LP  0  0  0  0  0  0  0  0  0  0  0  0  # atno 17370 bound_to 10713
  157.0254  130.9992  151.3327 LP  0  0  0  0  0  0  0  0  0  0  0  0  # atno 17371 bound_to 10713
  141.1487  133.9009  157.2153 LP  0  0  0  0  0  0  0  0  0  0  0  0  # atno 17394 bound_to 11000
  139.9772  135.0110  156.9661 LP  0  0  0  0  0  0  0  0  0  0  0  0  # atno 17395 bound_to 11000

$$$$
