AV-unprocessed.smi:3282|AV-procd|sdf|12560|dock3
  -GOLD-   2272018483D 1   1.00000     0.00000
 Structure written by MMmdl.
 34 35  0  0  0  0  0  0  0  0  1 V2000
  151.3108  137.3456  154.5546 C   0  0  0  0  0  0  0  0  0  0  0  0
  150.5194  138.2166  155.5436 C   0  0  0  0  0  0  0  0  0  0  0  0
  150.3657  139.6799  155.0954 C   0  0  0  0  0  0  0  0  0  0  0  0
  151.3619  140.3968  154.9884 O   0  0  0  0  0  0  0  0  0  0  0  0
  149.1246  140.1377  154.8289 N   0  0  0  0  0  0  0  0  0  0  0  0
  148.7917  141.4882  154.3804 C   0  0  0  0  0  0  0  0  0  0  0  0
  147.3060  141.4580  154.0216 C   0  0  0  0  0  0  0  0  0  0  0  0
  146.7369  140.2876  154.8228 C   0  0  1  0  0  0  0  0  0  0  0  0
  145.6080  139.6468  154.1563 N   0  0  0  0  0  0  0  0  0  0  0  0
  145.2080  138.3857  154.3728 C   0  0  0  0  0  0  0  0  0  0  0  0
  145.7539  137.6286  155.1763 O   0  0  0  0  0  0  0  0  0  0  0  0
  144.1494  138.0702  153.6077 N   0  0  0  0  0  0  0  0  0  0  0  0
  143.4682  136.8284  153.5473 C   0  0  0  0  0  0  0  0  0  0  0  0
  142.9706  136.2469  152.4546 N   0  0  0  0  0  0  0  0  0  0  0  0
  142.4031  135.0673  152.9143 C   0  0  0  0  0  0  0  0  0  0  0  0
  142.5920  135.0017  154.2709 C   0  0  0  0  0  0  0  0  0  0  0  0
  143.2683  136.1167  154.6880 O   0  0  0  0  0  0  0  0  0  0  0  0
  147.9194  139.3239  154.9675 C   0  0  0  0  0  0  0  0  0  0  0  0
  151.3830  136.3204  154.9182 H   0  0  0  0  0  0  0  0  0  0  0  0
  152.3271  137.7178  154.4195 H   0  0  0  0  0  0  0  0  0  0  0  0
  150.8291  137.3140  153.5767 H   0  0  0  0  0  0  0  0  0  0  0  0
  149.5294  137.7812  155.6828 H   0  0  0  0  0  0  0  0  0  0  0  0
  151.0160  138.1972  156.5141 H   0  0  0  0  0  0  0  0  0  0  0  0
  148.9690  142.1891  155.1974 H   0  0  0  0  0  0  0  0  0  0  0  0
  149.3934  141.8006  153.5260 H   0  0  0  0  0  0  0  0  0  0  0  0
  146.8019  142.4003  154.2385 H   0  0  0  0  0  0  0  0  0  0  0  0
  147.2021  141.2669  152.9523 H   0  0  0  0  0  0  0  0  0  0  0  0
  146.4461  140.6370  155.8156 H   0  0  0  0  0  0  0  0  0  0  0  0
  145.1035  140.2003  153.4793 H   0  0  0  0  0  0  0  0  0  0  0  0
  143.7971  138.7921  152.9964 H   0  0  0  0  0  0  0  0  0  0  0  0
  141.9129  134.3737  152.2472 H   0  0  0  0  0  0  0  0  0  0  0  0
  142.3246  134.2830  155.0313 H   0  0  0  0  0  0  0  0  0  0  0  0
  147.9193  138.5726  154.1757 H   0  0  0  0  0  0  0  0  0  0  0  0
  147.8867  138.8024  155.9256 H   0  0  0  0  0  0  0  0  0  0  0  0
  1  2  1  0  0  0  0
  1 19  1  0  0  0  0
  1 20  1  0  0  0  0
  1 21  1  0  0  0  0
  2  3  1  0  0  0  0
  2 22  1  0  0  0  0
  2 23  1  0  0  0  0
  3  4  2  0  0  0  0
  3  5  1  0  0  0  0
  5 18  1  0  0  0  0
  5  6  1  0  0  0  0
  6  7  1  0  0  0  0
  6 24  1  0  0  0  0
  6 25  1  0  0  0  0
  7  8  1  0  0  0  0
  7 26  1  0  0  0  0
  7 27  1  0  0  0  0
  8  9  1  0  0  0  0
  8 18  1  0  0  0  0
  8 28  1  0  0  0  0
  9 10  1  0  0  0  0
  9 29  1  0  0  0  0
 10 11  2  0  0  0  0
 10 12  1  0  0  0  0
 12 13  1  0  0  0  0
 12 30  1  0  0  0  0
 13 17  1  0  0  0  0
 13 14  2  0  0  0  0
 14 15  1  0  0  0  0
 15 16  2  0  0  0  0
 15 31  1  0  0  0  0
 16 17  1  0  0  0  0
 16 32  1  0  0  0  0
 18 33  1  0  0  0  0
 18 34  1  0  0  0  0
M  END
> <s_m_source_file>
AV-unprocessed.smi

> <i_m_source_file_index>
3282

> <i_lp_mmshare_version>
43012

> <i_f3d_flags>
0

> <s_epik_input>
W0NIM11bQ0gyXUMoPU8pTjFbQ0gyXVtDSDJdW0NASF0oW0NIMl0xKVtOSF1DKD1PKVtOSF1jMm5bY0hdW2NIXW8y

> <s_epik_cmdline>
J2VwaWtfcHl0aG9uJywgJy1waCcsICc3LjAnLCAnLXRuJywgJzgnLCAnLW1hJywgJzIwMCcsICctbWV0YWxfYmluZGluZycsICctaW1hZScsICc8aW5maWxlLm1hZT4nLCAnLW9tYWUnLCAnPG91dGZpbGUubWFlPic=

> <r_lp_tautomer_probability>
0.785861

> <r_epik_Ionization_Penalty>
4.35681e-05

> <r_epik_Ionization_Penalty_Charging>
0

> <r_epik_Ionization_Penalty_Neutral>
4.35681e-05

> <r_epik_State_Penalty>
0.0212547

> <r_epik_Charging_Adjusted_Penalty>
0.0212547

> <i_epik_Tot_Q>
0

> <i_epik_Tot_abs_Q>
0

> <r_epik_Metal_State_Penalty>
0.00779955

> <b_epik_Metal_Only>
0

> <s_lp_Force_Field>
OPLS_2005

> <r_lp_Energy>
25.4051

> <b_lp_Chiralities_Consistent>
1

> <s_lp_Variant>
AV-unprocessed.smi:3282-1

> <Gold.Version>
5.8.1

> <Gold.Id.Protein>
6NUR|6NUR_protein|mol2

> <Gold.PLP.Fitness>
35.1918

> <Gold.PLP.PLP>
-21.9719

> <Gold.PLP.part.hbond>
-2.9615

> <Gold.PLP.part.metal>
0.0000

> <Gold.PLP.part.buried>
-1.9984

> <Gold.PLP.part.nonpolar>
-19.0783

> <Gold.PLP.part.repulsive>
0.3256

> <Gold.PLP.ligand.clash>
0.0000

> <Gold.PLP.ligand.torsion>
0.6133

> <Gold.PLP.Chemscore.Hbond>
3.0000

> <Gold.PLP.Chemscore.CHOScore>
1.8125

> <Gold.PLP.Chemscore.Metal>
0.0000

> <Gold.Chemscore.Hbonds>
donor molecule, donor type, donor heavy atom, donor atom, acceptor molecule, acceptor atom, score
      L1  H     9    29       P1 10175  1.00
      L1  H    12    30       P1 10175  1.00
      P1  H  7989  7998       L1     4  1.00
      L1  C    16    32       P1 10957  0.87
      L1  C    16    32       P1 11000  0.94

> <Gold.PLP.Chemscore.Internal.Correction>
0.0090

> <Gold.Rescore>
     Score         DG    S(hbond)    S(metal)    S(lipo)     H(rot)  DE(clash)    DE(int)     intcor
     13.39     -16.52       2.84        0.00      42.07       1.32       0.01       3.12       ----

> <Gold.Chemscore.Fitness>
13.3937

> <Gold.Chemscore.DG>
-16.5223

> <Gold.Chemscore.ZeroCoef>
-5.4800

> <Gold.Chemscore.Hbond>
2.8439

> <Gold.Chemscore.Metal>
0.0000

> <Gold.Chemscore.Lipo>
42.0738

> <Gold.Chemscore.Internal_Hbond>
0.0000

> <Gold.Chemscore.DEClash>
0.0111

> <Gold.Chemscore.DEInternal>
3.1175

> <Gold.Chemscore.Rot>
1.3199

> <Gold.Chemscore.Internal.Correction>
   9.000000E+99

> <Gold.Chemscore.Hbonds>
donor molecule, donor type, donor heavy atom, donor atom, acceptor molecule, acceptor atom, score
      L1  H     9    29       P1 10175  0.95
      L1  H    12    30       P1 10175  0.98
      P1  H  7989  7998       L1     4  0.81

> <Gold.Chemscore.Hbond.Weighted>
-9.4986

> <Gold.Chemscore.Metal.Weighted>
-0.0000

> <Gold.Chemscore.Lipo.Weighted>
-4.9226

> <Gold.Chemscore.Internal_Hbond.Weighted>
0.0000

> <Gold.Chemscore.DEClash.Weighted>
0.0111

> <Gold.Chemscore.DEInternal.Weighted>
3.1175

> <Gold.Chemscore.Rot.Weighted>
3.3789

> <Gold.Chemscore.Internal.Correction.Weighted>
   9.000000E+99

> <Gold.Protein.RotatedTorsions>
[ 6907 6896 6895 6894 ] final  151.14 input  -60.11 | X-H torsion
[ 7974 7965 7964 7962 ] final -152.79 input  175.53 | X-H torsion
[ 8008 7997 7996 7995 ] final   28.35 input   59.86 | X-H torsion
[ 10167 10162 10161 10158 ] final   40.64 input  -65.29 | X-H torsion
[ 10718 10713 10712 10709 ] final -148.56 input   66.30 | X-H torsion
[ 10763 10752 10751 10750 ] final  128.29 input  -60.55 | X-H torsion
[ 11005 11000 10999 10996 ] final -172.51 input  -57.11 | X-H torsion

> <Gold.Protein.ActiveResidues>
 VAL166  LYS551  ARG553  GLY616  TRP617  ASP618  TYR619  PRO620  LYS621  CYS622 
 ASP623  PHE694  ASN695  SER759  ASP760  ASP761  ALA762  ILE779  LEU786  VAL792 
 PHE793  MET794  SER795  GLU796  ALA797  LYS798  CYS799  TRP800  GLU811  SER814 

> <Gold.Protein.RotatedAtoms>
  152.1047  133.4268  159.4602 H   0  0  0  0  0  0  0  0  0  0  0  0  # atno 6907 bound_to 6896
  150.6865  134.2719  159.4601 H   0  0  0  0  0  0  0  0  0  0  0  0  # atno 6908 bound_to 6896
  152.0582  134.9610  160.0625 H   0  0  0  0  0  0  0  0  0  0  0  0  # atno 6909 bound_to 6896
  144.7775  140.4614  143.5863 H   0  0  0  0  0  0  0  0  0  0  0  0  # atno 7974 bound_to 7965
  155.0573  140.3186  155.4672 H   0  0  0  0  0  0  0  0  0  0  0  0  # atno 8008 bound_to 7997
  156.2821  140.2135  156.5644 H   0  0  0  0  0  0  0  0  0  0  0  0  # atno 8009 bound_to 7997
  154.7161  140.0494  157.0583 H   0  0  0  0  0  0  0  0  0  0  0  0  # atno 8010 bound_to 7997
  140.3722  144.2090  150.6133 H   0  0  0  0  0  0  0  0  0  0  0  0  # atno 10167 bound_to 10162
  156.4218  130.8032  151.2256 H   0  0  0  0  0  0  0  0  0  0  0  0  # atno 10718 bound_to 10713
  153.7231  135.3250  155.3271 H   0  0  0  0  0  0  0  0  0  0  0  0  # atno 10763 bound_to 10752
  154.8349  135.4504  154.1197 H   0  0  0  0  0  0  0  0  0  0  0  0  # atno 10764 bound_to 10752
  153.2323  135.6961  153.7956 H   0  0  0  0  0  0  0  0  0  0  0  0  # atno 10765 bound_to 10752
  140.4961  134.5938  157.4972 H   0  0  0  0  0  0  0  0  0  0  0  0  # atno 11005 bound_to 11000
  145.6144  139.1517  143.3058 LP  0  0  0  0  0  0  0  0  0  0  0  0  # atno 17320 bound_to 7965
  146.1964  140.6258  142.9122 LP  0  0  0  0  0  0  0  0  0  0  0  0  # atno 17321 bound_to 7965
  140.5022  143.2314  151.8661 LP  0  0  0  0  0  0  0  0  0  0  0  0  # atno 17342 bound_to 10162
  139.4803  144.5046  151.9015 LP  0  0  0  0  0  0  0  0  0  0  0  0  # atno 17343 bound_to 10162
  157.7508  131.0225  150.3797 LP  0  0  0  0  0  0  0  0  0  0  0  0  # atno 17370 bound_to 10713
  156.4116  130.3935  149.6887 LP  0  0  0  0  0  0  0  0  0  0  0  0  # atno 17371 bound_to 10713
  139.9740  134.7245  155.9985 LP  0  0  0  0  0  0  0  0  0  0  0  0  # atno 17394 bound_to 11000
  141.1459  133.6556  156.3867 LP  0  0  0  0  0  0  0  0  0  0  0  0  # atno 17395 bound_to 11000

$$$$
