AV-unprocessed.smi:413|AV-procd|sdf|2512|dock6
  -GOLD-   2262022463D 1   1.00000     0.00000
 Structure written by MMmdl.
 40 42  0  0  0  0  0  0  0  0  1 V2000
  153.5572  140.7022  160.2834 C   0  0  0  0  0  0  0  0  0  0  0  0
  152.7515  141.4280  159.3091 N   0  0  0  0  0  0  0  0  0  0  0  0
  152.3835  141.0047  158.0774 C   0  0  0  0  0  0  0  0  0  0  0  0
  152.6665  139.9202  157.5686 O   0  0  0  0  0  0  0  0  0  0  0  0
  151.6496  141.9852  157.4986 N   0  0  0  0  0  0  0  0  0  0  0  0
  151.0388  141.9449  156.1708 C   0  0  0  0  0  0  0  0  0  0  0  0
  150.3252  140.6035  155.9053 C   0  0  2  0  0  0  0  0  0  0  0  0
  151.1699  139.7920  155.1142 O   0  0  0  0  0  0  0  0  0  0  0  0
  149.0120  140.7902  155.1302 C   0  0  0  0  0  0  0  0  0  0  0  0
  147.9658  141.0507  156.0569 O   0  0  0  0  0  0  0  0  0  0  0  0
  146.9076  141.8317  155.6464 C   0  0  0  0  0  0  0  0  0  0  0  0
  145.9796  142.2202  156.6347 C   0  0  0  0  0  0  0  0  0  0  0  0
  144.8684  143.0200  156.3058 C   0  0  0  0  0  0  0  0  0  0  0  0
  144.6721  143.4385  154.9769 C   0  0  0  0  0  0  0  0  0  0  0  0
  143.6035  144.2067  154.6585 F   0  0  0  0  0  0  0  0  0  0  0  0
  145.5888  143.0563  153.9798 C   0  0  0  0  0  0  0  0  0  0  0  0
  146.7013  142.2575  154.3095 C   0  0  0  0  0  0  0  0  0  0  0  0
  151.5472  143.0666  158.3861 C   0  0  0  0  0  0  0  0  0  0  0  0
  150.9054  144.3115  158.2626 C   0  0  0  0  0  0  0  0  0  0  0  0
  150.9916  145.1955  159.3637 C   0  0  0  0  0  0  0  0  0  0  0  0
  151.7007  144.8291  160.5373 C   0  0  0  0  0  0  0  0  0  0  0  0
  152.3413  143.5715  160.6336 C   0  0  0  0  0  0  0  0  0  0  0  0
  152.2395  142.7134  159.5253 C   0  0  0  0  0  0  0  0  0  0  0  0
  153.7912  139.6903  159.9506 H   0  0  0  0  0  0  0  0  0  0  0  0
  153.0257  140.6284  161.2325 H   0  0  0  0  0  0  0  0  0  0  0  0
  154.4971  141.2263  160.4575 H   0  0  0  0  0  0  0  0  0  0  0  0
  150.3168  142.7615  156.1228 H   0  0  0  0  0  0  0  0  0  0  0  0
  151.7705  142.1606  155.3915 H   0  0  0  0  0  0  0  0  0  0  0  0
  150.1124  140.0818  156.8392 H   0  0  0  0  0  0  0  0  0  0  0  0
  150.7326  138.9693  154.9566 H   0  0  0  0  0  0  0  0  0  0  0  0
  149.1116  141.6117  154.4183 H   0  0  0  0  0  0  0  0  0  0  0  0
  148.7816  139.8819  154.5706 H   0  0  0  0  0  0  0  0  0  0  0  0
  146.1230  141.9032  157.6574 H   0  0  0  0  0  0  0  0  0  0  0  0
  144.1671  143.3120  157.0736 H   0  0  0  0  0  0  0  0  0  0  0  0
  145.4387  143.3760  152.9592 H   0  0  0  0  0  0  0  0  0  0  0  0
  147.3811  141.9822  153.5175 H   0  0  0  0  0  0  0  0  0  0  0  0
  150.3682  144.5884  157.3676 H   0  0  0  0  0  0  0  0  0  0  0  0
  150.5114  146.1614  159.3105 H   0  0  0  0  0  0  0  0  0  0  0  0
  151.7524  145.5189  161.3669 H   0  0  0  0  0  0  0  0  0  0  0  0
  152.8840  143.2854  161.5225 H   0  0  0  0  0  0  0  0  0  0  0  0
  1  2  1  0  0  0  0
  1 24  1  0  0  0  0
  1 25  1  0  0  0  0
  1 26  1  0  0  0  0
  2 23  1  0  0  0  0
  2  3  1  0  0  0  0
  3  4  2  0  0  0  0
  3  5  1  0  0  0  0
  5  6  1  0  0  0  0
  5 18  1  0  0  0  0
  6  7  1  0  0  0  0
  6 27  1  0  0  0  0
  6 28  1  0  0  0  0
  7  8  1  0  0  0  0
  7  9  1  0  0  0  0
  7 29  1  0  0  0  0
  8 30  1  0  0  0  0
  9 10  1  0  0  0  0
  9 31  1  0  0  0  0
  9 32  1  0  0  0  0
 10 11  1  0  0  0  0
 11 17  1  0  0  0  0
 11 12  2  0  0  0  0
 12 13  1  0  0  0  0
 12 33  1  0  0  0  0
 13 14  2  0  0  0  0
 13 34  1  0  0  0  0
 14 15  1  0  0  0  0
 14 16  1  0  0  0  0
 16 17  2  0  0  0  0
 16 35  1  0  0  0  0
 17 36  1  0  0  0  0
 18 23  2  0  0  0  0
 18 19  1  0  0  0  0
 19 20  2  0  0  0  0
 19 37  1  0  0  0  0
 20 21  1  0  0  0  0
 20 38  1  0  0  0  0
 21 22  2  0  0  0  0
 21 39  1  0  0  0  0
 22 23  1  0  0  0  0
 22 40  1  0  0  0  0
M  END
> <s_m_source_file>
AV-unprocessed.smi

> <i_m_source_file_index>
413

> <i_lp_mmshare_version>
43012

> <i_f3d_flags>
0

> <s_epik_input>
W2NIXTFbY0hdW2NIXVtjSF1jKGMxMiluKFtDSDNdKWMoPU8pbjJbQ0gyXVtDQEhdKFtPSF0pW0NIMl1PYzNbY0hdW2NIXWMoRilbY0hdW2NIXTM=

> <s_epik_cmdline>
J2VwaWtfcHl0aG9uJywgJy1waCcsICc3LjAnLCAnLXRuJywgJzgnLCAnLW1hJywgJzIwMCcsICctbWV0YWxfYmluZGluZycsICctaW1hZScsICc8aW5maWxlLm1hZT4nLCAnLW9tYWUnLCAnPG91dGZpbGUubWFlPic=

> <r_lp_tautomer_probability>
1

> <r_epik_Ionization_Penalty>
2.40172e-06

> <r_epik_Ionization_Penalty_Charging>
2.42369e-09

> <r_epik_Ionization_Penalty_Neutral>
2.3993e-06

> <r_epik_State_Penalty>
-0

> <r_epik_Charging_Adjusted_Penalty>
2.42369e-09

> <i_epik_Tot_Q>
0

> <i_epik_Tot_abs_Q>
0

> <r_epik_Metal_State_Penalty>
-0

> <b_epik_Metal_Only>
0

> <s_lp_Force_Field>
OPLS_2005

> <r_lp_Energy>
46.1897

> <b_lp_Chiralities_Consistent>
1

> <s_lp_Variant>
AV-unprocessed.smi:413-1

> <Gold.Version>
5.8.1

> <Gold.Id.Protein>
6NUR|6NUR_protein|mol2

> <Gold.PLP.Fitness>
55.1734

> <Gold.PLP.PLP>
-51.6989

> <Gold.PLP.part.hbond>
-2.0000

> <Gold.PLP.part.metal>
0.0000

> <Gold.PLP.part.buried>
-7.9414

> <Gold.PLP.part.nonpolar>
-42.0233

> <Gold.PLP.part.repulsive>
0.0846

> <Gold.PLP.ligand.clash>
0.0000

> <Gold.PLP.ligand.torsion>
1.2865

> <Gold.PLP.Chemscore.Hbond>
2.0000

> <Gold.PLP.Chemscore.CHOScore>
0.0000

> <Gold.PLP.Chemscore.Metal>
0.0000

> <Gold.Chemscore.Hbonds>
donor molecule, donor type, donor heavy atom, donor atom, acceptor molecule, acceptor atom, score
      P1  H  7989  7998       L1     8  1.00
      P1  H  7997  8009       L1     4  1.00

> <Gold.PLP.Chemscore.Internal.Correction>
0.0475

> <Gold.Rescore>
     Score         DG    S(hbond)    S(metal)    S(lipo)     H(rot)  DE(clash)    DE(int)     intcor
     17.24     -19.57       1.77        0.00     119.55       2.27       0.16       2.17       ----

> <Gold.Chemscore.Fitness>
17.2419

> <Gold.Chemscore.DG>
-19.5702

> <Gold.Chemscore.ZeroCoef>
-5.4800

> <Gold.Chemscore.Hbond>
1.7712

> <Gold.Chemscore.Metal>
0.0000

> <Gold.Chemscore.Lipo>
119.5498

> <Gold.Chemscore.Internal_Hbond>
0.0000

> <Gold.Chemscore.DEClash>
0.1567

> <Gold.Chemscore.DEInternal>
2.1716

> <Gold.Chemscore.Rot>
2.2706

> <Gold.Chemscore.Internal.Correction>
   9.000000E+99

> <Gold.Chemscore.Hbonds>
donor molecule, donor type, donor heavy atom, donor atom, acceptor molecule, acceptor atom, score
      P1  H  7989  7998       L1     8  0.54
      P1  H  7997  8009       L1     4  0.64

> <Gold.Chemscore.Hbond.Weighted>
-5.9157

> <Gold.Chemscore.Metal.Weighted>
-0.0000

> <Gold.Chemscore.Lipo.Weighted>
-13.9873

> <Gold.Chemscore.Internal_Hbond.Weighted>
0.0000

> <Gold.Chemscore.DEClash.Weighted>
0.1567

> <Gold.Chemscore.DEInternal.Weighted>
2.1716

> <Gold.Chemscore.Rot.Weighted>
5.8128

> <Gold.Chemscore.Internal.Correction.Weighted>
   9.000000E+99

> <Gold.Protein.RotatedTorsions>
[ 6907 6896 6895 6894 ] final  -83.27 input  -60.11 | X-H torsion
[ 7974 7965 7964 7962 ] final    2.35 input  175.53 | X-H torsion
[ 8008 7997 7996 7995 ] final  175.82 input   59.86 | X-H torsion
[ 10167 10162 10161 10158 ] final  148.47 input  -65.29 | X-H torsion
[ 10718 10713 10712 10709 ] final   49.65 input   66.30 | X-H torsion
[ 10763 10752 10751 10750 ] final -167.10 input  -60.55 | X-H torsion
[ 11005 11000 10999 10996 ] final   78.99 input  -57.11 | X-H torsion

> <Gold.Protein.ActiveResidues>
 VAL166  LYS551  ARG553  GLY616  TRP617  ASP618  TYR619  PRO620  LYS621  CYS622 
 ASP623  PHE694  ASN695  SER759  ASP760  ASP761  ALA762  ILE779  LEU786  VAL792 
 PHE793  MET794  SER795  GLU796  ALA797  LYS798  CYS799  TRP800  GLU811  SER814 

> <Gold.Protein.RotatedAtoms>
  150.6887  134.3538  159.4920 H   0  0  0  0  0  0  0  0  0  0  0  0  # atno 6907 bound_to 6896
  152.1376  134.9085  160.0564 H   0  0  0  0  0  0  0  0  0  0  0  0  # atno 6908 bound_to 6896
  152.0231  133.3872  159.4303 H   0  0  0  0  0  0  0  0  0  0  0  0  # atno 6909 bound_to 6896
  146.2443  140.0849  142.8355 H   0  0  0  0  0  0  0  0  0  0  0  0  # atno 7974 bound_to 7965
  156.0830  140.1399  156.9688 H   0  0  0  0  0  0  0  0  0  0  0  0  # atno 8008 bound_to 7997
  154.4596  140.0948  156.6905 H   0  0  0  0  0  0  0  0  0  0  0  0  # atno 8009 bound_to 7997
  155.5044  140.3452  155.4379 H   0  0  0  0  0  0  0  0  0  0  0  0  # atno 8010 bound_to 7997
  139.4874  144.5677  151.7113 H   0  0  0  0  0  0  0  0  0  0  0  0  # atno 10167 bound_to 10162
  157.4808  130.8313  149.8090 H   0  0  0  0  0  0  0  0  0  0  0  0  # atno 10718 bound_to 10713
  154.6766  135.2948  154.9670 H   0  0  0  0  0  0  0  0  0  0  0  0  # atno 10763 bound_to 10752
  154.0678  135.6622  153.4824 H   0  0  0  0  0  0  0  0  0  0  0  0  # atno 10764 bound_to 10752
  153.0520  135.5168  154.7789 H   0  0  0  0  0  0  0  0  0  0  0  0  # atno 10765 bound_to 10752
  139.9190  134.7807  156.1720 H   0  0  0  0  0  0  0  0  0  0  0  0  # atno 11005 bound_to 11000
  145.0701  140.9149  143.4887 LP  0  0  0  0  0  0  0  0  0  0  0  0  # atno 17320 bound_to 7965
  145.0981  139.2842  143.5700 LP  0  0  0  0  0  0  0  0  0  0  0  0  # atno 17321 bound_to 7965
  140.5258  144.0807  150.6037 LP  0  0  0  0  0  0  0  0  0  0  0  0  # atno 17342 bound_to 10162
  140.3781  143.2818  152.0202 LP  0  0  0  0  0  0  0  0  0  0  0  0  # atno 17343 bound_to 10162
  156.0120  130.3829  150.2232 LP  0  0  0  0  0  0  0  0  0  0  0  0  # atno 17370 bound_to 10713
  157.0418  131.0037  151.3281 LP  0  0  0  0  0  0  0  0  0  0  0  0  # atno 17371 bound_to 10713
  141.0694  133.6804  156.2110 LP  0  0  0  0  0  0  0  0  0  0  0  0  # atno 17394 bound_to 11000
  140.6531  134.5046  157.5579 LP  0  0  0  0  0  0  0  0  0  0  0  0  # atno 17395 bound_to 11000

$$$$
