AV-unprocessed.smi:1635|AV-procd|sdf|6541|dock3
  -GOLD-   22720 7223D 1   1.00000     0.00000
 Structure written by MMmdl.
 37 38  0  0  0  0  0  0  0  0  1 V2000
  151.7312  143.3504  159.7833 C   0  0  0  0  0  0  0  0  0  0  0  0
  152.6166  142.1162  159.7239 C   0  0  0  0  0  0  0  0  0  0  0  0
  153.5711  141.9017  160.7409 C   0  0  0  0  0  0  0  0  0  0  0  0
  154.3882  140.7597  160.6850 C   0  0  0  0  0  0  0  0  0  0  0  0
  154.2149  139.8748  159.6071 C   0  0  0  0  0  0  0  0  0  0  0  0
  153.3051  140.0716  158.6313 N   0  0  0  0  0  0  0  0  0  0  0  0
  152.5078  141.1687  158.6705 C   0  0  0  0  0  0  0  0  0  0  0  0
  151.5283  141.4423  157.6746 N   0  0  0  0  0  0  0  0  0  0  0  0
  150.7439  140.5752  157.0106 C   0  0  0  0  0  0  0  0  0  0  0  0
  150.7362  139.3537  157.1676 O   0  0  0  0  0  0  0  0  0  0  0  0
  149.9473  141.2144  156.1413 N   0  0  0  0  0  0  0  0  0  0  0  0
  148.9744  140.5836  155.2477 C   0  0  1  0  0  0  0  0  0  0  0  0
  148.2121  141.6638  154.4480 C   0  0  0  0  0  0  0  0  0  0  0  0
  146.8493  141.1990  153.9103 C   0  0  0  0  0  0  0  0  0  0  0  0
  146.9153  140.0479  152.8955 C   0  0  0  0  0  0  0  0  0  0  0  0
  147.4374  138.7292  153.4912 C   0  0  0  0  0  0  0  0  0  0  0  0
  148.8895  138.7071  153.6162 N   0  0  0  0  0  0  0  0  0  0  0  0
  149.6518  139.5099  154.3748 C   0  0  0  0  0  0  0  0  0  0  0  0
  150.8772  139.3948  154.3683 O   0  0  0  0  0  0  0  0  0  0  0  0
  151.9468  143.9519  160.6669 H   0  0  0  0  0  0  0  0  0  0  0  0
  150.6796  143.0642  159.8217 H   0  0  0  0  0  0  0  0  0  0  0  0
  151.8889  143.9765  158.9046 H   0  0  0  0  0  0  0  0  0  0  0  0
  153.6785  142.6024  161.5559 H   0  0  0  0  0  0  0  0  0  0  0  0
  155.1282  140.5670  161.4476 H   0  0  0  0  0  0  0  0  0  0  0  0
  154.8224  138.9857  159.5247 H   0  0  0  0  0  0  0  0  0  0  0  0
  151.4093  142.4175  157.4438 H   0  0  0  0  0  0  0  0  0  0  0  0
  150.0256  142.2189  156.0759 H   0  0  0  0  0  0  0  0  0  0  0  0
  148.2593  140.0534  155.8801 H   0  0  0  0  0  0  0  0  0  0  0  0
  148.0284  142.5287  155.0870 H   0  0  0  0  0  0  0  0  0  0  0  0
  148.8322  142.0307  153.6289 H   0  0  0  0  0  0  0  0  0  0  0  0
  146.2076  140.9135  154.7448 H   0  0  0  0  0  0  0  0  0  0  0  0
  146.3578  142.0494  153.4368 H   0  0  0  0  0  0  0  0  0  0  0  0
  145.9069  139.8764  152.5171 H   0  0  0  0  0  0  0  0  0  0  0  0
  147.5131  140.3372  152.0301 H   0  0  0  0  0  0  0  0  0  0  0  0
  146.9687  138.5167  154.4531 H   0  0  0  0  0  0  0  0  0  0  0  0
  147.1631  137.9069  152.8299 H   0  0  0  0  0  0  0  0  0  0  0  0
  149.3706  138.0149  153.0604 H   0  0  0  0  0  0  0  0  0  0  0  0
  1  2  1  0  0  0  0
  1 20  1  0  0  0  0
  1 21  1  0  0  0  0
  1 22  1  0  0  0  0
  2  7  1  0  0  0  0
  2  3  2  0  0  0  0
  3  4  1  0  0  0  0
  3 23  1  0  0  0  0
  4  5  2  0  0  0  0
  4 24  1  0  0  0  0
  5  6  1  0  0  0  0
  5 25  1  0  0  0  0
  6  7  2  0  0  0  0
  7  8  1  0  0  0  0
  8  9  1  0  0  0  0
  8 26  1  0  0  0  0
  9 10  2  0  0  0  0
  9 11  1  0  0  0  0
 11 12  1  0  0  0  0
 11 27  1  0  0  0  0
 12 18  1  0  0  0  0
 12 13  1  0  0  0  0
 12 28  1  0  0  0  0
 13 14  1  0  0  0  0
 13 29  1  0  0  0  0
 13 30  1  0  0  0  0
 14 15  1  0  0  0  0
 14 31  1  0  0  0  0
 14 32  1  0  0  0  0
 15 16  1  0  0  0  0
 15 33  1  0  0  0  0
 15 34  1  0  0  0  0
 16 17  1  0  0  0  0
 16 35  1  0  0  0  0
 16 36  1  0  0  0  0
 17 18  1  0  0  0  0
 17 37  1  0  0  0  0
 18 19  2  0  0  0  0
M  END
> <s_m_source_file>
AV-unprocessed.smi

> <i_m_source_file_index>
1635

> <i_lp_mmshare_version>
43012

> <i_f3d_flags>
0

> <s_epik_input>
W0NIM11jMVtjSF1bY0hdW2NIXW5jMVtOSF1DKD1PKVtOSF1bQ0BASF0yW0NIMl1bQ0gyXVtDSDJdW0NIMl1bTkhdQzI9Tw==

> <s_epik_cmdline>
J2VwaWtfcHl0aG9uJywgJy1waCcsICc3LjAnLCAnLXRuJywgJzgnLCAnLW1hJywgJzIwMCcsICctbWV0YWxfYmluZGluZycsICctaW1hZScsICc8aW5maWxlLm1hZT4nLCAnLW9tYWUnLCAnPG91dGZpbGUubWFlPic=

> <r_lp_tautomer_probability>
1

> <r_epik_Ionization_Penalty>
5.14862e-05

> <r_epik_Ionization_Penalty_Charging>
0

> <r_epik_Ionization_Penalty_Neutral>
5.14862e-05

> <r_epik_State_Penalty>
-0

> <r_epik_Charging_Adjusted_Penalty>
0

> <i_epik_Tot_Q>
0

> <i_epik_Tot_abs_Q>
0

> <r_epik_Metal_State_Penalty>
-0

> <b_epik_Metal_Only>
0

> <s_lp_Force_Field>
OPLS_2005

> <r_lp_Energy>
13.1322

> <b_lp_Chiralities_Consistent>
1

> <s_lp_Variant>
AV-unprocessed.smi:1635-2

> <Gold.Version>
5.8.1

> <Gold.Id.Protein>
6NUR|6NUR_protein|mol2

> <Gold.PLP.Fitness>
45.0645

> <Gold.PLP.PLP>
-37.5387

> <Gold.PLP.part.hbond>
-4.0000

> <Gold.PLP.part.metal>
0.0000

> <Gold.PLP.part.buried>
-2.2192

> <Gold.PLP.part.nonpolar>
-31.4735

> <Gold.PLP.part.repulsive>
0.3645

> <Gold.PLP.ligand.clash>
0.0000

> <Gold.PLP.ligand.torsion>
0.2801

> <Gold.PLP.Chemscore.Hbond>
2.6864

> <Gold.PLP.Chemscore.CHOScore>
0.0000

> <Gold.PLP.Chemscore.Metal>
0.0000

> <Gold.Chemscore.Hbonds>
donor molecule, donor type, donor heavy atom, donor atom, acceptor molecule, acceptor atom, score
      L1  H    17    37       P1  7948  0.58
      P1  H  7989  7998       L1    19  1.00
      P1  H  7997  8009       L1     6  0.81

> <Gold.PLP.Chemscore.Internal.Correction>
0.0269

> <Gold.Rescore>
     Score         DG    S(hbond)    S(metal)    S(lipo)     H(rot)  DE(clash)    DE(int)     intcor
     17.17     -18.53       1.99        0.00      76.63       1.00       0.07       1.29       ----

> <Gold.Chemscore.Fitness>
17.1701

> <Gold.Chemscore.DG>
-18.5281

> <Gold.Chemscore.ZeroCoef>
-5.4800

> <Gold.Chemscore.Hbond>
1.9887

> <Gold.Chemscore.Metal>
0.0000

> <Gold.Chemscore.Lipo>
76.6304

> <Gold.Chemscore.Internal_Hbond>
0.0000

> <Gold.Chemscore.DEClash>
0.0727

> <Gold.Chemscore.DEInternal>
1.2852

> <Gold.Chemscore.Rot>
1.0000

> <Gold.Chemscore.Internal.Correction>
   9.000000E+99

> <Gold.Chemscore.Hbonds>
donor molecule, donor type, donor heavy atom, donor atom, acceptor molecule, acceptor atom, score
      L1  H    17    37       P1  7948  0.54
      P1  H  7989  7998       L1    19  0.74
      P1  H  7997  8009       L1     6  0.11

> <Gold.Chemscore.Hbond.Weighted>
-6.6423

> <Gold.Chemscore.Metal.Weighted>
-0.0000

> <Gold.Chemscore.Lipo.Weighted>
-8.9658

> <Gold.Chemscore.Internal_Hbond.Weighted>
0.0000

> <Gold.Chemscore.DEClash.Weighted>
0.0727

> <Gold.Chemscore.DEInternal.Weighted>
1.2852

> <Gold.Chemscore.Rot.Weighted>
2.5600

> <Gold.Chemscore.Internal.Correction.Weighted>
   9.000000E+99

> <Gold.Protein.RotatedTorsions>
[ 6907 6896 6895 6894 ] final -112.58 input  -60.11 | X-H torsion
[ 7974 7965 7964 7962 ] final  -93.17 input  175.53 | X-H torsion
[ 8008 7997 7996 7995 ] final  153.57 input   59.86 | X-H torsion
[ 10167 10162 10161 10158 ] final   69.93 input  -65.29 | X-H torsion
[ 10718 10713 10712 10709 ] final  -46.23 input   66.30 | X-H torsion
[ 10763 10752 10751 10750 ] final   91.84 input  -60.55 | X-H torsion
[ 11005 11000 10999 10996 ] final   58.34 input  -57.11 | X-H torsion

> <Gold.Protein.ActiveResidues>
 VAL166  LYS551  ARG553  GLY616  TRP617  ASP618  TYR619  PRO620  LYS621  CYS622 
 ASP623  PHE694  ASN695  SER759  ASP760  ASP761  ALA762  ILE779  LEU786  VAL792 
 PHE793  MET794  SER795  GLU796  ALA797  LYS798  CYS799  TRP800  GLU811  SER814 

> <Gold.Protein.RotatedAtoms>
  150.7768  133.9069  159.3357 H   0  0  0  0  0  0  0  0  0  0  0  0  # atno 6907 bound_to 6896
  151.6941  135.0939  160.0248 H   0  0  0  0  0  0  0  0  0  0  0  0  # atno 6908 bound_to 6896
  152.3807  133.6504  159.6194 H   0  0  0  0  0  0  0  0  0  0  0  0  # atno 6909 bound_to 6896
  145.3901  140.9527  143.2345 H   0  0  0  0  0  0  0  0  0  0  0  0  # atno 7974 bound_to 7965
  156.2575  140.1990  156.6510 H   0  0  0  0  0  0  0  0  0  0  0  0  # atno 8008 bound_to 7997
  154.6536  140.0569  157.0009 H   0  0  0  0  0  0  0  0  0  0  0  0  # atno 8009 bound_to 7997
  155.1380  140.3240  155.4461 H   0  0  0  0  0  0  0  0  0  0  0  0  # atno 8010 bound_to 7997
  140.0625  144.5221  150.7284 H   0  0  0  0  0  0  0  0  0  0  0  0  # atno 10167 bound_to 10162
  156.2204  130.4166  149.9000 H   0  0  0  0  0  0  0  0  0  0  0  0  # atno 10718 bound_to 10713
  153.2126  135.4383  155.0397 H   0  0  0  0  0  0  0  0  0  0  0  0  # atno 10763 bound_to 10752
  154.8208  135.3337  154.7046 H   0  0  0  0  0  0  0  0  0  0  0  0  # atno 10764 bound_to 10752
  153.7483  135.7000  153.5007 H   0  0  0  0  0  0  0  0  0  0  0  0  # atno 10765 bound_to 10752
  140.0385  134.5908  155.9413 H   0  0  0  0  0  0  0  0  0  0  0  0  # atno 11005 bound_to 11000
  144.8446  139.5417  143.6884 LP  0  0  0  0  0  0  0  0  0  0  0  0  # atno 17320 bound_to 7965
  146.2801  139.6856  142.9235 LP  0  0  0  0  0  0  0  0  0  0  0  0  # atno 17321 bound_to 7965
  140.7165  143.2549  151.4418 LP  0  0  0  0  0  0  0  0  0  0  0  0  # atno 17342 bound_to 10162
  139.5885  144.1551  152.2059 LP  0  0  0  0  0  0  0  0  0  0  0  0  # atno 17343 bound_to 10162
  156.6648  130.8797  151.3553 LP  0  0  0  0  0  0  0  0  0  0  0  0  # atno 17370 bound_to 10713
  157.7084  130.9412  150.1008 LP  0  0  0  0  0  0  0  0  0  0  0  0  # atno 17371 bound_to 10713
  141.1870  133.6559  156.5264 LP  0  0  0  0  0  0  0  0  0  0  0  0  # atno 17394 bound_to 11000
  140.4108  134.7274  157.4835 LP  0  0  0  0  0  0  0  0  0  0  0  0  # atno 17395 bound_to 11000

$$$$
