AV-unprocessed.smi:981|AV-procd|sdf|4313|dock6
  -GOLD-   22720 2223D 1   1.00000     0.00000
 Structure written by MMmdl.
 36 37  0  0  0  0  0  0  0  0  1 V2000
  154.4049  141.1293  160.6659 C   0  0  0  0  0  0  0  0  0  0  0  0
  153.8241  142.4867  160.2444 C   0  0  0  0  0  0  0  0  0  0  0  0
  153.3938  143.3548  161.4359 C   0  0  0  0  0  0  0  0  0  0  0  0
  152.7334  142.3422  159.2299 C   0  0  0  0  0  0  0  0  0  0  0  0
  152.1462  141.1793  158.9308 N   0  0  0  0  0  0  0  0  0  0  0  0
  151.1570  141.3089  157.9512 C   0  0  0  0  0  0  0  0  0  0  0  0
  150.3986  140.1017  157.4896 C   0  0  0  0  0  0  0  0  0  0  0  0
  151.0608  138.7924  157.9401 C   0  0  0  0  0  0  0  0  0  0  0  0
  150.3033  137.6439  157.4633 N   0  0  0  0  0  0  0  0  0  0  0  0
  150.7951  136.6899  156.6569 C   0  0  0  0  0  0  0  0  0  0  0  0
  151.9467  136.7001  156.2255 O   0  0  0  0  0  0  0  0  0  0  0  0
  149.9256  135.7164  156.3312 N   0  0  0  0  0  0  0  0  0  0  0  0
  150.1486  134.5728  155.4974 C   0  0  0  0  0  0  0  0  0  0  0  0
  148.9783  133.6384  155.2779 C   0  0  0  0  0  0  0  0  0  0  0  0
  150.1245  133.2077  156.1506 C   0  0  0  0  0  0  0  0  0  0  0  0
  151.0011  142.5980  157.5073 C   0  0  0  0  0  0  0  0  0  0  0  0
  152.0922  143.6965  158.3056 S   0  0  0  0  0  0  0  0  0  0  0  0
  154.7747  140.5761  159.8020 H   0  0  0  0  0  0  0  0  0  0  0  0
  153.6538  140.5122  161.1600 H   0  0  0  0  0  0  0  0  0  0  0  0
  155.2379  141.2564  161.3576 H   0  0  0  0  0  0  0  0  0  0  0  0
  154.6330  143.0255  159.7496 H   0  0  0  0  0  0  0  0  0  0  0  0
  153.0643  144.3400  161.1045 H   0  0  0  0  0  0  0  0  0  0  0  0
  154.2182  143.4998  162.1345 H   0  0  0  0  0  0  0  0  0  0  0  0
  152.5708  142.8953  161.9845 H   0  0  0  0  0  0  0  0  0  0  0  0
  149.3757  140.1415  157.8668 H   0  0  0  0  0  0  0  0  0  0  0  0
  150.3160  140.1103  156.4019 H   0  0  0  0  0  0  0  0  0  0  0  0
  152.0816  138.7391  157.5579 H   0  0  0  0  0  0  0  0  0  0  0  0
  151.1207  138.7553  159.0291 H   0  0  0  0  0  0  0  0  0  0  0  0
  149.3441  137.5651  157.7684 H   0  0  0  0  0  0  0  0  0  0  0  0
  148.9865  135.8189  156.6881 H   0  0  0  0  0  0  0  0  0  0  0  0
  150.8134  134.6851  154.6424 H   0  0  0  0  0  0  0  0  0  0  0  0
  148.0360  133.8754  155.7685 H   0  0  0  0  0  0  0  0  0  0  0  0
  148.8882  133.1691  154.3005 H   0  0  0  0  0  0  0  0  0  0  0  0
  150.7998  132.4512  155.7560 H   0  0  0  0  0  0  0  0  0  0  0  0
  149.9491  133.1603  157.2238 H   0  0  0  0  0  0  0  0  0  0  0  0
  150.3138  142.9665  156.7603 H   0  0  0  0  0  0  0  0  0  0  0  0
  1  2  1  0  0  0  0
  1 18  1  0  0  0  0
  1 19  1  0  0  0  0
  1 20  1  0  0  0  0
  2  3  1  0  0  0  0
  2  4  1  0  0  0  0
  2 21  1  0  0  0  0
  3 22  1  0  0  0  0
  3 23  1  0  0  0  0
  3 24  1  0  0  0  0
  4 17  1  0  0  0  0
  4  5  2  0  0  0  0
  5  6  1  0  0  0  0
  6  7  1  0  0  0  0
  6 16  2  0  0  0  0
  7  8  1  0  0  0  0
  7 25  1  0  0  0  0
  7 26  1  0  0  0  0
  8  9  1  0  0  0  0
  8 27  1  0  0  0  0
  8 28  1  0  0  0  0
  9 10  1  0  0  0  0
  9 29  1  0  0  0  0
 10 11  2  0  0  0  0
 10 12  1  0  0  0  0
 12 13  1  0  0  0  0
 12 30  1  0  0  0  0
 13 15  1  0  0  0  0
 13 14  1  0  0  0  0
 13 31  1  0  0  0  0
 14 15  1  0  0  0  0
 14 32  1  0  0  0  0
 14 33  1  0  0  0  0
 15 34  1  0  0  0  0
 15 35  1  0  0  0  0
 16 17  1  0  0  0  0
 16 36  1  0  0  0  0
M  END
> <s_m_source_file>
AV-unprocessed.smi

> <i_m_source_file_index>
981

> <i_lp_mmshare_version>
43012

> <i_f3d_flags>
0

> <s_epik_input>
W0NIM11bQ0hdKFtDSDNdKWMxbmMoW2NIXXMxKVtDSDJdW0NIMl1bTkhdQyg9TylbTkhdW0NIXTJbQ0gyXVtDSDJdMg==

> <s_epik_cmdline>
J2VwaWtfcHl0aG9uJywgJy1waCcsICc3LjAnLCAnLXRuJywgJzgnLCAnLW1hJywgJzIwMCcsICctbWV0YWxfYmluZGluZycsICctaW1hZScsICc8aW5maWxlLm1hZT4nLCAnLW9tYWUnLCAnPG91dGZpbGUubWFlPic=

> <r_epik_Ionization_Penalty>
0.00156572

> <r_epik_Ionization_Penalty_Charging>
0

> <r_epik_Ionization_Penalty_Neutral>
0.00156572

> <r_epik_State_Penalty>
0.0010059

> <r_epik_Charging_Adjusted_Penalty>
0.0010059

> <i_epik_Tot_Q>
0

> <i_epik_Tot_abs_Q>
0

> <r_epik_Metal_State_Penalty>
-0

> <b_epik_Metal_Only>
0

> <s_lp_Force_Field>
OPLS_2005

> <r_lp_Energy>
12.4684

> <b_lp_Chiralities_Consistent>
1

> <s_lp_Variant>
AV-unprocessed.smi:981-1

> <Gold.Version>
5.8.1

> <Gold.Id.Protein>
6NUR|6NUR_protein|mol2

> <Gold.PLP.Fitness>
39.9881

> <Gold.PLP.PLP>
-34.5826

> <Gold.PLP.part.hbond>
-1.0000

> <Gold.PLP.part.metal>
0.0000

> <Gold.PLP.part.buried>
-4.9767

> <Gold.PLP.part.nonpolar>
-28.8711

> <Gold.PLP.part.repulsive>
0.0669

> <Gold.PLP.ligand.clash>
0.0000

> <Gold.PLP.ligand.torsion>
0.3575

> <Gold.PLP.Chemscore.Hbond>
1.0000

> <Gold.PLP.Chemscore.CHOScore>
1.0000

> <Gold.PLP.Chemscore.Metal>
0.0000

> <Gold.Chemscore.Hbonds>
donor molecule, donor type, donor heavy atom, donor atom, acceptor molecule, acceptor atom, score
      P1  H 10752 10764       L1    11  0.89
      L1  C    16    36       P1  8028  1.00

> <Gold.PLP.Chemscore.Internal.Correction>
0.1205

> <Gold.Rescore>
     Score         DG    S(hbond)    S(metal)    S(lipo)     H(rot)  DE(clash)    DE(int)     intcor
     14.95     -15.06       0.99        0.00      90.91       1.70       0.01       0.10       ----

> <Gold.Chemscore.Fitness>
14.9534

> <Gold.Chemscore.DG>
-15.0628

> <Gold.Chemscore.ZeroCoef>
-5.4800

> <Gold.Chemscore.Hbond>
0.9908

> <Gold.Chemscore.Metal>
0.0000

> <Gold.Chemscore.Lipo>
90.9144

> <Gold.Chemscore.Internal_Hbond>
0.0000

> <Gold.Chemscore.DEClash>
0.0126

> <Gold.Chemscore.DEInternal>
0.0968

> <Gold.Chemscore.Rot>
1.7045

> <Gold.Chemscore.Internal.Correction>
   9.000000E+99

> <Gold.Chemscore.Hbonds>
donor molecule, donor type, donor heavy atom, donor atom, acceptor molecule, acceptor atom, score
      P1  H 10752 10764       L1    11  0.87

> <Gold.Chemscore.Hbond.Weighted>
-3.3094

> <Gold.Chemscore.Metal.Weighted>
-0.0000

> <Gold.Chemscore.Lipo.Weighted>
-10.6370

> <Gold.Chemscore.Internal_Hbond.Weighted>
0.0000

> <Gold.Chemscore.DEClash.Weighted>
0.0126

> <Gold.Chemscore.DEInternal.Weighted>
0.0968

> <Gold.Chemscore.Rot.Weighted>
4.3636

> <Gold.Chemscore.Internal.Correction.Weighted>
   9.000000E+99

> <Gold.Protein.RotatedTorsions>
[ 6907 6896 6895 6894 ] final   16.00 input  -60.11 | X-H torsion
[ 7974 7965 7964 7962 ] final  -49.77 input  175.53 | X-H torsion
[ 8008 7997 7996 7995 ] final  -53.88 input   59.86 | X-H torsion
[ 10167 10162 10161 10158 ] final   30.83 input  -65.29 | X-H torsion
[ 10718 10713 10712 10709 ] final  117.17 input   66.30 | X-H torsion
[ 10763 10752 10751 10750 ] final  -28.19 input  -60.55 | X-H torsion
[ 11005 11000 10999 10996 ] final -166.70 input  -57.11 | X-H torsion

> <Gold.Protein.ActiveResidues>
 VAL166  LYS551  ARG553  GLY616  TRP617  ASP618  TYR619  PRO620  LYS621  CYS622 
 ASP623  PHE694  ASN695  SER759  ASP760  ASP761  ALA762  ILE779  LEU786  VAL792 
 PHE793  MET794  SER795  GLU796  ALA797  LYS798  CYS799  TRP800  GLU811  SER814 

> <Gold.Protein.RotatedAtoms>
  151.8269  135.0634  160.0431 H   0  0  0  0  0  0  0  0  0  0  0  0  # atno 6907 bound_to 6896
  152.2909  133.5556  159.5565 H   0  0  0  0  0  0  0  0  0  0  0  0  # atno 6908 bound_to 6896
  150.7230  134.0346  159.3787 H   0  0  0  0  0  0  0  0  0  0  0  0  # atno 6909 bound_to 6896
  145.9370  140.7697  142.9571 H   0  0  0  0  0  0  0  0  0  0  0  0  # atno 7974 bound_to 7965
  154.4146  140.1189  156.5225 H   0  0  0  0  0  0  0  0  0  0  0  0  # atno 8008 bound_to 7997
  155.6688  140.3496  155.4791 H   0  0  0  0  0  0  0  0  0  0  0  0  # atno 8009 bound_to 7997
  155.9650  140.1130  157.0852 H   0  0  0  0  0  0  0  0  0  0  0  0  # atno 8010 bound_to 7997
  140.4643  144.0859  150.6220 H   0  0  0  0  0  0  0  0  0  0  0  0  # atno 10167 bound_to 10162
  157.6114  131.1034  150.7577 H   0  0  0  0  0  0  0  0  0  0  0  0  # atno 10718 bound_to 10713
  153.7443  135.6930  153.4960 H   0  0  0  0  0  0  0  0  0  0  0  0  # atno 10763 bound_to 10752
  153.2047  135.4424  155.0308 H   0  0  0  0  0  0  0  0  0  0  0  0  # atno 10764 bound_to 10752
  154.8210  135.3422  154.6967 H   0  0  0  0  0  0  0  0  0  0  0  0  # atno 10765 bound_to 10752
  140.5615  134.5328  157.5144 H   0  0  0  0  0  0  0  0  0  0  0  0  # atno 11005 bound_to 11000
  144.6773  140.2219  143.7365 LP  0  0  0  0  0  0  0  0  0  0  0  0  # atno 17320 bound_to 7965
  145.8350  139.2103  143.1860 LP  0  0  0  0  0  0  0  0  0  0  0  0  # atno 17321 bound_to 7965
  140.4055  143.2682  151.9896 LP  0  0  0  0  0  0  0  0  0  0  0  0  # atno 17342 bound_to 10162
  139.4810  144.5960  151.7688 LP  0  0  0  0  0  0  0  0  0  0  0  0  # atno 17343 bound_to 10162
  156.7953  130.4903  149.5378 LP  0  0  0  0  0  0  0  0  0  0  0  0  # atno 17370 bound_to 10713
  156.1218  130.6115  151.0204 LP  0  0  0  0  0  0  0  0  0  0  0  0  # atno 17371 bound_to 10713
  139.9405  134.7795  156.0690 LP  0  0  0  0  0  0  0  0  0  0  0  0  # atno 17394 bound_to 11000
  141.1111  133.6643  156.2982 LP  0  0  0  0  0  0  0  0  0  0  0  0  # atno 17395 bound_to 11000

$$$$
