AV-unprocessed.smi:153|AV-procd|sdf|1265|dock9
  -GOLD-   2262018523D 1   1.00000     0.00000
 Structure written by MMmdl.
 59 62  0  0  0  0  0  0  0  0  1 V2000
  143.8945  132.3317  149.4862 C   0  0  0  0  0  0  0  0  0  0  0  0
  144.0904  132.3143  151.0109 C   0  0  1  0  0  0  0  0  0  0  0  0
  145.1637  131.3966  151.2318 O   0  0  0  0  0  0  0  0  0  0  0  0
  146.1307  131.9540  152.1076 C   0  0  0  0  0  0  0  0  0  0  0  0
  146.0267  133.4508  151.8545 C   0  0  0  0  0  0  0  0  0  0  0  0
  144.5292  133.6513  151.6718 C   0  0  2  0  0  0  0  0  0  0  0  0
  143.9529  133.7078  152.9660 O   0  0  0  0  0  0  0  0  0  0  0  0
  144.1942  134.9822  150.9428 C   0  0  0  0  0  0  0  0  0  0  0  0
  145.0389  136.1235  151.2826 N   0  0  0  0  0  0  0  0  0  0  0  0
  145.7709  136.9213  150.4303 C   0  0  0  0  0  0  0  0  0  0  0  0
  146.4272  137.8924  151.0016 N   0  0  0  0  0  0  0  0  0  0  0  0
  146.1121  137.7800  152.3505 C   0  0  0  0  0  0  0  0  0  0  0  0
  146.4726  138.5041  153.5269 C   0  0  0  0  0  0  0  0  0  0  0  0
  147.3425  139.5529  153.5427 N   0  0  0  0  0  0  0  0  0  0  0  0
  147.4688  140.3621  152.3326 C   0  0  0  0  0  0  0  0  0  0  0  0
  147.5937  140.2178  154.8218 C   0  0  0  0  0  0  0  0  0  0  0  0
  148.6959  141.2991  154.7462 C   0  0  1  0  0  0  0  0  0  0  0  0
  148.1673  142.5313  154.2969 O   0  0  0  0  0  0  0  0  0  0  0  0
  149.4257  141.5306  156.0888 C   0  0  0  0  0  0  0  0  0  0  0  0
  150.4064  140.5178  156.4926 N   0  0  0  0  0  0  0  0  0  0  0  0
  151.1555  140.8903  157.6913 C   0  0  0  0  0  0  0  0  0  0  0  0
  152.1962  139.8234  158.0737 C   0  0  0  0  0  0  0  0  0  0  0  0
  153.0745  139.5938  156.9771 O   0  0  0  0  0  0  0  0  0  0  0  0
  152.3858  139.1814  155.8017 C   0  0  0  0  0  0  0  0  0  0  0  0
  151.3500  140.2499  155.4121 C   0  0  0  0  0  0  0  0  0  0  0  0
  145.9058  138.1000  154.6961 N   0  0  0  0  0  0  0  0  0  0  0  0
  145.0696  137.0598  154.7261 C   0  0  0  0  0  0  0  0  0  0  0  0
  144.6649  136.2878  153.7180 N   0  0  0  0  0  0  0  0  0  0  0  0
  145.2158  136.6877  152.5363 C   0  0  0  0  0  0  0  0  0  0  0  0
  142.9912  132.8655  149.1993 H   0  0  0  0  0  0  0  0  0  0  0  0
  143.7885  131.3168  149.1029 H   0  0  0  0  0  0  0  0  0  0  0  0
  144.7434  132.7892  148.9774 H   0  0  0  0  0  0  0  0  0  0  0  0
  143.1837  131.9248  151.4768 H   0  0  0  0  0  0  0  0  0  0  0  0
  145.8668  131.7124  153.1381 H   0  0  0  0  0  0  0  0  0  0  0  0
  147.1273  131.5598  151.9080 H   0  0  0  0  0  0  0  0  0  0  0  0
  146.4573  134.0519  152.6565 H   0  0  0  0  0  0  0  0  0  0  0  0
  146.5565  133.6958  150.9328 H   0  0  0  0  0  0  0  0  0  0  0  0
  143.8165  132.8244  153.2723 H   0  0  0  0  0  0  0  0  0  0  0  0
  144.2479  134.8396  149.8628 H   0  0  0  0  0  0  0  0  0  0  0  0
  143.1586  135.2531  151.1499 H   0  0  0  0  0  0  0  0  0  0  0  0
  145.8110  136.7716  149.3622 H   0  0  0  0  0  0  0  0  0  0  0  0
  147.6487  139.7320  151.4606 H   0  0  0  0  0  0  0  0  0  0  0  0
  148.3075  141.0534  152.4161 H   0  0  0  0  0  0  0  0  0  0  0  0
  146.5649  140.9468  152.1588 H   0  0  0  0  0  0  0  0  0  0  0  0
  146.6830  140.6094  155.2693 H   0  0  0  0  0  0  0  0  0  0  0  0
  147.9243  139.4408  155.5120 H   0  0  0  0  0  0  0  0  0  0  0  0
  149.4505  140.9998  154.0180 H   0  0  0  0  0  0  0  0  0  0  0  0
  148.6418  143.2307  154.7196 H   0  0  0  0  0  0  0  0  0  0  0  0
  149.9544  142.4792  155.9859 H   0  0  0  0  0  0  0  0  0  0  0  0
  148.6998  141.6932  156.8873 H   0  0  0  0  0  0  0  0  0  0  0  0
  151.6574  141.8459  157.5329 H   0  0  0  0  0  0  0  0  0  0  0  0
  150.4796  141.0256  158.5344 H   0  0  0  0  0  0  0  0  0  0  0  0
  152.7790  140.1527  158.9339 H   0  0  0  0  0  0  0  0  0  0  0  0
  151.7052  138.8909  158.3569 H   0  0  0  0  0  0  0  0  0  0  0  0
  153.1066  139.0408  154.9963 H   0  0  0  0  0  0  0  0  0  0  0  0
  151.9024  138.2181  155.9724 H   0  0  0  0  0  0  0  0  0  0  0  0
  150.8117  139.9185  154.5235 H   0  0  0  0  0  0  0  0  0  0  0  0
  151.8685  141.1697  155.1370 H   0  0  0  0  0  0  0  0  0  0  0  0
  144.6725  136.8070  155.6981 H   0  0  0  0  0  0  0  0  0  0  0  0
  1  2  1  0  0  0  0
  1 30  1  0  0  0  0
  1 31  1  0  0  0  0
  1 32  1  0  0  0  0
  2  6  1  0  0  0  0
  2  3  1  0  0  0  0
  2 33  1  0  0  0  0
  3  4  1  0  0  0  0
  4  5  1  0  0  0  0
  4 34  1  0  0  0  0
  4 35  1  0  0  0  0
  5  6  1  0  0  0  0
  5 36  1  0  0  0  0
  5 37  1  0  0  0  0
  6  7  1  0  0  0  0
  6  8  1  0  0  0  0
  7 38  1  0  0  0  0
  8  9  1  0  0  0  0
  8 39  1  0  0  0  0
  8 40  1  0  0  0  0
  9 29  1  0  0  0  0
  9 10  1  0  0  0  0
 10 11  2  0  0  0  0
 10 41  1  0  0  0  0
 11 12  1  0  0  0  0
 12 29  2  0  0  0  0
 12 13  1  0  0  0  0
 13 14  1  0  0  0  0
 13 26  2  0  0  0  0
 14 15  1  0  0  0  0
 14 16  1  0  0  0  0
 15 42  1  0  0  0  0
 15 43  1  0  0  0  0
 15 44  1  0  0  0  0
 16 17  1  0  0  0  0
 16 45  1  0  0  0  0
 16 46  1  0  0  0  0
 17 18  1  0  0  0  0
 17 19  1  0  0  0  0
 17 47  1  0  0  0  0
 18 48  1  0  0  0  0
 19 20  1  0  0  0  0
 19 49  1  0  0  0  0
 19 50  1  0  0  0  0
 20 25  1  0  0  0  0
 20 21  1  0  0  0  0
 21 22  1  0  0  0  0
 21 51  1  0  0  0  0
 21 52  1  0  0  0  0
 22 23  1  0  0  0  0
 22 53  1  0  0  0  0
 22 54  1  0  0  0  0
 23 24  1  0  0  0  0
 24 25  1  0  0  0  0
 24 55  1  0  0  0  0
 24 56  1  0  0  0  0
 25 57  1  0  0  0  0
 25 58  1  0  0  0  0
 26 27  1  0  0  0  0
 27 28  2  0  0  0  0
 27 59  1  0  0  0  0
 28 29  1  0  0  0  0
M  END
> <s_m_source_file>
AV-unprocessed.smi

> <i_m_source_file_index>
153

> <i_lp_mmshare_version>
43012

> <i_f3d_flags>
0

> <s_epik_input>
W0NIMl0xW0NIMl1PW0NAQEhdKFtDSDNdKVtDQEBdMShbT0hdKVtDSDJdbihbY0hdbjIpYyhjMjMpbltjSF1uYzNOKFtDSDNdKVtDSDJdW0NASF0oW09IXSlbQ0gyXU40W0NIMl1bQ0gyXU9bQ0gyXVtDSDJdNA==

> <s_epik_cmdline>
J2VwaWtfcHl0aG9uJywgJy1waCcsICc3LjAnLCAnLXRuJywgJzgnLCAnLW1hJywgJzIwMCcsICctbWV0YWxfYmluZGluZycsICctaW1hZScsICc8aW5maWxlLm1hZT4nLCAnLW9tYWUnLCAnPG91dGZpbGUubWFlPic=

> <r_lp_tautomer_probability>
1

> <r_epik_Ionization_Penalty>
0.424123

> <r_epik_Ionization_Penalty_Charging>
0

> <r_epik_Ionization_Penalty_Neutral>
0.424123

> <r_epik_State_Penalty>
0.421495

> <r_epik_Charging_Adjusted_Penalty>
0.421495

> <i_epik_Tot_Q>
0

> <i_epik_Tot_abs_Q>
0

> <r_epik_Metal_State_Penalty>
0.421223

> <b_epik_Metal_Only>
0

> <s_lp_Force_Field>
OPLS_2005

> <r_lp_Energy>
59.9447

> <b_lp_Chiralities_Consistent>
1

> <s_lp_Variant>
AV-unprocessed.smi:153-16

> <Gold.Version>
5.8.1

> <Gold.Id.Protein>
6NUR|6NUR_protein|mol2

> <Gold.PLP.Fitness>
54.2917

> <Gold.PLP.PLP>
-41.3881

> <Gold.PLP.part.hbond>
-5.0993

> <Gold.PLP.part.metal>
0.0000

> <Gold.PLP.part.buried>
1.6504

> <Gold.PLP.part.nonpolar>
-41.6552

> <Gold.PLP.part.repulsive>
2.3770

> <Gold.PLP.ligand.clash>
0.0000

> <Gold.PLP.ligand.torsion>
1.1768

> <Gold.PLP.Chemscore.Hbond>
3.8876

> <Gold.PLP.Chemscore.CHOScore>
1.0000

> <Gold.PLP.Chemscore.Metal>
0.0000

> <Gold.Chemscore.Hbonds>
donor molecule, donor type, donor heavy atom, donor atom, acceptor molecule, acceptor atom, score
      L1  H     7    38       P1 10957  0.53
      L1  H    18    48       P1  8028  1.00
      P1  H  7954  7966       L1    11  0.93
      P1  H  7997  8008       L1    23  0.78
      L1  C    10    41       P1  7921  0.83

> <Gold.PLP.Chemscore.Internal.Correction>
0.5943

> <Gold.Rescore>
     Score         DG    S(hbond)    S(metal)    S(lipo)     H(rot)  DE(clash)    DE(int)     intcor
      9.47     -19.15       3.28        0.00     100.10       3.52       5.01       4.67       ----

> <Gold.Chemscore.Fitness>
9.4663

> <Gold.Chemscore.DG>
-19.1503

> <Gold.Chemscore.ZeroCoef>
-5.4800

> <Gold.Chemscore.Hbond>
3.2822

> <Gold.Chemscore.Metal>
0.0000

> <Gold.Chemscore.Lipo>
100.0969

> <Gold.Chemscore.Internal_Hbond>
0.0000

> <Gold.Chemscore.DEClash>
5.0104

> <Gold.Chemscore.DEInternal>
4.6736

> <Gold.Chemscore.Rot>
3.5170

> <Gold.Chemscore.Internal.Correction>
   9.000000E+99

> <Gold.Chemscore.Hbonds>
donor molecule, donor type, donor heavy atom, donor atom, acceptor molecule, acceptor atom, score
      L1  H     7    38       P1 10957  0.27
      L1  H    18    48       P1  8028  0.99
      P1  H  7954  7966       L1    11  0.23
      P1  H  7997  8008       L1    23  0.70

> <Gold.Chemscore.Hbond.Weighted>
-10.9625

> <Gold.Chemscore.Metal.Weighted>
-0.0000

> <Gold.Chemscore.Lipo.Weighted>
-11.7113

> <Gold.Chemscore.Internal_Hbond.Weighted>
0.0000

> <Gold.Chemscore.DEClash.Weighted>
5.0104

> <Gold.Chemscore.DEInternal.Weighted>
4.6736

> <Gold.Chemscore.Rot.Weighted>
9.0036

> <Gold.Chemscore.Internal.Correction.Weighted>
   9.000000E+99

> <Gold.Protein.RotatedTorsions>
[ 6907 6896 6895 6894 ] final  -52.67 input  -60.11 | X-H torsion
[ 7974 7965 7964 7962 ] final -154.09 input  175.53 | X-H torsion
[ 8008 7997 7996 7995 ] final  -68.28 input   59.86 | X-H torsion
[ 10167 10162 10161 10158 ] final   78.95 input  -65.29 | X-H torsion
[ 10718 10713 10712 10709 ] final  151.55 input   66.30 | X-H torsion
[ 10763 10752 10751 10750 ] final -179.74 input  -60.55 | X-H torsion
[ 11005 11000 10999 10996 ] final  -68.28 input  -57.11 | X-H torsion

> <Gold.Protein.ActiveResidues>
 VAL166  LYS551  ARG553  GLY616  TRP617  ASP618  TYR619  PRO620  LYS621  CYS622 
 ASP623  PHE694  ASN695  SER759  ASP760  ASP761  ALA762  ILE779  LEU786  VAL792 
 PHE793  MET794  SER795  GLU796  ALA797  LYS798  CYS799  TRP800  GLU811  SER814 

> <Gold.Protein.RotatedAtoms>
  150.8496  134.7817  159.6997 H   0  0  0  0  0  0  0  0  0  0  0  0  # atno 6907 bound_to 6896
  152.4564  134.5278  159.9812 H   0  0  0  0  0  0  0  0  0  0  0  0  # atno 6908 bound_to 6896
  151.5402  133.3396  159.2969 H   0  0  0  0  0  0  0  0  0  0  0  0  # atno 6909 bound_to 6896
  144.7707  140.4435  143.5909 H   0  0  0  0  0  0  0  0  0  0  0  0  # atno 7974 bound_to 7965
  154.4857  140.0876  156.7481 H   0  0  0  0  0  0  0  0  0  0  0  0  # atno 8008 bound_to 7997
  155.4356  140.3451  155.4266 H   0  0  0  0  0  0  0  0  0  0  0  0  # atno 8009 bound_to 7997
  156.1258  140.1487  156.9126 H   0  0  0  0  0  0  0  0  0  0  0  0  # atno 8010 bound_to 7997
  139.9655  144.5931  150.8033 H   0  0  0  0  0  0  0  0  0  0  0  0  # atno 10167 bound_to 10162
  157.2692  131.0813  151.1611 H   0  0  0  0  0  0  0  0  0  0  0  0  # atno 10718 bound_to 10713
  154.5312  135.2800  155.1178 H   0  0  0  0  0  0  0  0  0  0  0  0  # atno 10763 bound_to 10752
  154.2698  135.6306  153.5309 H   0  0  0  0  0  0  0  0  0  0  0  0  # atno 10764 bound_to 10752
  152.9957  135.5625  154.5826 H   0  0  0  0  0  0  0  0  0  0  0  0  # atno 10765 bound_to 10752
  141.1528  133.6737  156.6422 H   0  0  0  0  0  0  0  0  0  0  0  0  # atno 11005 bound_to 11000
  145.6333  139.1539  143.2956 LP  0  0  0  0  0  0  0  0  0  0  0  0  # atno 17320 bound_to 7965
  146.1851  140.6435  142.9171 LP  0  0  0  0  0  0  0  0  0  0  0  0  # atno 17321 bound_to 7965
  140.7539  143.3017  151.3063 LP  0  0  0  0  0  0  0  0  0  0  0  0  # atno 17342 bound_to 10162
  139.6521  144.0343  152.2633 LP  0  0  0  0  0  0  0  0  0  0  0  0  # atno 17343 bound_to 10162
  157.3090  130.6880  149.6205 LP  0  0  0  0  0  0  0  0  0  0  0  0  # atno 17370 bound_to 10713
  155.9663  130.4369  150.5154 LP  0  0  0  0  0  0  0  0  0  0  0  0  # atno 17371 bound_to 10713
  140.3385  134.7869  157.4380 LP  0  0  0  0  0  0  0  0  0  0  0  0  # atno 17394 bound_to 11000
  140.0958  134.5540  155.8400 LP  0  0  0  0  0  0  0  0  0  0  0  0  # atno 17395 bound_to 11000

$$$$
