AV-unprocessed.smi:3287|AV-procd|sdf|12590|dock3
  -GOLD-   2272018513D 1   1.00000     0.00000
 Structure written by MMmdl.
 43 44  0  0  0  0  0  0  0  0  2 V2000
  153.8641  142.1836  160.0360 C   0  0  0  0  0  0  0  0  0  0  0  0
  152.4061  142.1937  159.5429 C   0  0  2  0  0  0  0  0  0  0  0  0
  152.1536  140.9729  158.6351 C   0  0  0  0  0  0  0  0  0  0  0  0
  150.7088  140.9278  158.1198 C   0  0  0  0  0  0  0  0  0  0  0  0
  150.3498  142.2158  157.3635 C   0  0  1  0  0  0  0  0  0  0  0  0
  148.9501  142.1433  156.8896 N   0  3  0  0  0  0  0  0  0  0  0  0
  148.6731  141.0838  155.8955 C   0  0  0  0  0  0  0  0  0  0  0  0
  149.7835  141.0046  154.8331 C   0  0  2  0  0  0  0  0  0  0  0  0
  149.2131  141.2249  153.5576 O   0  0  0  0  0  0  0  0  0  0  0  0
  150.5129  139.6721  154.9019 C   0  0  0  0  0  0  0  0  0  0  0  0
  149.8781  138.4862  154.4771 C   0  0  0  0  0  0  0  0  0  0  0  0
  150.5946  137.2746  154.5507 C   0  0  0  0  0  0  0  0  0  0  0  0
  151.8627  137.1898  155.0065 N   0  0  0  0  0  0  0  0  0  0  0  0
  152.4667  138.3276  155.4101 C   0  0  0  0  0  0  0  0  0  0  0  0
  151.8397  139.5893  155.3773 C   0  0  0  0  0  0  0  0  0  0  0  0
  150.5789  143.4382  158.2746 C   0  0  0  0  0  0  0  0  0  0  0  0
  152.0250  143.5073  158.8100 C   0  0  1  0  0  0  0  0  0  0  0  0
  152.1952  144.7565  159.6935 C   0  0  0  0  0  0  0  0  0  0  0  0
  154.5612  142.3535  159.2151 H   0  0  0  0  0  0  0  0  0  0  0  0
  154.1165  141.2251  160.4906 H   0  0  0  0  0  0  0  0  0  0  0  0
  154.0421  142.9473  160.7925 H   0  0  0  0  0  0  0  0  0  0  0  0
  151.7625  142.0941  160.4184 H   0  0  0  0  0  0  0  0  0  0  0  0
  152.8399  140.9958  157.7873 H   0  0  0  0  0  0  0  0  0  0  0  0
  152.3703  140.0528  159.1794 H   0  0  0  0  0  0  0  0  0  0  0  0
  150.5819  140.0629  157.4673 H   0  0  0  0  0  0  0  0  0  0  0  0
  150.0275  140.7845  158.9599 H   0  0  0  0  0  0  0  0  0  0  0  0
  151.0027  142.2891  156.4919 H   0  0  0  0  0  0  0  0  0  0  0  0
  148.3659  141.9509  157.6909 H   0  0  0  0  0  0  0  0  0  0  0  0
  148.5967  140.1245  156.4077 H   0  0  0  0  0  0  0  0  0  0  0  0
  147.7088  141.2702  155.4199 H   0  0  0  0  0  0  0  0  0  0  0  0
  150.5064  141.8030  155.0078 H   0  0  0  0  0  0  0  0  0  0  0  0
  149.2564  140.4179  153.0666 H   0  0  0  0  0  0  0  0  0  0  0  0
  148.8651  138.4978  154.1023 H   0  0  0  0  0  0  0  0  0  0  0  0
  150.1373  136.3492  154.2335 H   0  0  0  0  0  0  0  0  0  0  0  0
  153.4809  138.2306  155.7683 H   0  0  0  0  0  0  0  0  0  0  0  0
  152.3703  140.4698  155.7096 H   0  0  0  0  0  0  0  0  0  0  0  0
  150.3593  144.3567  157.7301 H   0  0  0  0  0  0  0  0  0  0  0  0
  149.8818  143.4052  159.1132 H   0  0  0  0  0  0  0  0  0  0  0  0
  152.6894  143.6210  157.9518 H   0  0  0  0  0  0  0  0  0  0  0  0
  151.6155  144.6743  160.6134 H   0  0  0  0  0  0  0  0  0  0  0  0
  151.8618  145.6538  159.1716 H   0  0  0  0  0  0  0  0  0  0  0  0
  153.2372  144.9206  159.9666 H   0  0  0  0  0  0  0  0  0  0  0  0
  148.6835  143.0401  156.5093 H   0  0  0  0  0  0  0  0  0  0  0  0
  1  2  1  0  0  0  0
  1 19  1  0  0  0  0
  1 20  1  0  0  0  0
  1 21  1  0  0  0  0
  2 17  1  0  0  0  0
  2  3  1  0  0  0  0
  2 22  1  0  0  0  0
  3  4  1  0  0  0  0
  3 23  1  0  0  0  0
  3 24  1  0  0  0  0
  4  5  1  0  0  0  0
  4 25  1  0  0  0  0
  4 26  1  0  0  0  0
  5  6  1  0  0  0  0
  5 16  1  0  0  0  0
  5 27  1  0  0  0  0
  6  7  1  0  0  0  0
  6 28  1  0  0  0  0
  6 43  1  0  0  0  0
  7  8  1  0  0  0  0
  7 29  1  0  0  0  0
  7 30  1  0  0  0  0
  8  9  1  0  0  0  0
  8 10  1  0  0  0  0
  8 31  1  0  0  0  0
  9 32  1  0  0  0  0
 10 15  1  0  0  0  0
 10 11  2  0  0  0  0
 11 12  1  0  0  0  0
 11 33  1  0  0  0  0
 12 13  2  0  0  0  0
 12 34  1  0  0  0  0
 13 14  1  0  0  0  0
 14 15  2  0  0  0  0
 14 35  1  0  0  0  0
 15 36  1  0  0  0  0
 16 17  1  0  0  0  0
 16 37  1  0  0  0  0
 16 38  1  0  0  0  0
 17 18  1  0  0  0  0
 17 39  1  0  0  0  0
 18 40  1  0  0  0  0
 18 41  1  0  0  0  0
 18 42  1  0  0  0  0
M  CHG  1   6   1
M  END
> <s_m_source_file>
AV-unprocessed.smi

> <i_m_source_file_index>
3287

> <i_lp_mmshare_version>
43012

> <i_f3d_flags>
0

> <s_epik_input>
W0NIM11bQ0BASF0xW0NIMl1bQ0gyXVtDQEhdKFtDSDJdW0NASF0xW0NIM10pW05IXVtDSDJdW0NASF0oW09IXSljMltjSF1bY0hdbltjSF1bY0hdMg==

> <s_epik_cmdline>
J2VwaWtfcHl0aG9uJywgJy1waCcsICc3LjAnLCAnLXRuJywgJzgnLCAnLW1hJywgJzIwMCcsICctbWV0YWxfYmluZGluZycsICctaW1hZScsICc8aW5maWxlLm1hZT4nLCAnLW9tYWUnLCAnPG91dGZpbGUubWFlPic=

> <r_lp_tautomer_probability>
1

> <r_epik_Ionization_Penalty>
0.00537262

> <r_epik_Ionization_Penalty_Charging>
0.00321624

> <r_epik_Ionization_Penalty_Neutral>
0.00215638

> <r_epik_State_Penalty>
-0

> <r_epik_Charging_Adjusted_Penalty>
0.00321624

> <i_epik_Tot_Q>
1

> <i_epik_Tot_abs_Q>
1

> <r_epik_Metal_State_Penalty>
-0

> <b_epik_Metal_Only>
0

> <s_lp_Force_Field>
OPLS_2005

> <r_lp_Energy>
16.0387

> <b_lp_Chiralities_Consistent>
1

> <s_lp_Variant>
AV-unprocessed.smi:3287-1

> <Gold.Version>
5.8.1

> <Gold.Id.Protein>
6NUR|6NUR_protein|mol2

> <Gold.PLP.Fitness>
57.7985

> <Gold.PLP.PLP>
-43.4911

> <Gold.PLP.part.hbond>
-5.0000

> <Gold.PLP.part.metal>
0.0000

> <Gold.PLP.part.buried>
-0.8718

> <Gold.PLP.part.nonpolar>
-37.5192

> <Gold.PLP.part.repulsive>
0.1096

> <Gold.PLP.ligand.clash>
0.0000

> <Gold.PLP.ligand.torsion>
1.0233

> <Gold.PLP.Chemscore.Hbond>
4.5936

> <Gold.PLP.Chemscore.CHOScore>
0.8508

> <Gold.PLP.Chemscore.Metal>
0.0000

> <Gold.Chemscore.Hbonds>
donor molecule, donor type, donor heavy atom, donor atom, acceptor molecule, acceptor atom, score
      L1  H     6    43       P1  8028  2.00
      L1  H     9    32       P1  7957  0.64
      P1  H  8011  8017       L1     9  0.98
      P1  H 10752 10763       L1    13  0.96
      L1  C    12    34       P1  7948  0.59

> <Gold.PLP.Chemscore.Internal.Correction>
0.0209

> <Gold.Rescore>
     Score         DG    S(hbond)    S(metal)    S(lipo)     H(rot)  DE(clash)    DE(int)     intcor
     23.65     -25.16       3.12        0.00     120.95       1.90       0.54       0.97       ----

> <Gold.Chemscore.Fitness>
23.6497

> <Gold.Chemscore.DG>
-25.1639

> <Gold.Chemscore.ZeroCoef>
-5.4800

> <Gold.Chemscore.Hbond>
3.1153

> <Gold.Chemscore.Metal>
0.0000

> <Gold.Chemscore.Lipo>
120.9534

> <Gold.Chemscore.Internal_Hbond>
0.0000

> <Gold.Chemscore.DEClash>
0.5443

> <Gold.Chemscore.DEInternal>
0.9699

> <Gold.Chemscore.Rot>
1.9035

> <Gold.Chemscore.Internal.Correction>
   9.000000E+99

> <Gold.Chemscore.Hbonds>
donor molecule, donor type, donor heavy atom, donor atom, acceptor molecule, acceptor atom, score
      L1  H     6    43       P1  8028  0.90
      L1  H     9    32       P1  7957  0.63
      P1  H  8011  8017       L1     9  0.28
      P1  H 10752 10763       L1    13  0.85

> <Gold.Chemscore.Hbond.Weighted>
-10.4052

> <Gold.Chemscore.Metal.Weighted>
-0.0000

> <Gold.Chemscore.Lipo.Weighted>
-14.1515

> <Gold.Chemscore.Internal_Hbond.Weighted>
0.0000

> <Gold.Chemscore.DEClash.Weighted>
0.5443

> <Gold.Chemscore.DEInternal.Weighted>
0.9699

> <Gold.Chemscore.Rot.Weighted>
4.8729

> <Gold.Chemscore.Internal.Correction.Weighted>
   9.000000E+99

> <Gold.Protein.RotatedTorsions>
[ 6907 6896 6895 6894 ] final  -16.06 input  -60.11 | X-H torsion
[ 7974 7965 7964 7962 ] final  131.47 input  175.53 | X-H torsion
[ 8008 7997 7996 7995 ] final  170.75 input   59.86 | X-H torsion
[ 10167 10162 10161 10158 ] final   99.00 input  -65.29 | X-H torsion
[ 10718 10713 10712 10709 ] final -170.15 input   66.30 | X-H torsion
[ 10763 10752 10751 10750 ] final   50.49 input  -60.55 | X-H torsion
[ 11005 11000 10999 10996 ] final   59.16 input  -57.11 | X-H torsion

> <Gold.Protein.ActiveResidues>
 VAL166  LYS551  ARG553  GLY616  TRP617  ASP618  TYR619  PRO620  LYS621  CYS622 
 ASP623  PHE694  ASN695  SER759  ASP760  ASP761  ALA762  ILE779  LEU786  VAL792 
 PHE793  MET794  SER795  GLU796  ALA797  LYS798  CYS799  TRP800  GLU811  SER814 

> <Gold.Protein.RotatedAtoms>
  151.3144  135.0802  159.9283 H   0  0  0  0  0  0  0  0  0  0  0  0  # atno 6907 bound_to 6896
  152.5271  133.9703  159.7769 H   0  0  0  0  0  0  0  0  0  0  0  0  # atno 6908 bound_to 6896
  151.0013  133.6002  159.2725 H   0  0  0  0  0  0  0  0  0  0  0  0  # atno 6909 bound_to 6896
  145.0070  139.4257  143.5264 H   0  0  0  0  0  0  0  0  0  0  0  0  # atno 7974 bound_to 7965
  156.1336  140.1530  156.9028 H   0  0  0  0  0  0  0  0  0  0  0  0  # atno 8008 bound_to 7997
  154.4929  140.0846  156.7673 H   0  0  0  0  0  0  0  0  0  0  0  0  # atno 8009 bound_to 7997
  155.4210  140.3423  155.4273 H   0  0  0  0  0  0  0  0  0  0  0  0  # atno 8010 bound_to 7997
  139.7657  144.6939  151.0227 H   0  0  0  0  0  0  0  0  0  0  0  0  # atno 10167 bound_to 10162
  156.7220  130.9273  151.3098 H   0  0  0  0  0  0  0  0  0  0  0  0  # atno 10718 bound_to 10713
  152.9784  135.5877  154.4260 H   0  0  0  0  0  0  0  0  0  0  0  0  # atno 10763 bound_to 10752
  154.3879  135.2767  155.2174 H   0  0  0  0  0  0  0  0  0  0  0  0  # atno 10764 bound_to 10752
  154.4059  135.6092  153.5979 H   0  0  0  0  0  0  0  0  0  0  0  0  # atno 10765 bound_to 10752
  140.0324  134.5992  155.9489 H   0  0  0  0  0  0  0  0  0  0  0  0  # atno 11005 bound_to 11000
  146.3463  139.9491  142.8731 LP  0  0  0  0  0  0  0  0  0  0  0  0  # atno 17320 bound_to 7965
  145.2075  140.9881  143.4120 LP  0  0  0  0  0  0  0  0  0  0  0  0  # atno 17321 bound_to 7965
  140.7810  143.4645  151.0231 LP  0  0  0  0  0  0  0  0  0  0  0  0  # atno 17342 bound_to 10162
  139.8330  143.7665  152.3180 LP  0  0  0  0  0  0  0  0  0  0  0  0  # atno 17343 bound_to 10162
  157.6894  130.9218  150.0473 LP  0  0  0  0  0  0  0  0  0  0  0  0  # atno 17370 bound_to 10713
  156.1588  130.3643  149.9330 LP  0  0  0  0  0  0  0  0  0  0  0  0  # atno 17371 bound_to 10713
  141.1838  133.6551  156.5133 LP  0  0  0  0  0  0  0  0  0  0  0  0  # atno 17394 bound_to 11000
  140.4203  134.7193  157.4886 LP  0  0  0  0  0  0  0  0  0  0  0  0  # atno 17395 bound_to 11000

$$$$
