AV-unprocessed.smi:460|AV-procd|sdf|2626|dock2
  -GOLD-   2262023 23D 1   1.00000     0.00000
 Structure written by MMmdl.
 46 48  0  0  0  0  0  0  0  0  1 V2000
  150.7845  137.4006  157.9159 C   0  0  0  0  0  0  0  0  0  0  0  0
  152.0351  137.8237  157.1335 C   0  0  0  0  0  0  0  0  0  0  0  0
  151.8684  137.7148  155.6056 C   0  0  2  0  0  0  0  0  0  0  0  0
  153.0946  138.0442  154.9831 O   0  0  0  0  0  0  0  0  0  0  0  0
  150.7391  138.5773  155.1073 C   0  0  0  0  0  0  0  0  0  0  0  0
  149.7093  138.0581  154.4345 N   0  0  0  0  0  0  0  0  0  0  0  0
  148.9343  139.1647  154.1540 C   0  0  0  0  0  0  0  0  0  0  0  0
  147.7078  139.2731  153.4602 C   0  0  0  0  0  0  0  0  0  0  0  0
  147.0919  140.5303  153.2912 C   0  0  0  0  0  0  0  0  0  0  0  0
  147.6933  141.6944  153.8114 C   0  0  0  0  0  0  0  0  0  0  0  0
  148.9153  141.6082  154.5060 C   0  0  0  0  0  0  0  0  0  0  0  0
  149.5256  140.3500  154.6742 C   0  0  0  0  0  0  0  0  0  0  0  0
  150.6981  139.9238  155.2928 N   0  0  0  0  0  0  0  0  0  0  0  0
  151.6528  140.7784  155.9848 C   0  0  0  0  0  0  0  0  0  0  0  0
  150.9749  141.6626  157.0387 C   0  0  0  0  0  0  0  0  0  0  0  0
  151.9260  141.9740  158.0462 O   0  0  0  0  0  0  0  0  0  0  0  0
  151.8226  143.1869  158.6963 C   0  0  0  0  0  0  0  0  0  0  0  0
  151.2910  144.3570  158.0963 C   0  0  0  0  0  0  0  0  0  0  0  0
  151.2159  145.5605  158.8204 C   0  0  0  0  0  0  0  0  0  0  0  0
  151.6698  145.6096  160.1491 C   0  0  0  0  0  0  0  0  0  0  0  0
  152.1992  144.4556  160.7542 C   0  0  0  0  0  0  0  0  0  0  0  0
  152.2795  143.2364  160.0342 C   0  0  0  0  0  0  0  0  0  0  0  0
  152.7853  142.0676  160.5660 O   0  0  0  0  0  0  0  0  0  0  0  0
  153.3909  142.1182  161.8496 C   0  0  0  0  0  0  0  0  0  0  0  0
  150.9378  137.5291  158.9876 H   0  0  0  0  0  0  0  0  0  0  0  0
  150.5400  136.3528  157.7407 H   0  0  0  0  0  0  0  0  0  0  0  0
  149.9199  138.0006  157.6303 H   0  0  0  0  0  0  0  0  0  0  0  0
  152.2585  138.8583  157.3960 H   0  0  0  0  0  0  0  0  0  0  0  0
  152.8962  137.2392  157.4605 H   0  0  0  0  0  0  0  0  0  0  0  0
  151.6715  136.6747  155.3542 H   0  0  0  0  0  0  0  0  0  0  0  0
  153.7851  137.5582  155.4067 H   0  0  0  0  0  0  0  0  0  0  0  0
  147.2402  138.3867  153.0575 H   0  0  0  0  0  0  0  0  0  0  0  0
  146.1541  140.6018  152.7601 H   0  0  0  0  0  0  0  0  0  0  0  0
  147.2152  142.6539  153.6777 H   0  0  0  0  0  0  0  0  0  0  0  0
  149.3758  142.5001  154.9041 H   0  0  0  0  0  0  0  0  0  0  0  0
  152.4031  140.1486  156.4635 H   0  0  0  0  0  0  0  0  0  0  0  0
  152.1950  141.3807  155.2560 H   0  0  0  0  0  0  0  0  0  0  0  0
  150.6087  142.5796  156.5771 H   0  0  0  0  0  0  0  0  0  0  0  0
  150.1250  141.1333  157.4730 H   0  0  0  0  0  0  0  0  0  0  0  0
  150.9320  144.3591  157.0785 H   0  0  0  0  0  0  0  0  0  0  0  0
  150.8091  146.4465  158.3556 H   0  0  0  0  0  0  0  0  0  0  0  0
  151.6119  146.5336  160.7057 H   0  0  0  0  0  0  0  0  0  0  0  0
  152.5376  144.5326  161.7761 H   0  0  0  0  0  0  0  0  0  0  0  0
  153.7303  141.1203  162.1267 H   0  0  0  0  0  0  0  0  0  0  0  0
  152.6847  142.4487  162.6122 H   0  0  0  0  0  0  0  0  0  0  0  0
  154.2619  142.7749  161.8533 H   0  0  0  0  0  0  0  0  0  0  0  0
  1  2  1  0  0  0  0
  1 25  1  0  0  0  0
  1 26  1  0  0  0  0
  1 27  1  0  0  0  0
  2  3  1  0  0  0  0
  2 28  1  0  0  0  0
  2 29  1  0  0  0  0
  3  4  1  0  0  0  0
  3  5  1  0  0  0  0
  3 30  1  0  0  0  0
  4 31  1  0  0  0  0
  5 13  1  0  0  0  0
  5  6  2  0  0  0  0
  6  7  1  0  0  0  0
  7 12  2  0  0  0  0
  7  8  1  0  0  0  0
  8  9  2  0  0  0  0
  8 32  1  0  0  0  0
  9 10  1  0  0  0  0
  9 33  1  0  0  0  0
 10 11  2  0  0  0  0
 10 34  1  0  0  0  0
 11 12  1  0  0  0  0
 11 35  1  0  0  0  0
 12 13  1  0  0  0  0
 13 14  1  0  0  0  0
 14 15  1  0  0  0  0
 14 36  1  0  0  0  0
 14 37  1  0  0  0  0
 15 16  1  0  0  0  0
 15 38  1  0  0  0  0
 15 39  1  0  0  0  0
 16 17  1  0  0  0  0
 17 22  1  0  0  0  0
 17 18  2  0  0  0  0
 18 19  1  0  0  0  0
 18 40  1  0  0  0  0
 19 20  2  0  0  0  0
 19 41  1  0  0  0  0
 20 21  1  0  0  0  0
 20 42  1  0  0  0  0
 21 22  2  0  0  0  0
 21 43  1  0  0  0  0
 22 23  1  0  0  0  0
 23 24  1  0  0  0  0
 24 44  1  0  0  0  0
 24 45  1  0  0  0  0
 24 46  1  0  0  0  0
M  END
> <s_m_source_file>
AV-unprocessed.smi

> <i_m_source_file_index>
460

> <i_lp_mmshare_version>
43012

> <i_f3d_flags>
0

> <s_epik_input>
W2NIXTFbY0hdW2NIXVtjSF1jKGMxMiluKGMobjIpW0NAQEhdKFtPSF0pW0NIMl1bQ0gzXSlbQ0gyXVtDSDJdT2MzW2NIXVtjSF1bY0hdW2NIXWMzT1tDSDNd

> <s_epik_cmdline>
J2VwaWtfcHl0aG9uJywgJy1waCcsICc3LjAnLCAnLXRuJywgJzgnLCAnLW1hJywgJzIwMCcsICctbWV0YWxfYmluZGluZycsICctaW1hZScsICc8aW5maWxlLm1hZT4nLCAnLW9tYWUnLCAnPG91dGZpbGUubWFlPic=

> <r_lp_tautomer_probability>
1

> <r_epik_Ionization_Penalty>
0.0507825

> <r_epik_Ionization_Penalty_Charging>
0

> <r_epik_Ionization_Penalty_Neutral>
0.0507825

> <r_epik_State_Penalty>
0.0434615

> <r_epik_Charging_Adjusted_Penalty>
0.0434615

> <i_epik_Tot_Q>
0

> <i_epik_Tot_abs_Q>
0

> <r_epik_Metal_State_Penalty>
4.50935e-05

> <b_epik_Metal_Only>
0

> <s_lp_Force_Field>
OPLS_2005

> <r_lp_Energy>
20.8142

> <b_lp_Chiralities_Consistent>
1

> <s_lp_Variant>
AV-unprocessed.smi:460-1

> <Gold.Version>
5.8.1

> <Gold.Id.Protein>
6NUR|6NUR_protein|mol2

> <Gold.PLP.Fitness>
52.5064

> <Gold.PLP.PLP>
-54.0663

> <Gold.PLP.part.hbond>
-1.0000

> <Gold.PLP.part.metal>
0.0000

> <Gold.PLP.part.buried>
-4.3132

> <Gold.PLP.part.nonpolar>
-47.5994

> <Gold.PLP.part.repulsive>
0.2286

> <Gold.PLP.ligand.clash>
0.0000

> <Gold.PLP.ligand.torsion>
0.8614

> <Gold.PLP.Chemscore.Hbond>
0.0000

> <Gold.PLP.Chemscore.CHOScore>
0.0000

> <Gold.PLP.Chemscore.Metal>
0.0000

> <Gold.PLP.Chemscore.Internal.Correction>
0.1629

> <Gold.Rescore>
     Score         DG    S(hbond)    S(metal)    S(lipo)     H(rot)  DE(clash)    DE(int)     intcor
     16.32     -17.43       0.00        0.00     153.78       2.36       0.27       0.84       ----

> <Gold.Chemscore.Fitness>
16.3243

> <Gold.Chemscore.DG>
-17.4336

> <Gold.Chemscore.ZeroCoef>
-5.4800

> <Gold.Chemscore.Hbond>
0.0000

> <Gold.Chemscore.Metal>
0.0000

> <Gold.Chemscore.Lipo>
153.7779

> <Gold.Chemscore.Internal_Hbond>
0.0000

> <Gold.Chemscore.DEClash>
0.2688

> <Gold.Chemscore.DEInternal>
0.8405

> <Gold.Chemscore.Rot>
2.3587

> <Gold.Chemscore.Internal.Correction>
   9.000000E+99

> <Gold.Chemscore.Hbond.Weighted>
-0.0000

> <Gold.Chemscore.Metal.Weighted>
-0.0000

> <Gold.Chemscore.Lipo.Weighted>
-17.9920

> <Gold.Chemscore.Internal_Hbond.Weighted>
0.0000

> <Gold.Chemscore.DEClash.Weighted>
0.2688

> <Gold.Chemscore.DEInternal.Weighted>
0.8405

> <Gold.Chemscore.Rot.Weighted>
6.0384

> <Gold.Chemscore.Internal.Correction.Weighted>
   9.000000E+99

> <Gold.Protein.RotatedTorsions>
[ 6907 6896 6895 6894 ] final   72.68 input  -60.11 | X-H torsion
[ 7974 7965 7964 7962 ] final  135.34 input  175.53 | X-H torsion
[ 8008 7997 7996 7995 ] final  176.42 input   59.86 | X-H torsion
[ 10167 10162 10161 10158 ] final  -60.26 input  -65.29 | X-H torsion
[ 10718 10713 10712 10709 ] final -160.31 input   66.30 | X-H torsion
[ 10763 10752 10751 10750 ] final  -53.29 input  -60.55 | X-H torsion
[ 11005 11000 10999 10996 ] final  -11.07 input  -57.11 | X-H torsion

> <Gold.Protein.ActiveResidues>
 VAL166  LYS551  ARG553  GLY616  TRP617  ASP618  TYR619  PRO620  LYS621  CYS622 
 ASP623  PHE694  ASN695  SER759  ASP760  ASP761  ALA762  ILE779  LEU786  VAL792 
 PHE793  MET794  SER795  GLU796  ALA797  LYS798  CYS799  TRP800  GLU811  SER814 

> <Gold.Protein.RotatedAtoms>
  152.4881  134.4535  159.9581 H   0  0  0  0  0  0  0  0  0  0  0  0  # atno 6907 bound_to 6896
  151.4527  133.3607  159.2805 H   0  0  0  0  0  0  0  0  0  0  0  0  # atno 6908 bound_to 6896
  150.9010  134.8447  159.7420 H   0  0  0  0  0  0  0  0  0  0  0  0  # atno 6909 bound_to 6896
  144.9673  139.4644  143.5450 H   0  0  0  0  0  0  0  0  0  0  0  0  # atno 7974 bound_to 7965
  156.0767  140.1384  156.9763 H   0  0  0  0  0  0  0  0  0  0  0  0  # atno 8008 bound_to 7997
  154.4561  140.0960  156.6812 H   0  0  0  0  0  0  0  0  0  0  0  0  # atno 8009 bound_to 7997
  155.5142  140.3454  155.4396 H   0  0  0  0  0  0  0  0  0  0  0  0  # atno 8010 bound_to 7997
  140.6082  143.2379  151.5770 H   0  0  0  0  0  0  0  0  0  0  0  0  # atno 10167 bound_to 10162
  156.5803  130.8727  151.2863 H   0  0  0  0  0  0  0  0  0  0  0  0  # atno 10718 bound_to 10713
  154.1565  135.6481  153.4976 H   0  0  0  0  0  0  0  0  0  0  0  0  # atno 10763 bound_to 10752
  153.0122  135.5350  154.6754 H   0  0  0  0  0  0  0  0  0  0  0  0  # atno 10764 bound_to 10752
  154.6056  135.2948  155.0459 H   0  0  0  0  0  0  0  0  0  0  0  0  # atno 10765 bound_to 10752
  140.7514  133.8589  155.9048 H   0  0  0  0  0  0  0  0  0  0  0  0  # atno 11005 bound_to 11000
  146.3371  139.8863  142.8816 LP  0  0  0  0  0  0  0  0  0  0  0  0  # atno 17320 bound_to 7965
  145.2610  141.0077  143.3826 LP  0  0  0  0  0  0  0  0  0  0  0  0  # atno 17321 bound_to 7965
  139.5341  144.2831  152.1213 LP  0  0  0  0  0  0  0  0  0  0  0  0  # atno 17342 bound_to 10162
  140.2025  144.4644  150.6424 LP  0  0  0  0  0  0  0  0  0  0  0  0  # atno 17343 bound_to 10162
  157.7328  130.9720  150.1945 LP  0  0  0  0  0  0  0  0  0  0  0  0  # atno 17370 bound_to 10713
  156.2637  130.3714  149.8104 LP  0  0  0  0  0  0  0  0  0  0  0  0  # atno 17371 bound_to 10713
  140.9747  134.1484  157.4546 LP  0  0  0  0  0  0  0  0  0  0  0  0  # atno 17394 bound_to 11000
  139.8787  134.9990  156.5933 LP  0  0  0  0  0  0  0  0  0  0  0  0  # atno 17395 bound_to 11000

$$$$
