AV-unprocessed.smi:2436|AV-procd|sdf|9593|dock3
  -GOLD-   2272013223D 1   1.00000     0.00000
 Structure written by MMmdl.
 36 37  0  0  0  0  0  0  0  0  1 V2000
  152.7430  143.2674  161.4669 C   0  0  0  0  0  0  0  0  0  0  0  0
  152.2107  142.4697  160.2664 C   0  0  0  0  0  0  0  0  0  0  0  0
  151.7965  143.3360  159.0621 C   0  0  0  0  0  0  0  0  0  0  0  0
  151.3361  142.4942  157.9533 N   0  0  0  0  0  0  0  0  0  0  0  0
  151.8245  141.2926  157.6057 C   0  0  0  0  0  0  0  0  0  0  0  0
  152.7448  140.7325  158.2021 O   0  0  0  0  0  0  0  0  0  0  0  0
  151.1787  140.7991  156.5347 N   0  0  0  0  0  0  0  0  0  0  0  0
  151.4015  139.5638  155.8705 C   0  0  0  0  0  0  0  0  0  0  0  0
  152.0845  138.5792  156.6192 C   0  0  0  0  0  0  0  0  0  0  0  0
  152.3286  137.3386  155.9951 C   0  0  0  0  0  0  0  0  0  0  0  0
  152.9948  136.3513  156.6910 O   0  0  0  0  0  0  0  0  0  0  0  0
  153.5704  136.6879  157.9483 C   0  0  0  0  0  0  0  0  0  0  0  0
  151.9215  137.0985  154.7252 N   0  0  0  0  0  0  0  0  0  0  0  0
  151.2836  138.0898  154.1018 C   0  0  0  0  0  0  0  0  0  0  0  0
  151.0058  139.2954  154.6015 N   0  0  0  0  0  0  0  0  0  0  0  0
  150.8450  144.5270  159.3113 C   0  0  0  0  0  0  0  0  0  0  0  0
  152.0803  145.4259  159.4060 C   0  0  0  0  0  0  0  0  0  0  0  0
  152.7987  144.3863  158.5417 C   0  0  0  0  0  0  0  0  0  0  0  0
  152.9762  142.6008  162.2972 H   0  0  0  0  0  0  0  0  0  0  0  0
  152.0091  143.9907  161.8219 H   0  0  0  0  0  0  0  0  0  0  0  0
  153.6558  143.8087  161.2174 H   0  0  0  0  0  0  0  0  0  0  0  0
  152.9637  141.7408  159.9657 H   0  0  0  0  0  0  0  0  0  0  0  0
  151.3599  141.8765  160.6028 H   0  0  0  0  0  0  0  0  0  0  0  0
  150.5789  142.8668  157.3994 H   0  0  0  0  0  0  0  0  0  0  0  0
  150.4418  141.3720  156.1510 H   0  0  0  0  0  0  0  0  0  0  0  0
  152.4125  138.7631  157.6320 H   0  0  0  0  0  0  0  0  0  0  0  0
  154.0497  135.8063  158.3736 H   0  0  0  0  0  0  0  0  0  0  0  0
  152.8123  137.0257  158.6564 H   0  0  0  0  0  0  0  0  0  0  0  0
  154.3329  137.4611  157.8437 H   0  0  0  0  0  0  0  0  0  0  0  0
  150.9596  137.8972  153.0900 H   0  0  0  0  0  0  0  0  0  0  0  0
  150.2142  144.7787  158.4563 H   0  0  0  0  0  0  0  0  0  0  0  0
  150.2618  144.4621  160.2304 H   0  0  0  0  0  0  0  0  0  0  0  0
  151.9678  146.4071  158.9442 H   0  0  0  0  0  0  0  0  0  0  0  0
  152.4846  145.4953  160.4172 H   0  0  0  0  0  0  0  0  0  0  0  0
  153.8388  144.2144  158.8193 H   0  0  0  0  0  0  0  0  0  0  0  0
  152.7027  144.5980  157.4748 H   0  0  0  0  0  0  0  0  0  0  0  0
  1  2  1  0  0  0  0
  1 19  1  0  0  0  0
  1 20  1  0  0  0  0
  1 21  1  0  0  0  0
  2  3  1  0  0  0  0
  2 22  1  0  0  0  0
  2 23  1  0  0  0  0
  3 18  1  0  0  0  0
  3  4  1  0  0  0  0
  3 16  1  0  0  0  0
  4  5  1  0  0  0  0
  4 24  1  0  0  0  0
  5  6  2  0  0  0  0
  5  7  1  0  0  0  0
  7  8  1  0  0  0  0
  7 25  1  0  0  0  0
  8 15  1  0  0  0  0
  8  9  2  0  0  0  0
  9 10  1  0  0  0  0
  9 26  1  0  0  0  0
 10 11  1  0  0  0  0
 10 13  2  0  0  0  0
 11 12  1  0  0  0  0
 12 27  1  0  0  0  0
 12 28  1  0  0  0  0
 12 29  1  0  0  0  0
 13 14  1  0  0  0  0
 14 15  2  0  0  0  0
 14 30  1  0  0  0  0
 16 17  1  0  0  0  0
 16 31  1  0  0  0  0
 16 32  1  0  0  0  0
 17 18  1  0  0  0  0
 17 33  1  0  0  0  0
 17 34  1  0  0  0  0
 18 35  1  0  0  0  0
 18 36  1  0  0  0  0
M  END
> <s_m_source_file>
AV-unprocessed.smi

> <i_m_source_file_index>
2436

> <i_lp_mmshare_version>
43012

> <i_f3d_flags>
0

> <s_epik_input>
W0NIMl0xW0NIMl1bQ0gyXUMxKFtDSDJdW0NIM10pW05IXUMoPU8pW05IXWMyW2NIXWMoT1tDSDNdKW5bY0hdbjI=

> <s_epik_cmdline>
J2VwaWtfcHl0aG9uJywgJy1waCcsICc3LjAnLCAnLXRuJywgJzgnLCAnLW1hJywgJzIwMCcsICctbWV0YWxfYmluZGluZycsICctaW1hZScsICc8aW5maWxlLm1hZT4nLCAnLW9tYWUnLCAnPG91dGZpbGUubWFlPic=

> <r_lp_tautomer_probability>
1

> <r_epik_Ionization_Penalty>
2.8431e-05

> <r_epik_Ionization_Penalty_Charging>
0

> <r_epik_Ionization_Penalty_Neutral>
2.8431e-05

> <r_epik_State_Penalty>
-0

> <r_epik_Charging_Adjusted_Penalty>
0

> <i_epik_Tot_Q>
0

> <i_epik_Tot_abs_Q>
0

> <r_epik_Metal_State_Penalty>
-0

> <b_epik_Metal_Only>
0

> <s_lp_Force_Field>
OPLS_2005

> <r_lp_Energy>
14.8333

> <b_lp_Chiralities_Consistent>
1

> <s_lp_Variant>
AV-unprocessed.smi:2436-1

> <Gold.Version>
5.8.1

> <Gold.Id.Protein>
6NUR|6NUR_protein|mol2

> <Gold.PLP.Fitness>
46.3296

> <Gold.PLP.PLP>
-35.7743

> <Gold.PLP.part.hbond>
-3.7910

> <Gold.PLP.part.metal>
0.0000

> <Gold.PLP.part.buried>
-4.5641

> <Gold.PLP.part.nonpolar>
-27.5259

> <Gold.PLP.part.repulsive>
0.3788

> <Gold.PLP.ligand.clash>
0.0736

> <Gold.PLP.ligand.torsion>
0.5861

> <Gold.PLP.Chemscore.Hbond>
2.7109

> <Gold.PLP.Chemscore.CHOScore>
1.0783

> <Gold.PLP.Chemscore.Metal>
0.0000

> <Gold.Chemscore.Hbonds>
donor molecule, donor type, donor heavy atom, donor atom, acceptor molecule, acceptor atom, score
      P1  H  7989  7998       L1    15  1.00
      P1  H  7997  8010       L1     6  0.28
      P1  H 10752 10763       L1    13  0.46
      P1  H 10752 10764       L1    11  0.96
      L1  C    14    30       P1  7948  0.07
      L1  C    14    30       P1  7949  1.00

> <Gold.PLP.Chemscore.Internal.Correction>
0.4336

> <Gold.Rescore>
     Score         DG    S(hbond)    S(metal)    S(lipo)     H(rot)  DE(clash)    DE(int)     intcor
     11.58     -15.87       1.49        0.00      80.75       1.57       0.30       3.99       ----

> <Gold.Chemscore.Fitness>
11.5776

> <Gold.Chemscore.DG>
-15.8746

> <Gold.Chemscore.ZeroCoef>
-5.4800

> <Gold.Chemscore.Hbond>
1.4893

> <Gold.Chemscore.Metal>
0.0000

> <Gold.Chemscore.Lipo>
80.7507

> <Gold.Chemscore.Internal_Hbond>
0.0000

> <Gold.Chemscore.DEClash>
0.3043

> <Gold.Chemscore.DEInternal>
3.9927

> <Gold.Chemscore.Rot>
1.5732

> <Gold.Chemscore.Internal.Correction>
   9.000000E+99

> <Gold.Chemscore.Hbonds>
donor molecule, donor type, donor heavy atom, donor atom, acceptor molecule, acceptor atom, score
      P1  H  7989  7998       L1    15  0.47
      P1  H  7997  8010       L1     6  0.26
      P1  H 10752 10763       L1    13  0.33
      P1  H 10752 10764       L1    11  0.37

> <Gold.Chemscore.Hbond.Weighted>
-4.9742

> <Gold.Chemscore.Metal.Weighted>
-0.0000

> <Gold.Chemscore.Lipo.Weighted>
-9.4478

> <Gold.Chemscore.Internal_Hbond.Weighted>
0.0000

> <Gold.Chemscore.DEClash.Weighted>
0.3043

> <Gold.Chemscore.DEInternal.Weighted>
3.9927

> <Gold.Chemscore.Rot.Weighted>
4.0274

> <Gold.Chemscore.Internal.Correction.Weighted>
   9.000000E+99

> <Gold.Protein.RotatedTorsions>
[ 6907 6896 6895 6894 ] final   95.61 input  -60.11 | X-H torsion
[ 7974 7965 7964 7962 ] final -119.55 input  175.53 | X-H torsion
[ 8008 7997 7996 7995 ] final   42.25 input   59.86 | X-H torsion
[ 10167 10162 10161 10158 ] final -142.88 input  -65.29 | X-H torsion
[ 10718 10713 10712 10709 ] final   31.33 input   66.30 | X-H torsion
[ 10763 10752 10751 10750 ] final   11.59 input  -60.55 | X-H torsion
[ 11005 11000 10999 10996 ] final   83.56 input  -57.11 | X-H torsion

> <Gold.Protein.ActiveResidues>
 VAL166  LYS551  ARG553  GLY616  TRP617  ASP618  TYR619  PRO620  LYS621  CYS622 
 ASP623  PHE694  ASN695  SER759  ASP760  ASP761  ALA762  ILE779  LEU786  VAL792 
 PHE793  MET794  SER795  GLU796  ALA797  LYS798  CYS799  TRP800  GLU811  SER814 

> <Gold.Protein.RotatedAtoms>
  152.5442  134.1013  159.8318 H   0  0  0  0  0  0  0  0  0  0  0  0  # atno 6907 bound_to 6896
  151.1090  133.5179  159.2614 H   0  0  0  0  0  0  0  0  0  0  0  0  # atno 6908 bound_to 6896
  151.1905  135.0410  159.8885 H   0  0  0  0  0  0  0  0  0  0  0  0  # atno 6909 bound_to 6896
  145.0612  140.8291  143.4151 H   0  0  0  0  0  0  0  0  0  0  0  0  # atno 7974 bound_to 7965
  155.2831  140.3374  155.4257 H   0  0  0  0  0  0  0  0  0  0  0  0  # atno 8008 bound_to 7997
  156.2081  140.1759  156.7797 H   0  0  0  0  0  0  0  0  0  0  0  0  # atno 8009 bound_to 7997
  154.5648  140.0681  156.8859 H   0  0  0  0  0  0  0  0  0  0  0  0  # atno 8010 bound_to 7997
  139.8046  143.7786  152.2660 H   0  0  0  0  0  0  0  0  0  0  0  0  # atno 10167 bound_to 10162
  157.2711  130.7208  149.6505 H   0  0  0  0  0  0  0  0  0  0  0  0  # atno 10718 bound_to 10713
  153.1910  135.6842  153.8353 H   0  0  0  0  0  0  0  0  0  0  0  0  # atno 10763 bound_to 10752
  153.7652  135.3204  155.3344 H   0  0  0  0  0  0  0  0  0  0  0  0  # atno 10764 bound_to 10752
  154.8117  135.4713  154.0632 H   0  0  0  0  0  0  0  0  0  0  0  0  # atno 10765 bound_to 10752
  139.9027  134.8153  156.2325 H   0  0  0  0  0  0  0  0  0  0  0  0  # atno 11005 bound_to 11000
  145.1406  139.2574  143.5492 LP  0  0  0  0  0  0  0  0  0  0  0  0  # atno 17320 bound_to 7965
  146.3524  140.1082  142.8605 LP  0  0  0  0  0  0  0  0  0  0  0  0  # atno 17321 bound_to 7965
  139.7916  144.7408  150.9947 LP  0  0  0  0  0  0  0  0  0  0  0  0  # atno 17342 bound_to 10162
  140.7819  143.4436  151.0515 LP  0  0  0  0  0  0  0  0  0  0  0  0  # atno 17343 bound_to 10162
  155.9663  130.4367  150.5146 LP  0  0  0  0  0  0  0  0  0  0  0  0  # atno 17370 bound_to 10713
  157.3070  131.0656  151.2028 LP  0  0  0  0  0  0  0  0  0  0  0  0  # atno 17371 bound_to 10713
  141.0336  133.6975  156.1473 LP  0  0  0  0  0  0  0  0  0  0  0  0  # atno 17394 bound_to 11000
  140.7060  134.4513  157.5584 LP  0  0  0  0  0  0  0  0  0  0  0  0  # atno 17395 bound_to 11000

$$$$
