AV-unprocessed.smi:1815|AV-procd|sdf|7354|dock2
  -GOLD-   22720 9 13D 1   1.00000     0.00000
 Structure written by MMmdl.
 40 41  0  0  0  0  0  0  0  0  2 V2000
  149.2627  141.4558  154.5484 C   0  0  0  0  0  0  0  0  0  0  0  0
  149.6930  140.0279  154.9008 C   0  0  1  0  0  0  0  0  0  0  0  0
  148.9387  138.9721  154.0674 C   0  0  0  0  0  0  0  0  0  0  0  0
  149.4261  137.6029  154.3648 N   0  3  2  0  0  0  0  0  0  0  0  0
  148.9081  137.0521  155.6454 C   0  0  0  0  0  0  0  0  0  0  0  0
  148.4054  135.6027  155.5007 C   0  0  0  0  0  0  0  0  0  0  0  0
  147.9770  135.3199  154.1352 N   0  0  0  0  0  0  0  0  0  0  0  0
  146.9349  134.5428  153.8054 C   0  0  0  0  0  0  0  0  0  0  0  0
  146.2231  133.9800  154.6379 O   0  0  0  0  0  0  0  0  0  0  0  0
  146.7869  134.4615  152.4715 N   0  0  0  0  0  0  0  0  0  0  0  0
  145.8118  133.7328  151.7401 C   0  0  0  0  0  0  0  0  0  0  0  0
  144.8211  134.2936  151.0366 N   0  0  0  0  0  0  0  0  0  0  0  0
  144.0099  133.3380  150.4192 C   0  0  0  0  0  0  0  0  0  0  0  0
  144.4001  132.0451  150.6656 C   0  0  0  0  0  0  0  0  0  0  0  0
  145.8114  131.9761  151.6869 S   0  0  0  0  0  0  0  0  0  0  0  0
  150.9013  137.5339  154.2049 C   0  0  0  0  0  0  0  0  0  0  0  0
  151.6158  138.6407  155.0106 C   0  0  1  0  0  0  0  0  0  0  0  0
  153.1251  138.6596  154.7445 C   0  0  0  0  0  0  0  0  0  0  0  0
  151.0873  139.9094  154.6388 O   0  0  0  0  0  0  0  0  0  0  0  0
  148.1979  141.6019  154.7316 H   0  0  0  0  0  0  0  0  0  0  0  0
  149.4562  141.6799  153.4989 H   0  0  0  0  0  0  0  0  0  0  0  0
  149.8058  142.1855  155.1495 H   0  0  0  0  0  0  0  0  0  0  0  0
  149.5102  139.8675  155.9646 H   0  0  0  0  0  0  0  0  0  0  0  0
  147.8627  139.0403  154.2323 H   0  0  0  0  0  0  0  0  0  0  0  0
  149.0964  139.1665  153.0054 H   0  0  0  0  0  0  0  0  0  0  0  0
  149.6633  137.1183  156.4285 H   0  0  0  0  0  0  0  0  0  0  0  0
  148.0732  137.6710  155.9763 H   0  0  0  0  0  0  0  0  0  0  0  0
  149.1811  134.8962  155.8017 H   0  0  0  0  0  0  0  0  0  0  0  0
  147.5507  135.4205  156.1509 H   0  0  0  0  0  0  0  0  0  0  0  0
  148.5087  135.7472  153.3907 H   0  0  0  0  0  0  0  0  0  0  0  0
  147.4524  134.9742  151.9121 H   0  0  0  0  0  0  0  0  0  0  0  0
  143.1733  133.6670  149.8206 H   0  0  0  0  0  0  0  0  0  0  0  0
  143.9446  131.1332  150.3092 H   0  0  0  0  0  0  0  0  0  0  0  0
  151.2814  136.5507  154.4792 H   0  0  0  0  0  0  0  0  0  0  0  0
  151.1272  137.6582  153.1447 H   0  0  0  0  0  0  0  0  0  0  0  0
  151.4621  138.4895  156.0798 H   0  0  0  0  0  0  0  0  0  0  0  0
  153.5848  137.7108  155.0223 H   0  0  0  0  0  0  0  0  0  0  0  0
  153.6130  139.4460  155.3209 H   0  0  0  0  0  0  0  0  0  0  0  0
  153.3382  138.8386  153.6902 H   0  0  0  0  0  0  0  0  0  0  0  0
  149.0301  137.0110  153.6482 H   0  0  0  0  0  0  0  0  0  0  0  0
  1  2  1  0  0  0  0
  1 20  1  0  0  0  0
  1 21  1  0  0  0  0
  1 22  1  0  0  0  0
  2 19  1  0  0  0  0
  2  3  1  0  0  0  0
  2 23  1  0  0  0  0
  3  4  1  0  0  0  0
  3 24  1  0  0  0  0
  3 25  1  0  0  0  0
  4  5  1  0  0  0  0
  4 16  1  0  0  0  0
  4 40  1  0  0  0  0
  5  6  1  0  0  0  0
  5 26  1  0  0  0  0
  5 27  1  0  0  0  0
  6  7  1  0  0  0  0
  6 28  1  0  0  0  0
  6 29  1  0  0  0  0
  7  8  1  0  0  0  0
  7 30  1  0  0  0  0
  8  9  2  0  0  0  0
  8 10  1  0  0  0  0
 10 11  1  0  0  0  0
 10 31  1  0  0  0  0
 11 15  1  0  0  0  0
 11 12  2  0  0  0  0
 12 13  1  0  0  0  0
 13 14  2  0  0  0  0
 13 32  1  0  0  0  0
 14 15  1  0  0  0  0
 14 33  1  0  0  0  0
 16 17  1  0  0  0  0
 16 34  1  0  0  0  0
 16 35  1  0  0  0  0
 17 18  1  0  0  0  0
 17 19  1  0  0  0  0
 17 36  1  0  0  0  0
 18 37  1  0  0  0  0
 18 38  1  0  0  0  0
 18 39  1  0  0  0  0
M  CHG  1   4   1
M  END
> <s_m_source_file>
AV-unprocessed.smi

> <i_m_source_file_index>
1815

> <i_lp_mmshare_version>
43012

> <i_f3d_flags>
0

> <s_epik_input>
W0NIM11bQ0BASF0xW0NIMl1OKFtDSDJdW0NASF0oTzEpW0NIM10pW0NIMl1bQ0gyXVtOSF1DKD1PKVtOSF1jMm5bY0hdW2NIXXMy

> <s_epik_cmdline>
J2VwaWtfcHl0aG9uJywgJy1waCcsICc3LjAnLCAnLXRuJywgJzgnLCAnLW1hJywgJzIwMCcsICctbWV0YWxfYmluZGluZycsICctaW1hZScsICc8aW5maWxlLm1hZT4nLCAnLW9tYWUnLCAnPG91dGZpbGUubWFlPic=

> <r_lp_tautomer_probability>
0.999

> <r_epik_Ionization_Penalty>
0.695838

> <r_epik_Ionization_Penalty_Charging>
0.695697

> <r_epik_Ionization_Penalty_Neutral>
0.000141198

> <r_epik_State_Penalty>
0.717972

> <r_epik_Charging_Adjusted_Penalty>
1.41367

> <i_epik_Tot_Q>
1

> <i_epik_Tot_abs_Q>
1

> <r_epik_Metal_State_Penalty>
0.756405

> <b_epik_Metal_Only>
0

> <s_lp_Force_Field>
OPLS_2005

> <r_lp_Energy>
15.0409

> <b_lp_Chiralities_Consistent>
1

> <s_lp_Variant>
AV-unprocessed.smi:1815-5

> <Gold.Version>
5.8.1

> <Gold.Id.Protein>
6NUR|6NUR_protein|mol2

> <Gold.PLP.Fitness>
48.3054

> <Gold.PLP.PLP>
-33.5939

> <Gold.PLP.part.hbond>
-4.0000

> <Gold.PLP.part.metal>
0.0000

> <Gold.PLP.part.buried>
-3.4159

> <Gold.PLP.part.nonpolar>
-26.6802

> <Gold.PLP.part.repulsive>
0.3005

> <Gold.PLP.ligand.clash>
0.0000

> <Gold.PLP.ligand.torsion>
1.6323

> <Gold.PLP.Chemscore.Hbond>
4.9760

> <Gold.PLP.Chemscore.CHOScore>
1.0000

> <Gold.PLP.Chemscore.Metal>
0.0000

> <Gold.Chemscore.Hbonds>
donor molecule, donor type, donor heavy atom, donor atom, acceptor molecule, acceptor atom, score
      L1  H     4    40       P1  7948  2.00
      L1  H     7    30       P1  7948  1.00
      L1  H    10    31       P1  7948  0.99
      P1  H  7989  7998       L1    19  1.00
      L1  C    13    32       P1 10186  1.00

> <Gold.PLP.Chemscore.Internal.Correction>
0.0481

> <Gold.Rescore>
     Score         DG    S(hbond)    S(metal)    S(lipo)     H(rot)  DE(clash)    DE(int)     intcor
     20.75     -22.47       3.75        0.00      74.03       1.64       0.14       1.58       ----

> <Gold.Chemscore.Fitness>
20.7480

> <Gold.Chemscore.DG>
-22.4723

> <Gold.Chemscore.ZeroCoef>
-5.4800

> <Gold.Chemscore.Hbond>
3.7502

> <Gold.Chemscore.Metal>
0.0000

> <Gold.Chemscore.Lipo>
74.0267

> <Gold.Chemscore.Internal_Hbond>
0.0000

> <Gold.Chemscore.DEClash>
0.1412

> <Gold.Chemscore.DEInternal>
1.5831

> <Gold.Chemscore.Rot>
1.6385

> <Gold.Chemscore.Internal.Correction>
   9.000000E+99

> <Gold.Chemscore.Hbonds>
donor molecule, donor type, donor heavy atom, donor atom, acceptor molecule, acceptor atom, score
      L1  H     4    40       P1  7948  0.96
      L1  H     7    30       P1  7948  0.99
      L1  H    10    31       P1  7948  0.82
      P1  H  7989  7998       L1    19  0.89

> <Gold.Chemscore.Hbond.Weighted>
-12.5256

> <Gold.Chemscore.Metal.Weighted>
-0.0000

> <Gold.Chemscore.Lipo.Weighted>
-8.6611

> <Gold.Chemscore.Internal_Hbond.Weighted>
0.0000

> <Gold.Chemscore.DEClash.Weighted>
0.1412

> <Gold.Chemscore.DEInternal.Weighted>
1.5831

> <Gold.Chemscore.Rot.Weighted>
4.1945

> <Gold.Chemscore.Internal.Correction.Weighted>
   9.000000E+99

> <Gold.Protein.RotatedTorsions>
[ 6907 6896 6895 6894 ] final  -23.18 input  -60.11 | X-H torsion
[ 7974 7965 7964 7962 ] final   55.63 input  175.53 | X-H torsion
[ 8008 7997 7996 7995 ] final  -51.80 input   59.86 | X-H torsion
[ 10167 10162 10161 10158 ] final  168.94 input  -65.29 | X-H torsion
[ 10718 10713 10712 10709 ] final -176.13 input   66.30 | X-H torsion
[ 10763 10752 10751 10750 ] final  -26.11 input  -60.55 | X-H torsion
[ 11005 11000 10999 10996 ] final   99.69 input  -57.11 | X-H torsion

> <Gold.Protein.ActiveResidues>
 VAL166  LYS551  ARG553  GLY616  TRP617  ASP618  TYR619  PRO620  LYS621  CYS622 
 ASP623  PHE694  ASN695  SER759  ASP760  ASP761  ALA762  ILE779  LEU786  VAL792 
 PHE793  MET794  SER795  GLU796  ALA797  LYS798  CYS799  TRP800  GLU811  SER814 

> <Gold.Protein.RotatedAtoms>
  151.2077  135.0468  159.8898 H   0  0  0  0  0  0  0  0  0  0  0  0  # atno 6907 bound_to 6896
  152.5427  134.0779  159.8233 H   0  0  0  0  0  0  0  0  0  0  0  0  # atno 6908 bound_to 6896
  151.0928  133.5255  159.2646 H   0  0  0  0  0  0  0  0  0  0  0  0  # atno 6909 bound_to 6896
  145.9484  139.3950  143.0321 H   0  0  0  0  0  0  0  0  0  0  0  0  # atno 7974 bound_to 7965
  154.4091  140.1239  156.4888 H   0  0  0  0  0  0  0  0  0  0  0  0  # atno 8008 bound_to 7997
  155.7011  140.3494  155.4914 H   0  0  0  0  0  0  0  0  0  0  0  0  # atno 8009 bound_to 7997
  155.9384  140.1082  157.1065 H   0  0  0  0  0  0  0  0  0  0  0  0  # atno 8010 bound_to 7997
  139.4980  144.3760  151.9673 H   0  0  0  0  0  0  0  0  0  0  0  0  # atno 10167 bound_to 10162
  156.8101  130.9583  151.3116 H   0  0  0  0  0  0  0  0  0  0  0  0  # atno 10718 bound_to 10713
  153.7107  135.6951  153.5038 H   0  0  0  0  0  0  0  0  0  0  0  0  # atno 10763 bound_to 10752
  153.2275  135.4349  155.0557 H   0  0  0  0  0  0  0  0  0  0  0  0  # atno 10764 bound_to 10752
  154.8315  135.3476  154.6644 H   0  0  0  0  0  0  0  0  0  0  0  0  # atno 10765 bound_to 10752
  139.8770  134.9107  156.4643 H   0  0  0  0  0  0  0  0  0  0  0  0  # atno 11005 bound_to 11000
  145.8205  140.9681  143.0901 LP  0  0  0  0  0  0  0  0  0  0  0  0  # atno 17320 bound_to 7965
  144.6791  140.0036  143.7484 LP  0  0  0  0  0  0  0  0  0  0  0  0  # atno 17321 bound_to 7965
  140.3197  144.3443  150.6013 LP  0  0  0  0  0  0  0  0  0  0  0  0  # atno 17342 bound_to 10162
  140.5733  143.2179  151.7560 LP  0  0  0  0  0  0  0  0  0  0  0  0  # atno 17343 bound_to 10162
  157.6510  130.8884  149.9633 LP  0  0  0  0  0  0  0  0  0  0  0  0  # atno 17370 bound_to 10713
  156.1050  130.3653  150.0150 LP  0  0  0  0  0  0  0  0  0  0  0  0  # atno 17371 bound_to 10713
  140.8841  133.7896  155.9499 LP  0  0  0  0  0  0  0  0  0  0  0  0  # atno 17394 bound_to 11000
  140.8823  134.2597  157.5138 LP  0  0  0  0  0  0  0  0  0  0  0  0  # atno 17395 bound_to 11000

$$$$
