AV-unprocessed.smi:1748|AV-procd|sdf|7036|dock8
  -GOLD-   22720 8253D 1   1.00000     0.00000
 Structure written by MMmdl.
 40 41  0  0  0  0  0  0  0  0  2 V2000
  144.6545  134.4999  153.7116 C   0  0  0  0  0  0  0  0  0  0  0  0
  144.3650  133.3229  152.8647 N   0  3  1  0  0  0  0  0  0  0  0  0
  143.7121  133.6936  151.5842 C   0  0  0  0  0  0  0  0  0  0  0  0
  143.3093  132.4409  150.7884 C   0  0  0  0  0  0  0  0  0  0  0  0
  144.5188  131.5262  150.5491 C   0  0  0  0  0  0  0  0  0  0  0  0
  145.1961  131.1827  151.8859 C   0  0  1  0  0  0  0  0  0  0  0  0
  146.3817  130.3656  151.6462 N   0  0  0  0  0  0  0  0  0  0  0  0
  146.6819  129.2322  152.2962 C   0  0  0  0  0  0  0  0  0  0  0  0
  145.9771  128.7633  153.1896 O   0  0  0  0  0  0  0  0  0  0  0  0
  147.8428  128.7167  151.8526 N   0  0  0  0  0  0  0  0  0  0  0  0
  148.4978  127.5357  152.2411 C   0  0  0  0  0  0  0  0  0  0  0  0
  148.4001  126.3440  151.5953 C   0  0  0  0  0  0  0  0  0  0  0  0
  149.1174  125.1621  152.0448 C   0  0  0  0  0  0  0  0  0  0  0  0
  149.0506  123.8469  151.2836 C   0  0  0  0  0  0  0  0  0  0  0  0
  150.2530  123.4960  150.8253 F   0  0  0  0  0  0  0  0  0  0  0  0
  148.6158  122.8791  152.0892 F   0  0  0  0  0  0  0  0  0  0  0  0
  148.2165  123.9312  150.2469 F   0  0  0  0  0  0  0  0  0  0  0  0
  149.9102  125.3146  153.1214 C   0  0  0  0  0  0  0  0  0  0  0  0
  150.0149  126.5353  153.7919 N   0  0  0  0  0  0  0  0  0  0  0  0
  149.3644  127.6620  153.4247 C   0  0  0  0  0  0  0  0  0  0  0  0
  149.5139  128.7024  154.0647 O   0  0  0  0  0  0  0  0  0  0  0  0
  145.5620  132.4720  152.6520 C   0  0  0  0  0  0  0  0  0  0  0  0
  150.6235  126.5660  154.5973 H   0  0  0  0  0  0  0  0  0  0  0  0
  145.3717  135.1640  153.2274 H   0  0  0  0  0  0  0  0  0  0  0  0
  145.0683  134.1909  154.6720 H   0  0  0  0  0  0  0  0  0  0  0  0
  143.7434  135.0654  153.9097 H   0  0  0  0  0  0  0  0  0  0  0  0
  142.8259  134.2965  151.7865 H   0  0  0  0  0  0  0  0  0  0  0  0
  144.3894  134.3127  150.9938 H   0  0  0  0  0  0  0  0  0  0  0  0
  142.5385  131.8932  151.3326 H   0  0  0  0  0  0  0  0  0  0  0  0
  142.8674  132.7308  149.8348 H   0  0  0  0  0  0  0  0  0  0  0  0
  144.2014  130.6155  150.0393 H   0  0  0  0  0  0  0  0  0  0  0  0
  145.2282  132.0249  149.8868 H   0  0  0  0  0  0  0  0  0  0  0  0
  144.4894  130.6042  152.4847 H   0  0  0  0  0  0  0  0  0  0  0  0
  147.0169  130.6830  150.9281 H   0  0  0  0  0  0  0  0  0  0  0  0
  148.3407  129.2609  151.1629 H   0  0  0  0  0  0  0  0  0  0  0  0
  147.7933  126.2408  150.7109 H   0  0  0  0  0  0  0  0  0  0  0  0
  150.5195  124.5289  153.5435 H   0  0  0  0  0  0  0  0  0  0  0  0
  146.3192  133.0380  152.1063 H   0  0  0  0  0  0  0  0  0  0  0  0
  145.9939  132.2181  153.6212 H   0  0  0  0  0  0  0  0  0  0  0  0
  143.6999  132.7596  153.3754 H   0  0  0  0  0  0  0  0  0  0  0  0
  1  2  1  0  0  0  0
  1 24  1  0  0  0  0
  1 25  1  0  0  0  0
  1 26  1  0  0  0  0
  2 22  1  0  0  0  0
  2  3  1  0  0  0  0
  2 40  1  0  0  0  0
  3  4  1  0  0  0  0
  3 27  1  0  0  0  0
  3 28  1  0  0  0  0
  4  5  1  0  0  0  0
  4 29  1  0  0  0  0
  4 30  1  0  0  0  0
  5  6  1  0  0  0  0
  5 31  1  0  0  0  0
  5 32  1  0  0  0  0
  6  7  1  0  0  0  0
  6 22  1  0  0  0  0
  6 33  1  0  0  0  0
  7  8  1  0  0  0  0
  7 34  1  0  0  0  0
  8  9  2  0  0  0  0
  8 10  1  0  0  0  0
 10 11  1  0  0  0  0
 10 35  1  0  0  0  0
 11 20  1  0  0  0  0
 11 12  2  0  0  0  0
 12 13  1  0  0  0  0
 12 36  1  0  0  0  0
 13 14  1  0  0  0  0
 13 18  2  0  0  0  0
 14 15  1  0  0  0  0
 14 16  1  0  0  0  0
 14 17  1  0  0  0  0
 18 19  1  0  0  0  0
 18 37  1  0  0  0  0
 19 23  1  0  0  0  0
 19 20  1  0  0  0  0
 20 21  2  0  0  0  0
 22 38  1  0  0  0  0
 22 39  1  0  0  0  0
M  CHG  1   2   1
M  END
> <s_m_source_file>
AV-unprocessed.smi

> <i_m_source_file_index>
1748

> <i_lp_mmshare_version>
43012

> <i_f3d_flags>
0

> <s_epik_input>
W0NIM11OMVtDSDJdW0NIMl1bQ0gyXVtDQEhdKFtDSDJdMSlbTkhdQyg9TylbTkhdYzJbY0hdYyhDKEYpKEYpRilbY0hdW25IXWMyPU8=

> <s_epik_cmdline>
J2VwaWtfcHl0aG9uJywgJy1waCcsICc3LjAnLCAnLXRuJywgJzgnLCAnLW1hJywgJzIwMCcsICctbWV0YWxfYmluZGluZycsICctaW1hZScsICc8aW5maWxlLm1hZT4nLCAnLW9tYWUnLCAnPG91dGZpbGUubWFlPic=

> <r_lp_tautomer_probability>
1

> <r_epik_Ionization_Penalty>
0.00746315

> <r_epik_Ionization_Penalty_Charging>
0.00744398

> <r_epik_Ionization_Penalty_Neutral>
1.91704e-05

> <r_epik_State_Penalty>
-0

> <r_epik_Charging_Adjusted_Penalty>
0.00744398

> <i_epik_Tot_Q>
1

> <i_epik_Tot_abs_Q>
1

> <r_epik_Metal_State_Penalty>
0.379332

> <b_epik_Metal_Only>
0

> <s_lp_Force_Field>
OPLS_2005

> <r_lp_Energy>
25.304

> <b_lp_Chiralities_Consistent>
1

> <s_lp_Variant>
AV-unprocessed.smi:1748-1

> <Gold.Version>
5.8.1

> <Gold.Id.Protein>
6NUR|6NUR_protein|mol2

> <Gold.PLP.Fitness>
48.4261

> <Gold.PLP.PLP>
-38.8874

> <Gold.PLP.part.hbond>
-3.0000

> <Gold.PLP.part.metal>
0.0000

> <Gold.PLP.part.buried>
-8.2219

> <Gold.PLP.part.nonpolar>
-29.0974

> <Gold.PLP.part.repulsive>
0.3952

> <Gold.PLP.ligand.clash>
0.0000

> <Gold.PLP.ligand.torsion>
0.9107

> <Gold.PLP.Chemscore.Hbond>
3.7760

> <Gold.PLP.Chemscore.CHOScore>
0.0000

> <Gold.PLP.Chemscore.Metal>
0.0000

> <Gold.Chemscore.Hbonds>
donor molecule, donor type, donor heavy atom, donor atom, acceptor molecule, acceptor atom, score
      L1  H     2    40       P1 10957  2.00
      L1  H     7    34       P1 10747  0.87
      L1  H    10    35       P1 10747  0.85

> <Gold.PLP.Chemscore.Internal.Correction>
0.0322

> <Gold.Rescore>
     Score         DG    S(hbond)    S(metal)    S(lipo)     H(rot)  DE(clash)    DE(int)     intcor
     16.02     -16.80       1.77        0.00      67.97       1.00       0.02       0.76       ----

> <Gold.Chemscore.Fitness>
16.0207

> <Gold.Chemscore.DG>
-16.7998

> <Gold.Chemscore.ZeroCoef>
-5.4800

> <Gold.Chemscore.Hbond>
1.7745

> <Gold.Chemscore.Metal>
0.0000

> <Gold.Chemscore.Lipo>
67.9733

> <Gold.Chemscore.Internal_Hbond>
0.0000

> <Gold.Chemscore.DEClash>
0.0228

> <Gold.Chemscore.DEInternal>
0.7564

> <Gold.Chemscore.Rot>
1.0000

> <Gold.Chemscore.Internal.Correction>
   9.000000E+99

> <Gold.Chemscore.Hbonds>
donor molecule, donor type, donor heavy atom, donor atom, acceptor molecule, acceptor atom, score
      L1  H     2    40       P1 10957  0.53
      L1  H     7    34       P1 10747  0.82
      L1  H    10    35       P1 10747  0.15

> <Gold.Chemscore.Hbond.Weighted>
-5.9270

> <Gold.Chemscore.Metal.Weighted>
-0.0000

> <Gold.Chemscore.Lipo.Weighted>
-7.9529

> <Gold.Chemscore.Internal_Hbond.Weighted>
0.0000

> <Gold.Chemscore.DEClash.Weighted>
0.0228

> <Gold.Chemscore.DEInternal.Weighted>
0.7564

> <Gold.Chemscore.Rot.Weighted>
2.5600

> <Gold.Chemscore.Internal.Correction.Weighted>
   9.000000E+99

> <Gold.Protein.RotatedTorsions>
[ 6907 6896 6895 6894 ] final   53.42 input  -60.11 | X-H torsion
[ 7974 7965 7964 7962 ] final   37.75 input  175.53 | X-H torsion
[ 8008 7997 7996 7995 ] final  139.23 input   59.86 | X-H torsion
[ 10167 10162 10161 10158 ] final -145.01 input  -65.29 | X-H torsion
[ 10718 10713 10712 10709 ] final   17.82 input   66.30 | X-H torsion
[ 10763 10752 10751 10750 ] final -113.23 input  -60.55 | X-H torsion
[ 11005 11000 10999 10996 ] final   10.16 input  -57.11 | X-H torsion

> <Gold.Protein.ActiveResidues>
 VAL166  LYS551  ARG553  GLY616  TRP617  ASP618  TYR619  PRO620  LYS621  CYS622 
 ASP623  PHE694  ASN695  SER759  ASP760  ASP761  ALA762  ILE779  LEU786  VAL792 
 PHE793  MET794  SER795  GLU796  ALA797  LYS798  CYS799  TRP800  GLU811  SER814 

> <Gold.Protein.RotatedAtoms>
  152.3335  134.7229  160.0283 H   0  0  0  0  0  0  0  0  0  0  0  0  # atno 6907 bound_to 6896
  151.7638  133.3330  159.3433 H   0  0  0  0  0  0  0  0  0  0  0  0  # atno 6908 bound_to 6896
  150.7436  134.6014  159.6083 H   0  0  0  0  0  0  0  0  0  0  0  0  # atno 6909 bound_to 6896
  146.1114  139.5855  142.9350 H   0  0  0  0  0  0  0  0  0  0  0  0  # atno 7974 bound_to 7965
  156.2991  140.2373  156.4203 H   0  0  0  0  0  0  0  0  0  0  0  0  # atno 8008 bound_to 7997
  154.8361  140.0430  157.1530 H   0  0  0  0  0  0  0  0  0  0  0  0  # atno 8009 bound_to 7997
  154.9154  140.2996  155.5248 H   0  0  0  0  0  0  0  0  0  0  0  0  # atno 8010 bound_to 7997
  139.7846  143.8053  152.2643 H   0  0  0  0  0  0  0  0  0  0  0  0  # atno 10167 bound_to 10162
  157.0876  130.6414  149.5841 H   0  0  0  0  0  0  0  0  0  0  0  0  # atno 10718 bound_to 10713
  154.8387  135.4462  154.1317 H   0  0  0  0  0  0  0  0  0  0  0  0  # atno 10763 bound_to 10752
  153.2526  135.6928  153.7670 H   0  0  0  0  0  0  0  0  0  0  0  0  # atno 10764 bound_to 10752
  153.6976  135.3377  155.3193 H   0  0  0  0  0  0  0  0  0  0  0  0  # atno 10765 bound_to 10752
  140.5177  134.0590  155.7836 H   0  0  0  0  0  0  0  0  0  0  0  0  # atno 11005 bound_to 11000
  145.5656  141.0400  143.2202 LP  0  0  0  0  0  0  0  0  0  0  0  0  # atno 17320 bound_to 7965
  144.7514  139.7183  143.7271 LP  0  0  0  0  0  0  0  0  0  0  0  0  # atno 17321 bound_to 7965
  139.8126  144.7329  150.9678 LP  0  0  0  0  0  0  0  0  0  0  0  0  # atno 17342 bound_to 10162
  140.7819  143.4236  151.0802 LP  0  0  0  0  0  0  0  0  0  0  0  0  # atno 17343 bound_to 10162
  155.9906  130.4958  150.7266 LP  0  0  0  0  0  0  0  0  0  0  0  0  # atno 17370 bound_to 10713
  157.4748  131.0896  151.0602 LP  0  0  0  0  0  0  0  0  0  0  0  0  # atno 17371 bound_to 10713
  141.1351  133.9235  157.2451 LP  0  0  0  0  0  0  0  0  0  0  0  0  # atno 17394 bound_to 11000
  139.9623  135.0151  156.9295 LP  0  0  0  0  0  0  0  0  0  0  0  0  # atno 17395 bound_to 11000

$$$$
