AV-unprocessed.smi:1116|AV-procd|sdf|4812|dock7
  -GOLD-   22720 3363D 1   1.00000     0.00000
 Structure written by MMmdl.
 35 36  0  0  0  0  0  0  0  0  2 V2000
  152.1264  143.4488  161.5696 C   0  0  0  0  0  0  0  0  0  0  0  0
  151.8389  143.3716  160.1094 C   0  0  0  0  0  0  0  0  0  0  0  0
  151.0922  142.4142  159.5529 N   0  0  0  0  0  0  0  0  0  0  0  0
  150.9755  142.5599  158.1668 C   0  0  0  0  0  0  0  0  0  0  0  0
  150.1802  141.5679  157.3736 C   0  0  0  0  0  0  0  0  0  0  0  0
  149.1591  142.2512  156.4488 C   0  0  0  0  0  0  0  0  0  0  0  0
  148.4638  141.2854  155.6054 N   0  0  0  0  0  0  0  0  0  0  0  0
  149.0613  140.4240  154.7678 C   0  0  0  0  0  0  0  0  0  0  0  0
  150.2819  140.3706  154.6146 O   0  0  0  0  0  0  0  0  0  0  0  0
  148.1385  139.4905  153.9791 C   0  0  0  0  0  0  0  0  0  0  0  0
  147.2917  138.5808  154.8898 C   0  0  0  0  0  0  0  0  0  0  0  0
  148.1298  137.5114  155.6177 C   0  0  1  0  0  0  0  0  0  0  0  0
  149.2402  137.0729  154.7998 N   0  0  0  0  0  0  0  0  0  0  0  0
  150.4048  137.2773  155.4121 C   0  0  0  0  0  0  0  0  0  0  0  0
  151.4721  136.9577  154.8935 O   0  0  0  0  0  0  0  0  0  0  0  0
  150.2038  137.8587  156.6106 N   0  5  0  0  0  0  0  0  0  0  0  0
  148.8855  138.0510  156.8321 C   0  0  0  0  0  0  0  0  0  0  0  0
  148.3049  138.5465  157.7966 O   0  0  0  0  0  0  0  0  0  0  0  0
  151.6467  143.6537  157.6793 C   0  0  0  0  0  0  0  0  0  0  0  0
  152.4524  144.5392  158.9450 S   0  0  0  0  0  0  0  0  0  0  0  0
  151.8260  142.5275  162.0696 H   0  0  0  0  0  0  0  0  0  0  0  0
  151.5813  144.2823  162.0126 H   0  0  0  0  0  0  0  0  0  0  0  0
  153.1935  143.6009  161.7322 H   0  0  0  0  0  0  0  0  0  0  0  0
  150.8512  140.9459  156.7796 H   0  0  0  0  0  0  0  0  0  0  0  0
  149.6635  140.8865  158.0507 H   0  0  0  0  0  0  0  0  0  0  0  0
  148.4382  142.8248  157.0340 H   0  0  0  0  0  0  0  0  0  0  0  0
  149.6659  142.9643  155.7979 H   0  0  0  0  0  0  0  0  0  0  0  0
  147.4562  141.2655  155.6682 H   0  0  0  0  0  0  0  0  0  0  0  0
  147.4796  140.0821  153.3413 H   0  0  0  0  0  0  0  0  0  0  0  0
  148.7570  138.8868  153.3142 H   0  0  0  0  0  0  0  0  0  0  0  0
  146.7462  139.1807  155.6208 H   0  0  0  0  0  0  0  0  0  0  0  0
  146.5346  138.0831  154.2813 H   0  0  0  0  0  0  0  0  0  0  0  0
  147.5188  136.6577  155.9145 H   0  0  0  0  0  0  0  0  0  0  0  0
  149.1315  136.6500  153.8900 H   0  0  0  0  0  0  0  0  0  0  0  0
  151.7174  143.9899  156.6553 H   0  0  0  0  0  0  0  0  0  0  0  0
  1  2  1  0  0  0  0
  1 21  1  0  0  0  0
  1 22  1  0  0  0  0
  1 23  1  0  0  0  0
  2 20  1  0  0  0  0
  2  3  2  0  0  0  0
  3  4  1  0  0  0  0
  4  5  1  0  0  0  0
  4 19  2  0  0  0  0
  5  6  1  0  0  0  0
  5 24  1  0  0  0  0
  5 25  1  0  0  0  0
  6  7  1  0  0  0  0
  6 26  1  0  0  0  0
  6 27  1  0  0  0  0
  7  8  1  0  0  0  0
  7 28  1  0  0  0  0
  8  9  2  0  0  0  0
  8 10  1  0  0  0  0
 10 11  1  0  0  0  0
 10 29  1  0  0  0  0
 10 30  1  0  0  0  0
 11 12  1  0  0  0  0
 11 31  1  0  0  0  0
 11 32  1  0  0  0  0
 12 17  1  0  0  0  0
 12 13  1  0  0  0  0
 12 33  1  0  0  0  0
 13 14  1  0  0  0  0
 13 34  1  0  0  0  0
 14 15  2  0  0  0  0
 14 16  1  0  0  0  0
 16 17  1  0  0  0  0
 17 18  2  0  0  0  0
 19 20  1  0  0  0  0
 19 35  1  0  0  0  0
M  CHG  1  16  -1
M  END
> <s_m_source_file>
AV-unprocessed.smi

> <i_m_source_file_index>
1116

> <i_lp_mmshare_version>
43012

> <i_f3d_flags>
0

> <s_epik_input>
W0NIM11jMW5jKFtjSF1zMSlbQ0gyXVtDSDJdW05IXUMoPU8pW0NIMl1bQ0gyXVtDQEBIXTJbTkhdQyg9TylbTkhdQzI9Tw==

> <s_epik_cmdline>
J2VwaWtfcHl0aG9uJywgJy1waCcsICc3LjAnLCAnLXRuJywgJzgnLCAnLW1hJywgJzIwMCcsICctbWV0YWxfYmluZGluZycsICctaW1hZScsICc8aW5maWxlLm1hZT4nLCAnLW9tYWUnLCAnPG91dGZpbGUubWFlPic=

> <r_lp_tautomer_probability>
1

> <r_epik_Ionization_Penalty>
2.5713

> <r_epik_Ionization_Penalty_Charging>
2.57023

> <r_epik_Ionization_Penalty_Neutral>
0.00106405

> <r_epik_State_Penalty>
2.56828

> <r_epik_Charging_Adjusted_Penalty>
5.13851

> <i_epik_Tot_Q>
-1

> <i_epik_Tot_abs_Q>
1

> <r_epik_Metal_State_Penalty>
0.44525

> <b_epik_Metal_Only>
1

> <s_lp_Force_Field>
OPLS_2005

> <r_lp_Energy>
2.19092

> <b_lp_Chiralities_Consistent>
1

> <s_lp_Variant>
AV-unprocessed.smi:1116-6

> <Gold.Version>
5.8.1

> <Gold.Id.Protein>
6NUR|6NUR_protein|mol2

> <Gold.PLP.Fitness>
42.7396

> <Gold.PLP.PLP>
-32.2975

> <Gold.PLP.part.hbond>
-3.5935

> <Gold.PLP.part.metal>
0.0000

> <Gold.PLP.part.buried>
-3.6791

> <Gold.PLP.part.nonpolar>
-26.0211

> <Gold.PLP.part.repulsive>
0.3454

> <Gold.PLP.ligand.clash>
0.0000

> <Gold.PLP.ligand.torsion>
0.3528

> <Gold.PLP.Chemscore.Hbond>
2.7440

> <Gold.PLP.Chemscore.CHOScore>
0.9531

> <Gold.PLP.Chemscore.Metal>
0.0000

> <Gold.Chemscore.Hbonds>
donor molecule, donor type, donor heavy atom, donor atom, acceptor molecule, acceptor atom, score
      L1  H    13    34       P1  7948  0.93
      P1  H  7989  7998       L1     9  1.00
      P1  H 10752 10763       L1    15  0.63

> <Gold.PLP.Chemscore.Internal.Correction>
0.0566

> <Gold.Rescore>
     Score         DG    S(hbond)    S(metal)    S(lipo)     H(rot)  DE(clash)    DE(int)     intcor
     13.30     -14.79       2.21        0.00      77.06       2.77       1.16       0.33       ----

> <Gold.Chemscore.Fitness>
13.2997

> <Gold.Chemscore.DG>
-14.7915

> <Gold.Chemscore.ZeroCoef>
-5.4800

> <Gold.Chemscore.Hbond>
2.2108

> <Gold.Chemscore.Metal>
0.0000

> <Gold.Chemscore.Lipo>
77.0619

> <Gold.Chemscore.Internal_Hbond>
0.0000

> <Gold.Chemscore.DEClash>
1.1581

> <Gold.Chemscore.DEInternal>
0.3336

> <Gold.Chemscore.Rot>
2.7691

> <Gold.Chemscore.Internal.Correction>
   9.000000E+99

> <Gold.Chemscore.Hbonds>
donor molecule, donor type, donor heavy atom, donor atom, acceptor molecule, acceptor atom, score
      L1  H    13    34       P1  7948  0.88
      P1  H  7989  7998       L1     9  0.95
      P1  H 10752 10763       L1    15  0.62

> <Gold.Chemscore.Hbond.Weighted>
-7.3841

> <Gold.Chemscore.Metal.Weighted>
-0.0000

> <Gold.Chemscore.Lipo.Weighted>
-9.0162

> <Gold.Chemscore.Internal_Hbond.Weighted>
0.0000

> <Gold.Chemscore.DEClash.Weighted>
1.1581

> <Gold.Chemscore.DEInternal.Weighted>
0.3336

> <Gold.Chemscore.Rot.Weighted>
7.0889

> <Gold.Chemscore.Internal.Correction.Weighted>
   9.000000E+99

> <Gold.Protein.RotatedTorsions>
[ 6907 6896 6895 6894 ] final  178.77 input  -60.11 | X-H torsion
[ 7974 7965 7964 7962 ] final  146.77 input  175.53 | X-H torsion
[ 8008 7997 7996 7995 ] final   84.75 input   59.86 | X-H torsion
[ 10167 10162 10161 10158 ] final   69.57 input  -65.29 | X-H torsion
[ 10718 10713 10712 10709 ] final  135.06 input   66.30 | X-H torsion
[ 10763 10752 10751 10750 ] final   29.05 input  -60.55 | X-H torsion
[ 11005 11000 10999 10996 ] final -113.86 input  -57.11 | X-H torsion

> <Gold.Protein.ActiveResidues>
 VAL166  LYS551  ARG553  GLY616  TRP617  ASP618  TYR619  PRO620  LYS621  CYS622 
 ASP623  PHE694  ASN695  SER759  ASP760  ASP761  ALA762  ILE779  LEU786  VAL792 
 PHE793  MET794  SER795  GLU796  ALA797  LYS798  CYS799  TRP800  GLU811  SER814 

> <Gold.Protein.RotatedAtoms>
  151.6825  133.3312  159.3222 H   0  0  0  0  0  0  0  0  0  0  0  0  # atno 6907 bound_to 6896
  150.7816  134.6768  159.6431 H   0  0  0  0  0  0  0  0  0  0  0  0  # atno 6908 bound_to 6896
  152.3875  134.6497  160.0172 H   0  0  0  0  0  0  0  0  0  0  0  0  # atno 6909 bound_to 6896
  144.8644  139.5946  143.5915 H   0  0  0  0  0  0  0  0  0  0  0  0  # atno 7974 bound_to 7965
  155.9411  140.3408  155.6328 H   0  0  0  0  0  0  0  0  0  0  0  0  # atno 8008 bound_to 7997
  155.7039  140.0763  157.2417 H   0  0  0  0  0  0  0  0  0  0  0  0  # atno 8009 bound_to 7997
  154.4103  140.1635  156.2208 H   0  0  0  0  0  0  0  0  0  0  0  0  # atno 8010 bound_to 7997
  140.0663  144.5190  150.7258 H   0  0  0  0  0  0  0  0  0  0  0  0  # atno 10167 bound_to 10162
  157.4609  131.1073  150.9921 H   0  0  0  0  0  0  0  0  0  0  0  0  # atno 10718 bound_to 10713
  153.0454  135.6498  154.0831 H   0  0  0  0  0  0  0  0  0  0  0  0  # atno 10763 bound_to 10752
  154.0530  135.2894  155.3339 H   0  0  0  0  0  0  0  0  0  0  0  0  # atno 10764 bound_to 10752
  154.6708  135.5357  153.8201 H   0  0  0  0  0  0  0  0  0  0  0  0  # atno 10765 bound_to 10752
  141.0588  133.9569  157.2706 H   0  0  0  0  0  0  0  0  0  0  0  0  # atno 11005 bound_to 11000
  146.2885  139.7071  142.9178 LP  0  0  0  0  0  0  0  0  0  0  0  0  # atno 17320 bound_to 7965
  145.4249  141.0410  143.2943 LP  0  0  0  0  0  0  0  0  0  0  0  0  # atno 17321 bound_to 7965
  140.7147  143.2534  151.4471 LP  0  0  0  0  0  0  0  0  0  0  0  0  # atno 17342 bound_to 10162
  139.5863  144.1598  152.2032 LP  0  0  0  0  0  0  0  0  0  0  0  0  # atno 17343 bound_to 10162
  157.0719  130.5867  149.5404 LP  0  0  0  0  0  0  0  0  0  0  0  0  # atno 17370 bound_to 10713
  156.0028  130.5110  150.7724 LP  0  0  0  0  0  0  0  0  0  0  0  0  # atno 17371 bound_to 10713
  139.9413  135.0190  156.8718 LP  0  0  0  0  0  0  0  0  0  0  0  0  # atno 17394 bound_to 11000
  140.5911  134.0261  155.7500 LP  0  0  0  0  0  0  0  0  0  0  0  0  # atno 17395 bound_to 11000

$$$$
