AV-unprocessed.smi:2041|AV-procd|sdf|8290|dock3
  -GOLD-   2272010553D 1   1.00000     0.00000
 Structure written by MMmdl.
 31 32  0  0  0  0  0  0  0  0  1 V2000
  150.1930  140.4397  156.7806 O   0  0  0  0  0  0  0  0  0  0  0  0
  149.9782  141.5662  156.3318 C   0  0  0  0  0  0  0  0  0  0  0  0
  150.5638  142.6984  156.7592 N   0  0  0  0  0  0  0  0  0  0  0  0
  151.5228  142.8559  157.7942 C   0  0  0  0  0  0  0  0  0  0  0  0
  152.0283  141.8484  158.5155 N   0  0  0  0  0  0  0  0  0  0  0  0
  152.9498  142.2951  159.4662 C   0  0  0  0  0  0  0  0  0  0  0  0
  153.1360  143.6551  159.4537 C   0  0  0  0  0  0  0  0  0  0  0  0
  152.1562  144.4335  158.2401 S   0  0  0  0  0  0  0  0  0  0  0  0
  149.1140  141.8150  155.3370 N   0  0  0  0  0  0  0  0  0  0  0  0
  148.2771  140.8227  154.6621 C   0  0  2  0  0  0  0  0  0  0  0  0
  147.1591  140.3126  155.6086 C   0  0  0  0  0  0  0  0  0  0  0  0
  146.6010  138.9061  155.3056 C   0  0  0  0  0  0  0  0  0  0  0  0
  146.0975  138.6862  153.8645 C   0  0  0  0  0  0  0  0  0  0  0  0
  147.0964  138.9981  152.7248 C   0  0  0  0  0  0  0  0  0  0  0  0
  148.5028  138.9081  153.1146 N   0  0  0  0  0  0  0  0  0  0  0  0
  149.1215  139.7268  153.9829 C   0  0  0  0  0  0  0  0  0  0  0  0
  150.3166  139.5980  154.2463 O   0  0  0  0  0  0  0  0  0  0  0  0
  150.2855  143.5499  156.2939 H   0  0  0  0  0  0  0  0  0  0  0  0
  153.4276  141.5745  160.1134 H   0  0  0  0  0  0  0  0  0  0  0  0
  153.7874  144.2434  160.0826 H   0  0  0  0  0  0  0  0  0  0  0  0
  148.9998  142.7719  155.0358 H   0  0  0  0  0  0  0  0  0  0  0  0
  147.7914  141.3518  153.8411 H   0  0  0  0  0  0  0  0  0  0  0  0
  147.5317  140.3007  156.6340 H   0  0  0  0  0  0  0  0  0  0  0  0
  146.3391  141.0317  155.6049 H   0  0  0  0  0  0  0  0  0  0  0  0
  147.3593  138.1577  155.5399 H   0  0  0  0  0  0  0  0  0  0  0  0
  145.7819  138.7013  155.9955 H   0  0  0  0  0  0  0  0  0  0  0  0
  145.7950  137.6420  153.7787 H   0  0  0  0  0  0  0  0  0  0  0  0
  145.1878  139.2656  153.7037 H   0  0  0  0  0  0  0  0  0  0  0  0
  146.9257  138.3128  151.8942 H   0  0  0  0  0  0  0  0  0  0  0  0
  146.9017  139.9918  152.3198 H   0  0  0  0  0  0  0  0  0  0  0  0
  149.0523  138.1812  152.6791 H   0  0  0  0  0  0  0  0  0  0  0  0
  1  2  2  0  0  0  0
  2  3  1  0  0  0  0
  2  9  1  0  0  0  0
  3  4  1  0  0  0  0
  3 18  1  0  0  0  0
  4  8  1  0  0  0  0
  4  5  2  0  0  0  0
  5  6  1  0  0  0  0
  6  7  2  0  0  0  0
  6 19  1  0  0  0  0
  7  8  1  0  0  0  0
  7 20  1  0  0  0  0
  9 10  1  0  0  0  0
  9 21  1  0  0  0  0
 10 16  1  0  0  0  0
 10 11  1  0  0  0  0
 10 22  1  0  0  0  0
 11 12  1  0  0  0  0
 11 23  1  0  0  0  0
 11 24  1  0  0  0  0
 12 13  1  0  0  0  0
 12 25  1  0  0  0  0
 12 26  1  0  0  0  0
 13 14  1  0  0  0  0
 13 27  1  0  0  0  0
 13 28  1  0  0  0  0
 14 15  1  0  0  0  0
 14 29  1  0  0  0  0
 14 30  1  0  0  0  0
 15 16  1  0  0  0  0
 15 31  1  0  0  0  0
 16 17  2  0  0  0  0
M  END
> <s_m_source_file>
AV-unprocessed.smi

> <i_m_source_file_index>
2041

> <i_lp_mmshare_version>
43012

> <i_f3d_flags>
0

> <s_epik_input>
czFbY0hdW2NIXW5jMVtOSF1DKD1PKVtOSF1bQ0BASF0yW0NIMl1bQ0gyXVtDSDJdW0NIMl1bTkhdQzI9Tw==

> <s_epik_cmdline>
J2VwaWtfcHl0aG9uJywgJy1waCcsICc3LjAnLCAnLXRuJywgJzgnLCAnLW1hJywgJzIwMCcsICctbWV0YWxfYmluZGluZycsICctaW1hZScsICc8aW5maWxlLm1hZT4nLCAnLW9tYWUnLCAnPG91dGZpbGUubWFlPic=

> <r_lp_tautomer_probability>
1

> <r_epik_Ionization_Penalty>
0.000247973

> <r_epik_Ionization_Penalty_Charging>
0

> <r_epik_Ionization_Penalty_Neutral>
0.000247973

> <r_epik_State_Penalty>
-0

> <r_epik_Charging_Adjusted_Penalty>
0

> <i_epik_Tot_Q>
0

> <i_epik_Tot_abs_Q>
0

> <r_epik_Metal_State_Penalty>
0.011719

> <b_epik_Metal_Only>
0

> <s_lp_Force_Field>
OPLS_2005

> <r_lp_Energy>
12.9597

> <b_lp_Chiralities_Consistent>
1

> <s_lp_Variant>
AV-unprocessed.smi:2041-1

> <Gold.Version>
5.8.1

> <Gold.Id.Protein>
6NUR|6NUR_protein|mol2

> <Gold.PLP.Fitness>
41.3295

> <Gold.PLP.PLP>
-30.2772

> <Gold.PLP.part.hbond>
-4.9109

> <Gold.PLP.part.metal>
0.0000

> <Gold.PLP.part.buried>
-2.7753

> <Gold.PLP.part.nonpolar>
-23.8240

> <Gold.PLP.part.repulsive>
0.4476

> <Gold.PLP.ligand.clash>
0.0000

> <Gold.PLP.ligand.torsion>
0.0502

> <Gold.PLP.Chemscore.Hbond>
3.6997

> <Gold.PLP.Chemscore.CHOScore>
0.0000

> <Gold.PLP.Chemscore.Metal>
0.0000

> <Gold.Chemscore.Hbonds>
donor molecule, donor type, donor heavy atom, donor atom, acceptor molecule, acceptor atom, score
      L1  H     3    18       P1  8028  1.00
      L1  H     9    21       P1  8028  0.90
      L1  H    15    31       P1  7948  0.79
      P1  H  7989  7998       L1    17  1.00

> <Gold.PLP.Chemscore.Internal.Correction>
0.0536

> <Gold.Rescore>
     Score         DG    S(hbond)    S(metal)    S(lipo)     H(rot)  DE(clash)    DE(int)     intcor
     17.14     -21.16       3.48        0.00      56.41       1.00       0.08       3.94       ----

> <Gold.Chemscore.Fitness>
17.1417

> <Gold.Chemscore.DG>
-21.1587

> <Gold.Chemscore.ZeroCoef>
-5.4800

> <Gold.Chemscore.Hbond>
3.4846

> <Gold.Chemscore.Metal>
0.0000

> <Gold.Chemscore.Lipo>
56.4121

> <Gold.Chemscore.Internal_Hbond>
0.0000

> <Gold.Chemscore.DEClash>
0.0765

> <Gold.Chemscore.DEInternal>
3.9405

> <Gold.Chemscore.Rot>
1.0000

> <Gold.Chemscore.Internal.Correction>
   9.000000E+99

> <Gold.Chemscore.Hbonds>
donor molecule, donor type, donor heavy atom, donor atom, acceptor molecule, acceptor atom, score
      L1  H     3    18       P1  8028  0.94
      L1  H     9    21       P1  8028  0.83
      L1  H    15    31       P1  7948  0.74
      P1  H  7989  7998       L1    17  0.95

> <Gold.Chemscore.Hbond.Weighted>
-11.6385

> <Gold.Chemscore.Metal.Weighted>
-0.0000

> <Gold.Chemscore.Lipo.Weighted>
-6.6002

> <Gold.Chemscore.Internal_Hbond.Weighted>
0.0000

> <Gold.Chemscore.DEClash.Weighted>
0.0765

> <Gold.Chemscore.DEInternal.Weighted>
3.9405

> <Gold.Chemscore.Rot.Weighted>
2.5600

> <Gold.Chemscore.Internal.Correction.Weighted>
   9.000000E+99

> <Gold.Protein.RotatedTorsions>
[ 6907 6896 6895 6894 ] final  -23.50 input  -60.11 | X-H torsion
[ 7974 7965 7964 7962 ] final  125.62 input  175.53 | X-H torsion
[ 8008 7997 7996 7995 ] final  157.53 input   59.86 | X-H torsion
[ 10167 10162 10161 10158 ] final   10.22 input  -65.29 | X-H torsion
[ 10718 10713 10712 10709 ] final  -45.86 input   66.30 | X-H torsion
[ 10763 10752 10751 10750 ] final  176.02 input  -60.55 | X-H torsion
[ 11005 11000 10999 10996 ] final  -73.81 input  -57.11 | X-H torsion

> <Gold.Protein.ActiveResidues>
 VAL166  LYS551  ARG553  GLY616  TRP617  ASP618  TYR619  PRO620  LYS621  CYS622 
 ASP623  PHE694  ASN695  SER759  ASP760  ASP761  ALA762  ILE779  LEU786  VAL792 
 PHE793  MET794  SER795  GLU796  ALA797  LYS798  CYS799  TRP800  GLU811  SER814 

> <Gold.Protein.RotatedAtoms>
  151.2031  135.0451  159.8880 H   0  0  0  0  0  0  0  0  0  0  0  0  # atno 6907 bound_to 6896
  152.5431  134.0828  159.8253 H   0  0  0  0  0  0  0  0  0  0  0  0  # atno 6908 bound_to 6896
  151.0971  133.5224  159.2644 H   0  0  0  0  0  0  0  0  0  0  0  0  # atno 6909 bound_to 6896
  145.0710  139.3730  143.4958 H   0  0  0  0  0  0  0  0  0  0  0  0  # atno 7974 bound_to 7965
  156.2358  140.1883  156.7122 H   0  0  0  0  0  0  0  0  0  0  0  0  # atno 8008 bound_to 7997
  154.6104  140.0623  156.9514 H   0  0  0  0  0  0  0  0  0  0  0  0  # atno 8009 bound_to 7997
  155.2025  140.3293  155.4343 H   0  0  0  0  0  0  0  0  0  0  0  0  # atno 8010 bound_to 7997
  140.6207  143.8210  150.7172 H   0  0  0  0  0  0  0  0  0  0  0  0  # atno 10167 bound_to 10162
  156.2241  130.4168  149.8956 H   0  0  0  0  0  0  0  0  0  0  0  0  # atno 10718 bound_to 10713
  154.4755  135.2773  155.1610 H   0  0  0  0  0  0  0  0  0  0  0  0  # atno 10763 bound_to 10752
  154.3342  135.6184  153.5569 H   0  0  0  0  0  0  0  0  0  0  0  0  # atno 10764 bound_to 10752
  152.9869  135.5773  154.5145 H   0  0  0  0  0  0  0  0  0  0  0  0  # atno 10765 bound_to 10752
  141.1627  133.6890  156.7269 H   0  0  0  0  0  0  0  0  0  0  0  0  # atno 11005 bound_to 11000
  146.3528  140.0454  142.8640 LP  0  0  0  0  0  0  0  0  0  0  0  0  # atno 17320 bound_to 7965
  145.1293  140.9508  143.4554 LP  0  0  0  0  0  0  0  0  0  0  0  0  # atno 17321 bound_to 7965
  140.1799  143.4123  152.1940 LP  0  0  0  0  0  0  0  0  0  0  0  0  # atno 17342 bound_to 10162
  139.5436  144.7279  151.4653 LP  0  0  0  0  0  0  0  0  0  0  0  0  # atno 17343 bound_to 10162
  156.6592  130.8775  151.3544 LP  0  0  0  0  0  0  0  0  0  0  0  0  # atno 17370 bound_to 10713
  157.7102  130.9431  150.1063 LP  0  0  0  0  0  0  0  0  0  0  0  0  # atno 17371 bound_to 10713
  140.2774  134.8344  157.3902 LP  0  0  0  0  0  0  0  0  0  0  0  0  # atno 17394 bound_to 11000
  140.1465  134.4905  155.7992 LP  0  0  0  0  0  0  0  0  0  0  0  0  # atno 17395 bound_to 11000

$$$$
