AV-unprocessed.smi:2112|AV-procd|sdf|8614|dock2
  -GOLD-   2272011353D 1   1.00000     0.00000
 Structure written by MMmdl.
 42 43  0  0  0  0  0  0  0  0  2 V2000
  145.5749  135.9901  150.8225 C   0  0  0  0  0  0  0  0  0  0  0  0
  145.5830  136.9031  152.0577 C   0  0  0  0  0  0  0  0  0  0  0  0
  144.1616  137.0469  152.6294 C   0  0  0  0  0  0  0  0  0  0  0  0
  146.2341  138.2618  151.7240 C   0  0  0  0  0  0  0  0  0  0  0  0
  147.4891  138.4690  152.4420 N   0  0  0  0  0  0  0  0  0  0  0  0
  147.7625  139.4997  153.2552 C   0  0  0  0  0  0  0  0  0  0  0  0
  146.9674  140.4086  153.4907 O   0  0  0  0  0  0  0  0  0  0  0  0
  149.0051  139.4006  153.7592 N   0  0  0  0  0  0  0  0  0  0  0  0
  149.6748  140.2604  154.6729 C   0  0  0  0  0  0  0  0  0  0  0  0
  150.8120  139.7490  155.3332 C   0  0  0  0  0  0  0  0  0  0  0  0
  151.5084  140.5520  156.2594 C   0  0  0  0  0  0  0  0  0  0  0  0
  151.0564  141.8654  156.5260 C   0  0  0  0  0  0  0  0  0  0  0  0
  151.7032  142.7245  157.4344 N   0  0  0  0  0  0  0  0  0  0  0  0
  151.3786  144.1402  157.5085 C   0  0  0  0  0  0  0  0  0  0  0  0
  152.1597  144.6520  158.7178 C   0  0  0  0  0  0  0  0  0  0  0  0
  152.1767  143.4443  159.6551 C   0  0  0  0  0  0  0  0  0  0  0  0
  152.2106  142.2378  158.7096 C   0  0  0  0  0  0  0  0  0  0  0  0
  149.9599  142.3159  155.8713 N   0  3  0  0  0  0  0  0  0  0  0  0
  149.2634  141.5810  154.9773 C   0  0  0  0  0  0  0  0  0  0  0  0
  144.9813  136.4210  150.0154 H   0  0  0  0  0  0  0  0  0  0  0  0
  145.1555  135.0114  151.0584 H   0  0  0  0  0  0  0  0  0  0  0  0
  146.5850  135.8302  150.4442 H   0  0  0  0  0  0  0  0  0  0  0  0
  146.1956  136.4145  152.8166 H   0  0  0  0  0  0  0  0  0  0  0  0
  143.5072  137.5729  151.9336 H   0  0  0  0  0  0  0  0  0  0  0  0
  144.1595  137.5973  153.5700 H   0  0  0  0  0  0  0  0  0  0  0  0
  143.7191  136.0706  152.8288 H   0  0  0  0  0  0  0  0  0  0  0  0
  146.4629  138.3048  150.6586 H   0  0  0  0  0  0  0  0  0  0  0  0
  145.5320  139.0759  151.9128 H   0  0  0  0  0  0  0  0  0  0  0  0
  148.2045  137.7699  152.3063 H   0  0  0  0  0  0  0  0  0  0  0  0
  149.5492  138.6169  153.4292 H   0  0  0  0  0  0  0  0  0  0  0  0
  151.1559  138.7449  155.1311 H   0  0  0  0  0  0  0  0  0  0  0  0
  152.3838  140.1522  156.7495 H   0  0  0  0  0  0  0  0  0  0  0  0
  151.6588  144.6668  156.5956 H   0  0  0  0  0  0  0  0  0  0  0  0
  150.3058  144.2617  157.6645 H   0  0  0  0  0  0  0  0  0  0  0  0
  153.1794  144.9018  158.4214 H   0  0  0  0  0  0  0  0  0  0  0  0
  151.7123  145.5381  159.1688 H   0  0  0  0  0  0  0  0  0  0  0  0
  153.0143  143.4585  160.3530 H   0  0  0  0  0  0  0  0  0  0  0  0
  151.2555  143.4258  160.2391 H   0  0  0  0  0  0  0  0  0  0  0  0
  151.6147  141.4153  159.1069 H   0  0  0  0  0  0  0  0  0  0  0  0
  153.2328  141.8849  158.5697 H   0  0  0  0  0  0  0  0  0  0  0  0
  148.4063  142.0839  154.5567 H   0  0  0  0  0  0  0  0  0  0  0  0
  149.6373  143.2638  156.0664 H   0  0  0  0  0  0  0  0  0  0  0  0
  1  2  1  0  0  0  0
  1 20  1  0  0  0  0
  1 21  1  0  0  0  0
  1 22  1  0  0  0  0
  2  3  1  0  0  0  0
  2  4  1  0  0  0  0
  2 23  1  0  0  0  0
  3 24  1  0  0  0  0
  3 25  1  0  0  0  0
  3 26  1  0  0  0  0
  4  5  1  0  0  0  0
  4 27  1  0  0  0  0
  4 28  1  0  0  0  0
  5  6  1  0  0  0  0
  5 29  1  0  0  0  0
  6  7  2  0  0  0  0
  6  8  1  0  0  0  0
  8  9  1  0  0  0  0
  8 30  1  0  0  0  0
  9 19  1  0  0  0  0
  9 10  2  0  0  0  0
 10 11  1  0  0  0  0
 10 31  1  0  0  0  0
 11 12  2  0  0  0  0
 11 32  1  0  0  0  0
 12 13  1  0  0  0  0
 12 18  1  0  0  0  0
 13 17  1  0  0  0  0
 13 14  1  0  0  0  0
 14 15  1  0  0  0  0
 14 33  1  0  0  0  0
 14 34  1  0  0  0  0
 15 16  1  0  0  0  0
 15 35  1  0  0  0  0
 15 36  1  0  0  0  0
 16 17  1  0  0  0  0
 16 37  1  0  0  0  0
 16 38  1  0  0  0  0
 17 39  1  0  0  0  0
 17 40  1  0  0  0  0
 18 19  2  0  0  0  0
 18 42  1  0  0  0  0
 19 41  1  0  0  0  0
M  CHG  1  18   1
M  END
> <s_m_source_file>
AV-unprocessed.smi

> <i_m_source_file_index>
2112

> <i_lp_mmshare_version>
43012

> <i_f3d_flags>
0

> <s_epik_input>
W0NIM11bQ0hdKFtDSDNdKVtDSDJdW05IXUMoPU8pW05IXWMxW2NIXVtjSF1jKG5bY0hdMSlOMltDSDJdW0NIMl1bQ0gyXVtDSDJdMg==

> <s_epik_cmdline>
J2VwaWtfcHl0aG9uJywgJy1waCcsICc3LjAnLCAnLXRuJywgJzgnLCAnLW1hJywgJzIwMCcsICctbWV0YWxfYmluZGluZycsICctaW1hZScsICc8aW5maWxlLm1hZT4nLCAnLW9tYWUnLCAnPG91dGZpbGUubWFlPic=

> <r_lp_tautomer_probability>
0.999994

> <r_epik_Ionization_Penalty>
1.09853

> <r_epik_Ionization_Penalty_Charging>
1.09851

> <r_epik_Ionization_Penalty_Neutral>
2.18606e-05

> <r_epik_State_Penalty>
1.15544

> <r_epik_Charging_Adjusted_Penalty>
2.25394

> <i_epik_Tot_Q>
1

> <i_epik_Tot_abs_Q>
1

> <r_epik_Metal_State_Penalty>
1.2431

> <b_epik_Metal_Only>
0

> <s_lp_Force_Field>
OPLS_2005

> <r_lp_Energy>
36.0916

> <b_lp_Chiralities_Consistent>
1

> <s_lp_Variant>
AV-unprocessed.smi:2112-2

> <Gold.Version>
5.8.1

> <Gold.Id.Protein>
6NUR|6NUR_protein|mol2

> <Gold.PLP.Fitness>
50.9344

> <Gold.PLP.PLP>
-44.0371

> <Gold.PLP.part.hbond>
-4.0000

> <Gold.PLP.part.metal>
0.0000

> <Gold.PLP.part.buried>
0.5063

> <Gold.PLP.part.nonpolar>
-41.2892

> <Gold.PLP.part.repulsive>
0.4734

> <Gold.PLP.ligand.clash>
0.0000

> <Gold.PLP.ligand.torsion>
1.1614

> <Gold.PLP.Chemscore.Hbond>
3.0000

> <Gold.PLP.Chemscore.CHOScore>
0.0000

> <Gold.PLP.Chemscore.Metal>
0.0000

> <Gold.Chemscore.Hbonds>
donor molecule, donor type, donor heavy atom, donor atom, acceptor molecule, acceptor atom, score
      L1  H     5    29       P1  7948  1.00
      L1  H    18    42       P1  8028  2.00

> <Gold.PLP.Chemscore.Internal.Correction>
0.2201

> <Gold.Rescore>
     Score         DG    S(hbond)    S(metal)    S(lipo)     H(rot)  DE(clash)    DE(int)     intcor
     18.04     -20.85       1.95        0.00     101.34       1.16       0.64       2.17       ----

> <Gold.Chemscore.Fitness>
18.0434

> <Gold.Chemscore.DG>
-20.8544

> <Gold.Chemscore.ZeroCoef>
-5.4800

> <Gold.Chemscore.Hbond>
1.9455

> <Gold.Chemscore.Metal>
0.0000

> <Gold.Chemscore.Lipo>
101.3441

> <Gold.Chemscore.Internal_Hbond>
0.0000

> <Gold.Chemscore.DEClash>
0.6372

> <Gold.Chemscore.DEInternal>
2.1738

> <Gold.Chemscore.Rot>
1.1643

> <Gold.Chemscore.Internal.Correction>
   9.000000E+99

> <Gold.Chemscore.Hbonds>
donor molecule, donor type, donor heavy atom, donor atom, acceptor molecule, acceptor atom, score
      L1  H     5    29       P1  7948  1.00
      L1  H    18    42       P1  8028  0.98

> <Gold.Chemscore.Hbond.Weighted>
-6.4978

> <Gold.Chemscore.Metal.Weighted>
-0.0000

> <Gold.Chemscore.Lipo.Weighted>
-11.8573

> <Gold.Chemscore.Internal_Hbond.Weighted>
0.0000

> <Gold.Chemscore.DEClash.Weighted>
0.6372

> <Gold.Chemscore.DEInternal.Weighted>
2.1738

> <Gold.Chemscore.Rot.Weighted>
2.9807

> <Gold.Chemscore.Internal.Correction.Weighted>
   9.000000E+99

> <Gold.Protein.RotatedTorsions>
[ 6907 6896 6895 6894 ] final -138.06 input  -60.11 | X-H torsion
[ 7974 7965 7964 7962 ] final -124.35 input  175.53 | X-H torsion
[ 8008 7997 7996 7995 ] final -141.71 input   59.86 | X-H torsion
[ 10167 10162 10161 10158 ] final   -6.70 input  -65.29 | X-H torsion
[ 10718 10713 10712 10709 ] final  177.97 input   66.30 | X-H torsion
[ 10763 10752 10751 10750 ] final  177.69 input  -60.55 | X-H torsion
[ 11005 11000 10999 10996 ] final  -11.66 input  -57.11 | X-H torsion

> <Gold.Protein.ActiveResidues>
 VAL166  LYS551  ARG553  GLY616  TRP617  ASP618  TYR619  PRO620  LYS621  CYS622 
 ASP623  PHE694  ASN695  SER759  ASP760  ASP761  ALA762  ILE779  LEU786  VAL792 
 PHE793  MET794  SER795  GLU796  ALA797  LYS798  CYS799  TRP800  GLU811  SER814 

> <Gold.Protein.RotatedAtoms>
  151.0303  133.5797  159.2661 H   0  0  0  0  0  0  0  0  0  0  0  0  # atno 6907 bound_to 6896
  151.2881  135.0733  159.9204 H   0  0  0  0  0  0  0  0  0  0  0  0  # atno 6908 bound_to 6896
  152.5343  134.0005  159.7947 H   0  0  0  0  0  0  0  0  0  0  0  0  # atno 6909 bound_to 6896
  145.0090  140.7888  143.4450 H   0  0  0  0  0  0  0  0  0  0  0  0  # atno 7974 bound_to 7965
  155.4822  140.0561  157.2965 H   0  0  0  0  0  0  0  0  0  0  0  0  # atno 8008 bound_to 7997
  154.4656  140.2017  156.0080 H   0  0  0  0  0  0  0  0  0  0  0  0  # atno 8009 bound_to 7997
  156.0968  140.3225  155.7892 H   0  0  0  0  0  0  0  0  0  0  0  0  # atno 8010 bound_to 7997
  140.7005  143.6165  150.8654 H   0  0  0  0  0  0  0  0  0  0  0  0  # atno 10167 bound_to 10162
  156.8974  130.9867  151.3040 H   0  0  0  0  0  0  0  0  0  0  0  0  # atno 10718 bound_to 10713
  154.4978  135.2782  155.1445 H   0  0  0  0  0  0  0  0  0  0  0  0  # atno 10763 bound_to 10752
  154.3090  135.6233  153.5461 H   0  0  0  0  0  0  0  0  0  0  0  0  # atno 10764 bound_to 10752
  152.9897  135.5715  154.5414 H   0  0  0  0  0  0  0  0  0  0  0  0  # atno 10765 bound_to 10752
  140.7576  133.8541  155.9097 H   0  0  0  0  0  0  0  0  0  0  0  0  # atno 11005 bound_to 11000
  145.2049  139.2233  143.5173 LP  0  0  0  0  0  0  0  0  0  0  0  0  # atno 17320 bound_to 7965
  146.3466  140.1875  142.8589 LP  0  0  0  0  0  0  0  0  0  0  0  0  # atno 17321 bound_to 7965
  139.9886  143.5871  152.2918 LP  0  0  0  0  0  0  0  0  0  0  0  0  # atno 17342 bound_to 10162
  139.6519  144.7661  151.2132 LP  0  0  0  0  0  0  0  0  0  0  0  0  # atno 17343 bound_to 10162
  157.6047  130.8538  149.8856 LP  0  0  0  0  0  0  0  0  0  0  0  0  # atno 17370 bound_to 10713
  156.0599  130.3702  150.1006 LP  0  0  0  0  0  0  0  0  0  0  0  0  # atno 17371 bound_to 10713
  140.9693  134.1552  157.4589 LP  0  0  0  0  0  0  0  0  0  0  0  0  # atno 17394 bound_to 11000
  139.8776  134.9973  156.5839 LP  0  0  0  0  0  0  0  0  0  0  0  0  # atno 17395 bound_to 11000

$$$$
