AV-unprocessed.smi:1800|AV-procd|sdf|7265|dock3
  -GOLD-   22720 8513D 1   1.00000     0.00000
 Structure written by MMmdl.
 35 36  0  0  0  0  0  0  0  0  2 V2000
  150.9926  141.0608  157.1443 C   0  0  0  0  0  0  0  0  0  0  0  0
  151.4678  140.5686  158.5183 C   0  0  2  0  0  0  0  0  0  0  0  0
  152.4629  141.5609  159.1730 C   0  0  0  0  0  0  0  0  0  0  0  0
  151.9915  142.9424  159.2233 N   0  0  0  0  0  0  0  0  0  0  0  0
  152.6465  144.0634  159.6985 C   0  0  0  0  0  0  0  0  0  0  0  0
  151.8030  145.1265  159.5476 C   0  0  0  0  0  0  0  0  0  0  0  0
  150.6347  144.5514  158.9752 C   0  0  0  0  0  0  0  0  0  0  0  0
  150.7426  143.2453  158.7974 N   0  0  0  0  0  0  0  0  0  0  0  0
  152.0924  139.2622  158.3607 N   0  5  0  0  0  0  0  0  0  0  0  0
  151.1757  137.9667  158.0264 S   0  0  0  0  0  0  0  0  0  0  0  0
  151.2179  136.9512  159.0919 O   0  0  0  0  0  0  0  0  0  0  0  0
  149.8449  138.3460  157.5246 O   0  0  0  0  0  0  0  0  0  0  0  0
  152.1067  137.2650  156.5793 C   0  0  0  0  0  0  0  0  0  0  0  0
  153.1325  138.2625  156.0321 C   0  0  0  0  0  0  0  0  0  0  0  0
  152.3349  139.1787  155.1015 C   0  0  0  0  0  0  0  0  0  0  0  0
  151.1803  138.3223  154.5611 C   0  0  0  0  0  0  0  0  0  0  0  0
  151.1823  137.0218  155.3789 C   0  0  0  0  0  0  0  0  0  0  0  0
  150.5035  142.0318  157.2254 H   0  0  0  0  0  0  0  0  0  0  0  0
  150.2740  140.3679  156.7048 H   0  0  0  0  0  0  0  0  0  0  0  0
  151.8250  141.1663  156.4473 H   0  0  0  0  0  0  0  0  0  0  0  0
  150.5850  140.5162  159.1573 H   0  0  0  0  0  0  0  0  0  0  0  0
  152.7142  141.2346  160.1841 H   0  0  0  0  0  0  0  0  0  0  0  0
  153.3993  141.5584  158.6140 H   0  0  0  0  0  0  0  0  0  0  0  0
  153.6514  144.0110  160.0905 H   0  0  0  0  0  0  0  0  0  0  0  0
  151.9935  146.1577  159.8046 H   0  0  0  0  0  0  0  0  0  0  0  0
  149.7146  145.0402  158.6908 H   0  0  0  0  0  0  0  0  0  0  0  0
  152.5957  136.3502  156.9148 H   0  0  0  0  0  0  0  0  0  0  0  0
  153.6638  138.8133  156.8082 H   0  0  0  0  0  0  0  0  0  0  0  0
  153.8812  137.7232  155.4507 H   0  0  0  0  0  0  0  0  0  0  0  0
  151.9328  140.0181  155.6702 H   0  0  0  0  0  0  0  0  0  0  0  0
  152.9534  139.5919  154.3046 H   0  0  0  0  0  0  0  0  0  0  0  0
  150.2329  138.8510  154.6710 H   0  0  0  0  0  0  0  0  0  0  0  0
  151.3104  138.1066  153.5003 H   0  0  0  0  0  0  0  0  0  0  0  0
  151.5955  136.2176  154.7694 H   0  0  0  0  0  0  0  0  0  0  0  0
  150.1795  136.7130  155.6759 H   0  0  0  0  0  0  0  0  0  0  0  0
  1  2  1  0  0  0  0
  1 18  1  0  0  0  0
  1 19  1  0  0  0  0
  1 20  1  0  0  0  0
  2  3  1  0  0  0  0
  2  9  1  0  0  0  0
  2 21  1  0  0  0  0
  3  4  1  0  0  0  0
  3 22  1  0  0  0  0
  3 23  1  0  0  0  0
  4  8  1  0  0  0  0
  4  5  1  0  0  0  0
  5  6  2  0  0  0  0
  5 24  1  0  0  0  0
  6  7  1  0  0  0  0
  6 25  1  0  0  0  0
  7  8  2  0  0  0  0
  7 26  1  0  0  0  0
  9 10  1  0  0  0  0
 10 11  2  0  0  0  0
 10 12  2  0  0  0  0
 10 13  1  0  0  0  0
 13 17  1  0  0  0  0
 13 14  1  0  0  0  0
 13 27  1  0  0  0  0
 14 15  1  0  0  0  0
 14 28  1  0  0  0  0
 14 29  1  0  0  0  0
 15 16  1  0  0  0  0
 15 30  1  0  0  0  0
 15 31  1  0  0  0  0
 16 17  1  0  0  0  0
 16 32  1  0  0  0  0
 16 33  1  0  0  0  0
 17 34  1  0  0  0  0
 17 35  1  0  0  0  0
M  CHG  1   9  -1
M  END
> <s_m_source_file>
AV-unprocessed.smi

> <i_m_source_file_index>
1800

> <i_lp_mmshare_version>
43012

> <i_f3d_flags>
0

> <s_epik_input>
bjFbY0hdW2NIXVtjSF1uMVtDSDJdW0NAQEhdKFtDSDNdKVtOSF1TKD1PKSg9TylbQ0hdMltDSDJdW0NIMl1bQ0gyXVtDSDJdMg==

> <s_epik_cmdline>
J2VwaWtfcHl0aG9uJywgJy1waCcsICc3LjAnLCAnLXRuJywgJzgnLCAnLW1hJywgJzIwMCcsICctbWV0YWxfYmluZGluZycsICctaW1hZScsICc8aW5maWxlLm1hZT4nLCAnLW9tYWUnLCAnPG91dGZpbGUubWFlPic=

> <r_lp_tautomer_probability>
1

> <r_epik_Ionization_Penalty>
6.58538

> <r_epik_Ionization_Penalty_Charging>
6.58536

> <r_epik_Ionization_Penalty_Neutral>
2.3841e-05

> <r_epik_State_Penalty>
6.58535

> <r_epik_Charging_Adjusted_Penalty>
13.1707

> <i_epik_Tot_Q>
-1

> <i_epik_Tot_abs_Q>
1

> <r_epik_Metal_State_Penalty>
2.50999

> <b_epik_Metal_Only>
1

> <s_lp_Force_Field>
OPLS_2005

> <r_lp_Energy>
15.5641

> <b_lp_Chiralities_Consistent>
1

> <s_lp_Variant>
AV-unprocessed.smi:1800-3

> <Gold.Version>
5.8.1

> <Gold.Id.Protein>
6NUR|6NUR_protein|mol2

> <Gold.PLP.Fitness>
38.4994

> <Gold.PLP.PLP>
-33.9186

> <Gold.PLP.part.hbond>
-1.0000

> <Gold.PLP.part.metal>
0.0000

> <Gold.PLP.part.buried>
-5.3416

> <Gold.PLP.part.nonpolar>
-28.7752

> <Gold.PLP.part.repulsive>
0.1088

> <Gold.PLP.ligand.clash>
0.3872

> <Gold.PLP.ligand.torsion>
1.0763

> <Gold.PLP.Chemscore.Hbond>
1.0000

> <Gold.PLP.Chemscore.CHOScore>
1.0107

> <Gold.PLP.Chemscore.Metal>
0.0000

> <Gold.Chemscore.Hbonds>
donor molecule, donor type, donor heavy atom, donor atom, acceptor molecule, acceptor atom, score
      P1  H  6896  6907       L1    11  0.98
      L1  C     7    26       P1  8029  1.00

> <Gold.PLP.Chemscore.Internal.Correction>
1.0886

> <Gold.Rescore>
     Score         DG    S(hbond)    S(metal)    S(lipo)     H(rot)  DE(clash)    DE(int)     intcor
     13.02     -15.27       0.99        0.00      88.57       1.51       0.00       2.25       ----

> <Gold.Chemscore.Fitness>
13.0176

> <Gold.Chemscore.DG>
-15.2694

> <Gold.Chemscore.ZeroCoef>
-5.4800

> <Gold.Chemscore.Hbond>
0.9891

> <Gold.Chemscore.Metal>
0.0000

> <Gold.Chemscore.Lipo>
88.5748

> <Gold.Chemscore.Internal_Hbond>
0.0000

> <Gold.Chemscore.DEClash>
0.0000

> <Gold.Chemscore.DEInternal>
2.2518

> <Gold.Chemscore.Rot>
1.5146

> <Gold.Chemscore.Internal.Correction>
   9.000000E+99

> <Gold.Chemscore.Hbonds>
donor molecule, donor type, donor heavy atom, donor atom, acceptor molecule, acceptor atom, score
      P1  H  6896  6907       L1    11  0.86

> <Gold.Chemscore.Hbond.Weighted>
-3.3035

> <Gold.Chemscore.Metal.Weighted>
-0.0000

> <Gold.Chemscore.Lipo.Weighted>
-10.3632

> <Gold.Chemscore.Internal_Hbond.Weighted>
0.0000

> <Gold.Chemscore.DEClash.Weighted>
0.0000

> <Gold.Chemscore.DEInternal.Weighted>
2.2518

> <Gold.Chemscore.Rot.Weighted>
3.8773

> <Gold.Chemscore.Internal.Correction.Weighted>
   9.000000E+99

> <Gold.Protein.RotatedTorsions>
[ 6907 6896 6895 6894 ] final    1.79 input  -60.11 | X-H torsion
[ 7974 7965 7964 7962 ] final  -94.47 input  175.53 | X-H torsion
[ 8008 7997 7996 7995 ] final   54.45 input   59.86 | X-H torsion
[ 10167 10162 10161 10158 ] final   96.67 input  -65.29 | X-H torsion
[ 10718 10713 10712 10709 ] final  -69.25 input   66.30 | X-H torsion
[ 10763 10752 10751 10750 ] final  162.63 input  -60.55 | X-H torsion
[ 11005 11000 10999 10996 ] final   32.35 input  -57.11 | X-H torsion

> <Gold.Protein.ActiveResidues>
 VAL166  LYS551  ARG553  GLY616  TRP617  ASP618  TYR619  PRO620  LYS621  CYS622 
 ASP623  PHE694  ASN695  SER759  ASP760  ASP761  ALA762  ILE779  LEU786  VAL792 
 PHE793  MET794  SER795  GLU796  ALA797  LYS798  CYS799  TRP800  GLU811  SER814 

> <Gold.Protein.RotatedAtoms>
  151.5984  135.1049  160.0054 H   0  0  0  0  0  0  0  0  0  0  0  0  # atno 6907 bound_to 6896
  152.4271  133.7209  159.6543 H   0  0  0  0  0  0  0  0  0  0  0  0  # atno 6908 bound_to 6896
  150.8160  133.8264  159.3182 H   0  0  0  0  0  0  0  0  0  0  0  0  # atno 6909 bound_to 6896
  145.3729  140.9508  143.2437 H   0  0  0  0  0  0  0  0  0  0  0  0  # atno 7974 bound_to 7965
  155.4848  140.3469  155.4345 H   0  0  0  0  0  0  0  0  0  0  0  0  # atno 8008 bound_to 7997
  156.1015  140.1437  156.9489 H   0  0  0  0  0  0  0  0  0  0  0  0  # atno 8009 bound_to 7997
  154.4697  140.0905  156.7090 H   0  0  0  0  0  0  0  0  0  0  0  0  # atno 8010 bound_to 7997
  139.7873  144.6866  150.9940 H   0  0  0  0  0  0  0  0  0  0  0  0  # atno 10167 bound_to 10162
  156.0465  130.4309  150.2120 H   0  0  0  0  0  0  0  0  0  0  0  0  # atno 10718 bound_to 10713
  154.2814  135.2763  155.2695 H   0  0  0  0  0  0  0  0  0  0  0  0  # atno 10763 bound_to 10752
  154.5215  135.5755  153.6688 H   0  0  0  0  0  0  0  0  0  0  0  0  # atno 10764 bound_to 10752
  152.9928  135.6205  154.2973 H   0  0  0  0  0  0  0  0  0  0  0  0  # atno 10765 bound_to 10752
  140.2744  134.3045  155.7818 H   0  0  0  0  0  0  0  0  0  0  0  0  # atno 11005 bound_to 11000
  144.8563  139.5244  143.6833 LP  0  0  0  0  0  0  0  0  0  0  0  0  # atno 17320 bound_to 7965
  146.2877  139.7051  142.9183 LP  0  0  0  0  0  0  0  0  0  0  0  0  # atno 17321 bound_to 7965
  140.7820  143.4418  151.0540 LP  0  0  0  0  0  0  0  0  0  0  0  0  # atno 17342 bound_to 10162
  139.8097  143.7969  152.3170 LP  0  0  0  0  0  0  0  0  0  0  0  0  # atno 17343 bound_to 10162
  157.0209  130.9979  151.3340 LP  0  0  0  0  0  0  0  0  0  0  0  0  # atno 17370 bound_to 10713
  157.5345  130.8080  149.7956 LP  0  0  0  0  0  0  0  0  0  0  0  0  # atno 17371 bound_to 10713
  141.2172  133.7486  156.9384 LP  0  0  0  0  0  0  0  0  0  0  0  0  # atno 17394 bound_to 11000
  140.1343  134.9336  157.2379 LP  0  0  0  0  0  0  0  0  0  0  0  0  # atno 17395 bound_to 11000

$$$$
