AV-unprocessed.smi:1692|AV-procd|sdf|6778|dock5
  -GOLD-   22720 7533D 1   1.00000     0.00000
 Structure written by MMmdl.
 46 47  0  0  0  0  0  0  0  0  2 V2000
  150.6370  140.8315  157.6611 C   0  0  0  0  0  0  0  0  0  0  0  0
  150.8850  141.1061  156.1670 C   0  0  2  0  0  0  0  0  0  0  0  0
  149.6122  141.5040  155.3946 C   0  0  0  0  0  0  0  0  0  0  0  0
  148.7266  140.3348  155.1800 N   0  3  1  0  0  0  0  0  0  0  0  0
  147.4640  140.7033  154.4923 C   0  0  0  0  0  0  0  0  0  0  0  0
  146.6577  139.4713  154.0369 C   0  0  0  0  0  0  0  0  0  0  0  0
  146.7657  139.1718  152.5299 C   0  0  0  0  0  0  0  0  0  0  0  0
  146.9316  137.7485  152.2458 N   0  0  0  0  0  0  0  0  0  0  0  0
  145.9342  136.8814  152.0154 C   0  0  0  0  0  0  0  0  0  0  0  0
  144.7439  137.1942  152.0537 O   0  0  0  0  0  0  0  0  0  0  0  0
  146.4073  135.6513  151.7487 N   0  0  0  0  0  0  0  0  0  0  0  0
  145.6689  134.4694  151.4717 C   0  0  0  0  0  0  0  0  0  0  0  0
  146.4356  133.2835  151.4154 C   0  0  0  0  0  0  0  0  0  0  0  0
  145.7969  132.0575  151.1464 C   0  0  0  0  0  0  0  0  0  0  0  0
  144.4056  132.0487  150.9417 C   0  0  0  0  0  0  0  0  0  0  0  0
  143.7164  133.2731  151.0174 C   0  0  0  0  0  0  0  0  0  0  0  0
  144.3267  134.4491  151.2756 N   0  0  0  0  0  0  0  0  0  0  0  0
  149.4719  139.2441  154.5065 C   0  0  0  0  0  0  0  0  0  0  0  0
  150.7200  138.8615  155.3224 C   0  0  1  0  0  0  0  0  0  0  0  0
  151.5685  137.8016  154.6108 C   0  0  0  0  0  0  0  0  0  0  0  0
  151.5348  140.0147  155.5161 O   0  0  0  0  0  0  0  0  0  0  0  0
  150.2659  141.7262  158.1615 H   0  0  0  0  0  0  0  0  0  0  0  0
  151.5600  140.5356  158.1601 H   0  0  0  0  0  0  0  0  0  0  0  0
  149.9023  140.0433  157.8220 H   0  0  0  0  0  0  0  0  0  0  0  0
  151.5799  141.9446  156.1133 H   0  0  0  0  0  0  0  0  0  0  0  0
  149.0803  142.2870  155.9370 H   0  0  0  0  0  0  0  0  0  0  0  0
  149.8865  141.9229  154.4248 H   0  0  0  0  0  0  0  0  0  0  0  0
  146.8503  141.2760  155.1877 H   0  0  0  0  0  0  0  0  0  0  0  0
  147.6753  141.3645  153.6506 H   0  0  0  0  0  0  0  0  0  0  0  0
  147.0012  138.5875  154.5734 H   0  0  0  0  0  0  0  0  0  0  0  0
  145.6088  139.5991  154.3078 H   0  0  0  0  0  0  0  0  0  0  0  0
  145.9045  139.5798  151.9979 H   0  0  0  0  0  0  0  0  0  0  0  0
  147.6381  139.6861  152.1258 H   0  0  0  0  0  0  0  0  0  0  0  0
  147.8797  137.4048  152.1941 H   0  0  0  0  0  0  0  0  0  0  0  0
  147.4111  135.5470  151.7388 H   0  0  0  0  0  0  0  0  0  0  0  0
  147.5042  133.3081  151.5740 H   0  0  0  0  0  0  0  0  0  0  0  0
  146.3657  131.1407  151.0974 H   0  0  0  0  0  0  0  0  0  0  0  0
  143.8801  131.1288  150.7323 H   0  0  0  0  0  0  0  0  0  0  0  0
  142.6477  133.3098  150.8664 H   0  0  0  0  0  0  0  0  0  0  0  0
  148.8382  138.3657  154.3891 H   0  0  0  0  0  0  0  0  0  0  0  0
  149.7599  139.5651  153.5041 H   0  0  0  0  0  0  0  0  0  0  0  0
  150.4173  138.4573  156.2885 H   0  0  0  0  0  0  0  0  0  0  0  0
  150.9973  136.8881  154.4431 H   0  0  0  0  0  0  0  0  0  0  0  0
  152.4444  137.5408  155.2054 H   0  0  0  0  0  0  0  0  0  0  0  0
  151.9188  138.1600  153.6424 H   0  0  0  0  0  0  0  0  0  0  0  0
  148.4707  140.0008  156.0982 H   0  0  0  0  0  0  0  0  0  0  0  0
  1  2  1  0  0  0  0
  1 22  1  0  0  0  0
  1 23  1  0  0  0  0
  1 24  1  0  0  0  0
  2 21  1  0  0  0  0
  2  3  1  0  0  0  0
  2 25  1  0  0  0  0
  3  4  1  0  0  0  0
  3 26  1  0  0  0  0
  3 27  1  0  0  0  0
  4  5  1  0  0  0  0
  4 18  1  0  0  0  0
  4 46  1  0  0  0  0
  5  6  1  0  0  0  0
  5 28  1  0  0  0  0
  5 29  1  0  0  0  0
  6  7  1  0  0  0  0
  6 30  1  0  0  0  0
  6 31  1  0  0  0  0
  7  8  1  0  0  0  0
  7 32  1  0  0  0  0
  7 33  1  0  0  0  0
  8  9  1  0  0  0  0
  8 34  1  0  0  0  0
  9 10  2  0  0  0  0
  9 11  1  0  0  0  0
 11 12  1  0  0  0  0
 11 35  1  0  0  0  0
 12 17  1  0  0  0  0
 12 13  2  0  0  0  0
 13 14  1  0  0  0  0
 13 36  1  0  0  0  0
 14 15  2  0  0  0  0
 14 37  1  0  0  0  0
 15 16  1  0  0  0  0
 15 38  1  0  0  0  0
 16 17  2  0  0  0  0
 16 39  1  0  0  0  0
 18 19  1  0  0  0  0
 18 40  1  0  0  0  0
 18 41  1  0  0  0  0
 19 20  1  0  0  0  0
 19 21  1  0  0  0  0
 19 42  1  0  0  0  0
 20 43  1  0  0  0  0
 20 44  1  0  0  0  0
 20 45  1  0  0  0  0
M  CHG  1   4   1
M  END
> <s_m_source_file>
AV-unprocessed.smi

> <i_m_source_file_index>
1692

> <i_lp_mmshare_version>
43012

> <i_f3d_flags>
0

> <s_epik_input>
W0NIM11bQ0BASF0xW0NIMl1OKFtDSDJdW0NASF0oTzEpW0NIM10pW0NIMl1bQ0gyXVtDSDJdW05IXUMoPU8pW05IXWMyW2NIXVtjSF1bY0hdW2NIXW4y

> <s_epik_cmdline>
J2VwaWtfcHl0aG9uJywgJy1waCcsICc3LjAnLCAnLXRuJywgJzgnLCAnLW1hJywgJzIwMCcsICctbWV0YWxfYmluZGluZycsICctaW1hZScsICc8aW5maWxlLm1hZT4nLCAnLW9tYWUnLCAnPG91dGZpbGUubWFlPic=

> <r_epik_Ionization_Penalty>
0.270538

> <r_epik_Ionization_Penalty_Charging>
0.270496

> <r_epik_Ionization_Penalty_Neutral>
4.22978e-05

> <r_epik_State_Penalty>
0.262618

> <r_epik_Charging_Adjusted_Penalty>
0.533114

> <i_epik_Tot_Q>
1

> <i_epik_Tot_abs_Q>
1

> <r_epik_Metal_State_Penalty>
0.262618

> <b_epik_Metal_Only>
0

> <s_lp_Force_Field>
OPLS_2005

> <r_lp_Energy>
21.1516

> <b_lp_Chiralities_Consistent>
1

> <s_lp_Variant>
AV-unprocessed.smi:1692-1

> <Gold.Version>
5.8.1

> <Gold.Id.Protein>
6NUR|6NUR_protein|mol2

> <Gold.PLP.Fitness>
48.4763

> <Gold.PLP.PLP>
-38.3636

> <Gold.PLP.part.hbond>
-3.0000

> <Gold.PLP.part.metal>
0.0000

> <Gold.PLP.part.buried>
-6.4205

> <Gold.PLP.part.nonpolar>
-31.4758

> <Gold.PLP.part.repulsive>
2.1264

> <Gold.PLP.ligand.clash>
0.0000

> <Gold.PLP.ligand.torsion>
0.9032

> <Gold.PLP.Chemscore.Hbond>
2.9600

> <Gold.PLP.Chemscore.CHOScore>
1.0000

> <Gold.PLP.Chemscore.Metal>
0.0000

> <Gold.Chemscore.Hbonds>
donor molecule, donor type, donor heavy atom, donor atom, acceptor molecule, acceptor atom, score
      L1  H     8    34       P1  7948  1.00
      L1  H    11    35       P1  7948  1.00
      P1  H  7989  7998       L1    21  0.55
      L1  C    16    39       P1 10186  1.00

> <Gold.PLP.Chemscore.Internal.Correction>
0.0392

> <Gold.Rescore>
     Score         DG    S(hbond)    S(metal)    S(lipo)     H(rot)  DE(clash)    DE(int)     intcor
     16.47     -18.78       2.23        0.00      88.90       1.78       0.12       2.18       ----

> <Gold.Chemscore.Fitness>
16.4732

> <Gold.Chemscore.DG>
-18.7752

> <Gold.Chemscore.ZeroCoef>
-5.4800

> <Gold.Chemscore.Hbond>
2.2318

> <Gold.Chemscore.Metal>
0.0000

> <Gold.Chemscore.Lipo>
88.9003

> <Gold.Chemscore.Internal_Hbond>
0.0000

> <Gold.Chemscore.DEClash>
0.1221

> <Gold.Chemscore.DEInternal>
2.1799

> <Gold.Chemscore.Rot>
1.7814

> <Gold.Chemscore.Internal.Correction>
   9.000000E+99

> <Gold.Chemscore.Hbonds>
donor molecule, donor type, donor heavy atom, donor atom, acceptor molecule, acceptor atom, score
      L1  H     8    34       P1  7948  0.94
      L1  H    11    35       P1  7948  0.94
      P1  H  7989  7998       L1    21  0.04

> <Gold.Chemscore.Hbond.Weighted>
-7.4542

> <Gold.Chemscore.Metal.Weighted>
-0.0000

> <Gold.Chemscore.Lipo.Weighted>
-10.4013

> <Gold.Chemscore.Internal_Hbond.Weighted>
0.0000

> <Gold.Chemscore.DEClash.Weighted>
0.1221

> <Gold.Chemscore.DEInternal.Weighted>
2.1799

> <Gold.Chemscore.Rot.Weighted>
4.5603

> <Gold.Chemscore.Internal.Correction.Weighted>
   9.000000E+99

> <Gold.Protein.RotatedTorsions>
[ 6907 6896 6895 6894 ] final  -31.58 input  -60.11 | X-H torsion
[ 7974 7965 7964 7962 ] final   -3.68 input  175.53 | X-H torsion
[ 8008 7997 7996 7995 ] final  -77.16 input   59.86 | X-H torsion
[ 10167 10162 10161 10158 ] final -103.73 input  -65.29 | X-H torsion
[ 10718 10713 10712 10709 ] final   58.37 input   66.30 | X-H torsion
[ 10763 10752 10751 10750 ] final  171.74 input  -60.55 | X-H torsion
[ 11005 11000 10999 10996 ] final  125.91 input  -57.11 | X-H torsion

> <Gold.Protein.ActiveResidues>
 VAL166  LYS551  ARG553  GLY616  TRP617  ASP618  TYR619  PRO620  LYS621  CYS622 
 ASP623  PHE694  ASN695  SER759  ASP760  ASP761  ALA762  ILE779  LEU786  VAL792 
 PHE793  MET794  SER795  GLU796  ALA797  LYS798  CYS799  TRP800  GLU811  SER814 

> <Gold.Protein.RotatedAtoms>
  151.0902  134.9911  159.8398 H   0  0  0  0  0  0  0  0  0  0  0  0  # atno 6907 bound_to 6896
  152.5428  134.2075  159.8747 H   0  0  0  0  0  0  0  0  0  0  0  0  # atno 6908 bound_to 6896
  151.2111  133.4511  159.2631 H   0  0  0  0  0  0  0  0  0  0  0  0  # atno 6909 bound_to 6896
  146.2385  140.1758  142.8332 H   0  0  0  0  0  0  0  0  0  0  0  0  # atno 7974 bound_to 7965
  154.5571  140.0715  156.8760 H   0  0  0  0  0  0  0  0  0  0  0  0  # atno 8008 bound_to 7997
  155.2882  140.3376  155.4236 H   0  0  0  0  0  0  0  0  0  0  0  0  # atno 8009 bound_to 7997
  156.2011  140.1722  156.7883 H   0  0  0  0  0  0  0  0  0  0  0  0  # atno 8010 bound_to 7997
  140.2169  143.3705  152.1003 H   0  0  0  0  0  0  0  0  0  0  0  0  # atno 10167 bound_to 10162
  157.5590  130.8822  149.9081 H   0  0  0  0  0  0  0  0  0  0  0  0  # atno 10718 bound_to 10713
  154.4162  135.2757  155.2005 H   0  0  0  0  0  0  0  0  0  0  0  0  # atno 10763 bound_to 10752
  154.3970  135.6053  153.5879 H   0  0  0  0  0  0  0  0  0  0  0  0  # atno 10764 bound_to 10752
  152.9832  135.5917  154.4451 H   0  0  0  0  0  0  0  0  0  0  0  0  # atno 10765 bound_to 10752
  139.9429  134.9633  156.8628 H   0  0  0  0  0  0  0  0  0  0  0  0  # atno 11005 bound_to 11000
  144.9974  140.8602  143.5302 LP  0  0  0  0  0  0  0  0  0  0  0  0  # atno 17320 bound_to 7965
  145.1773  139.2371  143.5311 LP  0  0  0  0  0  0  0  0  0  0  0  0  # atno 17321 bound_to 7965
  139.5159  144.6969  151.5604 LP  0  0  0  0  0  0  0  0  0  0  0  0  # atno 17342 bound_to 10162
  140.6283  143.9125  150.6584 LP  0  0  0  0  0  0  0  0  0  0  0  0  # atno 17343 bound_to 10162
  156.0645  130.3694  150.0908 LP  0  0  0  0  0  0  0  0  0  0  0  0  # atno 17370 bound_to 10713
  156.9074  130.9640  151.3568 LP  0  0  0  0  0  0  0  0  0  0  0  0  # atno 17371 bound_to 10713
  140.5905  134.0266  155.7498 LP  0  0  0  0  0  0  0  0  0  0  0  0  # atno 17394 bound_to 11000
  141.1070  133.9677  157.2978 LP  0  0  0  0  0  0  0  0  0  0  0  0  # atno 17395 bound_to 11000

$$$$
