AV-unprocessed.smi:72|AV-procd|sdf|693|dock4
  -GOLD-   2262017 03D 1   1.00000     0.00000
 Structure written by MMmdl.
 29 30  0  0  0  0  0  0  0  0  1 V2000
  153.6382  138.8538  155.7069 N   0  0  0  0  0  0  0  0  0  0  0  0
  152.3890  138.9227  155.4150 C   0  0  0  0  0  0  0  0  0  0  0  0
  151.6842  137.9907  154.6389 N   0  0  0  0  0  0  0  0  0  0  0  0
  150.4195  138.1884  154.4250 C   0  0  0  0  0  0  0  0  0  0  0  0
  149.7126  139.3427  154.9639 N   0  0  0  0  0  0  0  0  0  0  0  0
  148.2324  139.5781  154.7198 C   0  0  2  0  0  0  0  0  0  0  0  0
  147.6683  138.4628  154.0892 O   0  0  0  0  0  0  0  0  0  0  0  0
  147.3537  138.7701  152.7333 C   0  0  1  0  0  0  0  0  0  0  0  0
  146.2415  137.8362  152.2333 C   0  0  0  0  0  0  0  0  0  0  0  0
  146.3585  137.6493  150.8390 O   0  0  0  0  0  0  0  0  0  0  0  0
  146.9272  140.2333  152.8407 C   0  0  2  0  0  0  0  0  0  0  0  0
  146.9071  140.9009  151.5926 O   0  0  0  0  0  0  0  0  0  0  0  0
  147.9445  140.8063  153.8229 C   0  0  2  0  0  0  0  0  0  0  0  0
  149.0954  141.3159  153.1652 O   0  0  0  0  0  0  0  0  0  0  0  0
  150.4133  140.2942  155.7445 C   0  0  0  0  0  0  0  0  0  0  0  0
  149.8663  141.2942  156.2094 O   0  0  0  0  0  0  0  0  0  0  0  0
  151.7252  140.0395  155.9383 N   0  0  0  0  0  0  0  0  0  0  0  0
  147.7818  139.6547  155.7109 H   0  0  0  0  0  0  0  0  0  0  0  0
  148.2466  138.6925  152.1100 H   0  0  0  0  0  0  0  0  0  0  0  0
  145.9326  140.2896  153.2862 H   0  0  0  0  0  0  0  0  0  0  0  0
  147.5104  141.6050  154.4254 H   0  0  0  0  0  0  0  0  0  0  0  0
  154.0437  138.0253  155.2954 H   0  0  0  0  0  0  0  0  0  0  0  0
  149.8159  137.5030  153.8303 H   0  0  0  0  0  0  0  0  0  0  0  0
  146.2666  136.8762  152.7498 H   0  0  0  0  0  0  0  0  0  0  0  0
  145.2641  138.2807  152.4225 H   0  0  0  0  0  0  0  0  0  0  0  0
  145.5071  137.7708  150.4474 H   0  0  0  0  0  0  0  0  0  0  0  0
  147.7186  140.7201  151.1432 H   0  0  0  0  0  0  0  0  0  0  0  0
  149.3724  140.6867  152.5171 H   0  0  0  0  0  0  0  0  0  0  0  0
  152.2545  140.6988  156.4899 H   0  0  0  0  0  0  0  0  0  0  0  0
  1  2  2  0  0  0  0
  1 22  1  0  0  0  0
  2 17  1  0  0  0  0
  2  3  1  0  0  0  0
  3  4  2  0  0  0  0
  4  5  1  0  0  0  0
  4 23  1  0  0  0  0
  5  6  1  0  0  0  0
  5 15  1  0  0  0  0
  6 18  1  0  0  0  0
  6 13  1  0  0  0  0
  6  7  1  0  0  0  0
  7  8  1  0  0  0  0
  8 19  1  0  0  0  0
  8  9  1  0  0  0  0
  8 11  1  0  0  0  0
  9 10  1  0  0  0  0
  9 24  1  0  0  0  0
  9 25  1  0  0  0  0
 10 26  1  0  0  0  0
 11 20  1  0  0  0  0
 11 12  1  0  0  0  0
 11 13  1  0  0  0  0
 12 27  1  0  0  0  0
 13 21  1  0  0  0  0
 13 14  1  0  0  0  0
 14 28  1  0  0  0  0
 15 16  2  0  0  0  0
 15 17  1  0  0  0  0
 17 29  1  0  0  0  0
M  END
> <s_m_source_file>
AV-unprocessed.smi

> <i_m_source_file_index>
72

> <i_lp_mmshare_version>
43012

> <i_f3d_flags>
0

> <s_epik_input>
W05IMl1jMW5bY0hdbihjKD1PKW4xKVtDQEBIXTJPW0NASF0oW0NIMl1bT0hdKVtDQEBIXShbT0hdKVtDQEhdMltPSF0=

> <s_epik_cmdline>
J2VwaWtfcHl0aG9uJywgJy1waCcsICc3LjAnLCAnLXRuJywgJzgnLCAnLW1hJywgJzIwMCcsICctbWV0YWxfYmluZGluZycsICctaW1hZScsICc8aW5maWxlLm1hZT4nLCAnLW9tYWUnLCAnPG91dGZpbGUubWFlPic=

> <r_lp_tautomer_probability>
7.17554e-07

> <r_epik_Ionization_Penalty>
0.0066451

> <r_epik_Ionization_Penalty_Charging>
0.00663793

> <r_epik_Ionization_Penalty_Neutral>
7.17052e-06

> <r_epik_State_Penalty>
0.419231

> <r_epik_Charging_Adjusted_Penalty>
0.425868

> <i_epik_Tot_Q>
0

> <i_epik_Tot_abs_Q>
0

> <r_epik_Metal_State_Penalty>
1.44144

> <b_epik_Metal_Only>
0

> <s_epik_Chemistry_Notes>
This compound contains an acetal/aminal-like group ( X-CH(R)-Y where X, Y are N, S, or O) that may be acid/base labile, releasing an aldehyde.

> <s_lp_Force_Field>
OPLS_2005

> <r_lp_Energy>
47.3952

> <b_lp_Chiralities_Consistent>
1

> <s_lp_Variant>
AV-unprocessed.smi:72-31

> <Gold.Version>
5.8.1

> <Gold.Id.Protein>
6NUR|6NUR_protein|mol2

> <Gold.PLP.Fitness>
40.5000

> <Gold.PLP.PLP>
-21.9251

> <Gold.PLP.part.hbond>
-7.5216

> <Gold.PLP.part.metal>
0.0000

> <Gold.PLP.part.buried>
3.9173

> <Gold.PLP.part.nonpolar>
-19.0230

> <Gold.PLP.part.repulsive>
0.4599

> <Gold.PLP.ligand.clash>
0.0000

> <Gold.PLP.ligand.torsion>
0.5325

> <Gold.PLP.Chemscore.Hbond>
5.5220

> <Gold.PLP.Chemscore.CHOScore>
1.0000

> <Gold.PLP.Chemscore.Metal>
0.0000

> <Gold.Chemscore.Hbonds>
donor molecule, donor type, donor heavy atom, donor atom, acceptor molecule, acceptor atom, score
      L1  H    10    26       P1 10171  1.00
      L1  H    12    27       P1  7957  1.00
      L1  H    14    28       P1  7957  0.96
      P1  H  7954  7966       L1    10  0.96
      P1  H  7997  8010       L1     1  0.80
      P1  H  8011  8017       L1    14  0.40
      L1  C     4    23       P1  7948  1.00

> <Gold.PLP.Chemscore.Internal.Correction>
0.0740

> <Gold.Rescore>
     Score         DG    S(hbond)    S(metal)    S(lipo)     H(rot)  DE(clash)    DE(int)     intcor
     11.48     -14.08       4.65        0.00      29.68       4.06       1.70       0.90       ----

> <Gold.Chemscore.Fitness>
11.4825

> <Gold.Chemscore.DG>
-14.0837

> <Gold.Chemscore.ZeroCoef>
-5.4800

> <Gold.Chemscore.Hbond>
4.6481

> <Gold.Chemscore.Metal>
0.0000

> <Gold.Chemscore.Lipo>
29.6812

> <Gold.Chemscore.Internal_Hbond>
0.0000

> <Gold.Chemscore.DEClash>
1.7040

> <Gold.Chemscore.DEInternal>
0.8971

> <Gold.Chemscore.Rot>
4.0600

> <Gold.Chemscore.Internal.Correction>
   9.000000E+99

> <Gold.Chemscore.Hbonds>
donor molecule, donor type, donor heavy atom, donor atom, acceptor molecule, acceptor atom, score
      L1  H    10    26       P1 10171  0.99
      L1  H    12    27       P1  7957  0.95
      L1  H    14    28       P1  7957  0.91
      P1  H  7954  7966       L1    10  0.88
      P1  H  7997  8010       L1     1  0.74
      P1  H  8011  8017       L1    14  0.01

> <Gold.Chemscore.Hbond.Weighted>
-15.5246

> <Gold.Chemscore.Metal.Weighted>
-0.0000

> <Gold.Chemscore.Lipo.Weighted>
-3.4727

> <Gold.Chemscore.Internal_Hbond.Weighted>
0.0000

> <Gold.Chemscore.DEClash.Weighted>
1.7040

> <Gold.Chemscore.DEInternal.Weighted>
0.8971

> <Gold.Chemscore.Rot.Weighted>
10.3936

> <Gold.Chemscore.Internal.Correction.Weighted>
   9.000000E+99

> <Gold.Protein.RotatedTorsions>
[ 6907 6896 6895 6894 ] final  175.05 input  -60.11 | X-H torsion
[ 7974 7965 7964 7962 ] final  156.78 input  175.53 | X-H torsion
[ 8008 7997 7996 7995 ] final   79.01 input   59.86 | X-H torsion
[ 10167 10162 10161 10158 ] final -126.06 input  -65.29 | X-H torsion
[ 10718 10713 10712 10709 ] final  -87.29 input   66.30 | X-H torsion
[ 10763 10752 10751 10750 ] final  -73.19 input  -60.55 | X-H torsion
[ 11005 11000 10999 10996 ] final   18.86 input  -57.11 | X-H torsion

> <Gold.Protein.ActiveResidues>
 VAL166  LYS551  ARG553  GLY616  TRP617  ASP618  TYR619  PRO620  LYS621  CYS622 
 ASP623  PHE694  ASN695  SER759  ASP760  ASP761  ALA762  ILE779  LEU786  VAL792 
 PHE793  MET794  SER795  GLU796  ALA797  LYS798  CYS799  TRP800  GLU811  SER814 

> <Gold.Protein.RotatedAtoms>
  151.7424  133.3322  159.3369 H   0  0  0  0  0  0  0  0  0  0  0  0  # atno 6907 bound_to 6896
  150.7568  134.6266  159.6173 H   0  0  0  0  0  0  0  0  0  0  0  0  # atno 6908 bound_to 6896
  152.3522  134.6992  160.0284 H   0  0  0  0  0  0  0  0  0  0  0  0  # atno 6909 bound_to 6896
  144.7942  139.7250  143.6208 H   0  0  0  0  0  0  0  0  0  0  0  0  # atno 7974 bound_to 7965
  155.8637  140.3452  155.5773 H   0  0  0  0  0  0  0  0  0  0  0  0  # atno 8008 bound_to 7997
  155.7905  140.0871  157.2031 H   0  0  0  0  0  0  0  0  0  0  0  0  # atno 8009 bound_to 7997
  154.4013  140.1484  156.3144 H   0  0  0  0  0  0  0  0  0  0  0  0  # atno 8010 bound_to 7997
  139.9754  143.5799  152.2397 H   0  0  0  0  0  0  0  0  0  0  0  0  # atno 10167 bound_to 10162
  155.9986  130.4795  150.4844 H   0  0  0  0  0  0  0  0  0  0  0  0  # atno 10718 bound_to 10713
  154.4561  135.5905  153.6224 H   0  0  0  0  0  0  0  0  0  0  0  0  # atno 10763 bound_to 10752
  152.9818  135.6032  154.3544 H   0  0  0  0  0  0  0  0  0  0  0  0  # atno 10764 bound_to 10752
  154.3411  135.2841  155.2401 H   0  0  0  0  0  0  0  0  0  0  0  0  # atno 10765 bound_to 10752
  140.4201  134.1528  155.7672 H   0  0  0  0  0  0  0  0  0  0  0  0  # atno 11005 bound_to 11000
  146.2205  139.5627  142.9621 LP  0  0  0  0  0  0  0  0  0  0  0  0  # atno 17320 bound_to 7965
  145.5715  141.0393  143.2171 LP  0  0  0  0  0  0  0  0  0  0  0  0  # atno 17321 bound_to 7965
  139.6449  144.7657  151.2263 LP  0  0  0  0  0  0  0  0  0  0  0  0  # atno 17342 bound_to 10162
  140.7507  143.6255  150.8472 LP  0  0  0  0  0  0  0  0  0  0  0  0  # atno 17343 bound_to 10162
  157.2846  131.0614  151.2175 LP  0  0  0  0  0  0  0  0  0  0  0  0  # atno 17370 bound_to 10713
  157.3209  130.6936  149.6268 LP  0  0  0  0  0  0  0  0  0  0  0  0  # atno 17371 bound_to 10713
  141.1787  133.8459  157.1332 LP  0  0  0  0  0  0  0  0  0  0  0  0  # atno 17394 bound_to 11000
  140.0206  134.9947  157.0584 LP  0  0  0  0  0  0  0  0  0  0  0  0  # atno 17395 bound_to 11000

$$$$
