AV-unprocessed.smi:3154|AV-procd|sdf|12023|dock8
  -GOLD-   2272017433D 1   1.00000     0.00000
 Structure written by MMmdl.
 34 35  0  0  0  0  0  0  0  0  1 V2000
  150.4985  144.9648  159.5897 C   0  0  0  0  0  0  0  0  0  0  0  0
  151.2048  143.8034  158.8710 C   0  0  2  0  0  0  0  0  0  0  0  0
  152.7042  143.6894  159.2489 C   0  0  0  0  0  0  0  0  0  0  0  0
  152.9397  143.2920  160.6279 N   0  0  0  0  0  0  0  0  0  0  0  0
  152.4903  143.8961  161.7839 C   0  0  0  0  0  0  0  0  0  0  0  0
  152.9591  143.1625  162.8357 C   0  0  0  0  0  0  0  0  0  0  0  0
  153.6903  142.1115  162.2147 C   0  0  0  0  0  0  0  0  0  0  0  0
  153.6722  142.1886  160.8940 N   0  0  0  0  0  0  0  0  0  0  0  0
  150.9927  143.9862  157.4370 N   0  0  0  0  0  0  0  0  0  0  0  0
  151.5779  142.9122  156.6218 C   0  0  0  0  0  0  0  0  0  0  0  0
  150.6482  141.7027  156.4911 C   0  0  0  0  0  0  0  0  0  0  0  0
  150.9694  140.6070  156.9535 O   0  0  0  0  0  0  0  0  0  0  0  0
  149.4893  141.9230  155.8529 N   0  0  0  0  0  0  0  0  0  0  0  0
  148.4739  140.9484  155.6152 C   0  0  0  0  0  0  0  0  0  0  0  0
  148.2479  140.5021  154.1869 C   0  0  0  0  0  0  0  0  0  0  0  0
  147.2391  141.3911  154.8604 C   0  0  0  0  0  0  0  0  0  0  0  0
  150.6250  144.8899  160.6701 H   0  0  0  0  0  0  0  0  0  0  0  0
  149.4274  144.9598  159.3855 H   0  0  0  0  0  0  0  0  0  0  0  0
  150.8875  145.9341  159.2759 H   0  0  0  0  0  0  0  0  0  0  0  0
  150.7030  142.8837  159.1758 H   0  0  0  0  0  0  0  0  0  0  0  0
  153.1756  142.9440  158.6070 H   0  0  0  0  0  0  0  0  0  0  0  0
  153.2415  144.6171  159.0525 H   0  0  0  0  0  0  0  0  0  0  0  0
  151.8842  144.7899  161.7610 H   0  0  0  0  0  0  0  0  0  0  0  0
  152.8032  143.3480  163.8881 H   0  0  0  0  0  0  0  0  0  0  0  0
  154.2281  141.2992  162.6809 H   0  0  0  0  0  0  0  0  0  0  0  0
  150.0002  144.0628  157.2665 H   0  0  0  0  0  0  0  0  0  0  0  0
  151.7904  143.2727  155.6162 H   0  0  0  0  0  0  0  0  0  0  0  0
  152.5228  142.5919  157.0635 H   0  0  0  0  0  0  0  0  0  0  0  0
  149.3106  142.8562  155.5116 H   0  0  0  0  0  0  0  0  0  0  0  0
  148.3147  140.1943  156.3849 H   0  0  0  0  0  0  0  0  0  0  0  0
  148.8686  140.9456  153.4105 H   0  0  0  0  0  0  0  0  0  0  0  0
  147.9721  139.4621  154.0245 H   0  0  0  0  0  0  0  0  0  0  0  0
  146.2891  140.9451  155.1477 H   0  0  0  0  0  0  0  0  0  0  0  0
  147.1857  142.4275  154.5322 H   0  0  0  0  0  0  0  0  0  0  0  0
  1  2  1  0  0  0  0
  1 17  1  0  0  0  0
  1 18  1  0  0  0  0
  1 19  1  0  0  0  0
  2  3  1  0  0  0  0
  2  9  1  0  0  0  0
  2 20  1  0  0  0  0
  3  4  1  0  0  0  0
  3 21  1  0  0  0  0
  3 22  1  0  0  0  0
  4  8  1  0  0  0  0
  4  5  1  0  0  0  0
  5  6  2  0  0  0  0
  5 23  1  0  0  0  0
  6  7  1  0  0  0  0
  6 24  1  0  0  0  0
  7  8  2  0  0  0  0
  7 25  1  0  0  0  0
  9 10  1  0  0  0  0
  9 26  1  0  0  0  0
 10 11  1  0  0  0  0
 10 27  1  0  0  0  0
 10 28  1  0  0  0  0
 11 12  2  0  0  0  0
 11 13  1  0  0  0  0
 13 14  1  0  0  0  0
 13 29  1  0  0  0  0
 14 16  1  0  0  0  0
 14 15  1  0  0  0  0
 14 30  1  0  0  0  0
 15 16  1  0  0  0  0
 15 31  1  0  0  0  0
 15 32  1  0  0  0  0
 16 33  1  0  0  0  0
 16 34  1  0  0  0  0
M  END
> <s_m_source_file>
AV-unprocessed.smi

> <i_m_source_file_index>
3154

> <i_lp_mmshare_version>
43012

> <i_f3d_flags>
0

> <s_epik_input>
bjFbY0hdW2NIXVtjSF1uMVtDSDJdW0NAQEhdKFtDSDNdKVtOSF1bQ0gyXUMoPU8pW05IXVtDSF0yW0NIMl1bQ0gyXTI=

> <s_epik_cmdline>
J2VwaWtfcHl0aG9uJywgJy1waCcsICc3LjAnLCAnLXRuJywgJzgnLCAnLW1hJywgJzIwMCcsICctbWV0YWxfYmluZGluZycsICctaW1hZScsICc8aW5maWxlLm1hZT4nLCAnLW9tYWUnLCAnPG91dGZpbGUubWFlPic=

> <r_lp_tautomer_probability>
1

> <r_epik_Ionization_Penalty>
1.00229

> <r_epik_Ionization_Penalty_Charging>
0

> <r_epik_Ionization_Penalty_Neutral>
1.00229

> <r_epik_State_Penalty>
1.0509

> <r_epik_Charging_Adjusted_Penalty>
1.0509

> <i_epik_Tot_Q>
0

> <i_epik_Tot_abs_Q>
0

> <r_epik_Metal_State_Penalty>
1.05084

> <b_epik_Metal_Only>
0

> <s_lp_Force_Field>
OPLS_2005

> <r_lp_Energy>
19.1763

> <b_lp_Chiralities_Consistent>
1

> <s_lp_Variant>
AV-unprocessed.smi:3154-3

> <Gold.Version>
5.8.1

> <Gold.Id.Protein>
6NUR|6NUR_protein|mol2

> <Gold.PLP.Fitness>
45.1980

> <Gold.PLP.PLP>
-40.4423

> <Gold.PLP.part.hbond>
-1.8565

> <Gold.PLP.part.metal>
0.0000

> <Gold.PLP.part.buried>
-6.4585

> <Gold.PLP.part.nonpolar>
-32.2031

> <Gold.PLP.part.repulsive>
0.1912

> <Gold.PLP.ligand.clash>
0.0000

> <Gold.PLP.ligand.torsion>
0.2389

> <Gold.PLP.Chemscore.Hbond>
1.7200

> <Gold.PLP.Chemscore.CHOScore>
0.0000

> <Gold.PLP.Chemscore.Metal>
0.0000

> <Gold.Chemscore.Hbonds>
donor molecule, donor type, donor heavy atom, donor atom, acceptor molecule, acceptor atom, score
      L1  H     9    26       P1  8028  0.66
      L1  H    13    29       P1  8028  1.00

> <Gold.PLP.Chemscore.Internal.Correction>
0.0734

> <Gold.Rescore>
     Score         DG    S(hbond)    S(metal)    S(lipo)     H(rot)  DE(clash)    DE(int)     intcor
     14.57     -16.27       1.42        0.00      98.19       2.12       1.46       0.24       ----

> <Gold.Chemscore.Fitness>
14.5725

> <Gold.Chemscore.DG>
-16.2715

> <Gold.Chemscore.ZeroCoef>
-5.4800

> <Gold.Chemscore.Hbond>
1.4181

> <Gold.Chemscore.Metal>
0.0000

> <Gold.Chemscore.Lipo>
98.1945

> <Gold.Chemscore.Internal_Hbond>
0.0000

> <Gold.Chemscore.DEClash>
1.4585

> <Gold.Chemscore.DEInternal>
0.2404

> <Gold.Chemscore.Rot>
2.1225

> <Gold.Chemscore.Internal.Correction>
   9.000000E+99

> <Gold.Chemscore.Hbonds>
donor molecule, donor type, donor heavy atom, donor atom, acceptor molecule, acceptor atom, score
      L1  H     9    26       P1  8028  0.45
      L1  H    13    29       P1  8028  0.98

> <Gold.Chemscore.Hbond.Weighted>
-4.7364

> <Gold.Chemscore.Metal.Weighted>
-0.0000

> <Gold.Chemscore.Lipo.Weighted>
-11.4888

> <Gold.Chemscore.Internal_Hbond.Weighted>
0.0000

> <Gold.Chemscore.DEClash.Weighted>
1.4585

> <Gold.Chemscore.DEInternal.Weighted>
0.2404

> <Gold.Chemscore.Rot.Weighted>
5.4337

> <Gold.Chemscore.Internal.Correction.Weighted>
   9.000000E+99

> <Gold.Protein.RotatedTorsions>
[ 6907 6896 6895 6894 ] final -166.62 input  -60.11 | X-H torsion
[ 7974 7965 7964 7962 ] final  -34.04 input  175.53 | X-H torsion
[ 8008 7997 7996 7995 ] final  155.78 input   59.86 | X-H torsion
[ 10167 10162 10161 10158 ] final  157.04 input  -65.29 | X-H torsion
[ 10718 10713 10712 10709 ] final  136.88 input   66.30 | X-H torsion
[ 10763 10752 10751 10750 ] final  168.73 input  -60.55 | X-H torsion
[ 11005 11000 10999 10996 ] final   91.65 input  -57.11 | X-H torsion

> <Gold.Protein.ActiveResidues>
 VAL166  LYS551  ARG553  GLY616  TRP617  ASP618  TYR619  PRO620  LYS621  CYS622 
 ASP623  PHE694  ASN695  SER759  ASP760  ASP761  ALA762  ILE779  LEU786  VAL792 
 PHE793  MET794  SER795  GLU796  ALA797  LYS798  CYS799  TRP800  GLU811  SER814 

> <Gold.Protein.RotatedAtoms>
  151.4465  133.3629  159.2788 H   0  0  0  0  0  0  0  0  0  0  0  0  # atno 6907 bound_to 6896
  150.9121  134.8539  159.7443 H   0  0  0  0  0  0  0  0  0  0  0  0  # atno 6908 bound_to 6896
  152.4937  134.4395  159.9591 H   0  0  0  0  0  0  0  0  0  0  0  0  # atno 6909 bound_to 6896
  146.0862  140.5990  142.8885 H   0  0  0  0  0  0  0  0  0  0  0  0  # atno 7974 bound_to 7965
  156.2459  140.1930  156.6854 H   0  0  0  0  0  0  0  0  0  0  0  0  # atno 8008 bound_to 7997
  154.6291  140.0598  156.9736 H   0  0  0  0  0  0  0  0  0  0  0  0  # atno 8009 bound_to 7997
  155.1740  140.3270  155.4390 H   0  0  0  0  0  0  0  0  0  0  0  0  # atno 8010 bound_to 7997
  139.4822  144.4954  151.8247 H   0  0  0  0  0  0  0  0  0  0  0  0  # atno 10167 bound_to 10162
  157.4420  131.1058  151.0132 H   0  0  0  0  0  0  0  0  0  0  0  0  # atno 10718 bound_to 10713
  154.3728  135.2753  155.2256 H   0  0  0  0  0  0  0  0  0  0  0  0  # atno 10763 bound_to 10752
  154.4397  135.5957  153.6124 H   0  0  0  0  0  0  0  0  0  0  0  0  # atno 10764 bound_to 10752
  152.9837  135.6015  154.3961 H   0  0  0  0  0  0  0  0  0  0  0  0  # atno 10765 bound_to 10752
  139.8835  134.8687  156.3459 H   0  0  0  0  0  0  0  0  0  0  0  0  # atno 11005 bound_to 11000
  144.7327  140.4719  143.6926 LP  0  0  0  0  0  0  0  0  0  0  0  0  # atno 17320 bound_to 7965
  145.6126  139.1515  143.3067 LP  0  0  0  0  0  0  0  0  0  0  0  0  # atno 17321 bound_to 7965
  140.4442  144.1944  150.5893 LP  0  0  0  0  0  0  0  0  0  0  0  0  # atno 17342 bound_to 10162
  140.4652  143.2434  151.9166 LP  0  0  0  0  0  0  0  0  0  0  0  0  # atno 17343 bound_to 10162
  157.0992  130.5975  149.5456 LP  0  0  0  0  0  0  0  0  0  0  0  0  # atno 17370 bound_to 10713
  155.9952  130.5018  150.7451 LP  0  0  0  0  0  0  0  0  0  0  0  0  # atno 17371 bound_to 10713
  140.9627  133.7378  156.0423 LP  0  0  0  0  0  0  0  0  0  0  0  0  # atno 17394 bound_to 11000
  140.7970  134.3553  157.5450 LP  0  0  0  0  0  0  0  0  0  0  0  0  # atno 17395 bound_to 11000

$$$$
