AV-unprocessed.smi:1240|AV-procd|sdf|5207|dock4
  -GOLD-   22720 4293D 1   1.00000     0.00000
 Structure written by MMmdl.
 49 51  0  0  0  0  0  0  0  0  3 V2000
  147.6642  131.9680  152.5526 O   0  0  0  0  0  0  0  0  0  0  0  0
  147.9530  133.1602  152.6472 C   0  0  0  0  0  0  0  0  0  0  0  0
  149.0609  133.6053  153.2548 N   0  0  0  0  0  0  0  0  0  0  0  0
  150.0911  132.7581  153.8446 C   0  0  0  0  0  0  0  0  0  0  0  0
  149.4945  131.5611  154.6332 C   0  0  2  0  0  0  0  0  0  0  0  0
  149.0368  131.9273  156.0743 C   0  0  2  0  0  0  0  0  0  0  0  0
  148.1286  133.1445  156.1489 C   0  0  0  0  0  0  0  0  0  0  0  0
  148.2140  133.5189  157.6225 C   0  0  0  0  0  0  0  0  0  0  0  0
  149.5559  133.2370  157.9939 O   0  0  0  0  0  0  0  0  0  0  0  0
  150.1474  132.3541  157.0455 C   0  0  0  0  0  0  0  0  0  0  0  0
  150.4357  130.4011  154.6804 N   0  3  0  0  0  0  0  0  0  0  0  0
  150.4662  129.5929  153.4369 C   0  0  0  0  0  0  0  0  0  0  0  0
  151.3061  128.3221  153.6529 C   0  0  0  0  0  0  0  0  0  0  0  0
  152.6146  128.6770  154.0847 O   0  0  0  0  0  0  0  0  0  0  0  0
  152.5986  129.3836  155.3195 C   0  0  0  0  0  0  0  0  0  0  0  0
  151.8142  130.6950  155.1491 C   0  0  0  0  0  0  0  0  0  0  0  0
  147.2138  134.1810  152.1793 N   0  0  0  0  0  0  0  0  0  0  0  0
  146.0039  134.1365  151.4338 C   0  0  0  0  0  0  0  0  0  0  0  0
  145.3511  135.3632  151.1792 C   0  0  0  0  0  0  0  0  0  0  0  0
  144.1587  135.3746  150.4273 C   0  0  0  0  0  0  0  0  0  0  0  0
  143.6545  134.2172  149.9488 N   0  3  0  0  0  0  0  0  0  0  0  0
  144.2483  133.0222  150.1547 C   0  0  0  0  0  0  0  0  0  0  0  0
  145.4430  132.9479  150.8997 C   0  0  0  0  0  0  0  0  0  0  0  0
  149.2117  134.6027  153.2986 H   0  0  0  0  0  0  0  0  0  0  0  0
  150.7278  132.4094  153.0316 H   0  0  0  0  0  0  0  0  0  0  0  0
  150.7212  133.3569  154.5042 H   0  0  0  0  0  0  0  0  0  0  0  0
  148.6062  131.2197  154.0988 H   0  0  0  0  0  0  0  0  0  0  0  0
  148.5102  131.0821  156.5198 H   0  0  0  0  0  0  0  0  0  0  0  0
  148.5222  133.9553  155.5338 H   0  0  0  0  0  0  0  0  0  0  0  0
  147.1055  132.9398  155.8321 H   0  0  0  0  0  0  0  0  0  0  0  0
  147.9565  134.5616  157.8086 H   0  0  0  0  0  0  0  0  0  0  0  0
  147.5469  132.8914  158.2151 H   0  0  0  0  0  0  0  0  0  0  0  0
  150.6021  131.5027  157.5521 H   0  0  0  0  0  0  0  0  0  0  0  0
  150.9357  132.8993  156.5253 H   0  0  0  0  0  0  0  0  0  0  0  0
  149.4531  129.3133  153.1460 H   0  0  0  0  0  0  0  0  0  0  0  0
  150.8869  130.1766  152.6177 H   0  0  0  0  0  0  0  0  0  0  0  0
  150.8354  127.6641  154.3853 H   0  0  0  0  0  0  0  0  0  0  0  0
  151.3818  127.7595  152.7221 H   0  0  0  0  0  0  0  0  0  0  0  0
  152.1583  128.7643  156.1027 H   0  0  0  0  0  0  0  0  0  0  0  0
  153.6251  129.5950  155.6192 H   0  0  0  0  0  0  0  0  0  0  0  0
  152.3322  131.3312  154.4306 H   0  0  0  0  0  0  0  0  0  0  0  0
  151.7915  131.2299  156.0981 H   0  0  0  0  0  0  0  0  0  0  0  0
  147.5416  135.1069  152.4127 H   0  0  0  0  0  0  0  0  0  0  0  0
  145.7555  136.2907  151.5584 H   0  0  0  0  0  0  0  0  0  0  0  0
  143.5996  136.2688  150.1936 H   0  0  0  0  0  0  0  0  0  0  0  0
  143.7570  132.1667  149.7145 H   0  0  0  0  0  0  0  0  0  0  0  0
  145.9089  131.9838  151.0329 H   0  0  0  0  0  0  0  0  0  0  0  0
  150.0417  129.7840  155.3764 H   0  0  0  0  0  0  0  0  0  0  0  0
  142.7915  134.2472  149.4052 H   0  0  0  0  0  0  0  0  0  0  0  0
  1  2  2  0  0  0  0
  2  3  1  0  0  0  0
  2 17  1  0  0  0  0
  3  4  1  0  0  0  0
  3 24  1  0  0  0  0
  4  5  1  0  0  0  0
  4 25  1  0  0  0  0
  4 26  1  0  0  0  0
  5  6  1  0  0  0  0
  5 11  1  0  0  0  0
  5 27  1  0  0  0  0
  6 10  1  0  0  0  0
  6  7  1  0  0  0  0
  6 28  1  0  0  0  0
  7  8  1  0  0  0  0
  7 29  1  0  0  0  0
  7 30  1  0  0  0  0
  8  9  1  0  0  0  0
  8 31  1  0  0  0  0
  8 32  1  0  0  0  0
  9 10  1  0  0  0  0
 10 33  1  0  0  0  0
 10 34  1  0  0  0  0
 11 16  1  0  0  0  0
 11 12  1  0  0  0  0
 11 48  1  0  0  0  0
 12 13  1  0  0  0  0
 12 35  1  0  0  0  0
 12 36  1  0  0  0  0
 13 14  1  0  0  0  0
 13 37  1  0  0  0  0
 13 38  1  0  0  0  0
 14 15  1  0  0  0  0
 15 16  1  0  0  0  0
 15 39  1  0  0  0  0
 15 40  1  0  0  0  0
 16 41  1  0  0  0  0
 16 42  1  0  0  0  0
 17 18  1  0  0  0  0
 17 43  1  0  0  0  0
 18 23  1  0  0  0  0
 18 19  2  0  0  0  0
 19 20  1  0  0  0  0
 19 44  1  0  0  0  0
 20 21  2  0  0  0  0
 20 45  1  0  0  0  0
 21 22  1  0  0  0  0
 21 49  1  0  0  0  0
 22 23  2  0  0  0  0
 22 46  1  0  0  0  0
 23 47  1  0  0  0  0
M  CHG  1  11   1
M  CHG  1  21   1
M  END
> <s_m_source_file>
AV-unprocessed.smi

> <i_m_source_file_index>
1240

> <i_lp_mmshare_version>
43012

> <i_f3d_flags>
0

> <s_epik_input>
W2NIXTFbY0hdbltjSF1bY0hdYzFbTkhdQyg9TylbTkhdW0NIMl1bQ0BIXShbQ0BASF0yW0NIMl1bQ0gyXU9bQ0gyXTIpTjNbQ0gyXVtDSDJdT1tDSDJdW0NIMl0z

> <s_epik_cmdline>
J2VwaWtfcHl0aG9uJywgJy1waCcsICc3LjAnLCAnLXRuJywgJzgnLCAnLW1hJywgJzIwMCcsICctbWV0YWxfYmluZGluZycsICctaW1hZScsICc8aW5maWxlLm1hZT4nLCAnLW9tYWUnLCAnPG91dGZpbGUubWFlPic=

> <r_epik_Ionization_Penalty>
2.08105

> <r_epik_Ionization_Penalty_Charging>
2.08103

> <r_epik_Ionization_Penalty_Neutral>
2.04144e-05

> <r_epik_State_Penalty>
2.15598

> <r_epik_Charging_Adjusted_Penalty>
4.23701

> <i_epik_Tot_Q>
2

> <i_epik_Tot_abs_Q>
2

> <r_epik_Metal_State_Penalty>
2.25158

> <b_epik_Metal_Only>
0

> <s_lp_Force_Field>
OPLS_2005

> <r_lp_Energy>
50.7828

> <b_lp_Chiralities_Consistent>
1

> <s_lp_Variant>
AV-unprocessed.smi:1240-13

> <Gold.Version>
5.8.1

> <Gold.Id.Protein>
6NUR|6NUR_protein|mol2

> <Gold.PLP.Fitness>
40.8899

> <Gold.PLP.PLP>
-29.9372

> <Gold.PLP.part.hbond>
-3.3129

> <Gold.PLP.part.metal>
0.0000

> <Gold.PLP.part.buried>
-6.2657

> <Gold.PLP.part.nonpolar>
-22.0538

> <Gold.PLP.part.repulsive>
0.2549

> <Gold.PLP.ligand.clash>
0.0000

> <Gold.PLP.ligand.torsion>
0.7342

> <Gold.PLP.Chemscore.Hbond>
4.0496

> <Gold.PLP.Chemscore.CHOScore>
0.0000

> <Gold.PLP.Chemscore.Metal>
0.0000

> <Gold.Chemscore.Hbonds>
donor molecule, donor type, donor heavy atom, donor atom, acceptor molecule, acceptor atom, score
      L1  H     3    24       P1  7948  0.24
      L1  H    17    43       P1  7948  0.69
      L1  H    21    49       P1 10186  1.73
      P1  H  6896  6909       L1     9  1.00

> <Gold.PLP.Chemscore.Internal.Correction>
0.2723

> <Gold.Rescore>
     Score         DG    S(hbond)    S(metal)    S(lipo)     H(rot)  DE(clash)    DE(int)     intcor
     14.82     -18.38       2.74        0.00      70.00       1.74       0.15       3.41       ----

> <Gold.Chemscore.Fitness>
14.8242

> <Gold.Chemscore.DG>
-18.3776

> <Gold.Chemscore.ZeroCoef>
-5.4800

> <Gold.Chemscore.Hbond>
2.7448

> <Gold.Chemscore.Metal>
0.0000

> <Gold.Chemscore.Lipo>
69.9968

> <Gold.Chemscore.Internal_Hbond>
0.0000

> <Gold.Chemscore.DEClash>
0.1483

> <Gold.Chemscore.DEInternal>
3.4052

> <Gold.Chemscore.Rot>
1.7421

> <Gold.Chemscore.Internal.Correction>
   9.000000E+99

> <Gold.Chemscore.Hbonds>
donor molecule, donor type, donor heavy atom, donor atom, acceptor molecule, acceptor atom, score
      L1  H     3    24       P1  7948  0.01
      L1  H    17    43       P1  7948  0.67
      L1  H    21    49       P1 10186  0.86
      P1  H  6896  6909       L1     9  0.82

> <Gold.Chemscore.Hbond.Weighted>
-9.1677

> <Gold.Chemscore.Metal.Weighted>
-0.0000

> <Gold.Chemscore.Lipo.Weighted>
-8.1896

> <Gold.Chemscore.Internal_Hbond.Weighted>
0.0000

> <Gold.Chemscore.DEClash.Weighted>
0.1483

> <Gold.Chemscore.DEInternal.Weighted>
3.4052

> <Gold.Chemscore.Rot.Weighted>
4.4597

> <Gold.Chemscore.Internal.Correction.Weighted>
   9.000000E+99

> <Gold.Protein.RotatedTorsions>
[ 6907 6896 6895 6894 ] final    0.64 input  -60.11 | X-H torsion
[ 7974 7965 7964 7962 ] final  170.05 input  175.53 | X-H torsion
[ 8008 7997 7996 7995 ] final  -47.63 input   59.86 | X-H torsion
[ 10167 10162 10161 10158 ] final   86.27 input  -65.29 | X-H torsion
[ 10718 10713 10712 10709 ] final  -69.89 input   66.30 | X-H torsion
[ 10763 10752 10751 10750 ] final  -31.19 input  -60.55 | X-H torsion
[ 11005 11000 10999 10996 ] final -124.88 input  -57.11 | X-H torsion

> <Gold.Protein.ActiveResidues>
 VAL166  LYS551  ARG553  GLY616  TRP617  ASP618  TYR619  PRO620  LYS621  CYS622 
 ASP623  PHE694  ASN695  SER759  ASP760  ASP761  ALA762  ILE779  LEU786  VAL792 
 PHE793  MET794  SER795  GLU796  ALA797  LYS798  CYS799  TRP800  GLU811  SER814 

> <Gold.Protein.RotatedAtoms>
  151.5798  135.1059  160.0014 H   0  0  0  0  0  0  0  0  0  0  0  0  # atno 6907 bound_to 6896
  152.4360  133.7357  159.6623 H   0  0  0  0  0  0  0  0  0  0  0  0  # atno 6908 bound_to 6896
  150.8257  133.8105  159.3142 H   0  0  0  0  0  0  0  0  0  0  0  0  # atno 6909 bound_to 6896
  144.7336  139.9145  143.6417 H   0  0  0  0  0  0  0  0  0  0  0  0  # atno 7974 bound_to 7965
  154.4019  140.1341  156.4206 H   0  0  0  0  0  0  0  0  0  0  0  0  # atno 8008 bound_to 7997
  155.7646  140.3485  155.5195 H   0  0  0  0  0  0  0  0  0  0  0  0  # atno 8009 bound_to 7997
  155.8826  140.0990  157.1465 H   0  0  0  0  0  0  0  0  0  0  0  0  # atno 8010 bound_to 7997
  139.8892  144.6395  150.8757 H   0  0  0  0  0  0  0  0  0  0  0  0  # atno 10167 bound_to 10162
  156.0433  130.4321  150.2215 H   0  0  0  0  0  0  0  0  0  0  0  0  # atno 10718 bound_to 10713
  153.7934  135.6896  153.4868 H   0  0  0  0  0  0  0  0  0  0  0  0  # atno 10763 bound_to 10752
  153.1735  135.4533  154.9932 H   0  0  0  0  0  0  0  0  0  0  0  0  # atno 10764 bound_to 10752
  154.8035  135.3347  154.7428 H   0  0  0  0  0  0  0  0  0  0  0  0  # atno 10765 bound_to 10752
  140.9806  134.0678  157.3769 H   0  0  0  0  0  0  0  0  0  0  0  0  # atno 11005 bound_to 11000
  146.0976  139.3969  143.0367 LP  0  0  0  0  0  0  0  0  0  0  0  0  # atno 17320 bound_to 7965
  145.7624  140.9930  143.1193 LP  0  0  0  0  0  0  0  0  0  0  0  0  # atno 17321 bound_to 7965
  140.7730  143.3523  151.1989 LP  0  0  0  0  0  0  0  0  0  0  0  0  # atno 17342 bound_to 10162
  139.7125  143.9354  152.2953 LP  0  0  0  0  0  0  0  0  0  0  0  0  # atno 17343 bound_to 10162
  157.0307  131.0006  151.3313 LP  0  0  0  0  0  0  0  0  0  0  0  0  # atno 17370 bound_to 10713
  157.5279  130.8039  149.7883 LP  0  0  0  0  0  0  0  0  0  0  0  0  # atno 17371 bound_to 10713
  139.8949  135.0138  156.6973 LP  0  0  0  0  0  0  0  0  0  0  0  0  # atno 17394 bound_to 11000
  140.7192  133.9156  155.8135 LP  0  0  0  0  0  0  0  0  0  0  0  0  # atno 17395 bound_to 11000

$$$$
