AV-unprocessed.smi:2249|AV-procd|sdf|9099|dock2
  -GOLD-   2272012293D 1   1.00000     0.00000
 Structure written by MMmdl.
 38 39  0  0  0  0  0  0  0  0  1 V2000
  144.5584  137.0462  153.2027 C   0  0  0  0  0  0  0  0  0  0  0  0
  145.4772  137.0424  151.9669 C   0  0  1  0  0  0  0  0  0  0  0  0
  146.8091  137.4916  152.3718 N   0  0  0  0  0  0  0  0  0  0  0  0
  147.0735  138.5480  153.1548 C   0  0  0  0  0  0  0  0  0  0  0  0
  146.2019  139.2696  153.6400 O   0  0  0  0  0  0  0  0  0  0  0  0
  148.3979  138.6984  153.3311 N   0  0  0  0  0  0  0  0  0  0  0  0
  149.0579  139.6492  154.0443 C   0  0  0  0  0  0  0  0  0  0  0  0
  148.6609  140.9205  154.3577 C   0  0  0  0  0  0  0  0  0  0  0  0
  149.7675  141.4126  155.1074 C   0  0  0  0  0  0  0  0  0  0  0  0
  150.7450  140.5241  155.2362 N   0  0  0  0  0  0  0  0  0  0  0  0
  150.3096  139.4285  154.5768 N   0  0  0  0  0  0  0  0  0  0  0  0
  151.1404  138.2419  154.5139 C   0  0  0  0  0  0  0  0  0  0  0  0
  145.5701  135.6576  151.2741 C   0  0  0  0  0  0  0  0  0  0  0  0
  144.1937  135.1428  150.7997 C   0  0  0  0  0  0  0  0  0  0  0  0
  144.3036  133.7390  150.1836 C   0  0  0  0  0  0  0  0  0  0  0  0
  144.8777  132.8391  151.1231 O   0  0  0  0  0  0  0  0  0  0  0  0
  146.2016  133.2040  151.4925 C   0  0  0  0  0  0  0  0  0  0  0  0
  146.1973  134.5789  152.1806 C   0  0  0  0  0  0  0  0  0  0  0  0
  143.5211  136.8473  152.9357 H   0  0  0  0  0  0  0  0  0  0  0  0
  144.5729  138.0163  153.7006 H   0  0  0  0  0  0  0  0  0  0  0  0
  144.8683  136.2960  153.9310 H   0  0  0  0  0  0  0  0  0  0  0  0
  145.0712  137.7497  151.2411 H   0  0  0  0  0  0  0  0  0  0  0  0
  147.5901  136.9562  152.0215 H   0  0  0  0  0  0  0  0  0  0  0  0
  148.9870  138.0172  152.8753 H   0  0  0  0  0  0  0  0  0  0  0  0
  147.7435  141.4303  154.1053 H   0  0  0  0  0  0  0  0  0  0  0  0
  149.8898  142.3853  155.5603 H   0  0  0  0  0  0  0  0  0  0  0  0
  150.6636  137.4329  155.0675 H   0  0  0  0  0  0  0  0  0  0  0  0
  152.1225  138.4366  154.9473 H   0  0  0  0  0  0  0  0  0  0  0  0
  151.2681  137.9372  153.4748 H   0  0  0  0  0  0  0  0  0  0  0  0
  146.2061  135.7631  150.3934 H   0  0  0  0  0  0  0  0  0  0  0  0
  143.5013  135.1133  151.6421 H   0  0  0  0  0  0  0  0  0  0  0  0
  143.7573  135.8180  150.0635 H   0  0  0  0  0  0  0  0  0  0  0  0
  143.3143  133.3737  149.9075 H   0  0  0  0  0  0  0  0  0  0  0  0
  144.9009  133.7601  149.2707 H   0  0  0  0  0  0  0  0  0  0  0  0
  146.5978  132.4481  152.1708 H   0  0  0  0  0  0  0  0  0  0  0  0
  146.8476  133.2112  150.6133 H   0  0  0  0  0  0  0  0  0  0  0  0
  147.2220  134.8406  152.4424 H   0  0  0  0  0  0  0  0  0  0  0  0
  145.6419  134.5129  153.1169 H   0  0  0  0  0  0  0  0  0  0  0  0
  1  2  1  0  0  0  0
  1 19  1  0  0  0  0
  1 20  1  0  0  0  0
  1 21  1  0  0  0  0
  2  3  1  0  0  0  0
  2 13  1  0  0  0  0
  2 22  1  0  0  0  0
  3  4  1  0  0  0  0
  3 23  1  0  0  0  0
  4  5  2  0  0  0  0
  4  6  1  0  0  0  0
  6  7  1  0  0  0  0
  6 24  1  0  0  0  0
  7 11  1  0  0  0  0
  7  8  2  0  0  0  0
  8  9  1  0  0  0  0
  8 25  1  0  0  0  0
  9 10  2  0  0  0  0
  9 26  1  0  0  0  0
 10 11  1  0  0  0  0
 11 12  1  0  0  0  0
 12 27  1  0  0  0  0
 12 28  1  0  0  0  0
 12 29  1  0  0  0  0
 13 18  1  0  0  0  0
 13 14  1  0  0  0  0
 13 30  1  0  0  0  0
 14 15  1  0  0  0  0
 14 31  1  0  0  0  0
 14 32  1  0  0  0  0
 15 16  1  0  0  0  0
 15 33  1  0  0  0  0
 15 34  1  0  0  0  0
 16 17  1  0  0  0  0
 17 18  1  0  0  0  0
 17 35  1  0  0  0  0
 17 36  1  0  0  0  0
 18 37  1  0  0  0  0
 18 38  1  0  0  0  0
M  END
> <s_m_source_file>
AV-unprocessed.smi

> <i_m_source_file_index>
2249

> <i_lp_mmshare_version>
43012

> <i_f3d_flags>
0

> <s_epik_input>
W0NIMl0xW0NIMl1PW0NIMl1bQ0gyXVtDSF0xW0NASF0oW0NIM10pW05IXUMoPU8pW05IXWMyW2NIXVtjSF1ubjJbQ0gzXQ==

> <s_epik_cmdline>
J2VwaWtfcHl0aG9uJywgJy1waCcsICc3LjAnLCAnLXRuJywgJzgnLCAnLW1hJywgJzIwMCcsICctbWV0YWxfYmluZGluZycsICctaW1hZScsICc8aW5maWxlLm1hZT4nLCAnLW9tYWUnLCAnPG91dGZpbGUubWFlPic=

> <r_lp_tautomer_probability>
1

> <r_epik_Ionization_Penalty>
4.67687e-05

> <r_epik_Ionization_Penalty_Charging>
0

> <r_epik_Ionization_Penalty_Neutral>
4.67687e-05

> <r_epik_State_Penalty>
-0

> <r_epik_Charging_Adjusted_Penalty>
0

> <i_epik_Tot_Q>
0

> <i_epik_Tot_abs_Q>
0

> <r_epik_Metal_State_Penalty>
-0

> <b_epik_Metal_Only>
0

> <s_lp_Force_Field>
OPLS_2005

> <r_lp_Energy>
13.2478

> <b_lp_Chiralities_Consistent>
1

> <s_lp_Variant>
AV-unprocessed.smi:2249-2

> <Gold.Version>
5.8.1

> <Gold.Id.Protein>
6NUR|6NUR_protein|mol2

> <Gold.PLP.Fitness>
41.6875

> <Gold.PLP.PLP>
-33.1850

> <Gold.PLP.part.hbond>
-3.9762

> <Gold.PLP.part.metal>
0.0000

> <Gold.PLP.part.buried>
-1.6310

> <Gold.PLP.part.nonpolar>
-28.9598

> <Gold.PLP.part.repulsive>
1.1644

> <Gold.PLP.ligand.clash>
0.0000

> <Gold.PLP.ligand.torsion>
0.2803

> <Gold.PLP.Chemscore.Hbond>
2.0204

> <Gold.PLP.Chemscore.CHOScore>
0.9939

> <Gold.PLP.Chemscore.Metal>
0.0000

> <Gold.Chemscore.Hbonds>
donor molecule, donor type, donor heavy atom, donor atom, acceptor molecule, acceptor atom, score
      L1  H     3    23       P1  7948  1.00
      L1  H     6    24       P1  7948  0.90
      P1  H  7989  7998       L1    10  0.08
      L1  C     9    26       P1  8028  0.97

> <Gold.PLP.Chemscore.Internal.Correction>
0.0202

> <Gold.Rescore>
     Score         DG    S(hbond)    S(metal)    S(lipo)     H(rot)  DE(clash)    DE(int)     intcor
     12.87     -15.69       1.80        0.00      63.32       1.26       0.38       2.45       ----

> <Gold.Chemscore.Fitness>
12.8660

> <Gold.Chemscore.DG>
-15.6873

> <Gold.Chemscore.ZeroCoef>
-5.4800

> <Gold.Chemscore.Hbond>
1.8028

> <Gold.Chemscore.Metal>
0.0000

> <Gold.Chemscore.Lipo>
63.3200

> <Gold.Chemscore.Internal_Hbond>
0.0000

> <Gold.Chemscore.DEClash>
0.3757

> <Gold.Chemscore.DEInternal>
2.4455

> <Gold.Chemscore.Rot>
1.2588

> <Gold.Chemscore.Internal.Correction>
   9.000000E+99

> <Gold.Chemscore.Hbonds>
donor molecule, donor type, donor heavy atom, donor atom, acceptor molecule, acceptor atom, score
      L1  H     3    23       P1  7948  0.93
      L1  H     6    24       P1  7948  0.81

> <Gold.Chemscore.Hbond.Weighted>
-6.0212

> <Gold.Chemscore.Metal.Weighted>
-0.0000

> <Gold.Chemscore.Lipo.Weighted>
-7.4084

> <Gold.Chemscore.Internal_Hbond.Weighted>
0.0000

> <Gold.Chemscore.DEClash.Weighted>
0.3757

> <Gold.Chemscore.DEInternal.Weighted>
2.4455

> <Gold.Chemscore.Rot.Weighted>
3.2224

> <Gold.Chemscore.Internal.Correction.Weighted>
   9.000000E+99

> <Gold.Protein.RotatedTorsions>
[ 6907 6896 6895 6894 ] final  -24.45 input  -60.11 | X-H torsion
[ 7974 7965 7964 7962 ] final    2.39 input  175.53 | X-H torsion
[ 8008 7997 7996 7995 ] final   -3.28 input   59.86 | X-H torsion
[ 10167 10162 10161 10158 ] final   68.16 input  -65.29 | X-H torsion
[ 10718 10713 10712 10709 ] final -130.11 input   66.30 | X-H torsion
[ 10763 10752 10751 10750 ] final  -58.33 input  -60.55 | X-H torsion
[ 11005 11000 10999 10996 ] final  153.37 input  -57.11 | X-H torsion

> <Gold.Protein.ActiveResidues>
 VAL166  LYS551  ARG553  GLY616  TRP617  ASP618  TYR619  PRO620  LYS621  CYS622 
 ASP623  PHE694  ASN695  SER759  ASP760  ASP761  ALA762  ILE779  LEU786  VAL792 
 PHE793  MET794  SER795  GLU796  ALA797  LYS798  CYS799  TRP800  GLU811  SER814 

> <Gold.Protein.RotatedAtoms>
  151.1893  135.0395  159.8825 H   0  0  0  0  0  0  0  0  0  0  0  0  # atno 6907 bound_to 6896
  152.5440  134.0974  159.8313 H   0  0  0  0  0  0  0  0  0  0  0  0  # atno 6908 bound_to 6896
  151.1100  133.5133  159.2638 H   0  0  0  0  0  0  0  0  0  0  0  0  # atno 6909 bound_to 6896
  146.2443  140.0843  142.8355 H   0  0  0  0  0  0  0  0  0  0  0  0  # atno 7974 bound_to 7965
  154.6266  140.2513  155.7484 H   0  0  0  0  0  0  0  0  0  0  0  0  # atno 8008 bound_to 7997
  156.2456  140.2915  156.0518 H   0  0  0  0  0  0  0  0  0  0  0  0  # atno 8009 bound_to 7997
  155.1811  140.0389  157.2872 H   0  0  0  0  0  0  0  0  0  0  0  0  # atno 8010 bound_to 7997
  140.0816  144.5066  150.7158 H   0  0  0  0  0  0  0  0  0  0  0  0  # atno 10167 bound_to 10162
  156.2112  130.6919  151.0651 H   0  0  0  0  0  0  0  0  0  0  0  0  # atno 10718 bound_to 10713
  154.2364  135.6351  153.5192 H   0  0  0  0  0  0  0  0  0  0  0  0  # atno 10763 bound_to 10752
  152.9939  135.5531  154.5958 H   0  0  0  0  0  0  0  0  0  0  0  0  # atno 10764 bound_to 10752
  154.5453  135.2897  155.1033 H   0  0  0  0  0  0  0  0  0  0  0  0  # atno 10765 bound_to 10752
  140.1391  134.8751  157.2307 H   0  0  0  0  0  0  0  0  0  0  0  0  # atno 11005 bound_to 11000
  145.0705  140.9152  143.4885 LP  0  0  0  0  0  0  0  0  0  0  0  0  # atno 17320 bound_to 7965
  145.0976  139.2845  143.5702 LP  0  0  0  0  0  0  0  0  0  0  0  0  # atno 17321 bound_to 7965
  140.7075  143.2479  151.4683 LP  0  0  0  0  0  0  0  0  0  0  0  0  # atno 17342 bound_to 10162
  139.5776  144.1783  152.1924 LP  0  0  0  0  0  0  0  0  0  0  0  0  # atno 17343 bound_to 10162
  157.7039  131.0764  150.6730 LP  0  0  0  0  0  0  0  0  0  0  0  0  # atno 17370 bound_to 10713
  156.6790  130.4561  149.5633 LP  0  0  0  0  0  0  0  0  0  0  0  0  # atno 17371 bound_to 10713
  140.2744  134.3422  155.7363 LP  0  0  0  0  0  0  0  0  0  0  0  0  # atno 17394 bound_to 11000
  141.2183  133.7442  156.9271 LP  0  0  0  0  0  0  0  0  0  0  0  0  # atno 17395 bound_to 11000

$$$$
