AV-unprocessed.smi:2922|AV-procd|sdf|11201|dock4
  -GOLD-   2272016 93D 1   1.00000     0.00000
 Structure written by MMmdl.
 30 31  0  0  0  0  0  0  0  0  1 V2000
  150.4726  136.1285  154.2406 N   0  0  0  0  0  0  0  0  0  0  0  0
  151.1255  137.1968  154.7081 C   0  0  0  0  0  0  0  0  0  0  0  0
  151.9930  137.0985  155.5737 O   0  0  0  0  0  0  0  0  0  0  0  0
  150.7337  138.5738  154.1427 C   0  0  1  0  0  0  0  0  0  0  0  0
  149.2727  138.9760  154.4293 C   0  0  0  0  0  0  0  0  0  0  0  0
  149.3927  140.2796  155.2007 C   0  0  0  0  0  0  0  0  0  0  0  0
  150.7809  140.1780  155.8208 C   0  0  2  0  0  0  0  0  0  0  0  0
  151.3791  141.5321  156.2325 C   0  0  0  0  0  0  0  0  0  0  0  0
  150.6558  142.1321  157.3456 N   0  0  0  0  0  0  0  0  0  0  0  0
  151.1739  142.3007  158.6171 C   0  0  0  0  0  0  0  0  0  0  0  0
  150.8727  143.4207  159.2861 N   0  0  0  0  0  0  0  0  0  0  0  0
  151.4007  143.5615  160.5214 C   0  0  0  0  0  0  0  0  0  0  0  0
  152.2299  142.5715  161.0849 C   0  0  0  0  0  0  0  0  0  0  0  0
  152.9098  142.7457  162.6607 Cl  0  0  0  0  0  0  0  0  0  0  0  0
  152.4747  141.4319  160.2931 C   0  0  0  0  0  0  0  0  0  0  0  0
  151.9430  141.3012  159.0575 N   0  0  0  0  0  0  0  0  0  0  0  0
  151.5199  139.5947  154.7573 O   0  0  0  0  0  0  0  0  0  0  0  0
  150.7029  135.2072  154.5836 H   0  0  0  0  0  0  0  0  0  0  0  0
  149.7532  136.2496  153.5422 H   0  0  0  0  0  0  0  0  0  0  0  0
  150.9353  138.5790  153.0711 H   0  0  0  0  0  0  0  0  0  0  0  0
  148.6968  139.1052  153.5125 H   0  0  0  0  0  0  0  0  0  0  0  0
  148.7527  138.2360  155.0395 H   0  0  0  0  0  0  0  0  0  0  0  0
  149.3507  141.1227  154.5094 H   0  0  0  0  0  0  0  0  0  0  0  0
  148.6040  140.4093  155.9424 H   0  0  0  0  0  0  0  0  0  0  0  0
  150.7541  139.4931  156.6708 H   0  0  0  0  0  0  0  0  0  0  0  0
  152.4404  141.4363  156.4649 H   0  0  0  0  0  0  0  0  0  0  0  0
  151.3091  142.2252  155.3941 H   0  0  0  0  0  0  0  0  0  0  0  0
  149.6551  142.2278  157.2506 H   0  0  0  0  0  0  0  0  0  0  0  0
  151.1607  144.4668  161.0592 H   0  0  0  0  0  0  0  0  0  0  0  0
  153.0984  140.6251  160.6485 H   0  0  0  0  0  0  0  0  0  0  0  0
  1  2  1  0  0  0  0
  1 18  1  0  0  0  0
  1 19  1  0  0  0  0
  2  3  2  0  0  0  0
  2  4  1  0  0  0  0
  4 17  1  0  0  0  0
  4  5  1  0  0  0  0
  4 20  1  0  0  0  0
  5  6  1  0  0  0  0
  5 21  1  0  0  0  0
  5 22  1  0  0  0  0
  6  7  1  0  0  0  0
  6 23  1  0  0  0  0
  6 24  1  0  0  0  0
  7  8  1  0  0  0  0
  7 17  1  0  0  0  0
  7 25  1  0  0  0  0
  8  9  1  0  0  0  0
  8 26  1  0  0  0  0
  8 27  1  0  0  0  0
  9 10  1  0  0  0  0
  9 28  1  0  0  0  0
 10 16  1  0  0  0  0
 10 11  2  0  0  0  0
 11 12  1  0  0  0  0
 12 13  2  0  0  0  0
 12 29  1  0  0  0  0
 13 14  1  0  0  0  0
 13 15  1  0  0  0  0
 15 16  2  0  0  0  0
 15 30  1  0  0  0  0
M  END
> <s_m_source_file>
AV-unprocessed.smi

> <i_m_source_file_index>
2922

> <i_lp_mmshare_version>
43012

> <i_f3d_flags>
0

> <s_epik_input>
W05IMl1DKD1PKVtDQEBIXTFbQ0gyXVtDSDJdW0NASF0oTzEpW0NIMl1bTkhdYzJuW2NIXWMoQ2wpW2NIXW4y

> <s_epik_cmdline>
J2VwaWtfcHl0aG9uJywgJy1waCcsICc3LjAnLCAnLXRuJywgJzgnLCAnLW1hJywgJzIwMCcsICctbWV0YWxfYmluZGluZycsICctaW1hZScsICc8aW5maWxlLm1hZT4nLCAnLW9tYWUnLCAnPG91dGZpbGUubWFlPic=

> <r_lp_tautomer_probability>
1

> <r_epik_Ionization_Penalty>
6.13883e-06

> <r_epik_Ionization_Penalty_Charging>
0

> <r_epik_Ionization_Penalty_Neutral>
6.13883e-06

> <r_epik_State_Penalty>
-0

> <r_epik_Charging_Adjusted_Penalty>
0

> <i_epik_Tot_Q>
0

> <i_epik_Tot_abs_Q>
0

> <r_epik_Metal_State_Penalty>
-0

> <b_epik_Metal_Only>
0

> <s_lp_Force_Field>
OPLS_2005

> <r_lp_Energy>
9.79995

> <b_lp_Chiralities_Consistent>
1

> <s_lp_Variant>
AV-unprocessed.smi:2922-4

> <Gold.Version>
5.8.1

> <Gold.Id.Protein>
6NUR|6NUR_protein|mol2

> <Gold.PLP.Fitness>
41.6188

> <Gold.PLP.PLP>
-33.3058

> <Gold.PLP.part.hbond>
-4.0000

> <Gold.PLP.part.metal>
0.0000

> <Gold.PLP.part.buried>
-6.1258

> <Gold.PLP.part.nonpolar>
-23.0303

> <Gold.PLP.part.repulsive>
0.2714

> <Gold.PLP.ligand.clash>
0.0000

> <Gold.PLP.ligand.torsion>
0.3455

> <Gold.PLP.Chemscore.Hbond>
2.9920

> <Gold.PLP.Chemscore.CHOScore>
0.0000

> <Gold.PLP.Chemscore.Metal>
0.0000

> <Gold.Chemscore.Hbonds>
donor molecule, donor type, donor heavy atom, donor atom, acceptor molecule, acceptor atom, score
      L1  H     1    19       P1  7948  1.00
      P1  H  7989  7998       L1    17  1.00
      P1  H 10752 10765       L1     3  0.84

> <Gold.PLP.Chemscore.Internal.Correction>
0.0281

> <Gold.Rescore>
     Score         DG    S(hbond)    S(metal)    S(lipo)     H(rot)  DE(clash)    DE(int)     intcor
     15.85     -16.09       2.13        0.00      71.76       1.91       0.02       0.23       ----

> <Gold.Chemscore.Fitness>
15.8477

> <Gold.Chemscore.DG>
-16.0921

> <Gold.Chemscore.ZeroCoef>
-5.4800

> <Gold.Chemscore.Hbond>
2.1307

> <Gold.Chemscore.Metal>
0.0000

> <Gold.Chemscore.Lipo>
71.7599

> <Gold.Chemscore.Internal_Hbond>
0.0000

> <Gold.Chemscore.DEClash>
0.0156

> <Gold.Chemscore.DEInternal>
0.2289

> <Gold.Chemscore.Rot>
1.9142

> <Gold.Chemscore.Internal.Correction>
   9.000000E+99

> <Gold.Chemscore.Hbonds>
donor molecule, donor type, donor heavy atom, donor atom, acceptor molecule, acceptor atom, score
      L1  H     1    19       P1  7948  0.25
      P1  H  7989  7998       L1    17  0.25
      P1  H 10752 10765       L1     3  0.13

> <Gold.Chemscore.Hbond.Weighted>
-7.1165

> <Gold.Chemscore.Metal.Weighted>
-0.0000

> <Gold.Chemscore.Lipo.Weighted>
-8.3959

> <Gold.Chemscore.Internal_Hbond.Weighted>
0.0000

> <Gold.Chemscore.DEClash.Weighted>
0.0156

> <Gold.Chemscore.DEInternal.Weighted>
0.2289

> <Gold.Chemscore.Rot.Weighted>
4.9002

> <Gold.Chemscore.Internal.Correction.Weighted>
   9.000000E+99

> <Gold.Protein.RotatedTorsions>
[ 6907 6896 6895 6894 ] final  -61.69 input  -60.11 | X-H torsion
[ 7974 7965 7964 7962 ] final  -53.75 input  175.53 | X-H torsion
[ 8008 7997 7996 7995 ] final  -32.09 input   59.86 | X-H torsion
[ 10167 10162 10161 10158 ] final -142.77 input  -65.29 | X-H torsion
[ 10718 10713 10712 10709 ] final  -72.29 input   66.30 | X-H torsion
[ 10763 10752 10751 10750 ] final -170.43 input  -60.55 | X-H torsion
[ 11005 11000 10999 10996 ] final   22.73 input  -57.11 | X-H torsion

> <Gold.Protein.ActiveResidues>
 VAL166  LYS551  ARG553  GLY616  TRP617  ASP618  TYR619  PRO620  LYS621  CYS622 
 ASP623  PHE694  ASN695  SER759  ASP760  ASP761  ALA762  ILE779  LEU786  VAL792 
 PHE793  MET794  SER795  GLU796  ALA797  LYS798  CYS799  TRP800  GLU811  SER814 

> <Gold.Protein.RotatedAtoms>
  150.7767  134.6670  159.6370 H   0  0  0  0  0  0  0  0  0  0  0  0  # atno 6907 bound_to 6896
  152.3839  134.6545  160.0142 H   0  0  0  0  0  0  0  0  0  0  0  0  # atno 6908 bound_to 6896
  151.6866  133.3275  159.3269 H   0  0  0  0  0  0  0  0  0  0  0  0  # atno 6909 bound_to 6896
  145.8934  140.8053  142.9780 H   0  0  0  0  0  0  0  0  0  0  0  0  # atno 7974 bound_to 7965
  154.4191  140.1747  156.1671 H   0  0  0  0  0  0  0  0  0  0  0  0  # atno 8008 bound_to 7997
  155.9791  140.3379  155.6622 H   0  0  0  0  0  0  0  0  0  0  0  0  # atno 8009 bound_to 7997
  155.6524  140.0692  157.2573 H   0  0  0  0  0  0  0  0  0  0  0  0  # atno 8010 bound_to 7997
  139.8057  143.7772  152.2661 H   0  0  0  0  0  0  0  0  0  0  0  0  # atno 10167 bound_to 10162
  156.0326  130.4369  150.2571 H   0  0  0  0  0  0  0  0  0  0  0  0  # atno 10718 bound_to 10713
  154.6415  135.2899  155.0097 H   0  0  0  0  0  0  0  0  0  0  0  0  # atno 10763 bound_to 10752
  154.1222  135.6546  153.4909 H   0  0  0  0  0  0  0  0  0  0  0  0  # atno 10764 bound_to 10752
  153.0329  135.5290  154.7284 H   0  0  0  0  0  0  0  0  0  0  0  0  # atno 10765 bound_to 10752
  140.3774  134.1958  155.7664 H   0  0  0  0  0  0  0  0  0  0  0  0  # atno 11005 bound_to 11000
  144.6731  140.1564  143.7426 LP  0  0  0  0  0  0  0  0  0  0  0  0  # atno 17320 bound_to 7965
  145.8881  139.2360  143.1566 LP  0  0  0  0  0  0  0  0  0  0  0  0  # atno 17321 bound_to 7965
  139.7905  144.7412  150.9961 LP  0  0  0  0  0  0  0  0  0  0  0  0  # atno 17342 bound_to 10162
  140.7819  143.4447  151.0500 LP  0  0  0  0  0  0  0  0  0  0  0  0  # atno 17343 bound_to 10162
  157.0673  131.0107  151.3202 LP  0  0  0  0  0  0  0  0  0  0  0  0  # atno 17370 bound_to 10713
  157.5026  130.7889  149.7620 LP  0  0  0  0  0  0  0  0  0  0  0  0  # atno 17371 bound_to 10713
  141.1935  133.8150  157.0797 LP  0  0  0  0  0  0  0  0  0  0  0  0  # atno 17394 bound_to 11000
  140.0505  134.9808  157.1127 LP  0  0  0  0  0  0  0  0  0  0  0  0  # atno 17395 bound_to 11000

$$$$
