AV-unprocessed.smi:556|AV-procd|sdf|2912|dock6
  -GOLD-   2262023403D 1   1.00000     0.00000
 Structure written by MMmdl.
 38 39  0  0  0  0  0  0  0  0  1 V2000
  156.0186  138.3155  164.7011 C   0  0  0  0  0  0  0  0  0  0  0  0
  154.5228  137.9874  164.5577 C   0  0  2  0  0  0  0  0  0  0  0  0
  153.9319  137.2707  165.7906 C   0  0  0  0  0  0  0  0  0  0  0  0
  154.3456  135.9139  165.8471 O   0  0  0  0  0  0  0  0  0  0  0  0
  153.9150  135.1875  164.7068 C   0  0  0  0  0  0  0  0  0  0  0  0
  154.5775  135.7798  163.4557 C   0  0  0  0  0  0  0  0  0  0  0  0
  154.2635  137.2124  163.3224 N   0  0  0  0  0  0  0  0  0  0  0  0
  153.7957  137.7220  162.1524 C   0  0  0  0  0  0  0  0  0  0  0  0
  153.3968  137.0235  161.2192 O   0  0  0  0  0  0  0  0  0  0  0  0
  153.8450  139.0612  162.0601 N   0  0  0  0  0  0  0  0  0  0  0  0
  153.4236  139.8296  160.8973 C   0  0  0  0  0  0  0  0  0  0  0  0
  153.7889  141.3097  161.0692 C   0  0  0  0  0  0  0  0  0  0  0  0
  152.9352  142.1931  160.2032 C   0  0  0  0  0  0  0  0  0  0  0  0
  151.9361  141.7970  159.2688 C   0  0  0  0  0  0  0  0  0  0  0  0
  151.3626  142.8231  158.6618 N   0  0  0  0  0  0  0  0  0  0  0  0
  151.9721  143.9062  159.1858 N   0  0  0  0  0  0  0  0  0  0  0  0
  151.5834  145.2273  158.7414 C   0  0  0  0  0  0  0  0  0  0  0  0
  152.9261  143.5569  160.1175 C   0  0  0  0  0  0  0  0  0  0  0  0
  156.1976  138.9447  165.5733 H   0  0  0  0  0  0  0  0  0  0  0  0
  156.3896  138.8522  163.8276 H   0  0  0  0  0  0  0  0  0  0  0  0
  156.6199  137.4137  164.8195 H   0  0  0  0  0  0  0  0  0  0  0  0
  154.0030  138.9455  164.5309 H   0  0  0  0  0  0  0  0  0  0  0  0
  154.2397  137.7741  166.7073 H   0  0  0  0  0  0  0  0  0  0  0  0
  152.8417  137.3139  165.7666 H   0  0  0  0  0  0  0  0  0  0  0  0
  154.2039  134.1431  164.8249 H   0  0  0  0  0  0  0  0  0  0  0  0
  152.8269  135.2105  164.6248 H   0  0  0  0  0  0  0  0  0  0  0  0
  155.6596  135.6619  163.5195 H   0  0  0  0  0  0  0  0  0  0  0  0
  154.2676  135.1929  162.5903 H   0  0  0  0  0  0  0  0  0  0  0  0
  154.2000  139.5802  162.8498 H   0  0  0  0  0  0  0  0  0  0  0  0
  153.9010  139.4276  160.0022 H   0  0  0  0  0  0  0  0  0  0  0  0
  152.3456  139.7202  160.7675 H   0  0  0  0  0  0  0  0  0  0  0  0
  153.6801  141.5885  162.1181 H   0  0  0  0  0  0  0  0  0  0  0  0
  154.8449  141.4491  160.8339 H   0  0  0  0  0  0  0  0  0  0  0  0
  151.6135  140.7979  159.0151 H   0  0  0  0  0  0  0  0  0  0  0  0
  152.1172  145.9868  159.3134 H   0  0  0  0  0  0  0  0  0  0  0  0
  150.5111  145.3652  158.8847 H   0  0  0  0  0  0  0  0  0  0  0  0
  151.8222  145.3458  157.6841 H   0  0  0  0  0  0  0  0  0  0  0  0
  153.5136  144.2993  160.6373 H   0  0  0  0  0  0  0  0  0  0  0  0
  1  2  1  0  0  0  0
  1 19  1  0  0  0  0
  1 20  1  0  0  0  0
  1 21  1  0  0  0  0
  2  7  1  0  0  0  0
  2  3  1  0  0  0  0
  2 22  1  0  0  0  0
  3  4  1  0  0  0  0
  3 23  1  0  0  0  0
  3 24  1  0  0  0  0
  4  5  1  0  0  0  0
  5  6  1  0  0  0  0
  5 25  1  0  0  0  0
  5 26  1  0  0  0  0
  6  7  1  0  0  0  0
  6 27  1  0  0  0  0
  6 28  1  0  0  0  0
  7  8  1  0  0  0  0
  8  9  2  0  0  0  0
  8 10  1  0  0  0  0
 10 11  1  0  0  0  0
 10 29  1  0  0  0  0
 11 12  1  0  0  0  0
 11 30  1  0  0  0  0
 11 31  1  0  0  0  0
 12 13  1  0  0  0  0
 12 32  1  0  0  0  0
 12 33  1  0  0  0  0
 13 18  2  0  0  0  0
 13 14  1  0  0  0  0
 14 15  2  0  0  0  0
 14 34  1  0  0  0  0
 15 16  1  0  0  0  0
 16 17  1  0  0  0  0
 16 18  1  0  0  0  0
 17 35  1  0  0  0  0
 17 36  1  0  0  0  0
 17 37  1  0  0  0  0
 18 38  1  0  0  0  0
M  END
> <s_m_source_file>
AV-unprocessed.smi

> <i_m_source_file_index>
556

> <i_lp_mmshare_version>
43012

> <i_f3d_flags>
0

> <s_epik_input>
W0NIM11bQ0BASF0xW0NIMl1PW0NIMl1bQ0gyXU4xQyg9TylbTkhdW0NIMl1bQ0gyXWMyW2NIXW5uKFtDSDNdKVtjSF0y

> <s_epik_cmdline>
J2VwaWtfcHl0aG9uJywgJy1waCcsICc3LjAnLCAnLXRuJywgJzgnLCAnLW1hJywgJzIwMCcsICctbWV0YWxfYmluZGluZycsICctaW1hZScsICc8aW5maWxlLm1hZT4nLCAnLW9tYWUnLCAnPG91dGZpbGUubWFlPic=

> <r_lp_tautomer_probability>
1

> <r_epik_Ionization_Penalty>
0.000536334

> <r_epik_Ionization_Penalty_Charging>
0

> <r_epik_Ionization_Penalty_Neutral>
0.000536334

> <r_epik_State_Penalty>
-0

> <r_epik_Charging_Adjusted_Penalty>
0

> <i_epik_Tot_Q>
0

> <i_epik_Tot_abs_Q>
0

> <r_epik_Metal_State_Penalty>
-0

> <b_epik_Metal_Only>
0

> <s_lp_Force_Field>
OPLS_2005

> <r_lp_Energy>
29.3296

> <b_lp_Chiralities_Consistent>
1

> <s_lp_Variant>
AV-unprocessed.smi:556-1

> <Gold.Version>
5.8.1

> <Gold.Id.Protein>
6NUR|6NUR_protein|mol2

> <Gold.PLP.Fitness>
39.5126

> <Gold.PLP.PLP>
-39.9601

> <Gold.PLP.part.hbond>
0.0000

> <Gold.PLP.part.metal>
0.0000

> <Gold.PLP.part.buried>
-4.9043

> <Gold.PLP.part.nonpolar>
-35.7489

> <Gold.PLP.part.repulsive>
0.1206

> <Gold.PLP.ligand.clash>
0.0000

> <Gold.PLP.ligand.torsion>
0.2283

> <Gold.PLP.Chemscore.Hbond>
0.0000

> <Gold.PLP.Chemscore.CHOScore>
0.0000

> <Gold.PLP.Chemscore.Metal>
0.0000

> <Gold.PLP.Chemscore.Internal.Correction>
0.0091

> <Gold.Rescore>
     Score         DG    S(hbond)    S(metal)    S(lipo)     H(rot)  DE(clash)    DE(int)     intcor
     12.87     -13.51       0.00        0.00      99.31       1.40       0.05       0.60       ----

> <Gold.Chemscore.Fitness>
12.8691

> <Gold.Chemscore.DG>
-13.5149

> <Gold.Chemscore.ZeroCoef>
-5.4800

> <Gold.Chemscore.Hbond>
0.0000

> <Gold.Chemscore.Metal>
0.0000

> <Gold.Chemscore.Lipo>
99.3086

> <Gold.Chemscore.Internal_Hbond>
0.0000

> <Gold.Chemscore.DEClash>
0.0492

> <Gold.Chemscore.DEInternal>
0.5966

> <Gold.Chemscore.Rot>
1.4001

> <Gold.Chemscore.Internal.Correction>
   9.000000E+99

> <Gold.Chemscore.Hbond.Weighted>
-0.0000

> <Gold.Chemscore.Metal.Weighted>
-0.0000

> <Gold.Chemscore.Lipo.Weighted>
-11.6191

> <Gold.Chemscore.Internal_Hbond.Weighted>
0.0000

> <Gold.Chemscore.DEClash.Weighted>
0.0492

> <Gold.Chemscore.DEInternal.Weighted>
0.5966

> <Gold.Chemscore.Rot.Weighted>
3.5842

> <Gold.Chemscore.Internal.Correction.Weighted>
   9.000000E+99

> <Gold.Protein.RotatedTorsions>
[ 6907 6896 6895 6894 ] final   99.79 input  -60.11 | X-H torsion
[ 7974 7965 7964 7962 ] final  -33.83 input  175.53 | X-H torsion
[ 8008 7997 7996 7995 ] final  170.82 input   59.86 | X-H torsion
[ 10167 10162 10161 10158 ] final  -27.98 input  -65.29 | X-H torsion
[ 10718 10713 10712 10709 ] final  -55.71 input   66.30 | X-H torsion
[ 10763 10752 10751 10750 ] final -173.62 input  -60.55 | X-H torsion
[ 11005 11000 10999 10996 ] final  101.99 input  -57.11 | X-H torsion

> <Gold.Protein.ActiveResidues>
 VAL166  LYS551  ARG553  GLY616  TRP617  ASP618  TYR619  PRO620  LYS621  CYS622 
 ASP623  PHE694  ASN695  SER759  ASP760  ASP761  ALA762  ILE779  LEU786  VAL792 
 PHE793  MET794  SER795  GLU796  ALA797  LYS798  CYS799  TRP800  GLU811  SER814 

> <Gold.Protein.RotatedAtoms>
  152.5385  134.0375  159.8052 H   0  0  0  0  0  0  0  0  0  0  0  0  # atno 6907 bound_to 6896
  151.0536  133.5596  159.2647 H   0  0  0  0  0  0  0  0  0  0  0  0  # atno 6908 bound_to 6896
  151.2521  135.0633  159.9119 H   0  0  0  0  0  0  0  0  0  0  0  0  # atno 6909 bound_to 6896
  146.0879  140.5965  142.8878 H   0  0  0  0  0  0  0  0  0  0  0  0  # atno 7974 bound_to 7965
  156.1329  140.1528  156.9037 H   0  0  0  0  0  0  0  0  0  0  0  0  # atno 8008 bound_to 7997
  154.4924  140.0847  156.7663 H   0  0  0  0  0  0  0  0  0  0  0  0  # atno 8009 bound_to 7997
  155.4222  140.3423  155.4274 H   0  0  0  0  0  0  0  0  0  0  0  0  # atno 8010 bound_to 7997
  140.7273  143.4048  151.1204 H   0  0  0  0  0  0  0  0  0  0  0  0  # atno 10167 bound_to 10162
  156.1346  130.4157  150.0207 H   0  0  0  0  0  0  0  0  0  0  0  0  # atno 10718 bound_to 10713
  154.6058  135.2859  155.0486 H   0  0  0  0  0  0  0  0  0  0  0  0  # atno 10763 bound_to 10752
  154.1734  135.6468  153.5019 H   0  0  0  0  0  0  0  0  0  0  0  0  # atno 10764 bound_to 10752
  153.0175  135.5406  154.6793 H   0  0  0  0  0  0  0  0  0  0  0  0  # atno 10765 bound_to 10752
  139.8775  134.9206  156.4991 H   0  0  0  0  0  0  0  0  0  0  0  0  # atno 11005 bound_to 11000
  144.7338  140.4751  143.6918 LP  0  0  0  0  0  0  0  0  0  0  0  0  # atno 17320 bound_to 7965
  145.6096  139.1512  143.3083 LP  0  0  0  0  0  0  0  0  0  0  0  0  # atno 17321 bound_to 7965
  139.7673  143.8547  152.3113 LP  0  0  0  0  0  0  0  0  0  0  0  0  # atno 17342 bound_to 10162
  139.8453  144.7190  150.9280 LP  0  0  0  0  0  0  0  0  0  0  0  0  # atno 17343 bound_to 10162
  156.8110  130.9325  151.3644 LP  0  0  0  0  0  0  0  0  0  0  0  0  # atno 17370 bound_to 10713
  157.6521  130.8893  149.9653 LP  0  0  0  0  0  0  0  0  0  0  0  0  # atno 17371 bound_to 10713
  140.8603  133.8065  155.9258 LP  0  0  0  0  0  0  0  0  0  0  0  0  # atno 17394 bound_to 11000
  140.9056  134.2324  157.5016 LP  0  0  0  0  0  0  0  0  0  0  0  0  # atno 17395 bound_to 11000

$$$$
