AV-unprocessed.smi:767|AV-procd|sdf|3671|dock4
  -GOLD-   22720 1 83D 1   1.00000     0.00000
 Structure written by MMmdl.
 48 50  0  0  0  0  0  0  0  0  2 V2000
  151.0736  143.5180  158.4478 C   0  0  0  0  0  0  0  0  0  0  0  0
  150.7628  142.3770  157.5023 C   0  0  0  0  0  0  0  0  0  0  0  0
  151.3366  141.0972  157.6589 C   0  0  0  0  0  0  0  0  0  0  0  0
  151.0089  140.0776  156.7411 C   0  0  0  0  0  0  0  0  0  0  0  0
  150.1169  140.3593  155.6831 C   0  0  0  0  0  0  0  0  0  0  0  0
  149.7529  139.2884  154.6682 C   0  0  0  0  0  0  0  0  0  0  0  0
  148.2389  139.1794  154.3859 C   0  0  0  0  0  0  0  0  0  0  0  0
  147.8509  137.9332  153.7294 N   0  0  0  0  0  0  0  0  0  0  0  0
  146.7874  137.1844  154.0518 C   0  0  0  0  0  0  0  0  0  0  0  0
  145.9913  137.4645  154.9477 O   0  0  0  0  0  0  0  0  0  0  0  0
  146.6804  136.1079  153.2627 N   0  0  0  0  0  0  0  0  0  0  0  0
  145.5853  135.1354  153.3352 C   0  0  2  0  0  0  0  0  0  0  0  0
  146.0789  133.6983  153.5214 C   0  0  2  0  0  0  0  0  0  0  0  0
  147.3424  133.0544  153.9651 C   0  0  0  0  0  0  0  0  0  0  0  0
  147.3647  131.9218  152.9026 C   0  0  0  0  0  0  0  0  0  0  0  0
  146.3263  132.2517  151.9439 O   0  0  0  0  0  0  0  0  0  0  0  0
  146.2327  133.6604  152.0151 C   0  0  1  0  0  0  0  0  0  0  0  0
  145.0341  134.6327  151.9416 C   0  0  0  0  0  0  0  0  0  0  0  0
  143.6248  134.0140  151.9243 C   0  0  0  0  0  0  0  0  0  0  0  0
  145.0684  135.6279  150.7763 C   0  0  0  0  0  0  0  0  0  0  0  0
  149.5722  141.6573  155.5781 C   0  0  0  0  0  0  0  0  0  0  0  0
  149.9112  142.6063  156.4776 N   0  3  0  0  0  0  0  0  0  0  0  0
  151.2643  143.1427  159.4537 H   0  0  0  0  0  0  0  0  0  0  0  0
  150.2413  144.2208  158.5012 H   0  0  0  0  0  0  0  0  0  0  0  0
  151.9587  144.0573  158.1095 H   0  0  0  0  0  0  0  0  0  0  0  0
  152.0202  140.8979  158.4714 H   0  0  0  0  0  0  0  0  0  0  0  0
  151.4415  139.0935  156.8462 H   0  0  0  0  0  0  0  0  0  0  0  0
  150.2857  139.4896  153.7381 H   0  0  0  0  0  0  0  0  0  0  0  0
  150.1276  138.3268  155.0214 H   0  0  0  0  0  0  0  0  0  0  0  0
  147.6952  139.2207  155.3300 H   0  0  0  0  0  0  0  0  0  0  0  0
  147.8986  140.0338  153.7991 H   0  0  0  0  0  0  0  0  0  0  0  0
  148.4424  137.6151  152.9755 H   0  0  0  0  0  0  0  0  0  0  0  0
  147.3846  135.9554  152.5558 H   0  0  0  0  0  0  0  0  0  0  0  0
  144.7978  135.4050  154.0412 H   0  0  0  0  0  0  0  0  0  0  0  0
  145.2403  133.0939  153.8760 H   0  0  0  0  0  0  0  0  0  0  0  0
  148.2014  133.7202  153.8723 H   0  0  0  0  0  0  0  0  0  0  0  0
  147.2912  132.6733  154.9852 H   0  0  0  0  0  0  0  0  0  0  0  0
  148.3366  131.8713  152.4098 H   0  0  0  0  0  0  0  0  0  0  0  0
  147.1574  130.9461  153.3430 H   0  0  0  0  0  0  0  0  0  0  0  0
  147.1565  134.1202  151.6490 H   0  0  0  0  0  0  0  0  0  0  0  0
  143.4514  133.4523  151.0060 H   0  0  0  0  0  0  0  0  0  0  0  0
  142.8554  134.7842  151.9844 H   0  0  0  0  0  0  0  0  0  0  0  0
  143.4402  133.3283  152.7493 H   0  0  0  0  0  0  0  0  0  0  0  0
  144.7542  135.1639  149.8407 H   0  0  0  0  0  0  0  0  0  0  0  0
  146.0701  136.0228  150.6075 H   0  0  0  0  0  0  0  0  0  0  0  0
  144.4109  136.4782  150.9605 H   0  0  0  0  0  0  0  0  0  0  0  0
  148.8870  141.9662  154.8020 H   0  0  0  0  0  0  0  0  0  0  0  0
  149.5066  143.5377  156.3785 H   0  0  0  0  0  0  0  0  0  0  0  0
  1  2  1  0  0  0  0
  1 23  1  0  0  0  0
  1 24  1  0  0  0  0
  1 25  1  0  0  0  0
  2 22  1  0  0  0  0
  2  3  2  0  0  0  0
  3  4  1  0  0  0  0
  3 26  1  0  0  0  0
  4  5  2  0  0  0  0
  4 27  1  0  0  0  0
  5  6  1  0  0  0  0
  5 21  1  0  0  0  0
  6  7  1  0  0  0  0
  6 28  1  0  0  0  0
  6 29  1  0  0  0  0
  7  8  1  0  0  0  0
  7 30  1  0  0  0  0
  7 31  1  0  0  0  0
  8  9  1  0  0  0  0
  8 32  1  0  0  0  0
  9 10  2  0  0  0  0
  9 11  1  0  0  0  0
 11 12  1  0  0  0  0
 11 33  1  0  0  0  0
 12 18  1  0  0  0  0
 12 13  1  0  0  0  0
 12 34  1  0  0  0  0
 13 17  1  0  0  0  0
 13 14  1  0  0  0  0
 13 35  1  0  0  0  0
 14 15  1  0  0  0  0
 14 36  1  0  0  0  0
 14 37  1  0  0  0  0
 15 16  1  0  0  0  0
 15 38  1  0  0  0  0
 15 39  1  0  0  0  0
 16 17  1  0  0  0  0
 17 18  1  0  0  0  0
 17 40  1  0  0  0  0
 18 19  1  0  0  0  0
 18 20  1  0  0  0  0
 19 41  1  0  0  0  0
 19 42  1  0  0  0  0
 19 43  1  0  0  0  0
 20 44  1  0  0  0  0
 20 45  1  0  0  0  0
 20 46  1  0  0  0  0
 21 22  2  0  0  0  0
 21 47  1  0  0  0  0
 22 48  1  0  0  0  0
M  CHG  1  22   1
M  END
> <s_m_source_file>
AV-unprocessed.smi

> <i_m_source_file_index>
767

> <i_lp_mmshare_version>
43012

> <i_f3d_flags>
0

> <s_epik_input>
W0NIM11jMVtjSF1bY0hdYyhbY0hdbjEpW0NIMl1bQ0gyXVtOSF1DKD1PKVtOSF1bQ0BIXTJDKFtDSDNdKShbQ0gzXSlbQ0BIXShbQ0BASF0yMylPW0NIMl1bQ0gyXTM=

> <s_epik_cmdline>
J2VwaWtfcHl0aG9uJywgJy1waCcsICc3LjAnLCAnLXRuJywgJzgnLCAnLW1hJywgJzIwMCcsICctbWV0YWxfYmluZGluZycsICctaW1hZScsICc8aW5maWxlLm1hZT4nLCAnLW9tYWUnLCAnPG91dGZpbGUubWFlPic=

> <r_epik_Ionization_Penalty>
1.41853

> <r_epik_Ionization_Penalty_Charging>
1.41848

> <r_epik_Ionization_Penalty_Neutral>
5.17407e-05

> <r_epik_State_Penalty>
1.50205

> <r_epik_Charging_Adjusted_Penalty>
2.92053

> <i_epik_Tot_Q>
1

> <i_epik_Tot_abs_Q>
1

> <r_epik_Metal_State_Penalty>
1.5544

> <b_epik_Metal_Only>
0

> <s_lp_Force_Field>
OPLS_2005

> <r_lp_Energy>
65.9861

> <b_lp_Chiralities_Consistent>
1

> <s_lp_Variant>
AV-unprocessed.smi:767-15

> <Gold.Version>
5.8.1

> <Gold.Id.Protein>
6NUR|6NUR_protein|mol2

> <Gold.PLP.Fitness>
46.3269

> <Gold.PLP.PLP>
-35.1742

> <Gold.PLP.part.hbond>
-2.9785

> <Gold.PLP.part.metal>
0.0000

> <Gold.PLP.part.buried>
-3.6494

> <Gold.PLP.part.nonpolar>
-28.9181

> <Gold.PLP.part.repulsive>
0.3099

> <Gold.PLP.ligand.clash>
0.0000

> <Gold.PLP.ligand.torsion>
0.4635

> <Gold.PLP.Chemscore.Hbond>
3.9360

> <Gold.PLP.Chemscore.CHOScore>
0.0000

> <Gold.PLP.Chemscore.Metal>
0.0000

> <Gold.Chemscore.Hbonds>
donor molecule, donor type, donor heavy atom, donor atom, acceptor molecule, acceptor atom, score
      L1  H     8    32       P1  7948  0.99
      L1  H    11    33       P1  7948  1.00
      L1  H    22    48       P1  8028  1.92

> <Gold.PLP.Chemscore.Internal.Correction>
0.2718

> <Gold.Rescore>
     Score         DG    S(hbond)    S(metal)    S(lipo)     H(rot)  DE(clash)    DE(int)     intcor
     21.30     -21.94       2.85        0.00      92.66       1.52       0.13       0.52       ----

> <Gold.Chemscore.Fitness>
21.2955

> <Gold.Chemscore.DG>
-21.9392

> <Gold.Chemscore.ZeroCoef>
-5.4800

> <Gold.Chemscore.Hbond>
2.8495

> <Gold.Chemscore.Metal>
0.0000

> <Gold.Chemscore.Lipo>
92.6620

> <Gold.Chemscore.Internal_Hbond>
0.0000

> <Gold.Chemscore.DEClash>
0.1255

> <Gold.Chemscore.DEInternal>
0.5182

> <Gold.Chemscore.Rot>
1.5233

> <Gold.Chemscore.Internal.Correction>
   9.000000E+99

> <Gold.Chemscore.Hbonds>
donor molecule, donor type, donor heavy atom, donor atom, acceptor molecule, acceptor atom, score
      L1  H     8    32       P1  7948  0.93
      L1  H    11    33       P1  7948  0.98
      L1  H    22    48       P1  8028  0.90

> <Gold.Chemscore.Hbond.Weighted>
-9.5172

> <Gold.Chemscore.Metal.Weighted>
-0.0000

> <Gold.Chemscore.Lipo.Weighted>
-10.8415

> <Gold.Chemscore.Internal_Hbond.Weighted>
0.0000

> <Gold.Chemscore.DEClash.Weighted>
0.1255

> <Gold.Chemscore.DEInternal.Weighted>
0.5182

> <Gold.Chemscore.Rot.Weighted>
3.8995

> <Gold.Chemscore.Internal.Correction.Weighted>
   9.000000E+99

> <Gold.Protein.RotatedTorsions>
[ 6907 6896 6895 6894 ] final  -70.95 input  -60.11 | X-H torsion
[ 7974 7965 7964 7962 ] final -175.35 input  175.53 | X-H torsion
[ 8008 7997 7996 7995 ] final  -22.00 input   59.86 | X-H torsion
[ 10167 10162 10161 10158 ] final  119.55 input  -65.29 | X-H torsion
[ 10718 10713 10712 10709 ] final -131.33 input   66.30 | X-H torsion
[ 10763 10752 10751 10750 ] final   46.80 input  -60.55 | X-H torsion
[ 11005 11000 10999 10996 ] final  106.77 input  -57.11 | X-H torsion

> <Gold.Protein.ActiveResidues>
 VAL166  LYS551  ARG553  GLY616  TRP617  ASP618  TYR619  PRO620  LYS621  CYS622 
 ASP623  PHE694  ASN695  SER759  ASP760  ASP761  ALA762  ILE779  LEU786  VAL792 
 PHE793  MET794  SER795  GLU796  ALA797  LYS798  CYS799  TRP800  GLU811  SER814 

> <Gold.Protein.RotatedAtoms>
  150.7234  134.5378  159.5731 H   0  0  0  0  0  0  0  0  0  0  0  0  # atno 6907 bound_to 6896
  152.2896  134.7733  160.0389 H   0  0  0  0  0  0  0  0  0  0  0  0  # atno 6908 bound_to 6896
  151.8352  133.3379  159.3662 H   0  0  0  0  0  0  0  0  0  0  0  0  # atno 6909 bound_to 6896
  144.7128  140.1334  143.6397 H   0  0  0  0  0  0  0  0  0  0  0  0  # atno 7974 bound_to 7965
  154.4671  140.2019  156.0091 H   0  0  0  0  0  0  0  0  0  0  0  0  # atno 8008 bound_to 7997
  156.0945  140.3253  155.7831 H   0  0  0  0  0  0  0  0  0  0  0  0  # atno 8009 bound_to 7997
  155.4900  140.0545  157.2946 H   0  0  0  0  0  0  0  0  0  0  0  0  # atno 8010 bound_to 7997
  139.6038  144.7064  151.2999 H   0  0  0  0  0  0  0  0  0  0  0  0  # atno 10167 bound_to 10162
  156.2233  130.6992  151.0780 H   0  0  0  0  0  0  0  0  0  0  0  0  # atno 10718 bound_to 10713
  152.9806  135.5996  154.3659 H   0  0  0  0  0  0  0  0  0  0  0  0  # atno 10763 bound_to 10752
  154.3337  135.2768  155.2460 H   0  0  0  0  0  0  0  0  0  0  0  0  # atno 10764 bound_to 10752
  154.4573  135.5975  153.6287 H   0  0  0  0  0  0  0  0  0  0  0  0  # atno 10765 bound_to 10752
  139.8818  134.9380  156.5717 H   0  0  0  0  0  0  0  0  0  0  0  0  # atno 11005 bound_to 11000
  145.9266  139.2579  143.1350 LP  0  0  0  0  0  0  0  0  0  0  0  0  # atno 17320 bound_to 7965
  145.9566  140.8868  143.0232 LP  0  0  0  0  0  0  0  0  0  0  0  0  # atno 17321 bound_to 7965
  140.7270  143.6975  150.7872 LP  0  0  0  0  0  0  0  0  0  0  0  0  # atno 17342 bound_to 10162
  140.0557  143.5205  152.2652 LP  0  0  0  0  0  0  0  0  0  0  0  0  # atno 17343 bound_to 10162
  157.7098  131.0739  150.6540 LP  0  0  0  0  0  0  0  0  0  0  0  0  # atno 17370 bound_to 10713
  156.6604  130.4510  149.5689 LP  0  0  0  0  0  0  0  0  0  0  0  0  # atno 17371 bound_to 10713
  140.8093  133.8442  155.8796 LP  0  0  0  0  0  0  0  0  0  0  0  0  # atno 17394 bound_to 11000
  140.9521  134.1766  157.4720 LP  0  0  0  0  0  0  0  0  0  0  0  0  # atno 17395 bound_to 11000

$$$$
