AV-unprocessed.smi:1484|AV-procd|sdf|5997|dock10
  -GOLD-   22720 6 93D 1   1.00000     0.00000
 Structure written by MMmdl.
 38 39  0  0  0  0  0  0  0  0  1 V2000
  151.7994  145.8237  160.1530 C   0  0  0  0  0  0  0  0  0  0  0  0
  151.9511  144.2982  160.2331 C   0  0  2  0  0  0  0  0  0  0  0  0
  152.4970  143.8578  161.6047 C   0  0  0  0  0  0  0  0  0  0  0  0
  152.6536  142.3312  161.6873 C   0  0  0  0  0  0  0  0  0  0  0  0
  153.5424  141.7962  160.5510 C   0  0  0  0  0  0  0  0  0  0  0  0
  153.0342  142.2298  159.1626 C   0  0  1  0  0  0  0  0  0  0  0  0
  151.7953  141.5256  158.8359 N   0  0  0  0  0  0  0  0  0  0  0  0
  151.6796  140.5121  157.9647 C   0  0  0  0  0  0  0  0  0  0  0  0
  152.6308  140.0589  157.3263 O   0  0  0  0  0  0  0  0  0  0  0  0
  150.2633  139.9478  157.7806 C   0  0  0  0  0  0  0  0  0  0  0  0
  149.5342  140.5483  156.6544 N   0  0  0  0  0  0  0  0  0  0  0  0
  148.2633  140.9985  156.9784 N   0  0  0  0  0  0  0  0  0  0  0  0
  147.5286  141.5587  156.0780 C   0  0  0  0  0  0  0  0  0  0  0  0
  146.2777  141.9929  156.4424 O   0  0  0  0  0  0  0  0  0  0  0  0
  148.0037  141.7259  154.7221 C   0  0  0  0  0  0  0  0  0  0  0  0
  149.2413  141.2799  154.4149 C   0  0  0  0  0  0  0  0  0  0  0  0
  150.1016  140.6409  155.4126 C   0  0  0  0  0  0  0  0  0  0  0  0
  151.2325  140.2258  155.1605 O   0  0  0  0  0  0  0  0  0  0  0  0
  152.8486  143.7619  159.0982 C   0  0  0  0  0  0  0  0  0  0  0  0
  146.4207  142.7813  156.9429 H   0  0  0  0  0  0  0  0  0  0  0  0
  152.7607  146.3249  160.2711 H   0  0  0  0  0  0  0  0  0  0  0  0
  151.1324  146.1936  160.9323 H   0  0  0  0  0  0  0  0  0  0  0  0
  151.3820  146.1262  159.1921 H   0  0  0  0  0  0  0  0  0  0  0  0
  150.9561  143.8676  160.1120 H   0  0  0  0  0  0  0  0  0  0  0  0
  153.4627  144.3314  161.7870 H   0  0  0  0  0  0  0  0  0  0  0  0
  151.8318  144.1993  162.3986 H   0  0  0  0  0  0  0  0  0  0  0  0
  153.0810  142.0553  162.6517 H   0  0  0  0  0  0  0  0  0  0  0  0
  151.6709  141.8602  161.6419 H   0  0  0  0  0  0  0  0  0  0  0  0
  154.5581  142.1688  160.6908 H   0  0  0  0  0  0  0  0  0  0  0  0
  153.6091  140.7090  160.6068 H   0  0  0  0  0  0  0  0  0  0  0  0
  153.7885  141.9405  158.4284 H   0  0  0  0  0  0  0  0  0  0  0  0
  150.9601  141.8367  159.3104 H   0  0  0  0  0  0  0  0  0  0  0  0
  150.3178  138.8649  157.6540 H   0  0  0  0  0  0  0  0  0  0  0  0
  149.7141  140.1053  158.7107 H   0  0  0  0  0  0  0  0  0  0  0  0
  147.3773  142.1968  153.9789 H   0  0  0  0  0  0  0  0  0  0  0  0
  149.6092  141.3980  153.4066 H   0  0  0  0  0  0  0  0  0  0  0  0
  152.4407  144.0513  158.1289 H   0  0  0  0  0  0  0  0  0  0  0  0
  153.8285  144.2372  159.1627 H   0  0  0  0  0  0  0  0  0  0  0  0
  1  2  1  0  0  0  0
  1 21  1  0  0  0  0
  1 22  1  0  0  0  0
  1 23  1  0  0  0  0
  2 19  1  0  0  0  0
  2  3  1  0  0  0  0
  2 24  1  0  0  0  0
  3  4  1  0  0  0  0
  3 25  1  0  0  0  0
  3 26  1  0  0  0  0
  4  5  1  0  0  0  0
  4 27  1  0  0  0  0
  4 28  1  0  0  0  0
  5  6  1  0  0  0  0
  5 29  1  0  0  0  0
  5 30  1  0  0  0  0
  6  7  1  0  0  0  0
  6 19  1  0  0  0  0
  6 31  1  0  0  0  0
  7  8  1  0  0  0  0
  7 32  1  0  0  0  0
  8  9  2  0  0  0  0
  8 10  1  0  0  0  0
 10 33  1  0  0  0  0
 10 34  1  0  0  0  0
 10 11  1  0  0  0  0
 11 12  1  0  0  0  0
 11 17  1  0  0  0  0
 12 13  2  0  0  0  0
 13 14  1  0  0  0  0
 13 15  1  0  0  0  0
 14 20  1  0  0  0  0
 15 35  1  0  0  0  0
 15 16  2  0  0  0  0
 16 36  1  0  0  0  0
 16 17  1  0  0  0  0
 17 18  2  0  0  0  0
 19 37  1  0  0  0  0
 19 38  1  0  0  0  0
M  END
> <s_m_source_file>
AV-unprocessed.smi

> <i_m_source_file_index>
1484

> <i_lp_mmshare_version>
43012

> <i_f3d_flags>
0

> <s_epik_input>
W0NIM11bQ0BASF0xW0NIMl1bQ0gyXVtDSDJdW0NASF0oW0NIMl0xKVtOSF1DKD1PKVtDSDJdbjJbbkhdYyg9TylbY0hdW2NIXWMyPU8=

> <s_epik_cmdline>
J2VwaWtfcHl0aG9uJywgJy1waCcsICc3LjAnLCAnLXRuJywgJzgnLCAnLW1hJywgJzIwMCcsICctbWV0YWxfYmluZGluZycsICctaW1hZScsICc8aW5maWxlLm1hZT4nLCAnLW9tYWUnLCAnPG91dGZpbGUubWFlPic=

> <r_lp_tautomer_probability>
0.9996

> <r_epik_Ionization_Penalty>
2.10343

> <r_epik_Ionization_Penalty_Charging>
3.97871e-08

> <r_epik_Ionization_Penalty_Neutral>
2.10343

> <r_epik_State_Penalty>
1.67966

> <r_epik_Charging_Adjusted_Penalty>
1.67966

> <i_epik_Tot_Q>
0

> <i_epik_Tot_abs_Q>
0

> <r_epik_Metal_State_Penalty>
1.67966

> <b_epik_Metal_Only>
0

> <s_lp_Force_Field>
OPLS_2005

> <r_lp_Energy>
17.3635

> <b_lp_Chiralities_Consistent>
1

> <s_lp_Variant>
AV-unprocessed.smi:1484-5

> <Gold.Version>
5.8.1

> <Gold.Id.Protein>
6NUR|6NUR_protein|mol2

> <Gold.PLP.Fitness>
48.1227

> <Gold.PLP.PLP>
-43.3113

> <Gold.PLP.part.hbond>
-2.0000

> <Gold.PLP.part.metal>
0.0000

> <Gold.PLP.part.buried>
-4.2693

> <Gold.PLP.part.nonpolar>
-36.2130

> <Gold.PLP.part.repulsive>
0.2000

> <Gold.PLP.ligand.clash>
0.0000

> <Gold.PLP.ligand.torsion>
0.5980

> <Gold.PLP.Chemscore.Hbond>
2.0000

> <Gold.PLP.Chemscore.CHOScore>
0.0000

> <Gold.PLP.Chemscore.Metal>
0.0000

> <Gold.Chemscore.Hbonds>
donor molecule, donor type, donor heavy atom, donor atom, acceptor molecule, acceptor atom, score
      P1  H  7989  7998       L1    18  1.00
      P1  H  7997  8009       L1     9  1.00

> <Gold.PLP.Chemscore.Internal.Correction>
0.0073

> <Gold.Rescore>
     Score         DG    S(hbond)    S(metal)    S(lipo)     H(rot)  DE(clash)    DE(int)     intcor
     16.13     -17.78       1.96        0.00      98.39       2.24       0.10       1.56       ----

> <Gold.Chemscore.Fitness>
16.1269

> <Gold.Chemscore.DG>
-17.7838

> <Gold.Chemscore.ZeroCoef>
-5.4800

> <Gold.Chemscore.Hbond>
1.9556

> <Gold.Chemscore.Metal>
0.0000

> <Gold.Chemscore.Lipo>
98.3931

> <Gold.Chemscore.Internal_Hbond>
0.0000

> <Gold.Chemscore.DEClash>
0.1009

> <Gold.Chemscore.DEInternal>
1.5559

> <Gold.Chemscore.Rot>
2.2421

> <Gold.Chemscore.Internal.Correction>
   9.000000E+99

> <Gold.Chemscore.Hbonds>
donor molecule, donor type, donor heavy atom, donor atom, acceptor molecule, acceptor atom, score
      P1  H  7989  7998       L1    18  0.54
      P1  H  7997  8009       L1     9  0.94

> <Gold.Chemscore.Hbond.Weighted>
-6.5316

> <Gold.Chemscore.Metal.Weighted>
-0.0000

> <Gold.Chemscore.Lipo.Weighted>
-11.5120

> <Gold.Chemscore.Internal_Hbond.Weighted>
0.0000

> <Gold.Chemscore.DEClash.Weighted>
0.1009

> <Gold.Chemscore.DEInternal.Weighted>
1.5559

> <Gold.Chemscore.Rot.Weighted>
5.7398

> <Gold.Chemscore.Internal.Correction.Weighted>
   9.000000E+99

> <Gold.Protein.RotatedTorsions>
[ 6907 6896 6895 6894 ] final  -71.21 input  -60.11 | X-H torsion
[ 7974 7965 7964 7962 ] final  -53.93 input  175.53 | X-H torsion
[ 8008 7997 7996 7995 ] final  165.12 input   59.86 | X-H torsion
[ 10167 10162 10161 10158 ] final   40.17 input  -65.29 | X-H torsion
[ 10718 10713 10712 10709 ] final  -98.35 input   66.30 | X-H torsion
[ 10763 10752 10751 10750 ] final   86.19 input  -60.55 | X-H torsion
[ 11005 11000 10999 10996 ] final   19.41 input  -57.11 | X-H torsion

> <Gold.Protein.ActiveResidues>
 VAL166  LYS551  ARG553  GLY616  TRP617  ASP618  TYR619  PRO620  LYS621  CYS622 
 ASP623  PHE694  ASN695  SER759  ASP760  ASP761  ALA762  ILE779  LEU786  VAL792 
 PHE793  MET794  SER795  GLU796  ALA797  LYS798  CYS799  TRP800  GLU811  SER814 

> <Gold.Protein.RotatedAtoms>
  150.7222  134.5341  159.5714 H   0  0  0  0  0  0  0  0  0  0  0  0  # atno 6907 bound_to 6896
  152.2867  134.7765  160.0395 H   0  0  0  0  0  0  0  0  0  0  0  0  # atno 6908 bound_to 6896
  151.8392  133.3385  159.3674 H   0  0  0  0  0  0  0  0  0  0  0  0  # atno 6909 bound_to 6896
  145.8912  140.8069  142.9790 H   0  0  0  0  0  0  0  0  0  0  0  0  # atno 7974 bound_to 7965
  156.1826  140.1678  156.8246 H   0  0  0  0  0  0  0  0  0  0  0  0  # atno 8008 bound_to 7997
  154.5377  140.0743  156.8488 H   0  0  0  0  0  0  0  0  0  0  0  0  # atno 8009 bound_to 7997
  155.3278  140.3377  155.4242 H   0  0  0  0  0  0  0  0  0  0  0  0  # atno 8010 bound_to 7997
  140.3768  144.2032  150.6131 H   0  0  0  0  0  0  0  0  0  0  0  0  # atno 10167 bound_to 10162
  156.0105  130.5234  150.6510 H   0  0  0  0  0  0  0  0  0  0  0  0  # atno 10718 bound_to 10713
  153.1547  135.4589  154.9687 H   0  0  0  0  0  0  0  0  0  0  0  0  # atno 10763 bound_to 10752
  154.7852  135.3201  154.7904 H   0  0  0  0  0  0  0  0  0  0  0  0  # atno 10764 bound_to 10752
  153.8404  135.6930  153.4858 H   0  0  0  0  0  0  0  0  0  0  0  0  # atno 10765 bound_to 10752
  140.4140  134.1588  155.7669 H   0  0  0  0  0  0  0  0  0  0  0  0  # atno 11005 bound_to 11000
  144.6730  140.1533  143.7428 LP  0  0  0  0  0  0  0  0  0  0  0  0  # atno 17320 bound_to 7965
  145.8905  139.2373  143.1552 LP  0  0  0  0  0  0  0  0  0  0  0  0  # atno 17321 bound_to 7965
  140.4977  143.2327  151.8724 LP  0  0  0  0  0  0  0  0  0  0  0  0  # atno 17342 bound_to 10162
  139.4798  144.5094  151.8953 LP  0  0  0  0  0  0  0  0  0  0  0  0  # atno 17343 bound_to 10162
  157.4271  131.0844  151.1074 LP  0  0  0  0  0  0  0  0  0  0  0  0  # atno 17370 bound_to 10713
  157.1659  130.6246  149.5625 LP  0  0  0  0  0  0  0  0  0  0  0  0  # atno 17371 bound_to 10713
  141.1810  133.8414  157.1258 LP  0  0  0  0  0  0  0  0  0  0  0  0  # atno 17394 bound_to 11000
  140.0247  134.9929  157.0662 LP  0  0  0  0  0  0  0  0  0  0  0  0  # atno 17395 bound_to 11000

$$$$
