AV-unprocessed.smi:560|AV-procd|sdf|2930|dock3
  -GOLD-   2262023423D 1   1.00000     0.00000
 Structure written by MMmdl.
 42 43  0  0  0  0  0  0  0  0  2 V2000
  152.6046  138.4293  154.5010 C   0  0  0  0  0  0  0  0  0  0  0  0
  151.1937  137.9145  154.1506 C   0  0  2  0  0  0  0  0  0  0  0  0
  150.1197  139.0139  154.2093 C   0  0  0  0  0  0  0  0  0  0  0  0
  150.3457  140.0904  154.7631 O   0  0  0  0  0  0  0  0  0  0  0  0
  148.9461  138.7264  153.6227 N   0  0  0  0  0  0  0  0  0  0  0  0
  147.7782  139.6050  153.5861 C   0  0  2  0  0  0  0  0  0  0  0  0
  146.7017  139.1046  154.5646 C   0  0  0  0  0  0  0  0  0  0  0  0
  146.0215  137.8155  154.0677 C   0  0  0  0  0  0  0  0  0  0  0  0
  145.4553  137.9953  152.7066 N   0  3  2  0  0  0  0  0  0  0  0  0
  144.6685  136.8171  152.2594 C   0  0  0  0  0  0  0  0  0  0  0  0
  145.4532  135.8941  151.3213 C   0  0  0  0  0  0  0  0  0  0  0  0
  145.4157  136.1849  150.0189 N   0  0  0  0  0  0  0  0  0  0  0  0
  146.0962  134.9431  151.7622 O   0  0  0  0  0  0  0  0  0  0  0  0
  146.4994  138.4057  151.7301 C   0  0  0  0  0  0  0  0  0  0  0  0
  147.1829  139.7126  152.1680 C   0  0  0  0  0  0  0  0  0  0  0  0
  150.8081  136.7774  154.9789 N   0  0  0  0  0  0  0  0  0  0  0  0
  149.6162  136.0818  154.9637 C   0  0  0  0  0  0  0  0  0  0  0  0
  149.6890  135.1207  155.9306 C   0  0  0  0  0  0  0  0  0  0  0  0
  150.9783  135.3113  156.5003 C   0  0  0  0  0  0  0  0  0  0  0  0
  151.6418  136.3064  155.9354 N   0  0  0  0  0  0  0  0  0  0  0  0
  152.9091  139.2323  153.8292 H   0  0  0  0  0  0  0  0  0  0  0  0
  153.3425  137.6318  154.4096 H   0  0  0  0  0  0  0  0  0  0  0  0
  152.6592  138.8120  155.5211 H   0  0  0  0  0  0  0  0  0  0  0  0
  151.2275  137.5623  153.1182 H   0  0  0  0  0  0  0  0  0  0  0  0
  148.8468  137.8160  153.1976 H   0  0  0  0  0  0  0  0  0  0  0  0
  148.0955  140.5974  153.9120 H   0  0  0  0  0  0  0  0  0  0  0  0
  147.1338  138.9438  155.5533 H   0  0  0  0  0  0  0  0  0  0  0  0
  145.9444  139.8799  154.6886 H   0  0  0  0  0  0  0  0  0  0  0  0
  146.7317  136.9871  154.0615 H   0  0  0  0  0  0  0  0  0  0  0  0
  145.2265  137.5443  154.7632 H   0  0  0  0  0  0  0  0  0  0  0  0
  144.2990  136.2633  153.1241 H   0  0  0  0  0  0  0  0  0  0  0  0
  143.7918  137.1513  151.7030 H   0  0  0  0  0  0  0  0  0  0  0  0
  145.9103  135.6083  149.3535 H   0  0  0  0  0  0  0  0  0  0  0  0
  144.8852  136.9834  149.6998 H   0  0  0  0  0  0  0  0  0  0  0  0
  147.2381  137.6094  151.6260 H   0  0  0  0  0  0  0  0  0  0  0  0
  146.0561  138.5507  150.7447 H   0  0  0  0  0  0  0  0  0  0  0  0
  146.4488  140.5192  152.1503 H   0  0  0  0  0  0  0  0  0  0  0  0
  147.9513  139.9925  151.4465 H   0  0  0  0  0  0  0  0  0  0  0  0
  148.8229  136.3254  154.2725 H   0  0  0  0  0  0  0  0  0  0  0  0
  148.9354  134.3931  156.1926 H   0  0  0  0  0  0  0  0  0  0  0  0
  151.4469  134.7628  157.3041 H   0  0  0  0  0  0  0  0  0  0  0  0
  144.7978  138.7600  152.7712 H   0  0  0  0  0  0  0  0  0  0  0  0
  1  2  1  0  0  0  0
  1 21  1  0  0  0  0
  1 22  1  0  0  0  0
  1 23  1  0  0  0  0
  2  3  1  0  0  0  0
  2 16  1  0  0  0  0
  2 24  1  0  0  0  0
  3  4  2  0  0  0  0
  3  5  1  0  0  0  0
  5  6  1  0  0  0  0
  5 25  1  0  0  0  0
  6 15  1  0  0  0  0
  6  7  1  0  0  0  0
  6 26  1  0  0  0  0
  7  8  1  0  0  0  0
  7 27  1  0  0  0  0
  7 28  1  0  0  0  0
  8  9  1  0  0  0  0
  8 29  1  0  0  0  0
  8 30  1  0  0  0  0
  9 10  1  0  0  0  0
  9 14  1  0  0  0  0
  9 42  1  0  0  0  0
 10 11  1  0  0  0  0
 10 31  1  0  0  0  0
 10 32  1  0  0  0  0
 11 12  1  0  0  0  0
 11 13  2  0  0  0  0
 12 33  1  0  0  0  0
 12 34  1  0  0  0  0
 14 15  1  0  0  0  0
 14 35  1  0  0  0  0
 14 36  1  0  0  0  0
 15 37  1  0  0  0  0
 15 38  1  0  0  0  0
 16 20  1  0  0  0  0
 16 17  1  0  0  0  0
 17 18  2  0  0  0  0
 17 39  1  0  0  0  0
 18 19  1  0  0  0  0
 18 40  1  0  0  0  0
 19 20  2  0  0  0  0
 19 41  1  0  0  0  0
M  CHG  1   9   1
M  END
> <s_m_source_file>
AV-unprocessed.smi

> <i_m_source_file_index>
560

> <i_lp_mmshare_version>
43012

> <i_f3d_flags>
0

> <s_epik_input>
bjFbY0hdW2NIXVtjSF1uMVtDQEhdKFtDSDNdKUMoPU8pW05IXVtDSF0yW0NIMl1bQ0gyXU4oW0NIMl1bQ0gyXTIpW0NIMl1DKD1PKVtOSDJd

> <s_epik_cmdline>
J2VwaWtfcHl0aG9uJywgJy1waCcsICc3LjAnLCAnLXRuJywgJzgnLCAnLW1hJywgJzIwMCcsICctbWV0YWxfYmluZGluZycsICctaW1hZScsICc8aW5maWxlLm1hZT4nLCAnLW9tYWUnLCAnPG91dGZpbGUubWFlPic=

> <r_lp_tautomer_probability>
1

> <r_epik_Ionization_Penalty>
1.02943

> <r_epik_Ionization_Penalty_Charging>
1.02936

> <r_epik_Ionization_Penalty_Neutral>
7.4537e-05

> <r_epik_State_Penalty>
1.08036

> <r_epik_Charging_Adjusted_Penalty>
2.10972

> <i_epik_Tot_Q>
1

> <i_epik_Tot_abs_Q>
1

> <r_epik_Metal_State_Penalty>
1.09347

> <b_epik_Metal_Only>
0

> <s_lp_Force_Field>
OPLS_2005

> <r_lp_Energy>
16.2494

> <b_lp_Chiralities_Consistent>
1

> <s_lp_Variant>
AV-unprocessed.smi:560-5

> <Gold.Version>
5.8.1

> <Gold.Id.Protein>
6NUR|6NUR_protein|mol2

> <Gold.PLP.Fitness>
54.9667

> <Gold.PLP.PLP>
-33.9323

> <Gold.PLP.part.hbond>
-7.0000

> <Gold.PLP.part.metal>
0.0000

> <Gold.PLP.part.buried>
1.7850

> <Gold.PLP.part.nonpolar>
-28.5850

> <Gold.PLP.part.repulsive>
0.4548

> <Gold.PLP.ligand.clash>
0.0000

> <Gold.PLP.ligand.torsion>
1.3259

> <Gold.PLP.Chemscore.Hbond>
6.9588

> <Gold.PLP.Chemscore.CHOScore>
0.8839

> <Gold.PLP.Chemscore.Metal>
0.0000

> <Gold.Chemscore.Hbonds>
donor molecule, donor type, donor heavy atom, donor atom, acceptor molecule, acceptor atom, score
      L1  H     5    25       P1  7948  0.94
      L1  H     9    42       P1 10175  1.89
      L1  H    12    33       P1  7921  1.00
      L1  H    12    34       P1 10171  1.00
      P1  H  7989  7998       L1     4  1.00
      P1  H 10752 10763       L1    20  1.00
      L1  C    17    39       P1  7948  0.90

> <Gold.PLP.Chemscore.Internal.Correction>
0.1581

> <Gold.Rescore>
     Score         DG    S(hbond)    S(metal)    S(lipo)     H(rot)  DE(clash)    DE(int)     intcor
     18.35     -25.49       5.52        0.00      68.59       2.52       3.31       3.82       ----

> <Gold.Chemscore.Fitness>
18.3502

> <Gold.Chemscore.DG>
-25.4877

> <Gold.Chemscore.ZeroCoef>
-5.4800

> <Gold.Chemscore.Hbond>
5.5223

> <Gold.Chemscore.Metal>
0.0000

> <Gold.Chemscore.Lipo>
68.5930

> <Gold.Chemscore.Internal_Hbond>
0.0000

> <Gold.Chemscore.DEClash>
3.3140

> <Gold.Chemscore.DEInternal>
3.8235

> <Gold.Chemscore.Rot>
2.5243

> <Gold.Chemscore.Internal.Correction>
   9.000000E+99

> <Gold.Chemscore.Hbonds>
donor molecule, donor type, donor heavy atom, donor atom, acceptor molecule, acceptor atom, score
      L1  H     5    25       P1  7948  0.90
      L1  H     9    42       P1 10175  0.90
      L1  H    12    33       P1  7921  0.95
      L1  H    12    34       P1 10171  1.00
      P1  H  7989  7998       L1     4  0.25
      P1  H 10752 10763       L1    20  0.30

> <Gold.Chemscore.Hbond.Weighted>
-18.4445

> <Gold.Chemscore.Metal.Weighted>
-0.0000

> <Gold.Chemscore.Lipo.Weighted>
-8.0254

> <Gold.Chemscore.Internal_Hbond.Weighted>
0.0000

> <Gold.Chemscore.DEClash.Weighted>
3.3140

> <Gold.Chemscore.DEInternal.Weighted>
3.8235

> <Gold.Chemscore.Rot.Weighted>
6.4622

> <Gold.Chemscore.Internal.Correction.Weighted>
   9.000000E+99

> <Gold.Protein.RotatedTorsions>
[ 6907 6896 6895 6894 ] final  -19.98 input  -60.11 | X-H torsion
[ 7974 7965 7964 7962 ] final  147.61 input  175.53 | X-H torsion
[ 8008 7997 7996 7995 ] final  152.73 input   59.86 | X-H torsion
[ 10167 10162 10161 10158 ] final   20.66 input  -65.29 | X-H torsion
[ 10718 10713 10712 10709 ] final -116.12 input   66.30 | X-H torsion
[ 10763 10752 10751 10750 ] final   88.68 input  -60.55 | X-H torsion
[ 11005 11000 10999 10996 ] final -108.89 input  -57.11 | X-H torsion

> <Gold.Protein.ActiveResidues>
 VAL166  LYS551  ARG553  GLY616  TRP617  ASP618  TYR619  PRO620  LYS621  CYS622 
 ASP623  PHE694  ASN695  SER759  ASP760  ASP761  ALA762  ILE779  LEU786  VAL792 
 PHE793  MET794  SER795  GLU796  ALA797  LYS798  CYS799  TRP800  GLU811  SER814 

> <Gold.Protein.RotatedAtoms>
  151.2551  135.0635  159.9076 H   0  0  0  0  0  0  0  0  0  0  0  0  # atno 6907 bound_to 6896
  152.5374  134.0291  159.8027 H   0  0  0  0  0  0  0  0  0  0  0  0  # atno 6908 bound_to 6896
  151.0505  133.5579  159.2674 H   0  0  0  0  0  0  0  0  0  0  0  0  # atno 6909 bound_to 6896
  144.8578  139.6051  143.5944 H   0  0  0  0  0  0  0  0  0  0  0  0  # atno 7974 bound_to 7965
  156.2615  140.2013  156.6379 H   0  0  0  0  0  0  0  0  0  0  0  0  # atno 8008 bound_to 7997
  154.6632  140.0558  157.0109 H   0  0  0  0  0  0  0  0  0  0  0  0  # atno 8009 bound_to 7997
  155.1246  140.3228  155.4492 H   0  0  0  0  0  0  0  0  0  0  0  0  # atno 8010 bound_to 7997
  140.5486  143.9549  150.6563 H   0  0  0  0  0  0  0  0  0  0  0  0  # atno 10167 bound_to 10162
  156.0942  130.6118  150.8994 H   0  0  0  0  0  0  0  0  0  0  0  0  # atno 10718 bound_to 10713
  153.1793  135.4498  155.0007 H   0  0  0  0  0  0  0  0  0  0  0  0  # atno 10763 bound_to 10752
  154.8019  135.3259  154.7530 H   0  0  0  0  0  0  0  0  0  0  0  0  # atno 10764 bound_to 10752
  153.7996  135.6963  153.4913 H   0  0  0  0  0  0  0  0  0  0  0  0  # atno 10765 bound_to 10752
  141.0877  133.9109  157.2147 H   0  0  0  0  0  0  0  0  0  0  0  0  # atno 11005 bound_to 11000
  146.2836  139.6944  142.9211 LP  0  0  0  0  0  0  0  0  0  0  0  0  # atno 17320 bound_to 7965
  145.4372  141.0420  143.2877 LP  0  0  0  0  0  0  0  0  0  0  0  0  # atno 17321 bound_to 7965
  140.2969  143.3286  152.1009 LP  0  0  0  0  0  0  0  0  0  0  0  0  # atno 17342 bound_to 10162
  139.5018  144.6721  151.6218 LP  0  0  0  0  0  0  0  0  0  0  0  0  # atno 17343 bound_to 10162
  157.6098  131.0937  150.8814 LP  0  0  0  0  0  0  0  0  0  0  0  0  # atno 17370 bound_to 10713
  156.8956  130.5228  149.5284 LP  0  0  0  0  0  0  0  0  0  0  0  0  # atno 17371 bound_to 10713
  139.9698  135.0131  156.9482 LP  0  0  0  0  0  0  0  0  0  0  0  0  # atno 17394 bound_to 11000
  140.5324  134.0800  155.7319 LP  0  0  0  0  0  0  0  0  0  0  0  0  # atno 17395 bound_to 11000

$$$$
