AV-unprocessed.smi:119|AV-procd|sdf|1134|dock6
  -GOLD-   2262018263D 1   1.00000     0.00000
 Structure written by MMmdl.
 51 54  0  0  0  0  0  0  0  0  1 V2000
  152.6660  142.4393  160.2501 C   0  0  0  0  0  0  0  0  0  0  0  0
  152.3034  141.4586  159.1274 C   0  0  1  0  0  0  0  0  0  0  0  0
  152.6928  140.0153  159.5066 C   0  0  0  0  0  0  0  0  0  0  0  0
  152.5979  139.0000  158.3523 C   0  0  0  0  0  0  0  0  0  0  0  0
  151.2097  138.7221  157.9705 N   0  0  0  0  0  0  0  0  0  0  0  0
  150.4685  137.8121  158.6518 C   0  0  0  0  0  0  0  0  0  0  0  0
  150.9450  137.1276  159.5603 O   0  0  0  0  0  0  0  0  0  0  0  0
  148.9769  137.6367  158.2845 C   0  0  0  0  0  0  0  0  0  0  0  0
  148.4014  136.3630  158.7690 N   0  0  0  0  0  0  0  0  0  0  0  0
  148.3924  135.2409  157.9038 C   0  0  0  0  0  0  0  0  0  0  0  0
  148.8372  135.3140  156.7574 O   0  0  0  0  0  0  0  0  0  0  0  0
  147.8385  134.0153  158.4685 C   0  0  0  0  0  0  0  0  0  0  0  0
  147.7954  132.8986  157.7221 F   0  0  0  0  0  0  0  0  0  0  0  0
  147.3730  133.9816  159.7342 C   0  0  0  0  0  0  0  0  0  0  0  0
  147.3856  135.0861  160.5663 N   0  0  0  0  0  0  0  0  0  0  0  0
  146.8726  135.0101  161.9877 C   0  0  2  0  0  0  0  0  0  0  0  0
  146.3289  133.6070  162.2803 C   0  0  0  0  0  0  0  0  0  0  0  0
  144.8569  133.7738  161.9716 C   0  0  0  0  0  0  0  0  0  0  0  0
  144.6081  135.2068  162.4285 C   0  0  0  0  0  0  0  0  0  0  0  0
  145.8138  135.9118  162.1421 O   0  0  0  0  0  0  0  0  0  0  0  0
  147.9179  136.3066  160.0983 C   0  0  0  0  0  0  0  0  0  0  0  0
  147.9713  137.2943  160.8350 O   0  0  0  0  0  0  0  0  0  0  0  0
  150.6668  139.5097  156.9230 C   0  0  0  0  0  0  0  0  0  0  0  0
  150.4765  138.9363  155.6464 C   0  0  0  0  0  0  0  0  0  0  0  0
  149.9361  139.7063  154.5988 C   0  0  0  0  0  0  0  0  0  0  0  0
  149.5842  141.0511  154.8221 C   0  0  0  0  0  0  0  0  0  0  0  0
  149.7765  141.6284  156.0920 C   0  0  0  0  0  0  0  0  0  0  0  0
  150.3240  140.8651  157.1421 C   0  0  0  0  0  0  0  0  0  0  0  0
  150.5379  141.6226  158.7248 S   0  0  0  0  0  0  0  0  0  0  0  0
  153.7336  142.4105  160.4692 H   0  0  0  0  0  0  0  0  0  0  0  0
  152.1297  142.2035  161.1698 H   0  0  0  0  0  0  0  0  0  0  0  0
  152.4157  143.4634  159.9716 H   0  0  0  0  0  0  0  0  0  0  0  0
  152.8636  141.7516  158.2388 H   0  0  0  0  0  0  0  0  0  0  0  0
  153.7262  140.0191  159.8547 H   0  0  0  0  0  0  0  0  0  0  0  0
  152.0981  139.6785  160.3569 H   0  0  0  0  0  0  0  0  0  0  0  0
  153.1474  139.3749  157.4875 H   0  0  0  0  0  0  0  0  0  0  0  0
  153.1064  138.0755  158.6316 H   0  0  0  0  0  0  0  0  0  0  0  0
  148.3942  138.4675  158.6856 H   0  0  0  0  0  0  0  0  0  0  0  0
  148.8740  137.7345  157.2033 H   0  0  0  0  0  0  0  0  0  0  0  0
  146.9829  133.0439  160.1009 H   0  0  0  0  0  0  0  0  0  0  0  0
  147.7049  135.3068  162.6281 H   0  0  0  0  0  0  0  0  0  0  0  0
  146.8236  132.8350  161.6892 H   0  0  0  0  0  0  0  0  0  0  0  0
  146.4758  133.3905  163.3393 H   0  0  0  0  0  0  0  0  0  0  0  0
  144.6841  133.6819  160.8987 H   0  0  0  0  0  0  0  0  0  0  0  0
  144.2260  133.0465  162.4830 H   0  0  0  0  0  0  0  0  0  0  0  0
  143.7508  135.6629  161.9329 H   0  0  0  0  0  0  0  0  0  0  0  0
  144.4342  135.2370  163.5050 H   0  0  0  0  0  0  0  0  0  0  0  0
  150.7430  137.9043  155.4692 H   0  0  0  0  0  0  0  0  0  0  0  0
  149.7901  139.2649  153.6239 H   0  0  0  0  0  0  0  0  0  0  0  0
  149.1671  141.6411  154.0194 H   0  0  0  0  0  0  0  0  0  0  0  0
  149.5042  142.6605  156.2573 H   0  0  0  0  0  0  0  0  0  0  0  0
  1  2  1  0  0  0  0
  1 30  1  0  0  0  0
  1 31  1  0  0  0  0
  1 32  1  0  0  0  0
  2 29  1  0  0  0  0
  2  3  1  0  0  0  0
  2 33  1  0  0  0  0
  3  4  1  0  0  0  0
  3 34  1  0  0  0  0
  3 35  1  0  0  0  0
  4  5  1  0  0  0  0
  4 36  1  0  0  0  0
  4 37  1  0  0  0  0
  5  6  1  0  0  0  0
  5 23  1  0  0  0  0
  6  7  2  0  0  0  0
  6  8  1  0  0  0  0
  8  9  1  0  0  0  0
  8 38  1  0  0  0  0
  8 39  1  0  0  0  0
  9 21  1  0  0  0  0
  9 10  1  0  0  0  0
 10 11  2  0  0  0  0
 10 12  1  0  0  0  0
 12 13  1  0  0  0  0
 12 14  2  0  0  0  0
 14 15  1  0  0  0  0
 14 40  1  0  0  0  0
 15 16  1  0  0  0  0
 15 21  1  0  0  0  0
 16 20  1  0  0  0  0
 16 17  1  0  0  0  0
 16 41  1  0  0  0  0
 17 18  1  0  0  0  0
 17 42  1  0  0  0  0
 17 43  1  0  0  0  0
 18 19  1  0  0  0  0
 18 44  1  0  0  0  0
 18 45  1  0  0  0  0
 19 20  1  0  0  0  0
 19 46  1  0  0  0  0
 19 47  1  0  0  0  0
 21 22  2  0  0  0  0
 23 28  2  0  0  0  0
 23 24  1  0  0  0  0
 24 25  2  0  0  0  0
 24 48  1  0  0  0  0
 25 26  1  0  0  0  0
 25 49  1  0  0  0  0
 26 27  2  0  0  0  0
 26 50  1  0  0  0  0
 27 28  1  0  0  0  0
 27 51  1  0  0  0  0
 28 29  1  0  0  0  0
M  END
> <s_m_source_file>
AV-unprocessed.smi

> <i_m_source_file_index>
119

> <i_lp_mmshare_version>
43012

> <i_f3d_flags>
0

> <s_epik_input>
W2NIXTFbY0hdW2NIXVtjSF1jKGMxMilTW0NASF0oW0NIM10pW0NIMl1bQ0gyXU4yQyg9TylbQ0gyXW4zYyg9TyljKEYpW2NIXW4oYzM9TylbQ0BASF00W0NIMl1bQ0gyXVtDSDJdTzQ=

> <s_epik_cmdline>
J2VwaWtfcHl0aG9uJywgJy1waCcsICc3LjAnLCAnLXRuJywgJzgnLCAnLW1hJywgJzIwMCcsICctbWV0YWxfYmluZGluZycsICctaW1hZScsICc8aW5maWxlLm1hZT4nLCAnLW9tYWUnLCAnPG91dGZpbGUubWFlPic=

> <r_lp_tautomer_probability>
1

> <r_epik_Ionization_Penalty>
1.68882e-06

> <r_epik_Ionization_Penalty_Charging>
3.67303e-09

> <r_epik_Ionization_Penalty_Neutral>
1.68515e-06

> <r_epik_State_Penalty>
-0

> <r_epik_Charging_Adjusted_Penalty>
3.67303e-09

> <i_epik_Tot_Q>
0

> <i_epik_Tot_abs_Q>
0

> <r_epik_Metal_State_Penalty>
-0

> <b_epik_Metal_Only>
0

> <s_epik_Chemistry_Notes>
This compound contains an acetal/aminal-like group ( X-CH(R)-Y where X, Y are N, S, or O) that may be acid/base labile, releasing an aldehyde.

> <s_lp_Force_Field>
OPLS_2005

> <r_lp_Energy>
49.252

> <b_lp_Chiralities_Consistent>
1

> <s_lp_Variant>
AV-unprocessed.smi:119-2

> <Gold.Version>
5.8.1

> <Gold.Id.Protein>
6NUR|6NUR_protein|mol2

> <Gold.PLP.Fitness>
55.1728

> <Gold.PLP.PLP>
-48.9676

> <Gold.PLP.part.hbond>
-2.8746

> <Gold.PLP.part.metal>
0.0000

> <Gold.PLP.part.buried>
-3.5397

> <Gold.PLP.part.nonpolar>
-42.3338

> <Gold.PLP.part.repulsive>
0.0000

> <Gold.PLP.ligand.clash>
0.0000

> <Gold.PLP.ligand.torsion>
0.6169

> <Gold.PLP.Chemscore.Hbond>
2.4720

> <Gold.PLP.Chemscore.CHOScore>
0.0000

> <Gold.PLP.Chemscore.Metal>
0.0000

> <Gold.Chemscore.Hbonds>
donor molecule, donor type, donor heavy atom, donor atom, acceptor molecule, acceptor atom, score
      P1  H  6896  6908       L1     7  0.94
      P1  H  6931  6943       L1    22  0.83
      P1  H  6934  6947       L1    22  0.74

> <Gold.PLP.Chemscore.Internal.Correction>
0.0230

> <Gold.Rescore>
     Score         DG    S(hbond)    S(metal)    S(lipo)     H(rot)  DE(clash)    DE(int)     intcor
     20.30     -22.12       2.58        0.00     101.92       1.53       0.06       1.76       ----

> <Gold.Chemscore.Fitness>
20.2992

> <Gold.Chemscore.DG>
-22.1174

> <Gold.Chemscore.ZeroCoef>
-5.4800

> <Gold.Chemscore.Hbond>
2.5810

> <Gold.Chemscore.Metal>
0.0000

> <Gold.Chemscore.Lipo>
101.9227

> <Gold.Chemscore.Internal_Hbond>
0.0000

> <Gold.Chemscore.DEClash>
0.0575

> <Gold.Chemscore.DEInternal>
1.7606

> <Gold.Chemscore.Rot>
1.5266

> <Gold.Chemscore.Internal.Correction>
   9.000000E+99

> <Gold.Chemscore.Hbonds>
donor molecule, donor type, donor heavy atom, donor atom, acceptor molecule, acceptor atom, score
      P1  H  6896  6908       L1     7  0.90
      P1  H  6931  6943       L1    22  0.81
      P1  H  6934  6947       L1    22  0.74

> <Gold.Chemscore.Hbond.Weighted>
-8.6205

> <Gold.Chemscore.Metal.Weighted>
-0.0000

> <Gold.Chemscore.Lipo.Weighted>
-11.9250

> <Gold.Chemscore.Internal_Hbond.Weighted>
0.0000

> <Gold.Chemscore.DEClash.Weighted>
0.0575

> <Gold.Chemscore.DEInternal.Weighted>
1.7606

> <Gold.Chemscore.Rot.Weighted>
3.9081

> <Gold.Chemscore.Internal.Correction.Weighted>
   9.000000E+99

> <Gold.Protein.RotatedTorsions>
[ 6907 6896 6895 6894 ] final -130.06 input  -60.11 | X-H torsion
[ 7974 7965 7964 7962 ] final -103.29 input  175.53 | X-H torsion
[ 8008 7997 7996 7995 ] final  148.28 input   59.86 | X-H torsion
[ 10167 10162 10161 10158 ] final  100.28 input  -65.29 | X-H torsion
[ 10718 10713 10712 10709 ] final -173.81 input   66.30 | X-H torsion
[ 10763 10752 10751 10750 ] final  149.01 input  -60.55 | X-H torsion
[ 11005 11000 10999 10996 ] final   71.03 input  -57.11 | X-H torsion

> <Gold.Protein.ActiveResidues>
 VAL166  LYS551  ARG553  GLY616  TRP617  ASP618  TYR619  PRO620  LYS621  CYS622 
 ASP623  PHE694  ASN695  SER759  ASP760  ASP761  ALA762  ILE779  LEU786  VAL792 
 PHE793  MET794  SER795  GLU796  ALA797  LYS798  CYS799  TRP800  GLU811  SER814 

> <Gold.Protein.RotatedAtoms>
  150.9356  133.6716  159.2801 H   0  0  0  0  0  0  0  0  0  0  0  0  # atno 6907 bound_to 6896
  151.4123  135.0985  159.9598 H   0  0  0  0  0  0  0  0  0  0  0  0  # atno 6908 bound_to 6896
  152.5046  133.8826  159.7409 H   0  0  0  0  0  0  0  0  0  0  0  0  # atno 6909 bound_to 6896
  145.2578  140.9259  143.3058 H   0  0  0  0  0  0  0  0  0  0  0  0  # atno 7974 bound_to 7965
  156.2796  140.2133  156.5674 H   0  0  0  0  0  0  0  0  0  0  0  0  # atno 8008 bound_to 7997
  154.7164  140.0507  157.0621 H   0  0  0  0  0  0  0  0  0  0  0  0  # atno 8009 bound_to 7997
  155.0537  140.3159  155.4686 H   0  0  0  0  0  0  0  0  0  0  0  0  # atno 8010 bound_to 7997
  139.7541  144.6975  151.0388 H   0  0  0  0  0  0  0  0  0  0  0  0  # atno 10167 bound_to 10162
  156.7758  130.9465  151.3120 H   0  0  0  0  0  0  0  0  0  0  0  0  # atno 10718 bound_to 10713
  154.0642  135.2871  155.3319 H   0  0  0  0  0  0  0  0  0  0  0  0  # atno 10763 bound_to 10752
  154.6789  135.5271  153.8239 H   0  0  0  0  0  0  0  0  0  0  0  0  # atno 10764 bound_to 10752
  153.0510  135.6576  154.0828 H   0  0  0  0  0  0  0  0  0  0  0  0  # atno 10765 bound_to 10752
  139.9565  134.7135  156.0741 H   0  0  0  0  0  0  0  0  0  0  0  0  # atno 11005 bound_to 11000
  144.9445  139.4151  143.6432 LP  0  0  0  0  0  0  0  0  0  0  0  0  # atno 17320 bound_to 7965
  146.3284  139.8421  142.8888 LP  0  0  0  0  0  0  0  0  0  0  0  0  # atno 17321 bound_to 7965
  140.7801  143.4773  151.0065 LP  0  0  0  0  0  0  0  0  0  0  0  0  # atno 17342 bound_to 10162
  139.8461  143.7500  152.3179 LP  0  0  0  0  0  0  0  0  0  0  0  0  # atno 17343 bound_to 10162
  157.6670  130.9016  149.9953 LP  0  0  0  0  0  0  0  0  0  0  0  0  # atno 17370 bound_to 10713
  156.1249  130.3645  149.9826 LP  0  0  0  0  0  0  0  0  0  0  0  0  # atno 17371 bound_to 10713
  141.1237  133.6605  156.3281 LP  0  0  0  0  0  0  0  0  0  0  0  0  # atno 17394 bound_to 11000
  140.5597  134.5946  157.5430 LP  0  0  0  0  0  0  0  0  0  0  0  0  # atno 17395 bound_to 11000

$$$$
