AV-unprocessed.smi:910|AV-procd|sdf|4122|dock2
  -GOLD-   22720 2 23D 1   1.00000     0.00000
 Structure written by MMmdl.
 46 47  0  0  0  0  0  0  0  0  1 V2000
  149.4291  134.0357  154.3129 C   0  0  0  0  0  0  0  0  0  0  0  0
  150.1775  135.2804  154.7367 C   0  0  0  0  0  0  0  0  0  0  0  0
  150.0200  136.4766  154.0907 N   0  0  0  0  0  0  0  0  0  0  0  0
  150.8401  137.4106  154.7040 C   0  0  0  0  0  0  0  0  0  0  0  0
  150.9819  138.6641  154.4036 N   0  0  0  0  0  0  0  0  0  0  0  0
  151.8747  139.4172  155.1475 C   0  0  0  0  0  0  0  0  0  0  0  0
  153.1046  139.4501  155.0382 O   0  0  0  0  0  0  0  0  0  0  0  0
  151.2272  140.1070  156.0988 N   0  0  0  0  0  0  0  0  0  0  0  0
  151.8562  140.9310  157.1261 C   0  0  0  0  0  0  0  0  0  0  0  0
  150.8169  141.4667  158.1205 C   0  0  0  0  0  0  0  0  0  0  0  0
  151.4337  141.6534  159.3849 O   0  0  0  0  0  0  0  0  0  0  0  0
  152.6348  142.4144  159.3535 C   0  0  2  0  0  0  0  0  0  0  0  0
  153.7620  141.5307  159.9195 C   0  0  0  0  0  0  0  0  0  0  0  0
  153.5537  141.2168  161.4109 C   0  0  0  0  0  0  0  0  0  0  0  0
  153.3934  142.5033  162.2340 C   0  0  0  0  0  0  0  0  0  0  0  0
  152.2565  143.3755  161.6812 C   0  0  0  0  0  0  0  0  0  0  0  0
  152.4648  143.7052  160.1905 C   0  0  2  0  0  0  0  0  0  0  0  0
  151.3523  144.6201  159.6562 C   0  0  0  0  0  0  0  0  0  0  0  0
  151.4847  136.7508  155.7252 O   0  0  0  0  0  0  0  0  0  0  0  0
  151.0595  135.4575  155.7175 C   0  0  0  0  0  0  0  0  0  0  0  0
  151.6267  134.5004  156.7416 C   0  0  0  0  0  0  0  0  0  0  0  0
  150.1319  133.2451  154.0495 H   0  0  0  0  0  0  0  0  0  0  0  0
  148.7957  134.2353  153.4484 H   0  0  0  0  0  0  0  0  0  0  0  0
  148.7981  133.6796  155.1272 H   0  0  0  0  0  0  0  0  0  0  0  0
  149.4028  136.6085  153.3031 H   0  0  0  0  0  0  0  0  0  0  0  0
  150.2216  140.0242  156.1361 H   0  0  0  0  0  0  0  0  0  0  0  0
  152.6439  140.3834  157.6463 H   0  0  0  0  0  0  0  0  0  0  0  0
  152.3421  141.7678  156.6243 H   0  0  0  0  0  0  0  0  0  0  0  0
  150.4223  142.4216  157.7714 H   0  0  0  0  0  0  0  0  0  0  0  0
  149.9770  140.7742  158.1909 H   0  0  0  0  0  0  0  0  0  0  0  0
  152.8989  142.6804  158.3278 H   0  0  0  0  0  0  0  0  0  0  0  0
  153.8292  140.6031  159.3504 H   0  0  0  0  0  0  0  0  0  0  0  0
  154.7180  142.0393  159.7901 H   0  0  0  0  0  0  0  0  0  0  0  0
  152.6678  140.5925  161.5352 H   0  0  0  0  0  0  0  0  0  0  0  0
  154.3952  140.6360  161.7895 H   0  0  0  0  0  0  0  0  0  0  0  0
  153.1964  142.2551  163.2774 H   0  0  0  0  0  0  0  0  0  0  0  0
  154.3273  143.0663  162.2203 H   0  0  0  0  0  0  0  0  0  0  0  0
  151.3081  142.8552  161.8131 H   0  0  0  0  0  0  0  0  0  0  0  0
  152.1871  144.2964  162.2610 H   0  0  0  0  0  0  0  0  0  0  0  0
  153.3972  144.2659  160.1094 H   0  0  0  0  0  0  0  0  0  0  0  0
  150.3719  144.1526  159.7482 H   0  0  0  0  0  0  0  0  0  0  0  0
  151.5124  144.8621  158.6055 H   0  0  0  0  0  0  0  0  0  0  0  0
  151.3199  145.5593  160.2089 H   0  0  0  0  0  0  0  0  0  0  0  0
  150.9526  133.6581  156.8973 H   0  0  0  0  0  0  0  0  0  0  0  0
  151.7727  135.0057  157.6958 H   0  0  0  0  0  0  0  0  0  0  0  0
  152.5893  134.1167  156.4039 H   0  0  0  0  0  0  0  0  0  0  0  0
  1 22  1  0  0  0  0
  1 23  1  0  0  0  0
  1 24  1  0  0  0  0
  1  2  1  0  0  0  0
  2  3  1  0  0  0  0
  2 20  2  0  0  0  0
  3 25  1  0  0  0  0
  3  4  1  0  0  0  0
  4 19  1  0  0  0  0
  4  5  2  0  0  0  0
  5  6  1  0  0  0  0
  6  8  1  0  0  0  0
  6  7  2  0  0  0  0
  8  9  1  0  0  0  0
  8 26  1  0  0  0  0
  9 10  1  0  0  0  0
  9 27  1  0  0  0  0
  9 28  1  0  0  0  0
 10 11  1  0  0  0  0
 10 29  1  0  0  0  0
 10 30  1  0  0  0  0
 11 12  1  0  0  0  0
 12 17  1  0  0  0  0
 12 13  1  0  0  0  0
 12 31  1  0  0  0  0
 13 14  1  0  0  0  0
 13 32  1  0  0  0  0
 13 33  1  0  0  0  0
 14 15  1  0  0  0  0
 14 34  1  0  0  0  0
 14 35  1  0  0  0  0
 15 16  1  0  0  0  0
 15 36  1  0  0  0  0
 15 37  1  0  0  0  0
 16 17  1  0  0  0  0
 16 38  1  0  0  0  0
 16 39  1  0  0  0  0
 17 18  1  0  0  0  0
 17 40  1  0  0  0  0
 18 41  1  0  0  0  0
 18 42  1  0  0  0  0
 18 43  1  0  0  0  0
 19 20  1  0  0  0  0
 20 21  1  0  0  0  0
 21 44  1  0  0  0  0
 21 45  1  0  0  0  0
 21 46  1  0  0  0  0
M  END
> <s_m_source_file>
AV-unprocessed.smi

> <i_m_source_file_index>
910

> <i_lp_mmshare_version>
43012

> <i_f3d_flags>
0

> <s_epik_input>
W0NIM11jMW5jKG9jMVtDSDNdKVtOSF1DKD1PKVtOSF1bQ0gyXVtDSDJdT1tDQEBIXTJbQ0gyXVtDSDJdW0NIMl1bQ0gyXVtDQEhdMltDSDNd

> <s_epik_cmdline>
J2VwaWtfcHl0aG9uJywgJy1waCcsICc3LjAnLCAnLXRuJywgJzgnLCAnLW1hJywgJzIwMCcsICctbWV0YWxfYmluZGluZycsICctaW1hZScsICc8aW5maWxlLm1hZT4nLCAnLW9tYWUnLCAnPG91dGZpbGUubWFlPic=

> <r_lp_tautomer_probability>
0.107061

> <r_epik_Ionization_Penalty>
0.727192

> <r_epik_Ionization_Penalty_Charging>
0.726719

> <r_epik_Ionization_Penalty_Neutral>
0.000473387

> <r_epik_State_Penalty>
2.53712

> <r_epik_Charging_Adjusted_Penalty>
3.26383

> <i_epik_Tot_Q>
0

> <i_epik_Tot_abs_Q>
0

> <r_epik_Metal_State_Penalty>
3.71015

> <b_epik_Metal_Only>
0

> <s_lp_Force_Field>
OPLS_2005

> <r_lp_Energy>
29.3715

> <b_lp_Chiralities_Consistent>
1

> <s_lp_Variant>
AV-unprocessed.smi:910-7

> <Gold.Version>
5.8.1

> <Gold.Id.Protein>
6NUR|6NUR_protein|mol2

> <Gold.PLP.Fitness>
47.5416

> <Gold.PLP.PLP>
-44.8753

> <Gold.PLP.part.hbond>
-4.0772

> <Gold.PLP.part.metal>
0.0000

> <Gold.PLP.part.buried>
-2.1277

> <Gold.PLP.part.nonpolar>
-37.7161

> <Gold.PLP.part.repulsive>
0.3935

> <Gold.PLP.ligand.clash>
0.0000

> <Gold.PLP.ligand.torsion>
1.6897

> <Gold.PLP.Chemscore.Hbond>
1.9920

> <Gold.PLP.Chemscore.CHOScore>
0.0000

> <Gold.PLP.Chemscore.Metal>
0.0000

> <Gold.Chemscore.Hbonds>
donor molecule, donor type, donor heavy atom, donor atom, acceptor molecule, acceptor atom, score
      L1  H     3    25       P1  7948  0.97
      P1  H  7997  8010       L1     7  1.00

> <Gold.PLP.Chemscore.Internal.Correction>
0.0697

> <Gold.Rescore>
     Score         DG    S(hbond)    S(metal)    S(lipo)     H(rot)  DE(clash)    DE(int)     intcor
     18.20     -20.22       1.81        0.00     110.68       1.66       0.33       1.70       ----

> <Gold.Chemscore.Fitness>
18.1959

> <Gold.Chemscore.DG>
-20.2245

> <Gold.Chemscore.ZeroCoef>
-5.4800

> <Gold.Chemscore.Hbond>
1.8078

> <Gold.Chemscore.Metal>
0.0000

> <Gold.Chemscore.Lipo>
110.6829

> <Gold.Chemscore.Internal_Hbond>
0.0000

> <Gold.Chemscore.DEClash>
0.3273

> <Gold.Chemscore.DEInternal>
1.7013

> <Gold.Chemscore.Rot>
1.6576

> <Gold.Chemscore.Internal.Correction>
   9.000000E+99

> <Gold.Chemscore.Hbonds>
donor molecule, donor type, donor heavy atom, donor atom, acceptor molecule, acceptor atom, score
      L1  H     3    25       P1  7948  0.71
      P1  H  7997  8010       L1     7  1.00

> <Gold.Chemscore.Hbond.Weighted>
-6.0381

> <Gold.Chemscore.Metal.Weighted>
-0.0000

> <Gold.Chemscore.Lipo.Weighted>
-12.9499

> <Gold.Chemscore.Internal_Hbond.Weighted>
0.0000

> <Gold.Chemscore.DEClash.Weighted>
0.3273

> <Gold.Chemscore.DEInternal.Weighted>
1.7013

> <Gold.Chemscore.Rot.Weighted>
4.2436

> <Gold.Chemscore.Internal.Correction.Weighted>
   9.000000E+99

> <Gold.Protein.RotatedTorsions>
[ 6907 6896 6895 6894 ] final  122.55 input  -60.11 | X-H torsion
[ 7974 7965 7964 7962 ] final  -52.77 input  175.53 | X-H torsion
[ 8008 7997 7996 7995 ] final  104.79 input   59.86 | X-H torsion
[ 10167 10162 10161 10158 ] final  101.58 input  -65.29 | X-H torsion
[ 10718 10713 10712 10709 ] final   38.83 input   66.30 | X-H torsion
[ 10763 10752 10751 10750 ] final  120.24 input  -60.55 | X-H torsion
[ 11005 11000 10999 10996 ] final   23.12 input  -57.11 | X-H torsion

> <Gold.Protein.ActiveResidues>
 VAL166  LYS551  ARG553  GLY616  TRP617  ASP618  TYR619  PRO620  LYS621  CYS622 
 ASP623  PHE694  ASN695  SER759  ASP760  ASP761  ALA762  ILE779  LEU786  VAL792 
 PHE793  MET794  SER795  GLU796  ALA797  LYS798  CYS799  TRP800  GLU811  SER814 

> <Gold.Protein.RotatedAtoms>
  152.4234  133.7154  159.6502 H   0  0  0  0  0  0  0  0  0  0  0  0  # atno 6907 bound_to 6896
  150.8110  133.8411  159.3188 H   0  0  0  0  0  0  0  0  0  0  0  0  # atno 6908 bound_to 6896
  151.6121  135.1041  160.0135 H   0  0  0  0  0  0  0  0  0  0  0  0  # atno 6909 bound_to 6896
  145.9042  140.7969  142.9728 H   0  0  0  0  0  0  0  0  0  0  0  0  # atno 7974 bound_to 7965
  156.1604  140.3141  155.8797 H   0  0  0  0  0  0  0  0  0  0  0  0  # atno 8008 bound_to 7997
  155.3794  140.0487  157.3061 H   0  0  0  0  0  0  0  0  0  0  0  0  # atno 8009 bound_to 7997
  154.5141  140.2175  155.9111 H   0  0  0  0  0  0  0  0  0  0  0  0  # atno 8010 bound_to 7997
  139.7425  144.7007  151.0554 H   0  0  0  0  0  0  0  0  0  0  0  0  # atno 10167 bound_to 10162
  157.3635  130.7662  149.7065 H   0  0  0  0  0  0  0  0  0  0  0  0  # atno 10718 bound_to 10713
  153.5954  135.3458  155.2926 H   0  0  0  0  0  0  0  0  0  0  0  0  # atno 10763 bound_to 10752
  154.8645  135.4215  154.2470 H   0  0  0  0  0  0  0  0  0  0  0  0  # atno 10764 bound_to 10752
  153.3287  135.7043  153.7038 H   0  0  0  0  0  0  0  0  0  0  0  0  # atno 10765 bound_to 10752
  140.3731  134.2001  155.7666 H   0  0  0  0  0  0  0  0  0  0  0  0  # atno 11005 bound_to 11000
  144.6738  140.1725  143.7413 LP  0  0  0  0  0  0  0  0  0  0  0  0  # atno 17320 bound_to 7965
  145.8753  139.2293  143.1637 LP  0  0  0  0  0  0  0  0  0  0  0  0  # atno 17321 bound_to 7965
  140.7788  143.4907  150.9897 LP  0  0  0  0  0  0  0  0  0  0  0  0  # atno 17342 bound_to 10162
  139.8595  143.7333  152.3174 LP  0  0  0  0  0  0  0  0  0  0  0  0  # atno 17343 bound_to 10162
  155.9742  130.4107  150.3944 LP  0  0  0  0  0  0  0  0  0  0  0  0  # atno 17370 bound_to 10713
  157.2025  131.0441  151.2643 LP  0  0  0  0  0  0  0  0  0  0  0  0  # atno 17371 bound_to 10713
  141.1948  133.8120  157.0742 LP  0  0  0  0  0  0  0  0  0  0  0  0  # atno 17394 bound_to 11000
  140.0536  134.9792  157.1181 LP  0  0  0  0  0  0  0  0  0  0  0  0  # atno 17395 bound_to 11000

$$$$
