AV-unprocessed.smi:234|AV-procd|sdf|1787|dock2
  -GOLD-   2262020343D 1   1.00000     0.00000
 Structure written by MMmdl.
 59 62  0  0  0  0  0  0  0  0  1 V2000
  152.8937  143.1860  160.7928 C   0  0  0  0  0  0  0  0  0  0  0  0
  153.7544  142.4942  159.7275 C   0  0  0  0  0  0  0  0  0  0  0  0
  153.2588  141.2059  159.3933 O   0  0  0  0  0  0  0  0  0  0  0  0
  151.8530  141.1433  159.1907 C   0  0  2  0  0  0  0  0  0  0  0  0
  151.4429  139.9020  158.4012 C   0  0  0  0  0  0  0  0  0  0  0  0
  150.4093  140.8077  157.7176 C   0  0  2  0  0  0  0  0  0  0  0  0
  150.2034  140.5168  156.2959 N   0  0  0  0  0  0  0  0  0  0  0  0
  149.2695  141.3483  155.5453 C   0  0  0  0  0  0  0  0  0  0  0  0
  150.1424  139.2174  155.9187 C   0  0  0  0  0  0  0  0  0  0  0  0
  151.1716  138.7434  155.1718 N   0  0  0  0  0  0  0  0  0  0  0  0
  151.1786  137.4688  154.7708 C   0  0  0  0  0  0  0  0  0  0  0  0
  150.2697  136.5178  154.9953 N   0  0  0  0  0  0  0  0  0  0  0  0
  149.2250  136.9940  155.7313 C   0  0  0  0  0  0  0  0  0  0  0  0
  149.0769  138.3216  156.2248 C   0  0  0  0  0  0  0  0  0  0  0  0
  147.8717  138.4374  156.9082 N   0  0  0  0  0  0  0  0  0  0  0  0
  147.3472  137.2452  156.8377 C   0  0  0  0  0  0  0  0  0  0  0  0
  148.0986  136.3125  156.1597 N   0  0  0  0  0  0  0  0  0  0  0  0
  147.7613  134.9137  155.9415 C   0  0  0  0  0  0  0  0  0  0  0  0
  146.3309  134.7090  155.3754 C   0  0  1  0  0  0  0  0  0  0  0  0
  146.0242  135.8186  154.5481 O   0  0  0  0  0  0  0  0  0  0  0  0
  146.1858  133.4452  154.5309 C   0  0  0  0  0  0  0  0  0  0  0  0
  144.7240  133.0708  154.7186 C   0  0  0  0  0  0  0  0  0  0  0  0
  144.5113  133.3564  156.0892 O   0  0  0  0  0  0  0  0  0  0  0  0
  145.1855  134.5684  156.4180 C   0  0  1  0  0  0  0  0  0  0  0  0
  145.5968  134.4874  157.8963 C   0  0  0  0  0  0  0  0  0  0  0  0
  151.3468  142.0136  158.0106 C   0  0  0  0  0  0  0  0  0  0  0  0
  150.6599  143.3205  158.4098 C   0  0  0  0  0  0  0  0  0  0  0  0
  152.4009  142.3654  156.9462 C   0  0  0  0  0  0  0  0  0  0  0  0
  153.2312  144.2097  160.9562 H   0  0  0  0  0  0  0  0  0  0  0  0
  152.9479  142.6691  161.7504 H   0  0  0  0  0  0  0  0  0  0  0  0
  151.8480  143.2240  160.4869 H   0  0  0  0  0  0  0  0  0  0  0  0
  153.7444  143.0955  158.8184 H   0  0  0  0  0  0  0  0  0  0  0  0
  154.7962  142.4312  160.0458 H   0  0  0  0  0  0  0  0  0  0  0  0
  151.2512  141.2511  160.0969 H   0  0  0  0  0  0  0  0  0  0  0  0
  152.2254  139.5356  157.7339 H   0  0  0  0  0  0  0  0  0  0  0  0
  151.0216  139.0999  159.0077 H   0  0  0  0  0  0  0  0  0  0  0  0
  149.4828  140.8714  158.2914 H   0  0  0  0  0  0  0  0  0  0  0  0
  148.3668  140.7972  155.2764 H   0  0  0  0  0  0  0  0  0  0  0  0
  149.7394  141.7011  154.6270 H   0  0  0  0  0  0  0  0  0  0  0  0
  148.9614  142.2194  156.1213 H   0  0  0  0  0  0  0  0  0  0  0  0
  152.0359  137.1677  154.1865 H   0  0  0  0  0  0  0  0  0  0  0  0
  146.3930  137.0113  157.2868 H   0  0  0  0  0  0  0  0  0  0  0  0
  148.5047  134.5005  155.2594 H   0  0  0  0  0  0  0  0  0  0  0  0
  147.8788  134.3818  156.8865 H   0  0  0  0  0  0  0  0  0  0  0  0
  146.6289  135.8284  153.8222 H   0  0  0  0  0  0  0  0  0  0  0  0
  146.4655  133.5773  153.4847 H   0  0  0  0  0  0  0  0  0  0  0  0
  146.8049  132.6467  154.9415 H   0  0  0  0  0  0  0  0  0  0  0  0
  144.0735  133.6947  154.1036 H   0  0  0  0  0  0  0  0  0  0  0  0
  144.5231  132.0244  154.4886 H   0  0  0  0  0  0  0  0  0  0  0  0
  144.4680  135.3837  156.3065 H   0  0  0  0  0  0  0  0  0  0  0  0
  146.1093  135.3942  158.2173 H   0  0  0  0  0  0  0  0  0  0  0  0
  146.2526  133.6371  158.0844 H   0  0  0  0  0  0  0  0  0  0  0  0
  144.7194  134.3682  158.5321 H   0  0  0  0  0  0  0  0  0  0  0  0
  150.1734  143.7988  157.5601 H   0  0  0  0  0  0  0  0  0  0  0  0
  151.3719  144.0375  158.8183 H   0  0  0  0  0  0  0  0  0  0  0  0
  149.8955  143.1545  159.1689 H   0  0  0  0  0  0  0  0  0  0  0  0
  151.9543  142.8637  156.0854 H   0  0  0  0  0  0  0  0  0  0  0  0
  152.9194  141.4825  156.5721 H   0  0  0  0  0  0  0  0  0  0  0  0
  153.1619  143.0353  157.3478 H   0  0  0  0  0  0  0  0  0  0  0  0
  1  2  1  0  0  0  0
  1 29  1  0  0  0  0
  1 30  1  0  0  0  0
  1 31  1  0  0  0  0
  2  3  1  0  0  0  0
  2 32  1  0  0  0  0
  2 33  1  0  0  0  0
  3  4  1  0  0  0  0
  4 26  1  0  0  0  0
  4  5  1  0  0  0  0
  4 34  1  0  0  0  0
  5  6  1  0  0  0  0
  5 35  1  0  0  0  0
  5 36  1  0  0  0  0
  6  7  1  0  0  0  0
  6 26  1  0  0  0  0
  6 37  1  0  0  0  0
  7  8  1  0  0  0  0
  7  9  1  0  0  0  0
  8 38  1  0  0  0  0
  8 39  1  0  0  0  0
  8 40  1  0  0  0  0
  9 14  1  0  0  0  0
  9 10  2  0  0  0  0
 10 11  1  0  0  0  0
 11 12  2  0  0  0  0
 11 41  1  0  0  0  0
 12 13  1  0  0  0  0
 13 17  1  0  0  0  0
 13 14  2  0  0  0  0
 14 15  1  0  0  0  0
 15 16  2  0  0  0  0
 16 17  1  0  0  0  0
 16 42  1  0  0  0  0
 17 18  1  0  0  0  0
 18 19  1  0  0  0  0
 18 43  1  0  0  0  0
 18 44  1  0  0  0  0
 19 24  1  0  0  0  0
 19 20  1  0  0  0  0
 19 21  1  0  0  0  0
 20 45  1  0  0  0  0
 21 22  1  0  0  0  0
 21 46  1  0  0  0  0
 21 47  1  0  0  0  0
 22 23  1  0  0  0  0
 22 48  1  0  0  0  0
 22 49  1  0  0  0  0
 23 24  1  0  0  0  0
 24 25  1  0  0  0  0
 24 50  1  0  0  0  0
 25 51  1  0  0  0  0
 25 52  1  0  0  0  0
 25 53  1  0  0  0  0
 26 27  1  0  0  0  0
 26 28  1  0  0  0  0
 27 54  1  0  0  0  0
 27 55  1  0  0  0  0
 27 56  1  0  0  0  0
 28 57  1  0  0  0  0
 28 58  1  0  0  0  0
 28 59  1  0  0  0  0
M  END
> <s_m_source_file>
AV-unprocessed.smi

> <i_m_source_file_index>
234

> <i_lp_mmshare_version>
43012

> <i_f3d_flags>
0

> <s_epik_input>
W0NIM11bQ0gyXU9bQ0BASF0oQzEoW0NIM10pW0NIM10pW0NIMl1bQ0BIXTFOKFtDSDNdKWMobltjSF1uMiljKGMyMyluW2NIXW4zW0NIMl1bQ0BAXTQoW09IXSlbQ0gyXVtDSDJdT1tDQEhdNFtDSDNd

> <s_epik_cmdline>
J2VwaWtfcHl0aG9uJywgJy1waCcsICc3LjAnLCAnLXRuJywgJzgnLCAnLW1hJywgJzIwMCcsICctbWV0YWxfYmluZGluZycsICctaW1hZScsICc8aW5maWxlLm1hZT4nLCAnLW9tYWUnLCAnPG91dGZpbGUubWFlPic=

> <r_lp_tautomer_probability>
1

> <r_epik_Ionization_Penalty>
0.00349132

> <r_epik_Ionization_Penalty_Charging>
0

> <r_epik_Ionization_Penalty_Neutral>
0.00349132

> <r_epik_State_Penalty>
0.00242418

> <r_epik_Charging_Adjusted_Penalty>
0.00242418

> <i_epik_Tot_Q>
0

> <i_epik_Tot_abs_Q>
0

> <r_epik_Metal_State_Penalty>
-0

> <b_epik_Metal_Only>
0

> <s_lp_Force_Field>
OPLS_2005

> <r_lp_Energy>
50.018

> <b_lp_Chiralities_Consistent>
1

> <s_lp_Variant>
AV-unprocessed.smi:234-3

> <Gold.Version>
5.8.1

> <Gold.Id.Protein>
6NUR|6NUR_protein|mol2

> <Gold.PLP.Fitness>
49.2165

> <Gold.PLP.PLP>
-41.9788

> <Gold.PLP.part.hbond>
-2.6865

> <Gold.PLP.part.metal>
0.0000

> <Gold.PLP.part.buried>
-9.1394

> <Gold.PLP.part.nonpolar>
-31.0705

> <Gold.PLP.part.repulsive>
0.2183

> <Gold.PLP.ligand.clash>
0.0000

> <Gold.PLP.ligand.torsion>
1.4013

> <Gold.PLP.Chemscore.Hbond>
2.9840

> <Gold.PLP.Chemscore.CHOScore>
0.0000

> <Gold.PLP.Chemscore.Metal>
0.0000

> <Gold.PLP.Chemscore.Internal.Correction>
1.0884

> <Gold.Rescore>
     Score         DG    S(hbond)    S(metal)    S(lipo)     H(rot)  DE(clash)    DE(int)     intcor
     12.94     -18.13       2.52        0.00      93.67       2.62       1.86       3.33       ----

> <Gold.Chemscore.Fitness>
12.9444

> <Gold.Chemscore.DG>
-18.1316

> <Gold.Chemscore.ZeroCoef>
-5.4800

> <Gold.Chemscore.Hbond>
2.5161

> <Gold.Chemscore.Metal>
0.0000

> <Gold.Chemscore.Lipo>
93.6739

> <Gold.Chemscore.Internal_Hbond>
0.0000

> <Gold.Chemscore.DEClash>
1.8617

> <Gold.Chemscore.DEInternal>
3.3256

> <Gold.Chemscore.Rot>
2.6219

> <Gold.Chemscore.Internal.Correction>
   9.000000E+99

> <Gold.Chemscore.Hbond.Weighted>
-8.4039

> <Gold.Chemscore.Metal.Weighted>
-0.0000

> <Gold.Chemscore.Lipo.Weighted>
-10.9598

> <Gold.Chemscore.Internal_Hbond.Weighted>
0.0000

> <Gold.Chemscore.DEClash.Weighted>
1.8617

> <Gold.Chemscore.DEInternal.Weighted>
3.3256

> <Gold.Chemscore.Rot.Weighted>
6.7121

> <Gold.Chemscore.Internal.Correction.Weighted>
   9.000000E+99

> <Gold.Protein.RotatedTorsions>
[ 6907 6896 6895 6894 ] final   11.87 input  -60.11 | X-H torsion
[ 7974 7965 7964 7962 ] final  -14.28 input  175.53 | X-H torsion
[ 8008 7997 7996 7995 ] final  153.77 input   59.86 | X-H torsion
[ 10167 10162 10161 10158 ] final   41.13 input  -65.29 | X-H torsion
[ 10718 10713 10712 10709 ] final  138.88 input   66.30 | X-H torsion
[ 10763 10752 10751 10750 ] final  -72.47 input  -60.55 | X-H torsion
[ 11005 11000 10999 10996 ] final   65.52 input  -57.11 | X-H torsion

> <Gold.Protein.ActiveResidues>
 VAL166  LYS551  ARG553  GLY616  TRP617  ASP618  TYR619  PRO620  LYS621  CYS622 
 ASP623  PHE694  ASN695  SER759  ASP760  ASP761  ALA762  ILE779  LEU786  VAL792 
 PHE793  MET794  SER795  GLU796  ALA797  LYS798  CYS799  TRP800  GLU811  SER814 

> <Gold.Protein.RotatedAtoms>
  151.7612  135.0809  160.0345 H   0  0  0  0  0  0  0  0  0  0  0  0  # atno 6907 bound_to 6896
  152.3352  133.5999  159.5846 H   0  0  0  0  0  0  0  0  0  0  0  0  # atno 6908 bound_to 6896
  150.7446  133.9723  159.3591 H   0  0  0  0  0  0  0  0  0  0  0  0  # atno 6909 bound_to 6896
  146.2080  140.3326  142.8400 H   0  0  0  0  0  0  0  0  0  0  0  0  # atno 7974 bound_to 7965
  156.2565  140.1984  156.6543 H   0  0  0  0  0  0  0  0  0  0  0  0  # atno 8008 bound_to 7997
  154.6513  140.0571  156.9984 H   0  0  0  0  0  0  0  0  0  0  0  0  # atno 8009 bound_to 7997
  155.1414  140.3243  155.4454 H   0  0  0  0  0  0  0  0  0  0  0  0  # atno 8010 bound_to 7997
  140.3673  144.2150  150.6135 H   0  0  0  0  0  0  0  0  0  0  0  0  # atno 10167 bound_to 10162
  157.4205  131.1038  151.0358 H   0  0  0  0  0  0  0  0  0  0  0  0  # atno 10718 bound_to 10713
  154.4462  135.5928  153.6161 H   0  0  0  0  0  0  0  0  0  0  0  0  # atno 10763 bound_to 10752
  152.9809  135.6010  154.3661 H   0  0  0  0  0  0  0  0  0  0  0  0  # atno 10764 bound_to 10752
  154.3517  135.2841  155.2347 H   0  0  0  0  0  0  0  0  0  0  0  0  # atno 10765 bound_to 10752
  139.9889  134.6623  156.0126 H   0  0  0  0  0  0  0  0  0  0  0  0  # atno 11005 bound_to 11000
  144.8842  140.7440  143.5967 LP  0  0  0  0  0  0  0  0  0  0  0  0  # atno 17320 bound_to 7965
  145.3247  139.1778  143.4569 LP  0  0  0  0  0  0  0  0  0  0  0  0  # atno 17321 bound_to 7965
  140.5068  143.2302  151.8596 LP  0  0  0  0  0  0  0  0  0  0  0  0  # atno 17342 bound_to 10162
  139.4807  144.4996  151.9078 LP  0  0  0  0  0  0  0  0  0  0  0  0  # atno 17343 bound_to 10162
  157.1290  130.6094  149.5524 LP  0  0  0  0  0  0  0  0  0  0  0  0  # atno 17370 bound_to 10713
  155.9879  130.4920  150.7146 LP  0  0  0  0  0  0  0  0  0  0  0  0  # atno 17371 bound_to 10713
  141.1549  133.6544  156.4129 LP  0  0  0  0  0  0  0  0  0  0  0  0  # atno 17394 bound_to 11000
  140.4947  134.6542  157.5225 LP  0  0  0  0  0  0  0  0  0  0  0  0  # atno 17395 bound_to 11000

$$$$
