AV-unprocessed.smi:895|AV-procd|sdf|4075|dock6
  -GOLD-   22720 1563D 1   1.00000     0.00000
 Structure written by MMmdl.
 44 45  0  0  0  0  0  0  0  0  1 V2000
  147.0014  133.2839  151.6543 C   0  0  0  0  0  0  0  0  0  0  0  0
  145.5277  133.7281  151.7223 C   0  0  0  0  0  0  0  0  0  0  0  0
  144.6353  132.7285  150.9675 C   0  0  0  0  0  0  0  0  0  0  0  0
  145.1137  133.6840  153.0738 O   0  0  0  0  0  0  0  0  0  0  0  0
  145.2791  135.1617  151.1936 C   0  0  0  0  0  0  0  0  0  0  0  0
  146.1812  136.1563  151.7719 N   0  0  0  0  0  0  0  0  0  0  0  0
  145.8094  137.2076  152.5153 C   0  0  0  0  0  0  0  0  0  0  0  0
  144.6420  137.4783  152.7975 O   0  0  0  0  0  0  0  0  0  0  0  0
  146.8653  137.9274  152.9183 N   0  0  0  0  0  0  0  0  0  0  0  0
  146.8020  139.1182  153.7640 C   0  0  2  0  0  0  0  0  0  0  0  0
  147.1985  140.3639  152.9464 C   0  0  0  0  0  0  0  0  0  0  0  0
  147.1417  141.6362  153.8057 C   0  0  0  0  0  0  0  0  0  0  0  0
  148.0269  141.5127  155.0549 C   0  0  0  0  0  0  0  0  0  0  0  0
  147.6603  140.2681  155.8846 C   0  0  0  0  0  0  0  0  0  0  0  0
  147.6379  138.9555  155.0664 C   0  0  2  0  0  0  0  0  0  0  0  0
  148.9753  138.3994  154.8498 N   0  0  0  0  0  0  0  0  0  0  0  0
  149.9895  138.9382  154.0828 C   0  0  0  0  0  0  0  0  0  0  0  0
  151.0657  138.1031  154.1708 C   0  0  0  0  0  0  0  0  0  0  0  0
  150.6136  137.0626  155.0276 C   0  0  0  0  0  0  0  0  0  0  0  0
  149.3680  137.2434  155.4320 N   0  0  0  0  0  0  0  0  0  0  0  0
  147.3804  133.3405  150.6334 H   0  0  0  0  0  0  0  0  0  0  0  0
  147.1197  132.2538  151.9920 H   0  0  0  0  0  0  0  0  0  0  0  0
  147.6446  133.9019  152.2814 H   0  0  0  0  0  0  0  0  0  0  0  0
  144.8912  132.6948  149.9080 H   0  0  0  0  0  0  0  0  0  0  0  0
  143.5813  132.9993  151.0426 H   0  0  0  0  0  0  0  0  0  0  0  0
  144.7438  131.7178  151.3633 H   0  0  0  0  0  0  0  0  0  0  0  0
  145.6629  133.0682  153.5344 H   0  0  0  0  0  0  0  0  0  0  0  0
  145.3675  135.1708  150.1057 H   0  0  0  0  0  0  0  0  0  0  0  0
  144.2543  135.4690  151.4056 H   0  0  0  0  0  0  0  0  0  0  0  0
  147.1673  136.0230  151.6019 H   0  0  0  0  0  0  0  0  0  0  0  0
  147.7853  137.6210  152.6372 H   0  0  0  0  0  0  0  0  0  0  0  0
  145.7601  139.2598  154.0586 H   0  0  0  0  0  0  0  0  0  0  0  0
  148.1969  140.2488  152.5250 H   0  0  0  0  0  0  0  0  0  0  0  0
  146.5257  140.4745  152.0953 H   0  0  0  0  0  0  0  0  0  0  0  0
  147.4530  142.4976  153.2140 H   0  0  0  0  0  0  0  0  0  0  0  0
  146.1109  141.8256  154.1073 H   0  0  0  0  0  0  0  0  0  0  0  0
  149.0757  141.4816  154.7618 H   0  0  0  0  0  0  0  0  0  0  0  0
  147.9169  142.4060  155.6704 H   0  0  0  0  0  0  0  0  0  0  0  0
  148.3379  140.1712  156.7336 H   0  0  0  0  0  0  0  0  0  0  0  0
  146.6688  140.4238  156.3117 H   0  0  0  0  0  0  0  0  0  0  0  0
  147.1176  138.2237  155.6865 H   0  0  0  0  0  0  0  0  0  0  0  0
  149.8633  139.8660  153.5439 H   0  0  0  0  0  0  0  0  0  0  0  0
  152.0290  138.2191  153.6967 H   0  0  0  0  0  0  0  0  0  0  0  0
  151.1495  136.1885  155.3669 H   0  0  0  0  0  0  0  0  0  0  0  0
  1  2  1  0  0  0  0
  1 21  1  0  0  0  0
  1 22  1  0  0  0  0
  1 23  1  0  0  0  0
  2  3  1  0  0  0  0
  2  4  1  0  0  0  0
  2  5  1  0  0  0  0
  3 24  1  0  0  0  0
  3 25  1  0  0  0  0
  3 26  1  0  0  0  0
  4 27  1  0  0  0  0
  5  6  1  0  0  0  0
  5 28  1  0  0  0  0
  5 29  1  0  0  0  0
  6  7  1  0  0  0  0
  6 30  1  0  0  0  0
  7  8  2  0  0  0  0
  7  9  1  0  0  0  0
  9 10  1  0  0  0  0
  9 31  1  0  0  0  0
 10 15  1  0  0  0  0
 10 11  1  0  0  0  0
 10 32  1  0  0  0  0
 11 12  1  0  0  0  0
 11 33  1  0  0  0  0
 11 34  1  0  0  0  0
 12 13  1  0  0  0  0
 12 35  1  0  0  0  0
 12 36  1  0  0  0  0
 13 14  1  0  0  0  0
 13 37  1  0  0  0  0
 13 38  1  0  0  0  0
 14 15  1  0  0  0  0
 14 39  1  0  0  0  0
 14 40  1  0  0  0  0
 15 16  1  0  0  0  0
 15 41  1  0  0  0  0
 16 20  1  0  0  0  0
 16 17  1  0  0  0  0
 17 18  2  0  0  0  0
 17 42  1  0  0  0  0
 18 19  1  0  0  0  0
 18 43  1  0  0  0  0
 19 20  2  0  0  0  0
 19 44  1  0  0  0  0
M  END
> <s_m_source_file>
AV-unprocessed.smi

> <i_m_source_file_index>
895

> <i_lp_mmshare_version>
43012

> <i_f3d_flags>
0

> <s_epik_input>
W0NIM11DKFtDSDNdKShbT0hdKVtDSDJdW05IXUMoPU8pW05IXVtDQEBIXTFbQ0gyXVtDSDJdW0NIMl1bQ0gyXVtDQEhdMW4yW2NIXVtjSF1bY0hdbjI=

> <s_epik_cmdline>
J2VwaWtfcHl0aG9uJywgJy1waCcsICc3LjAnLCAnLXRuJywgJzgnLCAnLW1hJywgJzIwMCcsICctbWV0YWxfYmluZGluZycsICctaW1hZScsICc8aW5maWxlLm1hZT4nLCAnLW9tYWUnLCAnPG91dGZpbGUubWFlPic=

> <r_lp_tautomer_probability>
1

> <r_epik_Ionization_Penalty>
0.000440451

> <r_epik_Ionization_Penalty_Charging>
0

> <r_epik_Ionization_Penalty_Neutral>
0.000440451

> <r_epik_State_Penalty>
-0

> <r_epik_Charging_Adjusted_Penalty>
0

> <i_epik_Tot_Q>
0

> <i_epik_Tot_abs_Q>
0

> <r_epik_Metal_State_Penalty>
-0

> <b_epik_Metal_Only>
0

> <s_lp_Force_Field>
OPLS_2005

> <r_lp_Energy>
14.0773

> <b_lp_Chiralities_Consistent>
1

> <s_lp_Variant>
AV-unprocessed.smi:895-3

> <Gold.Version>
5.8.1

> <Gold.Id.Protein>
6NUR|6NUR_protein|mol2

> <Gold.PLP.Fitness>
40.2931

> <Gold.PLP.PLP>
-31.8872

> <Gold.PLP.part.hbond>
-2.0000

> <Gold.PLP.part.metal>
0.0000

> <Gold.PLP.part.buried>
-4.8502

> <Gold.PLP.part.nonpolar>
-26.0481

> <Gold.PLP.part.repulsive>
0.4133

> <Gold.PLP.ligand.clash>
0.0000

> <Gold.PLP.ligand.torsion>
0.1579

> <Gold.PLP.Chemscore.Hbond>
1.9920

> <Gold.PLP.Chemscore.CHOScore>
0.8826

> <Gold.PLP.Chemscore.Metal>
0.0000

> <Gold.Chemscore.Hbonds>
donor molecule, donor type, donor heavy atom, donor atom, acceptor molecule, acceptor atom, score
      L1  H     6    30       P1  7948  1.00
      L1  H     9    31       P1  7948  1.00
      L1  C    17    42       P1  7957  0.89

> <Gold.PLP.Chemscore.Internal.Correction>
0.0981

> <Gold.Rescore>
     Score         DG    S(hbond)    S(metal)    S(lipo)     H(rot)  DE(clash)    DE(int)     intcor
     15.05     -15.15       1.93        0.00      75.58       2.19       0.02       0.08       ----

> <Gold.Chemscore.Fitness>
15.0530

> <Gold.Chemscore.DG>
-15.1536

> <Gold.Chemscore.ZeroCoef>
-5.4800

> <Gold.Chemscore.Hbond>
1.9286

> <Gold.Chemscore.Metal>
0.0000

> <Gold.Chemscore.Lipo>
75.5846

> <Gold.Chemscore.Internal_Hbond>
0.0000

> <Gold.Chemscore.DEClash>
0.0195

> <Gold.Chemscore.DEInternal>
0.0811

> <Gold.Chemscore.Rot>
2.1919

> <Gold.Chemscore.Internal.Correction>
   9.000000E+99

> <Gold.Chemscore.Hbonds>
donor molecule, donor type, donor heavy atom, donor atom, acceptor molecule, acceptor atom, score
      L1  H     6    30       P1  7948  0.99
      L1  H     9    31       P1  7948  0.93

> <Gold.Chemscore.Hbond.Weighted>
-6.4415

> <Gold.Chemscore.Metal.Weighted>
-0.0000

> <Gold.Chemscore.Lipo.Weighted>
-8.8434

> <Gold.Chemscore.Internal_Hbond.Weighted>
0.0000

> <Gold.Chemscore.DEClash.Weighted>
0.0195

> <Gold.Chemscore.DEInternal.Weighted>
0.0811

> <Gold.Chemscore.Rot.Weighted>
5.6113

> <Gold.Chemscore.Internal.Correction.Weighted>
   9.000000E+99

> <Gold.Protein.RotatedTorsions>
[ 6907 6896 6895 6894 ] final    5.91 input  -60.11 | X-H torsion
[ 7974 7965 7964 7962 ] final   30.78 input  175.53 | X-H torsion
[ 8008 7997 7996 7995 ] final   20.27 input   59.86 | X-H torsion
[ 10167 10162 10161 10158 ] final   67.36 input  -65.29 | X-H torsion
[ 10718 10713 10712 10709 ] final   27.36 input   66.30 | X-H torsion
[ 10763 10752 10751 10750 ] final   16.35 input  -60.55 | X-H torsion
[ 11005 11000 10999 10996 ] final  -14.97 input  -57.11 | X-H torsion

> <Gold.Protein.ActiveResidues>
 VAL166  LYS551  ARG553  GLY616  TRP617  ASP618  TYR619  PRO620  LYS621  CYS622 
 ASP623  PHE694  ASN695  SER759  ASP760  ASP761  ALA762  ILE779  LEU786  VAL792 
 PHE793  MET794  SER795  GLU796  ALA797  LYS798  CYS799  TRP800  GLU811  SER814 

> <Gold.Protein.RotatedAtoms>
  151.6652  135.0984  160.0187 H   0  0  0  0  0  0  0  0  0  0  0  0  # atno 6907 bound_to 6896
  152.3924  133.6693  159.6256 H   0  0  0  0  0  0  0  0  0  0  0  0  # atno 6908 bound_to 6896
  150.7837  133.8849  159.3337 H   0  0  0  0  0  0  0  0  0  0  0  0  # atno 6909 bound_to 6896
  146.1590  139.6743  142.9046 H   0  0  0  0  0  0  0  0  0  0  0  0  # atno 7974 bound_to 7965
  154.9331  140.3043  155.5158 H   0  0  0  0  0  0  0  0  0  0  0  0  # atno 8008 bound_to 7997
  156.3002  140.2350  156.4330 H   0  0  0  0  0  0  0  0  0  0  0  0  # atno 8009 bound_to 7997
  154.8218  140.0423  157.1404 H   0  0  0  0  0  0  0  0  0  0  0  0  # atno 8010 bound_to 7997
  140.0904  144.4993  150.7102 H   0  0  0  0  0  0  0  0  0  0  0  0  # atno 10167 bound_to 10162
  157.2191  130.6970  149.6262 H   0  0  0  0  0  0  0  0  0  0  0  0  # atno 10718 bound_to 10713
  153.1439  135.6765  153.8984 H   0  0  0  0  0  0  0  0  0  0  0  0  # atno 10763 bound_to 10752
  153.8432  135.3102  155.3429 H   0  0  0  0  0  0  0  0  0  0  0  0  # atno 10764 bound_to 10752
  154.7810  135.4888  153.9928 H   0  0  0  0  0  0  0  0  0  0  0  0  # atno 10765 bound_to 10752
  140.7919  133.8281  155.9388 H   0  0  0  0  0  0  0  0  0  0  0  0  # atno 11005 bound_to 11000
  145.4635  141.0434  143.2738 LP  0  0  0  0  0  0  0  0  0  0  0  0  # atno 17320 bound_to 7965
  144.8002  139.6155  143.7075 LP  0  0  0  0  0  0  0  0  0  0  0  0  # atno 17321 bound_to 7965
  140.7031  143.2449  151.4805 LP  0  0  0  0  0  0  0  0  0  0  0  0  # atno 17342 bound_to 10162
  139.5728  144.1889  152.1860 LP  0  0  0  0  0  0  0  0  0  0  0  0  # atno 17343 bound_to 10162
  155.9684  130.4525  150.5778 LP  0  0  0  0  0  0  0  0  0  0  0  0  # atno 17370 bound_to 10713
  157.3594  131.0747  151.1649 LP  0  0  0  0  0  0  0  0  0  0  0  0  # atno 17371 bound_to 10713
  140.9381  134.1936  157.4817 LP  0  0  0  0  0  0  0  0  0  0  0  0  # atno 17394 bound_to 11000
  139.8730  134.9860  156.5308 LP  0  0  0  0  0  0  0  0  0  0  0  0  # atno 17395 bound_to 11000

$$$$
