AV-unprocessed.smi:1197|AV-procd|sdf|5009|dock3
  -GOLD-   22720 4 23D 1   1.00000     0.00000
 Structure written by MMmdl.
 41 42  0  0  0  0  0  0  0  0  2 V2000
  152.4526  140.3531  159.4329 C   0  0  0  0  0  0  0  0  0  0  0  0
  152.9943  140.1712  158.1294 O   0  0  0  0  0  0  0  0  0  0  0  0
  152.1232  139.9469  157.0832 C   0  0  0  0  0  0  0  0  0  0  0  0
  150.7554  140.2270  157.2731 C   0  0  0  0  0  0  0  0  0  0  0  0
  149.8594  140.0004  156.2110 C   0  0  0  0  0  0  0  0  0  0  0  0
  150.3613  139.4911  154.9897 C   0  0  0  0  0  0  0  0  0  0  0  0
  149.5626  139.2423  153.8411 N   0  0  0  0  0  0  0  0  0  0  0  0
  148.2336  139.0528  153.7769 C   0  0  0  0  0  0  0  0  0  0  0  0
  147.4735  139.0239  154.7445 O   0  0  0  0  0  0  0  0  0  0  0  0
  147.8299  138.8744  152.5108 N   0  0  0  0  0  0  0  0  0  0  0  0
  146.4554  138.6276  152.0876 C   0  0  0  0  0  0  0  0  0  0  0  0
  145.8226  137.5124  152.9361 C   0  0  0  0  0  0  0  0  0  0  0  0
  146.2354  136.1598  152.4844 N   0  3  0  0  0  0  0  0  0  0  0  0
  146.2105  135.1614  153.5800 C   0  0  0  0  0  0  0  0  0  0  0  0
  146.6969  133.7927  153.0733 C   0  0  0  0  0  0  0  0  0  0  0  0
  145.8939  133.3756  151.9765 O   0  0  0  0  0  0  0  0  0  0  0  0
  145.9748  134.2808  150.8827 C   0  0  0  0  0  0  0  0  0  0  0  0
  145.4628  135.6641  151.3181 C   0  0  0  0  0  0  0  0  0  0  0  0
  151.7491  139.2586  154.8965 C   0  0  0  0  0  0  0  0  0  0  0  0
  152.6131  139.4720  155.9112 N   0  0  0  0  0  0  0  0  0  0  0  0
  153.2651  140.5078  160.1424 H   0  0  0  0  0  0  0  0  0  0  0  0
  151.8921  139.4758  159.7588 H   0  0  0  0  0  0  0  0  0  0  0  0
  151.8043  141.2295  159.4763 H   0  0  0  0  0  0  0  0  0  0  0  0
  150.3995  140.6147  158.2162 H   0  0  0  0  0  0  0  0  0  0  0  0
  148.8152  140.2348  156.3487 H   0  0  0  0  0  0  0  0  0  0  0  0
  150.0705  139.1460  152.9739 H   0  0  0  0  0  0  0  0  0  0  0  0
  148.5286  138.9152  151.7831 H   0  0  0  0  0  0  0  0  0  0  0  0
  145.8603  139.5386  152.1522 H   0  0  0  0  0  0  0  0  0  0  0  0
  146.4677  138.3374  151.0367 H   0  0  0  0  0  0  0  0  0  0  0  0
  146.1364  137.6557  153.9713 H   0  0  0  0  0  0  0  0  0  0  0  0
  144.7339  137.5885  152.9311 H   0  0  0  0  0  0  0  0  0  0  0  0
  146.8481  135.4940  154.3998 H   0  0  0  0  0  0  0  0  0  0  0  0
  145.1971  135.0759  153.9753 H   0  0  0  0  0  0  0  0  0  0  0  0
  147.7461  133.8364  152.7766 H   0  0  0  0  0  0  0  0  0  0  0  0
  146.6220  133.0498  153.8678 H   0  0  0  0  0  0  0  0  0  0  0  0
  147.0017  134.3421  150.5188 H   0  0  0  0  0  0  0  0  0  0  0  0
  145.3686  133.8977  150.0615 H   0  0  0  0  0  0  0  0  0  0  0  0
  144.4049  135.6018  151.5786 H   0  0  0  0  0  0  0  0  0  0  0  0
  145.5438  136.3564  150.4810 H   0  0  0  0  0  0  0  0  0  0  0  0
  152.1816  138.8849  153.9798 H   0  0  0  0  0  0  0  0  0  0  0  0
  147.1997  136.2336  152.1927 H   0  0  0  0  0  0  0  0  0  0  0  0
  1  2  1  0  0  0  0
  1 21  1  0  0  0  0
  1 22  1  0  0  0  0
  1 23  1  0  0  0  0
  2  3  1  0  0  0  0
  3 20  1  0  0  0  0
  3  4  2  0  0  0  0
  4  5  1  0  0  0  0
  4 24  1  0  0  0  0
  5  6  2  0  0  0  0
  5 25  1  0  0  0  0
  6  7  1  0  0  0  0
  6 19  1  0  0  0  0
  7  8  1  0  0  0  0
  7 26  1  0  0  0  0
  8  9  2  0  0  0  0
  8 10  1  0  0  0  0
 10 11  1  0  0  0  0
 10 27  1  0  0  0  0
 11 12  1  0  0  0  0
 11 28  1  0  0  0  0
 11 29  1  0  0  0  0
 12 13  1  0  0  0  0
 12 30  1  0  0  0  0
 12 31  1  0  0  0  0
 13 18  1  0  0  0  0
 13 14  1  0  0  0  0
 13 41  1  0  0  0  0
 14 15  1  0  0  0  0
 14 32  1  0  0  0  0
 14 33  1  0  0  0  0
 15 16  1  0  0  0  0
 15 34  1  0  0  0  0
 15 35  1  0  0  0  0
 16 17  1  0  0  0  0
 17 18  1  0  0  0  0
 17 36  1  0  0  0  0
 17 37  1  0  0  0  0
 18 38  1  0  0  0  0
 18 39  1  0  0  0  0
 19 20  2  0  0  0  0
 19 40  1  0  0  0  0
M  CHG  1  13   1
M  END
> <s_m_source_file>
AV-unprocessed.smi

> <i_m_source_file_index>
1197

> <i_lp_mmshare_version>
43012

> <i_f3d_flags>
0

> <s_epik_input>
W0NIM11PYzFbY0hdW2NIXWMoW2NIXW4xKVtOSF1DKD1PKVtOSF1bQ0gyXVtDSDJdTjJbQ0gyXVtDSDJdT1tDSDJdW0NIMl0y

> <s_epik_cmdline>
J2VwaWtfcHl0aG9uJywgJy1waCcsICc3LjAnLCAnLXRuJywgJzgnLCAnLW1hJywgJzIwMCcsICctbWV0YWxfYmluZGluZycsICctaW1hZScsICc8aW5maWxlLm1hZT4nLCAnLW9tYWUnLCAnPG91dGZpbGUubWFlPic=

> <r_lp_tautomer_probability>
1

> <r_epik_Ionization_Penalty>
0.602607

> <r_epik_Ionization_Penalty_Charging>
0.602531

> <r_epik_Ionization_Penalty_Neutral>
7.65795e-05

> <r_epik_State_Penalty>
0.617039

> <r_epik_Charging_Adjusted_Penalty>
1.21957

> <i_epik_Tot_Q>
1

> <i_epik_Tot_abs_Q>
1

> <r_epik_Metal_State_Penalty>
0.617043

> <b_epik_Metal_Only>
0

> <s_lp_Force_Field>
OPLS_2005

> <r_lp_Energy>
19.492

> <b_lp_Chiralities_Consistent>
1

> <s_lp_Variant>
AV-unprocessed.smi:1197-2

> <Gold.Version>
5.8.1

> <Gold.Id.Protein>
6NUR|6NUR_protein|mol2

> <Gold.PLP.Fitness>
43.7464

> <Gold.PLP.PLP>
-32.3982

> <Gold.PLP.part.hbond>
-5.6422

> <Gold.PLP.part.metal>
0.0000

> <Gold.PLP.part.buried>
-2.5597

> <Gold.PLP.part.nonpolar>
-24.4239

> <Gold.PLP.part.repulsive>
0.4192

> <Gold.PLP.ligand.clash>
0.0127

> <Gold.PLP.ligand.torsion>
0.7009

> <Gold.PLP.Chemscore.Hbond>
4.2429

> <Gold.PLP.Chemscore.CHOScore>
0.0000

> <Gold.PLP.Chemscore.Metal>
0.0000

> <Gold.Chemscore.Hbonds>
donor molecule, donor type, donor heavy atom, donor atom, acceptor molecule, acceptor atom, score
      L1  H     7    26       P1  7957  0.52
      L1  H    10    27       P1  7957  0.78
      L1  H    13    41       P1  7948  2.00
      P1  H  7997  8008       L1    20  1.00

> <Gold.PLP.Chemscore.Internal.Correction>
0.0341

> <Gold.Rescore>
     Score         DG    S(hbond)    S(metal)    S(lipo)     H(rot)  DE(clash)    DE(int)     intcor
     15.40     -18.62       3.23        0.00      60.13       1.83       0.05       3.18       ----

> <Gold.Chemscore.Fitness>
15.3981

> <Gold.Chemscore.DG>
-18.6247

> <Gold.Chemscore.ZeroCoef>
-5.4800

> <Gold.Chemscore.Hbond>
3.2287

> <Gold.Chemscore.Metal>
0.0000

> <Gold.Chemscore.Lipo>
60.1312

> <Gold.Chemscore.Internal_Hbond>
0.0000

> <Gold.Chemscore.DEClash>
0.0487

> <Gold.Chemscore.DEInternal>
3.1779

> <Gold.Chemscore.Rot>
1.8260

> <Gold.Chemscore.Internal.Correction>
   9.000000E+99

> <Gold.Chemscore.Hbonds>
donor molecule, donor type, donor heavy atom, donor atom, acceptor molecule, acceptor atom, score
      L1  H     7    26       P1  7957  0.45
      L1  H    10    27       P1  7957  0.64
      L1  H    13    41       P1  7948  1.00
      P1  H  7997  8008       L1    20  0.25

> <Gold.Chemscore.Hbond.Weighted>
-10.7838

> <Gold.Chemscore.Metal.Weighted>
-0.0000

> <Gold.Chemscore.Lipo.Weighted>
-7.0353

> <Gold.Chemscore.Internal_Hbond.Weighted>
0.0000

> <Gold.Chemscore.DEClash.Weighted>
0.0487

> <Gold.Chemscore.DEInternal.Weighted>
3.1779

> <Gold.Chemscore.Rot.Weighted>
4.6744

> <Gold.Chemscore.Internal.Correction.Weighted>
   9.000000E+99

> <Gold.Protein.RotatedTorsions>
[ 6907 6896 6895 6894 ] final  144.33 input  -60.11 | X-H torsion
[ 7974 7965 7964 7962 ] final  118.36 input  175.53 | X-H torsion
[ 8008 7997 7996 7995 ] final  -19.59 input   59.86 | X-H torsion
[ 10167 10162 10161 10158 ] final  -89.64 input  -65.29 | X-H torsion
[ 10718 10713 10712 10709 ] final   17.03 input   66.30 | X-H torsion
[ 10763 10752 10751 10750 ] final    4.40 input  -60.55 | X-H torsion
[ 11005 11000 10999 10996 ] final  -90.51 input  -57.11 | X-H torsion

> <Gold.Protein.ActiveResidues>
 VAL166  LYS551  ARG553  GLY616  TRP617  ASP618  TYR619  PRO620  LYS621  CYS622 
 ASP623  PHE694  ASN695  SER759  ASP760  ASP761  ALA762  ILE779  LEU786  VAL792 
 PHE793  MET794  SER795  GLU796  ALA797  LYS798  CYS799  TRP800  GLU811  SER814 

> <Gold.Protein.RotatedAtoms>
  152.1950  133.4800  159.5027 H   0  0  0  0  0  0  0  0  0  0  0  0  # atno 6907 bound_to 6896
  150.6958  134.1664  159.4204 H   0  0  0  0  0  0  0  0  0  0  0  0  # atno 6908 bound_to 6896
  151.9579  135.0137  160.0596 H   0  0  0  0  0  0  0  0  0  0  0  0  # atno 6909 bound_to 6896
  145.1561  139.3182  143.4541 H   0  0  0  0  0  0  0  0  0  0  0  0  # atno 7974 bound_to 7965
  154.4827  140.2085  155.9727 H   0  0  0  0  0  0  0  0  0  0  0  0  # atno 8008 bound_to 7997
  156.1189  140.3216  155.8148 H   0  0  0  0  0  0  0  0  0  0  0  0  # atno 8009 bound_to 7997
  155.4503  140.0516  157.2992 H   0  0  0  0  0  0  0  0  0  0  0  0  # atno 8010 bound_to 7997
  140.3628  143.2833  151.9594 H   0  0  0  0  0  0  0  0  0  0  0  0  # atno 10167 bound_to 10162
  157.0762  130.6369  149.5816 H   0  0  0  0  0  0  0  0  0  0  0  0  # atno 10718 bound_to 10713
  153.2717  135.6933  153.7474 H   0  0  0  0  0  0  0  0  0  0  0  0  # atno 10763 bound_to 10752
  153.6495  135.3379  155.3096 H   0  0  0  0  0  0  0  0  0  0  0  0  # atno 10764 bound_to 10752
  154.8466  135.4451  154.1742 H   0  0  0  0  0  0  0  0  0  0  0  0  # atno 10765 bound_to 10752
  141.1564  133.7697  156.9748 H   0  0  0  0  0  0  0  0  0  0  0  0  # atno 11005 bound_to 11000
  146.3488  140.1654  142.8590 LP  0  0  0  0  0  0  0  0  0  0  0  0  # atno 17320 bound_to 7965
  145.0379  140.8923  143.5070 LP  0  0  0  0  0  0  0  0  0  0  0  0  # atno 17321 bound_to 7965
  139.4812  144.5977  151.7660 LP  0  0  0  0  0  0  0  0  0  0  0  0  # atno 17342 bound_to 10162
  140.5110  144.1025  150.5995 LP  0  0  0  0  0  0  0  0  0  0  0  0  # atno 17343 bound_to 10162
  155.9936  130.4998  150.7388 LP  0  0  0  0  0  0  0  0  0  0  0  0  # atno 17370 bound_to 10713
  157.4837  131.0905  151.0507 LP  0  0  0  0  0  0  0  0  0  0  0  0  # atno 17371 bound_to 10713
  140.1105  134.9480  157.2058 LP  0  0  0  0  0  0  0  0  0  0  0  0  # atno 17394 bound_to 11000
  140.3200  134.2927  155.7248 LP  0  0  0  0  0  0  0  0  0  0  0  0  # atno 17395 bound_to 11000

$$$$
