AV-unprocessed.smi:2409|AV-procd|sdf|9522|dock3
  -GOLD-   2272013153D 1   1.00000     0.00000
 Structure written by MMmdl.
 35 36  0  0  0  0  0  0  0  0  1 V2000
  152.2580  138.8730  157.4612 C   0  0  0  0  0  0  0  0  0  0  0  0
  152.3557  139.9749  156.5753 O   0  0  0  0  0  0  0  0  0  0  0  0
  151.2830  140.1127  155.7671 C   0  0  0  0  0  0  0  0  0  0  0  0
  150.3434  141.0997  155.6548 C   0  0  0  0  0  0  0  0  0  0  0  0
  150.2088  142.3170  156.3690 N   0  0  0  0  0  0  0  0  0  0  0  0
  150.7693  142.6448  157.5478 C   0  0  0  0  0  0  0  0  0  0  0  0
  151.4687  141.8877  158.2174 O   0  0  0  0  0  0  0  0  0  0  0  0
  150.4531  143.8754  157.9883 N   0  0  0  0  0  0  0  0  0  0  0  0
  150.8851  144.5115  159.1963 C   0  0  2  0  0  0  0  0  0  0  0  0
  152.1873  145.2782  159.1285 C   0  0  0  0  0  0  0  0  0  0  0  0
  152.1238  143.9786  159.8862 C   0  0  1  0  0  0  0  0  0  0  0  0
  152.2288  143.9763  161.3956 C   0  0  0  0  0  0  0  0  0  0  0  0
  149.5049  140.6909  154.5813 C   0  0  0  0  0  0  0  0  0  0  0  0
  148.3175  141.3893  153.9830 C   0  0  0  0  0  0  0  0  0  0  0  0
  149.8807  139.5102  154.1025 N   0  0  0  0  0  0  0  0  0  0  0  0
  150.9648  139.1500  154.8319 N   0  0  0  0  0  0  0  0  0  0  0  0
  151.6333  137.8973  154.5461 C   0  0  0  0  0  0  0  0  0  0  0  0
  153.1500  138.8261  158.0855 H   0  0  0  0  0  0  0  0  0  0  0  0
  152.1762  137.9288  156.9215 H   0  0  0  0  0  0  0  0  0  0  0  0
  151.3925  138.9751  158.1174 H   0  0  0  0  0  0  0  0  0  0  0  0
  149.5604  142.9855  155.9796 H   0  0  0  0  0  0  0  0  0  0  0  0
  149.7754  144.3874  157.4419 H   0  0  0  0  0  0  0  0  0  0  0  0
  150.1233  144.9647  159.8291 H   0  0  0  0  0  0  0  0  0  0  0  0
  152.7306  145.2811  158.1853 H   0  0  0  0  0  0  0  0  0  0  0  0
  152.2546  146.1991  159.7044 H   0  0  0  0  0  0  0  0  0  0  0  0
  152.6097  143.1267  159.4137 H   0  0  0  0  0  0  0  0  0  0  0  0
  151.7358  144.8512  161.8206 H   0  0  0  0  0  0  0  0  0  0  0  0
  153.2759  143.9857  161.6980 H   0  0  0  0  0  0  0  0  0  0  0  0
  151.7568  143.0812  161.8011 H   0  0  0  0  0  0  0  0  0  0  0  0
  148.1194  142.3389  154.4803 H   0  0  0  0  0  0  0  0  0  0  0  0
  147.4193  140.7779  154.0700 H   0  0  0  0  0  0  0  0  0  0  0  0
  148.4781  141.5979  152.9250 H   0  0  0  0  0  0  0  0  0  0  0  0
  152.2339  137.5882  155.4019 H   0  0  0  0  0  0  0  0  0  0  0  0
  152.2841  138.0195  153.6800 H   0  0  0  0  0  0  0  0  0  0  0  0
  150.8975  137.1206  154.3351 H   0  0  0  0  0  0  0  0  0  0  0  0
  1  2  1  0  0  0  0
  1 18  1  0  0  0  0
  1 19  1  0  0  0  0
  1 20  1  0  0  0  0
  2  3  1  0  0  0  0
  3 16  1  0  0  0  0
  3  4  2  0  0  0  0
  4  5  1  0  0  0  0
  4 13  1  0  0  0  0
  5  6  1  0  0  0  0
  5 21  1  0  0  0  0
  6  7  2  0  0  0  0
  6  8  1  0  0  0  0
  8  9  1  0  0  0  0
  8 22  1  0  0  0  0
  9 11  1  0  0  0  0
  9 10  1  0  0  0  0
  9 23  1  0  0  0  0
 10 11  1  0  0  0  0
 10 24  1  0  0  0  0
 10 25  1  0  0  0  0
 11 12  1  0  0  0  0
 11 26  1  0  0  0  0
 12 27  1  0  0  0  0
 12 28  1  0  0  0  0
 12 29  1  0  0  0  0
 13 14  1  0  0  0  0
 13 15  2  0  0  0  0
 14 30  1  0  0  0  0
 14 31  1  0  0  0  0
 14 32  1  0  0  0  0
 15 16  1  0  0  0  0
 16 17  1  0  0  0  0
 17 33  1  0  0  0  0
 17 34  1  0  0  0  0
 17 35  1  0  0  0  0
M  END
> <s_m_source_file>
AV-unprocessed.smi

> <i_m_source_file_index>
2409

> <i_lp_mmshare_version>
43012

> <i_f3d_flags>
0

> <s_epik_input>
W0NIM11uMW5jKFtDSDNdKWMoYzFPW0NIM10pW05IXUMoPU8pW05IXVtDQEBIXTJbQ0gyXVtDQEhdMltDSDNd

> <s_epik_cmdline>
J2VwaWtfcHl0aG9uJywgJy1waCcsICc3LjAnLCAnLXRuJywgJzgnLCAnLW1hJywgJzIwMCcsICctbWV0YWxfYmluZGluZycsICctaW1hZScsICc8aW5maWxlLm1hZT4nLCAnLW9tYWUnLCAnPG91dGZpbGUubWFlPic=

> <r_lp_tautomer_probability>
1

> <r_epik_Ionization_Penalty>
0.000417804

> <r_epik_Ionization_Penalty_Charging>
0

> <r_epik_Ionization_Penalty_Neutral>
0.000417804

> <r_epik_State_Penalty>
-0

> <r_epik_Charging_Adjusted_Penalty>
0

> <i_epik_Tot_Q>
0

> <i_epik_Tot_abs_Q>
0

> <r_epik_Metal_State_Penalty>
-0

> <b_epik_Metal_Only>
0

> <s_lp_Force_Field>
OPLS_2005

> <r_lp_Energy>
34.5155

> <b_lp_Chiralities_Consistent>
1

> <s_lp_Variant>
AV-unprocessed.smi:2409-1

> <Gold.Version>
5.8.1

> <Gold.Id.Protein>
6NUR|6NUR_protein|mol2

> <Gold.PLP.Fitness>
49.9209

> <Gold.PLP.PLP>
-41.8343

> <Gold.PLP.part.hbond>
-3.4323

> <Gold.PLP.part.metal>
0.0000

> <Gold.PLP.part.buried>
-4.7075

> <Gold.PLP.part.nonpolar>
-34.6218

> <Gold.PLP.part.repulsive>
1.1714

> <Gold.PLP.ligand.clash>
0.0000

> <Gold.PLP.ligand.torsion>
0.4007

> <Gold.PLP.Chemscore.Hbond>
2.9500

> <Gold.PLP.Chemscore.CHOScore>
0.0000

> <Gold.PLP.Chemscore.Metal>
0.0000

> <Gold.Chemscore.Hbonds>
donor molecule, donor type, donor heavy atom, donor atom, acceptor molecule, acceptor atom, score
      L1  H     5    21       P1  8028  1.00
      L1  H     8    22       P1  8028  0.95
      P1  H  7997  8010       L1     2  1.00

> <Gold.PLP.Chemscore.Internal.Correction>
0.0380

> <Gold.Rescore>
     Score         DG    S(hbond)    S(metal)    S(lipo)     H(rot)  DE(clash)    DE(int)     intcor
     15.72     -19.98       2.27        0.00      85.97       1.23       0.04       4.22       ----

> <Gold.Chemscore.Fitness>
15.7192

> <Gold.Chemscore.DG>
-19.9819

> <Gold.Chemscore.ZeroCoef>
-5.4800

> <Gold.Chemscore.Hbond>
2.2724

> <Gold.Chemscore.Metal>
0.0000

> <Gold.Chemscore.Lipo>
85.9720

> <Gold.Chemscore.Internal_Hbond>
0.0000

> <Gold.Chemscore.DEClash>
0.0402

> <Gold.Chemscore.DEInternal>
4.2224

> <Gold.Chemscore.Rot>
1.2292

> <Gold.Chemscore.Internal.Correction>
   9.000000E+99

> <Gold.Chemscore.Hbonds>
donor molecule, donor type, donor heavy atom, donor atom, acceptor molecule, acceptor atom, score
      L1  H     5    21       P1  8028  0.98
      L1  H     8    22       P1  8028  0.20
      P1  H  7997  8010       L1     2  0.29

> <Gold.Chemscore.Hbond.Weighted>
-7.5898

> <Gold.Chemscore.Metal.Weighted>
-0.0000

> <Gold.Chemscore.Lipo.Weighted>
-10.0587

> <Gold.Chemscore.Internal_Hbond.Weighted>
0.0000

> <Gold.Chemscore.DEClash.Weighted>
0.0402

> <Gold.Chemscore.DEInternal.Weighted>
4.2224

> <Gold.Chemscore.Rot.Weighted>
3.1467

> <Gold.Chemscore.Internal.Correction.Weighted>
   9.000000E+99

> <Gold.Protein.RotatedTorsions>
[ 6907 6896 6895 6894 ] final  -53.17 input  -60.11 | X-H torsion
[ 7974 7965 7964 7962 ] final   11.61 input  175.53 | X-H torsion
[ 8008 7997 7996 7995 ] final   76.27 input   59.86 | X-H torsion
[ 10167 10162 10161 10158 ] final  -68.19 input  -65.29 | X-H torsion
[ 10718 10713 10712 10709 ] final   51.26 input   66.30 | X-H torsion
[ 10763 10752 10751 10750 ] final  120.83 input  -60.55 | X-H torsion
[ 11005 11000 10999 10996 ] final  127.57 input  -57.11 | X-H torsion

> <Gold.Protein.ActiveResidues>
 VAL166  LYS551  ARG553  GLY616  TRP617  ASP618  TYR619  PRO620  LYS621  CYS622 
 ASP623  PHE694  ASN695  SER759  ASP760  ASP761  ALA762  ILE779  LEU786  VAL792 
 PHE793  MET794  SER795  GLU796  ALA797  LYS798  CYS799  TRP800  GLU811  SER814 

> <Gold.Protein.RotatedAtoms>
  150.8451  134.7756  159.6963 H   0  0  0  0  0  0  0  0  0  0  0  0  # atno 6907 bound_to 6896
  152.4529  134.5351  159.9832 H   0  0  0  0  0  0  0  0  0  0  0  0  # atno 6908 bound_to 6896
  151.5483  133.3383  159.2984 H   0  0  0  0  0  0  0  0  0  0  0  0  # atno 6909 bound_to 6896
  146.2368  139.9460  142.8477 H   0  0  0  0  0  0  0  0  0  0  0  0  # atno 7974 bound_to 7965
  155.8249  140.3468  155.5536 H   0  0  0  0  0  0  0  0  0  0  0  0  # atno 8008 bound_to 7997
  155.8303  140.0926  157.1816 H   0  0  0  0  0  0  0  0  0  0  0  0  # atno 8009 bound_to 7997
  154.4004  140.1413  156.3594 H   0  0  0  0  0  0  0  0  0  0  0  0  # atno 8010 bound_to 7997
  140.5526  143.2312  151.6881 H   0  0  0  0  0  0  0  0  0  0  0  0  # atno 10167 bound_to 10162
  157.4964  130.8409  149.8263 H   0  0  0  0  0  0  0  0  0  0  0  0  # atno 10718 bound_to 10713
  153.6046  135.3441  155.2957 H   0  0  0  0  0  0  0  0  0  0  0  0  # atno 10763 bound_to 10752
  154.8630  135.4235  154.2376 H   0  0  0  0  0  0  0  0  0  0  0  0  # atno 10764 bound_to 10752
  153.3212  135.7038  153.7101 H   0  0  0  0  0  0  0  0  0  0  0  0  # atno 10765 bound_to 10752
  139.9515  134.9621  156.8875 H   0  0  0  0  0  0  0  0  0  0  0  0  # atno 11005 bound_to 11000
  145.1907  140.9810  143.4212 LP  0  0  0  0  0  0  0  0  0  0  0  0  # atno 17320 bound_to 7965
  144.9860  139.3736  143.6238 LP  0  0  0  0  0  0  0  0  0  0  0  0  # atno 17321 bound_to 7965
  139.5034  144.3793  152.0392 LP  0  0  0  0  0  0  0  0  0  0  0  0  # atno 17342 bound_to 10162
  140.2911  144.3753  150.6088 LP  0  0  0  0  0  0  0  0  0  0  0  0  # atno 17343 bound_to 10162
  156.0203  130.3798  150.1983 LP  0  0  0  0  0  0  0  0  0  0  0  0  # atno 17370 bound_to 10713
  157.0173  130.9969  151.3349 LP  0  0  0  0  0  0  0  0  0  0  0  0  # atno 17371 bound_to 10713
  140.5709  134.0444  155.7430 LP  0  0  0  0  0  0  0  0  0  0  0  0  # atno 17394 bound_to 11000
  141.1178  133.9511  157.2788 LP  0  0  0  0  0  0  0  0  0  0  0  0  # atno 17395 bound_to 11000

$$$$
