AV-unprocessed.smi:514|AV-procd|sdf|2778|dock7
  -GOLD-   2262023253D 1   1.00000     0.00000
 Structure written by MMmdl.
 45 47  0  0  0  0  0  0  0  0  3 V2000
  152.3591  145.0767  159.5552 C   0  0  0  0  0  0  0  0  0  0  0  0
  152.4675  144.2148  158.2955 C   0  0  0  0  0  0  0  0  0  0  0  0
  151.3037  143.4132  158.1856 O   0  0  0  0  0  0  0  0  0  0  0  0
  151.3643  142.5079  157.0966 C   0  0  0  0  0  0  0  0  0  0  0  0
  150.0584  141.6976  157.0591 C   0  0  0  0  0  0  0  0  0  0  0  0
  150.2860  140.2886  156.7490 N   0  0  0  0  0  0  0  0  0  0  0  0
  149.8105  139.5496  155.7040 C   0  0  0  0  0  0  0  0  0  0  0  0
  148.9947  140.0691  154.6876 N   0  0  0  0  0  0  0  0  0  0  0  0
  148.4800  139.2529  153.5866 C   0  0  0  0  0  0  0  0  0  0  0  0
  146.9627  139.4358  153.4027 C   0  0  0  0  0  0  0  0  0  0  0  0
  146.6326  140.8585  153.1854 N   0  3  0  0  0  0  0  0  0  0  0  0
  147.1999  141.7349  154.2294 C   0  0  0  0  0  0  0  0  0  0  0  0
  148.7095  141.4746  154.3888 C   0  0  0  0  0  0  0  0  0  0  0  0
  150.1569  138.2607  155.7458 N   0  0  0  0  0  0  0  0  0  0  0  0
  150.9278  138.1704  156.8923 C   0  0  0  0  0  0  0  0  0  0  0  0
  151.0148  139.3733  157.5184 C   0  0  0  0  0  0  0  0  0  0  0  0
  151.7461  139.5848  158.7888 C   0  0  0  0  0  0  0  0  0  0  0  0
  151.7726  140.6876  159.3308 O   0  0  0  0  0  0  0  0  0  0  0  0
  152.3458  138.4375  159.2388 N   0  5  0  0  0  0  0  0  0  0  0  0
  152.2886  137.2015  158.6316 C   0  0  0  0  0  0  0  0  0  0  0  0
  152.8592  136.2175  159.1043 O   0  0  0  0  0  0  0  0  0  0  0  0
  151.5808  137.0471  157.4688 N   0  0  0  0  0  0  0  0  0  0  0  0
  151.4929  135.7427  156.8062 C   0  0  0  0  0  0  0  0  0  0  0  0
  153.2403  145.7076  159.6719 H   0  0  0  0  0  0  0  0  0  0  0  0
  152.2715  144.4560  160.4471 H   0  0  0  0  0  0  0  0  0  0  0  0
  151.4847  145.7265  159.5110 H   0  0  0  0  0  0  0  0  0  0  0  0
  152.5704  144.8527  157.4164 H   0  0  0  0  0  0  0  0  0  0  0  0
  153.3555  143.5835  158.3525 H   0  0  0  0  0  0  0  0  0  0  0  0
  151.5097  143.0578  156.1667 H   0  0  0  0  0  0  0  0  0  0  0  0
  152.2234  141.8463  157.2079 H   0  0  0  0  0  0  0  0  0  0  0  0
  149.5415  141.7710  158.0155 H   0  0  0  0  0  0  0  0  0  0  0  0
  149.3623  142.1204  156.3393 H   0  0  0  0  0  0  0  0  0  0  0  0
  149.0087  139.5151  152.6693 H   0  0  0  0  0  0  0  0  0  0  0  0
  148.6896  138.1989  153.7711 H   0  0  0  0  0  0  0  0  0  0  0  0
  146.6067  138.8505  152.5547 H   0  0  0  0  0  0  0  0  0  0  0  0
  146.4316  139.0775  154.2856 H   0  0  0  0  0  0  0  0  0  0  0  0
  147.0181  141.1386  152.2950 H   0  0  0  0  0  0  0  0  0  0  0  0
  147.0179  142.7759  153.9624 H   0  0  0  0  0  0  0  0  0  0  0  0
  146.6777  141.5500  155.1685 H   0  0  0  0  0  0  0  0  0  0  0  0
  149.1252  142.1317  155.1460 H   0  0  0  0  0  0  0  0  0  0  0  0
  149.2247  141.7408  153.4646 H   0  0  0  0  0  0  0  0  0  0  0  0
  152.4814  135.4108  156.4862 H   0  0  0  0  0  0  0  0  0  0  0  0
  150.8521  135.7606  155.9251 H   0  0  0  0  0  0  0  0  0  0  0  0
  151.0848  134.9937  157.4862 H   0  0  0  0  0  0  0  0  0  0  0  0
  145.6294  140.9713  153.1588 H   0  0  0  0  0  0  0  0  0  0  0  0
  1  2  1  0  0  0  0
  1 24  1  0  0  0  0
  1 25  1  0  0  0  0
  1 26  1  0  0  0  0
  2  3  1  0  0  0  0
  2 27  1  0  0  0  0
  2 28  1  0  0  0  0
  3  4  1  0  0  0  0
  4  5  1  0  0  0  0
  4 29  1  0  0  0  0
  4 30  1  0  0  0  0
  5  6  1  0  0  0  0
  5 31  1  0  0  0  0
  5 32  1  0  0  0  0
  6 16  1  0  0  0  0
  6  7  1  0  0  0  0
  7  8  1  0  0  0  0
  7 14  2  0  0  0  0
  8 13  1  0  0  0  0
  8  9  1  0  0  0  0
  9 10  1  0  0  0  0
  9 33  1  0  0  0  0
  9 34  1  0  0  0  0
 10 11  1  0  0  0  0
 10 35  1  0  0  0  0
 10 36  1  0  0  0  0
 11 12  1  0  0  0  0
 11 37  1  0  0  0  0
 11 45  1  0  0  0  0
 12 13  1  0  0  0  0
 12 38  1  0  0  0  0
 12 39  1  0  0  0  0
 13 40  1  0  0  0  0
 13 41  1  0  0  0  0
 14 15  1  0  0  0  0
 15 22  1  0  0  0  0
 15 16  2  0  0  0  0
 16 17  1  0  0  0  0
 17 18  2  0  0  0  0
 17 19  1  0  0  0  0
 19 20  1  0  0  0  0
 20 21  2  0  0  0  0
 20 22  1  0  0  0  0
 22 23  1  0  0  0  0
 23 42  1  0  0  0  0
 23 43  1  0  0  0  0
 23 44  1  0  0  0  0
M  CHG  1  11   1
M  CHG  1  19  -1
M  END
> <s_m_source_file>
AV-unprocessed.smi

> <i_m_source_file_index>
514

> <i_lp_mmshare_version>
43012

> <i_f3d_flags>
0

> <s_epik_input>
W0NIM11uMWMoPU8pW25IXWMoPU8pYyhjMTIpbihbQ0gyXVtDSDJdT1tDSDJdW0NIM10pYyhuMilOM1tDSDJdW0NIMl1bTkhdW0NIMl1bQ0gyXTM=

> <s_epik_cmdline>
J2VwaWtfcHl0aG9uJywgJy1waCcsICc3LjAnLCAnLXRuJywgJzgnLCAnLW1hJywgJzIwMCcsICctbWV0YWxfYmluZGluZycsICctaW1hZScsICc8aW5maWxlLm1hZT4nLCAnLW9tYWUnLCAnPG91dGZpbGUubWFlPic=

> <r_epik_Ionization_Penalty>
5.92505

> <r_epik_Ionization_Penalty_Charging>
0.0655308

> <r_epik_Ionization_Penalty_Neutral>
5.85952

> <r_epik_State_Penalty>
5.86593

> <r_epik_Charging_Adjusted_Penalty>
5.93146

> <i_epik_Tot_Q>
0

> <i_epik_Tot_abs_Q>
2

> <r_epik_Metal_State_Penalty>
1.83024

> <b_epik_Metal_Only>
1

> <s_lp_Force_Field>
OPLS_2005

> <r_lp_Energy>
48.6867

> <b_lp_Chiralities_Consistent>
1

> <s_lp_Variant>
AV-unprocessed.smi:514-3

> <Gold.Version>
5.8.1

> <Gold.Id.Protein>
6NUR|6NUR_protein|mol2

> <Gold.PLP.Fitness>
44.4738

> <Gold.PLP.PLP>
-36.0384

> <Gold.PLP.part.hbond>
-2.0000

> <Gold.PLP.part.metal>
0.0000

> <Gold.PLP.part.buried>
-3.6141

> <Gold.PLP.part.nonpolar>
-32.0506

> <Gold.PLP.part.repulsive>
0.1865

> <Gold.PLP.ligand.clash>
0.0027

> <Gold.PLP.ligand.torsion>
0.3280

> <Gold.PLP.Chemscore.Hbond>
3.0000

> <Gold.PLP.Chemscore.CHOScore>
0.0000

> <Gold.PLP.Chemscore.Metal>
0.0000

> <Gold.Chemscore.Hbonds>
donor molecule, donor type, donor heavy atom, donor atom, acceptor molecule, acceptor atom, score
      L1  H    11    45       P1 10175  1.59
      P1  H  6896  6909       L1    21  0.83

> <Gold.PLP.Chemscore.Internal.Correction>
0.0940

> <Gold.Rescore>
     Score         DG    S(hbond)    S(metal)    S(lipo)     H(rot)  DE(clash)    DE(int)     intcor
     14.62     -16.26       1.90        0.00      75.46       1.72       0.07       1.57       ----

> <Gold.Chemscore.Fitness>
14.6177

> <Gold.Chemscore.DG>
-16.2608

> <Gold.Chemscore.ZeroCoef>
-5.4800

> <Gold.Chemscore.Hbond>
1.9038

> <Gold.Chemscore.Metal>
0.0000

> <Gold.Chemscore.Lipo>
75.4628

> <Gold.Chemscore.Internal_Hbond>
0.0000

> <Gold.Chemscore.DEClash>
0.0746

> <Gold.Chemscore.DEInternal>
1.5685

> <Gold.Chemscore.Rot>
1.7214

> <Gold.Chemscore.Internal.Correction>
   9.000000E+99

> <Gold.Chemscore.Hbonds>
donor molecule, donor type, donor heavy atom, donor atom, acceptor molecule, acceptor atom, score
      L1  H    11    45       P1 10175  0.34
      P1  H  6896  6909       L1    21  0.83

> <Gold.Chemscore.Hbond.Weighted>
-6.3585

> <Gold.Chemscore.Metal.Weighted>
-0.0000

> <Gold.Chemscore.Lipo.Weighted>
-8.8291

> <Gold.Chemscore.Internal_Hbond.Weighted>
0.0000

> <Gold.Chemscore.DEClash.Weighted>
0.0746

> <Gold.Chemscore.DEInternal.Weighted>
1.5685

> <Gold.Chemscore.Rot.Weighted>
4.4069

> <Gold.Chemscore.Internal.Correction.Weighted>
   9.000000E+99

> <Gold.Protein.RotatedTorsions>
[ 6907 6896 6895 6894 ] final  151.93 input  -60.11 | X-H torsion
[ 7974 7965 7964 7962 ] final   16.65 input  175.53 | X-H torsion
[ 8008 7997 7996 7995 ] final  -74.71 input   59.86 | X-H torsion
[ 10167 10162 10161 10158 ] final   51.58 input  -65.29 | X-H torsion
[ 10718 10713 10712 10709 ] final  -91.70 input   66.30 | X-H torsion
[ 10763 10752 10751 10750 ] final -101.54 input  -60.55 | X-H torsion
[ 11005 11000 10999 10996 ] final  -95.97 input  -57.11 | X-H torsion

> <Gold.Protein.ActiveResidues>
 VAL166  LYS551  ARG553  GLY616  TRP617  ASP618  TYR619  PRO620  LYS621  CYS622 
 ASP623  PHE694  ASN695  SER759  ASP760  ASP761  ALA762  ILE779  LEU786  VAL792 
 PHE793  MET794  SER795  GLU796  ALA797  LYS798  CYS799  TRP800  GLU811  SER814 

> <Gold.Protein.RotatedAtoms>
  152.0938  133.4214  159.4555 H   0  0  0  0  0  0  0  0  0  0  0  0  # atno 6907 bound_to 6896
  150.6863  134.2840  159.4648 H   0  0  0  0  0  0  0  0  0  0  0  0  # atno 6908 bound_to 6896
  152.0694  134.9542  160.0625 H   0  0  0  0  0  0  0  0  0  0  0  0  # atno 6909 bound_to 6896
  146.2243  139.8717  142.8586 H   0  0  0  0  0  0  0  0  0  0  0  0  # atno 7974 bound_to 7965
  154.5354  140.0757  156.8417 H   0  0  0  0  0  0  0  0  0  0  0  0  # atno 8008 bound_to 7997
  155.3290  140.3400  155.4221 H   0  0  0  0  0  0  0  0  0  0  0  0  # atno 8009 bound_to 7997
  156.1822  140.1656  156.8238 H   0  0  0  0  0  0  0  0  0  0  0  0  # atno 8010 bound_to 7997
  140.2605  144.3379  150.6320 H   0  0  0  0  0  0  0  0  0  0  0  0  # atno 10167 bound_to 10162
  155.9996  130.4958  150.5515 H   0  0  0  0  0  0  0  0  0  0  0  0  # atno 10718 bound_to 10713
  154.7665  135.4894  153.9565 H   0  0  0  0  0  0  0  0  0  0  0  0  # atno 10763 bound_to 10752
  153.1315  135.6754  153.9179 H   0  0  0  0  0  0  0  0  0  0  0  0  # atno 10764 bound_to 10752
  153.8881  135.3124  155.3425 H   0  0  0  0  0  0  0  0  0  0  0  0  # atno 10765 bound_to 10752
  141.1426  133.8064  157.0508 H   0  0  0  0  0  0  0  0  0  0  0  0  # atno 11005 bound_to 11000
  145.2602  141.0074  143.3831 LP  0  0  0  0  0  0  0  0  0  0  0  0  # atno 17320 bound_to 7965
  144.9305  139.4304  143.6497 LP  0  0  0  0  0  0  0  0  0  0  0  0  # atno 17321 bound_to 7965
  140.5970  143.2167  151.7145 LP  0  0  0  0  0  0  0  0  0  0  0  0  # atno 17342 bound_to 10162
  139.5018  144.3852  152.0336 LP  0  0  0  0  0  0  0  0  0  0  0  0  # atno 17343 bound_to 10162
  157.3437  131.0721  151.1768 LP  0  0  0  0  0  0  0  0  0  0  0  0  # atno 17370 bound_to 10713
  157.2607  130.6658  149.5973 LP  0  0  0  0  0  0  0  0  0  0  0  0  # atno 17371 bound_to 10713
  140.0633  134.9743  157.1342 LP  0  0  0  0  0  0  0  0  0  0  0  0  # atno 17394 bound_to 11000
  140.3817  134.2280  155.7170 LP  0  0  0  0  0  0  0  0  0  0  0  0  # atno 17395 bound_to 11000

$$$$
