AV-unprocessed.smi:2807|AV-procd|sdf|10823|dock4
  -GOLD-   2272015263D 1   1.00000     0.00000
 Structure written by MMmdl.
 31 32  0  0  0  0  0  0  0  0  2 V2000
  152.5647  139.5082  156.1938 O   0  0  0  0  0  0  0  0  0  0  0  0
  151.7037  140.3334  156.5217 C   0  0  0  0  0  0  0  0  0  0  0  0
  150.8773  141.0885  155.7425 N   0  5  0  0  0  0  0  0  0  0  0  0
  150.0792  140.5558  154.6398 C   0  0  1  0  0  0  0  0  0  0  0  0
  149.8933  139.0372  154.7569 C   0  0  0  0  0  0  0  0  0  0  0  0
  148.5943  138.7220  153.9987 C   0  0  0  0  0  0  0  0  0  0  0  0
  147.8377  140.0534  153.8576 C   0  0  0  0  0  0  0  0  0  0  0  0
  148.6368  141.0758  154.6787 C   0  0  2  0  0  0  0  0  0  0  0  0
  148.5249  142.3776  154.1405 O   0  0  0  0  0  0  0  0  0  0  0  0
  151.4535  140.5780  158.0249 C   0  0  0  0  0  0  0  0  0  0  0  0
  150.1837  140.2766  158.3080 F   0  0  0  0  0  0  0  0  0  0  0  0
  152.2299  139.7621  158.7459 F   0  0  0  0  0  0  0  0  0  0  0  0
  151.6970  142.0437  158.3842 C   0  0  0  0  0  0  0  0  0  0  0  0
  152.6906  142.3957  159.3263 C   0  0  0  0  0  0  0  0  0  0  0  0
  152.8663  143.7547  159.6486 C   0  0  0  0  0  0  0  0  0  0  0  0
  152.0491  144.7124  159.0190 C   0  0  0  0  0  0  0  0  0  0  0  0
  151.0893  144.2650  158.0899 C   0  0  0  0  0  0  0  0  0  0  0  0
  150.9135  142.9649  157.7734 N   0  0  0  0  0  0  0  0  0  0  0  0
  150.5078  140.7811  153.6608 H   0  0  0  0  0  0  0  0  0  0  0  0
  150.7474  138.4843  154.3649 H   0  0  0  0  0  0  0  0  0  0  0  0
  149.7719  138.7506  155.8034 H   0  0  0  0  0  0  0  0  0  0  0  0
  148.8093  138.3051  153.0133 H   0  0  0  0  0  0  0  0  0  0  0  0
  148.0026  137.9816  154.5386 H   0  0  0  0  0  0  0  0  0  0  0  0
  147.7995  140.3386  152.8037 H   0  0  0  0  0  0  0  0  0  0  0  0
  146.8066  139.9784  154.2053 H   0  0  0  0  0  0  0  0  0  0  0  0
  148.2624  141.0785  155.7041 H   0  0  0  0  0  0  0  0  0  0  0  0
  148.7631  142.9943  154.8153 H   0  0  0  0  0  0  0  0  0  0  0  0
  153.2956  141.6366  159.8000 H   0  0  0  0  0  0  0  0  0  0  0  0
  153.6124  144.0563  160.3687 H   0  0  0  0  0  0  0  0  0  0  0  0
  152.1536  145.7633  159.2434 H   0  0  0  0  0  0  0  0  0  0  0  0
  150.4452  144.9711  157.5871 H   0  0  0  0  0  0  0  0  0  0  0  0
  1  2  2  0  0  0  0
  2  3  1  0  0  0  0
  2 10  1  0  0  0  0
  3  4  1  0  0  0  0
  4  8  1  0  0  0  0
  4  5  1  0  0  0  0
  4 19  1  0  0  0  0
  5  6  1  0  0  0  0
  5 20  1  0  0  0  0
  5 21  1  0  0  0  0
  6  7  1  0  0  0  0
  6 22  1  0  0  0  0
  6 23  1  0  0  0  0
  7  8  1  0  0  0  0
  7 24  1  0  0  0  0
  7 25  1  0  0  0  0
  8  9  1  0  0  0  0
  8 26  1  0  0  0  0
  9 27  1  0  0  0  0
 10 11  1  0  0  0  0
 10 12  1  0  0  0  0
 10 13  1  0  0  0  0
 13 18  1  0  0  0  0
 13 14  2  0  0  0  0
 14 15  1  0  0  0  0
 14 28  1  0  0  0  0
 15 16  2  0  0  0  0
 15 29  1  0  0  0  0
 16 17  1  0  0  0  0
 16 30  1  0  0  0  0
 17 18  2  0  0  0  0
 17 31  1  0  0  0  0
M  CHG  1   3  -1
M  END
> <s_m_source_file>
AV-unprocessed.smi

> <i_m_source_file_index>
2807

> <i_lp_mmshare_version>
43012

> <i_f3d_flags>
0

> <s_epik_input>
bjFbY0hdW2NIXVtjSF1bY0hdYzFDKEYpKEYpQyg9TylbTkhdW0NAQEhdMltDSDJdW0NIMl1bQ0gyXVtDQEhdMltPSF0=

> <s_epik_cmdline>
J2VwaWtfcHl0aG9uJywgJy1waCcsICc3LjAnLCAnLXRuJywgJzgnLCAnLW1hJywgJzIwMCcsICctbWV0YWxfYmluZGluZycsICctaW1hZScsICc8aW5maWxlLm1hZT4nLCAnLW9tYWUnLCAnPG91dGZpbGUubWFlPic=

> <r_lp_tautomer_probability>
1

> <r_epik_Ionization_Penalty>
5.72231

> <r_epik_Ionization_Penalty_Charging>
5.72231

> <r_epik_Ionization_Penalty_Neutral>
5.49816e-06

> <r_epik_State_Penalty>
5.72227

> <r_epik_Charging_Adjusted_Penalty>
11.4446

> <i_epik_Tot_Q>
-1

> <i_epik_Tot_abs_Q>
1

> <r_epik_Metal_State_Penalty>
1.70075

> <b_epik_Metal_Only>
1

> <s_lp_Force_Field>
OPLS_2005

> <r_lp_Energy>
34.2298

> <b_lp_Chiralities_Consistent>
1

> <s_lp_Variant>
AV-unprocessed.smi:2807-8

> <Gold.Version>
5.8.1

> <Gold.Id.Protein>
6NUR|6NUR_protein|mol2

> <Gold.PLP.Fitness>
46.7537

> <Gold.PLP.PLP>
-39.2047

> <Gold.PLP.part.hbond>
-4.0076

> <Gold.PLP.part.metal>
0.0000

> <Gold.PLP.part.buried>
-2.2587

> <Gold.PLP.part.nonpolar>
-33.0645

> <Gold.PLP.part.repulsive>
0.1667

> <Gold.PLP.ligand.clash>
0.5143

> <Gold.PLP.ligand.torsion>
0.6777

> <Gold.PLP.Chemscore.Hbond>
2.1401

> <Gold.PLP.Chemscore.CHOScore>
0.9862

> <Gold.PLP.Chemscore.Metal>
0.0000

> <Gold.Chemscore.Hbonds>
donor molecule, donor type, donor heavy atom, donor atom, acceptor molecule, acceptor atom, score
      L1  H     9    27       P1  8028  1.00
      P1  H  7997  8008       L1     1  1.00
      P1  H  8011  8017       L1     9  0.13
      L1  C    17    31       P1  8028  0.82
      L1  C    17    31       P1  8029  0.10

> <Gold.PLP.Chemscore.Internal.Correction>
0.0396

> <Gold.Rescore>
     Score         DG    S(hbond)    S(metal)    S(lipo)     H(rot)  DE(clash)    DE(int)     intcor
     15.67     -17.94       1.99        0.00      93.41       2.00       0.13       2.14       ----

> <Gold.Chemscore.Fitness>
15.6661

> <Gold.Chemscore.DG>
-17.9445

> <Gold.Chemscore.ZeroCoef>
-5.4800

> <Gold.Chemscore.Hbond>
1.9899

> <Gold.Chemscore.Metal>
0.0000

> <Gold.Chemscore.Lipo>
93.4101

> <Gold.Chemscore.Internal_Hbond>
0.0000

> <Gold.Chemscore.DEClash>
0.1349

> <Gold.Chemscore.DEInternal>
2.1436

> <Gold.Chemscore.Rot>
1.9964

> <Gold.Chemscore.Internal.Correction>
   9.000000E+99

> <Gold.Chemscore.Hbonds>
donor molecule, donor type, donor heavy atom, donor atom, acceptor molecule, acceptor atom, score
      L1  H     9    27       P1  8028  0.98
      P1  H  7997  8008       L1     1  0.92
      P1  H  8011  8017       L1     9  0.07

> <Gold.Chemscore.Hbond.Weighted>
-6.6464

> <Gold.Chemscore.Metal.Weighted>
-0.0000

> <Gold.Chemscore.Lipo.Weighted>
-10.9290

> <Gold.Chemscore.Internal_Hbond.Weighted>
0.0000

> <Gold.Chemscore.DEClash.Weighted>
0.1349

> <Gold.Chemscore.DEInternal.Weighted>
2.1436

> <Gold.Chemscore.Rot.Weighted>
5.1108

> <Gold.Chemscore.Internal.Correction.Weighted>
   9.000000E+99

> <Gold.Protein.RotatedTorsions>
[ 6907 6896 6895 6894 ] final  141.45 input  -60.11 | X-H torsion
[ 7974 7965 7964 7962 ] final  165.93 input  175.53 | X-H torsion
[ 8008 7997 7996 7995 ] final  -32.20 input   59.86 | X-H torsion
[ 10167 10162 10161 10158 ] final   70.97 input  -65.29 | X-H torsion
[ 10718 10713 10712 10709 ] final  -25.67 input   66.30 | X-H torsion
[ 10763 10752 10751 10750 ] final  173.60 input  -60.55 | X-H torsion
[ 11005 11000 10999 10996 ] final   63.75 input  -57.11 | X-H torsion

> <Gold.Protein.ActiveResidues>
 VAL166  LYS551  ARG553  GLY616  TRP617  ASP618  TYR619  PRO620  LYS621  CYS622 
 ASP623  PHE694  ASN695  SER759  ASP760  ASP761  ALA762  ILE779  LEU786  VAL792 
 PHE793  MET794  SER795  GLU796  ALA797  LYS798  CYS799  TRP800  GLU811  SER814 

> <Gold.Protein.RotatedAtoms>
  152.2308  133.5056  159.5214 H   0  0  0  0  0  0  0  0  0  0  0  0  # atno 6907 bound_to 6896
  150.7037  134.1219  159.4047 H   0  0  0  0  0  0  0  0  0  0  0  0  # atno 6908 bound_to 6896
  151.9141  135.0326  160.0567 H   0  0  0  0  0  0  0  0  0  0  0  0  # atno 6909 bound_to 6896
  144.7482  139.8542  143.6375 H   0  0  0  0  0  0  0  0  0  0  0  0  # atno 7974 bound_to 7965
  154.4188  140.1744  156.1689 H   0  0  0  0  0  0  0  0  0  0  0  0  # atno 8008 bound_to 7997
  155.9776  140.3380  155.6609 H   0  0  0  0  0  0  0  0  0  0  0  0  # atno 8009 bound_to 7997
  155.6542  140.0694  157.2567 H   0  0  0  0  0  0  0  0  0  0  0  0  # atno 8010 bound_to 7997
  140.0511  144.5311  150.7362 H   0  0  0  0  0  0  0  0  0  0  0  0  # atno 10167 bound_to 10162
  156.4613  130.4504  149.6927 H   0  0  0  0  0  0  0  0  0  0  0  0  # atno 10718 bound_to 10713
  154.4423  135.2762  155.1839 H   0  0  0  0  0  0  0  0  0  0  0  0  # atno 10763 bound_to 10752
  154.3700  135.6110  153.5739 H   0  0  0  0  0  0  0  0  0  0  0  0  # atno 10764 bound_to 10752
  152.9841  135.5855  154.4753 H   0  0  0  0  0  0  0  0  0  0  0  0  # atno 10765 bound_to 10752
  140.0004  134.6452  155.9941 H   0  0  0  0  0  0  0  0  0  0  0  0  # atno 11005 bound_to 11000
  146.1394  139.4447  143.0118 LP  0  0  0  0  0  0  0  0  0  0  0  0  # atno 17320 bound_to 7965
  145.7041  141.0127  143.1488 LP  0  0  0  0  0  0  0  0  0  0  0  0  # atno 17321 bound_to 7965
  140.7216  143.2594  151.4260 LP  0  0  0  0  0  0  0  0  0  0  0  0  # atno 17342 bound_to 10162
  139.5952  144.1412  152.2135 LP  0  0  0  0  0  0  0  0  0  0  0  0  # atno 17343 bound_to 10162
  156.3714  130.7532  151.2516 LP  0  0  0  0  0  0  0  0  0  0  0  0  # atno 17370 bound_to 10713
  157.7497  131.0322  150.4216 LP  0  0  0  0  0  0  0  0  0  0  0  0  # atno 17371 bound_to 10713
  141.1637  133.6537  156.4406 LP  0  0  0  0  0  0  0  0  0  0  0  0  # atno 17394 bound_to 11000
  140.4739  134.6727  157.5141 LP  0  0  0  0  0  0  0  0  0  0  0  0  # atno 17395 bound_to 11000

$$$$
