AV-unprocessed.smi:3354|AV-procd|sdf|12957|dock2
  -GOLD-   2272019393D 1   1.00000     0.00000
 Structure written by MMmdl.
 38 40  0  0  0  0  0  0  0  0  1 V2000
  151.6814  141.2780  157.6427 C   0  0  0  0  0  0  0  0  0  0  0  0
  150.7538  141.8034  156.5643 C   0  0  2  0  0  0  0  0  0  0  0  0
  149.2787  141.4775  156.5886 C   0  0  0  0  0  0  0  0  0  0  0  0
  150.1619  140.9023  155.4979 C   0  0  2  0  0  0  0  0  0  0  0  0
  150.5024  139.5085  155.4803 N   0  0  0  0  0  0  0  0  0  0  0  0
  149.4907  138.4622  155.5451 C   0  0  0  0  0  0  0  0  0  0  0  0
  150.2621  137.1333  155.4600 C   0  0  1  0  0  0  0  0  0  0  0  0
  149.6336  136.2229  154.5063 N   0  0  0  0  0  0  0  0  0  0  0  0
  149.3168  134.9464  154.7638 C   0  0  0  0  0  0  0  0  0  0  0  0
  149.5252  134.4029  155.8483 O   0  0  0  0  0  0  0  0  0  0  0  0
  148.7725  134.3533  153.6874 N   0  0  0  0  0  0  0  0  0  0  0  0
  148.3003  133.0192  153.5569 C   0  0  0  0  0  0  0  0  0  0  0  0
  147.2280  132.6313  152.7171 C   0  0  0  0  0  0  0  0  0  0  0  0
  146.8660  131.2718  152.6618 C   0  0  0  0  0  0  0  0  0  0  0  0
  147.5915  130.3497  153.4407 C   0  0  0  0  0  0  0  0  0  0  0  0
  148.6242  130.7031  154.2345 N   0  0  0  0  0  0  0  0  0  0  0  0
  148.9664  132.0083  154.2819 C   0  0  0  0  0  0  0  0  0  0  0  0
  151.6946  137.5129  155.0541 C   0  0  0  0  0  0  0  0  0  0  0  0
  151.7056  139.0285  155.1461 C   0  0  0  0  0  0  0  0  0  0  0  0
  152.7136  139.6981  154.9243 O   0  0  0  0  0  0  0  0  0  0  0  0
  151.3486  140.3078  158.0121 H   0  0  0  0  0  0  0  0  0  0  0  0
  151.7095  141.9740  158.4813 H   0  0  0  0  0  0  0  0  0  0  0  0
  152.6913  141.1716  157.2458 H   0  0  0  0  0  0  0  0  0  0  0  0
  151.0147  142.8057  156.2297 H   0  0  0  0  0  0  0  0  0  0  0  0
  148.9263  140.8318  157.3897 H   0  0  0  0  0  0  0  0  0  0  0  0
  148.5906  142.2717  156.3068 H   0  0  0  0  0  0  0  0  0  0  0  0
  150.0312  141.3565  154.5168 H   0  0  0  0  0  0  0  0  0  0  0  0
  148.9213  138.5129  156.4732 H   0  0  0  0  0  0  0  0  0  0  0  0
  148.7949  138.5884  154.7137 H   0  0  0  0  0  0  0  0  0  0  0  0
  150.2797  136.6751  156.4511 H   0  0  0  0  0  0  0  0  0  0  0  0
  149.4341  136.5893  153.5870 H   0  0  0  0  0  0  0  0  0  0  0  0
  148.7431  134.9061  152.8432 H   0  0  0  0  0  0  0  0  0  0  0  0
  146.6889  133.3395  152.1076 H   0  0  0  0  0  0  0  0  0  0  0  0
  146.0523  130.9427  152.0325 H   0  0  0  0  0  0  0  0  0  0  0  0
  147.3399  129.2998  153.4203 H   0  0  0  0  0  0  0  0  0  0  0  0
  149.7991  132.2532  154.9253 H   0  0  0  0  0  0  0  0  0  0  0  0
  152.4359  137.0760  155.7239 H   0  0  0  0  0  0  0  0  0  0  0  0
  151.9322  137.2136  154.0324 H   0  0  0  0  0  0  0  0  0  0  0  0
  1  2  1  0  0  0  0
  1 21  1  0  0  0  0
  1 22  1  0  0  0  0
  1 23  1  0  0  0  0
  2  4  1  0  0  0  0
  2  3  1  0  0  0  0
  2 24  1  0  0  0  0
  3  4  1  0  0  0  0
  3 25  1  0  0  0  0
  3 26  1  0  0  0  0
  4  5  1  0  0  0  0
  4 27  1  0  0  0  0
  5 19  1  0  0  0  0
  5  6  1  0  0  0  0
  6  7  1  0  0  0  0
  6 28  1  0  0  0  0
  6 29  1  0  0  0  0
  7  8  1  0  0  0  0
  7 18  1  0  0  0  0
  7 30  1  0  0  0  0
  8  9  1  0  0  0  0
  8 31  1  0  0  0  0
  9 10  2  0  0  0  0
  9 11  1  0  0  0  0
 11 12  1  0  0  0  0
 11 32  1  0  0  0  0
 12 17  1  0  0  0  0
 12 13  2  0  0  0  0
 13 14  1  0  0  0  0
 13 33  1  0  0  0  0
 14 15  2  0  0  0  0
 14 34  1  0  0  0  0
 15 16  1  0  0  0  0
 15 35  1  0  0  0  0
 16 17  2  0  0  0  0
 17 36  1  0  0  0  0
 18 19  1  0  0  0  0
 18 37  1  0  0  0  0
 18 38  1  0  0  0  0
 19 20  2  0  0  0  0
M  END
> <s_m_source_file>
AV-unprocessed.smi

> <i_m_source_file_index>
3354

> <i_lp_mmshare_version>
43012

> <i_f3d_flags>
0

> <s_epik_input>
W0NIM11bQ0BASF0xW0NIMl1bQ0BIXTFOMltDSDJdW0NASF0oW0NIMl1DMj1PKVtOSF1DKD1PKVtOSF1jM1tjSF1bY0hdW2NIXW5bY0hdMw==

> <s_epik_cmdline>
J2VwaWtfcHl0aG9uJywgJy1waCcsICc3LjAnLCAnLXRuJywgJzgnLCAnLW1hJywgJzIwMCcsICctbWV0YWxfYmluZGluZycsICctaW1hZScsICc8aW5maWxlLm1hZT4nLCAnLW9tYWUnLCAnPG91dGZpbGUubWFlPic=

> <r_epik_Ionization_Penalty>
0.00456191

> <r_epik_Ionization_Penalty_Charging>
0

> <r_epik_Ionization_Penalty_Neutral>
0.00456191

> <r_epik_State_Penalty>
0.00327094

> <r_epik_Charging_Adjusted_Penalty>
0.00327094

> <i_epik_Tot_Q>
0

> <i_epik_Tot_abs_Q>
0

> <r_epik_Metal_State_Penalty>
-0

> <b_epik_Metal_Only>
0

> <s_lp_Force_Field>
OPLS_2005

> <r_lp_Energy>
41.3899

> <b_lp_Chiralities_Consistent>
1

> <s_lp_Variant>
AV-unprocessed.smi:3354-3

> <Gold.Version>
5.8.1

> <Gold.Id.Protein>
6NUR|6NUR_protein|mol2

> <Gold.PLP.Fitness>
41.4632

> <Gold.PLP.PLP>
-32.7807

> <Gold.PLP.part.hbond>
-3.7965

> <Gold.PLP.part.metal>
0.0000

> <Gold.PLP.part.buried>
-3.1709

> <Gold.PLP.part.nonpolar>
-27.3792

> <Gold.PLP.part.repulsive>
0.1372

> <Gold.PLP.ligand.clash>
0.0000

> <Gold.PLP.ligand.torsion>
0.5158

> <Gold.PLP.Chemscore.Hbond>
3.1478

> <Gold.PLP.Chemscore.CHOScore>
0.0000

> <Gold.PLP.Chemscore.Metal>
0.0000

> <Gold.Chemscore.Hbonds>
donor molecule, donor type, donor heavy atom, donor atom, acceptor molecule, acceptor atom, score
      L1  H     8    31       P1  7948  0.94
      L1  H    11    32       P1  7948  0.95
      P1  H  7989  7998       L1    20  0.26
      P1  H  7997  8009       L1    20  0.96

> <Gold.PLP.Chemscore.Internal.Correction>
0.2708

> <Gold.Rescore>
     Score         DG    S(hbond)    S(metal)    S(lipo)     H(rot)  DE(clash)    DE(int)     intcor
     16.84     -18.46       2.71        0.00      60.73       1.24       0.00       1.61       ----

> <Gold.Chemscore.Fitness>
16.8433

> <Gold.Chemscore.DG>
-18.4577

> <Gold.Chemscore.ZeroCoef>
-5.4800

> <Gold.Chemscore.Hbond>
2.7056

> <Gold.Chemscore.Metal>
0.0000

> <Gold.Chemscore.Lipo>
60.7294

> <Gold.Chemscore.Internal_Hbond>
0.0000

> <Gold.Chemscore.DEClash>
0.0004

> <Gold.Chemscore.DEInternal>
1.6141

> <Gold.Chemscore.Rot>
1.2361

> <Gold.Chemscore.Internal.Correction>
   9.000000E+99

> <Gold.Chemscore.Hbonds>
donor molecule, donor type, donor heavy atom, donor atom, acceptor molecule, acceptor atom, score
      L1  H     8    31       P1  7948  0.78
      L1  H    11    32       P1  7948  0.21
      P1  H  7989  7998       L1    20  0.02
      P1  H  7997  8009       L1    20  0.91

> <Gold.Chemscore.Hbond.Weighted>
-9.0367

> <Gold.Chemscore.Metal.Weighted>
-0.0000

> <Gold.Chemscore.Lipo.Weighted>
-7.1053

> <Gold.Chemscore.Internal_Hbond.Weighted>
0.0000

> <Gold.Chemscore.DEClash.Weighted>
0.0004

> <Gold.Chemscore.DEInternal.Weighted>
1.6141

> <Gold.Chemscore.Rot.Weighted>
3.1643

> <Gold.Chemscore.Internal.Correction.Weighted>
   9.000000E+99

> <Gold.Protein.RotatedTorsions>
[ 6907 6896 6895 6894 ] final   49.29 input  -60.11 | X-H torsion
[ 7974 7965 7964 7962 ] final   60.29 input  175.53 | X-H torsion
[ 8008 7997 7996 7995 ] final -135.76 input   59.86 | X-H torsion
[ 10167 10162 10161 10158 ] final   70.18 input  -65.29 | X-H torsion
[ 10718 10713 10712 10709 ] final -156.02 input   66.30 | X-H torsion
[ 10763 10752 10751 10750 ] final -150.00 input  -60.55 | X-H torsion
[ 11005 11000 10999 10996 ] final  -90.42 input  -57.11 | X-H torsion

> <Gold.Protein.ActiveResidues>
 VAL166  LYS551  ARG553  GLY616  TRP617  ASP618  TYR619  PRO620  LYS621  CYS622 
 ASP623  PHE694  ASN695  SER759  ASP760  ASP761  ALA762  ILE779  LEU786  VAL792 
 PHE793  MET794  SER795  GLU796  ALA797  LYS798  CYS799  TRP800  GLU811  SER814 

> <Gold.Protein.RotatedAtoms>
  152.2891  134.7742  160.0381 H   0  0  0  0  0  0  0  0  0  0  0  0  # atno 6907 bound_to 6896
  151.8295  133.3401  159.3617 H   0  0  0  0  0  0  0  0  0  0  0  0  # atno 6908 bound_to 6896
  150.7222  134.5426  159.5799 H   0  0  0  0  0  0  0  0  0  0  0  0  # atno 6909 bound_to 6896
  145.8976  139.3557  143.0611 H   0  0  0  0  0  0  0  0  0  0  0  0  # atno 7974 bound_to 7965
  155.3841  140.0496  157.3043 H   0  0  0  0  0  0  0  0  0  0  0  0  # atno 8008 bound_to 7997
  154.5068  140.2177  155.9196 H   0  0  0  0  0  0  0  0  0  0  0  0  # atno 8009 bound_to 7997
  156.1535  140.3131  155.8693 H   0  0  0  0  0  0  0  0  0  0  0  0  # atno 8010 bound_to 7997
  140.0597  144.5243  150.7303 H   0  0  0  0  0  0  0  0  0  0  0  0  # atno 10167 bound_to 10162
  156.5209  130.8477  151.2681 H   0  0  0  0  0  0  0  0  0  0  0  0  # atno 10718 bound_to 10713
  154.8145  135.3295  154.7215 H   0  0  0  0  0  0  0  0  0  0  0  0  # atno 10763 bound_to 10752
  153.7858  135.6915  153.4884 H   0  0  0  0  0  0  0  0  0  0  0  0  # atno 10764 bound_to 10752
  153.1949  135.4537  155.0143 H   0  0  0  0  0  0  0  0  0  0  0  0  # atno 10765 bound_to 10752
  141.1566  133.7691  156.9734 H   0  0  0  0  0  0  0  0  0  0  0  0  # atno 11005 bound_to 11000
  145.8831  140.9351  143.0591 LP  0  0  0  0  0  0  0  0  0  0  0  0  # atno 17320 bound_to 7965
  144.6734  140.0806  143.7469 LP  0  0  0  0  0  0  0  0  0  0  0  0  # atno 17321 bound_to 7965
  140.7178  143.2560  151.4379 LP  0  0  0  0  0  0  0  0  0  0  0  0  # atno 17342 bound_to 10162
  139.5901  144.1517  152.2078 LP  0  0  0  0  0  0  0  0  0  0  0  0  # atno 17343 bound_to 10162
  157.7437  130.9918  150.2613 LP  0  0  0  0  0  0  0  0  0  0  0  0  # atno 17370 bound_to 10713
  156.3151  130.3777  149.7626 LP  0  0  0  0  0  0  0  0  0  0  0  0  # atno 17371 bound_to 10713
  140.1114  134.9474  157.2070 LP  0  0  0  0  0  0  0  0  0  0  0  0  # atno 17394 bound_to 11000
  140.3189  134.2938  155.7250 LP  0  0  0  0  0  0  0  0  0  0  0  0  # atno 17395 bound_to 11000

$$$$
