AV-unprocessed.smi:2124|AV-procd|sdf|8665|dock4
  -GOLD-   2272011413D 1   1.00000     0.00000
 Structure written by MMmdl.
 47 49  0  0  0  0  0  0  0  0  1 V2000
  148.3871  139.4087  153.6924 C   0  0  0  0  0  0  0  0  0  0  0  0
  149.4203  139.0961  154.7528 C   0  0  0  0  0  0  0  0  0  0  0  0
  148.9056  138.4269  155.8510 N   0  0  0  0  0  0  0  0  0  0  0  0
  149.7748  138.1037  156.8778 C   0  0  0  0  0  0  0  0  0  0  0  0
  149.1300  137.3768  158.0454 C   0  0  0  0  0  0  0  0  0  0  0  0
  151.0904  138.4309  156.8138 C   0  0  0  0  0  0  0  0  0  0  0  0
  152.0779  138.1006  157.9315 C   0  0  0  0  0  0  0  0  0  0  0  0
  152.7905  139.3004  158.5600 C   0  0  0  0  0  0  0  0  0  0  0  0
  154.0069  139.4369  158.4284 O   0  0  0  0  0  0  0  0  0  0  0  0
  152.0152  140.1609  159.2384 N   0  0  0  0  0  0  0  0  0  0  0  0
  152.4600  141.3818  159.9087 C   0  0  1  0  0  0  0  0  0  0  0  0
  153.7266  141.0604  160.7167 C   0  0  0  0  0  0  0  0  0  0  0  0
  152.6900  142.4988  158.8615 C   0  0  1  0  0  0  0  0  0  0  0  0
  151.4893  142.7768  157.9267 C   0  0  0  0  0  0  0  0  0  0  0  0
  151.3463  144.3087  157.9896 C   0  0  1  0  0  0  0  0  0  0  0  0
  150.7347  144.6997  159.3472 C   0  0  0  0  0  0  0  0  0  0  0  0
  151.8964  144.4475  160.3250 C   0  0  0  0  0  0  0  0  0  0  0  0
  153.0121  143.9142  159.4024 C   0  0  2  0  0  0  0  0  0  0  0  0
  152.7921  144.7624  158.1533 C   0  0  0  0  0  0  0  0  0  0  0  0
  151.5828  139.1459  155.6124 C   0  0  0  0  0  0  0  0  0  0  0  0
  152.7626  139.4748  155.4965 O   0  0  0  0  0  0  0  0  0  0  0  0
  150.6600  139.4492  154.5982 N   0  0  0  0  0  0  0  0  0  0  0  0
  147.9333  138.1703  155.9420 H   0  0  0  0  0  0  0  0  0  0  0  0
  148.8615  139.7832  152.7845 H   0  0  0  0  0  0  0  0  0  0  0  0
  147.6935  140.1683  154.0538 H   0  0  0  0  0  0  0  0  0  0  0  0
  147.8189  138.5143  153.4344 H   0  0  0  0  0  0  0  0  0  0  0  0
  149.5855  136.3960  158.1827 H   0  0  0  0  0  0  0  0  0  0  0  0
  148.0611  137.2287  157.8860 H   0  0  0  0  0  0  0  0  0  0  0  0
  149.2542  137.9475  158.9660 H   0  0  0  0  0  0  0  0  0  0  0  0
  152.8365  137.3983  157.5852 H   0  0  0  0  0  0  0  0  0  0  0  0
  151.5396  137.5622  158.7124 H   0  0  0  0  0  0  0  0  0  0  0  0
  151.0278  139.9564  159.2906 H   0  0  0  0  0  0  0  0  0  0  0  0
  151.6940  141.7034  160.6147 H   0  0  0  0  0  0  0  0  0  0  0  0
  154.0609  141.9238  161.2919 H   0  0  0  0  0  0  0  0  0  0  0  0
  154.5471  140.7544  160.0667 H   0  0  0  0  0  0  0  0  0  0  0  0
  153.5433  140.2523  161.4258 H   0  0  0  0  0  0  0  0  0  0  0  0
  153.5334  142.1944  158.2387 H   0  0  0  0  0  0  0  0  0  0  0  0
  151.7091  142.4428  156.9122 H   0  0  0  0  0  0  0  0  0  0  0  0
  150.5726  142.2794  158.2454 H   0  0  0  0  0  0  0  0  0  0  0  0
  150.8206  144.7344  157.1345 H   0  0  0  0  0  0  0  0  0  0  0  0
  150.4468  145.7517  159.3573 H   0  0  0  0  0  0  0  0  0  0  0  0
  149.8507  144.1085  159.5893 H   0  0  0  0  0  0  0  0  0  0  0  0
  152.2055  145.3842  160.7907 H   0  0  0  0  0  0  0  0  0  0  0  0
  151.6312  143.7619  161.1288 H   0  0  0  0  0  0  0  0  0  0  0  0
  154.0106  144.0011  159.8315 H   0  0  0  0  0  0  0  0  0  0  0  0
  153.4319  144.4794  157.3153 H   0  0  0  0  0  0  0  0  0  0  0  0
  152.8922  145.8345  158.3324 H   0  0  0  0  0  0  0  0  0  0  0  0
  1 24  1  0  0  0  0
  1 25  1  0  0  0  0
  1 26  1  0  0  0  0
  1  2  1  0  0  0  0
  2  3  1  0  0  0  0
  2 22  2  0  0  0  0
  3  4  1  0  0  0  0
  3 23  1  0  0  0  0
  4  6  2  0  0  0  0
  4  5  1  0  0  0  0
  5 27  1  0  0  0  0
  5 28  1  0  0  0  0
  5 29  1  0  0  0  0
  6 20  1  0  0  0  0
  6  7  1  0  0  0  0
  7  8  1  0  0  0  0
  7 30  1  0  0  0  0
  7 31  1  0  0  0  0
  8  9  2  0  0  0  0
  8 10  1  0  0  0  0
 10 11  1  0  0  0  0
 10 32  1  0  0  0  0
 11 12  1  0  0  0  0
 11 13  1  0  0  0  0
 11 33  1  0  0  0  0
 12 34  1  0  0  0  0
 12 35  1  0  0  0  0
 12 36  1  0  0  0  0
 13 18  1  0  0  0  0
 13 14  1  0  0  0  0
 13 37  1  0  0  0  0
 14 15  1  0  0  0  0
 14 38  1  0  0  0  0
 14 39  1  0  0  0  0
 15 19  1  0  0  0  0
 15 16  1  0  0  0  0
 15 40  1  0  0  0  0
 16 17  1  0  0  0  0
 16 41  1  0  0  0  0
 16 42  1  0  0  0  0
 17 18  1  0  0  0  0
 17 43  1  0  0  0  0
 17 44  1  0  0  0  0
 18 19  1  0  0  0  0
 18 45  1  0  0  0  0
 19 46  1  0  0  0  0
 19 47  1  0  0  0  0
 20 21  2  0  0  0  0
 20 22  1  0  0  0  0
M  END
> <s_m_source_file>
AV-unprocessed.smi

> <i_m_source_file_index>
2124

> <i_lp_mmshare_version>
43012

> <i_f3d_flags>
0

> <s_epik_input>
W0NIM11jMW5jKFtDSDNdKWMoYyg9TylbbkhdMSlbQ0gyXUMoPU8pW05IXVtDQEhdKFtDSDNdKVtDQEhdKFtDSDJdW0NASF0yMylbQ0BIXShbQ0gyXTMpW0NIMl1bQ0gyXTI=

> <s_epik_cmdline>
J2VwaWtfcHl0aG9uJywgJy1waCcsICc3LjAnLCAnLXRuJywgJzgnLCAnLW1hJywgJzIwMCcsICctbWV0YWxfYmluZGluZycsICctaW1hZScsICc8aW5maWxlLm1hZT4nLCAnLW9tYWUnLCAnPG91dGZpbGUubWFlPic=

> <r_lp_tautomer_probability>
0.156392

> <r_epik_Ionization_Penalty>
0.0139374

> <r_epik_Ionization_Penalty_Charging>
0.0138122

> <r_epik_Ionization_Penalty_Neutral>
0.000125146

> <r_epik_State_Penalty>
1.15342

> <r_epik_Charging_Adjusted_Penalty>
1.16723

> <i_epik_Tot_Q>
0

> <i_epik_Tot_abs_Q>
0

> <r_epik_Metal_State_Penalty>
1.3173

> <b_epik_Metal_Only>
0

> <s_lp_Force_Field>
OPLS_2005

> <r_lp_Energy>
55.9992

> <b_lp_Chiralities_Consistent>
1

> <s_lp_Variant>
AV-unprocessed.smi:2124-16

> <Gold.Version>
5.8.1

> <Gold.Id.Protein>
6NUR|6NUR_protein|mol2

> <Gold.PLP.Fitness>
50.2568

> <Gold.PLP.PLP>
-42.0778

> <Gold.PLP.part.hbond>
-2.9894

> <Gold.PLP.part.metal>
0.0000

> <Gold.PLP.part.buried>
-4.1633

> <Gold.PLP.part.nonpolar>
-35.5391

> <Gold.PLP.part.repulsive>
0.2529

> <Gold.PLP.ligand.clash>
0.0000

> <Gold.PLP.ligand.torsion>
0.2737

> <Gold.PLP.Chemscore.Hbond>
2.9040

> <Gold.PLP.Chemscore.CHOScore>
0.0000

> <Gold.PLP.Chemscore.Metal>
0.0000

> <Gold.Chemscore.Hbonds>
donor molecule, donor type, donor heavy atom, donor atom, acceptor molecule, acceptor atom, score
      P1  H  7989  7998       L1    22  0.98
      P1  H  7997  8008       L1     9  0.88
      P1  H  7997  8009       L1    21  0.96

> <Gold.PLP.Chemscore.Internal.Correction>
0.0144

> <Gold.Rescore>
     Score         DG    S(hbond)    S(metal)    S(lipo)     H(rot)  DE(clash)    DE(int)     intcor
     21.06     -23.90       2.48        0.00     122.90       1.65       0.10       2.73       ----

> <Gold.Chemscore.Fitness>
21.0645

> <Gold.Chemscore.DG>
-23.8976

> <Gold.Chemscore.ZeroCoef>
-5.4800

> <Gold.Chemscore.Hbond>
2.4765

> <Gold.Chemscore.Metal>
0.0000

> <Gold.Chemscore.Lipo>
122.8952

> <Gold.Chemscore.Internal_Hbond>
0.0000

> <Gold.Chemscore.DEClash>
0.1020

> <Gold.Chemscore.DEInternal>
2.7311

> <Gold.Chemscore.Rot>
1.6534

> <Gold.Chemscore.Internal.Correction>
   9.000000E+99

> <Gold.Chemscore.Hbonds>
donor molecule, donor type, donor heavy atom, donor atom, acceptor molecule, acceptor atom, score
      P1  H  7989  7998       L1    22  0.36
      P1  H  7997  8008       L1     9  0.86
      P1  H  7997  8009       L1    21  0.91

> <Gold.Chemscore.Hbond.Weighted>
-8.2714

> <Gold.Chemscore.Metal.Weighted>
-0.0000

> <Gold.Chemscore.Lipo.Weighted>
-14.3787

> <Gold.Chemscore.Internal_Hbond.Weighted>
0.0000

> <Gold.Chemscore.DEClash.Weighted>
0.1020

> <Gold.Chemscore.DEInternal.Weighted>
2.7311

> <Gold.Chemscore.Rot.Weighted>
4.2326

> <Gold.Chemscore.Internal.Correction.Weighted>
   9.000000E+99

> <Gold.Protein.RotatedTorsions>
[ 6907 6896 6895 6894 ] final   46.03 input  -60.11 | X-H torsion
[ 7974 7965 7964 7962 ] final   34.78 input  175.53 | X-H torsion
[ 8008 7997 7996 7995 ] final -124.89 input   59.86 | X-H torsion
[ 10167 10162 10161 10158 ] final   89.65 input  -65.29 | X-H torsion
[ 10718 10713 10712 10709 ] final -148.77 input   66.30 | X-H torsion
[ 10763 10752 10751 10750 ] final   92.15 input  -60.55 | X-H torsion
[ 11005 11000 10999 10996 ] final -109.23 input  -57.11 | X-H torsion

> <Gold.Protein.ActiveResidues>
 VAL166  LYS551  ARG553  GLY616  TRP617  ASP618  TYR619  PRO620  LYS621  CYS622 
 ASP623  PHE694  ASN695  SER759  ASP760  ASP761  ALA762  ILE779  LEU786  VAL792 
 PHE793  MET794  SER795  GLU796  ALA797  LYS798  CYS799  TRP800  GLU811  SER814 

> <Gold.Protein.RotatedAtoms>
  152.2515  134.8127  160.0444 H   0  0  0  0  0  0  0  0  0  0  0  0  # atno 6907 bound_to 6896
  151.8806  133.3489  159.3773 H   0  0  0  0  0  0  0  0  0  0  0  0  # atno 6908 bound_to 6896
  150.7085  134.4949  159.5577 H   0  0  0  0  0  0  0  0  0  0  0  0  # atno 6909 bound_to 6896
  146.1329  139.6226  142.9214 H   0  0  0  0  0  0  0  0  0  0  0  0  # atno 7974 bound_to 7965
  155.2043  140.0417  157.2923 H   0  0  0  0  0  0  0  0  0  0  0  0  # atno 8008 bound_to 7997
  154.6054  140.2463  155.7709 H   0  0  0  0  0  0  0  0  0  0  0  0  # atno 8009 bound_to 7997
  156.2347  140.2926  156.0289 H   0  0  0  0  0  0  0  0  0  0  0  0  # atno 8010 bound_to 7997
  139.8551  144.6573  150.9123 H   0  0  0  0  0  0  0  0  0  0  0  0  # atno 10167 bound_to 10162
  156.4245  130.8045  151.2269 H   0  0  0  0  0  0  0  0  0  0  0  0  # atno 10718 bound_to 10713
  153.2160  135.4372  155.0435 H   0  0  0  0  0  0  0  0  0  0  0  0  # atno 10763 bound_to 10752
  154.8225  135.3345  154.6997 H   0  0  0  0  0  0  0  0  0  0  0  0  # atno 10764 bound_to 10752
  153.7432  135.7003  153.5018 H   0  0  0  0  0  0  0  0  0  0  0  0  # atno 10765 bound_to 10752
  141.0859  133.9140  157.2187 H   0  0  0  0  0  0  0  0  0  0  0  0  # atno 11005 bound_to 11000
  145.5220  141.0431  143.2430 LP  0  0  0  0  0  0  0  0  0  0  0  0  # atno 17320 bound_to 7965
  144.7709  139.6737  143.7195 LP  0  0  0  0  0  0  0  0  0  0  0  0  # atno 17321 bound_to 7965
  140.7782  143.3793  151.1506 LP  0  0  0  0  0  0  0  0  0  0  0  0  # atno 17342 bound_to 10162
  139.7427  143.8899  152.3054 LP  0  0  0  0  0  0  0  0  0  0  0  0  # atno 17343 bound_to 10162
  157.7508  131.0218  150.3764 LP  0  0  0  0  0  0  0  0  0  0  0  0  # atno 17370 bound_to 10713
  156.4088  130.3930  149.6906 LP  0  0  0  0  0  0  0  0  0  0  0  0  # atno 17371 bound_to 10713
  139.9677  135.0137  156.9430 LP  0  0  0  0  0  0  0  0  0  0  0  0  # atno 17394 bound_to 11000
  140.5364  134.0763  155.7329 LP  0  0  0  0  0  0  0  0  0  0  0  0  # atno 17395 bound_to 11000

$$$$
