AV-unprocessed.smi:2325|AV-procd|sdf|9295|dock1
  -GOLD-   2272012513D 1   1.00000     0.00000
 Structure written by MMmdl.
 40 41  0  0  0  0  0  0  0  0  1 V2000
  150.8619  137.1074  154.5093 C   0  0  0  0  0  0  0  0  0  0  0  0
  150.9149  135.7905  155.1143 N   0  0  0  0  0  0  0  0  0  0  0  0
  151.8289  135.4982  156.0691 N   0  0  0  0  0  0  0  0  0  0  0  0
  151.5534  134.2265  156.3598 C   0  0  0  0  0  0  0  0  0  0  0  0
  150.5224  133.6627  155.6636 N   0  0  0  0  0  0  0  0  0  0  0  0
  150.1736  134.6983  154.9065 C   0  0  0  0  0  0  0  0  0  0  0  0
  149.1240  134.7206  153.9496 N   0  0  0  0  0  0  0  0  0  0  0  0
  148.1650  133.7993  153.7583 C   0  0  0  0  0  0  0  0  0  0  0  0
  148.0541  132.7480  154.3890 O   0  0  0  0  0  0  0  0  0  0  0  0
  147.3256  134.1705  152.7816 N   0  0  0  0  0  0  0  0  0  0  0  0
  146.1567  133.4112  152.3422 C   0  0  2  0  0  0  0  0  0  0  0  0
  146.5102  132.4406  151.2329 C   0  0  0  0  0  0  0  0  0  0  0  0
  145.1685  132.2156  150.5260 C   0  0  0  0  0  0  0  0  0  0  0  0
  145.3324  132.0401  149.0087 C   0  0  0  0  0  0  0  0  0  0  0  0
  144.3864  131.0395  151.1354 C   0  0  0  0  0  0  0  0  0  0  0  0
  144.4099  133.4002  150.7652 O   0  0  0  0  0  0  0  0  0  0  0  0
  145.0555  134.2755  151.6889 C   0  0  0  0  0  0  0  0  0  0  0  0
  144.0013  134.7459  152.7036 C   0  0  0  0  0  0  0  0  0  0  0  0
  145.5874  135.4662  150.8639 C   0  0  0  0  0  0  0  0  0  0  0  0
  150.9448  137.0170  153.4258 H   0  0  0  0  0  0  0  0  0  0  0  0
  151.6790  137.7311  154.8744 H   0  0  0  0  0  0  0  0  0  0  0  0
  149.9131  137.5848  154.7554 H   0  0  0  0  0  0  0  0  0  0  0  0
  152.1178  133.6838  157.1037 H   0  0  0  0  0  0  0  0  0  0  0  0
  149.0961  135.5332  153.3519 H   0  0  0  0  0  0  0  0  0  0  0  0
  147.4946  135.0504  152.3171 H   0  0  0  0  0  0  0  0  0  0  0  0
  145.7419  132.8379  153.1739 H   0  0  0  0  0  0  0  0  0  0  0  0
  147.2252  132.9009  150.5489 H   0  0  0  0  0  0  0  0  0  0  0  0
  146.9604  131.5188  151.6031 H   0  0  0  0  0  0  0  0  0  0  0  0
  145.9303  131.1586  148.7758 H   0  0  0  0  0  0  0  0  0  0  0  0
  145.8243  132.9047  148.5618 H   0  0  0  0  0  0  0  0  0  0  0  0
  144.3649  131.9254  148.5190 H   0  0  0  0  0  0  0  0  0  0  0  0
  144.9206  130.0983  151.0014 H   0  0  0  0  0  0  0  0  0  0  0  0
  143.4075  130.9340  150.6666 H   0  0  0  0  0  0  0  0  0  0  0  0
  144.2225  131.1782  152.2043 H   0  0  0  0  0  0  0  0  0  0  0  0
  144.4326  135.4271  153.4368 H   0  0  0  0  0  0  0  0  0  0  0  0
  143.5693  133.9037  153.2448 H   0  0  0  0  0  0  0  0  0  0  0  0
  143.1840  135.2698  152.2073 H   0  0  0  0  0  0  0  0  0  0  0  0
  146.0603  136.2160  151.4987 H   0  0  0  0  0  0  0  0  0  0  0  0
  144.7770  135.9607  150.3281 H   0  0  0  0  0  0  0  0  0  0  0  0
  146.3195  135.1470  150.1219 H   0  0  0  0  0  0  0  0  0  0  0  0
  1  2  1  0  0  0  0
  1 20  1  0  0  0  0
  1 21  1  0  0  0  0
  1 22  1  0  0  0  0
  2  6  1  0  0  0  0
  2  3  1  0  0  0  0
  3  4  2  0  0  0  0
  4  5  1  0  0  0  0
  4 23  1  0  0  0  0
  5  6  2  0  0  0  0
  6  7  1  0  0  0  0
  7  8  1  0  0  0  0
  7 24  1  0  0  0  0
  8  9  2  0  0  0  0
  8 10  1  0  0  0  0
 10 11  1  0  0  0  0
 10 25  1  0  0  0  0
 11 17  1  0  0  0  0
 11 12  1  0  0  0  0
 11 26  1  0  0  0  0
 12 13  1  0  0  0  0
 12 27  1  0  0  0  0
 12 28  1  0  0  0  0
 13 14  1  0  0  0  0
 13 15  1  0  0  0  0
 13 16  1  0  0  0  0
 14 29  1  0  0  0  0
 14 30  1  0  0  0  0
 14 31  1  0  0  0  0
 15 32  1  0  0  0  0
 15 33  1  0  0  0  0
 15 34  1  0  0  0  0
 16 17  1  0  0  0  0
 17 18  1  0  0  0  0
 17 19  1  0  0  0  0
 18 35  1  0  0  0  0
 18 36  1  0  0  0  0
 18 37  1  0  0  0  0
 19 38  1  0  0  0  0
 19 39  1  0  0  0  0
 19 40  1  0  0  0  0
M  END
> <s_m_source_file>
AV-unprocessed.smi

> <i_m_source_file_index>
2325

> <i_lp_mmshare_version>
43012

> <i_f3d_flags>
0

> <s_epik_input>
W0NIM11uMW5bY0hdbmMxW05IXUMoPU8pW05IXVtDQEBIXShDKE8yKShbQ0gzXSlbQ0gzXSlbQ0gyXUMyKFtDSDNdKVtDSDNd

> <s_epik_cmdline>
J2VwaWtfcHl0aG9uJywgJy1waCcsICc3LjAnLCAnLXRuJywgJzgnLCAnLW1hJywgJzIwMCcsICctbWV0YWxfYmluZGluZycsICctaW1hZScsICc8aW5maWxlLm1hZT4nLCAnLW9tYWUnLCAnPG91dGZpbGUubWFlPic=

> <r_lp_tautomer_probability>
1

> <r_epik_Ionization_Penalty>
1.97832e-05

> <r_epik_Ionization_Penalty_Charging>
0

> <r_epik_Ionization_Penalty_Neutral>
1.97832e-05

> <r_epik_State_Penalty>
-0

> <r_epik_Charging_Adjusted_Penalty>
0

> <i_epik_Tot_Q>
0

> <i_epik_Tot_abs_Q>
0

> <r_epik_Metal_State_Penalty>
-0

> <b_epik_Metal_Only>
0

> <s_lp_Force_Field>
OPLS_2005

> <r_lp_Energy>
17.1508

> <b_lp_Chiralities_Consistent>
1

> <s_lp_Variant>
AV-unprocessed.smi:2325-1

> <Gold.Version>
5.8.1

> <Gold.Id.Protein>
6NUR|6NUR_protein|mol2

> <Gold.PLP.Fitness>
37.4206

> <Gold.PLP.PLP>
-30.2435

> <Gold.PLP.part.hbond>
-3.0000

> <Gold.PLP.part.metal>
0.0000

> <Gold.PLP.part.buried>
-1.3690

> <Gold.PLP.part.nonpolar>
-24.8869

> <Gold.PLP.part.repulsive>
0.2127

> <Gold.PLP.ligand.clash>
0.0000

> <Gold.PLP.ligand.torsion>
0.3900

> <Gold.PLP.Chemscore.Hbond>
2.6480

> <Gold.PLP.Chemscore.CHOScore>
0.0000

> <Gold.PLP.Chemscore.Metal>
0.0000

> <Gold.Chemscore.Hbonds>
donor molecule, donor type, donor heavy atom, donor atom, acceptor molecule, acceptor atom, score
      L1  H     7    24       P1  7948  1.00
      L1  H    10    25       P1  7948  0.80
      P1  H 10752 10765       L1     3  1.00

> <Gold.PLP.Chemscore.Internal.Correction>
0.0131

> <Gold.Rescore>
     Score         DG    S(hbond)    S(metal)    S(lipo)     H(rot)  DE(clash)    DE(int)     intcor
     14.62     -16.52       1.72        0.00      67.08       1.00       0.39       1.51       ----

> <Gold.Chemscore.Fitness>
14.6158

> <Gold.Chemscore.DG>
-16.5156

> <Gold.Chemscore.ZeroCoef>
-5.4800

> <Gold.Chemscore.Hbond>
1.7207

> <Gold.Chemscore.Metal>
0.0000

> <Gold.Chemscore.Lipo>
67.0824

> <Gold.Chemscore.Internal_Hbond>
0.0000

> <Gold.Chemscore.DEClash>
0.3947

> <Gold.Chemscore.DEInternal>
1.5051

> <Gold.Chemscore.Rot>
1.0000

> <Gold.Chemscore.Internal.Correction>
   9.000000E+99

> <Gold.Chemscore.Hbonds>
donor molecule, donor type, donor heavy atom, donor atom, acceptor molecule, acceptor atom, score
      L1  H     7    24       P1  7948  0.52
      L1  H    10    25       P1  7948  0.78
      P1  H 10752 10765       L1     3  0.17

> <Gold.Chemscore.Hbond.Weighted>
-5.7470

> <Gold.Chemscore.Metal.Weighted>
-0.0000

> <Gold.Chemscore.Lipo.Weighted>
-7.8486

> <Gold.Chemscore.Internal_Hbond.Weighted>
0.0000

> <Gold.Chemscore.DEClash.Weighted>
0.3947

> <Gold.Chemscore.DEInternal.Weighted>
1.5051

> <Gold.Chemscore.Rot.Weighted>
2.5600

> <Gold.Chemscore.Internal.Correction.Weighted>
   9.000000E+99

> <Gold.Protein.RotatedTorsions>
[ 6907 6896 6895 6894 ] final   59.76 input  -60.11 | X-H torsion
[ 7974 7965 7964 7962 ] final   81.90 input  175.53 | X-H torsion
[ 8008 7997 7996 7995 ] final -108.52 input   59.86 | X-H torsion
[ 10167 10162 10161 10158 ] final -114.89 input  -65.29 | X-H torsion
[ 10718 10713 10712 10709 ] final  167.99 input   66.30 | X-H torsion
[ 10763 10752 10751 10750 ] final -136.35 input  -60.55 | X-H torsion
[ 11005 11000 10999 10996 ] final -139.07 input  -57.11 | X-H torsion

> <Gold.Protein.ActiveResidues>
 VAL166  LYS551  ARG553  GLY616  TRP617  ASP618  TYR619  PRO620  LYS621  CYS622 
 ASP623  PHE694  ASN695  SER759  ASP760  ASP761  ALA762  ILE779  LEU786  VAL792 
 PHE793  MET794  SER795  GLU796  ALA797  LYS798  CYS799  TRP800  GLU811  SER814 

> <Gold.Protein.RotatedAtoms>
  152.3943  134.6390  160.0094 H   0  0  0  0  0  0  0  0  0  0  0  0  # atno 6907 bound_to 6896
  151.6615  133.3311  159.3183 H   0  0  0  0  0  0  0  0  0  0  0  0  # atno 6908 bound_to 6896
  150.7853  134.6877  159.6524 H   0  0  0  0  0  0  0  0  0  0  0  0  # atno 6909 bound_to 6896
  145.6321  139.2407  143.2079 H   0  0  0  0  0  0  0  0  0  0  0  0  # atno 7974 bound_to 7965
  154.9456  140.0402  157.2118 H   0  0  0  0  0  0  0  0  0  0  0  0  # atno 8008 bound_to 7997
  154.8027  140.2854  155.5887 H   0  0  0  0  0  0  0  0  0  0  0  0  # atno 8009 bound_to 7997
  156.2963  140.2552  156.2899 H   0  0  0  0  0  0  0  0  0  0  0  0  # atno 8010 bound_to 7997
  140.0960  143.4656  152.1841 H   0  0  0  0  0  0  0  0  0  0  0  0  # atno 10167 bound_to 10162
  157.0436  131.0293  151.2705 H   0  0  0  0  0  0  0  0  0  0  0  0  # atno 10718 bound_to 10713
  154.8685  135.3675  154.5046 H   0  0  0  0  0  0  0  0  0  0  0  0  # atno 10763 bound_to 10752
  153.5684  135.7021  153.5520 H   0  0  0  0  0  0  0  0  0  0  0  0  # atno 10764 bound_to 10752
  153.3564  135.4058  155.1648 H   0  0  0  0  0  0  0  0  0  0  0  0  # atno 10765 bound_to 10752
  140.8555  134.2233  157.4737 H   0  0  0  0  0  0  0  0  0  0  0  0  # atno 11005 bound_to 11000
  146.1348  140.7137  142.9395 LP  0  0  0  0  0  0  0  0  0  0  0  0  # atno 17320 bound_to 7965
  144.7190  140.4308  143.7023 LP  0  0  0  0  0  0  0  0  0  0  0  0  # atno 17321 bound_to 7965
  139.5698  144.7456  151.3923 LP  0  0  0  0  0  0  0  0  0  0  0  0  # atno 17342 bound_to 10162
  140.7003  143.7647  150.7393 LP  0  0  0  0  0  0  0  0  0  0  0  0  # atno 17343 bound_to 10162
  157.5085  130.7924  149.7680 LP  0  0  0  0  0  0  0  0  0  0  0  0  # atno 17370 bound_to 10713
  156.0030  130.3870  150.2534 LP  0  0  0  0  0  0  0  0  0  0  0  0  # atno 17371 bound_to 10713
  139.8705  134.9704  156.4701 LP  0  0  0  0  0  0  0  0  0  0  0  0  # atno 17394 bound_to 11000
  140.8742  133.7966  155.9396 LP  0  0  0  0  0  0  0  0  0  0  0  0  # atno 17395 bound_to 11000

$$$$
