AV-unprocessed.smi:1135|AV-procd|sdf|4859|dock8
  -GOLD-   22720 3433D 1   1.00000     0.00000
 Structure written by MMmdl.
 45 46  0  0  0  0  0  0  0  0  1 V2000
  143.7821  132.2048  148.6759 C   0  0  0  0  0  0  0  0  0  0  0  0
  144.8900  132.2510  149.7375 C   0  0  2  0  0  0  0  0  0  0  0  0
  144.5767  131.3158  150.9200 C   0  0  0  0  0  0  0  0  0  0  0  0
  145.6693  131.3819  152.0046 C   0  0  0  0  0  0  0  0  0  0  0  0
  145.9109  132.8176  152.5300 C   0  0  2  0  0  0  0  0  0  0  0  0
  147.1006  132.7988  153.5133 C   0  0  0  0  0  0  0  0  0  0  0  0
  144.6913  133.2454  153.2318 N   0  0  0  0  0  0  0  0  0  0  0  0
  144.1854  134.4838  153.3507 C   0  0  0  0  0  0  0  0  0  0  0  0
  144.6996  135.4997  152.8830 O   0  0  0  0  0  0  0  0  0  0  0  0
  143.0365  134.4799  154.0406 N   0  0  0  0  0  0  0  0  0  0  0  0
  142.2323  135.6626  154.3253 C   0  0  0  0  0  0  0  0  0  0  0  0
  141.4234  136.1050  153.0944 C   0  0  0  0  0  0  0  0  0  0  0  0
  140.0660  136.6673  153.4721 C   0  0  0  0  0  0  0  0  0  0  0  0
  139.3114  137.4113  152.5402 C   0  0  0  0  0  0  0  0  0  0  0  0
  138.0621  137.9215  152.9426 C   0  0  0  0  0  0  0  0  0  0  0  0
  137.6182  137.6705  154.2552 C   0  0  0  0  0  0  0  0  0  0  0  0
  138.4463  136.9158  155.1099 C   0  0  0  0  0  0  0  0  0  0  0  0
  139.6458  136.4217  154.7339 N   0  0  0  0  0  0  0  0  0  0  0  0
  146.2273  133.7324  151.3170 C   0  0  0  0  0  0  0  0  0  0  0  0
  145.1330  133.6875  150.2352 C   0  0  0  0  0  0  0  0  0  0  0  0
  142.8297  132.5488  149.0808 H   0  0  0  0  0  0  0  0  0  0  0  0
  143.6385  131.1906  148.3024 H   0  0  0  0  0  0  0  0  0  0  0  0
  144.0294  132.8378  147.8232 H   0  0  0  0  0  0  0  0  0  0  0  0
  145.8099  131.8994  149.2678 H   0  0  0  0  0  0  0  0  0  0  0  0
  143.6092  131.5758  151.3516 H   0  0  0  0  0  0  0  0  0  0  0  0
  144.4828  130.2892  150.5641 H   0  0  0  0  0  0  0  0  0  0  0  0
  145.4039  130.7183  152.8289 H   0  0  0  0  0  0  0  0  0  0  0  0
  146.5965  130.9845  151.5889 H   0  0  0  0  0  0  0  0  0  0  0  0
  147.9998  132.4061  153.0375 H   0  0  0  0  0  0  0  0  0  0  0  0
  146.8893  132.1719  154.3803 H   0  0  0  0  0  0  0  0  0  0  0  0
  147.3441  133.7961  153.8798 H   0  0  0  0  0  0  0  0  0  0  0  0
  144.1645  132.5020  153.6662 H   0  0  0  0  0  0  0  0  0  0  0  0
  142.6897  133.5976  154.3876 H   0  0  0  0  0  0  0  0  0  0  0  0
  141.5585  135.4241  155.1486 H   0  0  0  0  0  0  0  0  0  0  0  0
  142.8726  136.4747  154.6739 H   0  0  0  0  0  0  0  0  0  0  0  0
  141.9749  136.8600  152.5326 H   0  0  0  0  0  0  0  0  0  0  0  0
  141.2819  135.2623  152.4159 H   0  0  0  0  0  0  0  0  0  0  0  0
  139.6813  137.5904  151.5412 H   0  0  0  0  0  0  0  0  0  0  0  0
  137.4570  138.4964  152.2574 H   0  0  0  0  0  0  0  0  0  0  0  0
  136.6664  138.0474  154.5990 H   0  0  0  0  0  0  0  0  0  0  0  0
  138.1375  136.7046  156.1231 H   0  0  0  0  0  0  0  0  0  0  0  0
  146.3881  134.7629  151.6327 H   0  0  0  0  0  0  0  0  0  0  0  0
  147.1710  133.4185  150.8686 H   0  0  0  0  0  0  0  0  0  0  0  0
  145.4252  134.3240  149.3995 H   0  0  0  0  0  0  0  0  0  0  0  0
  144.2067  134.1085  150.6281 H   0  0  0  0  0  0  0  0  0  0  0  0
  1  2  1  0  0  0  0
  1 21  1  0  0  0  0
  1 22  1  0  0  0  0
  1 23  1  0  0  0  0
  2 20  1  0  0  0  0
  2  3  1  0  0  0  0
  2 24  1  0  0  0  0
  3  4  1  0  0  0  0
  3 25  1  0  0  0  0
  3 26  1  0  0  0  0
  4  5  1  0  0  0  0
  4 27  1  0  0  0  0
  4 28  1  0  0  0  0
  5  6  1  0  0  0  0
  5  7  1  0  0  0  0
  5 19  1  0  0  0  0
  6 29  1  0  0  0  0
  6 30  1  0  0  0  0
  6 31  1  0  0  0  0
  7  8  1  0  0  0  0
  7 32  1  0  0  0  0
  8  9  2  0  0  0  0
  8 10  1  0  0  0  0
 10 11  1  0  0  0  0
 10 33  1  0  0  0  0
 11 12  1  0  0  0  0
 11 34  1  0  0  0  0
 11 35  1  0  0  0  0
 12 13  1  0  0  0  0
 12 36  1  0  0  0  0
 12 37  1  0  0  0  0
 13 18  1  0  0  0  0
 13 14  2  0  0  0  0
 14 15  1  0  0  0  0
 14 38  1  0  0  0  0
 15 16  2  0  0  0  0
 15 39  1  0  0  0  0
 16 17  1  0  0  0  0
 16 40  1  0  0  0  0
 17 18  2  0  0  0  0
 17 41  1  0  0  0  0
 19 20  1  0  0  0  0
 19 42  1  0  0  0  0
 19 43  1  0  0  0  0
 20 44  1  0  0  0  0
 20 45  1  0  0  0  0
M  END
> <s_m_source_file>
AV-unprocessed.smi

> <i_m_source_file_index>
1135

> <i_lp_mmshare_version>
43012

> <i_f3d_flags>
0

> <s_epik_input>
W0NIMl0xW0NIMl1bQ0BIXShbQ0gzXSlbQ0gyXVtDSDJdW0NAQF0xKFtDSDNdKVtOSF1DKD1PKVtOSF1bQ0gyXVtDSDJdYzJbY0hdW2NIXVtjSF1bY0hdbjI=

> <s_epik_cmdline>
J2VwaWtfcHl0aG9uJywgJy1waCcsICc3LjAnLCAnLXRuJywgJzgnLCAnLW1hJywgJzIwMCcsICctbWV0YWxfYmluZGluZycsICctaW1hZScsICc8aW5maWxlLm1hZT4nLCAnLW9tYWUnLCAnPG91dGZpbGUubWFlPic=

> <r_epik_Ionization_Penalty>
0.0448679

> <r_epik_Ionization_Penalty_Charging>
0

> <r_epik_Ionization_Penalty_Neutral>
0.0448679

> <r_epik_State_Penalty>
0.0379931

> <r_epik_Charging_Adjusted_Penalty>
0.0379931

> <i_epik_Tot_Q>
0

> <i_epik_Tot_abs_Q>
0

> <r_epik_Metal_State_Penalty>
0.0353093

> <b_epik_Metal_Only>
0

> <s_lp_Force_Field>
OPLS_2005

> <r_lp_Energy>
6.34065

> <b_lp_Chiralities_Consistent>
1

> <s_lp_Variant>
AV-unprocessed.smi:1135-2

> <Gold.Version>
5.8.1

> <Gold.Id.Protein>
6NUR|6NUR_protein|mol2

> <Gold.PLP.Fitness>
43.9088

> <Gold.PLP.PLP>
-37.0864

> <Gold.PLP.part.hbond>
-3.0000

> <Gold.PLP.part.metal>
0.0000

> <Gold.PLP.part.buried>
-5.1198

> <Gold.PLP.part.nonpolar>
-29.4684

> <Gold.PLP.part.repulsive>
0.1061

> <Gold.PLP.ligand.clash>
0.0000

> <Gold.PLP.ligand.torsion>
1.0954

> <Gold.PLP.Chemscore.Hbond>
3.0000

> <Gold.PLP.Chemscore.CHOScore>
0.0000

> <Gold.PLP.Chemscore.Metal>
0.0000

> <Gold.Chemscore.Hbonds>
donor molecule, donor type, donor heavy atom, donor atom, acceptor molecule, acceptor atom, score
      L1  H     7    32       P1 10957  1.00
      L1  H    10    33       P1 10957  1.00
      P1  H 11000 11005       L1    18  0.75

> <Gold.PLP.Chemscore.Internal.Correction>
0.0131

> <Gold.Rescore>
     Score         DG    S(hbond)    S(metal)    S(lipo)     H(rot)  DE(clash)    DE(int)     intcor
     16.89     -19.31       1.59        0.00     104.02       1.42       0.16       2.26       ----

> <Gold.Chemscore.Fitness>
16.8927

> <Gold.Chemscore.DG>
-19.3122

> <Gold.Chemscore.ZeroCoef>
-5.4800

> <Gold.Chemscore.Hbond>
1.5870

> <Gold.Chemscore.Metal>
0.0000

> <Gold.Chemscore.Lipo>
104.0180

> <Gold.Chemscore.Internal_Hbond>
0.0000

> <Gold.Chemscore.DEClash>
0.1596

> <Gold.Chemscore.DEInternal>
2.2599

> <Gold.Chemscore.Rot>
1.4213

> <Gold.Chemscore.Internal.Correction>
   9.000000E+99

> <Gold.Chemscore.Hbonds>
donor molecule, donor type, donor heavy atom, donor atom, acceptor molecule, acceptor atom, score
      L1  H     7    32       P1 10957  0.38
      L1  H    10    33       P1 10957  0.99
      P1  H 11000 11005       L1    18  0.26

> <Gold.Chemscore.Hbond.Weighted>
-5.3006

> <Gold.Chemscore.Metal.Weighted>
-0.0000

> <Gold.Chemscore.Lipo.Weighted>
-12.1701

> <Gold.Chemscore.Internal_Hbond.Weighted>
0.0000

> <Gold.Chemscore.DEClash.Weighted>
0.1596

> <Gold.Chemscore.DEInternal.Weighted>
2.2599

> <Gold.Chemscore.Rot.Weighted>
3.6385

> <Gold.Chemscore.Internal.Correction.Weighted>
   9.000000E+99

> <Gold.Protein.RotatedTorsions>
[ 6907 6896 6895 6894 ] final  -65.91 input  -60.11 | X-H torsion
[ 7974 7965 7964 7962 ] final  -15.87 input  175.53 | X-H torsion
[ 8008 7997 7996 7995 ] final  -28.27 input   59.86 | X-H torsion
[ 10167 10162 10161 10158 ] final   97.05 input  -65.29 | X-H torsion
[ 10718 10713 10712 10709 ] final  -70.15 input   66.30 | X-H torsion
[ 10763 10752 10751 10750 ] final  155.63 input  -60.55 | X-H torsion
[ 11005 11000 10999 10996 ] final   78.62 input  -57.11 | X-H torsion

> <Gold.Protein.ActiveResidues>
 VAL166  LYS551  ARG553  GLY616  TRP617  ASP618  TYR619  PRO620  LYS621  CYS622 
 ASP623  PHE694  ASN695  SER759  ASP760  ASP761  ALA762  ILE779  LEU786  VAL792 
 PHE793  MET794  SER795  GLU796  ALA797  LYS798  CYS799  TRP800  GLU811  SER814 

> <Gold.Protein.RotatedAtoms>
  150.7496  134.6094  159.6077 H   0  0  0  0  0  0  0  0  0  0  0  0  # atno 6907 bound_to 6896
  152.3432  134.7103  160.0266 H   0  0  0  0  0  0  0  0  0  0  0  0  # atno 6908 bound_to 6896
  151.7548  133.3293  159.3438 H   0  0  0  0  0  0  0  0  0  0  0  0  # atno 6909 bound_to 6896
  146.2013  140.3555  142.8422 H   0  0  0  0  0  0  0  0  0  0  0  0  # atno 7974 bound_to 7965
  154.4339  140.1850  156.1063 H   0  0  0  0  0  0  0  0  0  0  0  0  # atno 8008 bound_to 7997
  156.0253  140.3336  155.7056 H   0  0  0  0  0  0  0  0  0  0  0  0  # atno 8009 bound_to 7997
  155.5918  140.0631  157.2747 H   0  0  0  0  0  0  0  0  0  0  0  0  # atno 8010 bound_to 7997
  139.7837  144.6879  150.9987 H   0  0  0  0  0  0  0  0  0  0  0  0  # atno 10167 bound_to 10162
  156.0421  130.4326  150.2252 H   0  0  0  0  0  0  0  0  0  0  0  0  # atno 10718 bound_to 10713
  154.1714  135.2804  155.3080 H   0  0  0  0  0  0  0  0  0  0  0  0  # atno 10763 bound_to 10752
  154.6072  135.5510  153.7439 H   0  0  0  0  0  0  0  0  0  0  0  0  # atno 10764 bound_to 10752
  153.0163  135.6406  154.1854 H   0  0  0  0  0  0  0  0  0  0  0  0  # atno 10765 bound_to 10752
  139.9205  134.7778  156.1674 H   0  0  0  0  0  0  0  0  0  0  0  0  # atno 11005 bound_to 11000
  144.8690  140.7245  143.6059 LP  0  0  0  0  0  0  0  0  0  0  0  0  # atno 17320 bound_to 7965
  145.3474  139.1715  143.4453 LP  0  0  0  0  0  0  0  0  0  0  0  0  # atno 17321 bound_to 7965
  140.7819  143.4455  151.0488 LP  0  0  0  0  0  0  0  0  0  0  0  0  # atno 17342 bound_to 10162
  139.8135  143.7918  152.3173 LP  0  0  0  0  0  0  0  0  0  0  0  0  # atno 17343 bound_to 10162
  157.0346  131.0017  151.3302 LP  0  0  0  0  0  0  0  0  0  0  0  0  # atno 17370 bound_to 10713
  157.5253  130.8024  149.7855 LP  0  0  0  0  0  0  0  0  0  0  0  0  # atno 17371 bound_to 10713
  141.0721  133.6792  156.2162 LP  0  0  0  0  0  0  0  0  0  0  0  0  # atno 17394 bound_to 11000
  140.6489  134.5088  157.5576 LP  0  0  0  0  0  0  0  0  0  0  0  0  # atno 17395 bound_to 11000

$$$$
