AV-unprocessed.smi:157|AV-procd|sdf|1293|dock9
  -GOLD-   2262018573D 1   1.00000     0.00000
 Structure written by MMmdl.
 35 37  0  0  0  0  0  0  0  0  1 V2000
  157.0420  138.3155  158.1913 O   0  0  0  0  0  0  0  0  0  0  0  0
  155.9142  137.4710  158.2811 C   0  0  0  0  0  0  0  0  0  0  0  0
  154.7969  138.1692  159.0703 C   0  0  1  0  0  0  0  0  0  0  0  0
  154.3774  139.3414  158.3776 O   0  0  0  0  0  0  0  0  0  0  0  0
  153.0507  139.6423  158.6988 C   0  0  2  0  0  0  0  0  0  0  0  0
  153.0260  140.8636  159.5684 N   0  0  0  0  0  0  0  0  0  0  0  0
  153.5182  140.9771  160.8100 C   0  0  0  0  0  0  0  0  0  0  0  0
  153.3640  142.1716  161.3552 N   0  0  0  0  0  0  0  0  0  0  0  0
  152.7004  142.9057  160.3743 C   0  0  0  0  0  0  0  0  0  0  0  0
  152.4725  142.1098  159.2607 C   0  0  0  0  0  0  0  0  0  0  0  0
  151.8793  142.2728  158.0233 N   0  0  0  0  0  0  0  0  0  0  0  0
  151.0896  143.2860  157.8528 C   0  0  0  0  0  0  0  0  0  0  0  0
  150.7846  144.3396  158.7027 N   0  0  0  0  0  0  0  0  0  0  0  0
  151.7864  145.1025  159.4276 C   0  0  0  0  0  0  0  0  0  0  0  0
  152.3793  144.3502  160.6247 C   0  0  1  0  0  0  0  0  0  0  0  0
  151.4664  144.3899  161.7023 O   0  0  0  0  0  0  0  0  0  0  0  0
  152.4854  138.4425  159.4662 C   0  0  0  0  0  0  0  0  0  0  0  0
  153.4995  137.3625  159.1467 C   0  0  2  0  0  0  0  0  0  0  0  0
  153.5307  136.3826  160.1639 O   0  0  0  0  0  0  0  0  0  0  0  0
  155.1269  138.4348  160.0767 H   0  0  0  0  0  0  0  0  0  0  0  0
  152.4947  139.9059  157.7985 H   0  0  0  0  0  0  0  0  0  0  0  0
  153.2766  144.8768  160.9520 H   0  0  0  0  0  0  0  0  0  0  0  0
  153.2722  136.9032  158.1836 H   0  0  0  0  0  0  0  0  0  0  0  0
  157.4708  138.3346  159.0331 H   0  0  0  0  0  0  0  0  0  0  0  0
  155.5753  137.1807  157.2862 H   0  0  0  0  0  0  0  0  0  0  0  0
  156.2262  136.5618  158.7956 H   0  0  0  0  0  0  0  0  0  0  0  0
  154.0063  140.1662  161.3300 H   0  0  0  0  0  0  0  0  0  0  0  0
  150.5603  143.3740  156.9031 H   0  0  0  0  0  0  0  0  0  0  0  0
  149.9752  144.9061  158.4940 H   0  0  0  0  0  0  0  0  0  0  0  0
  152.5887  145.3346  158.7256 H   0  0  0  0  0  0  0  0  0  0  0  0
  151.3688  146.0599  159.7400 H   0  0  0  0  0  0  0  0  0  0  0  0
  151.8772  143.9838  162.4505 H   0  0  0  0  0  0  0  0  0  0  0  0
  152.4699  138.6606  160.5361 H   0  0  0  0  0  0  0  0  0  0  0  0
  151.4731  138.2058  159.1377 H   0  0  0  0  0  0  0  0  0  0  0  0
  154.3241  136.4949  160.6650 H   0  0  0  0  0  0  0  0  0  0  0  0
  1  2  1  0  0  0  0
  1 24  1  0  0  0  0
  2  3  1  0  0  0  0
  2 25  1  0  0  0  0
  2 26  1  0  0  0  0
  3 20  1  0  0  0  0
  3 18  1  0  0  0  0
  3  4  1  0  0  0  0
  4  5  1  0  0  0  0
  5 21  1  0  0  0  0
  5  6  1  0  0  0  0
  5 17  1  0  0  0  0
  6 10  1  0  0  0  0
  6  7  1  0  0  0  0
  7  8  2  0  0  0  0
  7 27  1  0  0  0  0
  8  9  1  0  0  0  0
  9 15  1  0  0  0  0
  9 10  2  0  0  0  0
 10 11  1  0  0  0  0
 11 12  2  0  0  0  0
 12 13  1  0  0  0  0
 12 28  1  0  0  0  0
 13 14  1  0  0  0  0
 13 29  1  0  0  0  0
 14 15  1  0  0  0  0
 14 30  1  0  0  0  0
 14 31  1  0  0  0  0
 15 22  1  0  0  0  0
 15 16  1  0  0  0  0
 16 32  1  0  0  0  0
 17 18  1  0  0  0  0
 17 33  1  0  0  0  0
 17 34  1  0  0  0  0
 18 23  1  0  0  0  0
 18 19  1  0  0  0  0
 19 35  1  0  0  0  0
M  END
> <s_m_source_file>
AV-unprocessed.smi

> <i_m_source_file_index>
157

> <i_lp_mmshare_version>
43012

> <i_f3d_flags>
0

> <s_epik_input>
W09IXVtDSDJdW0NASF0xT1tDQEhdKFtDSDJdW0NAQEhdMVtPSF0pbihbY0hdbjIpYyhjMjMpTj1bQ0hdW05IXVtDSDJdW0NASF0zW09IXQ==

> <s_epik_cmdline>
J2VwaWtfcHl0aG9uJywgJy1waCcsICc3LjAnLCAnLXRuJywgJzgnLCAnLW1hJywgJzIwMCcsICctbWV0YWxfYmluZGluZycsICctaW1hZScsICc8aW5maWxlLm1hZT4nLCAnLW9tYWUnLCAnPG91dGZpbGUubWFlPic=

> <r_lp_tautomer_probability>
1

> <r_epik_Ionization_Penalty>
0.0357149

> <r_epik_Ionization_Penalty_Charging>
0.0355056

> <r_epik_Ionization_Penalty_Neutral>
0.000209255

> <r_epik_State_Penalty>
0.0296046

> <r_epik_Charging_Adjusted_Penalty>
0.0651102

> <i_epik_Tot_Q>
0

> <i_epik_Tot_abs_Q>
0

> <r_epik_Metal_State_Penalty>
3.03559e-05

> <b_epik_Metal_Only>
0

> <s_epik_Chemistry_Notes>
This compound has an imine and may undergo hydrolysis. This compound contains an acetal/aminal-like group ( X-CH(R)-Y where X, Y are N, S, or O) that may be acid/base labile, releasing an aldehyde.

> <s_lp_Force_Field>
OPLS_2005

> <r_lp_Energy>
43.2358

> <b_lp_Chiralities_Consistent>
1

> <s_lp_Variant>
AV-unprocessed.smi:157-3

> <Gold.Version>
5.8.1

> <Gold.Id.Protein>
6NUR|6NUR_protein|mol2

> <Gold.PLP.Fitness>
45.3991

> <Gold.PLP.PLP>
-34.7708

> <Gold.PLP.part.hbond>
-4.6754

> <Gold.PLP.part.metal>
0.0000

> <Gold.PLP.part.buried>
-6.8704

> <Gold.PLP.part.nonpolar>
-23.4071

> <Gold.PLP.part.repulsive>
0.1410

> <Gold.PLP.ligand.clash>
0.0000

> <Gold.PLP.ligand.torsion>
0.0953

> <Gold.PLP.Chemscore.Hbond>
2.6000

> <Gold.PLP.Chemscore.CHOScore>
1.0000

> <Gold.PLP.Chemscore.Metal>
0.0000

> <Gold.Chemscore.Hbonds>
donor molecule, donor type, donor heavy atom, donor atom, acceptor molecule, acceptor atom, score
      P1  H  6896  6907       L1    19  1.00
      P1  H  7997  8008       L1     4  0.72
      P1  H  7997  8010       L1     1  0.02
      L1  C    12    28       P1  8028  1.00

> <Gold.PLP.Chemscore.Internal.Correction>
0.0190

> <Gold.Rescore>
     Score         DG    S(hbond)    S(metal)    S(lipo)     H(rot)  DE(clash)    DE(int)     intcor
      9.33      -9.77       2.27        0.00      51.53       3.64       0.18       0.27       ----

> <Gold.Chemscore.Fitness>
9.3290

> <Gold.Chemscore.DG>
-9.7710

> <Gold.Chemscore.ZeroCoef>
-5.4800

> <Gold.Chemscore.Hbond>
2.2668

> <Gold.Chemscore.Metal>
0.0000

> <Gold.Chemscore.Lipo>
51.5273

> <Gold.Chemscore.Internal_Hbond>
0.0000

> <Gold.Chemscore.DEClash>
0.1768

> <Gold.Chemscore.DEInternal>
0.2653

> <Gold.Chemscore.Rot>
3.6362

> <Gold.Chemscore.Internal.Correction>
   9.000000E+99

> <Gold.Chemscore.Hbonds>
donor molecule, donor type, donor heavy atom, donor atom, acceptor molecule, acceptor atom, score
      P1  H  6896  6907       L1    19  0.96
      P1  H  7997  8008       L1     4  0.28
      P1  H  7997  8010       L1     1  0.03

> <Gold.Chemscore.Hbond.Weighted>
-7.5711

> <Gold.Chemscore.Metal.Weighted>
-0.0000

> <Gold.Chemscore.Lipo.Weighted>
-6.0287

> <Gold.Chemscore.Internal_Hbond.Weighted>
0.0000

> <Gold.Chemscore.DEClash.Weighted>
0.1768

> <Gold.Chemscore.DEInternal.Weighted>
0.2653

> <Gold.Chemscore.Rot.Weighted>
9.3087

> <Gold.Chemscore.Internal.Correction.Weighted>
   9.000000E+99

> <Gold.Protein.RotatedTorsions>
[ 6907 6896 6895 6894 ] final   52.74 input  -60.11 | X-H torsion
[ 7974 7965 7964 7962 ] final -105.63 input  175.53 | X-H torsion
[ 8008 7997 7996 7995 ] final  -79.08 input   59.86 | X-H torsion
[ 10167 10162 10161 10158 ] final  105.37 input  -65.29 | X-H torsion
[ 10718 10713 10712 10709 ] final  150.18 input   66.30 | X-H torsion
[ 10763 10752 10751 10750 ] final  -15.69 input  -60.55 | X-H torsion
[ 11005 11000 10999 10996 ] final -104.28 input  -57.11 | X-H torsion

> <Gold.Protein.ActiveResidues>
 VAL166  LYS551  ARG553  GLY616  TRP617  ASP618  TYR619  PRO620  LYS621  CYS622 
 ASP623  PHE694  ASN695  SER759  ASP760  ASP761  ALA762  ILE779  LEU786  VAL792 
 PHE793  MET794  SER795  GLU796  ALA797  LYS798  CYS799  TRP800  GLU811  SER814 

> <Gold.Protein.RotatedAtoms>
  152.3265  134.7315  160.0300 H   0  0  0  0  0  0  0  0  0  0  0  0  # atno 6907 bound_to 6896
  151.7746  133.3339  159.3462 H   0  0  0  0  0  0  0  0  0  0  0  0  # atno 6908 bound_to 6896
  150.7398  134.5919  159.6036 H   0  0  0  0  0  0  0  0  0  0  0  0  # atno 6909 bound_to 6896
  145.2280  140.9160  143.3221 H   0  0  0  0  0  0  0  0  0  0  0  0  # atno 7974 bound_to 7965
  154.5751  140.0684  156.9021 H   0  0  0  0  0  0  0  0  0  0  0  0  # atno 8008 bound_to 7997
  155.2564  140.3355  155.4259 H   0  0  0  0  0  0  0  0  0  0  0  0  # atno 8009 bound_to 7997
  156.2147  140.1773  156.7600 H   0  0  0  0  0  0  0  0  0  0  0  0  # atno 8010 bound_to 7997
  139.7098  144.7079  151.1045 H   0  0  0  0  0  0  0  0  0  0  0  0  # atno 10167 bound_to 10162
  157.2867  131.0845  151.1492 H   0  0  0  0  0  0  0  0  0  0  0  0  # atno 10718 bound_to 10713
  153.5471  135.7012  153.5609 H   0  0  0  0  0  0  0  0  0  0  0  0  # atno 10763 bound_to 10752
  153.3549  135.3985  155.1674 H   0  0  0  0  0  0  0  0  0  0  0  0  # atno 10764 bound_to 10752
  154.8666  135.3774  154.4980 H   0  0  0  0  0  0  0  0  0  0  0  0  # atno 10765 bound_to 10752
  141.1107  133.8710  157.1591 H   0  0  0  0  0  0  0  0  0  0  0  0  # atno 11005 bound_to 11000
  144.9703  139.3887  143.6312 LP  0  0  0  0  0  0  0  0  0  0  0  0  # atno 17320 bound_to 7965
  146.3360  139.8797  142.8826 LP  0  0  0  0  0  0  0  0  0  0  0  0  # atno 17321 bound_to 7965
  140.7730  143.5308  150.9426 LP  0  0  0  0  0  0  0  0  0  0  0  0  # atno 17342 bound_to 10162
  139.8992  143.6856  152.3134 LP  0  0  0  0  0  0  0  0  0  0  0  0  # atno 17343 bound_to 10162
  157.2904  130.6793  149.6111 LP  0  0  0  0  0  0  0  0  0  0  0  0  # atno 17370 bound_to 10713
  155.9666  130.4422  150.5373 LP  0  0  0  0  0  0  0  0  0  0  0  0  # atno 17371 bound_to 10713
  140.0000  135.0031  157.0169 LP  0  0  0  0  0  0  0  0  0  0  0  0  # atno 17394 bound_to 11000
  140.4781  134.1317  155.7213 LP  0  0  0  0  0  0  0  0  0  0  0  0  # atno 17395 bound_to 11000

$$$$
