AV-unprocessed.smi:442|AV-procd|sdf|2584|dock10
  -GOLD-   2262022573D 1   1.00000     0.00000
 Structure written by MMmdl.
 37 37  0  0  0  0  0  0  0  0  3 V2000
  147.6688  133.2478  161.8985 C   0  0  0  0  0  0  0  0  0  0  0  0
  147.1712  134.5734  162.4921 C   0  0  0  0  0  0  0  0  0  0  0  0
  146.1832  135.3356  161.5866 C   0  0  1  0  0  0  0  0  0  0  0  0
  145.7228  136.6484  162.2350 C   0  0  0  0  0  0  0  0  0  0  0  0
  146.7924  135.6383  160.2938 N   0  0  0  0  0  0  0  0  0  0  0  0
  147.7752  136.5265  160.0623 C   0  0  0  0  0  0  0  0  0  0  0  0
  148.2726  137.2202  160.9483 O   0  0  0  0  0  0  0  0  0  0  0  0
  148.2887  136.6810  158.6199 C   0  0  0  0  0  0  0  0  0  0  0  0
  149.1652  137.8474  158.3926 N   0  0  0  0  0  0  0  0  0  0  0  0
  150.5156  137.6933  158.7541 C   0  0  0  0  0  0  0  0  0  0  0  0
  151.4152  138.6813  158.6060 C   0  0  0  0  0  0  0  0  0  0  0  0
  152.7972  138.5014  158.9969 N   0  3  0  0  0  0  0  0  0  0  0  0
  153.6332  139.3036  158.5940 O   0  0  0  0  0  0  0  0  0  0  0  0
  153.0934  137.5544  159.7193 O   0  5  0  0  0  0  0  0  0  0  0  0
  150.9555  139.9375  158.0508 C   0  0  0  0  0  0  0  0  0  0  0  0
  149.6553  140.1118  157.7012 C   0  0  0  0  0  0  0  0  0  0  0  0
  149.1410  141.3789  157.1343 C   0  0  0  0  0  0  0  0  0  0  0  0
  150.0784  142.3129  156.9311 N   0  0  0  0  0  0  0  0  0  0  0  0
  147.9734  141.6397  156.8450 O   0  0  0  0  0  0  0  0  0  0  0  0
  148.6655  139.0142  157.8771 C   0  0  0  0  0  0  0  0  0  0  0  0
  147.4657  139.0967  157.6016 O   0  0  0  0  0  0  0  0  0  0  0  0
  148.3138  132.7262  162.6055 H   0  0  0  0  0  0  0  0  0  0  0  0
  148.2439  133.4066  160.9862 H   0  0  0  0  0  0  0  0  0  0  0  0
  146.8354  132.5869  161.6593 H   0  0  0  0  0  0  0  0  0  0  0  0
  146.6878  134.3618  163.4466 H   0  0  0  0  0  0  0  0  0  0  0  0
  148.0275  135.2087  162.7220 H   0  0  0  0  0  0  0  0  0  0  0  0
  145.2962  134.7153  161.4470 H   0  0  0  0  0  0  0  0  0  0  0  0
  145.2403  136.4644  163.1953 H   0  0  0  0  0  0  0  0  0  0  0  0
  145.0040  137.1680  161.6005 H   0  0  0  0  0  0  0  0  0  0  0  0
  146.5625  137.3227  162.4080 H   0  0  0  0  0  0  0  0  0  0  0  0
  146.4435  135.1159  159.5037 H   0  0  0  0  0  0  0  0  0  0  0  0
  148.8120  135.7620  158.3521 H   0  0  0  0  0  0  0  0  0  0  0  0
  147.4290  136.7108  157.9484 H   0  0  0  0  0  0  0  0  0  0  0  0
  150.7603  136.7247  159.1663 H   0  0  0  0  0  0  0  0  0  0  0  0
  151.6784  140.7294  157.9253 H   0  0  0  0  0  0  0  0  0  0  0  0
  149.8253  143.2115  156.5473 H   0  0  0  0  0  0  0  0  0  0  0  0
  151.0403  142.1126  157.1643 H   0  0  0  0  0  0  0  0  0  0  0  0
  1  2  1  0  0  0  0
  1 22  1  0  0  0  0
  1 23  1  0  0  0  0
  1 24  1  0  0  0  0
  2  3  1  0  0  0  0
  2 25  1  0  0  0  0
  2 26  1  0  0  0  0
  3  4  1  0  0  0  0
  3  5  1  0  0  0  0
  3 27  1  0  0  0  0
  4 28  1  0  0  0  0
  4 29  1  0  0  0  0
  4 30  1  0  0  0  0
  5  6  1  0  0  0  0
  5 31  1  0  0  0  0
  6  7  2  0  0  0  0
  6  8  1  0  0  0  0
  8  9  1  0  0  0  0
  8 32  1  0  0  0  0
  8 33  1  0  0  0  0
  9 20  1  0  0  0  0
  9 10  1  0  0  0  0
 10 11  2  0  0  0  0
 10 34  1  0  0  0  0
 11 12  1  0  0  0  0
 11 15  1  0  0  0  0
 12 13  2  0  0  0  0
 12 14  1  0  0  0  0
 15 16  2  0  0  0  0
 15 35  1  0  0  0  0
 16 17  1  0  0  0  0
 16 20  1  0  0  0  0
 17 18  1  0  0  0  0
 17 19  2  0  0  0  0
 18 36  1  0  0  0  0
 18 37  1  0  0  0  0
 20 21  2  0  0  0  0
M  CHG  1  12   1
M  CHG  1  14  -1
M  END
> <s_m_source_file>
AV-unprocessed.smi

> <i_m_source_file_index>
442

> <i_lp_mmshare_version>
43012

> <i_f3d_flags>
0

> <s_epik_input>
W0NIM11bQ0gyXVtDQEhdKFtDSDNdKVtOSF1DKD1PKVtDSDJdbjFbY0hdYyhbTitdKD1PKVtPLV0pW2NIXWMoYzE9TylDKD1PKVtOSDJd

> <s_epik_cmdline>
J2VwaWtfcHl0aG9uJywgJy1waCcsICc3LjAnLCAnLXRuJywgJzgnLCAnLW1hJywgJzIwMCcsICctbWV0YWxfYmluZGluZycsICctaW1hZScsICc8aW5maWxlLm1hZT4nLCAnLW9tYWUnLCAnPG91dGZpbGUubWFlPic=

> <r_lp_tautomer_probability>
1

> <r_epik_Ionization_Penalty>
2.86914e-06

> <r_epik_Ionization_Penalty_Charging>
2.2828e-12

> <r_epik_Ionization_Penalty_Neutral>
2.86914e-06

> <r_epik_State_Penalty>
-0

> <r_epik_Charging_Adjusted_Penalty>
2.2828e-12

> <i_epik_Tot_Q>
0

> <i_epik_Tot_abs_Q>
2

> <r_epik_Metal_State_Penalty>
-0

> <b_epik_Metal_Only>
0

> <s_lp_Force_Field>
OPLS_2005

> <r_lp_Energy>
22.4314

> <b_lp_Chiralities_Consistent>
1

> <s_lp_Variant>
AV-unprocessed.smi:442-2

> <Gold.Version>
5.8.1

> <Gold.Id.Protein>
6NUR|6NUR_protein|mol2

> <Gold.PLP.Fitness>
37.5328

> <Gold.PLP.PLP>
-28.4536

> <Gold.PLP.part.hbond>
-3.9140

> <Gold.PLP.part.metal>
0.0000

> <Gold.PLP.part.buried>
-5.2923

> <Gold.PLP.part.nonpolar>
-19.2273

> <Gold.PLP.part.repulsive>
0.1760

> <Gold.PLP.ligand.clash>
0.0000

> <Gold.PLP.ligand.torsion>
0.6240

> <Gold.PLP.Chemscore.Hbond>
3.4281

> <Gold.PLP.Chemscore.CHOScore>
0.0000

> <Gold.PLP.Chemscore.Metal>
0.0000

> <Gold.Chemscore.Hbonds>
donor molecule, donor type, donor heavy atom, donor atom, acceptor molecule, acceptor atom, score
      L1  H    18    36       P1  8028  1.00
      P1  H  6931  6943       L1     7  0.93
      P1  H  6934  6947       L1     7  0.50
      P1  H  7997  8008       L1    13  1.00

> <Gold.PLP.Chemscore.Internal.Correction>
0.0429

> <Gold.Rescore>
     Score         DG    S(hbond)    S(metal)    S(lipo)     H(rot)  DE(clash)    DE(int)     intcor
     14.24     -17.63       3.52        0.00      47.85       2.03       0.03       3.36       ----

> <Gold.Chemscore.Fitness>
14.2390

> <Gold.Chemscore.DG>
-17.6255

> <Gold.Chemscore.ZeroCoef>
-5.4800

> <Gold.Chemscore.Hbond>
3.5193

> <Gold.Chemscore.Metal>
0.0000

> <Gold.Chemscore.Lipo>
47.8485

> <Gold.Chemscore.Internal_Hbond>
0.0000

> <Gold.Chemscore.DEClash>
0.0291

> <Gold.Chemscore.DEInternal>
3.3574

> <Gold.Chemscore.Rot>
2.0340

> <Gold.Chemscore.Internal.Correction>
   9.000000E+99

> <Gold.Chemscore.Hbonds>
donor molecule, donor type, donor heavy atom, donor atom, acceptor molecule, acceptor atom, score
      L1  H    18    36       P1  8028  0.97
      P1  H  6931  6943       L1     7  0.89
      P1  H  6934  6947       L1     7  0.27
      P1  H  7997  8008       L1    13  0.98

> <Gold.Chemscore.Hbond.Weighted>
-11.7543

> <Gold.Chemscore.Metal.Weighted>
-0.0000

> <Gold.Chemscore.Lipo.Weighted>
-5.5983

> <Gold.Chemscore.Internal_Hbond.Weighted>
0.0000

> <Gold.Chemscore.DEClash.Weighted>
0.0291

> <Gold.Chemscore.DEInternal.Weighted>
3.3574

> <Gold.Chemscore.Rot.Weighted>
5.2071

> <Gold.Chemscore.Internal.Correction.Weighted>
   9.000000E+99

> <Gold.Protein.RotatedTorsions>
[ 6907 6896 6895 6894 ] final -147.96 input  -60.11 | X-H torsion
[ 7974 7965 7964 7962 ] final  174.40 input  175.53 | X-H torsion
[ 8008 7997 7996 7995 ] final -107.16 input   59.86 | X-H torsion
[ 10167 10162 10161 10158 ] final -146.91 input  -65.29 | X-H torsion
[ 10718 10713 10712 10709 ] final   11.43 input   66.30 | X-H torsion
[ 10763 10752 10751 10750 ] final  -57.60 input  -60.55 | X-H torsion
[ 11005 11000 10999 10996 ] final   99.19 input  -57.11 | X-H torsion

> <Gold.Protein.ActiveResidues>
 VAL166  LYS551  ARG553  GLY616  TRP617  ASP618  TYR619  PRO620  LYS621  CYS622 
 ASP623  PHE694  ASN695  SER759  ASP760  ASP761  ALA762  ILE779  LEU786  VAL792 
 PHE793  MET794  SER795  GLU796  ALA797  LYS798  CYS799  TRP800  GLU811  SER814 

> <Gold.Protein.RotatedAtoms>
  151.1630  133.4833  159.2593 H   0  0  0  0  0  0  0  0  0  0  0  0  # atno 6907 bound_to 6896
  151.1435  135.0191  159.8646 H   0  0  0  0  0  0  0  0  0  0  0  0  # atno 6908 bound_to 6896
  152.5463  134.1521  159.8576 H   0  0  0  0  0  0  0  0  0  0  0  0  # atno 6909 bound_to 6896
  144.7222  139.9792  143.6438 H   0  0  0  0  0  0  0  0  0  0  0  0  # atno 7974 bound_to 7965
  154.9252  140.0406  157.2019 H   0  0  0  0  0  0  0  0  0  0  0  0  # atno 8008 bound_to 7997
  154.8214  140.2884  155.5762 H   0  0  0  0  0  0  0  0  0  0  0  0  # atno 8009 bound_to 7997
  156.2980  140.2518  156.3122 H   0  0  0  0  0  0  0  0  0  0  0  0  # atno 8010 bound_to 7997
  139.7670  143.8293  152.2618 H   0  0  0  0  0  0  0  0  0  0  0  0  # atno 10167 bound_to 10162
  156.9955  130.6059  149.5690 H   0  0  0  0  0  0  0  0  0  0  0  0  # atno 10718 bound_to 10713
  154.2249  135.6371  153.5156 H   0  0  0  0  0  0  0  0  0  0  0  0  # atno 10763 bound_to 10752
  152.9961  135.5505  154.6074 H   0  0  0  0  0  0  0  0  0  0  0  0  # atno 10764 bound_to 10752
  154.5544  135.2904  155.0953 H   0  0  0  0  0  0  0  0  0  0  0  0  # atno 10765 bound_to 10752
  139.8771  134.9084  156.4569 H   0  0  0  0  0  0  0  0  0  0  0  0  # atno 11005 bound_to 11000
  146.0501  139.3503  143.0644 LP  0  0  0  0  0  0  0  0  0  0  0  0  # atno 17320 bound_to 7965
  145.8225  140.9672  143.0891 LP  0  0  0  0  0  0  0  0  0  0  0  0  # atno 17321 bound_to 7965
  139.8316  144.7251  150.9443 LP  0  0  0  0  0  0  0  0  0  0  0  0  # atno 17342 bound_to 10162
  140.7811  143.4064  151.1064 LP  0  0  0  0  0  0  0  0  0  0  0  0  # atno 17343 bound_to 10162
  156.0191  130.5285  150.8222 LP  0  0  0  0  0  0  0  0  0  0  0  0  # atno 17370 bound_to 10713
  157.5428  131.0941  150.9804 LP  0  0  0  0  0  0  0  0  0  0  0  0  # atno 17371 bound_to 10713
  140.8892  133.7861  155.9552 LP  0  0  0  0  0  0  0  0  0  0  0  0  # atno 17394 bound_to 11000
  140.8772  134.2655  157.5162 LP  0  0  0  0  0  0  0  0  0  0  0  0  # atno 17395 bound_to 11000

$$$$
