AV-unprocessed.smi:817|AV-procd|sdf|3829|dock5
  -GOLD-   22720 1273D 1   1.00000     0.00000
 Structure written by MMmdl.
 48 49  0  0  0  0  0  0  0  0  2 V2000
  148.0109  141.3321  157.1940 C   0  0  0  0  0  0  0  0  0  0  0  0
  147.7146  140.4176  155.9963 C   0  0  1  0  0  0  0  0  0  0  0  0
  147.3668  141.2413  154.7440 C   0  0  0  0  0  0  0  0  0  0  0  0
  147.1185  140.3446  153.5236 C   0  0  0  0  0  0  0  0  0  0  0  0
  148.3077  139.4039  153.2517 C   0  0  0  0  0  0  0  0  0  0  0  0
  148.7037  138.5277  154.4765 C   0  0  1  0  0  0  0  0  0  0  0  0
  147.5552  137.5214  154.7991 C   0  0  0  0  0  0  0  0  0  0  0  0
  147.4163  136.4851  153.7733 N   0  0  0  0  0  0  0  0  0  0  0  0
  146.3567  135.6883  153.5528 C   0  0  0  0  0  0  0  0  0  0  0  0
  145.3398  135.7867  154.2347 O   0  0  0  0  0  0  0  0  0  0  0  0
  146.5219  134.8254  152.5311 N   0  0  0  0  0  0  0  0  0  0  0  0
  145.6259  133.8371  152.0408 C   0  0  0  0  0  0  0  0  0  0  0  0
  146.0808  132.9964  151.0041 C   0  0  0  0  0  0  0  0  0  0  0  0
  145.2268  131.9944  150.5064 C   0  0  0  0  0  0  0  0  0  0  0  0
  143.9443  131.8661  151.0731 C   0  0  0  0  0  0  0  0  0  0  0  0
  143.4965  132.6526  152.0741 N   0  0  0  0  0  0  0  0  0  0  0  0
  144.3206  133.6130  152.5460 C   0  0  0  0  0  0  0  0  0  0  0  0
  149.9627  137.7374  154.1957 N   0  3  0  0  0  0  0  0  0  0  0  0
  151.1529  138.5455  153.8195 C   0  0  0  0  0  0  0  0  0  0  0  0
  150.3389  136.7101  155.2020 C   0  0  0  0  0  0  0  0  0  0  0  0
  148.9078  139.4828  155.6996 C   0  0  0  0  0  0  0  0  0  0  0  0
  148.8631  141.9837  156.9978 H   0  0  0  0  0  0  0  0  0  0  0  0
  148.2372  140.7490  158.0872 H   0  0  0  0  0  0  0  0  0  0  0  0
  147.1545  141.9665  157.4245 H   0  0  0  0  0  0  0  0  0  0  0  0
  146.8454  139.8218  156.2718 H   0  0  0  0  0  0  0  0  0  0  0  0
  146.4850  141.8552  154.9325 H   0  0  0  0  0  0  0  0  0  0  0  0
  148.1800  141.9335  154.5214 H   0  0  0  0  0  0  0  0  0  0  0  0
  146.2046  139.7684  153.6679 H   0  0  0  0  0  0  0  0  0  0  0  0
  146.9407  140.9678  152.6467 H   0  0  0  0  0  0  0  0  0  0  0  0
  148.0557  138.7795  152.3945 H   0  0  0  0  0  0  0  0  0  0  0  0
  149.1568  140.0134  152.9414 H   0  0  0  0  0  0  0  0  0  0  0  0
  147.7055  137.0304  155.7585 H   0  0  0  0  0  0  0  0  0  0  0  0
  146.6065  138.0464  154.9078 H   0  0  0  0  0  0  0  0  0  0  0  0
  148.2131  136.3466  153.1690 H   0  0  0  0  0  0  0  0  0  0  0  0
  147.3833  134.9173  152.0131 H   0  0  0  0  0  0  0  0  0  0  0  0
  147.0717  133.1174  150.5908 H   0  0  0  0  0  0  0  0  0  0  0  0
  145.5475  131.3392  149.7100 H   0  0  0  0  0  0  0  0  0  0  0  0
  143.2624  131.1082  150.7164 H   0  0  0  0  0  0  0  0  0  0  0  0
  143.9128  134.1897  153.3606 H   0  0  0  0  0  0  0  0  0  0  0  0
  151.5413  139.1062  154.6701 H   0  0  0  0  0  0  0  0  0  0  0  0
  150.9514  139.2429  153.0089 H   0  0  0  0  0  0  0  0  0  0  0  0
  151.9532  137.8934  153.4683 H   0  0  0  0  0  0  0  0  0  0  0  0
  150.4338  137.1376  156.2001 H   0  0  0  0  0  0  0  0  0  0  0  0
  151.2952  136.2511  154.9483 H   0  0  0  0  0  0  0  0  0  0  0  0
  149.6181  135.8937  155.2326 H   0  0  0  0  0  0  0  0  0  0  0  0
  149.7539  140.1462  155.5238 H   0  0  0  0  0  0  0  0  0  0  0  0
  149.1571  138.9078  156.5923 H   0  0  0  0  0  0  0  0  0  0  0  0
  149.7447  137.2040  153.3660 H   0  0  0  0  0  0  0  0  0  0  0  0
  1  2  1  0  0  0  0
  1 22  1  0  0  0  0
  1 23  1  0  0  0  0
  1 24  1  0  0  0  0
  2 21  1  0  0  0  0
  2  3  1  0  0  0  0
  2 25  1  0  0  0  0
  3  4  1  0  0  0  0
  3 26  1  0  0  0  0
  3 27  1  0  0  0  0
  4  5  1  0  0  0  0
  4 28  1  0  0  0  0
  4 29  1  0  0  0  0
  5  6  1  0  0  0  0
  5 30  1  0  0  0  0
  5 31  1  0  0  0  0
  6  7  1  0  0  0  0
  6 18  1  0  0  0  0
  6 21  1  0  0  0  0
  7  8  1  0  0  0  0
  7 32  1  0  0  0  0
  7 33  1  0  0  0  0
  8  9  1  0  0  0  0
  8 34  1  0  0  0  0
  9 10  2  0  0  0  0
  9 11  1  0  0  0  0
 11 12  1  0  0  0  0
 11 35  1  0  0  0  0
 12 17  1  0  0  0  0
 12 13  2  0  0  0  0
 13 14  1  0  0  0  0
 13 36  1  0  0  0  0
 14 15  2  0  0  0  0
 14 37  1  0  0  0  0
 15 16  1  0  0  0  0
 15 38  1  0  0  0  0
 16 17  2  0  0  0  0
 17 39  1  0  0  0  0
 18 19  1  0  0  0  0
 18 20  1  0  0  0  0
 18 48  1  0  0  0  0
 19 40  1  0  0  0  0
 19 41  1  0  0  0  0
 19 42  1  0  0  0  0
 20 43  1  0  0  0  0
 20 44  1  0  0  0  0
 20 45  1  0  0  0  0
 21 46  1  0  0  0  0
 21 47  1  0  0  0  0
M  CHG  1  18   1
M  END
> <s_m_source_file>
AV-unprocessed.smi

> <i_m_source_file_index>
817

> <i_lp_mmshare_version>
43012

> <i_f3d_flags>
0

> <s_epik_input>
W0NIM11bQ0BASF0oW0NIMl0xKVtDSDJdW0NIMl1bQ0gyXVtDQF0xKE4oW0NIM10pW0NIM10pW0NIMl1bTkhdQyg9TylbTkhdYzJbY0hdW2NIXVtjSF1uW2NIXTI=

> <s_epik_cmdline>
J2VwaWtfcHl0aG9uJywgJy1waCcsICc3LjAnLCAnLXRuJywgJzgnLCAnLW1hJywgJzIwMCcsICctbWV0YWxfYmluZGluZycsICctaW1hZScsICc8aW5maWxlLm1hZT4nLCAnLW9tYWUnLCAnPG91dGZpbGUubWFlPic=

> <r_lp_tautomer_probability>
1

> <r_epik_Ionization_Penalty>
0.00584939

> <r_epik_Ionization_Penalty_Charging>
0.00160539

> <r_epik_Ionization_Penalty_Neutral>
0.004244

> <r_epik_State_Penalty>
-0

> <r_epik_Charging_Adjusted_Penalty>
0.00160539

> <i_epik_Tot_Q>
1

> <i_epik_Tot_abs_Q>
1

> <r_epik_Metal_State_Penalty>
-0

> <b_epik_Metal_Only>
0

> <s_lp_Force_Field>
OPLS_2005

> <r_lp_Energy>
49.3624

> <b_lp_Chiralities_Consistent>
1

> <s_lp_Variant>
AV-unprocessed.smi:817-2

> <Gold.Version>
5.8.1

> <Gold.Id.Protein>
6NUR|6NUR_protein|mol2

> <Gold.PLP.Fitness>
41.8893

> <Gold.PLP.PLP>
-28.0128

> <Gold.PLP.part.hbond>
-2.9364

> <Gold.PLP.part.metal>
0.0000

> <Gold.PLP.part.buried>
-2.6164

> <Gold.PLP.part.nonpolar>
-23.1996

> <Gold.PLP.part.repulsive>
0.3091

> <Gold.PLP.ligand.clash>
0.0000

> <Gold.PLP.ligand.torsion>
0.2449

> <Gold.PLP.Chemscore.Hbond>
3.7977

> <Gold.PLP.Chemscore.CHOScore>
0.9536

> <Gold.PLP.Chemscore.Metal>
0.0000

> <Gold.Chemscore.Hbonds>
donor molecule, donor type, donor heavy atom, donor atom, acceptor molecule, acceptor atom, score
      L1  H     8    34       P1  7948  0.94
      L1  H    11    35       P1  7948  0.80
      L1  H    18    48       P1  7948  2.00
      L1  C    15    38       P1 10952  0.32

> <Gold.PLP.Chemscore.Internal.Correction>
0.1125

> <Gold.Rescore>
     Score         DG    S(hbond)    S(metal)    S(lipo)     H(rot)  DE(clash)    DE(int)     intcor
     17.48     -20.20       2.76        0.00      78.52       1.44       1.32       1.41       ----

> <Gold.Chemscore.Fitness>
17.4781

> <Gold.Chemscore.DG>
-20.2023

> <Gold.Chemscore.ZeroCoef>
-5.4800

> <Gold.Chemscore.Hbond>
2.7615

> <Gold.Chemscore.Metal>
0.0000

> <Gold.Chemscore.Lipo>
78.5187

> <Gold.Chemscore.Internal_Hbond>
0.0000

> <Gold.Chemscore.DEClash>
1.3151

> <Gold.Chemscore.DEInternal>
1.4091

> <Gold.Chemscore.Rot>
1.4405

> <Gold.Chemscore.Internal.Correction>
   9.000000E+99

> <Gold.Chemscore.Hbonds>
donor molecule, donor type, donor heavy atom, donor atom, acceptor molecule, acceptor atom, score
      L1  H     8    34       P1  7948  0.89
      L1  H    11    35       P1  7948  0.69
      L1  H    18    48       P1  7948  0.60

> <Gold.Chemscore.Hbond.Weighted>
-9.2234

> <Gold.Chemscore.Metal.Weighted>
-0.0000

> <Gold.Chemscore.Lipo.Weighted>
-9.1867

> <Gold.Chemscore.Internal_Hbond.Weighted>
0.0000

> <Gold.Chemscore.DEClash.Weighted>
1.3151

> <Gold.Chemscore.DEInternal.Weighted>
1.4091

> <Gold.Chemscore.Rot.Weighted>
3.6878

> <Gold.Chemscore.Internal.Correction.Weighted>
   9.000000E+99

> <Gold.Protein.RotatedTorsions>
[ 6907 6896 6895 6894 ] final   78.62 input  -60.11 | X-H torsion
[ 7974 7965 7964 7962 ] final  106.24 input  175.53 | X-H torsion
[ 8008 7997 7996 7995 ] final   69.96 input   59.86 | X-H torsion
[ 10167 10162 10161 10158 ] final  153.43 input  -65.29 | X-H torsion
[ 10718 10713 10712 10709 ] final   83.93 input   66.30 | X-H torsion
[ 10763 10752 10751 10750 ] final   69.61 input  -60.55 | X-H torsion
[ 11005 11000 10999 10996 ] final   28.58 input  -57.11 | X-H torsion

> <Gold.Protein.ActiveResidues>
 VAL166  LYS551  ARG553  GLY616  TRP617  ASP618  TYR619  PRO620  LYS621  CYS622 
 ASP623  PHE694  ASN695  SER759  ASP760  ASP761  ALA762  ILE779  LEU786  VAL792 
 PHE793  MET794  SER795  GLU796  ALA797  LYS798  CYS799  TRP800  GLU811  SER814 

> <Gold.Protein.RotatedAtoms>
  152.5167  134.3636  159.9293 H   0  0  0  0  0  0  0  0  0  0  0  0  # atno 6907 bound_to 6896
  151.3588  133.3891  159.2695 H   0  0  0  0  0  0  0  0  0  0  0  0  # atno 6908 bound_to 6896
  150.9668  134.9066  159.7822 H   0  0  0  0  0  0  0  0  0  0  0  0  # atno 6909 bound_to 6896
  145.3092  139.2545  143.3772 H   0  0  0  0  0  0  0  0  0  0  0  0  # atno 7974 bound_to 7965
  155.7316  140.3492  155.5062 H   0  0  0  0  0  0  0  0  0  0  0  0  # atno 8008 bound_to 7997
  155.9177  140.1061  157.1252 H   0  0  0  0  0  0  0  0  0  0  0  0  # atno 8009 bound_to 7997
  154.4065  140.1255  156.4626 H   0  0  0  0  0  0  0  0  0  0  0  0  # atno 8010 bound_to 7997
  139.4827  144.5273  151.7779 H   0  0  0  0  0  0  0  0  0  0  0  0  # atno 10167 bound_to 10162
  157.6888  131.0112  150.2597 H   0  0  0  0  0  0  0  0  0  0  0  0  # atno 10718 bound_to 10713
  153.0296  135.5204  154.7315 H   0  0  0  0  0  0  0  0  0  0  0  0  # atno 10763 bound_to 10752
  154.6341  135.2904  155.0184 H   0  0  0  0  0  0  0  0  0  0  0  0  # atno 10764 bound_to 10752
  154.1125  135.6620  153.4940 H   0  0  0  0  0  0  0  0  0  0  0  0  # atno 10765 bound_to 10752
  140.3141  134.2617  155.7729 H   0  0  0  0  0  0  0  0  0  0  0  0  # atno 11005 bound_to 11000
  146.3124  140.3624  142.8666 LP  0  0  0  0  0  0  0  0  0  0  0  0  # atno 17320 bound_to 7965
  144.9030  140.7665  143.5855 LP  0  0  0  0  0  0  0  0  0  0  0  0  # atno 17321 bound_to 7965
  140.4795  144.1470  150.5930 LP  0  0  0  0  0  0  0  0  0  0  0  0  # atno 17342 bound_to 10162
  140.4293  143.2575  151.9615 LP  0  0  0  0  0  0  0  0  0  0  0  0  # atno 17343 bound_to 10162
  156.3179  130.3781  149.7602 LP  0  0  0  0  0  0  0  0  0  0  0  0  # atno 17370 bound_to 10713
  156.5181  130.8202  151.3194 LP  0  0  0  0  0  0  0  0  0  0  0  0  # atno 17371 bound_to 10713
  141.2101  133.7728  156.9950 LP  0  0  0  0  0  0  0  0  0  0  0  0  # atno 17394 bound_to 11000
  140.0999  134.9542  157.1907 LP  0  0  0  0  0  0  0  0  0  0  0  0  # atno 17395 bound_to 11000

$$$$
