AV-unprocessed.smi:2658|AV-procd|sdf|10311|dock4
  -GOLD-   2272014333D 1   1.00000     0.00000
 Structure written by MMmdl.
 47 49  0  0  0  0  0  0  0  0  2 V2000
  152.2021  144.1280  161.5532 C   0  0  0  0  0  0  0  0  0  0  0  0
  152.0995  143.2735  160.3012 C   0  0  0  0  0  0  0  0  0  0  0  0
  151.2796  143.7243  159.2420 C   0  0  0  0  0  0  0  0  0  0  0  0
  151.2067  142.9212  158.1102 C   0  0  0  0  0  0  0  0  0  0  0  0
  150.5014  143.0865  156.9162 N   0  3  0  0  0  0  0  0  0  0  0  0
  150.7431  142.0272  156.0954 C   0  0  0  0  0  0  0  0  0  0  0  0
  151.5914  141.1870  156.7477 N   0  0  0  0  0  0  0  0  0  0  0  0
  152.1572  139.9020  156.3113 C   0  0  0  0  0  0  0  0  0  0  0  0
  151.0944  138.9323  155.7568 C   0  0  1  0  0  0  0  0  0  0  0  0
  150.8843  139.2021  154.3846 O   0  0  0  0  0  0  0  0  0  0  0  0
  151.5317  137.4665  155.9031 C   0  0  0  0  0  0  0  0  0  0  0  0
  150.5425  136.6274  155.3135 O   0  0  0  0  0  0  0  0  0  0  0  0
  150.5300  135.2902  155.6530 C   0  0  0  0  0  0  0  0  0  0  0  0
  150.0114  134.3594  154.7331 C   0  0  0  0  0  0  0  0  0  0  0  0
  150.0051  133.0021  155.1055 C   0  0  0  0  0  0  0  0  0  0  0  0
  149.4602  131.9423  154.1668 C   0  0  0  0  0  0  0  0  0  0  0  0
  150.5231  132.6816  156.3804 C   0  0  0  0  0  0  0  0  0  0  0  0
  150.5663  131.2524  156.8881 C   0  0  0  0  0  0  0  0  0  0  0  0
  151.0112  133.6230  157.2217 N   0  0  0  0  0  0  0  0  0  0  0  0
  151.0149  134.9109  156.8638 N   0  0  0  0  0  0  0  0  0  0  0  0
  151.9107  141.7054  158.0087 C   0  0  0  0  0  0  0  0  0  0  0  0
  152.7240  141.2479  159.0429 C   0  0  0  0  0  0  0  0  0  0  0  0
  152.8137  142.0516  160.2019 C   0  0  0  0  0  0  0  0  0  0  0  0
  153.6963  141.5786  161.3446 C   0  0  0  0  0  0  0  0  0  0  0  0
  151.6108  145.0398  161.4642 H   0  0  0  0  0  0  0  0  0  0  0  0
  153.2369  144.4192  161.7352 H   0  0  0  0  0  0  0  0  0  0  0  0
  151.8385  143.5784  162.4219 H   0  0  0  0  0  0  0  0  0  0  0  0
  150.7341  144.6543  159.3096 H   0  0  0  0  0  0  0  0  0  0  0  0
  150.3343  141.8790  155.1063 H   0  0  0  0  0  0  0  0  0  0  0  0
  152.9483  140.0830  155.5833 H   0  0  0  0  0  0  0  0  0  0  0  0
  152.6423  139.4586  157.1816 H   0  0  0  0  0  0  0  0  0  0  0  0
  150.1586  139.0903  156.2945 H   0  0  0  0  0  0  0  0  0  0  0  0
  151.2152  138.4723  153.8830 H   0  0  0  0  0  0  0  0  0  0  0  0
  152.5158  137.3066  155.4582 H   0  0  0  0  0  0  0  0  0  0  0  0
  151.6052  137.2185  156.9636 H   0  0  0  0  0  0  0  0  0  0  0  0
  149.6304  134.6819  153.7752 H   0  0  0  0  0  0  0  0  0  0  0  0
  148.6048  131.4386  154.6173 H   0  0  0  0  0  0  0  0  0  0  0  0
  150.2251  131.1972  153.9473 H   0  0  0  0  0  0  0  0  0  0  0  0
  149.1354  132.3805  153.2226 H   0  0  0  0  0  0  0  0  0  0  0  0
  151.2183  130.6467  156.2587 H   0  0  0  0  0  0  0  0  0  0  0  0
  149.5688  130.8129  156.8769 H   0  0  0  0  0  0  0  0  0  0  0  0
  150.9430  131.2030  157.9106 H   0  0  0  0  0  0  0  0  0  0  0  0
  153.2731  140.3212  158.9661 H   0  0  0  0  0  0  0  0  0  0  0  0
  154.1695  140.6235  161.1145 H   0  0  0  0  0  0  0  0  0  0  0  0
  153.1095  141.4488  162.2542 H   0  0  0  0  0  0  0  0  0  0  0  0
  154.4871  142.3025  161.5417 H   0  0  0  0  0  0  0  0  0  0  0  0
  149.8991  143.8637  156.6768 H   0  0  0  0  0  0  0  0  0  0  0  0
  1  2  1  0  0  0  0
  1 25  1  0  0  0  0
  1 26  1  0  0  0  0
  1 27  1  0  0  0  0
  2 23  1  0  0  0  0
  2  3  2  0  0  0  0
  3  4  1  0  0  0  0
  3 28  1  0  0  0  0
  4 21  2  0  0  0  0
  4  5  1  0  0  0  0
  5  6  2  0  0  0  0
  5 47  1  0  0  0  0
  6  7  1  0  0  0  0
  6 29  1  0  0  0  0
  7  8  1  0  0  0  0
  7 21  1  0  0  0  0
  8  9  1  0  0  0  0
  8 30  1  0  0  0  0
  8 31  1  0  0  0  0
  9 10  1  0  0  0  0
  9 11  1  0  0  0  0
  9 32  1  0  0  0  0
 10 33  1  0  0  0  0
 11 12  1  0  0  0  0
 11 34  1  0  0  0  0
 11 35  1  0  0  0  0
 12 13  1  0  0  0  0
 13 20  1  0  0  0  0
 13 14  2  0  0  0  0
 14 15  1  0  0  0  0
 14 36  1  0  0  0  0
 15 16  1  0  0  0  0
 15 17  2  0  0  0  0
 16 37  1  0  0  0  0
 16 38  1  0  0  0  0
 16 39  1  0  0  0  0
 17 18  1  0  0  0  0
 17 19  1  0  0  0  0
 18 40  1  0  0  0  0
 18 41  1  0  0  0  0
 18 42  1  0  0  0  0
 19 20  2  0  0  0  0
 21 22  1  0  0  0  0
 22 23  2  0  0  0  0
 22 43  1  0  0  0  0
 23 24  1  0  0  0  0
 24 44  1  0  0  0  0
 24 45  1  0  0  0  0
 24 46  1  0  0  0  0
M  CHG  1   5   1
M  END
> <s_m_source_file>
AV-unprocessed.smi

> <i_m_source_file_index>
2658

> <i_lp_mmshare_version>
43012

> <i_f3d_flags>
0

> <s_epik_input>
W0NIM11jKFtjSF0xKWMoW0NIM10pW2NIXWMoYzEyKW4oW2NIXW4yKVtDSDJdW0NASF0oW09IXSlbQ0gyXU9jM1tjSF1jKFtDSDNdKWMoW0NIM10pbm4z

> <s_epik_cmdline>
J2VwaWtfcHl0aG9uJywgJy1waCcsICc3LjAnLCAnLXRuJywgJzgnLCAnLW1hJywgJzIwMCcsICctbWV0YWxfYmluZGluZycsICctaW1hZScsICc8aW5maWxlLm1hZT4nLCAnLW9tYWUnLCAnPG91dGZpbGUubWFlPic=

> <r_lp_tautomer_probability>
1

> <r_epik_Ionization_Penalty>
1.0494

> <r_epik_Ionization_Penalty_Charging>
1.04926

> <r_epik_Ionization_Penalty_Neutral>
0.000140304

> <r_epik_State_Penalty>
1.10197

> <r_epik_Charging_Adjusted_Penalty>
2.15123

> <i_epik_Tot_Q>
1

> <i_epik_Tot_abs_Q>
1

> <r_epik_Metal_State_Penalty>
1.19636

> <b_epik_Metal_Only>
0

> <s_lp_Force_Field>
OPLS_2005

> <r_lp_Energy>
21.0246

> <b_lp_Chiralities_Consistent>
1

> <s_lp_Variant>
AV-unprocessed.smi:2658-4

> <Gold.Version>
5.8.1

> <Gold.Id.Protein>
6NUR|6NUR_protein|mol2

> <Gold.PLP.Fitness>
58.4952

> <Gold.PLP.PLP>
-49.0863

> <Gold.PLP.part.hbond>
-3.3975

> <Gold.PLP.part.metal>
0.0000

> <Gold.PLP.part.buried>
-6.7509

> <Gold.PLP.part.nonpolar>
-37.9838

> <Gold.PLP.part.repulsive>
0.1427

> <Gold.PLP.ligand.clash>
0.0000

> <Gold.PLP.ligand.torsion>
0.8469

> <Gold.PLP.Chemscore.Hbond>
3.6560

> <Gold.PLP.Chemscore.CHOScore>
0.0000

> <Gold.PLP.Chemscore.Metal>
0.0000

> <Gold.Chemscore.Hbonds>
donor molecule, donor type, donor heavy atom, donor atom, acceptor molecule, acceptor atom, score
      L1  H     5    47       P1  8028  2.00
      P1  H  6896  6908       L1    19  0.66
      P1  H  7989  7998       L1    10  1.00

> <Gold.PLP.Chemscore.Internal.Correction>
0.1348

> <Gold.Rescore>
     Score         DG    S(hbond)    S(metal)    S(lipo)     H(rot)  DE(clash)    DE(int)     intcor
     20.43     -21.67       2.32        0.00     126.30       2.47       0.49       0.74       ----

> <Gold.Chemscore.Fitness>
20.4345

> <Gold.Chemscore.DG>
-21.6711

> <Gold.Chemscore.ZeroCoef>
-5.4800

> <Gold.Chemscore.Hbond>
2.3154

> <Gold.Chemscore.Metal>
0.0000

> <Gold.Chemscore.Lipo>
126.2984

> <Gold.Chemscore.Internal_Hbond>
0.0000

> <Gold.Chemscore.DEClash>
0.4949

> <Gold.Chemscore.DEInternal>
0.7417

> <Gold.Chemscore.Rot>
2.4685

> <Gold.Chemscore.Internal.Correction>
   9.000000E+99

> <Gold.Chemscore.Hbonds>
donor molecule, donor type, donor heavy atom, donor atom, acceptor molecule, acceptor atom, score
      L1  H     5    47       P1  8028  0.98
      P1  H  6896  6908       L1    19  0.48
      P1  H  7989  7998       L1    10  0.46

> <Gold.Chemscore.Hbond.Weighted>
-7.7335

> <Gold.Chemscore.Metal.Weighted>
-0.0000

> <Gold.Chemscore.Lipo.Weighted>
-14.7769

> <Gold.Chemscore.Internal_Hbond.Weighted>
0.0000

> <Gold.Chemscore.DEClash.Weighted>
0.4949

> <Gold.Chemscore.DEInternal.Weighted>
0.7417

> <Gold.Chemscore.Rot.Weighted>
6.3194

> <Gold.Chemscore.Internal.Correction.Weighted>
   9.000000E+99

> <Gold.Protein.RotatedTorsions>
[ 6907 6896 6895 6894 ] final   89.66 input  -60.11 | X-H torsion
[ 7974 7965 7964 7962 ] final   37.67 input  175.53 | X-H torsion
[ 8008 7997 7996 7995 ] final  127.57 input   59.86 | X-H torsion
[ 10167 10162 10161 10158 ] final -178.15 input  -65.29 | X-H torsion
[ 10718 10713 10712 10709 ] final  142.03 input   66.30 | X-H torsion
[ 10763 10752 10751 10750 ] final  -93.62 input  -60.55 | X-H torsion
[ 11005 11000 10999 10996 ] final  -79.96 input  -57.11 | X-H torsion

> <Gold.Protein.ActiveResidues>
 VAL166  LYS551  ARG553  GLY616  TRP617  ASP618  TYR619  PRO620  LYS621  CYS622 
 ASP623  PHE694  ASN695  SER759  ASP760  ASP761  ALA762  ILE779  LEU786  VAL792 
 PHE793  MET794  SER795  GLU796  ALA797  LYS798  CYS799  TRP800  GLU811  SER814 

> <Gold.Protein.RotatedAtoms>
  152.5438  134.1932  159.8682 H   0  0  0  0  0  0  0  0  0  0  0  0  # atno 6907 bound_to 6896
  151.1926  133.4651  159.2602 H   0  0  0  0  0  0  0  0  0  0  0  0  # atno 6908 bound_to 6896
  151.1068  135.0016  159.8530 H   0  0  0  0  0  0  0  0  0  0  0  0  # atno 6909 bound_to 6896
  146.1120  139.5865  142.9346 H   0  0  0  0  0  0  0  0  0  0  0  0  # atno 7974 bound_to 7965
  156.2894  140.2665  156.2295 H   0  0  0  0  0  0  0  0  0  0  0  0  # atno 8008 bound_to 7997
  155.0087  140.0387  157.2408 H   0  0  0  0  0  0  0  0  0  0  0  0  # atno 8009 bound_to 7997
  154.7537  140.2748  155.6276 H   0  0  0  0  0  0  0  0  0  0  0  0  # atno 8010 bound_to 7997
  139.5446  144.2270  152.0963 H   0  0  0  0  0  0  0  0  0  0  0  0  # atno 10167 bound_to 10162
  157.3853  131.0997  151.0699 H   0  0  0  0  0  0  0  0  0  0  0  0  # atno 10718 bound_to 10713
  154.6976  135.5188  153.8481 H   0  0  0  0  0  0  0  0  0  0  0  0  # atno 10763 bound_to 10752
  153.0679  135.6591  154.0321 H   0  0  0  0  0  0  0  0  0  0  0  0  # atno 10764 bound_to 10752
  154.0186  135.2995  155.3363 H   0  0  0  0  0  0  0  0  0  0  0  0  # atno 10765 bound_to 10752
  141.1668  133.7129  156.8202 H   0  0  0  0  0  0  0  0  0  0  0  0  # atno 11005 bound_to 11000
  145.5644  141.0401  143.2208 LP  0  0  0  0  0  0  0  0  0  0  0  0  # atno 17320 bound_to 7965
  144.7520  139.7171  143.7269 LP  0  0  0  0  0  0  0  0  0  0  0  0  # atno 17321 bound_to 7965
  140.1754  144.4895  150.6557 LP  0  0  0  0  0  0  0  0  0  0  0  0  # atno 17342 bound_to 10162
  140.6689  143.2278  151.5673 LP  0  0  0  0  0  0  0  0  0  0  0  0  # atno 17343 bound_to 10162
  157.1753  130.6285  149.5654 LP  0  0  0  0  0  0  0  0  0  0  0  0  # atno 17370 bound_to 10713
  155.9785  130.4771  150.6660 LP  0  0  0  0  0  0  0  0  0  0  0  0  # atno 17371 bound_to 10713
  140.2125  134.8817  157.3290 LP  0  0  0  0  0  0  0  0  0  0  0  0  # atno 17394 bound_to 11000
  140.2072  134.4183  155.7631 LP  0  0  0  0  0  0  0  0  0  0  0  0  # atno 17395 bound_to 11000

$$$$
