AV-unprocessed.smi:1406|AV-procd|sdf|5711|dock1
  -GOLD-   22720 5343D 1   1.00000     0.00000
 Structure written by MMmdl.
 41 43  0  0  0  0  0  0  0  0  2 V2000
  152.8003  138.5396  156.8917 C   0  0  0  0  0  0  0  0  0  0  0  0
  151.9805  138.6966  155.5947 C   0  0  2  0  0  0  0  0  0  0  0  0
  151.1507  139.9892  155.5646 C   0  0  0  0  0  0  0  0  0  0  0  0
  150.6095  140.3710  154.5265 O   0  0  0  0  0  0  0  0  0  0  0  0
  151.0862  140.6762  156.7158 N   0  0  0  0  0  0  0  0  0  0  0  0
  150.4676  141.9894  156.8679 C   0  0  1  0  0  0  0  0  0  0  0  0
  149.2646  141.9861  157.8209 C   0  0  0  0  0  0  0  0  0  0  0  0
  149.2810  143.3704  158.4946 C   0  0  0  0  0  0  0  0  0  0  0  0
  150.4559  144.0826  157.9448 N   0  3  1  0  0  0  0  0  0  0  0  0
  151.0348  145.1576  158.7907 C   0  0  0  0  0  0  0  0  0  0  0  0
  151.9136  144.6106  159.9281 C   0  0  0  0  0  0  0  0  0  0  0  0
  152.9877  143.6678  159.3761 C   0  0  0  0  0  0  0  0  0  0  0  0
  152.3209  142.5252  158.6035 C   0  0  0  0  0  0  0  0  0  0  0  0
  151.4053  143.0528  157.4673 C   0  0  1  0  0  0  0  0  0  0  0  0
  151.1133  137.5504  155.3471 N   0  0  0  0  0  0  0  0  0  0  0  0
  149.7850  137.4900  155.2280 C   0  0  0  0  0  0  0  0  0  0  0  0
  149.3129  136.2616  155.0720 N   0  0  0  0  0  0  0  0  0  0  0  0
  150.4844  135.5603  155.1105 C   0  0  0  0  0  0  0  0  0  0  0  0
  151.5905  136.2819  155.2895 N   0  0  0  0  0  0  0  0  0  0  0  0
  153.4862  139.3765  157.0259 H   0  0  0  0  0  0  0  0  0  0  0  0
  153.3989  137.6286  156.8641 H   0  0  0  0  0  0  0  0  0  0  0  0
  152.1647  138.4884  157.7769 H   0  0  0  0  0  0  0  0  0  0  0  0
  152.6903  138.7464  154.7673 H   0  0  0  0  0  0  0  0  0  0  0  0
  151.5482  140.2896  157.5263 H   0  0  0  0  0  0  0  0  0  0  0  0
  150.1217  142.3379  155.8922 H   0  0  0  0  0  0  0  0  0  0  0  0
  148.3317  141.7996  157.2880 H   0  0  0  0  0  0  0  0  0  0  0  0
  149.3690  141.2093  158.5799 H   0  0  0  0  0  0  0  0  0  0  0  0
  148.3712  143.9356  158.2903 H   0  0  0  0  0  0  0  0  0  0  0  0
  149.3651  143.2553  159.5758 H   0  0  0  0  0  0  0  0  0  0  0  0
  151.6412  145.7967  158.1480 H   0  0  0  0  0  0  0  0  0  0  0  0
  150.2368  145.7866  159.1868 H   0  0  0  0  0  0  0  0  0  0  0  0
  152.3840  145.4371  160.4618 H   0  0  0  0  0  0  0  0  0  0  0  0
  151.2997  144.0839  160.6595 H   0  0  0  0  0  0  0  0  0  0  0  0
  153.6662  144.2152  158.7206 H   0  0  0  0  0  0  0  0  0  0  0  0
  153.5920  143.2674  160.1906 H   0  0  0  0  0  0  0  0  0  0  0  0
  153.0913  141.8710  158.1937 H   0  0  0  0  0  0  0  0  0  0  0  0
  151.7443  141.9167  159.3013 H   0  0  0  0  0  0  0  0  0  0  0  0
  152.0320  143.4888  156.6878 H   0  0  0  0  0  0  0  0  0  0  0  0
  149.1491  138.3621  155.2679 H   0  0  0  0  0  0  0  0  0  0  0  0
  150.5226  134.4851  155.0149 H   0  0  0  0  0  0  0  0  0  0  0  0
  150.1127  144.5365  157.1100 H   0  0  0  0  0  0  0  0  0  0  0  0
  1  2  1  0  0  0  0
  1 20  1  0  0  0  0
  1 21  1  0  0  0  0
  1 22  1  0  0  0  0
  2  3  1  0  0  0  0
  2 15  1  0  0  0  0
  2 23  1  0  0  0  0
  3  4  2  0  0  0  0
  3  5  1  0  0  0  0
  5  6  1  0  0  0  0
  5 24  1  0  0  0  0
  6 14  1  0  0  0  0
  6  7  1  0  0  0  0
  6 25  1  0  0  0  0
  7  8  1  0  0  0  0
  7 26  1  0  0  0  0
  7 27  1  0  0  0  0
  8  9  1  0  0  0  0
  8 28  1  0  0  0  0
  8 29  1  0  0  0  0
  9 14  1  0  0  0  0
  9 10  1  0  0  0  0
  9 41  1  0  0  0  0
 10 11  1  0  0  0  0
 10 30  1  0  0  0  0
 10 31  1  0  0  0  0
 11 12  1  0  0  0  0
 11 32  1  0  0  0  0
 11 33  1  0  0  0  0
 12 13  1  0  0  0  0
 12 34  1  0  0  0  0
 12 35  1  0  0  0  0
 13 14  1  0  0  0  0
 13 36  1  0  0  0  0
 13 37  1  0  0  0  0
 14 38  1  0  0  0  0
 15 19  1  0  0  0  0
 15 16  1  0  0  0  0
 16 17  2  0  0  0  0
 16 39  1  0  0  0  0
 17 18  1  0  0  0  0
 18 19  2  0  0  0  0
 18 40  1  0  0  0  0
M  CHG  1   9   1
M  END
> <s_m_source_file>
AV-unprocessed.smi

> <i_m_source_file_index>
1406

> <i_lp_mmshare_version>
43012

> <i_f3d_flags>
0

> <s_epik_input>
bjFbY0hdbltjSF1uMVtDQEhdKFtDSDNdKUMoPU8pW05IXVtDQEhdKFtDSDJdW0NIMl0yKVtDQEBIXShOMjMpW0NIMl1bQ0gyXVtDSDJdW0NIMl0z

> <s_epik_cmdline>
J2VwaWtfcHl0aG9uJywgJy1waCcsICc3LjAnLCAnLXRuJywgJzgnLCAnLW1hJywgJzIwMCcsICctbWV0YWxfYmluZGluZycsICctaW1hZScsICc8aW5maWxlLm1hZT4nLCAnLW9tYWUnLCAnPG91dGZpbGUubWFlPic=

> <r_lp_tautomer_probability>
1

> <r_epik_Ionization_Penalty>
0.00197066

> <r_epik_Ionization_Penalty_Charging>
0.00196223

> <r_epik_Ionization_Penalty_Neutral>
8.43107e-06

> <r_epik_State_Penalty>
0.00133866

> <r_epik_Charging_Adjusted_Penalty>
0.00330089

> <i_epik_Tot_Q>
1

> <i_epik_Tot_abs_Q>
1

> <r_epik_Metal_State_Penalty>
-0

> <b_epik_Metal_Only>
0

> <s_lp_Force_Field>
OPLS_2005

> <r_lp_Energy>
41.142

> <b_lp_Chiralities_Consistent>
1

> <s_lp_Variant>
AV-unprocessed.smi:1406-3

> <Gold.Version>
5.8.1

> <Gold.Id.Protein>
6NUR|6NUR_protein|mol2

> <Gold.PLP.Fitness>
47.7455

> <Gold.PLP.PLP>
-36.1786

> <Gold.PLP.part.hbond>
-3.3072

> <Gold.PLP.part.metal>
0.0000

> <Gold.PLP.part.buried>
-4.8943

> <Gold.PLP.part.nonpolar>
-28.6898

> <Gold.PLP.part.repulsive>
0.5094

> <Gold.PLP.ligand.clash>
0.1877

> <Gold.PLP.ligand.torsion>
0.1762

> <Gold.PLP.Chemscore.Hbond>
4.0000

> <Gold.PLP.Chemscore.CHOScore>
0.0000

> <Gold.PLP.Chemscore.Metal>
0.0000

> <Gold.Chemscore.Hbonds>
donor molecule, donor type, donor heavy atom, donor atom, acceptor molecule, acceptor atom, score
      L1  H     9    41       P1  8028  2.00
      P1  H  7989  7998       L1     4  1.00
      P1  H 10752 10763       L1    19  1.00

> <Gold.PLP.Chemscore.Internal.Correction>
0.1071

> <Gold.Rescore>
     Score         DG    S(hbond)    S(metal)    S(lipo)     H(rot)  DE(clash)    DE(int)     intcor
     18.24     -18.90       2.48        0.00      85.23       1.89       0.07       0.58       ----

> <Gold.Chemscore.Fitness>
18.2401

> <Gold.Chemscore.DG>
-18.8969

> <Gold.Chemscore.ZeroCoef>
-5.4800

> <Gold.Chemscore.Hbond>
2.4774

> <Gold.Chemscore.Metal>
0.0000

> <Gold.Chemscore.Lipo>
85.2308

> <Gold.Chemscore.Internal_Hbond>
0.0000

> <Gold.Chemscore.DEClash>
0.0728

> <Gold.Chemscore.DEInternal>
0.5839

> <Gold.Chemscore.Rot>
1.8865

> <Gold.Chemscore.Internal.Correction>
   9.000000E+99

> <Gold.Chemscore.Hbonds>
donor molecule, donor type, donor heavy atom, donor atom, acceptor molecule, acceptor atom, score
      L1  H     9    41       P1  8028  0.54
      P1  H  7989  7998       L1     4  0.76
      P1  H 10752 10763       L1    19  0.85

> <Gold.Chemscore.Hbond.Weighted>
-8.2744

> <Gold.Chemscore.Metal.Weighted>
-0.0000

> <Gold.Chemscore.Lipo.Weighted>
-9.9720

> <Gold.Chemscore.Internal_Hbond.Weighted>
0.0000

> <Gold.Chemscore.DEClash.Weighted>
0.0728

> <Gold.Chemscore.DEInternal.Weighted>
0.5839

> <Gold.Chemscore.Rot.Weighted>
4.8295

> <Gold.Chemscore.Internal.Correction.Weighted>
   9.000000E+99

> <Gold.Protein.RotatedTorsions>
[ 6907 6896 6895 6894 ] final -179.08 input  -60.11 | X-H torsion
[ 7974 7965 7964 7962 ] final -152.99 input  175.53 | X-H torsion
[ 8008 7997 7996 7995 ] final  -50.73 input   59.86 | X-H torsion
[ 10167 10162 10161 10158 ] final    9.45 input  -65.29 | X-H torsion
[ 10718 10713 10712 10709 ] final  -78.17 input   66.30 | X-H torsion
[ 10763 10752 10751 10750 ] final   58.91 input  -60.55 | X-H torsion
[ 11005 11000 10999 10996 ] final   99.15 input  -57.11 | X-H torsion

> <Gold.Protein.ActiveResidues>
 VAL166  LYS551  ARG553  GLY616  TRP617  ASP618  TYR619  PRO620  LYS621  CYS622 
 ASP623  PHE694  ASN695  SER759  ASP760  ASP761  ALA762  ILE779  LEU786  VAL792 
 PHE793  MET794  SER795  GLU796  ALA797  LYS798  CYS799  TRP800  GLU811  SER814 

> <Gold.Protein.RotatedAtoms>
  151.6476  133.3322  159.3144 H   0  0  0  0  0  0  0  0  0  0  0  0  # atno 6907 bound_to 6896
  150.7976  134.7051  159.6582 H   0  0  0  0  0  0  0  0  0  0  0  0  # atno 6908 bound_to 6896
  152.4065  134.6202  160.0100 H   0  0  0  0  0  0  0  0  0  0  0  0  # atno 6909 bound_to 6896
  144.7764  140.4587  143.5870 H   0  0  0  0  0  0  0  0  0  0  0  0  # atno 7974 bound_to 7965
  154.4068  140.1265  156.4714 H   0  0  0  0  0  0  0  0  0  0  0  0  # atno 8008 bound_to 7997
  155.7175  140.3493  155.4981 H   0  0  0  0  0  0  0  0  0  0  0  0  # atno 8009 bound_to 7997
  155.9244  140.1058  157.1171 H   0  0  0  0  0  0  0  0  0  0  0  0  # atno 8010 bound_to 7997
  140.6254  143.8113  150.7226 H   0  0  0  0  0  0  0  0  0  0  0  0  # atno 10167 bound_to 10162
  156.0125  130.4511  150.3456 H   0  0  0  0  0  0  0  0  0  0  0  0  # atno 10718 bound_to 10713
  152.9882  135.5590  154.5629 H   0  0  0  0  0  0  0  0  0  0  0  0  # atno 10763 bound_to 10752
  154.5044  135.2799  155.1396 H   0  0  0  0  0  0  0  0  0  0  0  0  # atno 10764 bound_to 10752
  154.2813  135.6344  153.5401 H   0  0  0  0  0  0  0  0  0  0  0  0  # atno 10765 bound_to 10752
  139.8771  134.9082  156.4562 H   0  0  0  0  0  0  0  0  0  0  0  0  # atno 11005 bound_to 11000
  145.6173  139.1520  143.3042 LP  0  0  0  0  0  0  0  0  0  0  0  0  # atno 17320 bound_to 7965
  146.1946  140.6285  142.9130 LP  0  0  0  0  0  0  0  0  0  0  0  0  # atno 17321 bound_to 7965
  140.1712  143.4193  152.1999 LP  0  0  0  0  0  0  0  0  0  0  0  0  # atno 17342 bound_to 10162
  139.5475  144.7311  151.4537 LP  0  0  0  0  0  0  0  0  0  0  0  0  # atno 17343 bound_to 10162
  157.1550  131.0330  151.2867 LP  0  0  0  0  0  0  0  0  0  0  0  0  # atno 17370 bound_to 10713
  157.4360  130.7517  149.7029 LP  0  0  0  0  0  0  0  0  0  0  0  0  # atno 17371 bound_to 10713
  140.8896  133.7858  155.9557 LP  0  0  0  0  0  0  0  0  0  0  0  0  # atno 17394 bound_to 11000
  140.8767  134.2660  157.5164 LP  0  0  0  0  0  0  0  0  0  0  0  0  # atno 17395 bound_to 11000

$$$$
