AV-unprocessed.smi:55|AV-procd|sdf|573|dock1
  -GOLD-   2262016473D 1   1.00000     0.00000
 Structure written by MMmdl.
 30 31  0  0  0  0  0  0  0  0  2 V2000
  150.6160  142.8152  158.7863 C   0  0  0  0  0  0  0  0  0  0  0  0
  150.9075  141.8712  157.6327 C   0  0  0  0  0  0  0  0  0  0  0  0
  150.0874  141.7642  156.5635 C   0  0  0  0  0  0  0  0  0  0  0  0
  150.3581  140.9035  155.5118 N   0  0  0  0  0  0  0  0  0  0  0  0
  149.4308  140.7813  154.3163 C   0  0  2  0  0  0  0  0  0  0  0  0
  148.1676  141.6413  154.5116 C   0  0  0  0  0  0  0  0  0  0  0  0
  147.0337  140.6484  154.3201 C   0  0  1  0  0  0  0  0  0  0  0  0
  146.5799  140.6585  152.9786 O   0  0  0  0  0  0  0  0  0  0  0  0
  147.6863  139.3137  154.6954 C   0  0  1  0  0  0  0  0  0  0  0  0
  146.9989  138.0564  154.1359 C   0  0  0  0  0  0  0  0  0  0  0  0
  147.0363  138.0703  152.7247 O   0  0  0  0  0  0  0  0  0  0  0  0
  149.0033  139.4572  154.1745 O   0  0  0  0  0  0  0  0  0  0  0  0
  151.5184  140.0863  155.5600 C   0  0  0  0  0  0  0  0  0  0  0  0
  151.7216  139.3156  154.6213 O   0  0  0  0  0  0  0  0  0  0  0  0
  152.3527  140.1894  156.6334 N   0  5  0  0  0  0  0  0  0  0  0  0
  152.1175  141.0415  157.6719 C   0  0  0  0  0  0  0  0  0  0  0  0
  152.8839  141.1309  158.6309 O   0  0  0  0  0  0  0  0  0  0  0  0
  150.0328  141.0624  153.4507 H   0  0  0  0  0  0  0  0  0  0  0  0
  146.1863  140.8758  154.9678 H   0  0  0  0  0  0  0  0  0  0  0  0
  147.7357  139.2592  155.7846 H   0  0  0  0  0  0  0  0  0  0  0  0
  149.6745  143.3448  158.6378 H   0  0  0  0  0  0  0  0  0  0  0  0
  151.4097  143.5568  158.8804 H   0  0  0  0  0  0  0  0  0  0  0  0
  150.5478  142.2624  159.7237 H   0  0  0  0  0  0  0  0  0  0  0  0
  149.1975  142.3739  156.5455 H   0  0  0  0  0  0  0  0  0  0  0  0
  148.1456  142.0442  155.5256 H   0  0  0  0  0  0  0  0  0  0  0  0
  148.1482  142.4745  153.8079 H   0  0  0  0  0  0  0  0  0  0  0  0
  145.6364  140.7085  152.9800 H   0  0  0  0  0  0  0  0  0  0  0  0
  147.5267  137.1614  154.4661 H   0  0  0  0  0  0  0  0  0  0  0  0
  145.9692  137.9763  154.4859 H   0  0  0  0  0  0  0  0  0  0  0  0
  147.7001  137.4632  152.4356 H   0  0  0  0  0  0  0  0  0  0  0  0
  1  2  1  0  0  0  0
  1 21  1  0  0  0  0
  1 22  1  0  0  0  0
  1 23  1  0  0  0  0
  2 16  1  0  0  0  0
  2  3  2  0  0  0  0
  3  4  1  0  0  0  0
  3 24  1  0  0  0  0
  4  5  1  0  0  0  0
  4 13  1  0  0  0  0
  5 18  1  0  0  0  0
  5 12  1  0  0  0  0
  5  6  1  0  0  0  0
  6  7  1  0  0  0  0
  6 25  1  0  0  0  0
  6 26  1  0  0  0  0
  7 19  1  0  0  0  0
  7  8  1  0  0  0  0
  7  9  1  0  0  0  0
  8 27  1  0  0  0  0
  9 20  1  0  0  0  0
  9 10  1  0  0  0  0
  9 12  1  0  0  0  0
 10 11  1  0  0  0  0
 10 28  1  0  0  0  0
 10 29  1  0  0  0  0
 11 30  1  0  0  0  0
 13 14  2  0  0  0  0
 13 15  1  0  0  0  0
 15 16  1  0  0  0  0
 16 17  2  0  0  0  0
M  CHG  1  15  -1
M  END
> <s_m_source_file>
AV-unprocessed.smi

> <i_m_source_file_index>
55

> <i_lp_mmshare_version>
43012

> <i_f3d_flags>
0

> <s_epik_input>
Tz1jMVtuSF1jKD1PKW4oW2NIXWMxW0NIM10pW0NAQEhdMltDSDJdW0NAQEhdKFtPSF0pW0NAQEhdKE8yKVtDSDJdW09IXQ==

> <s_epik_cmdline>
J2VwaWtfcHl0aG9uJywgJy1waCcsICc3LjAnLCAnLXRuJywgJzgnLCAnLW1hJywgJzIwMCcsICctbWV0YWxfYmluZGluZycsICctaW1hZScsICc8aW5maWxlLm1hZT4nLCAnLW9tYWUnLCAnPG91dGZpbGUubWFlPic=

> <r_lp_tautomer_probability>
0.999537

> <r_epik_Ionization_Penalty>
3.66603

> <r_epik_Ionization_Penalty_Charging>
1.09773e-07

> <r_epik_Ionization_Penalty_Neutral>
3.66603

> <r_epik_State_Penalty>
3.66562

> <r_epik_Charging_Adjusted_Penalty>
3.66562

> <i_epik_Tot_Q>
-1

> <i_epik_Tot_abs_Q>
1

> <r_epik_Metal_State_Penalty>
0.234536

> <b_epik_Metal_Only>
1

> <s_epik_Chemistry_Notes>
This compound contains an acetal/aminal-like group ( X-CH(R)-Y where X, Y are N, S, or O) that may be acid/base labile, releasing an aldehyde.

> <s_lp_Force_Field>
OPLS_2005

> <r_lp_Energy>
39.3758

> <b_lp_Chiralities_Consistent>
1

> <s_lp_Variant>
AV-unprocessed.smi:55-13

> <Gold.Version>
5.8.1

> <Gold.Id.Protein>
6NUR|6NUR_protein|mol2

> <Gold.PLP.Fitness>
41.8445

> <Gold.PLP.PLP>
-26.0921

> <Gold.PLP.part.hbond>
-4.0000

> <Gold.PLP.part.metal>
0.0000

> <Gold.PLP.part.buried>
-2.3073

> <Gold.PLP.part.nonpolar>
-19.4248

> <Gold.PLP.part.repulsive>
0.2219

> <Gold.PLP.ligand.clash>
0.0000

> <Gold.PLP.ligand.torsion>
0.0433

> <Gold.PLP.Chemscore.Hbond>
4.2763

> <Gold.PLP.Chemscore.CHOScore>
1.0000

> <Gold.PLP.Chemscore.Metal>
0.0000

> <Gold.Chemscore.Hbonds>
donor molecule, donor type, donor heavy atom, donor atom, acceptor molecule, acceptor atom, score
      L1  H     8    27       P1 10175  1.00
      L1  H    11    30       P1  7948  1.00
      P1  H  7989  7998       L1    14  0.35
      P1  H  7997  8009       L1    15  2.00
      L1  C     3    24       P1  8028  0.99

> <Gold.PLP.Chemscore.Internal.Correction>
0.0103

> <Gold.Rescore>
     Score         DG    S(hbond)    S(metal)    S(lipo)     H(rot)  DE(clash)    DE(int)     intcor
      9.73     -11.26       2.60        0.00      33.83       2.69       0.06       1.47       ----

> <Gold.Chemscore.Fitness>
9.7324

> <Gold.Chemscore.DG>
-11.2571

> <Gold.Chemscore.ZeroCoef>
-5.4800

> <Gold.Chemscore.Hbond>
2.6043

> <Gold.Chemscore.Metal>
0.0000

> <Gold.Chemscore.Lipo>
33.8288

> <Gold.Chemscore.Internal_Hbond>
0.0000

> <Gold.Chemscore.DEClash>
0.0580

> <Gold.Chemscore.DEInternal>
1.4667

> <Gold.Chemscore.Rot>
2.6871

> <Gold.Chemscore.Internal.Correction>
   9.000000E+99

> <Gold.Chemscore.Hbonds>
donor molecule, donor type, donor heavy atom, donor atom, acceptor molecule, acceptor atom, score
      L1  H     8    27       P1 10175  0.61
      L1  H    11    30       P1  7948  1.00
      P1  H  7989  7998       L1    14  0.01
      P1  H  7997  8009       L1    15  0.42

> <Gold.Chemscore.Hbond.Weighted>
-8.6982

> <Gold.Chemscore.Metal.Weighted>
-0.0000

> <Gold.Chemscore.Lipo.Weighted>
-3.9580

> <Gold.Chemscore.Internal_Hbond.Weighted>
0.0000

> <Gold.Chemscore.DEClash.Weighted>
0.0580

> <Gold.Chemscore.DEInternal.Weighted>
1.4667

> <Gold.Chemscore.Rot.Weighted>
6.8791

> <Gold.Chemscore.Internal.Correction.Weighted>
   9.000000E+99

> <Gold.Protein.RotatedTorsions>
[ 6907 6896 6895 6894 ] final  169.12 input  -60.11 | X-H torsion
[ 7974 7965 7964 7962 ] final  172.23 input  175.53 | X-H torsion
[ 8008 7997 7996 7995 ] final -172.41 input   59.86 | X-H torsion
[ 10167 10162 10161 10158 ] final  140.99 input  -65.29 | X-H torsion
[ 10718 10713 10712 10709 ] final   95.53 input   66.30 | X-H torsion
[ 10763 10752 10751 10750 ] final -168.15 input  -60.55 | X-H torsion
[ 11005 11000 10999 10996 ] final  120.90 input  -57.11 | X-H torsion

> <Gold.Protein.ActiveResidues>
 VAL166  LYS551  ARG553  GLY616  TRP617  ASP618  TYR619  PRO620  LYS621  CYS622 
 ASP623  PHE694  ASN695  SER759  ASP760  ASP761  ALA762  ILE779  LEU786  VAL792 
 PHE793  MET794  SER795  GLU796  ALA797  LYS798  CYS799  TRP800  GLU811  SER814 

> <Gold.Protein.RotatedAtoms>
  151.8369  133.3417  159.3630 H   0  0  0  0  0  0  0  0  0  0  0  0  # atno 6907 bound_to 6896
  150.7247  134.5429  159.5765 H   0  0  0  0  0  0  0  0  0  0  0  0  # atno 6908 bound_to 6896
  152.2894  134.7740  160.0432 H   0  0  0  0  0  0  0  0  0  0  0  0  # atno 6909 bound_to 6896
  144.7273  139.9468  143.6430 H   0  0  0  0  0  0  0  0  0  0  0  0  # atno 7974 bound_to 7965
  155.9442  140.1114  157.1031 H   0  0  0  0  0  0  0  0  0  0  0  0  # atno 8008 bound_to 7997
  154.4095  140.1213  156.5033 H   0  0  0  0  0  0  0  0  0  0  0  0  # atno 8009 bound_to 7997
  155.6924  140.3472  155.4901 H   0  0  0  0  0  0  0  0  0  0  0  0  # atno 8010 bound_to 7997
  139.5033  144.6200  151.6074 H   0  0  0  0  0  0  0  0  0  0  0  0  # atno 10167 bound_to 10162
  157.6937  131.0548  150.4353 H   0  0  0  0  0  0  0  0  0  0  0  0  # atno 10718 bound_to 10713
  154.6658  135.2932  154.9807 H   0  0  0  0  0  0  0  0  0  0  0  0  # atno 10763 bound_to 10752
  154.0851  135.6599  153.4847 H   0  0  0  0  0  0  0  0  0  0  0  0  # atno 10764 bound_to 10752
  153.0457  135.5206  154.7630 H   0  0  0  0  0  0  0  0  0  0  0  0  # atno 10765 bound_to 10752
  139.9204  134.9637  156.7877 H   0  0  0  0  0  0  0  0  0  0  0  0  # atno 11005 bound_to 11000
  146.0742  139.3731  143.0504 LP  0  0  0  0  0  0  0  0  0  0  0  0  # atno 17320 bound_to 7965
  145.7927  140.9807  143.1040 LP  0  0  0  0  0  0  0  0  0  0  0  0  # atno 17321 bound_to 7965
  140.5899  143.9798  150.6318 LP  0  0  0  0  0  0  0  0  0  0  0  0  # atno 17342 bound_to 10162
  140.2975  143.3282  152.1003 LP  0  0  0  0  0  0  0  0  0  0  0  0  # atno 17343 bound_to 10162
  156.4716  130.4054  149.6515 LP  0  0  0  0  0  0  0  0  0  0  0  0  # atno 17370 bound_to 10713
  156.3593  130.7473  151.2443 LP  0  0  0  0  0  0  0  0  0  0  0  0  # atno 17371 bound_to 10713
  140.6492  133.9747  155.7746 LP  0  0  0  0  0  0  0  0  0  0  0  0  # atno 17394 bound_to 11000
  141.0719  134.0192  157.3514 LP  0  0  0  0  0  0  0  0  0  0  0  0  # atno 17395 bound_to 11000

$$$$
