AV-unprocessed.smi:2881|AV-procd|sdf|11055|dock1
  -GOLD-   2272015523D 1   1.00000     0.00000
 Structure written by MMmdl.
 40 42  0  0  0  0  0  0  0  0  1 V2000
  144.1884  132.9833  150.8481 C   0  0  0  0  0  0  0  0  0  0  0  0
  143.8502  134.1202  151.7512 C   0  0  0  0  0  0  0  0  0  0  0  0
  143.9312  135.4724  151.5728 C   0  0  0  0  0  0  0  0  0  0  0  0
  143.4610  136.0208  152.8038 C   0  0  0  0  0  0  0  0  0  0  0  0
  143.3349  137.4711  153.1871 C   0  0  0  0  0  0  0  0  0  0  0  0
  144.3586  137.8258  154.2660 C   0  0  0  0  0  0  0  0  0  0  0  0
  144.7559  136.9599  155.0453 O   0  0  0  0  0  0  0  0  0  0  0  0
  144.7758  139.1011  154.2969 N   0  0  0  0  0  0  0  0  0  0  0  0
  145.7681  139.6456  155.2205 C   0  0  2  0  0  0  0  0  0  0  0  0
  145.5075  141.1478  155.4689 C   0  0  1  0  0  0  0  0  0  0  0  0
  146.3015  141.5892  156.7116 C   0  0  0  0  0  0  0  0  0  0  0  0
  147.7532  141.5866  156.1970 C   0  0  0  0  0  0  0  0  0  0  0  0
  147.5991  141.1369  154.7278 C   0  0  2  0  0  0  0  0  0  0  0  0
  146.2929  141.8221  154.3474 C   0  0  0  0  0  0  0  0  0  0  0  0
  147.1981  139.6460  154.6190 C   0  0  1  0  0  0  0  0  0  0  0  0
  148.1815  138.6597  155.2786 C   0  0  0  0  0  0  0  0  0  0  0  0
  149.3961  138.6283  154.5609 O   0  0  0  0  0  0  0  0  0  0  0  0
  143.1228  135.0813  153.6760 N   0  0  0  0  0  0  0  0  0  0  0  0
  143.3616  133.9293  153.0228 N   0  0  0  0  0  0  0  0  0  0  0  0
  143.1904  133.0316  153.4530 H   0  0  0  0  0  0  0  0  0  0  0  0
  144.3691  133.3340  149.8319 H   0  0  0  0  0  0  0  0  0  0  0  0
  143.3750  132.2580  150.8143 H   0  0  0  0  0  0  0  0  0  0  0  0
  145.0865  132.4699  151.1924 H   0  0  0  0  0  0  0  0  0  0  0  0
  144.2738  135.9961  150.6925 H   0  0  0  0  0  0  0  0  0  0  0  0
  143.4925  138.1201  152.3243 H   0  0  0  0  0  0  0  0  0  0  0  0
  142.3271  137.6799  153.5487 H   0  0  0  0  0  0  0  0  0  0  0  0
  144.3887  139.7412  153.6188 H   0  0  0  0  0  0  0  0  0  0  0  0
  145.7268  139.1028  156.1670 H   0  0  0  0  0  0  0  0  0  0  0  0
  144.4507  141.4139  155.5191 H   0  0  0  0  0  0  0  0  0  0  0  0
  146.0085  142.5922  157.0244 H   0  0  0  0  0  0  0  0  0  0  0  0
  146.1575  140.9199  157.5606 H   0  0  0  0  0  0  0  0  0  0  0  0
  148.1702  142.5935  156.2443 H   0  0  0  0  0  0  0  0  0  0  0  0
  148.4068  140.9396  156.7809 H   0  0  0  0  0  0  0  0  0  0  0  0
  148.4499  141.4034  154.1002 H   0  0  0  0  0  0  0  0  0  0  0  0
  145.9382  141.5598  153.3491 H   0  0  0  0  0  0  0  0  0  0  0  0
  146.3300  142.9093  154.4373 H   0  0  0  0  0  0  0  0  0  0  0  0
  147.1503  139.4092  153.5538 H   0  0  0  0  0  0  0  0  0  0  0  0
  148.3971  138.9671  156.3020 H   0  0  0  0  0  0  0  0  0  0  0  0
  147.7716  137.6507  155.3196 H   0  0  0  0  0  0  0  0  0  0  0  0
  149.4401  137.8178  154.0769 H   0  0  0  0  0  0  0  0  0  0  0  0
  1  2  1  0  0  0  0
  1 21  1  0  0  0  0
  1 22  1  0  0  0  0
  1 23  1  0  0  0  0
  2 19  1  0  0  0  0
  2  3  2  0  0  0  0
  3  4  1  0  0  0  0
  3 24  1  0  0  0  0
  4  5  1  0  0  0  0
  4 18  2  0  0  0  0
  5  6  1  0  0  0  0
  5 25  1  0  0  0  0
  5 26  1  0  0  0  0
  6  7  2  0  0  0  0
  6  8  1  0  0  0  0
  8  9  1  0  0  0  0
  8 27  1  0  0  0  0
  9 15  1  0  0  0  0
  9 10  1  0  0  0  0
  9 28  1  0  0  0  0
 10 14  1  0  0  0  0
 10 11  1  0  0  0  0
 10 29  1  0  0  0  0
 11 12  1  0  0  0  0
 11 30  1  0  0  0  0
 11 31  1  0  0  0  0
 12 13  1  0  0  0  0
 12 32  1  0  0  0  0
 12 33  1  0  0  0  0
 13 14  1  0  0  0  0
 13 15  1  0  0  0  0
 13 34  1  0  0  0  0
 14 35  1  0  0  0  0
 14 36  1  0  0  0  0
 15 16  1  0  0  0  0
 15 37  1  0  0  0  0
 16 17  1  0  0  0  0
 16 38  1  0  0  0  0
 16 39  1  0  0  0  0
 17 40  1  0  0  0  0
 18 19  1  0  0  0  0
 19 20  1  0  0  0  0
M  END
> <s_m_source_file>
AV-unprocessed.smi

> <i_m_source_file_index>
2881

> <i_lp_mmshare_version>
43012

> <i_f3d_flags>
0

> <s_epik_input>
W0NIM11jMVtjSF1jKG5bbkhdMSlbQ0gyXUMoPU8pW05IXVtDQEhdKFtDQEBIXTIzKVtDQEhdKFtDSDJdW09IXSlbQ0BASF0oW0NIMl0zKVtDSDJdW0NIMl0y

> <s_epik_cmdline>
J2VwaWtfcHl0aG9uJywgJy1waCcsICc3LjAnLCAnLXRuJywgJzgnLCAnLW1hJywgJzIwMCcsICctbWV0YWxfYmluZGluZycsICctaW1hZScsICc8aW5maWxlLm1hZT4nLCAnLW9tYWUnLCAnPG91dGZpbGUubWFlPic=

> <r_lp_tautomer_probability>
0.5

> <r_epik_Ionization_Penalty>
9.4349e-05

> <r_epik_Ionization_Penalty_Charging>
0

> <r_epik_Ionization_Penalty_Neutral>
9.4349e-05

> <r_epik_State_Penalty>
0.41068

> <r_epik_Charging_Adjusted_Penalty>
0.41068

> <i_epik_Tot_Q>
0

> <i_epik_Tot_abs_Q>
0

> <r_epik_Metal_State_Penalty>
0.4107

> <b_epik_Metal_Only>
0

> <s_lp_Force_Field>
OPLS_2005

> <r_lp_Energy>
47.7549

> <b_lp_Chiralities_Consistent>
1

> <s_lp_Variant>
AV-unprocessed.smi:2881-1

> <Gold.Version>
5.8.1

> <Gold.Id.Protein>
6NUR|6NUR_protein|mol2

> <Gold.PLP.Fitness>
36.3796

> <Gold.PLP.PLP>
-29.0151

> <Gold.PLP.part.hbond>
-3.7186

> <Gold.PLP.part.metal>
0.0000

> <Gold.PLP.part.buried>
-1.7157

> <Gold.PLP.part.nonpolar>
-22.5223

> <Gold.PLP.part.repulsive>
0.1159

> <Gold.PLP.ligand.clash>
0.0000

> <Gold.PLP.ligand.torsion>
0.8397

> <Gold.PLP.Chemscore.Hbond>
3.0000

> <Gold.PLP.Chemscore.CHOScore>
0.0000

> <Gold.PLP.Chemscore.Metal>
0.0000

> <Gold.Chemscore.Hbonds>
donor molecule, donor type, donor heavy atom, donor atom, acceptor molecule, acceptor atom, score
      L1  H     8    27       P1 10175  0.99
      L1  H    19    20       P1 10957  1.00

> <Gold.PLP.Chemscore.Internal.Correction>
0.0440

> <Gold.Rescore>
     Score         DG    S(hbond)    S(metal)    S(lipo)     H(rot)  DE(clash)    DE(int)     intcor
     15.52     -16.80       2.83        0.00      65.67       2.28       0.03       1.25       ----

> <Gold.Chemscore.Fitness>
15.5195

> <Gold.Chemscore.DG>
-16.7985

> <Gold.Chemscore.ZeroCoef>
-5.4800

> <Gold.Chemscore.Hbond>
2.8325

> <Gold.Chemscore.Metal>
0.0000

> <Gold.Chemscore.Lipo>
65.6687

> <Gold.Chemscore.Internal_Hbond>
0.0000

> <Gold.Chemscore.DEClash>
0.0311

> <Gold.Chemscore.DEInternal>
1.2479

> <Gold.Chemscore.Rot>
2.2755

> <Gold.Chemscore.Internal.Correction>
   9.000000E+99

> <Gold.Chemscore.Hbonds>
donor molecule, donor type, donor heavy atom, donor atom, acceptor molecule, acceptor atom, score
      L1  H     8    27       P1 10175  0.92
      L1  H    19    20       P1 10957  0.88

> <Gold.Chemscore.Hbond.Weighted>
-9.4605

> <Gold.Chemscore.Metal.Weighted>
-0.0000

> <Gold.Chemscore.Lipo.Weighted>
-7.6832

> <Gold.Chemscore.Internal_Hbond.Weighted>
0.0000

> <Gold.Chemscore.DEClash.Weighted>
0.0311

> <Gold.Chemscore.DEInternal.Weighted>
1.2479

> <Gold.Chemscore.Rot.Weighted>
5.8252

> <Gold.Chemscore.Internal.Correction.Weighted>
   9.000000E+99

> <Gold.Protein.RotatedTorsions>
[ 6907 6896 6895 6894 ] final  -97.13 input  -60.11 | X-H torsion
[ 7974 7965 7964 7962 ] final   83.39 input  175.53 | X-H torsion
[ 8008 7997 7996 7995 ] final  -63.99 input   59.86 | X-H torsion
[ 10167 10162 10161 10158 ] final  -75.83 input  -65.29 | X-H torsion
[ 10718 10713 10712 10709 ] final -173.24 input   66.30 | X-H torsion
[ 10763 10752 10751 10750 ] final  156.21 input  -60.55 | X-H torsion
[ 11005 11000 10999 10996 ] final  -69.30 input  -57.11 | X-H torsion

> <Gold.Protein.ActiveResidues>
 VAL166  LYS551  ARG553  GLY616  TRP617  ASP618  TYR619  PRO620  LYS621  CYS622 
 ASP623  PHE694  ASN695  SER759  ASP760  ASP761  ALA762  ILE779  LEU786  VAL792 
 PHE793  MET794  SER795  GLU796  ALA797  LYS798  CYS799  TRP800  GLU811  SER814 

> <Gold.Protein.RotatedAtoms>
  150.7008  134.1396  159.4099 H   0  0  0  0  0  0  0  0  0  0  0  0  # atno 6907 bound_to 6896
  151.9380  135.0224  160.0543 H   0  0  0  0  0  0  0  0  0  0  0  0  # atno 6908 bound_to 6896
  152.2118  133.4882  159.5151 H   0  0  0  0  0  0  0  0  0  0  0  0  # atno 6909 bound_to 6896
  145.6125  139.2371  143.2184 H   0  0  0  0  0  0  0  0  0  0  0  0  # atno 7974 bound_to 7965
  154.4586  140.0963  156.6828 H   0  0  0  0  0  0  0  0  0  0  0  0  # atno 8008 bound_to 7997
  155.5063  140.3475  155.4362 H   0  0  0  0  0  0  0  0  0  0  0  0  # atno 8009 bound_to 7997
  156.0826  140.1377  156.9682 H   0  0  0  0  0  0  0  0  0  0  0  0  # atno 8010 bound_to 7997
  140.4909  143.2380  151.7909 H   0  0  0  0  0  0  0  0  0  0  0  0  # atno 10167 bound_to 10162
  156.7674  130.9436  151.3119 H   0  0  0  0  0  0  0  0  0  0  0  0  # atno 10718 bound_to 10713
  154.1806  135.2799  155.3053 H   0  0  0  0  0  0  0  0  0  0  0  0  # atno 10763 bound_to 10752
  154.6005  135.5531  153.7373 H   0  0  0  0  0  0  0  0  0  0  0  0  # atno 10764 bound_to 10752
  153.0139  135.6390  154.1946 H   0  0  0  0  0  0  0  0  0  0  0  0  # atno 10765 bound_to 10752
  141.1551  133.6761  156.6578 H   0  0  0  0  0  0  0  0  0  0  0  0  # atno 11005 bound_to 11000
  146.1493  140.6948  142.9329 LP  0  0  0  0  0  0  0  0  0  0  0  0  # atno 17320 bound_to 7965
  144.7264  140.4537  143.6970 LP  0  0  0  0  0  0  0  0  0  0  0  0  # atno 17321 bound_to 7965
  139.4851  144.4650  151.9494 LP  0  0  0  0  0  0  0  0  0  0  0  0  # atno 17342 bound_to 10162
  140.3737  144.2823  150.5916 LP  0  0  0  0  0  0  0  0  0  0  0  0  # atno 17343 bound_to 10162
  157.6707  130.9048  150.0033 LP  0  0  0  0  0  0  0  0  0  0  0  0  # atno 17370 bound_to 10713
  156.1300  130.3643  149.9747 LP  0  0  0  0  0  0  0  0  0  0  0  0  # atno 17371 bound_to 10713
  140.3271  134.7960  157.4297 LP  0  0  0  0  0  0  0  0  0  0  0  0  # atno 17394 bound_to 11000
  140.1048  134.5424  155.8319 LP  0  0  0  0  0  0  0  0  0  0  0  0  # atno 17395 bound_to 11000

$$$$
