AV-unprocessed.smi:1240|AV-procd|sdf|5212|dock1
  -GOLD-   22720 4303D 1   1.00000     0.00000
 Structure written by MMmdl.
 48 50  0  0  0  0  0  0  0  0  4 V2000
  147.1736  131.9728  153.0673 O   0  0  0  0  0  0  0  0  0  0  0  0
  147.7771  133.0485  152.9805 C   0  0  0  0  0  0  0  0  0  0  0  0
  148.9845  133.3674  153.5177 N   0  5  0  0  0  0  0  0  0  0  0  0
  149.5923  132.6843  154.6594 C   0  0  0  0  0  0  0  0  0  0  0  0
  148.5153  131.8773  155.4679 C   0  0  1  0  0  0  0  0  0  0  0  0
  148.7254  130.3264  155.4735 C   0  0  2  0  0  0  0  0  0  0  0  0
  150.1066  129.8177  155.8752 C   0  0  0  0  0  0  0  0  0  0  0  0
  150.1238  128.4010  155.3105 C   0  0  0  0  0  0  0  0  0  0  0  0
  149.2749  128.4272  154.1693 O   0  0  0  0  0  0  0  0  0  0  0  0
  148.6240  129.6885  154.0816 C   0  0  0  0  0  0  0  0  0  0  0  0
  148.3085  132.3619  156.8787 N   0  3  0  0  0  0  0  0  0  0  0  0
  149.2661  131.9057  157.9259 C   0  0  0  0  0  0  0  0  0  0  0  0
  148.7189  132.2564  159.3189 C   0  0  0  0  0  0  0  0  0  0  0  0
  148.4776  133.6565  159.4012 O   0  0  0  0  0  0  0  0  0  0  0  0
  147.5034  134.0905  158.4591 C   0  0  0  0  0  0  0  0  0  0  0  0
  147.9991  133.8087  157.0314 C   0  0  0  0  0  0  0  0  0  0  0  0
  147.2564  134.0639  152.2685 N   0  0  0  0  0  0  0  0  0  0  0  0
  146.0296  134.1157  151.5542 C   0  0  0  0  0  0  0  0  0  0  0  0
  145.4800  132.8949  151.1050 C   0  0  0  0  0  0  0  0  0  0  0  0
  144.2723  132.9029  150.3782 C   0  0  0  0  0  0  0  0  0  0  0  0
  143.6592  134.0748  150.1054 N   0  3  0  0  0  0  0  0  0  0  0  0
  144.1568  135.2677  150.4971 C   0  0  0  0  0  0  0  0  0  0  0  0
  145.3610  135.3224  151.2277 C   0  0  0  0  0  0  0  0  0  0  0  0
  150.3922  132.0088  154.3547 H   0  0  0  0  0  0  0  0  0  0  0  0
  150.0637  133.4045  155.3285 H   0  0  0  0  0  0  0  0  0  0  0  0
  147.5557  132.0482  154.9767 H   0  0  0  0  0  0  0  0  0  0  0  0
  147.9886  129.8431  156.1186 H   0  0  0  0  0  0  0  0  0  0  0  0
  150.8853  130.4171  155.4011 H   0  0  0  0  0  0  0  0  0  0  0  0
  150.2779  129.8294  156.9522 H   0  0  0  0  0  0  0  0  0  0  0  0
  151.1299  128.0702  155.0522 H   0  0  0  0  0  0  0  0  0  0  0  0
  149.7100  127.6970  156.0333 H   0  0  0  0  0  0  0  0  0  0  0  0
  147.5930  129.5691  153.7477 H   0  0  0  0  0  0  0  0  0  0  0  0
  149.1488  130.2942  153.3413 H   0  0  0  0  0  0  0  0  0  0  0  0
  149.4239  130.8297  157.8611 H   0  0  0  0  0  0  0  0  0  0  0  0
  150.2381  132.3826  157.7930 H   0  0  0  0  0  0  0  0  0  0  0  0
  147.8012  131.7037  159.5270 H   0  0  0  0  0  0  0  0  0  0  0  0
  149.4400  131.9765  160.0868 H   0  0  0  0  0  0  0  0  0  0  0  0
  146.5514  133.5909  158.6462 H   0  0  0  0  0  0  0  0  0  0  0  0
  147.3336  135.1590  158.5931 H   0  0  0  0  0  0  0  0  0  0  0  0
  148.8841  134.4126  156.8288 H   0  0  0  0  0  0  0  0  0  0  0  0
  147.2339  134.1079  156.3143 H   0  0  0  0  0  0  0  0  0  0  0  0
  147.8566  134.8688  152.1645 H   0  0  0  0  0  0  0  0  0  0  0  0
  145.9738  131.9587  151.3224 H   0  0  0  0  0  0  0  0  0  0  0  0
  143.7832  132.0135  150.0087 H   0  0  0  0  0  0  0  0  0  0  0  0
  143.5843  136.1381  150.2116 H   0  0  0  0  0  0  0  0  0  0  0  0
  145.7568  136.2849  151.5152 H   0  0  0  0  0  0  0  0  0  0  0  0
  147.4413  131.9137  157.1360 H   0  0  0  0  0  0  0  0  0  0  0  0
  142.7868  134.0590  149.5769 H   0  0  0  0  0  0  0  0  0  0  0  0
  1  2  2  0  0  0  0
  2  3  1  0  0  0  0
  2 17  1  0  0  0  0
  3  4  1  0  0  0  0
  4  5  1  0  0  0  0
  4 24  1  0  0  0  0
  4 25  1  0  0  0  0
  5  6  1  0  0  0  0
  5 11  1  0  0  0  0
  5 26  1  0  0  0  0
  6 10  1  0  0  0  0
  6  7  1  0  0  0  0
  6 27  1  0  0  0  0
  7  8  1  0  0  0  0
  7 28  1  0  0  0  0
  7 29  1  0  0  0  0
  8  9  1  0  0  0  0
  8 30  1  0  0  0  0
  8 31  1  0  0  0  0
  9 10  1  0  0  0  0
 10 32  1  0  0  0  0
 10 33  1  0  0  0  0
 11 16  1  0  0  0  0
 11 12  1  0  0  0  0
 11 47  1  0  0  0  0
 12 13  1  0  0  0  0
 12 34  1  0  0  0  0
 12 35  1  0  0  0  0
 13 14  1  0  0  0  0
 13 36  1  0  0  0  0
 13 37  1  0  0  0  0
 14 15  1  0  0  0  0
 15 16  1  0  0  0  0
 15 38  1  0  0  0  0
 15 39  1  0  0  0  0
 16 40  1  0  0  0  0
 16 41  1  0  0  0  0
 17 18  1  0  0  0  0
 17 42  1  0  0  0  0
 18 23  1  0  0  0  0
 18 19  2  0  0  0  0
 19 20  1  0  0  0  0
 19 43  1  0  0  0  0
 20 21  2  0  0  0  0
 20 44  1  0  0  0  0
 21 22  1  0  0  0  0
 21 48  1  0  0  0  0
 22 23  2  0  0  0  0
 22 45  1  0  0  0  0
 23 46  1  0  0  0  0
M  CHG  1   3  -1
M  CHG  1  11   1
M  CHG  1  21   1
M  END
> <s_m_source_file>
AV-unprocessed.smi

> <i_m_source_file_index>
1240

> <i_lp_mmshare_version>
43012

> <i_f3d_flags>
0

> <s_epik_input>
W2NIXTFbY0hdbltjSF1bY0hdYzFbTkhdQyg9TylbTkhdW0NIMl1bQ0BIXShbQ0BASF0yW0NIMl1bQ0gyXU9bQ0gyXTIpTjNbQ0gyXVtDSDJdT1tDSDJdW0NIMl0z

> <s_epik_cmdline>
J2VwaWtfcHl0aG9uJywgJy1waCcsICc3LjAnLCAnLXRuJywgJzgnLCAnLW1hJywgJzIwMCcsICctbWV0YWxfYmluZGluZycsICctaW1hZScsICc8aW5maWxlLm1hZT4nLCAnLW9tYWUnLCAnPG91dGZpbGUubWFlPic=

> <r_epik_Ionization_Penalty>
8.41087

> <r_epik_Ionization_Penalty_Charging>
8.41087

> <r_epik_Ionization_Penalty_Neutral>
3.12936e-06

> <r_epik_State_Penalty>
8.81894

> <r_epik_Charging_Adjusted_Penalty>
17.2298

> <i_epik_Tot_Q>
1

> <i_epik_Tot_abs_Q>
3

> <r_epik_Metal_State_Penalty>
4.82983

> <b_epik_Metal_Only>
1

> <s_lp_Force_Field>
OPLS_2005

> <r_lp_Energy>
48.6891

> <b_lp_Chiralities_Consistent>
1

> <s_lp_Variant>
AV-unprocessed.smi:1240-18

> <Gold.Version>
5.8.1

> <Gold.Id.Protein>
6NUR|6NUR_protein|mol2

> <Gold.PLP.Fitness>
39.5163

> <Gold.PLP.PLP>
-29.9876

> <Gold.PLP.part.hbond>
-3.0000

> <Gold.PLP.part.metal>
0.0000

> <Gold.PLP.part.buried>
-4.5696

> <Gold.PLP.part.nonpolar>
-23.8784

> <Gold.PLP.part.repulsive>
0.6563

> <Gold.PLP.ligand.clash>
0.0000

> <Gold.PLP.ligand.torsion>
1.3920

> <Gold.PLP.Chemscore.Hbond>
3.9120

> <Gold.PLP.Chemscore.CHOScore>
0.0000

> <Gold.PLP.Chemscore.Metal>
0.0000

> <Gold.Chemscore.Hbonds>
donor molecule, donor type, donor heavy atom, donor atom, acceptor molecule, acceptor atom, score
      L1  H    17    42       P1  7948  1.00
      L1  H    21    48       P1 10186  1.89
      P1  H  6896  6909       L1    14  0.08

> <Gold.PLP.Chemscore.Internal.Correction>
0.5768

> <Gold.Rescore>
     Score         DG    S(hbond)    S(metal)    S(lipo)     H(rot)  DE(clash)    DE(int)     intcor
     10.75     -16.74       2.41        0.00      64.80       1.70       0.04       5.94       ----

> <Gold.Chemscore.Fitness>
10.7516

> <Gold.Chemscore.DG>
-16.7376

> <Gold.Chemscore.ZeroCoef>
-5.4800

> <Gold.Chemscore.Hbond>
2.4053

> <Gold.Chemscore.Metal>
0.0000

> <Gold.Chemscore.Lipo>
64.7979

> <Gold.Chemscore.Internal_Hbond>
0.0000

> <Gold.Chemscore.DEClash>
0.0426

> <Gold.Chemscore.DEInternal>
5.9434

> <Gold.Chemscore.Rot>
1.7021

> <Gold.Chemscore.Internal.Correction>
   9.000000E+99

> <Gold.Chemscore.Hbonds>
donor molecule, donor type, donor heavy atom, donor atom, acceptor molecule, acceptor atom, score
      L1  H    17    42       P1  7948  0.70
      L1  H    21    48       P1 10186  0.92

> <Gold.Chemscore.Hbond.Weighted>
-8.0338

> <Gold.Chemscore.Metal.Weighted>
-0.0000

> <Gold.Chemscore.Lipo.Weighted>
-7.5814

> <Gold.Chemscore.Internal_Hbond.Weighted>
0.0000

> <Gold.Chemscore.DEClash.Weighted>
0.0426

> <Gold.Chemscore.DEInternal.Weighted>
5.9434

> <Gold.Chemscore.Rot.Weighted>
4.3575

> <Gold.Chemscore.Internal.Correction.Weighted>
   9.000000E+99

> <Gold.Protein.RotatedTorsions>
[ 6907 6896 6895 6894 ] final    3.56 input  -60.11 | X-H torsion
[ 7974 7965 7964 7962 ] final -141.12 input  175.53 | X-H torsion
[ 8008 7997 7996 7995 ] final -118.04 input   59.86 | X-H torsion
[ 10167 10162 10161 10158 ] final   33.28 input  -65.29 | X-H torsion
[ 10718 10713 10712 10709 ] final    6.99 input   66.30 | X-H torsion
[ 10763 10752 10751 10750 ] final  -59.86 input  -60.55 | X-H torsion
[ 11005 11000 10999 10996 ] final -138.03 input  -57.11 | X-H torsion

> <Gold.Protein.ActiveResidues>
 VAL166  LYS551  ARG553  GLY616  TRP617  ASP618  TYR619  PRO620  LYS621  CYS622 
 ASP623  PHE694  ASN695  SER759  ASP760  ASP761  ALA762  ILE779  LEU786  VAL792 
 PHE793  MET794  SER795  GLU796  ALA797  LYS798  CYS799  TRP800  GLU811  SER814 

> <Gold.Protein.RotatedAtoms>
  151.6270  135.1026  160.0113 H   0  0  0  0  0  0  0  0  0  0  0  0  # atno 6907 bound_to 6896
  152.4127  133.6984  159.6420 H   0  0  0  0  0  0  0  0  0  0  0  0  # atno 6908 bound_to 6896
  150.8016  133.8513  159.3247 H   0  0  0  0  0  0  0  0  0  0  0  0  # atno 6909 bound_to 6896
  144.8544  140.6118  143.5369 H   0  0  0  0  0  0  0  0  0  0  0  0  # atno 7974 bound_to 7965
  155.0933  140.0395  157.2675 H   0  0  0  0  0  0  0  0  0  0  0  0  # atno 8008 bound_to 7997
  154.6815  140.2634  155.6879 H   0  0  0  0  0  0  0  0  0  0  0  0  # atno 8009 bound_to 7997
  156.2696  140.2777  156.1360 H   0  0  0  0  0  0  0  0  0  0  0  0  # atno 8010 bound_to 7997
  140.4422  144.1171  150.6176 H   0  0  0  0  0  0  0  0  0  0  0  0  # atno 10167 bound_to 10162
  156.9303  130.5823  149.5649 H   0  0  0  0  0  0  0  0  0  0  0  0  # atno 10718 bound_to 10713
  154.2603  135.6309  153.5272 H   0  0  0  0  0  0  0  0  0  0  0  0  # atno 10763 bound_to 10752
  152.9897  135.5586  154.5711 H   0  0  0  0  0  0  0  0  0  0  0  0  # atno 10764 bound_to 10752
  154.5259  135.2885  155.1198 H   0  0  0  0  0  0  0  0  0  0  0  0  # atno 10765 bound_to 10752
  140.8655  134.2116  157.4682 H   0  0  0  0  0  0  0  0  0  0  0  0  # atno 11005 bound_to 11000
  145.4436  139.1532  143.3957 LP  0  0  0  0  0  0  0  0  0  0  0  0  # atno 17320 bound_to 7965
  146.2811  140.4558  142.8776 LP  0  0  0  0  0  0  0  0  0  0  0  0  # atno 17321 bound_to 7965
  140.4305  143.2570  151.9601 LP  0  0  0  0  0  0  0  0  0  0  0  0  # atno 17342 bound_to 10162
  139.4790  144.5748  151.8030 LP  0  0  0  0  0  0  0  0  0  0  0  0  # atno 17343 bound_to 10162
  156.0450  130.5528  150.8860 LP  0  0  0  0  0  0  0  0  0  0  0  0  # atno 17370 bound_to 10713
  157.5851  131.0945  150.9209 LP  0  0  0  0  0  0  0  0  0  0  0  0  # atno 17371 bound_to 10713
  139.8709  134.9749  156.4865 LP  0  0  0  0  0  0  0  0  0  0  0  0  # atno 17394 bound_to 11000
  140.8634  133.8042  155.9289 LP  0  0  0  0  0  0  0  0  0  0  0  0  # atno 17395 bound_to 11000

$$$$
