AV-unprocessed.smi:1295|AV-procd|sdf|5408|dock2
  -GOLD-   22720 4563D 1   1.00000     0.00000
 Structure written by MMmdl.
 43 44  0  0  0  0  0  0  0  0  1 V2000
  146.0423  137.7929  153.3107 C   0  0  0  0  0  0  0  0  0  0  0  0
  146.6975  138.8756  154.1407 C   0  0  0  0  0  0  0  0  0  0  0  0
  148.0812  138.8113  154.1472 N   0  0  0  0  0  0  0  0  0  0  0  0
  148.7696  139.7604  154.8818 C   0  0  0  0  0  0  0  0  0  0  0  0
  150.2814  139.6175  154.8386 C   0  0  0  0  0  0  0  0  0  0  0  0
  148.1126  140.7237  155.5765 C   0  0  0  0  0  0  0  0  0  0  0  0
  148.8374  141.7832  156.4046 C   0  0  0  0  0  0  0  0  0  0  0  0
  149.6659  141.2504  157.5757 C   0  0  0  0  0  0  0  0  0  0  0  0
  149.4934  140.1020  157.9837 O   0  0  0  0  0  0  0  0  0  0  0  0
  150.5642  142.0981  158.1008 N   0  0  0  0  0  0  0  0  0  0  0  0
  151.4925  141.7993  159.1903 C   0  0  1  0  0  0  0  0  0  0  0  0
  152.5727  140.8350  158.6624 C   0  0  0  0  0  0  0  0  0  0  0  0
  153.6259  140.5189  159.7337 C   0  0  0  0  0  0  0  0  0  0  0  0
  154.2643  141.8061  160.2717 C   0  0  0  0  0  0  0  0  0  0  0  0
  153.1944  142.7645  160.8157 C   0  0  0  0  0  0  0  0  0  0  0  0
  152.1233  143.0978  159.7567 C   0  0  2  0  0  0  0  0  0  0  0  0
  151.0748  144.0627  160.3389 C   0  0  0  0  0  0  0  0  0  0  0  0
  146.6312  140.7387  155.5345 C   0  0  0  0  0  0  0  0  0  0  0  0
  145.9774  141.5792  156.1506 O   0  0  0  0  0  0  0  0  0  0  0  0
  145.9808  139.7559  154.7707 N   0  0  0  0  0  0  0  0  0  0  0  0
  148.6088  138.1100  153.6480 H   0  0  0  0  0  0  0  0  0  0  0  0
  144.9725  137.9769  153.2050 H   0  0  0  0  0  0  0  0  0  0  0  0
  146.1764  136.8201  153.7845 H   0  0  0  0  0  0  0  0  0  0  0  0
  146.4805  137.7565  152.3128 H   0  0  0  0  0  0  0  0  0  0  0  0
  150.7365  140.5079  154.4046 H   0  0  0  0  0  0  0  0  0  0  0  0
  150.5873  138.7600  154.2377 H   0  0  0  0  0  0  0  0  0  0  0  0
  150.6814  139.4801  155.8434 H   0  0  0  0  0  0  0  0  0  0  0  0
  148.1348  142.5211  156.7927 H   0  0  0  0  0  0  0  0  0  0  0  0
  149.4904  142.3473  155.7374 H   0  0  0  0  0  0  0  0  0  0  0  0
  150.6244  143.0228  157.6998 H   0  0  0  0  0  0  0  0  0  0  0  0
  150.9672  141.2921  160.0018 H   0  0  0  0  0  0  0  0  0  0  0  0
  152.1099  139.9081  158.3213 H   0  0  0  0  0  0  0  0  0  0  0  0
  153.0652  141.2719  157.7923 H   0  0  0  0  0  0  0  0  0  0  0  0
  153.1611  139.9695  160.5534 H   0  0  0  0  0  0  0  0  0  0  0  0
  154.3945  139.8662  159.3193 H   0  0  0  0  0  0  0  0  0  0  0  0
  154.9805  141.5644  161.0573 H   0  0  0  0  0  0  0  0  0  0  0  0
  154.8288  142.2969  159.4780 H   0  0  0  0  0  0  0  0  0  0  0  0
  152.7197  142.3166  161.6897 H   0  0  0  0  0  0  0  0  0  0  0  0
  153.6732  143.6810  161.1627 H   0  0  0  0  0  0  0  0  0  0  0  0
  152.6238  143.6158  158.9372 H   0  0  0  0  0  0  0  0  0  0  0  0
  150.5011  143.5884  161.1357 H   0  0  0  0  0  0  0  0  0  0  0  0
  150.3713  144.4006  159.5781 H   0  0  0  0  0  0  0  0  0  0  0  0
  151.5489  144.9519  160.7551 H   0  0  0  0  0  0  0  0  0  0  0  0
  1 22  1  0  0  0  0
  1 23  1  0  0  0  0
  1 24  1  0  0  0  0
  1  2  1  0  0  0  0
  2  3  1  0  0  0  0
  2 20  2  0  0  0  0
  3  4  1  0  0  0  0
  3 21  1  0  0  0  0
  4  6  2  0  0  0  0
  4  5  1  0  0  0  0
  5 25  1  0  0  0  0
  5 26  1  0  0  0  0
  5 27  1  0  0  0  0
  6 18  1  0  0  0  0
  6  7  1  0  0  0  0
  7  8  1  0  0  0  0
  7 28  1  0  0  0  0
  7 29  1  0  0  0  0
  8  9  2  0  0  0  0
  8 10  1  0  0  0  0
 10 11  1  0  0  0  0
 10 30  1  0  0  0  0
 11 16  1  0  0  0  0
 11 12  1  0  0  0  0
 11 31  1  0  0  0  0
 12 13  1  0  0  0  0
 12 32  1  0  0  0  0
 12 33  1  0  0  0  0
 13 14  1  0  0  0  0
 13 34  1  0  0  0  0
 13 35  1  0  0  0  0
 14 15  1  0  0  0  0
 14 36  1  0  0  0  0
 14 37  1  0  0  0  0
 15 16  1  0  0  0  0
 15 38  1  0  0  0  0
 15 39  1  0  0  0  0
 16 17  1  0  0  0  0
 16 40  1  0  0  0  0
 17 41  1  0  0  0  0
 17 42  1  0  0  0  0
 17 43  1  0  0  0  0
 18 19  2  0  0  0  0
 18 20  1  0  0  0  0
M  END
> <s_m_source_file>
AV-unprocessed.smi

> <i_m_source_file_index>
1295

> <i_lp_mmshare_version>
43012

> <i_f3d_flags>
0

> <s_epik_input>
W0NIM11jMW5jKFtDSDNdKWMoYyg9TylbbkhdMSlbQ0gyXUMoPU8pW05IXVtDQEBIXTJbQ0gyXVtDSDJdW0NIMl1bQ0gyXVtDQEhdMltDSDNd

> <s_epik_cmdline>
J2VwaWtfcHl0aG9uJywgJy1waCcsICc3LjAnLCAnLXRuJywgJzgnLCAnLW1hJywgJzIwMCcsICctbWV0YWxfYmluZGluZycsICctaW1hZScsICc8aW5maWxlLm1hZT4nLCAnLW9tYWUnLCAnPG91dGZpbGUubWFlPic=

> <r_lp_tautomer_probability>
0.156392

> <r_epik_Ionization_Penalty>
0.0136057

> <r_epik_Ionization_Penalty_Charging>
0.0134742

> <r_epik_Ionization_Penalty_Neutral>
0.000131572

> <r_epik_State_Penalty>
1.15342

> <r_epik_Charging_Adjusted_Penalty>
1.16689

> <i_epik_Tot_Q>
0

> <i_epik_Tot_abs_Q>
0

> <r_epik_Metal_State_Penalty>
1.31351

> <b_epik_Metal_Only>
0

> <s_lp_Force_Field>
OPLS_2005

> <r_lp_Energy>
15.3725

> <b_lp_Chiralities_Consistent>
1

> <s_lp_Variant>
AV-unprocessed.smi:1295-8

> <Gold.Version>
5.8.1

> <Gold.Id.Protein>
6NUR|6NUR_protein|mol2

> <Gold.PLP.Fitness>
45.8164

> <Gold.PLP.PLP>
-43.5384

> <Gold.PLP.part.hbond>
-2.0000

> <Gold.PLP.part.metal>
0.0000

> <Gold.PLP.part.buried>
-0.4881

> <Gold.PLP.part.nonpolar>
-40.8863

> <Gold.PLP.part.repulsive>
0.5126

> <Gold.PLP.ligand.clash>
0.0000

> <Gold.PLP.ligand.torsion>
0.3570

> <Gold.PLP.Chemscore.Hbond>
0.9920

> <Gold.PLP.Chemscore.CHOScore>
0.0000

> <Gold.PLP.Chemscore.Metal>
0.0000

> <Gold.PLP.Chemscore.Internal.Correction>
0.0159

> <Gold.Rescore>
     Score         DG    S(hbond)    S(metal)    S(lipo)     H(rot)  DE(clash)    DE(int)     intcor
     16.30     -17.09       0.87        0.00     106.72       1.48       0.19       0.61       ----

> <Gold.Chemscore.Fitness>
16.2950

> <Gold.Chemscore.DG>
-17.0870

> <Gold.Chemscore.ZeroCoef>
-5.4800

> <Gold.Chemscore.Hbond>
0.8713

> <Gold.Chemscore.Metal>
0.0000

> <Gold.Chemscore.Lipo>
106.7178

> <Gold.Chemscore.Internal_Hbond>
0.0000

> <Gold.Chemscore.DEClash>
0.1865

> <Gold.Chemscore.DEInternal>
0.6055

> <Gold.Chemscore.Rot>
1.4801

> <Gold.Chemscore.Internal.Correction>
   9.000000E+99

> <Gold.Chemscore.Hbond.Weighted>
-2.9101

> <Gold.Chemscore.Metal.Weighted>
-0.0000

> <Gold.Chemscore.Lipo.Weighted>
-12.4860

> <Gold.Chemscore.Internal_Hbond.Weighted>
0.0000

> <Gold.Chemscore.DEClash.Weighted>
0.1865

> <Gold.Chemscore.DEInternal.Weighted>
0.6055

> <Gold.Chemscore.Rot.Weighted>
3.7891

> <Gold.Chemscore.Internal.Correction.Weighted>
   9.000000E+99

> <Gold.Protein.RotatedTorsions>
[ 6907 6896 6895 6894 ] final  103.46 input  -60.11 | X-H torsion
[ 7974 7965 7964 7962 ] final  112.70 input  175.53 | X-H torsion
[ 8008 7997 7996 7995 ] final  165.22 input   59.86 | X-H torsion
[ 10167 10162 10161 10158 ] final -137.72 input  -65.29 | X-H torsion
[ 10718 10713 10712 10709 ] final  154.87 input   66.30 | X-H torsion
[ 10763 10752 10751 10750 ] final  -93.97 input  -60.55 | X-H torsion
[ 11005 11000 10999 10996 ] final  -65.58 input  -57.11 | X-H torsion

> <Gold.Protein.ActiveResidues>
 VAL166  LYS551  ARG553  GLY616  TRP617  ASP618  TYR619  PRO620  LYS621  CYS622 
 ASP623  PHE694  ASN695  SER759  ASP760  ASP761  ALA762  ILE779  LEU786  VAL792 
 PHE793  MET794  SER795  GLU796  ALA797  LYS798  CYS799  TRP800  GLU811  SER814 

> <Gold.Protein.RotatedAtoms>
  152.5294  133.9822  159.7811 H   0  0  0  0  0  0  0  0  0  0  0  0  # atno 6907 bound_to 6896
  151.0073  133.5990  159.2694 H   0  0  0  0  0  0  0  0  0  0  0  0  # atno 6908 bound_to 6896
  151.3077  135.0792  159.9314 H   0  0  0  0  0  0  0  0  0  0  0  0  # atno 6909 bound_to 6896
  145.2263  139.2839  143.4192 H   0  0  0  0  0  0  0  0  0  0  0  0  # atno 7974 bound_to 7965
  156.1818  140.1676  156.8261 H   0  0  0  0  0  0  0  0  0  0  0  0  # atno 8008 bound_to 7997
  154.5368  140.0745  156.8474 H   0  0  0  0  0  0  0  0  0  0  0  0  # atno 8009 bound_to 7997
  155.3295  140.3378  155.4242 H   0  0  0  0  0  0  0  0  0  0  0  0  # atno 8010 bound_to 7997
  139.8550  143.7150  152.2655 H   0  0  0  0  0  0  0  0  0  0  0  0  # atno 10167 bound_to 10162
  157.2258  131.0728  151.1884 H   0  0  0  0  0  0  0  0  0  0  0  0  # atno 10718 bound_to 10713
  154.7011  135.5174  153.8527 H   0  0  0  0  0  0  0  0  0  0  0  0  # atno 10763 bound_to 10752
  153.0704  135.6599  154.0269 H   0  0  0  0  0  0  0  0  0  0  0  0  # atno 10764 bound_to 10752
  154.0127  135.3000  155.3370 H   0  0  0  0  0  0  0  0  0  0  0  0  # atno 10765 bound_to 10752
  141.1458  133.6684  156.6008 H   0  0  0  0  0  0  0  0  0  0  0  0  # atno 11005 bound_to 11000
  146.3364  140.2584  142.8601 LP  0  0  0  0  0  0  0  0  0  0  0  0  # atno 17320 bound_to 7965
  144.9718  140.8376  143.5450 LP  0  0  0  0  0  0  0  0  0  0  0  0  # atno 17321 bound_to 7965
  139.7429  144.7555  151.0625 LP  0  0  0  0  0  0  0  0  0  0  0  0  # atno 17342 bound_to 10162
  140.7783  143.4951  150.9843 LP  0  0  0  0  0  0  0  0  0  0  0  0  # atno 17343 bound_to 10162
  157.3529  130.7091  149.6452 LP  0  0  0  0  0  0  0  0  0  0  0  0  # atno 17370 bound_to 10713
  155.9679  130.4247  150.4622 LP  0  0  0  0  0  0  0  0  0  0  0  0  # atno 17371 bound_to 10713
  140.3690  134.7622  157.4586 LP  0  0  0  0  0  0  0  0  0  0  0  0  # atno 17394 bound_to 11000
  140.0725  134.5842  155.8626 LP  0  0  0  0  0  0  0  0  0  0  0  0  # atno 17395 bound_to 11000

$$$$
