AV-unprocessed.smi:2138|AV-procd|sdf|8710|dock8
  -GOLD-   2272011473D 1   1.00000     0.00000
 Structure written by MMmdl.
 46 47  0  0  0  0  0  0  0  0  1 V2000
  148.2195  127.1678  151.6373 C   0  0  0  0  0  0  0  0  0  0  0  0
  147.6247  128.1513  152.4656 O   0  0  0  0  0  0  0  0  0  0  0  0
  148.5420  128.7099  153.3911 C   0  0  0  0  0  0  0  0  0  0  0  0
  147.8008  129.6999  154.2945 C   0  0  0  0  0  0  0  0  0  0  0  0
  148.7163  130.2170  155.2501 O   0  0  0  0  0  0  0  0  0  0  0  0
  149.1007  131.5345  155.1337 C   0  0  0  0  0  0  0  0  0  0  0  0
  150.0593  132.1694  155.9621 C   0  0  0  0  0  0  0  0  0  0  0  0
  150.3571  133.5261  155.7323 C   0  0  0  0  0  0  0  0  0  0  0  0
  149.6899  134.2139  154.6997 C   0  0  0  0  0  0  0  0  0  0  0  0
  150.0222  135.5775  154.4785 N   0  0  0  0  0  0  0  0  0  0  0  0
  150.9524  136.3218  155.1043 C   0  0  0  0  0  0  0  0  0  0  0  0
  151.7053  135.9026  155.9836 O   0  0  0  0  0  0  0  0  0  0  0  0
  151.0645  137.7836  154.6416 C   0  0  2  0  0  0  0  0  0  0  0  0
  152.2996  138.4754  155.2481 C   0  0  0  0  0  0  0  0  0  0  0  0
  151.7183  139.5463  156.1546 C   0  0  0  0  0  0  0  0  0  0  0  0
  152.4231  140.2666  156.8602 O   0  0  0  0  0  0  0  0  0  0  0  0
  150.3822  139.5898  156.0684 N   0  0  0  0  0  0  0  0  0  0  0  0
  149.5195  140.5434  156.7813 C   0  0  0  0  0  0  0  0  0  0  0  0
  148.0325  140.3973  156.4128 C   0  0  0  0  0  0  0  0  0  0  0  0
  150.0228  141.9805  156.5728 C   0  0  0  0  0  0  0  0  0  0  0  0
  149.8601  138.6375  155.0947 C   0  0  0  0  0  0  0  0  0  0  0  0
  148.7595  133.4864  153.9197 C   0  0  0  0  0  0  0  0  0  0  0  0
  148.4705  132.1855  154.1325 N   0  0  0  0  0  0  0  0  0  0  0  0
  147.4752  126.7722  150.9463 H   0  0  0  0  0  0  0  0  0  0  0  0
  148.6056  126.3364  152.2282 H   0  0  0  0  0  0  0  0  0  0  0  0
  149.0358  127.5884  151.0485 H   0  0  0  0  0  0  0  0  0  0  0  0
  149.0200  127.9319  153.9884 H   0  0  0  0  0  0  0  0  0  0  0  0
  149.3278  129.2333  152.8445 H   0  0  0  0  0  0  0  0  0  0  0  0
  147.4127  130.5189  153.6869 H   0  0  0  0  0  0  0  0  0  0  0  0
  146.9566  129.2064  154.7785 H   0  0  0  0  0  0  0  0  0  0  0  0
  150.5673  131.6492  156.7597 H   0  0  0  0  0  0  0  0  0  0  0  0
  151.0865  134.0314  156.3487 H   0  0  0  0  0  0  0  0  0  0  0  0
  149.5381  136.0240  153.7132 H   0  0  0  0  0  0  0  0  0  0  0  0
  151.1323  137.8091  153.5524 H   0  0  0  0  0  0  0  0  0  0  0  0
  152.9437  137.8050  155.8198 H   0  0  0  0  0  0  0  0  0  0  0  0
  152.9072  138.9445  154.4737 H   0  0  0  0  0  0  0  0  0  0  0  0
  149.5928  140.3225  157.8477 H   0  0  0  0  0  0  0  0  0  0  0  0
  147.4148  141.0474  157.0330 H   0  0  0  0  0  0  0  0  0  0  0  0
  147.6864  139.3749  156.5678 H   0  0  0  0  0  0  0  0  0  0  0  0
  147.8440  140.6660  155.3729 H   0  0  0  0  0  0  0  0  0  0  0  0
  149.4233  142.6915  157.1420 H   0  0  0  0  0  0  0  0  0  0  0  0
  149.9724  142.2690  155.5225 H   0  0  0  0  0  0  0  0  0  0  0  0
  151.0575  142.0901  156.8989 H   0  0  0  0  0  0  0  0  0  0  0  0
  149.4345  139.1818  154.2508 H   0  0  0  0  0  0  0  0  0  0  0  0
  149.0638  138.0280  155.5244 H   0  0  0  0  0  0  0  0  0  0  0  0
  148.2394  133.9336  153.0869 H   0  0  0  0  0  0  0  0  0  0  0  0
  1  2  1  0  0  0  0
  1 24  1  0  0  0  0
  1 25  1  0  0  0  0
  1 26  1  0  0  0  0
  2  3  1  0  0  0  0
  3  4  1  0  0  0  0
  3 27  1  0  0  0  0
  3 28  1  0  0  0  0
  4  5  1  0  0  0  0
  4 29  1  0  0  0  0
  4 30  1  0  0  0  0
  5  6  1  0  0  0  0
  6 23  1  0  0  0  0
  6  7  2  0  0  0  0
  7  8  1  0  0  0  0
  7 31  1  0  0  0  0
  8  9  2  0  0  0  0
  8 32  1  0  0  0  0
  9 10  1  0  0  0  0
  9 22  1  0  0  0  0
 10 11  1  0  0  0  0
 10 33  1  0  0  0  0
 11 12  2  0  0  0  0
 11 13  1  0  0  0  0
 13 21  1  0  0  0  0
 13 14  1  0  0  0  0
 13 34  1  0  0  0  0
 14 15  1  0  0  0  0
 14 35  1  0  0  0  0
 14 36  1  0  0  0  0
 15 16  2  0  0  0  0
 15 17  1  0  0  0  0
 17 18  1  0  0  0  0
 17 21  1  0  0  0  0
 18 19  1  0  0  0  0
 18 20  1  0  0  0  0
 18 37  1  0  0  0  0
 19 38  1  0  0  0  0
 19 39  1  0  0  0  0
 19 40  1  0  0  0  0
 20 41  1  0  0  0  0
 20 42  1  0  0  0  0
 20 43  1  0  0  0  0
 21 44  1  0  0  0  0
 21 45  1  0  0  0  0
 22 23  2  0  0  0  0
 22 46  1  0  0  0  0
M  END
> <s_m_source_file>
AV-unprocessed.smi

> <i_m_source_file_index>
2138

> <i_lp_mmshare_version>
43012

> <i_f3d_flags>
0

> <s_epik_input>
W0NIM11PW0NIMl1bQ0gyXU9jMVtjSF1bY0hdYyhbY0hdbjEpW05IXUMoPU8pW0NAQEhdMltDSDJdQyg9TylOKFtDSDJdMilbQ0hdKFtDSDNdKVtDSDNd

> <s_epik_cmdline>
J2VwaWtfcHl0aG9uJywgJy1waCcsICc3LjAnLCAnLXRuJywgJzgnLCAnLW1hJywgJzIwMCcsICctbWV0YWxfYmluZGluZycsICctaW1hZScsICc8aW5maWxlLm1hZT4nLCAnLW9tYWUnLCAnPG91dGZpbGUubWFlPic=

> <r_lp_tautomer_probability>
1

> <r_epik_Ionization_Penalty>
1.72652e-05

> <r_epik_Ionization_Penalty_Charging>
0

> <r_epik_Ionization_Penalty_Neutral>
1.72652e-05

> <r_epik_State_Penalty>
-0

> <r_epik_Charging_Adjusted_Penalty>
0

> <i_epik_Tot_Q>
0

> <i_epik_Tot_abs_Q>
0

> <r_epik_Metal_State_Penalty>
-0

> <b_epik_Metal_Only>
0

> <s_lp_Force_Field>
OPLS_2005

> <r_lp_Energy>
27.6576

> <b_lp_Chiralities_Consistent>
1

> <s_lp_Variant>
AV-unprocessed.smi:2138-1

> <Gold.Version>
5.8.1

> <Gold.Id.Protein>
6NUR|6NUR_protein|mol2

> <Gold.PLP.Fitness>
46.4966

> <Gold.PLP.PLP>
-36.3632

> <Gold.PLP.part.hbond>
-3.7495

> <Gold.PLP.part.metal>
0.0000

> <Gold.PLP.part.buried>
-2.1574

> <Gold.PLP.part.nonpolar>
-30.4828

> <Gold.PLP.part.repulsive>
0.3222

> <Gold.PLP.ligand.clash>
0.2246

> <Gold.PLP.ligand.torsion>
0.6179

> <Gold.PLP.Chemscore.Hbond>
2.9760

> <Gold.PLP.Chemscore.CHOScore>
0.8409

> <Gold.PLP.Chemscore.Metal>
0.0000

> <Gold.Chemscore.Hbonds>
donor molecule, donor type, donor heavy atom, donor atom, acceptor molecule, acceptor atom, score
      L1  H    10    33       P1  7948  1.00
      P1  H  7997  8009       L1    16  1.00
      P1  H 10752 10763       L1    12  1.00
      L1  C    22    46       P1  7948  0.59

> <Gold.PLP.Chemscore.Internal.Correction>
0.1432

> <Gold.Rescore>
     Score         DG    S(hbond)    S(metal)    S(lipo)     H(rot)  DE(clash)    DE(int)     intcor
     13.28     -16.85       2.47        0.00      70.45       2.00       0.10       3.47       ----

> <Gold.Chemscore.Fitness>
13.2822

> <Gold.Chemscore.DG>
-16.8491

> <Gold.Chemscore.ZeroCoef>
-5.4800

> <Gold.Chemscore.Hbond>
2.4718

> <Gold.Chemscore.Metal>
0.0000

> <Gold.Chemscore.Lipo>
70.4464

> <Gold.Chemscore.Internal_Hbond>
0.0000

> <Gold.Chemscore.DEClash>
0.0998

> <Gold.Chemscore.DEInternal>
3.4671

> <Gold.Chemscore.Rot>
2.0035

> <Gold.Chemscore.Internal.Correction>
   9.000000E+99

> <Gold.Chemscore.Hbonds>
donor molecule, donor type, donor heavy atom, donor atom, acceptor molecule, acceptor atom, score
      L1  H    10    33       P1  7948  0.44
      P1  H  7997  8009       L1    16  0.86
      P1  H 10752 10763       L1    12  0.50

> <Gold.Chemscore.Hbond.Weighted>
-8.2559

> <Gold.Chemscore.Metal.Weighted>
-0.0000

> <Gold.Chemscore.Lipo.Weighted>
-8.2422

> <Gold.Chemscore.Internal_Hbond.Weighted>
0.0000

> <Gold.Chemscore.DEClash.Weighted>
0.0998

> <Gold.Chemscore.DEInternal.Weighted>
3.4671

> <Gold.Chemscore.Rot.Weighted>
5.1290

> <Gold.Chemscore.Internal.Correction.Weighted>
   9.000000E+99

> <Gold.Protein.RotatedTorsions>
[ 6907 6896 6895 6894 ] final   25.45 input  -60.11 | X-H torsion
[ 7974 7965 7964 7962 ] final  -13.48 input  175.53 | X-H torsion
[ 8008 7997 7996 7995 ] final -171.82 input   59.86 | X-H torsion
[ 10167 10162 10161 10158 ] final  178.61 input  -65.29 | X-H torsion
[ 10718 10713 10712 10709 ] final  129.13 input   66.30 | X-H torsion
[ 10763 10752 10751 10750 ] final   96.56 input  -60.55 | X-H torsion
[ 11005 11000 10999 10996 ] final  146.63 input  -57.11 | X-H torsion

> <Gold.Protein.ActiveResidues>
 VAL166  LYS551  ARG553  GLY616  TRP617  ASP618  TYR619  PRO620  LYS621  CYS622 
 ASP623  PHE694  ASN695  SER759  ASP760  ASP761  ALA762  ILE779  LEU786  VAL792 
 PHE793  MET794  SER795  GLU796  ALA797  LYS798  CYS799  TRP800  GLU811  SER814 

> <Gold.Protein.RotatedAtoms>
  151.9726  135.0069  160.0553 H   0  0  0  0  0  0  0  0  0  0  0  0  # atno 6907 bound_to 6896
  152.1769  133.4676  159.4946 H   0  0  0  0  0  0  0  0  0  0  0  0  # atno 6908 bound_to 6896
  150.6911  134.1800  159.4288 H   0  0  0  0  0  0  0  0  0  0  0  0  # atno 6909 bound_to 6896
  146.2112  140.3209  142.8390 H   0  0  0  0  0  0  0  0  0  0  0  0  # atno 7974 bound_to 7965
  155.9365  140.1101  157.1090 H   0  0  0  0  0  0  0  0  0  0  0  0  # atno 8008 bound_to 7997
  154.4081  140.1227  156.4937 H   0  0  0  0  0  0  0  0  0  0  0  0  # atno 8009 bound_to 7997
  155.7015  140.3472  155.4937 H   0  0  0  0  0  0  0  0  0  0  0  0  # atno 8010 bound_to 7997
  139.5301  144.2660  152.0667 H   0  0  0  0  0  0  0  0  0  0  0  0  # atno 10167 bound_to 10162
  157.5182  131.1098  150.9193 H   0  0  0  0  0  0  0  0  0  0  0  0  # atno 10718 bound_to 10713
  153.2664  135.4214  155.0945 H   0  0  0  0  0  0  0  0  0  0  0  0  # atno 10763 bound_to 10752
  154.8440  135.3461  154.6305 H   0  0  0  0  0  0  0  0  0  0  0  0  # atno 10764 bound_to 10752
  153.6725  135.7043  153.5200 H   0  0  0  0  0  0  0  0  0  0  0  0  # atno 10765 bound_to 10752
  140.0809  134.9098  157.1499 H   0  0  0  0  0  0  0  0  0  0  0  0  # atno 11005 bound_to 11000
  144.8920  140.7536  143.5920 LP  0  0  0  0  0  0  0  0  0  0  0  0  # atno 17320 bound_to 7965
  145.3132  139.1812  143.4627 LP  0  0  0  0  0  0  0  0  0  0  0  0  # atno 17321 bound_to 7965
  140.2122  144.4551  150.6380 LP  0  0  0  0  0  0  0  0  0  0  0  0  # atno 17342 bound_to 10162
  140.6473  143.2216  151.6157 LP  0  0  0  0  0  0  0  0  0  0  0  0  # atno 17343 bound_to 10162
  156.9811  130.5527  149.5296 LP  0  0  0  0  0  0  0  0  0  0  0  0  # atno 17370 bound_to 10713
  156.0335  130.5424  150.8595 LP  0  0  0  0  0  0  0  0  0  0  0  0  # atno 17371 bound_to 10713
  140.3489  134.2620  155.7201 LP  0  0  0  0  0  0  0  0  0  0  0  0  # atno 17394 bound_to 11000
  141.2046  133.7882  157.0277 LP  0  0  0  0  0  0  0  0  0  0  0  0  # atno 17395 bound_to 11000

$$$$
