AV-unprocessed.smi:2024|AV-procd|sdf|8194|dock7
  -GOLD-   2272010453D 1   1.00000     0.00000
 Structure written by MMmdl.
 43 44  0  0  0  0  0  0  0  0  3 V2000
  146.6045  139.3007  151.8236 C   0  0  0  0  0  0  0  0  0  0  0  0
  146.3409  139.5294  153.2628 N   0  3  0  0  0  0  0  0  0  0  0  0
  147.1041  140.6610  153.8387 C   0  0  0  0  0  0  0  0  0  0  0  0
  148.5755  140.2820  154.1111 C   0  0  0  0  0  0  0  0  0  0  0  0
  148.6295  139.1348  155.0295 N   0  0  0  0  0  0  0  0  0  0  0  0
  149.9555  138.8281  155.6261 C   0  0  0  0  0  0  0  0  0  0  0  0
  151.0490  138.7075  154.5390 C   0  0  0  0  0  0  0  0  0  0  0  0
  150.3731  139.9420  156.6204 C   0  0  0  0  0  0  0  0  0  0  0  0
  149.8692  137.4940  156.4280 C   0  0  0  0  0  0  0  0  0  0  0  0
  148.8523  137.5364  157.4808 N   0  0  0  0  0  0  0  0  0  0  0  0
  148.6902  136.6469  158.4713 C   0  0  0  0  0  0  0  0  0  0  0  0
  149.5008  135.7296  158.6198 O   0  0  0  0  0  0  0  0  0  0  0  0
  147.5838  136.8609  159.2179 N   0  5  0  0  0  0  0  0  0  0  0  0
  147.5048  136.3503  160.4574 C   0  0  0  0  0  0  0  0  0  0  0  0
  147.4629  137.1084  161.5587 N   0  0  0  0  0  0  0  0  0  0  0  0
  147.3761  136.3675  162.7389 C   0  0  0  0  0  0  0  0  0  0  0  0
  147.3448  135.0140  162.5306 C   0  0  0  0  0  0  0  0  0  0  0  0
  147.4216  134.6267  160.8353 S   0  0  0  0  0  0  0  0  0  0  0  0
  147.9859  138.0013  154.3471 C   0  0  0  0  0  0  0  0  0  0  0  0
  146.4989  138.3191  154.1014 C   0  0  0  0  0  0  0  0  0  0  0  0
  147.6419  139.0225  151.6385 H   0  0  0  0  0  0  0  0  0  0  0  0
  146.3883  140.2019  151.2491 H   0  0  0  0  0  0  0  0  0  0  0  0
  145.9657  138.5043  151.4407 H   0  0  0  0  0  0  0  0  0  0  0  0
  147.0473  141.5256  153.1765 H   0  0  0  0  0  0  0  0  0  0  0  0
  146.6276  140.9593  154.7740 H   0  0  0  0  0  0  0  0  0  0  0  0
  149.1052  140.0614  153.1840 H   0  0  0  0  0  0  0  0  0  0  0  0
  149.0482  141.1609  154.5440 H   0  0  0  0  0  0  0  0  0  0  0  0
  152.0278  138.5479  154.9924 H   0  0  0  0  0  0  0  0  0  0  0  0
  151.1220  139.6095  153.9313 H   0  0  0  0  0  0  0  0  0  0  0  0
  150.8756  137.8656  153.8687 H   0  0  0  0  0  0  0  0  0  0  0  0
  151.2329  139.6337  157.2161 H   0  0  0  0  0  0  0  0  0  0  0  0
  149.5706  140.1899  157.3167 H   0  0  0  0  0  0  0  0  0  0  0  0
  150.6731  140.8594  156.1135 H   0  0  0  0  0  0  0  0  0  0  0  0
  149.7312  136.6299  155.7783 H   0  0  0  0  0  0  0  0  0  0  0  0
  150.8237  137.3074  156.9209 H   0  0  0  0  0  0  0  0  0  0  0  0
  148.1670  138.2746  157.4142 H   0  0  0  0  0  0  0  0  0  0  0  0
  147.3400  136.8878  163.6846 H   0  0  0  0  0  0  0  0  0  0  0  0
  147.2790  134.2263  163.2657 H   0  0  0  0  0  0  0  0  0  0  0  0
  148.4914  137.7802  153.4067 H   0  0  0  0  0  0  0  0  0  0  0  0
  148.0395  137.0930  154.9417 H   0  0  0  0  0  0  0  0  0  0  0  0
  145.9967  138.4846  155.0562 H   0  0  0  0  0  0  0  0  0  0  0  0
  145.9979  137.4711  153.6334 H   0  0  0  0  0  0  0  0  0  0  0  0
  145.3658  139.7866  153.3194 H   0  0  0  0  0  0  0  0  0  0  0  0
  1  2  1  0  0  0  0
  1 21  1  0  0  0  0
  1 22  1  0  0  0  0
  1 23  1  0  0  0  0
  2 20  1  0  0  0  0
  2  3  1  0  0  0  0
  2 43  1  0  0  0  0
  3  4  1  0  0  0  0
  3 24  1  0  0  0  0
  3 25  1  0  0  0  0
  4  5  1  0  0  0  0
  4 26  1  0  0  0  0
  4 27  1  0  0  0  0
  5  6  1  0  0  0  0
  5 19  1  0  0  0  0
  6  7  1  0  0  0  0
  6  8  1  0  0  0  0
  6  9  1  0  0  0  0
  7 28  1  0  0  0  0
  7 29  1  0  0  0  0
  7 30  1  0  0  0  0
  8 31  1  0  0  0  0
  8 32  1  0  0  0  0
  8 33  1  0  0  0  0
  9 10  1  0  0  0  0
  9 34  1  0  0  0  0
  9 35  1  0  0  0  0
 10 11  1  0  0  0  0
 10 36  1  0  0  0  0
 11 12  2  0  0  0  0
 11 13  1  0  0  0  0
 13 14  1  0  0  0  0
 14 18  1  0  0  0  0
 14 15  2  0  0  0  0
 15 16  1  0  0  0  0
 16 17  2  0  0  0  0
 16 37  1  0  0  0  0
 17 18  1  0  0  0  0
 17 38  1  0  0  0  0
 19 20  1  0  0  0  0
 19 39  1  0  0  0  0
 19 40  1  0  0  0  0
 20 41  1  0  0  0  0
 20 42  1  0  0  0  0
M  CHG  1   2   1
M  CHG  1  13  -1
M  END
> <s_m_source_file>
AV-unprocessed.smi

> <i_m_source_file_index>
2024

> <i_lp_mmshare_version>
43012

> <i_f3d_flags>
0

> <s_epik_input>
W0NIM11OMVtDSDJdW0NIMl1OKFtDSDJdW0NIMl0xKUMoW0NIM10pKFtDSDNdKVtDSDJdW05IXUMoPU8pW05IXWMybltjSF1bY0hdczI=

> <s_epik_cmdline>
J2VwaWtfcHl0aG9uJywgJy1waCcsICc3LjAnLCAnLXRuJywgJzgnLCAnLW1hJywgJzIwMCcsICctbWV0YWxfYmluZGluZycsICctaW1hZScsICc8aW5maWxlLm1hZT4nLCAnLW9tYWUnLCAnPG91dGZpbGUubWFlPic=

> <r_lp_tautomer_probability>
0.999

> <r_epik_Ionization_Penalty>
7.04933

> <r_epik_Ionization_Penalty_Charging>
5.90256

> <r_epik_Ionization_Penalty_Neutral>
1.14676

> <r_epik_State_Penalty>
6.00717

> <r_epik_Charging_Adjusted_Penalty>
11.9097

> <i_epik_Tot_Q>
0

> <i_epik_Tot_abs_Q>
2

> <r_epik_Metal_State_Penalty>
1.97542

> <b_epik_Metal_Only>
1

> <s_lp_Force_Field>
OPLS_2005

> <r_lp_Energy>
14.8551

> <b_lp_Chiralities_Consistent>
1

> <s_lp_Variant>
AV-unprocessed.smi:2024-4

> <Gold.Version>
5.8.1

> <Gold.Id.Protein>
6NUR|6NUR_protein|mol2

> <Gold.PLP.Fitness>
44.6998

> <Gold.PLP.PLP>
-32.2949

> <Gold.PLP.part.hbond>
-4.0000

> <Gold.PLP.part.metal>
0.0000

> <Gold.PLP.part.buried>
-1.9286

> <Gold.PLP.part.nonpolar>
-26.4107

> <Gold.PLP.part.repulsive>
0.1162

> <Gold.PLP.ligand.clash>
0.0000

> <Gold.PLP.ligand.torsion>
0.9895

> <Gold.PLP.Chemscore.Hbond>
4.7760

> <Gold.PLP.Chemscore.CHOScore>
0.0000

> <Gold.PLP.Chemscore.Metal>
0.0000

> <Gold.Chemscore.Hbonds>
donor molecule, donor type, donor heavy atom, donor atom, acceptor molecule, acceptor atom, score
      L1  H     2    43       P1 10175  2.00
      P1  H  6896  6909       L1    12  1.00
      P1  H  6931  6943       L1    15  0.98
      P1  H  6934  6947       L1    15  0.86

> <Gold.PLP.Chemscore.Internal.Correction>
0.0558

> <Gold.Rescore>
     Score         DG    S(hbond)    S(metal)    S(lipo)     H(rot)  DE(clash)    DE(int)     intcor
     18.41     -19.53       2.75        0.00      76.01       1.57       0.18       0.95       ----

> <Gold.Chemscore.Fitness>
18.4097

> <Gold.Chemscore.DG>
-19.5331

> <Gold.Chemscore.ZeroCoef>
-5.4800

> <Gold.Chemscore.Hbond>
2.7466

> <Gold.Chemscore.Metal>
0.0000

> <Gold.Chemscore.Lipo>
76.0106

> <Gold.Chemscore.Internal_Hbond>
0.0000

> <Gold.Chemscore.DEClash>
0.1778

> <Gold.Chemscore.DEInternal>
0.9456

> <Gold.Chemscore.Rot>
1.5678

> <Gold.Chemscore.Internal.Correction>
   9.000000E+99

> <Gold.Chemscore.Hbonds>
donor molecule, donor type, donor heavy atom, donor atom, acceptor molecule, acceptor atom, score
      L1  H     2    43       P1 10175  0.91
      P1  H  6896  6909       L1    12  1.00
      P1  H  6931  6943       L1    15  0.30
      P1  H  6934  6947       L1    15  0.48

> <Gold.Chemscore.Hbond.Weighted>
-9.1735

> <Gold.Chemscore.Metal.Weighted>
-0.0000

> <Gold.Chemscore.Lipo.Weighted>
-8.8932

> <Gold.Chemscore.Internal_Hbond.Weighted>
0.0000

> <Gold.Chemscore.DEClash.Weighted>
0.1778

> <Gold.Chemscore.DEInternal.Weighted>
0.9456

> <Gold.Chemscore.Rot.Weighted>
4.0136

> <Gold.Chemscore.Internal.Correction.Weighted>
   9.000000E+99

> <Gold.Protein.RotatedTorsions>
[ 6907 6896 6895 6894 ] final   61.25 input  -60.11 | X-H torsion
[ 7974 7965 7964 7962 ] final -177.01 input  175.53 | X-H torsion
[ 8008 7997 7996 7995 ] final  171.50 input   59.86 | X-H torsion
[ 10167 10162 10161 10158 ] final  122.38 input  -65.29 | X-H torsion
[ 10718 10713 10712 10709 ] final  -90.93 input   66.30 | X-H torsion
[ 10763 10752 10751 10750 ] final  -47.39 input  -60.55 | X-H torsion
[ 11005 11000 10999 10996 ] final  173.85 input  -57.11 | X-H torsion

> <Gold.Protein.ActiveResidues>
 VAL166  LYS551  ARG553  GLY616  TRP617  ASP618  TYR619  PRO620  LYS621  CYS622 
 ASP623  PHE694  ASN695  SER759  ASP760  ASP761  ALA762  ILE779  LEU786  VAL792 
 PHE793  MET794  SER795  GLU796  ALA797  LYS798  CYS799  TRP800  GLU811  SER814 

> <Gold.Protein.RotatedAtoms>
  152.4073  134.6185  160.0044 H   0  0  0  0  0  0  0  0  0  0  0  0  # atno 6907 bound_to 6896
  151.6373  133.3322  159.3130 H   0  0  0  0  0  0  0  0  0  0  0  0  # atno 6908 bound_to 6896
  150.7967  134.7072  159.6628 H   0  0  0  0  0  0  0  0  0  0  0  0  # atno 6909 bound_to 6896
  144.7127  140.1083  143.6412 H   0  0  0  0  0  0  0  0  0  0  0  0  # atno 7974 bound_to 7965
  156.1265  140.1510  156.9128 H   0  0  0  0  0  0  0  0  0  0  0  0  # atno 8008 bound_to 7997
  154.4875  140.0861  156.7561 H   0  0  0  0  0  0  0  0  0  0  0  0  # atno 8009 bound_to 7997
  155.4334  140.3428  155.4284 H   0  0  0  0  0  0  0  0  0  0  0  0  # atno 8010 bound_to 7997
  139.5862  144.7007  151.3403 H   0  0  0  0  0  0  0  0  0  0  0  0  # atno 10167 bound_to 10162
  155.9990  130.4928  150.5397 H   0  0  0  0  0  0  0  0  0  0  0  0  # atno 10718 bound_to 10713
  154.0606  135.6618  153.4811 H   0  0  0  0  0  0  0  0  0  0  0  0  # atno 10763 bound_to 10752
  153.0428  135.5134  154.7663 H   0  0  0  0  0  0  0  0  0  0  0  0  # atno 10764 bound_to 10752
  154.6698  135.3028  154.9724 H   0  0  0  0  0  0  0  0  0  0  0  0  # atno 10765 bound_to 10752
  140.3449  134.7244  157.4228 H   0  0  0  0  0  0  0  0  0  0  0  0  # atno 11005 bound_to 11000
  145.9477  139.2712  143.1231 LP  0  0  0  0  0  0  0  0  0  0  0  0  # atno 17320 bound_to 7965
  145.9356  140.9017  143.0334 LP  0  0  0  0  0  0  0  0  0  0  0  0  # atno 17321 bound_to 7965
  140.7133  143.7332  150.7608 LP  0  0  0  0  0  0  0  0  0  0  0  0  # atno 17342 bound_to 10162
  140.0877  143.4907  152.2495 LP  0  0  0  0  0  0  0  0  0  0  0  0  # atno 17343 bound_to 10162
  157.3335  131.0704  151.1843 LP  0  0  0  0  0  0  0  0  0  0  0  0  # atno 17370 bound_to 10713
  157.2715  130.6706  149.6022 LP  0  0  0  0  0  0  0  0  0  0  0  0  # atno 17371 bound_to 10713
  140.0750  134.5810  155.8601 LP  0  0  0  0  0  0  0  0  0  0  0  0  # atno 17394 bound_to 11000
  141.2028  133.6627  156.6027 LP  0  0  0  0  0  0  0  0  0  0  0  0  # atno 17395 bound_to 11000

$$$$
