AV-unprocessed.smi:2927|AV-procd|sdf|11230|dock1
  -GOLD-   2272016123D 1   1.00000     0.00000
 Structure written by MMmdl.
 54 55  0  0  0  0  0  0  0  0  1 V2000
  152.9488  138.5546  155.3837 C   0  0  0  0  0  0  0  0  0  0  0  0
  151.7272  138.0008  156.1047 C   0  0  0  0  0  0  0  0  0  0  0  0
  151.6004  136.6692  156.2623 C   0  0  0  0  0  0  0  0  0  0  0  0
  150.4668  136.0551  156.9472 C   0  0  0  0  0  0  0  0  0  0  0  0
  150.3862  134.8321  157.0732 O   0  0  0  0  0  0  0  0  0  0  0  0
  149.5205  136.9117  157.4444 N   0  0  0  0  0  0  0  0  0  0  0  0
  148.4088  136.3195  158.2292 C   0  0  0  0  0  0  0  0  0  0  0  0
  148.5269  136.5627  159.7425 C   0  0  0  0  0  0  0  0  0  0  0  0
  149.5117  137.1310  160.2165 O   0  0  0  0  0  0  0  0  0  0  0  0
  147.5104  136.1073  160.4909 N   0  0  0  0  0  0  0  0  0  0  0  0
  147.4097  136.2248  161.9428 C   0  0  0  0  0  0  0  0  0  0  0  0
  147.2295  134.8392  162.5828 C   0  0  0  0  0  0  0  0  0  0  0  0
  146.2548  137.1699  162.2991 C   0  0  0  0  0  0  0  0  0  0  0  0
  149.5960  138.3247  157.2495 C   0  0  0  0  0  0  0  0  0  0  0  0
  148.4021  139.1545  157.7492 C   0  0  0  0  0  0  0  0  0  0  0  0
  150.6755  138.8657  156.6254 C   0  0  0  0  0  0  0  0  0  0  0  0
  150.7766  140.3072  156.4012 C   0  0  0  0  0  0  0  0  0  0  0  0
  150.6909  140.8086  155.2796 O   0  0  0  0  0  0  0  0  0  0  0  0
  150.9478  141.0546  157.5240 N   0  0  0  0  0  0  0  0  0  0  0  0
  151.1875  140.4840  158.8584 C   0  0  0  0  0  0  0  0  0  0  0  0
  150.9376  142.5238  157.4558 C   0  0  0  0  0  0  0  0  0  0  0  0
  152.0768  143.1355  158.2785 C   0  0  0  0  0  0  0  0  0  0  0  0
  151.8762  143.3082  159.7920 C   0  0  0  0  0  0  0  0  0  0  0  0
  151.5671  144.7860  159.5429 C   0  0  0  0  0  0  0  0  0  0  0  0
  152.3182  144.6532  158.2169 C   0  0  0  0  0  0  0  0  0  0  0  0
  153.6452  137.7639  155.1025 H   0  0  0  0  0  0  0  0  0  0  0  0
  153.4850  139.2570  156.0225 H   0  0  0  0  0  0  0  0  0  0  0  0
  152.6502  139.0741  154.4728 H   0  0  0  0  0  0  0  0  0  0  0  0
  152.3688  136.0157  155.8752 H   0  0  0  0  0  0  0  0  0  0  0  0
  147.4516  136.7226  157.8928 H   0  0  0  0  0  0  0  0  0  0  0  0
  148.2945  135.2524  158.0446 H   0  0  0  0  0  0  0  0  0  0  0  0
  146.7437  135.6506  160.0184 H   0  0  0  0  0  0  0  0  0  0  0  0
  148.3298  136.6678  162.3284 H   0  0  0  0  0  0  0  0  0  0  0  0
  147.1582  134.9159  163.6681 H   0  0  0  0  0  0  0  0  0  0  0  0
  148.0727  134.1859  162.3563 H   0  0  0  0  0  0  0  0  0  0  0  0
  146.3234  134.3502  162.2239 H   0  0  0  0  0  0  0  0  0  0  0  0
  146.1788  137.3052  163.3783 H   0  0  0  0  0  0  0  0  0  0  0  0
  145.2991  136.7823  161.9442 H   0  0  0  0  0  0  0  0  0  0  0  0
  146.4018  138.1548  161.8544 H   0  0  0  0  0  0  0  0  0  0  0  0
  148.3010  140.1055  157.2279 H   0  0  0  0  0  0  0  0  0  0  0  0
  148.5123  139.3730  158.8116 H   0  0  0  0  0  0  0  0  0  0  0  0
  147.4480  138.6545  157.5919 H   0  0  0  0  0  0  0  0  0  0  0  0
  150.3155  139.9301  159.2062 H   0  0  0  0  0  0  0  0  0  0  0  0
  151.3979  141.2413  159.6134 H   0  0  0  0  0  0  0  0  0  0  0  0
  152.0412  139.8054  158.8435 H   0  0  0  0  0  0  0  0  0  0  0  0
  150.9948  142.8685  156.4230 H   0  0  0  0  0  0  0  0  0  0  0  0
  149.9769  142.8995  157.8116 H   0  0  0  0  0  0  0  0  0  0  0  0
  153.0157  142.6096  158.0985 H   0  0  0  0  0  0  0  0  0  0  0  0
  151.0481  142.7375  160.2134 H   0  0  0  0  0  0  0  0  0  0  0  0
  152.7962  143.1597  160.3600 H   0  0  0  0  0  0  0  0  0  0  0  0
  150.5017  144.9792  159.4084 H   0  0  0  0  0  0  0  0  0  0  0  0
  152.0189  145.4745  160.2575 H   0  0  0  0  0  0  0  0  0  0  0  0
  153.3740  144.9159  158.3022 H   0  0  0  0  0  0  0  0  0  0  0  0
  151.8461  145.1651  157.3780 H   0  0  0  0  0  0  0  0  0  0  0  0
  1  2  1  0  0  0  0
  1 26  1  0  0  0  0
  1 27  1  0  0  0  0
  1 28  1  0  0  0  0
  2 16  1  0  0  0  0
  2  3  2  0  0  0  0
  3  4  1  0  0  0  0
  3 29  1  0  0  0  0
  4  5  2  0  0  0  0
  4  6  1  0  0  0  0
  6  7  1  0  0  0  0
  6 14  1  0  0  0  0
  7  8  1  0  0  0  0
  7 30  1  0  0  0  0
  7 31  1  0  0  0  0
  8  9  2  0  0  0  0
  8 10  1  0  0  0  0
 10 11  1  0  0  0  0
 10 32  1  0  0  0  0
 11 12  1  0  0  0  0
 11 13  1  0  0  0  0
 11 33  1  0  0  0  0
 12 34  1  0  0  0  0
 12 35  1  0  0  0  0
 12 36  1  0  0  0  0
 13 37  1  0  0  0  0
 13 38  1  0  0  0  0
 13 39  1  0  0  0  0
 14 15  1  0  0  0  0
 14 16  2  0  0  0  0
 15 40  1  0  0  0  0
 15 41  1  0  0  0  0
 15 42  1  0  0  0  0
 16 17  1  0  0  0  0
 17 18  2  0  0  0  0
 17 19  1  0  0  0  0
 19 20  1  0  0  0  0
 19 21  1  0  0  0  0
 20 43  1  0  0  0  0
 20 44  1  0  0  0  0
 20 45  1  0  0  0  0
 21 22  1  0  0  0  0
 21 46  1  0  0  0  0
 21 47  1  0  0  0  0
 22 25  1  0  0  0  0
 22 23  1  0  0  0  0
 22 48  1  0  0  0  0
 23 24  1  0  0  0  0
 23 49  1  0  0  0  0
 23 50  1  0  0  0  0
 24 25  1  0  0  0  0
 24 51  1  0  0  0  0
 24 52  1  0  0  0  0
 25 53  1  0  0  0  0
 25 54  1  0  0  0  0
M  END
> <s_m_source_file>
AV-unprocessed.smi

> <i_m_source_file_index>
2927

> <i_lp_mmshare_version>
43012

> <i_f3d_flags>
0

> <s_epik_input>
W0NIM11bQ0hdKFtDSDNdKVtOSF1DKD1PKVtDSDJdbihjKD1PKVtjSF1jMVtDSDNdKWMoW0NIM10pYzFDKD1PKU4oW0NIM10pW0NIMl1bQ0hdMltDSDJdW0NIMl1bQ0gyXTI=

> <s_epik_cmdline>
J2VwaWtfcHl0aG9uJywgJy1waCcsICc3LjAnLCAnLXRuJywgJzgnLCAnLW1hJywgJzIwMCcsICctbWV0YWxfYmluZGluZycsICctaW1hZScsICc8aW5maWxlLm1hZT4nLCAnLW9tYWUnLCAnPG91dGZpbGUubWFlPic=

> <r_lp_tautomer_probability>
1

> <r_epik_Ionization_Penalty>
4.54151e-08

> <r_epik_Ionization_Penalty_Charging>
2.47394e-08

> <r_epik_Ionization_Penalty_Neutral>
2.06757e-08

> <r_epik_State_Penalty>
-0

> <r_epik_Charging_Adjusted_Penalty>
2.47394e-08

> <i_epik_Tot_Q>
0

> <i_epik_Tot_abs_Q>
0

> <r_epik_Metal_State_Penalty>
-0

> <b_epik_Metal_Only>
0

> <s_lp_Force_Field>
OPLS_2005

> <r_lp_Energy>
49.3499

> <b_lp_Chiralities_Consistent>
1

> <s_lp_Variant>
AV-unprocessed.smi:2927-1

> <Gold.Version>
5.8.1

> <Gold.Id.Protein>
6NUR|6NUR_protein|mol2

> <Gold.PLP.Fitness>
50.9587

> <Gold.PLP.PLP>
-48.2771

> <Gold.PLP.part.hbond>
-2.7837

> <Gold.PLP.part.metal>
0.0000

> <Gold.PLP.part.buried>
-6.0180

> <Gold.PLP.part.nonpolar>
-40.0689

> <Gold.PLP.part.repulsive>
0.2200

> <Gold.PLP.ligand.clash>
0.0000

> <Gold.PLP.ligand.torsion>
1.8465

> <Gold.PLP.Chemscore.Hbond>
1.2160

> <Gold.PLP.Chemscore.CHOScore>
0.0000

> <Gold.PLP.Chemscore.Metal>
0.0000

> <Gold.Chemscore.Hbonds>
donor molecule, donor type, donor heavy atom, donor atom, acceptor molecule, acceptor atom, score
      P1  H  6931  6943       L1     9  0.40
      P1  H  7989  7998       L1    18  0.83

> <Gold.PLP.Chemscore.Internal.Correction>
2.7266

> <Gold.Rescore>
     Score         DG    S(hbond)    S(metal)    S(lipo)     H(rot)  DE(clash)    DE(int)     intcor
     16.94     -18.92       1.06        0.00     119.83       1.62       0.07       1.91       ----

> <Gold.Chemscore.Fitness>
16.9353

> <Gold.Chemscore.DG>
-18.9157

> <Gold.Chemscore.ZeroCoef>
-5.4800

> <Gold.Chemscore.Hbond>
1.0645

> <Gold.Chemscore.Metal>
0.0000

> <Gold.Chemscore.Lipo>
119.8323

> <Gold.Chemscore.Internal_Hbond>
0.0000

> <Gold.Chemscore.DEClash>
0.0740

> <Gold.Chemscore.DEInternal>
1.9065

> <Gold.Chemscore.Rot>
1.6172

> <Gold.Chemscore.Internal.Correction>
   9.000000E+99

> <Gold.Chemscore.Hbonds>
donor molecule, donor type, donor heavy atom, donor atom, acceptor molecule, acceptor atom, score
      P1  H  6931  6943       L1     9  0.33
      P1  H  7989  7998       L1    18  0.78

> <Gold.Chemscore.Hbond.Weighted>
-3.5554

> <Gold.Chemscore.Metal.Weighted>
-0.0000

> <Gold.Chemscore.Lipo.Weighted>
-14.0204

> <Gold.Chemscore.Internal_Hbond.Weighted>
0.0000

> <Gold.Chemscore.DEClash.Weighted>
0.0740

> <Gold.Chemscore.DEInternal.Weighted>
1.9065

> <Gold.Chemscore.Rot.Weighted>
4.1400

> <Gold.Chemscore.Internal.Correction.Weighted>
   9.000000E+99

> <Gold.Protein.RotatedTorsions>
[ 6907 6896 6895 6894 ] final   62.17 input  -60.11 | X-H torsion
[ 7974 7965 7964 7962 ] final   77.39 input  175.53 | X-H torsion
[ 8008 7997 7996 7995 ] final   -5.05 input   59.86 | X-H torsion
[ 10167 10162 10161 10158 ] final   29.45 input  -65.29 | X-H torsion
[ 10718 10713 10712 10709 ] final   94.29 input   66.30 | X-H torsion
[ 10763 10752 10751 10750 ] final   73.31 input  -60.55 | X-H torsion
[ 11005 11000 10999 10996 ] final  102.73 input  -57.11 | X-H torsion

> <Gold.Protein.ActiveResidues>
 VAL166  LYS551  ARG553  GLY616  TRP617  ASP618  TYR619  PRO620  LYS621  CYS622 
 ASP623  PHE694  ASN695  SER759  ASP760  ASP761  ALA762  ILE779  LEU786  VAL792 
 PHE793  MET794  SER795  GLU796  ALA797  LYS798  CYS799  TRP800  GLU811  SER814 

> <Gold.Protein.RotatedAtoms>
  152.4149  134.6058  160.0012 H   0  0  0  0  0  0  0  0  0  0  0  0  # atno 6907 bound_to 6896
  151.6225  133.3332  159.3099 H   0  0  0  0  0  0  0  0  0  0  0  0  # atno 6908 bound_to 6896
  150.8039  134.7190  159.6692 H   0  0  0  0  0  0  0  0  0  0  0  0  # atno 6909 bound_to 6896
  145.6906  139.2551  143.1762 H   0  0  0  0  0  0  0  0  0  0  0  0  # atno 7974 bound_to 7965
  154.6079  140.2468  155.7707 H   0  0  0  0  0  0  0  0  0  0  0  0  # atno 8008 bound_to 7997
  156.2352  140.2952  156.0245 H   0  0  0  0  0  0  0  0  0  0  0  0  # atno 8009 bound_to 7997
  155.2101  140.0397  157.2922 H   0  0  0  0  0  0  0  0  0  0  0  0  # atno 8010 bound_to 7997
  140.4765  144.0683  150.6252 H   0  0  0  0  0  0  0  0  0  0  0  0  # atno 10167 bound_to 10162
  157.6949  131.0507  150.4164 H   0  0  0  0  0  0  0  0  0  0  0  0  # atno 10718 bound_to 10713
  153.0513  135.5067  154.7875 H   0  0  0  0  0  0  0  0  0  0  0  0  # atno 10763 bound_to 10752
  154.6734  135.2956  154.9713 H   0  0  0  0  0  0  0  0  0  0  0  0  # atno 10764 bound_to 10752
  154.0523  135.6702  153.4854 H   0  0  0  0  0  0  0  0  0  0  0  0  # atno 10765 bound_to 10752
  139.8779  134.9235  156.5102 H   0  0  0  0  0  0  0  0  0  0  0  0  # atno 11005 bound_to 11000
  146.0885  140.7683  142.9607 LP  0  0  0  0  0  0  0  0  0  0  0  0  # atno 17320 bound_to 7965
  144.6998  140.3600  143.7165 LP  0  0  0  0  0  0  0  0  0  0  0  0  # atno 17321 bound_to 7965
  140.3912  143.2751  152.0058 LP  0  0  0  0  0  0  0  0  0  0  0  0  # atno 17342 bound_to 10162
  139.4826  144.6075  151.7494 LP  0  0  0  0  0  0  0  0  0  0  0  0  # atno 17343 bound_to 10162
  156.4543  130.4018  149.6616 LP  0  0  0  0  0  0  0  0  0  0  0  0  # atno 17370 bound_to 10713
  156.3754  130.7552  151.2539 LP  0  0  0  0  0  0  0  0  0  0  0  0  # atno 17371 bound_to 10713
  140.8526  133.8121  155.9183 LP  0  0  0  0  0  0  0  0  0  0  0  0  # atno 17394 bound_to 11000
  140.9129  134.2237  157.4974 LP  0  0  0  0  0  0  0  0  0  0  0  0  # atno 17395 bound_to 11000

$$$$
