AV-unprocessed.smi:217|AV-procd|sdf|1661|dock6
  -GOLD-   2262020 53D 1   1.00000     0.00000
 Structure written by MMmdl.
 57 61  0  0  0  0  0  0  0  0  1 V2000
  145.3182  132.3020  155.5022 O   0  0  0  0  0  0  0  0  0  0  0  0
  146.5944  132.2465  156.1058 C   0  0  0  0  0  0  0  0  0  0  0  0
  147.6549  132.9407  155.2353 C   0  0  0  0  0  0  0  0  0  0  0  0
  147.8438  132.1448  153.9273 C   0  0  0  0  0  0  0  0  0  0  0  0
  146.7341  132.2901  153.0642 O   0  0  0  0  0  0  0  0  0  0  0  0
  147.4727  134.4649  155.0577 C   0  0  0  0  0  0  0  0  0  0  0  0
  148.9813  134.6581  155.2283 C   0  0  0  0  0  0  0  0  0  0  0  0
  149.5137  135.8393  155.8425 N   0  0  0  0  0  0  0  0  0  0  0  0
  150.3922  136.7365  155.2785 C   0  0  0  0  0  0  0  0  0  0  0  0
  150.6888  137.7675  156.0219 N   0  0  0  0  0  0  0  0  0  0  0  0
  149.9343  137.5845  157.1750 C   0  0  0  0  0  0  0  0  0  0  0  0
  149.7603  138.3298  158.3761 C   0  0  0  0  0  0  0  0  0  0  0  0
  150.4220  139.4894  158.6258 N   0  0  0  0  0  0  0  0  0  0  0  0
  150.1183  140.5771  157.6971 C   0  0  0  0  0  0  0  0  0  0  0  0
  150.5900  141.9284  158.2585 C   0  0  0  0  0  0  0  0  0  0  0  0
  152.0868  141.8949  158.6280 C   0  0  0  0  0  0  0  0  0  0  0  0
  152.5578  143.2434  159.2092 C   0  0  1  0  0  0  0  0  0  0  0  0
  152.2559  144.4606  158.3335 C   0  0  0  0  0  0  0  0  0  0  0  0
  152.2217  145.6137  159.3235 C   0  0  0  0  0  0  0  0  0  0  0  0
  152.0695  144.9304  160.6853 C   0  0  0  0  0  0  0  0  0  0  0  0
  151.8410  143.5588  160.3928 O   0  0  0  0  0  0  0  0  0  0  0  0
  152.3281  140.7266  159.6055 C   0  0  0  0  0  0  0  0  0  0  0  0
  151.8278  139.3950  159.0230 C   0  0  0  0  0  0  0  0  0  0  0  0
  148.8841  137.8378  159.2933 N   0  0  0  0  0  0  0  0  0  0  0  0
  148.2287  136.6974  159.0597 C   0  0  0  0  0  0  0  0  0  0  0  0
  148.2976  135.8995  157.9931 N   0  0  0  0  0  0  0  0  0  0  0  0
  149.1729  136.3858  157.0674 C   0  0  0  0  0  0  0  0  0  0  0  0
  148.9617  133.3181  155.9676 C   0  0  0  0  0  0  0  0  0  0  0  0
  144.8026  132.9562  155.9490 H   0  0  0  0  0  0  0  0  0  0  0  0
  146.5368  132.6895  157.1002 H   0  0  0  0  0  0  0  0  0  0  0  0
  146.8451  131.1958  156.2552 H   0  0  0  0  0  0  0  0  0  0  0  0
  148.7281  132.4816  153.3862 H   0  0  0  0  0  0  0  0  0  0  0  0
  147.9991  131.0838  154.1238 H   0  0  0  0  0  0  0  0  0  0  0  0
  146.9795  131.9801  152.2058 H   0  0  0  0  0  0  0  0  0  0  0  0
  147.0876  134.7758  154.0859 H   0  0  0  0  0  0  0  0  0  0  0  0
  146.9016  134.9249  155.8665 H   0  0  0  0  0  0  0  0  0  0  0  0
  149.4923  134.5630  154.2687 H   0  0  0  0  0  0  0  0  0  0  0  0
  150.8126  136.6008  154.2925 H   0  0  0  0  0  0  0  0  0  0  0  0
  150.6169  140.3756  156.7482 H   0  0  0  0  0  0  0  0  0  0  0  0
  149.0518  140.6323  157.4816 H   0  0  0  0  0  0  0  0  0  0  0  0
  150.3993  142.7103  157.5231 H   0  0  0  0  0  0  0  0  0  0  0  0
  149.9974  142.1814  159.1387 H   0  0  0  0  0  0  0  0  0  0  0  0
  152.6552  141.7004  157.7172 H   0  0  0  0  0  0  0  0  0  0  0  0
  153.6240  143.2077  159.4420 H   0  0  0  0  0  0  0  0  0  0  0  0
  152.9921  144.6060  157.5425 H   0  0  0  0  0  0  0  0  0  0  0  0
  151.2762  144.3540  157.8656 H   0  0  0  0  0  0  0  0  0  0  0  0
  153.1443  146.1945  159.2887 H   0  0  0  0  0  0  0  0  0  0  0  0
  151.3918  146.2882  159.1111 H   0  0  0  0  0  0  0  0  0  0  0  0
  152.9873  145.0261  161.2670 H   0  0  0  0  0  0  0  0  0  0  0  0
  151.2498  145.3453  161.2722 H   0  0  0  0  0  0  0  0  0  0  0  0
  153.3888  140.6367  159.8411 H   0  0  0  0  0  0  0  0  0  0  0  0
  151.8177  140.9245  160.5491 H   0  0  0  0  0  0  0  0  0  0  0  0
  151.9541  138.6076  159.7673 H   0  0  0  0  0  0  0  0  0  0  0  0
  152.4300  139.1199  158.1558 H   0  0  0  0  0  0  0  0  0  0  0  0
  147.5534  136.3778  159.8394 H   0  0  0  0  0  0  0  0  0  0  0  0
  148.8254  133.4361  157.0444 H   0  0  0  0  0  0  0  0  0  0  0  0
  149.8115  132.6699  155.7513 H   0  0  0  0  0  0  0  0  0  0  0  0
  1  2  1  0  0  0  0
  1 29  1  0  0  0  0
  2  3  1  0  0  0  0
  2 30  1  0  0  0  0
  2 31  1  0  0  0  0
  3 28  1  0  0  0  0
  3  4  1  0  0  0  0
  3  6  1  0  0  0  0
  4  5  1  0  0  0  0
  4 32  1  0  0  0  0
  4 33  1  0  0  0  0
  5 34  1  0  0  0  0
  6  7  1  0  0  0  0
  6 35  1  0  0  0  0
  6 36  1  0  0  0  0
  7  8  1  0  0  0  0
  7 28  1  0  0  0  0
  7 37  1  0  0  0  0
  8 27  1  0  0  0  0
  8  9  1  0  0  0  0
  9 10  2  0  0  0  0
  9 38  1  0  0  0  0
 10 11  1  0  0  0  0
 11 27  2  0  0  0  0
 11 12  1  0  0  0  0
 12 13  1  0  0  0  0
 12 24  2  0  0  0  0
 13 23  1  0  0  0  0
 13 14  1  0  0  0  0
 14 15  1  0  0  0  0
 14 39  1  0  0  0  0
 14 40  1  0  0  0  0
 15 16  1  0  0  0  0
 15 41  1  0  0  0  0
 15 42  1  0  0  0  0
 16 17  1  0  0  0  0
 16 22  1  0  0  0  0
 16 43  1  0  0  0  0
 17 21  1  0  0  0  0
 17 18  1  0  0  0  0
 17 44  1  0  0  0  0
 18 19  1  0  0  0  0
 18 45  1  0  0  0  0
 18 46  1  0  0  0  0
 19 20  1  0  0  0  0
 19 47  1  0  0  0  0
 19 48  1  0  0  0  0
 20 21  1  0  0  0  0
 20 49  1  0  0  0  0
 20 50  1  0  0  0  0
 22 23  1  0  0  0  0
 22 51  1  0  0  0  0
 22 52  1  0  0  0  0
 23 53  1  0  0  0  0
 23 54  1  0  0  0  0
 24 25  1  0  0  0  0
 25 26  2  0  0  0  0
 25 55  1  0  0  0  0
 26 27  1  0  0  0  0
 28 56  1  0  0  0  0
 28 57  1  0  0  0  0
M  END
> <s_m_source_file>
AV-unprocessed.smi

> <i_m_source_file_index>
217

> <i_lp_mmshare_version>
43012

> <i_f3d_flags>
0

> <s_epik_input>
W09IXVtDSDJdQzEoW0NIMl1bT0hdKVtDSDJdW0NIXShbQ0gyXTEpbihbY0hdbjIpYyhjMjMpbltjSF1uYzNONFtDSDJdW0NIMl1bQ0hdKFtDSDJdW0NIMl00KVtDQEBIXTVbQ0gyXVtDSDJdW0NIMl1PNQ==

> <s_epik_cmdline>
J2VwaWtfcHl0aG9uJywgJy1waCcsICc3LjAnLCAnLXRuJywgJzgnLCAnLW1hJywgJzIwMCcsICctbWV0YWxfYmluZGluZycsICctaW1hZScsICc8aW5maWxlLm1hZT4nLCAnLW9tYWUnLCAnPG91dGZpbGUubWFlPic=

> <r_lp_tautomer_probability>
1

> <r_epik_Ionization_Penalty>
0.0037022

> <r_epik_Ionization_Penalty_Charging>
0

> <r_epik_Ionization_Penalty_Neutral>
0.0037022

> <r_epik_State_Penalty>
0.00257654

> <r_epik_Charging_Adjusted_Penalty>
0.00257654

> <i_epik_Tot_Q>
0

> <i_epik_Tot_abs_Q>
0

> <r_epik_Metal_State_Penalty>
-0

> <b_epik_Metal_Only>
0

> <s_lp_Force_Field>
OPLS_2005

> <r_lp_Energy>
55.0996

> <b_lp_Chiralities_Consistent>
1

> <s_lp_Variant>
AV-unprocessed.smi:217-2

> <Gold.Version>
5.8.1

> <Gold.Id.Protein>
6NUR|6NUR_protein|mol2

> <Gold.PLP.Fitness>
50.6807

> <Gold.PLP.PLP>
-45.0148

> <Gold.PLP.part.hbond>
-1.0000

> <Gold.PLP.part.metal>
0.0000

> <Gold.PLP.part.buried>
-6.9328

> <Gold.PLP.part.nonpolar>
-37.7248

> <Gold.PLP.part.repulsive>
0.0992

> <Gold.PLP.ligand.clash>
0.0000

> <Gold.PLP.ligand.torsion>
0.6175

> <Gold.PLP.Chemscore.Hbond>
1.0000

> <Gold.PLP.Chemscore.CHOScore>
1.0000

> <Gold.PLP.Chemscore.Metal>
0.0000

> <Gold.Chemscore.Hbonds>
donor molecule, donor type, donor heavy atom, donor atom, acceptor molecule, acceptor atom, score
      L1  C     9    38       P1  7949  0.09

> <Gold.PLP.Chemscore.Internal.Correction>
0.9009

> <Gold.Rescore>
     Score         DG    S(hbond)    S(metal)    S(lipo)     H(rot)  DE(clash)    DE(int)     intcor
     12.99     -13.78       1.00        0.00     114.28       3.28       0.07       0.72       ----

> <Gold.Chemscore.Fitness>
12.9912

> <Gold.Chemscore.DG>
-13.7805

> <Gold.Chemscore.ZeroCoef>
-5.4800

> <Gold.Chemscore.Hbond>
0.9996

> <Gold.Chemscore.Metal>
0.0000

> <Gold.Chemscore.Lipo>
114.2830

> <Gold.Chemscore.Internal_Hbond>
0.0000

> <Gold.Chemscore.DEClash>
0.0693

> <Gold.Chemscore.DEInternal>
0.7200

> <Gold.Chemscore.Rot>
3.2848

> <Gold.Chemscore.Internal.Correction>
   9.000000E+99

> <Gold.Chemscore.Hbond.Weighted>
-3.3385

> <Gold.Chemscore.Metal.Weighted>
-0.0000

> <Gold.Chemscore.Lipo.Weighted>
-13.3711

> <Gold.Chemscore.Internal_Hbond.Weighted>
0.0000

> <Gold.Chemscore.DEClash.Weighted>
0.0693

> <Gold.Chemscore.DEInternal.Weighted>
0.7200

> <Gold.Chemscore.Rot.Weighted>
8.4092

> <Gold.Chemscore.Internal.Correction.Weighted>
   9.000000E+99

> <Gold.Protein.RotatedTorsions>
[ 6907 6896 6895 6894 ] final   47.79 input  -60.11 | X-H torsion
[ 7974 7965 7964 7962 ] final  -89.19 input  175.53 | X-H torsion
[ 8008 7997 7996 7995 ] final  -52.31 input   59.86 | X-H torsion
[ 10167 10162 10161 10158 ] final -135.44 input  -65.29 | X-H torsion
[ 10718 10713 10712 10709 ] final   36.15 input   66.30 | X-H torsion
[ 10763 10752 10751 10750 ] final -176.01 input  -60.55 | X-H torsion
[ 11005 11000 10999 10996 ] final   28.51 input  -57.11 | X-H torsion

> <Gold.Protein.ActiveResidues>
 VAL166  LYS551  ARG553  GLY616  TRP617  ASP618  TYR619  PRO620  LYS621  CYS622 
 ASP623  PHE694  ASN695  SER759  ASP760  ASP761  ALA762  ILE779  LEU786  VAL792 
 PHE793  MET794  SER795  GLU796  ALA797  LYS798  CYS799  TRP800  GLU811  SER814 

> <Gold.Protein.RotatedAtoms>
  152.2721  134.7921  160.0412 H   0  0  0  0  0  0  0  0  0  0  0  0  # atno 6907 bound_to 6896
  151.8530  133.3438  159.3687 H   0  0  0  0  0  0  0  0  0  0  0  0  # atno 6908 bound_to 6896
  150.7156  134.5208  159.5697 H   0  0  0  0  0  0  0  0  0  0  0  0  # atno 6909 bound_to 6896
  145.4432  140.9559  143.2064 H   0  0  0  0  0  0  0  0  0  0  0  0  # atno 7974 bound_to 7965
  154.4103  140.1227  156.4970 H   0  0  0  0  0  0  0  0  0  0  0  0  # atno 8008 bound_to 7997
  155.6933  140.3495  155.4883 H   0  0  0  0  0  0  0  0  0  0  0  0  # atno 8009 bound_to 7997
  155.9450  140.1094  157.1014 H   0  0  0  0  0  0  0  0  0  0  0  0  # atno 8010 bound_to 7997
  139.8779  143.6876  152.2631 H   0  0  0  0  0  0  0  0  0  0  0  0  # atno 10167 bound_to 10162
  157.3314  130.7500  149.6850 H   0  0  0  0  0  0  0  0  0  0  0  0  # atno 10718 bound_to 10713
  154.5775  135.2833  155.0766 H   0  0  0  0  0  0  0  0  0  0  0  0  # atno 10763 bound_to 10752
  154.2115  135.6407  153.5120 H   0  0  0  0  0  0  0  0  0  0  0  0  # atno 10764 bound_to 10752
  153.0077  135.5493  154.6418 H   0  0  0  0  0  0  0  0  0  0  0  0  # atno 10765 bound_to 10752
  140.3148  134.2609  155.7727 H   0  0  0  0  0  0  0  0  0  0  0  0  # atno 11005 bound_to 11000
  144.8108  139.5965  143.7030 LP  0  0  0  0  0  0  0  0  0  0  0  0  # atno 17320 bound_to 7965
  146.2545  139.6272  142.9404 LP  0  0  0  0  0  0  0  0  0  0  0  0  # atno 17321 bound_to 7965
  139.7223  144.7600  151.0935 LP  0  0  0  0  0  0  0  0  0  0  0  0  # atno 17342 bound_to 10162
  140.7749  143.5192  150.9557 LP  0  0  0  0  0  0  0  0  0  0  0  0  # atno 17343 bound_to 10162
  155.9696  130.4194  150.4374 LP  0  0  0  0  0  0  0  0  0  0  0  0  # atno 17370 bound_to 10713
  157.2406  131.0524  151.2438 LP  0  0  0  0  0  0  0  0  0  0  0  0  # atno 17371 bound_to 10713
  141.2100  133.7732  156.9960 LP  0  0  0  0  0  0  0  0  0  0  0  0  # atno 17394 bound_to 11000
  140.0993  134.9545  157.1898 LP  0  0  0  0  0  0  0  0  0  0  0  0  # atno 17395 bound_to 11000

$$$$
