AV-unprocessed.smi:3073|AV-procd|sdf|11719|dock4
  -GOLD-   2272017123D 1   1.00000     0.00000
 Structure written by MMmdl.
 24 25  0  0  0  0  0  0  0  0  2 V2000
  152.6880  142.7507  162.1751 C   0  0  0  0  0  0  0  0  0  0  0  0
  153.8037  141.9906  161.9337 C   0  0  0  0  0  0  0  0  0  0  0  0
  153.7178  141.1898  160.3888 S   0  0  0  0  0  0  0  0  0  0  0  0
  152.1418  141.9300  160.1255 C   0  0  0  0  0  0  0  0  0  0  0  0
  151.3270  141.7047  158.8909 C   0  0  2  0  0  0  0  0  0  0  0  0
  151.9852  140.7019  157.9249 C   0  0  0  0  0  0  0  0  0  0  0  0
  151.1111  140.5054  156.6767 C   0  0  0  0  0  0  0  0  0  0  0  0
  150.7858  141.8550  156.0148 C   0  0  0  0  0  0  0  0  0  0  0  0
  150.1344  142.7673  156.9798 N   0  3  0  0  0  0  0  0  0  0  0  0
  150.9578  143.0236  158.1822 C   0  0  0  0  0  0  0  0  0  0  0  0
  151.7508  142.7078  161.1401 N   0  0  0  0  0  0  0  0  0  0  0  0
  152.4791  143.3490  163.0499 H   0  0  0  0  0  0  0  0  0  0  0  0
  154.6672  141.8542  162.5681 H   0  0  0  0  0  0  0  0  0  0  0  0
  150.3909  141.2529  159.2233 H   0  0  0  0  0  0  0  0  0  0  0  0
  152.9688  141.0657  157.6242 H   0  0  0  0  0  0  0  0  0  0  0  0
  152.1453  139.7448  158.4229 H   0  0  0  0  0  0  0  0  0  0  0  0
  151.6187  139.8531  155.9652 H   0  0  0  0  0  0  0  0  0  0  0  0
  150.1849  139.9997  156.9533 H   0  0  0  0  0  0  0  0  0  0  0  0
  151.6959  142.3218  155.6353 H   0  0  0  0  0  0  0  0  0  0  0  0
  150.1230  141.7082  155.1618 H   0  0  0  0  0  0  0  0  0  0  0  0
  149.9417  143.6466  156.5217 H   0  0  0  0  0  0  0  0  0  0  0  0
  150.4024  143.6761  158.8565 H   0  0  0  0  0  0  0  0  0  0  0  0
  151.8578  143.5638  157.8850 H   0  0  0  0  0  0  0  0  0  0  0  0
  149.2600  142.3540  157.2712 H   0  0  0  0  0  0  0  0  0  0  0  0
  1 11  1  0  0  0  0
  1  2  2  0  0  0  0
  1 12  1  0  0  0  0
  2  3  1  0  0  0  0
  2 13  1  0  0  0  0
  3  4  1  0  0  0  0
  4  5  1  0  0  0  0
  4 11  2  0  0  0  0
  5 10  1  0  0  0  0
  5  6  1  0  0  0  0
  5 14  1  0  0  0  0
  6  7  1  0  0  0  0
  6 15  1  0  0  0  0
  6 16  1  0  0  0  0
  7  8  1  0  0  0  0
  7 17  1  0  0  0  0
  7 18  1  0  0  0  0
  8  9  1  0  0  0  0
  8 19  1  0  0  0  0
  8 20  1  0  0  0  0
  9 10  1  0  0  0  0
  9 21  1  0  0  0  0
  9 24  1  0  0  0  0
 10 22  1  0  0  0  0
 10 23  1  0  0  0  0
M  CHG  1   9   1
M  END
> <s_m_source_file>
AV-unprocessed.smi

> <i_m_source_file_index>
3073

> <i_lp_mmshare_version>
43012

> <i_f3d_flags>
0

> <s_epik_input>
bjFbY0hdW2NIXXNjMVtDQEBIXTJbQ0gyXVtDSDJdW0NIMl1bTkhdW0NIMl0y

> <s_epik_cmdline>
J2VwaWtfcHl0aG9uJywgJy1waCcsICc3LjAnLCAnLXRuJywgJzgnLCAnLW1hJywgJzIwMCcsICctbWV0YWxfYmluZGluZycsICctaW1hZScsICc8aW5maWxlLm1hZT4nLCAnLW9tYWUnLCAnPG91dGZpbGUubWFlPic=

> <r_lp_tautomer_probability>
1

> <r_epik_Ionization_Penalty>
0.00043192

> <r_epik_Ionization_Penalty_Charging>
0.000426856

> <r_epik_Ionization_Penalty_Neutral>
5.06388e-06

> <r_epik_State_Penalty>
-0

> <r_epik_Charging_Adjusted_Penalty>
0.000426856

> <i_epik_Tot_Q>
1

> <i_epik_Tot_abs_Q>
1

> <r_epik_Metal_State_Penalty>
-0

> <b_epik_Metal_Only>
0

> <s_lp_Force_Field>
OPLS_2005

> <r_lp_Energy>
4.76757

> <b_lp_Chiralities_Consistent>
1

> <s_lp_Variant>
AV-unprocessed.smi:3073-1

> <Gold.Version>
5.8.1

> <Gold.Id.Protein>
6NUR|6NUR_protein|mol2

> <Gold.PLP.Fitness>
33.4401

> <Gold.PLP.PLP>
-26.7419

> <Gold.PLP.part.hbond>
-2.0000

> <Gold.PLP.part.metal>
0.0000

> <Gold.PLP.part.buried>
-3.4315

> <Gold.PLP.part.nonpolar>
-21.5354

> <Gold.PLP.part.repulsive>
0.1069

> <Gold.PLP.ligand.clash>
0.0000

> <Gold.PLP.ligand.torsion>
0.0269

> <Gold.PLP.Chemscore.Hbond>
2.2330

> <Gold.PLP.Chemscore.CHOScore>
0.0000

> <Gold.PLP.Chemscore.Metal>
0.0000

> <Gold.Chemscore.Hbonds>
donor molecule, donor type, donor heavy atom, donor atom, acceptor molecule, acceptor atom, score
      L1  H     9    21       P1  8028  2.00
      P1  H  6933  6945       L1    11  0.23

> <Gold.PLP.Chemscore.Internal.Correction>
0.0531

> <Gold.Rescore>
     Score         DG    S(hbond)    S(metal)    S(lipo)     H(rot)  DE(clash)    DE(int)     intcor
     15.07     -15.15       1.01        0.00      75.69       1.00       0.05       0.03       ----

> <Gold.Chemscore.Fitness>
15.0733

> <Gold.Chemscore.DG>
-15.1498

> <Gold.Chemscore.ZeroCoef>
-5.4800

> <Gold.Chemscore.Hbond>
1.0102

> <Gold.Chemscore.Metal>
0.0000

> <Gold.Chemscore.Lipo>
75.6906

> <Gold.Chemscore.Internal_Hbond>
0.0000

> <Gold.Chemscore.DEClash>
0.0485

> <Gold.Chemscore.DEInternal>
0.0281

> <Gold.Chemscore.Rot>
1.0000

> <Gold.Chemscore.Internal.Correction>
   9.000000E+99

> <Gold.Chemscore.Hbonds>
donor molecule, donor type, donor heavy atom, donor atom, acceptor molecule, acceptor atom, score
      L1  H     9    21       P1  8028  0.97
      P1  H  6933  6945       L1    11  0.04

> <Gold.Chemscore.Hbond.Weighted>
-3.3740

> <Gold.Chemscore.Metal.Weighted>
-0.0000

> <Gold.Chemscore.Lipo.Weighted>
-8.8558

> <Gold.Chemscore.Internal_Hbond.Weighted>
0.0000

> <Gold.Chemscore.DEClash.Weighted>
0.0485

> <Gold.Chemscore.DEInternal.Weighted>
0.0281

> <Gold.Chemscore.Rot.Weighted>
2.5600

> <Gold.Chemscore.Internal.Correction.Weighted>
   9.000000E+99

> <Gold.Protein.RotatedTorsions>
[ 6907 6896 6895 6894 ] final  -84.40 input  -60.11 | X-H torsion
[ 7974 7965 7964 7962 ] final  164.72 input  175.53 | X-H torsion
[ 8008 7997 7996 7995 ] final -107.69 input   59.86 | X-H torsion
[ 10167 10162 10161 10158 ] final   44.15 input  -65.29 | X-H torsion
[ 10718 10713 10712 10709 ] final   79.13 input   66.30 | X-H torsion
[ 10763 10752 10751 10750 ] final   85.56 input  -60.55 | X-H torsion
[ 11005 11000 10999 10996 ] final   16.94 input  -57.11 | X-H torsion

> <Gold.Protein.ActiveResidues>
 VAL166  LYS551  ARG553  GLY616  TRP617  ASP618  TYR619  PRO620  LYS621  CYS622 
 ASP623  PHE694  ASN695  SER759  ASP760  ASP761  ALA762  ILE779  LEU786  VAL792 
 PHE793  MET794  SER795  GLU796  ALA797  LYS798  CYS799  TRP800  GLU811  SER814 

> <Gold.Protein.RotatedAtoms>
  150.6877  134.3363  159.4848 H   0  0  0  0  0  0  0  0  0  0  0  0  # atno 6907 bound_to 6896
  152.1222  134.9194  160.0572 H   0  0  0  0  0  0  0  0  0  0  0  0  # atno 6908 bound_to 6896
  152.0396  133.3937  159.4368 H   0  0  0  0  0  0  0  0  0  0  0  0  # atno 6909 bound_to 6896
  144.7533  139.8367  143.6358 H   0  0  0  0  0  0  0  0  0  0  0  0  # atno 7974 bound_to 7965
  154.9331  140.0404  157.2058 H   0  0  0  0  0  0  0  0  0  0  0  0  # atno 8008 bound_to 7997
  154.8142  140.2873  155.5810 H   0  0  0  0  0  0  0  0  0  0  0  0  # atno 8009 bound_to 7997
  156.2974  140.2531  156.3036 H   0  0  0  0  0  0  0  0  0  0  0  0  # atno 8010 bound_to 7997
  140.3371  144.2516  150.6160 H   0  0  0  0  0  0  0  0  0  0  0  0  # atno 10167 bound_to 10162
  157.6767  130.9900  150.1888 H   0  0  0  0  0  0  0  0  0  0  0  0  # atno 10718 bound_to 10713
  153.1486  135.4613  154.9603 H   0  0  0  0  0  0  0  0  0  0  0  0  # atno 10763 bound_to 10752
  154.7807  135.3187  154.7999 H   0  0  0  0  0  0  0  0  0  0  0  0  # atno 10764 bound_to 10752
  153.8508  135.6921  153.4847 H   0  0  0  0  0  0  0  0  0  0  0  0  # atno 10765 bound_to 10752
  140.4415  134.1317  155.7691 H   0  0  0  0  0  0  0  0  0  0  0  0  # atno 11005 bound_to 11000
  146.1511  139.4595  143.0048 LP  0  0  0  0  0  0  0  0  0  0  0  0  # atno 17320 bound_to 7965
  145.6867  141.0176  143.1577 LP  0  0  0  0  0  0  0  0  0  0  0  0  # atno 17321 bound_to 7965
  140.5343  143.2236  151.8188 LP  0  0  0  0  0  0  0  0  0  0  0  0  # atno 17342 bound_to 10162
  139.4846  144.4681  151.9459 LP  0  0  0  0  0  0  0  0  0  0  0  0  # atno 17343 bound_to 10162
  156.2604  130.3710  149.8137 LP  0  0  0  0  0  0  0  0  0  0  0  0  # atno 17370 bound_to 10713
  156.5884  130.8495  151.3401 LP  0  0  0  0  0  0  0  0  0  0  0  0  # atno 17371 bound_to 10713
  141.1704  133.8621  157.1589 LP  0  0  0  0  0  0  0  0  0  0  0  0  # atno 17394 bound_to 11000
  140.0067  135.0005  157.0307 LP  0  0  0  0  0  0  0  0  0  0  0  0  # atno 17395 bound_to 11000

$$$$
