AV-unprocessed.smi:1809|AV-procd|sdf|7331|dock2
  -GOLD-   22720 8583D 1   1.00000     0.00000
 Structure written by MMmdl.
 38 40  0  0  0  0  0  0  0  0  2 V2000
  142.0499  146.0618  160.3889 C   0  0  0  0  0  0  0  0  0  0  0  0
  143.2565  145.2909  159.9753 C   0  0  0  0  0  0  0  0  0  0  0  0
  143.8110  144.3493  160.7428 N   0  0  0  0  0  0  0  0  0  0  0  0
  144.9210  143.7728  160.1427 N   0  0  0  0  0  0  0  0  0  0  0  0
  145.1826  144.2753  158.9275 C   0  0  0  0  0  0  0  0  0  0  0  0
  146.2170  143.8539  158.1813 N   0  5  0  0  0  0  0  0  0  0  0  0
  147.1450  143.0280  158.7163 C   0  0  0  0  0  0  0  0  0  0  0  0
  147.0646  142.4404  159.7976 O   0  0  0  0  0  0  0  0  0  0  0  0
  148.2335  142.8706  157.9522 N   0  0  0  0  0  0  0  0  0  0  0  0
  149.3828  142.0422  158.2913 C   0  0  0  0  0  0  0  0  0  0  0  0
  150.6992  142.7698  157.9571 C   0  0  2  0  0  0  0  0  0  0  0  0
  151.9446  142.0443  158.5204 C   0  0  0  0  0  0  0  0  0  0  0  0
  152.0523  142.2462  159.9534 N   0  0  0  0  0  0  0  0  0  0  0  0
  153.2231  141.7025  160.6012 C   0  0  0  0  0  0  0  0  0  0  0  0
  153.2637  142.4089  161.9675 C   0  0  0  0  0  0  0  0  0  0  0  0
  152.4010  143.6753  161.7720 C   0  0  0  0  0  0  0  0  0  0  0  0
  152.0896  143.6468  160.2744 C   0  0  2  0  0  0  0  0  0  0  0  0
  150.8072  144.3468  159.8056 C   0  0  0  0  0  0  0  0  0  0  0  0
  150.6722  144.1380  158.3963 O   0  0  0  0  0  0  0  0  0  0  0  0
  144.0604  145.5438  158.4354 S   0  0  0  0  0  0  0  0  0  0  0  0
  141.1490  145.4902  160.1656 H   0  0  0  0  0  0  0  0  0  0  0  0
  142.0055  147.0099  159.8529 H   0  0  0  0  0  0  0  0  0  0  0  0
  142.0800  146.2684  161.4592 H   0  0  0  0  0  0  0  0  0  0  0  0
  148.2688  143.3699  157.0756 H   0  0  0  0  0  0  0  0  0  0  0  0
  149.3392  141.7713  159.3468 H   0  0  0  0  0  0  0  0  0  0  0  0
  149.3261  141.1113  157.7254 H   0  0  0  0  0  0  0  0  0  0  0  0
  150.7917  142.7917  156.8707 H   0  0  0  0  0  0  0  0  0  0  0  0
  151.9026  140.9790  158.2914 H   0  0  0  0  0  0  0  0  0  0  0  0
  152.8375  142.4338  158.0293 H   0  0  0  0  0  0  0  0  0  0  0  0
  153.1671  140.6173  160.6899 H   0  0  0  0  0  0  0  0  0  0  0  0
  154.1190  141.9504  160.0296 H   0  0  0  0  0  0  0  0  0  0  0  0
  152.8370  141.7765  162.7469 H   0  0  0  0  0  0  0  0  0  0  0  0
  154.2877  142.6508  162.2541 H   0  0  0  0  0  0  0  0  0  0  0  0
  151.4845  143.5999  162.3587 H   0  0  0  0  0  0  0  0  0  0  0  0
  152.9191  144.5881  162.0667 H   0  0  0  0  0  0  0  0  0  0  0  0
  152.9330  144.1046  159.7528 H   0  0  0  0  0  0  0  0  0  0  0  0
  149.9320  143.9657  160.3327 H   0  0  0  0  0  0  0  0  0  0  0  0
  150.8593  145.4172  160.0049 H   0  0  0  0  0  0  0  0  0  0  0  0
  1  2  1  0  0  0  0
  1 21  1  0  0  0  0
  1 22  1  0  0  0  0
  1 23  1  0  0  0  0
  2 20  1  0  0  0  0
  2  3  2  0  0  0  0
  3  4  1  0  0  0  0
  4  5  2  0  0  0  0
  5  6  1  0  0  0  0
  5 20  1  0  0  0  0
  6  7  1  0  0  0  0
  7  8  2  0  0  0  0
  7  9  1  0  0  0  0
  9 10  1  0  0  0  0
  9 24  1  0  0  0  0
 10 11  1  0  0  0  0
 10 25  1  0  0  0  0
 10 26  1  0  0  0  0
 11 19  1  0  0  0  0
 11 12  1  0  0  0  0
 11 27  1  0  0  0  0
 12 13  1  0  0  0  0
 12 28  1  0  0  0  0
 12 29  1  0  0  0  0
 13 17  1  0  0  0  0
 13 14  1  0  0  0  0
 14 15  1  0  0  0  0
 14 30  1  0  0  0  0
 14 31  1  0  0  0  0
 15 16  1  0  0  0  0
 15 32  1  0  0  0  0
 15 33  1  0  0  0  0
 16 17  1  0  0  0  0
 16 34  1  0  0  0  0
 16 35  1  0  0  0  0
 17 18  1  0  0  0  0
 17 36  1  0  0  0  0
 18 19  1  0  0  0  0
 18 37  1  0  0  0  0
 18 38  1  0  0  0  0
M  CHG  1   6  -1
M  END
> <s_m_source_file>
AV-unprocessed.smi

> <i_m_source_file_index>
1809

> <i_lp_mmshare_version>
43012

> <i_f3d_flags>
0

> <s_epik_input>
W0NIM11jMW5uYyhzMSlbTkhdQyg9TylbTkhdW0NIMl1bQ0BIXShbQ0gyXTIpT1tDSDJdW0NAQEhdKE4yMylbQ0gyXVtDSDJdW0NIMl0z

> <s_epik_cmdline>
J2VwaWtfcHl0aG9uJywgJy1waCcsICc3LjAnLCAnLXRuJywgJzgnLCAnLW1hJywgJzIwMCcsICctbWV0YWxfYmluZGluZycsICctaW1hZScsICc8aW5maWxlLm1hZT4nLCAnLW9tYWUnLCAnPG91dGZpbGUubWFlPic=

> <r_lp_tautomer_probability>
1

> <r_epik_Ionization_Penalty>
4.48809

> <r_epik_Ionization_Penalty_Charging>
3.27284

> <r_epik_Ionization_Penalty_Neutral>
1.21525

> <r_epik_State_Penalty>
4.69427

> <r_epik_Charging_Adjusted_Penalty>
7.96711

> <i_epik_Tot_Q>
-1

> <i_epik_Tot_abs_Q>
1

> <r_epik_Metal_State_Penalty>
1.91976

> <b_epik_Metal_Only>
1

> <s_lp_Force_Field>
OPLS_2005

> <r_lp_Energy>
48.824

> <b_lp_Chiralities_Consistent>
1

> <s_lp_Variant>
AV-unprocessed.smi:1809-23

> <Gold.Version>
5.8.1

> <Gold.Id.Protein>
6NUR|6NUR_protein|mol2

> <Gold.PLP.Fitness>
37.1497

> <Gold.PLP.PLP>
-31.5756

> <Gold.PLP.part.hbond>
-3.5977

> <Gold.PLP.part.metal>
0.0000

> <Gold.PLP.part.buried>
-5.2279

> <Gold.PLP.part.nonpolar>
-26.0575

> <Gold.PLP.part.repulsive>
2.6661

> <Gold.PLP.ligand.clash>
0.0000

> <Gold.PLP.ligand.torsion>
0.2400

> <Gold.PLP.Chemscore.Hbond>
1.9871

> <Gold.PLP.Chemscore.CHOScore>
0.0000

> <Gold.PLP.Chemscore.Metal>
0.0000

> <Gold.Chemscore.Hbonds>
donor molecule, donor type, donor heavy atom, donor atom, acceptor molecule, acceptor atom, score
      L1  H     9    24       P1  8028  0.75
      P1  H  6933  6944       L1     8  0.41
      P1  H  6934  6946       L1     8  0.83

> <Gold.PLP.Chemscore.Internal.Correction>
0.0928

> <Gold.Rescore>
     Score         DG    S(hbond)    S(metal)    S(lipo)     H(rot)  DE(clash)    DE(int)     intcor
     14.80     -17.56       1.47        0.00      89.87       1.31       0.79       1.97       ----

> <Gold.Chemscore.Fitness>
14.7967

> <Gold.Chemscore.DG>
-17.5585

> <Gold.Chemscore.ZeroCoef>
-5.4800

> <Gold.Chemscore.Hbond>
1.4686

> <Gold.Chemscore.Metal>
0.0000

> <Gold.Chemscore.Lipo>
89.8687

> <Gold.Chemscore.Internal_Hbond>
0.0000

> <Gold.Chemscore.DEClash>
0.7924

> <Gold.Chemscore.DEInternal>
1.9693

> <Gold.Chemscore.Rot>
1.3051

> <Gold.Chemscore.Internal.Correction>
   9.000000E+99

> <Gold.Chemscore.Hbonds>
donor molecule, donor type, donor heavy atom, donor atom, acceptor molecule, acceptor atom, score
      L1  H     9    24       P1  8028  0.09
      P1  H  6933  6944       L1     8  0.41
      P1  H  6934  6946       L1     8  0.81

> <Gold.Chemscore.Hbond.Weighted>
-4.9050

> <Gold.Chemscore.Metal.Weighted>
-0.0000

> <Gold.Chemscore.Lipo.Weighted>
-10.5146

> <Gold.Chemscore.Internal_Hbond.Weighted>
0.0000

> <Gold.Chemscore.DEClash.Weighted>
0.7924

> <Gold.Chemscore.DEInternal.Weighted>
1.9693

> <Gold.Chemscore.Rot.Weighted>
3.3412

> <Gold.Chemscore.Internal.Correction.Weighted>
   9.000000E+99

> <Gold.Protein.RotatedTorsions>
[ 6907 6896 6895 6894 ] final  152.59 input  -60.11 | X-H torsion
[ 7974 7965 7964 7962 ] final  -29.46 input  175.53 | X-H torsion
[ 8008 7997 7996 7995 ] final -142.69 input   59.86 | X-H torsion
[ 10167 10162 10161 10158 ] final  170.05 input  -65.29 | X-H torsion
[ 10718 10713 10712 10709 ] final  -65.60 input   66.30 | X-H torsion
[ 10763 10752 10751 10750 ] final  173.35 input  -60.55 | X-H torsion
[ 11005 11000 10999 10996 ] final   91.09 input  -57.11 | X-H torsion

> <Gold.Protein.ActiveResidues>
 VAL166  LYS551  ARG553  GLY616  TRP617  ASP618  TYR619  PRO620  LYS621  CYS622 
 ASP623  PHE694  ASN695  SER759  ASP760  ASP761  ALA762  ILE779  LEU786  VAL792 
 PHE793  MET794  SER795  GLU796  ALA797  LYS798  CYS799  TRP800  GLU811  SER814 

> <Gold.Protein.RotatedAtoms>
  152.0845  133.4169  159.4515 H   0  0  0  0  0  0  0  0  0  0  0  0  # atno 6907 bound_to 6896
  150.6862  134.2943  159.4689 H   0  0  0  0  0  0  0  0  0  0  0  0  # atno 6908 bound_to 6896
  152.0788  134.9484  160.0624 H   0  0  0  0  0  0  0  0  0  0  0  0  # atno 6909 bound_to 6896
  146.1215  140.5414  142.8733 H   0  0  0  0  0  0  0  0  0  0  0  0  # atno 7974 bound_to 7965
  155.4983  140.0573  157.2943 H   0  0  0  0  0  0  0  0  0  0  0  0  # atno 8008 bound_to 7997
  154.4596  140.1990  156.0231 H   0  0  0  0  0  0  0  0  0  0  0  0  # atno 8009 bound_to 7997
  156.0866  140.3239  155.7765 H   0  0  0  0  0  0  0  0  0  0  0  0  # atno 8010 bound_to 7997
  139.5008  144.3639  151.9796 H   0  0  0  0  0  0  0  0  0  0  0  0  # atno 10167 bound_to 10162
  156.0660  130.4249  150.1587 H   0  0  0  0  0  0  0  0  0  0  0  0  # atno 10718 bound_to 10713
  154.4388  135.2761  155.1862 H   0  0  0  0  0  0  0  0  0  0  0  0  # atno 10763 bound_to 10752
  154.3737  135.6103  153.5757 H   0  0  0  0  0  0  0  0  0  0  0  0  # atno 10764 bound_to 10752
  152.9840  135.5863  154.4712 H   0  0  0  0  0  0  0  0  0  0  0  0  # atno 10765 bound_to 10752
  139.8844  134.8653  156.3378 H   0  0  0  0  0  0  0  0  0  0  0  0  # atno 11005 bound_to 11000
  144.7602  140.5403  143.6741 LP  0  0  0  0  0  0  0  0  0  0  0  0  # atno 17320 bound_to 7965
  145.5456  139.1476  143.3423 LP  0  0  0  0  0  0  0  0  0  0  0  0  # atno 17321 bound_to 7965
  140.3075  144.3576  150.6043 LP  0  0  0  0  0  0  0  0  0  0  0  0  # atno 17342 bound_to 10162
  140.5825  143.2172  151.7403 LP  0  0  0  0  0  0  0  0  0  0  0  0  # atno 17343 bound_to 10162
  156.9647  130.9816  151.3471 LP  0  0  0  0  0  0  0  0  0  0  0  0  # atno 17370 bound_to 10713
  157.5702  130.8305  149.8381 LP  0  0  0  0  0  0  0  0  0  0  0  0  # atno 17371 bound_to 10713
  140.9679  133.7346  156.0493 LP  0  0  0  0  0  0  0  0  0  0  0  0  # atno 17394 bound_to 11000
  140.7908  134.3620  157.5465 LP  0  0  0  0  0  0  0  0  0  0  0  0  # atno 17395 bound_to 11000

$$$$
