AV-unprocessed.smi:707|AV-procd|sdf|3454|dock10
  -GOLD-   22720 0443D 1   1.00000     0.00000
 Structure written by MMmdl.
 44 45  0  0  0  0  0  0  0  0  1 V2000
  152.8365  139.1470  155.4992 C   0  0  0  0  0  0  0  0  0  0  0  0
  151.4591  139.2012  154.9221 C   0  0  0  0  0  0  0  0  0  0  0  0
  150.7527  140.3298  154.7885 N   0  0  0  0  0  0  0  0  0  0  0  0
  149.5515  139.9507  154.2219 N   0  0  0  0  0  0  0  0  0  0  0  0
  149.6537  138.6307  154.0710 C   0  0  0  0  0  0  0  0  0  0  0  0
  150.8138  138.1001  154.4864 N   0  0  0  0  0  0  0  0  0  0  0  0
  151.2356  136.7120  154.4567 C   0  0  0  0  0  0  0  0  0  0  0  0
  150.2453  135.8069  155.2017 C   0  0  0  0  0  0  0  0  0  0  0  0
  149.7034  134.7947  154.3070 N   0  0  0  0  0  0  0  0  0  0  0  0
  149.6154  133.4902  154.6043 C   0  0  0  0  0  0  0  0  0  0  0  0
  149.9847  133.0150  155.6777 O   0  0  0  0  0  0  0  0  0  0  0  0
  149.0035  132.5845  153.5372 C   0  0  0  0  0  0  0  0  0  0  0  0
  147.7889  133.1647  153.0803 O   0  0  0  0  0  0  0  0  0  0  0  0
  147.1569  132.4525  152.0240 C   0  0  1  0  0  0  0  0  0  0  0  0
  146.6897  131.1032  152.5960 C   0  0  0  0  0  0  0  0  0  0  0  0
  145.9263  130.2844  151.5442 C   0  0  0  0  0  0  0  0  0  0  0  0
  144.7356  131.0766  150.9821 C   0  0  0  0  0  0  0  0  0  0  0  0
  145.1817  132.4336  150.4045 C   0  0  1  0  0  0  0  0  0  0  0  0
  143.9888  133.2271  149.8518 C   0  0  0  0  0  0  0  0  0  0  0  0
  145.9568  133.2445  151.4620 C   0  0  0  0  0  0  0  0  0  0  0  0
  153.2104  140.1537  155.6881 H   0  0  0  0  0  0  0  0  0  0  0  0
  153.5181  138.6513  154.8083 H   0  0  0  0  0  0  0  0  0  0  0  0
  152.8274  138.5984  156.4409 H   0  0  0  0  0  0  0  0  0  0  0  0
  148.8603  138.0345  153.6445 H   0  0  0  0  0  0  0  0  0  0  0  0
  151.3401  136.3975  153.4178 H   0  0  0  0  0  0  0  0  0  0  0  0
  152.2264  136.6424  154.9081 H   0  0  0  0  0  0  0  0  0  0  0  0
  150.7407  135.3149  156.0401 H   0  0  0  0  0  0  0  0  0  0  0  0
  149.4297  136.4029  155.6145 H   0  0  0  0  0  0  0  0  0  0  0  0
  149.3785  135.1008  153.4014 H   0  0  0  0  0  0  0  0  0  0  0  0
  149.7138  132.4606  152.7196 H   0  0  0  0  0  0  0  0  0  0  0  0
  148.8183  131.6010  153.9715 H   0  0  0  0  0  0  0  0  0  0  0  0
  147.8771  132.2561  151.2274 H   0  0  0  0  0  0  0  0  0  0  0  0
  147.5475  130.5344  152.9558 H   0  0  0  0  0  0  0  0  0  0  0  0
  146.0466  131.2729  153.4609 H   0  0  0  0  0  0  0  0  0  0  0  0
  146.6013  130.0115  150.7321 H   0  0  0  0  0  0  0  0  0  0  0  0
  145.5762  129.3497  151.9828 H   0  0  0  0  0  0  0  0  0  0  0  0
  144.2372  130.4879  150.2111 H   0  0  0  0  0  0  0  0  0  0  0  0
  144.0005  131.2352  151.7725 H   0  0  0  0  0  0  0  0  0  0  0  0
  145.8587  132.2373  149.5717 H   0  0  0  0  0  0  0  0  0  0  0  0
  143.2661  133.4548  150.6360 H   0  0  0  0  0  0  0  0  0  0  0  0
  143.4704  132.6662  149.0737 H   0  0  0  0  0  0  0  0  0  0  0  0
  144.3143  134.1715  149.4147 H   0  0  0  0  0  0  0  0  0  0  0  0
  145.2872  133.5170  152.2789 H   0  0  0  0  0  0  0  0  0  0  0  0
  146.2953  134.1800  151.0171 H   0  0  0  0  0  0  0  0  0  0  0  0
  1  2  1  0  0  0  0
  1 21  1  0  0  0  0
  1 22  1  0  0  0  0
  1 23  1  0  0  0  0
  2  6  1  0  0  0  0
  2  3  2  0  0  0  0
  3  4  1  0  0  0  0
  4  5  2  0  0  0  0
  5  6  1  0  0  0  0
  5 24  1  0  0  0  0
  6  7  1  0  0  0  0
  7  8  1  0  0  0  0
  7 25  1  0  0  0  0
  7 26  1  0  0  0  0
  8  9  1  0  0  0  0
  8 27  1  0  0  0  0
  8 28  1  0  0  0  0
  9 10  1  0  0  0  0
  9 29  1  0  0  0  0
 10 11  2  0  0  0  0
 10 12  1  0  0  0  0
 12 13  1  0  0  0  0
 12 30  1  0  0  0  0
 12 31  1  0  0  0  0
 13 14  1  0  0  0  0
 14 20  1  0  0  0  0
 14 15  1  0  0  0  0
 14 32  1  0  0  0  0
 15 16  1  0  0  0  0
 15 33  1  0  0  0  0
 15 34  1  0  0  0  0
 16 17  1  0  0  0  0
 16 35  1  0  0  0  0
 16 36  1  0  0  0  0
 17 18  1  0  0  0  0
 17 37  1  0  0  0  0
 17 38  1  0  0  0  0
 18 19  1  0  0  0  0
 18 20  1  0  0  0  0
 18 39  1  0  0  0  0
 19 40  1  0  0  0  0
 19 41  1  0  0  0  0
 19 42  1  0  0  0  0
 20 43  1  0  0  0  0
 20 44  1  0  0  0  0
M  END
> <s_m_source_file>
AV-unprocessed.smi

> <i_m_source_file_index>
707

> <i_lp_mmshare_version>
43012

> <i_f3d_flags>
0

> <s_epik_input>
W0NIM11jMW5uW2NIXW4xW0NIMl1bQ0gyXVtOSF1DKD1PKVtDSDJdT1tDQEBIXTJbQ0gyXVtDSDJdW0NIMl1bQ0BASF0oW0NIM10pW0NIMl0y

> <s_epik_cmdline>
J2VwaWtfcHl0aG9uJywgJy1waCcsICc3LjAnLCAnLXRuJywgJzgnLCAnLW1hJywgJzIwMCcsICctbWV0YWxfYmluZGluZycsICctaW1hZScsICc8aW5maWxlLm1hZT4nLCAnLW9tYWUnLCAnPG91dGZpbGUubWFlPic=

> <r_lp_tautomer_probability>
1

> <r_epik_Ionization_Penalty>
0.000271783

> <r_epik_Ionization_Penalty_Charging>
0

> <r_epik_Ionization_Penalty_Neutral>
0.000271783

> <r_epik_State_Penalty>
-0

> <r_epik_Charging_Adjusted_Penalty>
0

> <i_epik_Tot_Q>
0

> <i_epik_Tot_abs_Q>
0

> <r_epik_Metal_State_Penalty>
-0

> <b_epik_Metal_Only>
0

> <s_lp_Force_Field>
OPLS_2005

> <r_lp_Energy>
13.3019

> <b_lp_Chiralities_Consistent>
1

> <s_lp_Variant>
AV-unprocessed.smi:707-2

> <Gold.Version>
5.8.1

> <Gold.Id.Protein>
6NUR|6NUR_protein|mol2

> <Gold.PLP.Fitness>
45.3969

> <Gold.PLP.PLP>
-37.6849

> <Gold.PLP.part.hbond>
-2.4969

> <Gold.PLP.part.metal>
0.0000

> <Gold.PLP.part.buried>
-2.2707

> <Gold.PLP.part.nonpolar>
-34.3705

> <Gold.PLP.part.repulsive>
1.4155

> <Gold.PLP.ligand.clash>
0.0000

> <Gold.PLP.ligand.torsion>
0.6023

> <Gold.PLP.Chemscore.Hbond>
1.9500

> <Gold.PLP.Chemscore.CHOScore>
0.9982

> <Gold.PLP.Chemscore.Metal>
0.0000

> <Gold.Chemscore.Hbonds>
donor molecule, donor type, donor heavy atom, donor atom, acceptor molecule, acceptor atom, score
      L1  H     9    29       P1  7948  0.70
      P1  H  7989  7998       L1     3  0.75
      L1  C     5    24       P1  7948  0.98

> <Gold.PLP.Chemscore.Internal.Correction>
0.0722

> <Gold.Rescore>
     Score         DG    S(hbond)    S(metal)    S(lipo)     H(rot)  DE(clash)    DE(int)     intcor
     10.46     -11.34       0.71        0.00      82.89       2.42       0.10       0.78       ----

> <Gold.Chemscore.Fitness>
10.4634

> <Gold.Chemscore.DG>
-11.3436

> <Gold.Chemscore.ZeroCoef>
-5.4800

> <Gold.Chemscore.Hbond>
0.7061

> <Gold.Chemscore.Metal>
0.0000

> <Gold.Chemscore.Lipo>
82.8901

> <Gold.Chemscore.Internal_Hbond>
0.0000

> <Gold.Chemscore.DEClash>
0.0978

> <Gold.Chemscore.DEInternal>
0.7825

> <Gold.Chemscore.Rot>
2.4191

> <Gold.Chemscore.Internal.Correction>
   9.000000E+99

> <Gold.Chemscore.Hbonds>
donor molecule, donor type, donor heavy atom, donor atom, acceptor molecule, acceptor atom, score
      L1  H     9    29       P1  7948  0.07
      P1  H  7989  7998       L1     3  0.04

> <Gold.Chemscore.Hbond.Weighted>
-2.3584

> <Gold.Chemscore.Metal.Weighted>
-0.0000

> <Gold.Chemscore.Lipo.Weighted>
-9.6981

> <Gold.Chemscore.Internal_Hbond.Weighted>
0.0000

> <Gold.Chemscore.DEClash.Weighted>
0.0978

> <Gold.Chemscore.DEInternal.Weighted>
0.7825

> <Gold.Chemscore.Rot.Weighted>
6.1929

> <Gold.Chemscore.Internal.Correction.Weighted>
   9.000000E+99

> <Gold.Protein.RotatedTorsions>
[ 6907 6896 6895 6894 ] final  -57.87 input  -60.11 | X-H torsion
[ 7974 7965 7964 7962 ] final -169.85 input  175.53 | X-H torsion
[ 8008 7997 7996 7995 ] final    0.27 input   59.86 | X-H torsion
[ 10167 10162 10161 10158 ] final  -30.97 input  -65.29 | X-H torsion
[ 10718 10713 10712 10709 ] final  -92.47 input   66.30 | X-H torsion
[ 10763 10752 10751 10750 ] final  -51.08 input  -60.55 | X-H torsion
[ 11005 11000 10999 10996 ] final  -18.47 input  -57.11 | X-H torsion

> <Gold.Protein.ActiveResidues>
 VAL166  LYS551  ARG553  GLY616  TRP617  ASP618  TYR619  PRO620  LYS621  CYS622 
 ASP623  PHE694  ASN695  SER759  ASP760  ASP761  ALA762  ILE779  LEU786  VAL792 
 PHE793  MET794  SER795  GLU796  ALA797  LYS798  CYS799  TRP800  GLU811  SER814 

> <Gold.Protein.RotatedAtoms>
  150.8051  134.7171  159.6636 H   0  0  0  0  0  0  0  0  0  0  0  0  # atno 6907 bound_to 6896
  152.4170  134.6020  160.0012 H   0  0  0  0  0  0  0  0  0  0  0  0  # atno 6908 bound_to 6896
  151.6246  133.3299  159.3131 H   0  0  0  0  0  0  0  0  0  0  0  0  # atno 6909 bound_to 6896
  144.7179  140.2160  143.6322 H   0  0  0  0  0  0  0  0  0  0  0  0  # atno 7974 bound_to 7965
  154.6662  140.2601  155.7056 H   0  0  0  0  0  0  0  0  0  0  0  0  # atno 8008 bound_to 7997
  156.2639  140.2838  156.1075 H   0  0  0  0  0  0  0  0  0  0  0  0  # atno 8009 bound_to 7997
  155.1235  140.0377  157.2746 H   0  0  0  0  0  0  0  0  0  0  0  0  # atno 8010 bound_to 7997
  140.7242  143.3807  151.1606 H   0  0  0  0  0  0  0  0  0  0  0  0  # atno 10167 bound_to 10162
  156.0003  130.4988  150.5631 H   0  0  0  0  0  0  0  0  0  0  0  0  # atno 10718 bound_to 10713
  154.1209  135.6535  153.4903 H   0  0  0  0  0  0  0  0  0  0  0  0  # atno 10763 bound_to 10752
  153.0226  135.5270  154.7098 H   0  0  0  0  0  0  0  0  0  0  0  0  # atno 10764 bound_to 10752
  154.6305  135.2975  155.0192 H   0  0  0  0  0  0  0  0  0  0  0  0  # atno 10765 bound_to 10752
  140.8271  133.8024  155.9720 H   0  0  0  0  0  0  0  0  0  0  0  0  # atno 11005 bound_to 11000
  145.8546  139.2192  143.1752 LP  0  0  0  0  0  0  0  0  0  0  0  0  # atno 17320 bound_to 7965
  146.0229  140.8330  142.9914 LP  0  0  0  0  0  0  0  0  0  0  0  0  # atno 17321 bound_to 7965
  139.7395  143.8946  152.3045 LP  0  0  0  0  0  0  0  0  0  0  0  0  # atno 17342 bound_to 10162
  139.8763  144.7042  150.8930 LP  0  0  0  0  0  0  0  0  0  0  0  0  # atno 17343 bound_to 10162
  157.3537  131.0738  151.1692 LP  0  0  0  0  0  0  0  0  0  0  0  0  # atno 17370 bound_to 10713
  157.2500  130.6609  149.5927 LP  0  0  0  0  0  0  0  0  0  0  0  0  # atno 17371 bound_to 10713
  140.9037  134.2346  157.5027 LP  0  0  0  0  0  0  0  0  0  0  0  0  # atno 17394 bound_to 11000
  139.8706  134.9718  156.4751 LP  0  0  0  0  0  0  0  0  0  0  0  0  # atno 17395 bound_to 11000

$$$$
