AV-unprocessed.smi:2019|AV-procd|sdf|8171|dock5
  -GOLD-   2272010423D 1   1.00000     0.00000
 Structure written by MMmdl.
 36 37  0  0  0  0  0  0  0  0  1 V2000
  154.5144  139.6682  159.1387 O   0  0  0  0  0  0  0  0  0  0  0  0
  153.5273  140.3501  159.4175 C   0  0  0  0  0  0  0  0  0  0  0  0
  153.5843  141.3937  160.5416 C   0  0  0  0  0  0  0  0  0  0  0  0
  152.9685  142.6787  160.1711 N   0  0  0  0  0  0  0  0  0  0  0  0
  153.3212  143.2234  158.9202 C   0  0  0  0  0  0  0  0  0  0  0  0
  152.8181  144.3900  158.4864 C   0  0  0  0  0  0  0  0  0  0  0  0
  151.8896  145.0926  159.3401 C   0  0  0  0  0  0  0  0  0  0  0  0
  151.5478  144.5820  160.5398 C   0  0  0  0  0  0  0  0  0  0  0  0
  152.0966  143.3080  161.0187 C   0  0  0  0  0  0  0  0  0  0  0  0
  151.7901  142.8347  162.1133 O   0  0  0  0  0  0  0  0  0  0  0  0
  152.3575  140.2510  158.7660 N   0  0  0  0  0  0  0  0  0  0  0  0
  152.0664  139.3134  157.6790 C   0  0  2  0  0  0  0  0  0  0  0  0
  151.9669  140.1319  156.3710 C   0  0  0  0  0  0  0  0  0  0  0  0
  152.1996  139.2993  155.0982 C   0  0  0  0  0  0  0  0  0  0  0  0
  151.1403  138.2200  154.8269 C   0  0  0  0  0  0  0  0  0  0  0  0
  151.0691  137.1362  155.9161 C   0  0  0  0  0  0  0  0  0  0  0  0
  150.3573  137.5958  157.1014 N   0  0  0  0  0  0  0  0  0  0  0  0
  150.7231  138.5874  157.9280 C   0  0  0  0  0  0  0  0  0  0  0  0
  149.9957  138.9138  158.8660 O   0  0  0  0  0  0  0  0  0  0  0  0
  153.0941  140.9714  161.4198 H   0  0  0  0  0  0  0  0  0  0  0  0
  154.6222  141.5512  160.8421 H   0  0  0  0  0  0  0  0  0  0  0  0
  154.0262  142.6402  158.3458 H   0  0  0  0  0  0  0  0  0  0  0  0
  153.1033  144.7940  157.5262 H   0  0  0  0  0  0  0  0  0  0  0  0
  151.4685  146.0329  159.0155 H   0  0  0  0  0  0  0  0  0  0  0  0
  150.8527  145.1221  161.1657 H   0  0  0  0  0  0  0  0  0  0  0  0
  151.5994  140.8471  159.0646 H   0  0  0  0  0  0  0  0  0  0  0  0
  152.8781  138.5871  157.6069 H   0  0  0  0  0  0  0  0  0  0  0  0
  151.0119  140.6573  156.3094 H   0  0  0  0  0  0  0  0  0  0  0  0
  152.7280  140.9137  156.3822 H   0  0  0  0  0  0  0  0  0  0  0  0
  152.2312  139.9753  154.2431 H   0  0  0  0  0  0  0  0  0  0  0  0
  153.1858  138.8353  155.1446 H   0  0  0  0  0  0  0  0  0  0  0  0
  150.1605  138.6789  154.6869 H   0  0  0  0  0  0  0  0  0  0  0  0
  151.3826  137.7398  153.8784 H   0  0  0  0  0  0  0  0  0  0  0  0
  150.5240  136.2750  155.5290 H   0  0  0  0  0  0  0  0  0  0  0  0
  152.0640  136.7757  156.1816 H   0  0  0  0  0  0  0  0  0  0  0  0
  149.4806  137.1355  157.3002 H   0  0  0  0  0  0  0  0  0  0  0  0
  1  2  2  0  0  0  0
  2  3  1  0  0  0  0
  2 11  1  0  0  0  0
  3  4  1  0  0  0  0
  3 20  1  0  0  0  0
  3 21  1  0  0  0  0
  4  9  1  0  0  0  0
  4  5  1  0  0  0  0
  5  6  2  0  0  0  0
  5 22  1  0  0  0  0
  6  7  1  0  0  0  0
  6 23  1  0  0  0  0
  7  8  2  0  0  0  0
  7 24  1  0  0  0  0
  8  9  1  0  0  0  0
  8 25  1  0  0  0  0
  9 10  2  0  0  0  0
 11 12  1  0  0  0  0
 11 26  1  0  0  0  0
 12 18  1  0  0  0  0
 12 13  1  0  0  0  0
 12 27  1  0  0  0  0
 13 14  1  0  0  0  0
 13 28  1  0  0  0  0
 13 29  1  0  0  0  0
 14 15  1  0  0  0  0
 14 30  1  0  0  0  0
 14 31  1  0  0  0  0
 15 16  1  0  0  0  0
 15 32  1  0  0  0  0
 15 33  1  0  0  0  0
 16 17  1  0  0  0  0
 16 34  1  0  0  0  0
 16 35  1  0  0  0  0
 17 18  1  0  0  0  0
 17 36  1  0  0  0  0
 18 19  2  0  0  0  0
M  END
> <s_m_source_file>
AV-unprocessed.smi

> <i_m_source_file_index>
2019

> <i_lp_mmshare_version>
43012

> <i_f3d_flags>
0

> <s_epik_input>
Tz1jMVtjSF1bY0hdW2NIXVtjSF1uMVtDSDJdQyg9TylbTkhdW0NAQEhdMltDSDJdW0NIMl1bQ0gyXVtDSDJdW05IXUMyPU8=

> <s_epik_cmdline>
J2VwaWtfcHl0aG9uJywgJy1waCcsICc3LjAnLCAnLXRuJywgJzgnLCAnLW1hJywgJzIwMCcsICctbWV0YWxfYmluZGluZycsICctaW1hZScsICc8aW5maWxlLm1hZT4nLCAnLW9tYWUnLCAnPG91dGZpbGUubWFlPic=

> <r_lp_tautomer_probability>
1

> <r_epik_Ionization_Penalty>
3.70786e-07

> <r_epik_Ionization_Penalty_Charging>
3.17464e-07

> <r_epik_Ionization_Penalty_Neutral>
5.33217e-08

> <r_epik_State_Penalty>
-0

> <r_epik_Charging_Adjusted_Penalty>
3.17464e-07

> <i_epik_Tot_Q>
0

> <i_epik_Tot_abs_Q>
0

> <r_epik_Metal_State_Penalty>
-0

> <b_epik_Metal_Only>
0

> <s_lp_Force_Field>
OPLS_2005

> <r_lp_Energy>
20.44

> <b_lp_Chiralities_Consistent>
1

> <s_lp_Variant>
AV-unprocessed.smi:2019-1

> <Gold.Version>
5.8.1

> <Gold.Id.Protein>
6NUR|6NUR_protein|mol2

> <Gold.PLP.Fitness>
46.1638

> <Gold.PLP.PLP>
-41.5558

> <Gold.PLP.part.hbond>
-2.7091

> <Gold.PLP.part.metal>
0.0000

> <Gold.PLP.part.buried>
-4.8448

> <Gold.PLP.part.nonpolar>
-36.7536

> <Gold.PLP.part.repulsive>
1.8562

> <Gold.PLP.ligand.clash>
0.0000

> <Gold.PLP.ligand.torsion>
0.4632

> <Gold.PLP.Chemscore.Hbond>
1.8445

> <Gold.PLP.Chemscore.CHOScore>
0.0000

> <Gold.PLP.Chemscore.Metal>
0.0000

> <Gold.Chemscore.Hbonds>
donor molecule, donor type, donor heavy atom, donor atom, acceptor molecule, acceptor atom, score
      P1  H  6933  6945       L1    10  0.86
      P1  H  7997  8008       L1     1  1.00

> <Gold.PLP.Chemscore.Internal.Correction>
0.0010

> <Gold.Rescore>
     Score         DG    S(hbond)    S(metal)    S(lipo)     H(rot)  DE(clash)    DE(int)     intcor
     17.37     -18.31       1.79        0.00      93.56       1.59       0.57       0.37       ----

> <Gold.Chemscore.Fitness>
17.3689

> <Gold.Chemscore.DG>
-18.3102

> <Gold.Chemscore.ZeroCoef>
-5.4800

> <Gold.Chemscore.Hbond>
1.7858

> <Gold.Chemscore.Metal>
0.0000

> <Gold.Chemscore.Lipo>
93.5551

> <Gold.Chemscore.Internal_Hbond>
0.0000

> <Gold.Chemscore.DEClash>
0.5718

> <Gold.Chemscore.DEInternal>
0.3694

> <Gold.Chemscore.Rot>
1.5939

> <Gold.Chemscore.Internal.Correction>
   9.000000E+99

> <Gold.Chemscore.Hbonds>
donor molecule, donor type, donor heavy atom, donor atom, acceptor molecule, acceptor atom, score
      P1  H  6933  6945       L1    10  0.76
      P1  H  7997  8008       L1     1  0.78

> <Gold.Chemscore.Hbond.Weighted>
-5.9646

> <Gold.Chemscore.Metal.Weighted>
-0.0000

> <Gold.Chemscore.Lipo.Weighted>
-10.9459

> <Gold.Chemscore.Internal_Hbond.Weighted>
0.0000

> <Gold.Chemscore.DEClash.Weighted>
0.5718

> <Gold.Chemscore.DEInternal.Weighted>
0.3694

> <Gold.Chemscore.Rot.Weighted>
4.0804

> <Gold.Chemscore.Internal.Correction.Weighted>
   9.000000E+99

> <Gold.Protein.RotatedTorsions>
[ 6907 6896 6895 6894 ] final   36.21 input  -60.11 | X-H torsion
[ 7974 7965 7964 7962 ] final -178.74 input  175.53 | X-H torsion
[ 8008 7997 7996 7995 ] final -120.12 input   59.86 | X-H torsion
[ 10167 10162 10161 10158 ] final  130.58 input  -65.29 | X-H torsion
[ 10718 10713 10712 10709 ] final   -1.45 input   66.30 | X-H torsion
[ 10763 10752 10751 10750 ] final  117.01 input  -60.55 | X-H torsion
[ 11005 11000 10999 10996 ] final  -90.98 input  -57.11 | X-H torsion

> <Gold.Protein.ActiveResidues>
 VAL166  LYS551  ARG553  GLY616  TRP617  ASP618  TYR619  PRO620  LYS621  CYS622 
 ASP623  PHE694  ASN695  SER759  ASP760  ASP761  ALA762  ILE779  LEU786  VAL792 
 PHE793  MET794  SER795  GLU796  ALA797  LYS798  CYS799  TRP800  GLU811  SER814 

> <Gold.Protein.RotatedAtoms>
  152.1266  134.9166  160.0560 H   0  0  0  0  0  0  0  0  0  0  0  0  # atno 6907 bound_to 6896
  152.0286  133.3923  159.4296 H   0  0  0  0  0  0  0  0  0  0  0  0  # atno 6908 bound_to 6896
  150.6853  134.3467  159.4935 H   0  0  0  0  0  0  0  0  0  0  0  0  # atno 6909 bound_to 6896
  144.7132  140.0823  143.6425 H   0  0  0  0  0  0  0  0  0  0  0  0  # atno 7974 bound_to 7965
  155.1266  140.0399  157.2764 H   0  0  0  0  0  0  0  0  0  0  0  0  # atno 8008 bound_to 7997
  154.6573  140.2583  155.7121 H   0  0  0  0  0  0  0  0  0  0  0  0  # atno 8009 bound_to 7997
  156.2604  140.2824  156.1032 H   0  0  0  0  0  0  0  0  0  0  0  0  # atno 8010 bound_to 7997
  139.5423  144.6742  151.4584 H   0  0  0  0  0  0  0  0  0  0  0  0  # atno 10167 bound_to 10162
  156.8054  130.5406  149.5716 H   0  0  0  0  0  0  0  0  0  0  0  0  # atno 10718 bound_to 10713
  153.5460  135.3549  155.2739 H   0  0  0  0  0  0  0  0  0  0  0  0  # atno 10763 bound_to 10752
  154.8712  135.4102  154.2991 H   0  0  0  0  0  0  0  0  0  0  0  0  # atno 10764 bound_to 10752
  153.3707  135.7064  153.6708 H   0  0  0  0  0  0  0  0  0  0  0  0  # atno 10765 bound_to 10752
  141.1554  133.7727  156.9815 H   0  0  0  0  0  0  0  0  0  0  0  0  # atno 11005 bound_to 11000
  145.9691  139.2857  143.1109 LP  0  0  0  0  0  0  0  0  0  0  0  0  # atno 17320 bound_to 7965
  145.9136  140.9163  143.0441 LP  0  0  0  0  0  0  0  0  0  0  0  0  # atno 17321 bound_to 7965
  140.6658  143.8400  150.6940 LP  0  0  0  0  0  0  0  0  0  0  0  0  # atno 17342 bound_to 10162
  140.1809  143.4115  152.1933 LP  0  0  0  0  0  0  0  0  0  0  0  0  # atno 17343 bound_to 10162
  156.1076  130.6016  150.9996 LP  0  0  0  0  0  0  0  0  0  0  0  0  # atno 17370 bound_to 10713
  157.6533  131.0893  150.8003 LP  0  0  0  0  0  0  0  0  0  0  0  0  # atno 17371 bound_to 10713
  140.1063  134.9505  157.1998 LP  0  0  0  0  0  0  0  0  0  0  0  0  # atno 17394 bound_to 11000
  140.3252  134.2871  155.7238 LP  0  0  0  0  0  0  0  0  0  0  0  0  # atno 17395 bound_to 11000

$$$$
