AV-unprocessed.smi:1669|AV-procd|sdf|6686|dock3
  -GOLD-   22720 7413D 1   1.00000     0.00000
 Structure written by MMmdl.
 48 50  0  0  0  0  0  0  0  0  2 V2000
  145.8858  137.0729  151.2090 C   0  0  0  0  0  0  0  0  0  0  0  0
  146.3216  136.5207  152.5132 N   0  3  2  0  0  0  0  0  0  0  0  0
  145.5040  135.3579  152.9451 C   0  0  0  0  0  0  0  0  0  0  0  0
  145.3825  134.3139  151.8498 C   0  0  0  0  0  0  0  0  0  0  0  0
  144.1096  133.8355  151.4730 C   0  0  0  0  0  0  0  0  0  0  0  0
  143.9897  132.8672  150.4574 C   0  0  0  0  0  0  0  0  0  0  0  0
  145.1418  132.3748  149.8139 C   0  0  0  0  0  0  0  0  0  0  0  0
  146.4139  132.8513  150.1858 C   0  0  0  0  0  0  0  0  0  0  0  0
  146.5345  133.8199  151.2012 C   0  0  0  0  0  0  0  0  0  0  0  0
  146.4314  137.5729  153.5554 C   0  0  0  0  0  0  0  0  0  0  0  0
  147.2179  137.0903  154.7902 C   0  0  1  0  0  0  0  0  0  0  0  0
  148.3736  136.4042  154.3496 O   0  0  0  0  0  0  0  0  0  0  0  0
  147.6308  138.2649  155.6982 C   0  0  0  0  0  0  0  0  0  0  0  0
  148.8773  138.8881  155.2722 N   0  0  0  0  0  0  0  0  0  0  0  0
  149.0546  139.9831  154.4892 C   0  0  0  0  0  0  0  0  0  0  0  0
  147.9055  140.7565  153.9180 C   0  0  0  0  0  0  0  0  0  0  0  0
  147.9182  142.1137  154.3050 O   0  0  0  0  0  0  0  0  0  0  0  0
  150.3208  140.3311  154.2587 N   0  0  0  0  0  0  0  0  0  0  0  0
  151.0325  139.3786  154.9612 C   0  0  0  0  0  0  0  0  0  0  0  0
  152.4258  139.1996  155.1148 C   0  0  0  0  0  0  0  0  0  0  0  0
  152.9273  138.1357  155.8931 C   0  0  0  0  0  0  0  0  0  0  0  0
  152.0450  137.2379  156.5284 C   0  0  0  0  0  0  0  0  0  0  0  0
  150.6530  137.3983  156.3886 C   0  0  0  0  0  0  0  0  0  0  0  0
  150.1579  138.4610  155.6092 C   0  0  0  0  0  0  0  0  0  0  0  0
  144.8792  137.4878  151.2773 H   0  0  0  0  0  0  0  0  0  0  0  0
  145.8888  136.3079  150.4327 H   0  0  0  0  0  0  0  0  0  0  0  0
  146.5599  137.8649  150.8811 H   0  0  0  0  0  0  0  0  0  0  0  0
  145.9525  134.8708  153.8109 H   0  0  0  0  0  0  0  0  0  0  0  0
  144.5162  135.6926  153.2661 H   0  0  0  0  0  0  0  0  0  0  0  0
  143.2218  134.2089  151.9628 H   0  0  0  0  0  0  0  0  0  0  0  0
  143.0143  132.5019  150.1711 H   0  0  0  0  0  0  0  0  0  0  0  0
  145.0495  131.6326  149.0344 H   0  0  0  0  0  0  0  0  0  0  0  0
  147.2970  132.4738  149.6913 H   0  0  0  0  0  0  0  0  0  0  0  0
  147.5140  134.1798  151.4810 H   0  0  0  0  0  0  0  0  0  0  0  0
  146.9344  138.4524  153.1493 H   0  0  0  0  0  0  0  0  0  0  0  0
  145.4305  137.9023  153.8390 H   0  0  0  0  0  0  0  0  0  0  0  0
  146.6180  136.3927  155.3737 H   0  0  0  0  0  0  0  0  0  0  0  0
  148.3343  136.3220  153.4083 H   0  0  0  0  0  0  0  0  0  0  0  0
  146.8393  139.0128  155.7426 H   0  0  0  0  0  0  0  0  0  0  0  0
  147.7668  137.9112  156.7211 H   0  0  0  0  0  0  0  0  0  0  0  0
  147.9441  140.7067  152.8291 H   0  0  0  0  0  0  0  0  0  0  0  0
  146.9626  140.2992  154.2175 H   0  0  0  0  0  0  0  0  0  0  0  0
  147.3819  142.6040  153.7014 H   0  0  0  0  0  0  0  0  0  0  0  0
  153.1101  139.8825  154.6333 H   0  0  0  0  0  0  0  0  0  0  0  0
  153.9943  138.0086  156.0040 H   0  0  0  0  0  0  0  0  0  0  0  0
  152.4382  136.4269  157.1237 H   0  0  0  0  0  0  0  0  0  0  0  0
  149.9756  136.7126  156.8750 H   0  0  0  0  0  0  0  0  0  0  0  0
  147.2622  136.1789  152.3730 H   0  0  0  0  0  0  0  0  0  0  0  0
  1  2  1  0  0  0  0
  1 25  1  0  0  0  0
  1 26  1  0  0  0  0
  1 27  1  0  0  0  0
  2  3  1  0  0  0  0
  2 10  1  0  0  0  0
  2 48  1  0  0  0  0
  3  4  1  0  0  0  0
  3 28  1  0  0  0  0
  3 29  1  0  0  0  0
  4  9  1  0  0  0  0
  4  5  2  0  0  0  0
  5  6  1  0  0  0  0
  5 30  1  0  0  0  0
  6  7  2  0  0  0  0
  6 31  1  0  0  0  0
  7  8  1  0  0  0  0
  7 32  1  0  0  0  0
  8  9  2  0  0  0  0
  8 33  1  0  0  0  0
  9 34  1  0  0  0  0
 10 11  1  0  0  0  0
 10 35  1  0  0  0  0
 10 36  1  0  0  0  0
 11 12  1  0  0  0  0
 11 13  1  0  0  0  0
 11 37  1  0  0  0  0
 12 38  1  0  0  0  0
 13 14  1  0  0  0  0
 13 39  1  0  0  0  0
 13 40  1  0  0  0  0
 14 24  1  0  0  0  0
 14 15  1  0  0  0  0
 15 16  1  0  0  0  0
 15 18  2  0  0  0  0
 16 17  1  0  0  0  0
 16 41  1  0  0  0  0
 16 42  1  0  0  0  0
 17 43  1  0  0  0  0
 18 19  1  0  0  0  0
 19 24  2  0  0  0  0
 19 20  1  0  0  0  0
 20 21  2  0  0  0  0
 20 44  1  0  0  0  0
 21 22  1  0  0  0  0
 21 45  1  0  0  0  0
 22 23  2  0  0  0  0
 22 46  1  0  0  0  0
 23 24  1  0  0  0  0
 23 47  1  0  0  0  0
M  CHG  1   2   1
M  END
> <s_m_source_file>
AV-unprocessed.smi

> <i_m_source_file_index>
1669

> <i_lp_mmshare_version>
43012

> <i_f3d_flags>
0

> <s_epik_input>
W2NIXTFbY0hdW2NIXVtjSF1bY0hdYzFbQ0gyXU4oW0NIM10pW0NIMl1bQ0BIXShbT0hdKVtDSDJdbihjKG4yKVtDSDJdW09IXSljKGMyMylbY0hdW2NIXVtjSF1bY0hdMw==

> <s_epik_cmdline>
J2VwaWtfcHl0aG9uJywgJy1waCcsICc3LjAnLCAnLXRuJywgJzgnLCAnLW1hJywgJzIwMCcsICctbWV0YWxfYmluZGluZycsICctaW1hZScsICc8aW5maWxlLm1hZT4nLCAnLW9tYWUnLCAnPG91dGZpbGUubWFlPic=

> <r_epik_Ionization_Penalty>
0.0949884

> <r_epik_Ionization_Penalty_Charging>
0.0475377

> <r_epik_Ionization_Penalty_Neutral>
0.0474507

> <r_epik_State_Penalty>
0.078247

> <r_epik_Charging_Adjusted_Penalty>
0.125785

> <i_epik_Tot_Q>
1

> <i_epik_Tot_abs_Q>
1

> <r_epik_Metal_State_Penalty>
0.0403451

> <b_epik_Metal_Only>
0

> <s_lp_Force_Field>
OPLS_2005

> <r_lp_Energy>
16.6823

> <b_lp_Chiralities_Consistent>
1

> <s_lp_Variant>
AV-unprocessed.smi:1669-4

> <Gold.Version>
5.8.1

> <Gold.Id.Protein>
6NUR|6NUR_protein|mol2

> <Gold.PLP.Fitness>
48.8302

> <Gold.PLP.PLP>
-38.2521

> <Gold.PLP.part.hbond>
-4.6401

> <Gold.PLP.part.metal>
0.0000

> <Gold.PLP.part.buried>
-2.7143

> <Gold.PLP.part.nonpolar>
-32.6323

> <Gold.PLP.part.repulsive>
0.1561

> <Gold.PLP.ligand.clash>
0.0000

> <Gold.PLP.ligand.torsion>
0.8887

> <Gold.PLP.Chemscore.Hbond>
4.0000

> <Gold.PLP.Chemscore.CHOScore>
0.0000

> <Gold.PLP.Chemscore.Metal>
0.0000

> <Gold.Chemscore.Hbonds>
donor molecule, donor type, donor heavy atom, donor atom, acceptor molecule, acceptor atom, score
      L1  H     2    48       P1  7948  2.00
      L1  H    12    38       P1  7948  1.00
      P1  H  7989  7998       L1    18  0.69

> <Gold.PLP.Chemscore.Internal.Correction>
0.3554

> <Gold.Rescore>
     Score         DG    S(hbond)    S(metal)    S(lipo)     H(rot)  DE(clash)    DE(int)     intcor
     15.68     -18.53       2.95        0.00      96.73       3.17       0.87       1.98       ----

> <Gold.Chemscore.Fitness>
15.6825

> <Gold.Chemscore.DG>
-18.5347

> <Gold.Chemscore.ZeroCoef>
-5.4800

> <Gold.Chemscore.Hbond>
2.9522

> <Gold.Chemscore.Metal>
0.0000

> <Gold.Chemscore.Lipo>
96.7292

> <Gold.Chemscore.Internal_Hbond>
0.0000

> <Gold.Chemscore.DEClash>
0.8722

> <Gold.Chemscore.DEInternal>
1.9800

> <Gold.Chemscore.Rot>
3.1731

> <Gold.Chemscore.Internal.Correction>
   9.000000E+99

> <Gold.Chemscore.Hbonds>
donor molecule, donor type, donor heavy atom, donor atom, acceptor molecule, acceptor atom, score
      L1  H     2    48       P1  7948  0.99
      L1  H    12    38       P1  7948  0.98
      P1  H  7989  7998       L1    18  0.07

> <Gold.Chemscore.Hbond.Weighted>
-9.8604

> <Gold.Chemscore.Metal.Weighted>
-0.0000

> <Gold.Chemscore.Lipo.Weighted>
-11.3173

> <Gold.Chemscore.Internal_Hbond.Weighted>
0.0000

> <Gold.Chemscore.DEClash.Weighted>
0.8722

> <Gold.Chemscore.DEInternal.Weighted>
1.9800

> <Gold.Chemscore.Rot.Weighted>
8.1230

> <Gold.Chemscore.Internal.Correction.Weighted>
   9.000000E+99

> <Gold.Protein.RotatedTorsions>
[ 6907 6896 6895 6894 ] final  176.52 input  -60.11 | X-H torsion
[ 7974 7965 7964 7962 ] final   57.36 input  175.53 | X-H torsion
[ 8008 7997 7996 7995 ] final  102.01 input   59.86 | X-H torsion
[ 10167 10162 10161 10158 ] final  148.75 input  -65.29 | X-H torsion
[ 10718 10713 10712 10709 ] final    2.72 input   66.30 | X-H torsion
[ 10763 10752 10751 10750 ] final  -21.30 input  -60.55 | X-H torsion
[ 11005 11000 10999 10996 ] final  -92.46 input  -57.11 | X-H torsion

> <Gold.Protein.ActiveResidues>
 VAL166  LYS551  ARG553  GLY616  TRP617  ASP618  TYR619  PRO620  LYS621  CYS622 
 ASP623  PHE694  ASN695  SER759  ASP760  ASP761  ALA762  ILE779  LEU786  VAL792 
 PHE793  MET794  SER795  GLU796  ALA797  LYS798  CYS799  TRP800  GLU811  SER814 

> <Gold.Protein.RotatedAtoms>
  151.7188  133.3314  159.3309 H   0  0  0  0  0  0  0  0  0  0  0  0  # atno 6907 bound_to 6896
  150.7662  134.6466  159.6275 H   0  0  0  0  0  0  0  0  0  0  0  0  # atno 6908 bound_to 6896
  152.3665  134.6799  160.0242 H   0  0  0  0  0  0  0  0  0  0  0  0  # atno 6909 bound_to 6896
  145.9299  139.3799  143.0427 H   0  0  0  0  0  0  0  0  0  0  0  0  # atno 7974 bound_to 7965
  156.1353  140.3188  155.8412 H   0  0  0  0  0  0  0  0  0  0  0  0  # atno 8008 bound_to 7997
  155.4255  140.0515  157.3039 H   0  0  0  0  0  0  0  0  0  0  0  0  # atno 8009 bound_to 7997
  154.4932  140.2100  155.9516 H   0  0  0  0  0  0  0  0  0  0  0  0  # atno 8010 bound_to 7997
  139.4870  144.5655  151.7152 H   0  0  0  0  0  0  0  0  0  0  0  0  # atno 10167 bound_to 10162
  156.8672  130.5607  149.5659 H   0  0  0  0  0  0  0  0  0  0  0  0  # atno 10718 bound_to 10713
  153.6340  135.6988  153.5265 H   0  0  0  0  0  0  0  0  0  0  0  0  # atno 10763 bound_to 10752
  153.2836  135.4178  155.1101 H   0  0  0  0  0  0  0  0  0  0  0  0  # atno 10764 bound_to 10752
  154.8515  135.3608  154.5883 H   0  0  0  0  0  0  0  0  0  0  0  0  # atno 10765 bound_to 10752
  141.1521  133.7822  157.0023 H   0  0  0  0  0  0  0  0  0  0  0  0  # atno 11005 bound_to 11000
  145.8439  140.9565  143.0785 LP  0  0  0  0  0  0  0  0  0  0  0  0  # atno 17320 bound_to 7965
  144.6763  140.0320  143.7482 LP  0  0  0  0  0  0  0  0  0  0  0  0  # atno 17321 bound_to 7965
  140.5233  144.0845  150.6029 LP  0  0  0  0  0  0  0  0  0  0  0  0  # atno 17342 bound_to 10162
  140.3810  143.2802  152.0170 LP  0  0  0  0  0  0  0  0  0  0  0  0  # atno 17343 bound_to 10162
  156.0746  130.5771  150.9448 LP  0  0  0  0  0  0  0  0  0  0  0  0  # atno 17370 bound_to 10713
  157.6217  131.0929  150.8610 LP  0  0  0  0  0  0  0  0  0  0  0  0  # atno 17371 bound_to 10713
  140.0932  134.9580  157.1809 LP  0  0  0  0  0  0  0  0  0  0  0  0  # atno 17394 bound_to 11000
  140.3418  134.2696  155.7211 LP  0  0  0  0  0  0  0  0  0  0  0  0  # atno 17395 bound_to 11000

$$$$
