AV-unprocessed.smi:1381|AV-procd|sdf|5607|dock4
  -GOLD-   22720 5213D 1   1.00000     0.00000
 Structure written by MMmdl.
 43 44  0  0  0  0  0  0  0  0  2 V2000
  138.0005  137.1655  154.1413 C   0  0  0  0  0  0  0  0  0  0  0  0
  139.4800  137.1300  153.9670 C   0  0  0  0  0  0  0  0  0  0  0  0
  140.3739  138.0080  153.4213 C   0  0  0  0  0  0  0  0  0  0  0  0
  141.6174  137.3419  153.5865 C   0  0  0  0  0  0  0  0  0  0  0  0
  142.8265  137.9357  153.1427 N   0  0  0  0  0  0  0  0  0  0  0  0
  144.0277  137.3468  153.0149 C   0  0  0  0  0  0  0  0  0  0  0  0
  144.2697  136.1645  153.2602 O   0  0  0  0  0  0  0  0  0  0  0  0
  144.9553  138.2142  152.5845 N   0  0  0  0  0  0  0  0  0  0  0  0
  146.3564  137.8844  152.3498 C   0  0  0  0  0  0  0  0  0  0  0  0
  147.2897  138.7180  153.2492 C   0  0  0  0  0  0  0  0  0  0  0  0
  148.3709  137.9025  153.8554 N   0  3  1  0  0  0  0  0  0  0  0  0
  149.6021  138.6895  154.0971 C   0  0  0  0  0  0  0  0  0  0  0  0
  150.7278  137.7821  154.6245 C   0  0  1  0  0  0  0  0  0  0  0  0
  151.9915  138.5769  154.9714 C   0  0  0  0  0  0  0  0  0  0  0  0
  150.2882  137.1198  155.8074 O   0  0  0  0  0  0  0  0  0  0  0  0
  149.1061  136.3346  155.6523 C   0  0  2  0  0  0  0  0  0  0  0  0
  149.3593  135.0547  154.8359 C   0  0  0  0  0  0  0  0  0  0  0  0
  147.9590  137.2017  155.0966 C   0  0  0  0  0  0  0  0  0  0  0  0
  141.4938  136.1639  154.1785 N   0  0  0  0  0  0  0  0  0  0  0  0
  140.1232  136.0216  154.4246 O   0  0  0  0  0  0  0  0  0  0  0  0
  137.6064  138.1588  153.9263 H   0  0  0  0  0  0  0  0  0  0  0  0
  137.7246  136.9067  155.1636 H   0  0  0  0  0  0  0  0  0  0  0  0
  137.5159  136.4566  153.4700 H   0  0  0  0  0  0  0  0  0  0  0  0
  140.1675  138.9708  152.9778 H   0  0  0  0  0  0  0  0  0  0  0  0
  142.7709  138.9146  152.9032 H   0  0  0  0  0  0  0  0  0  0  0  0
  144.6730  139.1671  152.4062 H   0  0  0  0  0  0  0  0  0  0  0  0
  146.5007  136.8147  152.5041 H   0  0  0  0  0  0  0  0  0  0  0  0
  146.5788  138.0797  151.3005 H   0  0  0  0  0  0  0  0  0  0  0  0
  147.7348  139.5029  152.6360 H   0  0  0  0  0  0  0  0  0  0  0  0
  146.7310  139.2245  154.0380 H   0  0  0  0  0  0  0  0  0  0  0  0
  149.9233  139.1653  153.1696 H   0  0  0  0  0  0  0  0  0  0  0  0
  149.3903  139.4880  154.8104 H   0  0  0  0  0  0  0  0  0  0  0  0
  150.9904  137.0458  153.8648 H   0  0  0  0  0  0  0  0  0  0  0  0
  152.3774  139.1036  154.0982 H   0  0  0  0  0  0  0  0  0  0  0  0
  152.7790  137.9165  155.3352 H   0  0  0  0  0  0  0  0  0  0  0  0
  151.7933  139.3164  155.7477 H   0  0  0  0  0  0  0  0  0  0  0  0
  148.8234  136.0157  156.6560 H   0  0  0  0  0  0  0  0  0  0  0  0
  148.4807  134.4093  154.8481 H   0  0  0  0  0  0  0  0  0  0  0  0
  150.1903  134.4857  155.2534 H   0  0  0  0  0  0  0  0  0  0  0  0
  149.5898  135.2665  153.7922 H   0  0  0  0  0  0  0  0  0  0  0  0
  147.6686  137.9430  155.8428 H   0  0  0  0  0  0  0  0  0  0  0  0
  147.0835  136.5778  154.9195 H   0  0  0  0  0  0  0  0  0  0  0  0
  148.6142  137.1936  153.1785 H   0  0  0  0  0  0  0  0  0  0  0  0
  1  2  1  0  0  0  0
  1 21  1  0  0  0  0
  1 22  1  0  0  0  0
  1 23  1  0  0  0  0
  2 20  1  0  0  0  0
  2  3  2  0  0  0  0
  3  4  1  0  0  0  0
  3 24  1  0  0  0  0
  4  5  1  0  0  0  0
  4 19  2  0  0  0  0
  5  6  1  0  0  0  0
  5 25  1  0  0  0  0
  6  7  2  0  0  0  0
  6  8  1  0  0  0  0
  8  9  1  0  0  0  0
  8 26  1  0  0  0  0
  9 10  1  0  0  0  0
  9 27  1  0  0  0  0
  9 28  1  0  0  0  0
 10 11  1  0  0  0  0
 10 29  1  0  0  0  0
 10 30  1  0  0  0  0
 11 18  1  0  0  0  0
 11 12  1  0  0  0  0
 11 43  1  0  0  0  0
 12 13  1  0  0  0  0
 12 31  1  0  0  0  0
 12 32  1  0  0  0  0
 13 14  1  0  0  0  0
 13 15  1  0  0  0  0
 13 33  1  0  0  0  0
 14 34  1  0  0  0  0
 14 35  1  0  0  0  0
 14 36  1  0  0  0  0
 15 16  1  0  0  0  0
 16 17  1  0  0  0  0
 16 18  1  0  0  0  0
 16 37  1  0  0  0  0
 17 38  1  0  0  0  0
 17 39  1  0  0  0  0
 17 40  1  0  0  0  0
 18 41  1  0  0  0  0
 18 42  1  0  0  0  0
 19 20  1  0  0  0  0
M  CHG  1  11   1
M  END
> <s_m_source_file>
AV-unprocessed.smi

> <i_m_source_file_index>
1381

> <i_lp_mmshare_version>
43012

> <i_f3d_flags>
0

> <s_epik_input>
W0NIM11jMVtjSF1jKG5vMSlbTkhdQyg9TylbTkhdW0NIMl1bQ0gyXU4yW0NIMl1bQ0BASF0oW0NIM10pT1tDQEBIXShbQ0gzXSlbQ0gyXTI=

> <s_epik_cmdline>
J2VwaWtfcHl0aG9uJywgJy1waCcsICc3LjAnLCAnLXRuJywgJzgnLCAnLW1hJywgJzIwMCcsICctbWV0YWxfYmluZGluZycsICctaW1hZScsICc8aW5maWxlLm1hZT4nLCAnLW9tYWUnLCAnPG91dGZpbGUubWFlPic=

> <r_epik_Ionization_Penalty>
0.707076

> <r_epik_Ionization_Penalty_Charging>
0.707039

> <r_epik_Ionization_Penalty_Neutral>
3.6548e-05

> <r_epik_State_Penalty>
0.730276

> <r_epik_Charging_Adjusted_Penalty>
1.43732

> <i_epik_Tot_Q>
1

> <i_epik_Tot_abs_Q>
1

> <r_epik_Metal_State_Penalty>
0.743132

> <b_epik_Metal_Only>
0

> <s_lp_Force_Field>
OPLS_2005

> <r_lp_Energy>
14.2109

> <b_lp_Chiralities_Consistent>
1

> <s_lp_Variant>
AV-unprocessed.smi:1381-6

> <Gold.Version>
5.8.1

> <Gold.Id.Protein>
6NUR|6NUR_protein|mol2

> <Gold.PLP.Fitness>
46.2528

> <Gold.PLP.PLP>
-32.6044

> <Gold.PLP.part.hbond>
-5.0000

> <Gold.PLP.part.metal>
0.0000

> <Gold.PLP.part.buried>
-3.4207

> <Gold.PLP.part.nonpolar>
-25.3306

> <Gold.PLP.part.repulsive>
0.3169

> <Gold.PLP.ligand.clash>
0.0000

> <Gold.PLP.ligand.torsion>
0.6661

> <Gold.PLP.Chemscore.Hbond>
4.9833

> <Gold.PLP.Chemscore.CHOScore>
0.0000

> <Gold.PLP.Chemscore.Metal>
0.0000

> <Gold.Chemscore.Hbonds>
donor molecule, donor type, donor heavy atom, donor atom, acceptor molecule, acceptor atom, score
      L1  H     5    25       P1 10175  0.99
      L1  H     8    26       P1 10175  1.00
      L1  H    11    43       P1  7948  2.00
      P1  H 11000 11005       L1    20  1.00

> <Gold.PLP.Chemscore.Internal.Correction>
0.0309

> <Gold.Rescore>
     Score         DG    S(hbond)    S(metal)    S(lipo)     H(rot)  DE(clash)    DE(int)     intcor
     20.00     -22.25       3.84        0.00      68.93       1.61       0.34       1.91       ----

> <Gold.Chemscore.Fitness>
19.9989

> <Gold.Chemscore.DG>
-22.2450

> <Gold.Chemscore.ZeroCoef>
-5.4800

> <Gold.Chemscore.Hbond>
3.8375

> <Gold.Chemscore.Metal>
0.0000

> <Gold.Chemscore.Lipo>
68.9272

> <Gold.Chemscore.Internal_Hbond>
0.0000

> <Gold.Chemscore.DEClash>
0.3386

> <Gold.Chemscore.DEInternal>
1.9075

> <Gold.Chemscore.Rot>
1.6081

> <Gold.Chemscore.Internal.Correction>
   9.000000E+99

> <Gold.Chemscore.Hbonds>
donor molecule, donor type, donor heavy atom, donor atom, acceptor molecule, acceptor atom, score
      L1  H     5    25       P1 10175  0.93
      L1  H     8    26       P1 10175  0.98
      L1  H    11    43       P1  7948  1.00
      P1  H 11000 11005       L1    20  0.37

> <Gold.Chemscore.Hbond.Weighted>
-12.8172

> <Gold.Chemscore.Metal.Weighted>
-0.0000

> <Gold.Chemscore.Lipo.Weighted>
-8.0645

> <Gold.Chemscore.Internal_Hbond.Weighted>
0.0000

> <Gold.Chemscore.DEClash.Weighted>
0.3386

> <Gold.Chemscore.DEInternal.Weighted>
1.9075

> <Gold.Chemscore.Rot.Weighted>
4.1167

> <Gold.Chemscore.Internal.Correction.Weighted>
   9.000000E+99

> <Gold.Protein.RotatedTorsions>
[ 6907 6896 6895 6894 ] final -126.78 input  -60.11 | X-H torsion
[ 7974 7965 7964 7962 ] final   29.13 input  175.53 | X-H torsion
[ 8008 7997 7996 7995 ] final  -98.07 input   59.86 | X-H torsion
[ 10167 10162 10161 10158 ] final -160.48 input  -65.29 | X-H torsion
[ 10718 10713 10712 10709 ] final  -57.07 input   66.30 | X-H torsion
[ 10763 10752 10751 10750 ] final  112.98 input  -60.55 | X-H torsion
[ 11005 11000 10999 10996 ] final   55.43 input  -57.11 | X-H torsion

> <Gold.Protein.ActiveResidues>
 VAL166  LYS551  ARG553  GLY616  TRP617  ASP618  TYR619  PRO620  LYS621  CYS622 
 ASP623  PHE694  ASN695  SER759  ASP760  ASP761  ALA762  ILE779  LEU786  VAL792 
 PHE793  MET794  SER795  GLU796  ALA797  LYS798  CYS799  TRP800  GLU811  SER814 

> <Gold.Protein.RotatedAtoms>
  150.9005  133.7125  159.2880 H   0  0  0  0  0  0  0  0  0  0  0  0  # atno 6907 bound_to 6896
  151.4645  135.1039  159.9744 H   0  0  0  0  0  0  0  0  0  0  0  0  # atno 6908 bound_to 6896
  152.4874  133.8360  159.7183 H   0  0  0  0  0  0  0  0  0  0  0  0  # atno 6909 bound_to 6896
  146.1689  139.6963  142.8981 H   0  0  0  0  0  0  0  0  0  0  0  0  # atno 7974 bound_to 7965
  154.7962  140.0458  157.1238 H   0  0  0  0  0  0  0  0  0  0  0  0  # atno 8008 bound_to 7997
  154.9532  140.3068  155.5045 H   0  0  0  0  0  0  0  0  0  0  0  0  # atno 8009 bound_to 7997
  156.2956  140.2284  156.4612 H   0  0  0  0  0  0  0  0  0  0  0  0  # atno 8010 bound_to 7997
  139.6536  144.0039  152.2178 H   0  0  0  0  0  0  0  0  0  0  0  0  # atno 10167 bound_to 10162
  156.1239  130.4164  150.0390 H   0  0  0  0  0  0  0  0  0  0  0  0  # atno 10718 bound_to 10713
  153.4858  135.3669  155.2466 H   0  0  0  0  0  0  0  0  0  0  0  0  # atno 10763 bound_to 10752
  154.8754  135.3965  154.3646 H   0  0  0  0  0  0  0  0  0  0  0  0  # atno 10764 bound_to 10752
  153.4258  135.7081  153.6329 H   0  0  0  0  0  0  0  0  0  0  0  0  # atno 10765 bound_to 10752
  140.0608  134.5605  155.9154 H   0  0  0  0  0  0  0  0  0  0  0  0  # atno 11005 bound_to 11000
  145.4393  141.0421  143.2866 LP  0  0  0  0  0  0  0  0  0  0  0  0  # atno 17320 bound_to 7965
  144.8133  139.5922  143.7019 LP  0  0  0  0  0  0  0  0  0  0  0  0  # atno 17321 bound_to 7965
  139.9760  144.6461  150.7945 LP  0  0  0  0  0  0  0  0  0  0  0  0  # atno 17342 bound_to 10162
  140.7549  143.3036  151.3019 LP  0  0  0  0  0  0  0  0  0  0  0  0  # atno 17343 bound_to 10162
  156.8321  130.9396  151.3636 LP  0  0  0  0  0  0  0  0  0  0  0  0  # atno 17370 bound_to 10713
  157.6422  130.8814  149.9469 LP  0  0  0  0  0  0  0  0  0  0  0  0  # atno 17371 bound_to 10713
  141.1972  133.6595  156.5730 LP  0  0  0  0  0  0  0  0  0  0  0  0  # atno 17394 bound_to 11000
  140.3773  134.7553  157.4638 LP  0  0  0  0  0  0  0  0  0  0  0  0  # atno 17395 bound_to 11000

$$$$
