AV-unprocessed.smi:55|AV-procd|sdf|570|dock5
  -GOLD-   2262016473D 1   1.00000     0.00000
 Structure written by MMmdl.
 30 31  0  0  0  0  0  0  0  0  2 V2000
  148.2593  141.7788  157.0967 C   0  0  0  0  0  0  0  0  0  0  0  0
  149.6437  141.3060  157.5042 C   0  0  0  0  0  0  0  0  0  0  0  0
  150.4778  142.0692  158.2445 C   0  0  0  0  0  0  0  0  0  0  0  0
  151.7394  141.6360  158.6115 N   0  0  0  0  0  0  0  0  0  0  0  0
  152.6430  142.5260  159.4346 C   0  0  1  0  0  0  0  0  0  0  0  0
  151.8954  143.7779  159.8994 C   0  0  0  0  0  0  0  0  0  0  0  0
  152.4404  143.9539  161.3015 C   0  0  1  0  0  0  0  0  0  0  0  0
  151.5251  144.6624  162.1118 O   0  0  0  0  0  0  0  0  0  0  0  0
  152.6232  142.5017  161.7531 C   0  0  2  0  0  0  0  0  0  0  0  0
  153.6660  142.2975  162.8629 C   0  0  0  0  0  0  0  0  0  0  0  0
  153.4045  143.1521  163.9561 O   0  0  0  0  0  0  0  0  0  0  0  0
  153.0562  141.8275  160.5738 O   0  0  0  0  0  0  0  0  0  0  0  0
  152.1957  140.3614  158.1837 C   0  0  0  0  0  0  0  0  0  0  0  0
  153.3364  140.0158  158.4917 O   0  0  0  0  0  0  0  0  0  0  0  0
  151.3573  139.5803  157.4442 N   0  5  0  0  0  0  0  0  0  0  0  0
  150.1037  139.9776  157.0820 C   0  0  0  0  0  0  0  0  0  0  0  0
  149.3570  139.2607  156.4167 O   0  0  0  0  0  0  0  0  0  0  0  0
  153.5325  142.7429  158.8425 H   0  0  0  0  0  0  0  0  0  0  0  0
  153.3991  144.4733  161.2679 H   0  0  0  0  0  0  0  0  0  0  0  0
  151.6636  142.0724  162.0465 H   0  0  0  0  0  0  0  0  0  0  0  0
  148.0528  142.7780  157.4811 H   0  0  0  0  0  0  0  0  0  0  0  0
  147.4965  141.1033  157.4847 H   0  0  0  0  0  0  0  0  0  0  0  0
  148.1717  141.8098  156.0101 H   0  0  0  0  0  0  0  0  0  0  0  0
  150.1479  143.0495  158.5525 H   0  0  0  0  0  0  0  0  0  0  0  0
  152.0874  144.6232  159.2379 H   0  0  0  0  0  0  0  0  0  0  0  0
  150.8223  143.5795  159.9220 H   0  0  0  0  0  0  0  0  0  0  0  0
  151.9264  145.4787  162.3694 H   0  0  0  0  0  0  0  0  0  0  0  0
  153.6321  141.2680  163.2199 H   0  0  0  0  0  0  0  0  0  0  0  0
  154.6748  142.4755  162.4898 H   0  0  0  0  0  0  0  0  0  0  0  0
  153.9452  143.9225  163.8704 H   0  0  0  0  0  0  0  0  0  0  0  0
  1  2  1  0  0  0  0
  1 21  1  0  0  0  0
  1 22  1  0  0  0  0
  1 23  1  0  0  0  0
  2 16  1  0  0  0  0
  2  3  2  0  0  0  0
  3  4  1  0  0  0  0
  3 24  1  0  0  0  0
  4  5  1  0  0  0  0
  4 13  1  0  0  0  0
  5 18  1  0  0  0  0
  5 12  1  0  0  0  0
  5  6  1  0  0  0  0
  6  7  1  0  0  0  0
  6 25  1  0  0  0  0
  6 26  1  0  0  0  0
  7 19  1  0  0  0  0
  7  8  1  0  0  0  0
  7  9  1  0  0  0  0
  8 27  1  0  0  0  0
  9 20  1  0  0  0  0
  9 10  1  0  0  0  0
  9 12  1  0  0  0  0
 10 11  1  0  0  0  0
 10 28  1  0  0  0  0
 10 29  1  0  0  0  0
 11 30  1  0  0  0  0
 13 14  2  0  0  0  0
 13 15  1  0  0  0  0
 15 16  1  0  0  0  0
 16 17  2  0  0  0  0
M  CHG  1  15  -1
M  END
> <s_m_source_file>
AV-unprocessed.smi

> <i_m_source_file_index>
55

> <i_lp_mmshare_version>
43012

> <i_f3d_flags>
0

> <s_epik_input>
Tz1jMVtuSF1jKD1PKW4oW2NIXWMxW0NIM10pW0NAQEhdMltDSDJdW0NAQEhdKFtPSF0pW0NAQEhdKE8yKVtDSDJdW09IXQ==

> <s_epik_cmdline>
J2VwaWtfcHl0aG9uJywgJy1waCcsICc3LjAnLCAnLXRuJywgJzgnLCAnLW1hJywgJzIwMCcsICctbWV0YWxfYmluZGluZycsICctaW1hZScsICc8aW5maWxlLm1hZT4nLCAnLW9tYWUnLCAnPG91dGZpbGUubWFlPic=

> <r_lp_tautomer_probability>
0.999537

> <r_epik_Ionization_Penalty>
3.66603

> <r_epik_Ionization_Penalty_Charging>
1.09773e-07

> <r_epik_Ionization_Penalty_Neutral>
3.66603

> <r_epik_State_Penalty>
3.66562

> <r_epik_Charging_Adjusted_Penalty>
3.66562

> <i_epik_Tot_Q>
-1

> <i_epik_Tot_abs_Q>
1

> <r_epik_Metal_State_Penalty>
0.234536

> <b_epik_Metal_Only>
1

> <s_epik_Chemistry_Notes>
This compound contains an acetal/aminal-like group ( X-CH(R)-Y where X, Y are N, S, or O) that may be acid/base labile, releasing an aldehyde.

> <s_lp_Force_Field>
OPLS_2005

> <r_lp_Energy>
34.2111

> <b_lp_Chiralities_Consistent>
1

> <s_lp_Variant>
AV-unprocessed.smi:55-10

> <Gold.Version>
5.8.1

> <Gold.Id.Protein>
6NUR|6NUR_protein|mol2

> <Gold.PLP.Fitness>
37.0172

> <Gold.PLP.PLP>
-34.2396

> <Gold.PLP.part.hbond>
-3.1538

> <Gold.PLP.part.metal>
0.0000

> <Gold.PLP.part.buried>
-6.3043

> <Gold.PLP.part.nonpolar>
-23.3656

> <Gold.PLP.part.repulsive>
0.0000

> <Gold.PLP.ligand.clash>
0.0000

> <Gold.PLP.ligand.torsion>
0.1154

> <Gold.PLP.Chemscore.Hbond>
1.0000

> <Gold.PLP.Chemscore.CHOScore>
0.0000

> <Gold.PLP.Chemscore.Metal>
0.0000

> <Gold.Chemscore.Hbonds>
donor molecule, donor type, donor heavy atom, donor atom, acceptor molecule, acceptor atom, score
      P1  H  7997  8010       L1    14  1.00

> <Gold.PLP.Chemscore.Internal.Correction>
0.0085

> <Gold.Rescore>
     Score         DG    S(hbond)    S(metal)    S(lipo)     H(rot)  DE(clash)    DE(int)     intcor
      7.15      -8.46       0.98        0.00      56.44       2.69       0.01       1.31       ----

> <Gold.Chemscore.Fitness>
7.1478

> <Gold.Chemscore.DG>
-8.4643

> <Gold.Chemscore.ZeroCoef>
-5.4800

> <Gold.Chemscore.Hbond>
0.9761

> <Gold.Chemscore.Metal>
0.0000

> <Gold.Chemscore.Lipo>
56.4370

> <Gold.Chemscore.Internal_Hbond>
0.0000

> <Gold.Chemscore.DEClash>
0.0106

> <Gold.Chemscore.DEInternal>
1.3059

> <Gold.Chemscore.Rot>
2.6871

> <Gold.Chemscore.Internal.Correction>
   9.000000E+99

> <Gold.Chemscore.Hbonds>
donor molecule, donor type, donor heavy atom, donor atom, acceptor molecule, acceptor atom, score
      P1  H  7997  8010       L1    14  0.91

> <Gold.Chemscore.Hbond.Weighted>
-3.2602

> <Gold.Chemscore.Metal.Weighted>
-0.0000

> <Gold.Chemscore.Lipo.Weighted>
-6.6031

> <Gold.Chemscore.Internal_Hbond.Weighted>
0.0000

> <Gold.Chemscore.DEClash.Weighted>
0.0106

> <Gold.Chemscore.DEInternal.Weighted>
1.3059

> <Gold.Chemscore.Rot.Weighted>
6.8791

> <Gold.Chemscore.Internal.Correction.Weighted>
   9.000000E+99

> <Gold.Protein.RotatedTorsions>
[ 6907 6896 6895 6894 ] final -126.20 input  -60.11 | X-H torsion
[ 7974 7965 7964 7962 ] final  140.53 input  175.53 | X-H torsion
[ 8008 7997 7996 7995 ] final   28.88 input   59.86 | X-H torsion
[ 10167 10162 10161 10158 ] final  -56.32 input  -65.29 | X-H torsion
[ 10718 10713 10712 10709 ] final  -97.40 input   66.30 | X-H torsion
[ 10763 10752 10751 10750 ] final  135.18 input  -60.55 | X-H torsion
[ 11005 11000 10999 10996 ] final  158.11 input  -57.11 | X-H torsion

> <Gold.Protein.ActiveResidues>
 VAL166  LYS551  ARG553  GLY616  TRP617  ASP618  TYR619  PRO620  LYS621  CYS622 
 ASP623  PHE694  ASN695  SER759  ASP760  ASP761  ALA762  ILE779  LEU786  VAL792 
 PHE793  MET794  SER795  GLU796  ALA797  LYS798  CYS799  TRP800  GLU811  SER814 

> <Gold.Protein.RotatedAtoms>
  150.8945  133.7199  159.2895 H   0  0  0  0  0  0  0  0  0  0  0  0  # atno 6907 bound_to 6896
  151.4738  135.1046  159.9768 H   0  0  0  0  0  0  0  0  0  0  0  0  # atno 6908 bound_to 6896
  152.4840  133.8278  159.7143 H   0  0  0  0  0  0  0  0  0  0  0  0  # atno 6909 bound_to 6896
  144.9178  139.5207  143.5678 H   0  0  0  0  0  0  0  0  0  0  0  0  # atno 7974 bound_to 7965
  155.0657  140.3195  155.4646 H   0  0  0  0  0  0  0  0  0  0  0  0  # atno 8008 bound_to 7997
  156.2802  140.2121  156.5729 H   0  0  0  0  0  0  0  0  0  0  0  0  # atno 8009 bound_to 7997
  154.7096  140.0499  157.0524 H   0  0  0  0  0  0  0  0  0  0  0  0  # atno 8010 bound_to 7997
  140.6324  143.2465  151.5207 H   0  0  0  0  0  0  0  0  0  0  0  0  # atno 10167 bound_to 10162
  156.0083  130.5192  150.6368 H   0  0  0  0  0  0  0  0  0  0  0  0  # atno 10718 bound_to 10713
  153.8359  135.3097  155.3422 H   0  0  0  0  0  0  0  0  0  0  0  0  # atno 10763 bound_to 10752
  154.7953  135.4758  154.0151 H   0  0  0  0  0  0  0  0  0  0  0  0  # atno 10764 bound_to 10752
  153.1606  135.6860  153.8840 H   0  0  0  0  0  0  0  0  0  0  0  0  # atno 10765 bound_to 10752
  140.1834  134.8459  157.2829 H   0  0  0  0  0  0  0  0  0  0  0  0  # atno 11005 bound_to 11000
  146.3190  139.8034  142.8960 LP  0  0  0  0  0  0  0  0  0  0  0  0  # atno 17320 bound_to 7965
  145.3346  141.0274  143.3427 LP  0  0  0  0  0  0  0  0  0  0  0  0  # atno 17321 bound_to 7965
  139.5537  144.2331  152.1575 LP  0  0  0  0  0  0  0  0  0  0  0  0  # atno 17342 bound_to 10162
  140.1578  144.5054  150.6650 LP  0  0  0  0  0  0  0  0  0  0  0  0  # atno 17343 bound_to 10162
  157.4156  131.0829  151.1180 LP  0  0  0  0  0  0  0  0  0  0  0  0  # atno 17370 bound_to 10713
  157.1798  130.6304  149.5668 LP  0  0  0  0  0  0  0  0  0  0  0  0  # atno 17371 bound_to 10713
  140.2242  134.3987  155.7551 LP  0  0  0  0  0  0  0  0  0  0  0  0  # atno 17394 bound_to 11000
  141.2224  133.7181  156.8538 LP  0  0  0  0  0  0  0  0  0  0  0  0  # atno 17395 bound_to 11000

$$$$
