AV-unprocessed.smi:3283|AV-procd|sdf|12571|dock6
  -GOLD-   2272018493D 1   1.00000     0.00000
 Structure written by MMmdl.
 44 45  0  0  0  0  0  0  0  0  2 V2000
  147.4417  142.0460  154.1321 C   0  0  0  0  0  0  0  0  0  0  0  0
  147.9550  140.6314  154.3468 C   0  0  0  0  0  0  0  0  0  0  0  0
  147.1177  139.5772  154.2801 C   0  0  0  0  0  0  0  0  0  0  0  0
  147.5392  138.1249  154.4166 C   0  0  0  0  0  0  0  0  0  0  0  0
  149.0115  137.9592  154.8273 C   0  0  0  0  0  0  0  0  0  0  0  0
  149.9044  139.0248  154.1675 C   0  0  2  0  0  0  0  0  0  0  0  0
  151.4007  138.7359  154.3779 C   0  0  0  0  0  0  0  0  0  0  0  0
  149.4619  140.4568  154.5818 C   0  0  2  0  0  0  0  0  0  0  0  0
  149.8830  140.8229  156.0299 C   0  0  0  0  0  0  0  0  0  0  0  0
  149.2765  142.0808  156.5073 N   0  3  0  0  0  0  0  0  0  0  0  0
  149.5830  142.4057  157.9135 C   0  0  0  0  0  0  0  0  0  0  0  0
  151.0847  142.6651  158.1023 C   0  0  0  0  0  0  0  0  0  0  0  0
  151.4044  143.7669  159.0670 C   0  0  0  0  0  0  0  0  0  0  0  0
  151.1010  145.1011  159.0343 C   0  0  0  0  0  0  0  0  0  0  0  0
  151.6714  145.6195  160.2289 C   0  0  0  0  0  0  0  0  0  0  0  0
  152.2781  144.6896  160.9442 N   0  0  0  0  0  0  0  0  0  0  0  0
  152.1168  143.5526  160.2357 N   0  0  0  0  0  0  0  0  0  0  0  0
  152.6813  142.3253  160.7654 C   0  0  0  0  0  0  0  0  0  0  0  0
  148.0668  142.5754  153.4125 H   0  0  0  0  0  0  0  0  0  0  0  0
  147.4226  142.6118  155.0620 H   0  0  0  0  0  0  0  0  0  0  0  0
  146.4239  142.0371  153.7404 H   0  0  0  0  0  0  0  0  0  0  0  0
  146.0679  139.7409  154.0844 H   0  0  0  0  0  0  0  0  0  0  0  0
  146.8896  137.6223  155.1337 H   0  0  0  0  0  0  0  0  0  0  0  0
  147.3721  137.6454  153.4515 H   0  0  0  0  0  0  0  0  0  0  0  0
  149.0988  138.0246  155.9120 H   0  0  0  0  0  0  0  0  0  0  0  0
  149.3492  136.9571  154.5598 H   0  0  0  0  0  0  0  0  0  0  0  0
  149.7403  138.9484  153.0910 H   0  0  0  0  0  0  0  0  0  0  0  0
  151.6533  138.6373  155.4336 H   0  0  0  0  0  0  0  0  0  0  0  0
  152.0194  139.5261  153.9521 H   0  0  0  0  0  0  0  0  0  0  0  0
  151.6846  137.8017  153.8925 H   0  0  0  0  0  0  0  0  0  0  0  0
  149.9710  141.1451  153.9054 H   0  0  0  0  0  0  0  0  0  0  0  0
  149.6158  140.0197  156.7174 H   0  0  0  0  0  0  0  0  0  0  0  0
  150.9631  140.9501  156.0931 H   0  0  0  0  0  0  0  0  0  0  0  0
  149.6027  142.8378  155.9234 H   0  0  0  0  0  0  0  0  0  0  0  0
  149.0126  143.2871  158.2103 H   0  0  0  0  0  0  0  0  0  0  0  0
  149.2599  141.5790  158.5477 H   0  0  0  0  0  0  0  0  0  0  0  0
  151.5663  141.7472  158.4423 H   0  0  0  0  0  0  0  0  0  0  0  0
  151.5271  142.9021  157.1338 H   0  0  0  0  0  0  0  0  0  0  0  0
  150.5513  145.6334  158.2720 H   0  0  0  0  0  0  0  0  0  0  0  0
  151.6622  146.6355  160.5949 H   0  0  0  0  0  0  0  0  0  0  0  0
  152.4814  141.4843  160.1021 H   0  0  0  0  0  0  0  0  0  0  0  0
  152.2452  142.1117  161.7418 H   0  0  0  0  0  0  0  0  0  0  0  0
  153.7607  142.4353  160.8753 H   0  0  0  0  0  0  0  0  0  0  0  0
  148.2742  142.0050  156.4077 H   0  0  0  0  0  0  0  0  0  0  0  0
  1  2  1  0  0  0  0
  1 19  1  0  0  0  0
  1 20  1  0  0  0  0
  1 21  1  0  0  0  0
  2  8  1  0  0  0  0
  2  3  2  0  0  0  0
  3  4  1  0  0  0  0
  3 22  1  0  0  0  0
  4  5  1  0  0  0  0
  4 23  1  0  0  0  0
  4 24  1  0  0  0  0
  5  6  1  0  0  0  0
  5 25  1  0  0  0  0
  5 26  1  0  0  0  0
  6  7  1  0  0  0  0
  6  8  1  0  0  0  0
  6 27  1  0  0  0  0
  7 28  1  0  0  0  0
  7 29  1  0  0  0  0
  7 30  1  0  0  0  0
  8  9  1  0  0  0  0
  8 31  1  0  0  0  0
  9 10  1  0  0  0  0
  9 32  1  0  0  0  0
  9 33  1  0  0  0  0
 10 11  1  0  0  0  0
 10 34  1  0  0  0  0
 10 44  1  0  0  0  0
 11 12  1  0  0  0  0
 11 35  1  0  0  0  0
 11 36  1  0  0  0  0
 12 13  1  0  0  0  0
 12 37  1  0  0  0  0
 12 38  1  0  0  0  0
 13 17  1  0  0  0  0
 13 14  2  0  0  0  0
 14 15  1  0  0  0  0
 14 39  1  0  0  0  0
 15 16  2  0  0  0  0
 15 40  1  0  0  0  0
 16 17  1  0  0  0  0
 17 18  1  0  0  0  0
 18 41  1  0  0  0  0
 18 42  1  0  0  0  0
 18 43  1  0  0  0  0
M  CHG  1  10   1
M  END
> <s_m_source_file>
AV-unprocessed.smi

> <i_m_source_file_index>
3283

> <i_lp_mmshare_version>
43012

> <i_f3d_flags>
0

> <s_epik_input>
W0NIM11DMT1bQ0hdW0NIMl1bQ0gyXVtDQEBIXShbQ0gzXSlbQ0BIXTFbQ0gyXVtOSF1bQ0gyXVtDSDJdYzJbY0hdW2NIXW5uMltDSDNd

> <s_epik_cmdline>
J2VwaWtfcHl0aG9uJywgJy1waCcsICc3LjAnLCAnLXRuJywgJzgnLCAnLW1hJywgJzIwMCcsICctbWV0YWxfYmluZGluZycsICctaW1hZScsICc8aW5maWxlLm1hZT4nLCAnLW9tYWUnLCAnPG91dGZpbGUubWFlPic=

> <r_lp_tautomer_probability>
1

> <r_epik_Ionization_Penalty>
0.000866911

> <r_epik_Ionization_Penalty_Charging>
0.000836385

> <r_epik_Ionization_Penalty_Neutral>
3.05258e-05

> <r_epik_State_Penalty>
-0

> <r_epik_Charging_Adjusted_Penalty>
0.000836385

> <i_epik_Tot_Q>
1

> <i_epik_Tot_abs_Q>
1

> <r_epik_Metal_State_Penalty>
-0

> <b_epik_Metal_Only>
0

> <s_lp_Force_Field>
OPLS_2005

> <r_lp_Energy>
12.7435

> <b_lp_Chiralities_Consistent>
1

> <s_lp_Variant>
AV-unprocessed.smi:3283-4

> <Gold.Version>
5.8.1

> <Gold.Id.Protein>
6NUR|6NUR_protein|mol2

> <Gold.PLP.Fitness>
42.7528

> <Gold.PLP.PLP>
-39.7833

> <Gold.PLP.part.hbond>
-1.0000

> <Gold.PLP.part.metal>
0.0000

> <Gold.PLP.part.buried>
-3.8021

> <Gold.PLP.part.nonpolar>
-36.1058

> <Gold.PLP.part.repulsive>
0.2051

> <Gold.PLP.ligand.clash>
0.0000

> <Gold.PLP.ligand.torsion>
0.3552

> <Gold.PLP.Chemscore.Hbond>
1.2160

> <Gold.PLP.Chemscore.CHOScore>
0.0000

> <Gold.PLP.Chemscore.Metal>
0.0000

> <Gold.Chemscore.Hbonds>
donor molecule, donor type, donor heavy atom, donor atom, acceptor molecule, acceptor atom, score
      L1  H    10    34       P1  8028  1.24

> <Gold.PLP.Chemscore.Internal.Correction>
0.0318

> <Gold.Rescore>
     Score         DG    S(hbond)    S(metal)    S(lipo)     H(rot)  DE(clash)    DE(int)     intcor
     15.16     -17.10       0.65        0.00     113.32       1.48       0.66       1.28       ----

> <Gold.Chemscore.Fitness>
15.1614

> <Gold.Chemscore.DG>
-17.1040

> <Gold.Chemscore.ZeroCoef>
-5.4800

> <Gold.Chemscore.Hbond>
0.6484

> <Gold.Chemscore.Metal>
0.0000

> <Gold.Chemscore.Lipo>
113.3246

> <Gold.Chemscore.Internal_Hbond>
0.0000

> <Gold.Chemscore.DEClash>
0.6599

> <Gold.Chemscore.DEInternal>
1.2827

> <Gold.Chemscore.Rot>
1.4847

> <Gold.Chemscore.Internal.Correction>
   9.000000E+99

> <Gold.Chemscore.Hbonds>
donor molecule, donor type, donor heavy atom, donor atom, acceptor molecule, acceptor atom, score
      L1  H    10    34       P1  8028  0.57

> <Gold.Chemscore.Hbond.Weighted>
-2.1658

> <Gold.Chemscore.Metal.Weighted>
-0.0000

> <Gold.Chemscore.Lipo.Weighted>
-13.2590

> <Gold.Chemscore.Internal_Hbond.Weighted>
0.0000

> <Gold.Chemscore.DEClash.Weighted>
0.6599

> <Gold.Chemscore.DEInternal.Weighted>
1.2827

> <Gold.Chemscore.Rot.Weighted>
3.8008

> <Gold.Chemscore.Internal.Correction.Weighted>
   9.000000E+99

> <Gold.Protein.RotatedTorsions>
[ 6907 6896 6895 6894 ] final -154.76 input  -60.11 | X-H torsion
[ 7974 7965 7964 7962 ] final  -72.37 input  175.53 | X-H torsion
[ 8008 7997 7996 7995 ] final -129.59 input   59.86 | X-H torsion
[ 10167 10162 10161 10158 ] final   -5.95 input  -65.29 | X-H torsion
[ 10718 10713 10712 10709 ] final  -93.38 input   66.30 | X-H torsion
[ 10763 10752 10751 10750 ] final  156.13 input  -60.55 | X-H torsion
[ 11005 11000 10999 10996 ] final   99.29 input  -57.11 | X-H torsion

> <Gold.Protein.ActiveResidues>
 VAL166  LYS551  ARG553  GLY616  TRP617  ASP618  TYR619  PRO620  LYS621  CYS622 
 ASP623  PHE694  ASN695  SER759  ASP760  ASP761  ALA762  ILE779  LEU786  VAL792 
 PHE793  MET794  SER795  GLU796  ALA797  LYS798  CYS799  TRP800  GLU811  SER814 

> <Gold.Protein.RotatedAtoms>
  151.2623  133.4296  159.2616 H   0  0  0  0  0  0  0  0  0  0  0  0  # atno 6907 bound_to 6896
  151.0520  134.9679  159.8226 H   0  0  0  0  0  0  0  0  0  0  0  0  # atno 6908 bound_to 6896
  152.5384  134.2577  159.8976 H   0  0  0  0  0  0  0  0  0  0  0  0  # atno 6909 bound_to 6896
  145.6660  140.9237  143.0908 H   0  0  0  0  0  0  0  0  0  0  0  0  # atno 7974 bound_to 7965
  155.2818  140.0444  157.3016 H   0  0  0  0  0  0  0  0  0  0  0  0  # atno 8008 bound_to 7997
  154.5592  140.2341  155.8329 H   0  0  0  0  0  0  0  0  0  0  0  0  # atno 8009 bound_to 7997
  156.2033  140.3019  155.9581 H   0  0  0  0  0  0  0  0  0  0  0  0  # atno 8010 bound_to 7997
  140.6980  143.6250  150.8576 H   0  0  0  0  0  0  0  0  0  0  0  0  # atno 10167 bound_to 10162
  156.0013  130.5024  150.5767 H   0  0  0  0  0  0  0  0  0  0  0  0  # atno 10718 bound_to 10713
  154.1794  135.2800  155.3057 H   0  0  0  0  0  0  0  0  0  0  0  0  # atno 10763 bound_to 10752
  154.6014  135.5528  153.7382 H   0  0  0  0  0  0  0  0  0  0  0  0  # atno 10764 bound_to 10752
  153.0142  135.6393  154.1933 H   0  0  0  0  0  0  0  0  0  0  0  0  # atno 10765 bound_to 10752
  139.8771  134.9089  156.4584 H   0  0  0  0  0  0  0  0  0  0  0  0  # atno 11005 bound_to 11000
  144.7073  139.8510  143.7426 LP  0  0  0  0  0  0  0  0  0  0  0  0  # atno 17320 bound_to 7965
  146.1086  139.4088  143.0302 LP  0  0  0  0  0  0  0  0  0  0  0  0  # atno 17321 bound_to 7965
  139.9970  143.5785  152.2889 LP  0  0  0  0  0  0  0  0  0  0  0  0  # atno 17342 bound_to 10162
  139.6461  144.7658  151.2241 LP  0  0  0  0  0  0  0  0  0  0  0  0  # atno 17343 bound_to 10162
  157.3654  131.0756  151.1602 LP  0  0  0  0  0  0  0  0  0  0  0  0  # atno 17370 bound_to 10713
  157.2373  130.6553  149.5875 LP  0  0  0  0  0  0  0  0  0  0  0  0  # atno 17371 bound_to 10713
  140.8881  133.7868  155.9541 LP  0  0  0  0  0  0  0  0  0  0  0  0  # atno 17394 bound_to 11000
  140.8782  134.2643  157.5157 LP  0  0  0  0  0  0  0  0  0  0  0  0  # atno 17395 bound_to 11000

$$$$
