AV-unprocessed.smi:2124|AV-procd|sdf|8670|dock8
  -GOLD-   2272011423D 1   1.00000     0.00000
 Structure written by MMmdl.
 46 48  0  0  0  0  0  0  0  0  2 V2000
  151.1309  136.1775  154.2935 C   0  0  0  0  0  0  0  0  0  0  0  0
  151.5898  136.6197  155.6665 C   0  0  0  0  0  0  0  0  0  0  0  0
  150.7442  136.6578  156.6246 N   0  0  0  0  0  0  0  0  0  0  0  0
  151.1621  137.0729  157.9005 C   0  0  0  0  0  0  0  0  0  0  0  0
  150.0885  137.0942  158.9745 C   0  0  0  0  0  0  0  0  0  0  0  0
  152.4556  137.4364  158.1348 C   0  0  0  0  0  0  0  0  0  0  0  0
  152.9695  137.8998  159.4971 C   0  0  0  0  0  0  0  0  0  0  0  0
  153.5825  139.3018  159.5380 C   0  0  0  0  0  0  0  0  0  0  0  0
  154.6018  139.5587  158.8971 O   0  0  0  0  0  0  0  0  0  0  0  0
  152.9451  140.2019  160.3022 N   0  0  0  0  0  0  0  0  0  0  0  0
  153.3283  141.6023  160.4706 C   0  0  2  0  0  0  0  0  0  0  0  0
  152.6641  142.1556  161.7454 C   0  0  0  0  0  0  0  0  0  0  0  0
  152.9400  142.3959  159.1983 C   0  0  2  0  0  0  0  0  0  0  0  0
  153.3109  143.8995  159.2656 C   0  0  0  0  0  0  0  0  0  0  0  0
  151.9869  144.6084  158.9321 C   0  0  1  0  0  0  0  0  0  0  0  0
  151.6324  144.3715  157.4528 C   0  0  0  0  0  0  0  0  0  0  0  0
  151.2096  142.8908  157.4405 C   0  0  0  0  0  0  0  0  0  0  0  0
  151.4189  142.4645  158.9065 C   0  0  2  0  0  0  0  0  0  0  0  0
  150.9791  143.7215  159.6500 C   0  0  0  0  0  0  0  0  0  0  0  0
  153.4009  137.3682  157.0068 C   0  0  0  0  0  0  0  0  0  0  0  0
  154.5837  137.6655  157.1720 O   0  0  0  0  0  0  0  0  0  0  0  0
  152.9165  136.9640  155.7980 N   0  5  0  0  0  0  0  0  0  0  0  0
  150.1558  135.6912  154.3441 H   0  0  0  0  0  0  0  0  0  0  0  0
  151.8404  135.4711  153.8614 H   0  0  0  0  0  0  0  0  0  0  0  0
  151.0512  137.0384  153.6295 H   0  0  0  0  0  0  0  0  0  0  0  0
  149.8978  138.1161  159.3022 H   0  0  0  0  0  0  0  0  0  0  0  0
  150.3943  136.5035  159.8378 H   0  0  0  0  0  0  0  0  0  0  0  0
  149.1505  136.6802  158.6030 H   0  0  0  0  0  0  0  0  0  0  0  0
  152.1672  137.8271  160.2329 H   0  0  0  0  0  0  0  0  0  0  0  0
  153.7294  137.2042  159.8519 H   0  0  0  0  0  0  0  0  0  0  0  0
  152.1137  139.8986  160.7885 H   0  0  0  0  0  0  0  0  0  0  0  0
  154.4111  141.6562  160.5943 H   0  0  0  0  0  0  0  0  0  0  0  0
  152.9835  143.1743  161.9606 H   0  0  0  0  0  0  0  0  0  0  0  0
  152.9235  141.5539  162.6171 H   0  0  0  0  0  0  0  0  0  0  0  0
  151.5772  142.1580  161.6576 H   0  0  0  0  0  0  0  0  0  0  0  0
  153.4506  141.9362  158.3503 H   0  0  0  0  0  0  0  0  0  0  0  0
  153.6382  144.1883  160.2656 H   0  0  0  0  0  0  0  0  0  0  0  0
  154.1097  144.1614  158.5709 H   0  0  0  0  0  0  0  0  0  0  0  0
  151.9681  145.6584  159.2249 H   0  0  0  0  0  0  0  0  0  0  0  0
  150.8040  145.0094  157.1419 H   0  0  0  0  0  0  0  0  0  0  0  0
  152.4761  144.5698  156.7907 H   0  0  0  0  0  0  0  0  0  0  0  0
  150.1604  142.7966  157.1574 H   0  0  0  0  0  0  0  0  0  0  0  0
  151.7963  142.2934  156.7417 H   0  0  0  0  0  0  0  0  0  0  0  0
  150.8607  141.5657  159.1648 H   0  0  0  0  0  0  0  0  0  0  0  0
  151.1369  143.6703  160.7284 H   0  0  0  0  0  0  0  0  0  0  0  0
  149.9420  143.9999  159.4542 H   0  0  0  0  0  0  0  0  0  0  0  0
  1  2  1  0  0  0  0
  1 23  1  0  0  0  0
  1 24  1  0  0  0  0
  1 25  1  0  0  0  0
  2 22  1  0  0  0  0
  2  3  2  0  0  0  0
  3  4  1  0  0  0  0
  4  5  1  0  0  0  0
  4  6  2  0  0  0  0
  5 26  1  0  0  0  0
  5 27  1  0  0  0  0
  5 28  1  0  0  0  0
  6  7  1  0  0  0  0
  6 20  1  0  0  0  0
  7  8  1  0  0  0  0
  7 29  1  0  0  0  0
  7 30  1  0  0  0  0
  8  9  2  0  0  0  0
  8 10  1  0  0  0  0
 10 11  1  0  0  0  0
 10 31  1  0  0  0  0
 11 12  1  0  0  0  0
 11 13  1  0  0  0  0
 11 32  1  0  0  0  0
 12 33  1  0  0  0  0
 12 34  1  0  0  0  0
 12 35  1  0  0  0  0
 13 18  1  0  0  0  0
 13 14  1  0  0  0  0
 13 36  1  0  0  0  0
 14 15  1  0  0  0  0
 14 37  1  0  0  0  0
 14 38  1  0  0  0  0
 15 19  1  0  0  0  0
 15 16  1  0  0  0  0
 15 39  1  0  0  0  0
 16 17  1  0  0  0  0
 16 40  1  0  0  0  0
 16 41  1  0  0  0  0
 17 18  1  0  0  0  0
 17 42  1  0  0  0  0
 17 43  1  0  0  0  0
 18 19  1  0  0  0  0
 18 44  1  0  0  0  0
 19 45  1  0  0  0  0
 19 46  1  0  0  0  0
 20 21  2  0  0  0  0
 20 22  1  0  0  0  0
M  CHG  1  22  -1
M  END
> <s_m_source_file>
AV-unprocessed.smi

> <i_m_source_file_index>
2124

> <i_lp_mmshare_version>
43012

> <i_f3d_flags>
0

> <s_epik_input>
W0NIM11jMW5jKFtDSDNdKWMoYyg9TylbbkhdMSlbQ0gyXUMoPU8pW05IXVtDQEhdKFtDSDNdKVtDQEhdKFtDSDJdW0NASF0yMylbQ0BIXShbQ0gyXTMpW0NIMl1bQ0gyXTI=

> <s_epik_cmdline>
J2VwaWtfcHl0aG9uJywgJy1waCcsICc3LjAnLCAnLXRuJywgJzgnLCAnLW1hJywgJzIwMCcsICctbWV0YWxfYmluZGluZycsICctaW1hZScsICc8aW5maWxlLm1hZT4nLCAnLW9tYWUnLCAnPG91dGZpbGUubWFlPic=

> <r_lp_tautomer_probability>
0.839158

> <r_epik_Ionization_Penalty>
6.63797

> <r_epik_Ionization_Penalty_Charging>
7.48558e-08

> <r_epik_Ionization_Penalty_Neutral>
6.63797

> <r_epik_State_Penalty>
4.49496

> <r_epik_Charging_Adjusted_Penalty>
4.49496

> <i_epik_Tot_Q>
-1

> <i_epik_Tot_abs_Q>
1

> <r_epik_Metal_State_Penalty>
0.841241

> <b_epik_Metal_Only>
1

> <s_lp_Force_Field>
OPLS_2005

> <r_lp_Energy>
56.157

> <b_lp_Chiralities_Consistent>
1

> <s_lp_Variant>
AV-unprocessed.smi:2124-21

> <Gold.Version>
5.8.1

> <Gold.Id.Protein>
6NUR|6NUR_protein|mol2

> <Gold.PLP.Fitness>
47.2794

> <Gold.PLP.PLP>
-39.0775

> <Gold.PLP.part.hbond>
-2.4902

> <Gold.PLP.part.metal>
0.0000

> <Gold.PLP.part.buried>
-3.6706

> <Gold.PLP.part.nonpolar>
-33.2362

> <Gold.PLP.part.repulsive>
0.1158

> <Gold.PLP.ligand.clash>
0.0000

> <Gold.PLP.ligand.torsion>
0.2415

> <Gold.PLP.Chemscore.Hbond>
2.8880

> <Gold.PLP.Chemscore.CHOScore>
0.0000

> <Gold.PLP.Chemscore.Metal>
0.0000

> <Gold.Chemscore.Hbonds>
donor molecule, donor type, donor heavy atom, donor atom, acceptor molecule, acceptor atom, score
      P1  H  7997  8010       L1     9  1.00
      P1  H 10752 10765       L1    22  0.26

> <Gold.PLP.Chemscore.Internal.Correction>
0.0210

> <Gold.Rescore>
     Score         DG    S(hbond)    S(metal)    S(lipo)     H(rot)  DE(clash)    DE(int)     intcor
     19.81     -22.02       1.85        0.00     123.55       1.61       0.46       1.75       ----

> <Gold.Chemscore.Fitness>
19.8110

> <Gold.Chemscore.DG>
-22.0216

> <Gold.Chemscore.ZeroCoef>
-5.4800

> <Gold.Chemscore.Hbond>
1.8547

> <Gold.Chemscore.Metal>
0.0000

> <Gold.Chemscore.Lipo>
123.5536

> <Gold.Chemscore.Internal_Hbond>
0.0000

> <Gold.Chemscore.DEClash>
0.4579

> <Gold.Chemscore.DEInternal>
1.7528

> <Gold.Chemscore.Rot>
1.6051

> <Gold.Chemscore.Internal.Correction>
   9.000000E+99

> <Gold.Chemscore.Hbonds>
donor molecule, donor type, donor heavy atom, donor atom, acceptor molecule, acceptor atom, score
      P1  H  7997  8010       L1     9  0.96

> <Gold.Chemscore.Hbond.Weighted>
-6.1949

> <Gold.Chemscore.Metal.Weighted>
-0.0000

> <Gold.Chemscore.Lipo.Weighted>
-14.4558

> <Gold.Chemscore.Internal_Hbond.Weighted>
0.0000

> <Gold.Chemscore.DEClash.Weighted>
0.4579

> <Gold.Chemscore.DEInternal.Weighted>
1.7528

> <Gold.Chemscore.Rot.Weighted>
4.1090

> <Gold.Chemscore.Internal.Correction.Weighted>
   9.000000E+99

> <Gold.Protein.RotatedTorsions>
[ 6907 6896 6895 6894 ] final   -2.56 input  -60.11 | X-H torsion
[ 7974 7965 7964 7962 ] final  -35.21 input  175.53 | X-H torsion
[ 8008 7997 7996 7995 ] final  -13.64 input   59.86 | X-H torsion
[ 10167 10162 10161 10158 ] final   -9.40 input  -65.29 | X-H torsion
[ 10718 10713 10712 10709 ] final   97.21 input   66.30 | X-H torsion
[ 10763 10752 10751 10750 ] final -150.26 input  -60.55 | X-H torsion
[ 11005 11000 10999 10996 ] final   42.87 input  -57.11 | X-H torsion

> <Gold.Protein.ActiveResidues>
 VAL166  LYS551  ARG553  GLY616  TRP617  ASP618  TYR619  PRO620  LYS621  CYS622 
 ASP623  PHE694  ASN695  SER759  ASP760  ASP761  ALA762  ILE779  LEU786  VAL792 
 PHE793  MET794  SER795  GLU796  ALA797  LYS798  CYS799  TRP800  GLU811  SER814 

> <Gold.Protein.RotatedAtoms>
  151.5279  135.1068  159.9894 H   0  0  0  0  0  0  0  0  0  0  0  0  # atno 6907 bound_to 6896
  152.4592  133.7782  159.6846 H   0  0  0  0  0  0  0  0  0  0  0  0  # atno 6908 bound_to 6896
  150.8547  133.7669  159.3038 H   0  0  0  0  0  0  0  0  0  0  0  0  # atno 6909 bound_to 6896
  146.0766  140.6131  142.8928 H   0  0  0  0  0  0  0  0  0  0  0  0  # atno 7974 bound_to 7965
  154.5276  140.2244  155.8863 H   0  0  0  0  0  0  0  0  0  0  0  0  # atno 8008 bound_to 7997
  156.1729  140.3117  155.8971 H   0  0  0  0  0  0  0  0  0  0  0  0  # atno 8009 bound_to 7997
  155.3520  140.0456  157.3037 H   0  0  0  0  0  0  0  0  0  0  0  0  # atno 8010 bound_to 7997
  140.7086  143.5862  150.8941 H   0  0  0  0  0  0  0  0  0  0  0  0  # atno 10167 bound_to 10162
  157.6916  131.0602  150.4608 H   0  0  0  0  0  0  0  0  0  0  0  0  # atno 10718 bound_to 10713
  154.8129  135.3288  154.7256 H   0  0  0  0  0  0  0  0  0  0  0  0  # atno 10763 bound_to 10752
  153.7902  135.6911  153.4877 H   0  0  0  0  0  0  0  0  0  0  0  0  # atno 10764 bound_to 10752
  153.1922  135.4547  155.0110 H   0  0  0  0  0  0  0  0  0  0  0  0  # atno 10765 bound_to 10752
  140.1698  134.4236  155.8264 H   0  0  0  0  0  0  0  0  0  0  0  0  # atno 11005 bound_to 11000
  144.7265  140.4541  143.6969 LP  0  0  0  0  0  0  0  0  0  0  0  0  # atno 17320 bound_to 7965
  145.6295  139.1534  143.2977 LP  0  0  0  0  0  0  0  0  0  0  0  0  # atno 17321 bound_to 7965
  139.9588  143.6188  152.3008 LP  0  0  0  0  0  0  0  0  0  0  0  0  # atno 17342 bound_to 10162
  139.6733  144.7660  151.1743 LP  0  0  0  0  0  0  0  0  0  0  0  0  # atno 17343 bound_to 10162
  156.4953  130.4104  149.6383 LP  0  0  0  0  0  0  0  0  0  0  0  0  # atno 17370 bound_to 10713
  156.3379  130.7366  151.2307 LP  0  0  0  0  0  0  0  0  0  0  0  0  # atno 17371 bound_to 10713
  141.2216  133.6951  156.7743 LP  0  0  0  0  0  0  0  0  0  0  0  0  # atno 17394 bound_to 11000
  140.2391  134.8627  157.3555 LP  0  0  0  0  0  0  0  0  0  0  0  0  # atno 17395 bound_to 11000

$$$$
