AV-unprocessed.smi:212|AV-procd|sdf|1627|dock3
  -GOLD-   2262019573D 1   1.00000     0.00000
 Structure written by MMmdl.
 65 68  0  0  0  0  0  0  0  0  2 V2000
  146.7902  140.1508  151.5871 C   0  0  0  0  0  0  0  0  0  0  0  0
  147.5232  139.4798  152.7610 C   0  0  2  0  0  0  0  0  0  0  0  0
  146.7567  138.2543  153.3017 C   0  0  0  0  0  0  0  0  0  0  0  0
  145.5406  138.6586  154.0561 N   0  3  1  0  0  0  0  0  0  0  0  0
  144.7004  137.5080  154.4811 C   0  0  0  0  0  0  0  0  0  0  0  0
  143.8106  136.9657  153.3378 C   0  0  0  0  0  0  0  0  0  0  0  0
  144.6863  136.3656  152.2250 C   0  0  0  0  0  0  0  0  0  0  0  0
  142.7927  135.9224  153.8344 C   0  0  0  0  0  0  0  0  0  0  0  0
  143.0982  138.0381  152.7538 O   0  0  0  0  0  0  0  0  0  0  0  0
  145.8581  139.5941  155.1641 C   0  0  0  0  0  0  0  0  0  0  0  0
  146.6271  140.8230  154.6451 C   0  0  0  0  0  0  0  0  0  0  0  0
  147.7889  140.4275  153.8467 N   0  0  0  0  0  0  0  0  0  0  0  0
  148.9959  140.3091  154.4601 C   0  0  0  0  0  0  0  0  0  0  0  0
  149.9566  139.5125  153.9205 N   0  0  0  0  0  0  0  0  0  0  0  0
  151.1506  139.3991  154.5101 C   0  0  0  0  0  0  0  0  0  0  0  0
  151.5880  139.9822  155.6273 N   0  0  0  0  0  0  0  0  0  0  0  0
  150.6265  140.7758  156.1793 C   0  0  0  0  0  0  0  0  0  0  0  0
  149.3170  140.9946  155.6660 C   0  0  0  0  0  0  0  0  0  0  0  0
  148.6197  141.8587  156.5027 N   0  0  0  0  0  0  0  0  0  0  0  0
  149.4712  142.1421  157.4504 C   0  0  0  0  0  0  0  0  0  0  0  0
  150.7017  141.5376  157.3321 N   0  0  0  0  0  0  0  0  0  0  0  0
  151.8235  141.6758  158.2441 C   0  0  0  0  0  0  0  0  0  0  0  0
  151.6899  142.9051  159.1815 C   0  0  2  0  0  0  0  0  0  0  0  0
  151.5254  144.2179  158.3784 C   0  0  0  0  0  0  0  0  0  0  0  0
  151.1396  145.2872  159.2166 O   0  0  0  0  0  0  0  0  0  0  0  0
  152.8428  143.0010  160.2213 C   0  0  1  0  0  0  0  0  0  0  0  0
  152.3698  143.2438  161.6577 C   0  0  0  0  0  0  0  0  0  0  0  0
  153.1061  142.1878  162.4787 C   0  0  0  0  0  0  0  0  0  0  0  0
  153.3185  141.1371  161.5520 O   0  0  0  0  0  0  0  0  0  0  0  0
  153.7237  141.7460  160.3367 C   0  0  0  0  0  0  0  0  0  0  0  0
  146.6523  139.4498  150.7637 H   0  0  0  0  0  0  0  0  0  0  0  0
  147.3621  140.9965  151.2040 H   0  0  0  0  0  0  0  0  0  0  0  0
  145.8042  140.5175  151.8729 H   0  0  0  0  0  0  0  0  0  0  0  0
  148.4651  139.1049  152.3612 H   0  0  0  0  0  0  0  0  0  0  0  0
  146.4931  137.5903  152.4783 H   0  0  0  0  0  0  0  0  0  0  0  0
  147.4074  137.6812  153.9644 H   0  0  0  0  0  0  0  0  0  0  0  0
  145.3281  136.7156  154.8926 H   0  0  0  0  0  0  0  0  0  0  0  0
  144.0486  137.8141  155.3012 H   0  0  0  0  0  0  0  0  0  0  0  0
  145.2662  135.5185  152.5933 H   0  0  0  0  0  0  0  0  0  0  0  0
  145.3902  137.0996  151.8307 H   0  0  0  0  0  0  0  0  0  0  0  0
  144.0820  136.0092  151.3898 H   0  0  0  0  0  0  0  0  0  0  0  0
  143.2945  135.0781  154.3081 H   0  0  0  0  0  0  0  0  0  0  0  0
  142.1956  135.5284  153.0109 H   0  0  0  0  0  0  0  0  0  0  0  0
  142.0991  136.3448  154.5621 H   0  0  0  0  0  0  0  0  0  0  0  0
  143.6603  138.7977  152.7316 H   0  0  0  0  0  0  0  0  0  0  0  0
  144.9364  139.9230  155.6455 H   0  0  0  0  0  0  0  0  0  0  0  0
  146.4429  139.0698  155.9214 H   0  0  0  0  0  0  0  0  0  0  0  0
  145.9710  141.4279  154.0192 H   0  0  0  0  0  0  0  0  0  0  0  0
  146.9210  141.4692  155.4733 H   0  0  0  0  0  0  0  0  0  0  0  0
  151.8569  138.7488  154.0154 H   0  0  0  0  0  0  0  0  0  0  0  0
  149.2247  142.8046  158.2678 H   0  0  0  0  0  0  0  0  0  0  0  0
  151.8948  140.7493  158.8123 H   0  0  0  0  0  0  0  0  0  0  0  0
  152.7387  141.7368  157.6554 H   0  0  0  0  0  0  0  0  0  0  0  0
  150.7679  142.7713  159.7501 H   0  0  0  0  0  0  0  0  0  0  0  0
  152.4481  144.4795  157.8601 H   0  0  0  0  0  0  0  0  0  0  0  0
  150.7529  144.1191  157.6168 H   0  0  0  0  0  0  0  0  0  0  0  0
  151.2575  146.0971  158.7440 H   0  0  0  0  0  0  0  0  0  0  0  0
  153.4888  143.8354  159.9468 H   0  0  0  0  0  0  0  0  0  0  0  0
  152.5987  144.2519  162.0047 H   0  0  0  0  0  0  0  0  0  0  0  0
  151.2933  143.1104  161.7580 H   0  0  0  0  0  0  0  0  0  0  0  0
  154.0685  142.5664  162.8268 H   0  0  0  0  0  0  0  0  0  0  0  0
  152.5350  141.8526  163.3446 H   0  0  0  0  0  0  0  0  0  0  0  0
  153.6335  141.0590  159.4957 H   0  0  0  0  0  0  0  0  0  0  0  0
  154.7750  142.0269  160.4171 H   0  0  0  0  0  0  0  0  0  0  0  0
  144.9721  139.1862  153.4091 H   0  0  0  0  0  0  0  0  0  0  0  0
  1  2  1  0  0  0  0
  1 31  1  0  0  0  0
  1 32  1  0  0  0  0
  1 33  1  0  0  0  0
  2 12  1  0  0  0  0
  2  3  1  0  0  0  0
  2 34  1  0  0  0  0
  3  4  1  0  0  0  0
  3 35  1  0  0  0  0
  3 36  1  0  0  0  0
  4  5  1  0  0  0  0
  4 10  1  0  0  0  0
  4 65  1  0  0  0  0
  5  6  1  0  0  0  0
  5 37  1  0  0  0  0
  5 38  1  0  0  0  0
  6  7  1  0  0  0  0
  6  8  1  0  0  0  0
  6  9  1  0  0  0  0
  7 39  1  0  0  0  0
  7 40  1  0  0  0  0
  7 41  1  0  0  0  0
  8 42  1  0  0  0  0
  8 43  1  0  0  0  0
  8 44  1  0  0  0  0
  9 45  1  0  0  0  0
 10 11  1  0  0  0  0
 10 46  1  0  0  0  0
 10 47  1  0  0  0  0
 11 12  1  0  0  0  0
 11 48  1  0  0  0  0
 11 49  1  0  0  0  0
 12 13  1  0  0  0  0
 13 18  1  0  0  0  0
 13 14  2  0  0  0  0
 14 15  1  0  0  0  0
 15 16  2  0  0  0  0
 15 50  1  0  0  0  0
 16 17  1  0  0  0  0
 17 21  1  0  0  0  0
 17 18  2  0  0  0  0
 18 19  1  0  0  0  0
 19 20  2  0  0  0  0
 20 21  1  0  0  0  0
 20 51  1  0  0  0  0
 21 22  1  0  0  0  0
 22 23  1  0  0  0  0
 22 52  1  0  0  0  0
 22 53  1  0  0  0  0
 23 24  1  0  0  0  0
 23 26  1  0  0  0  0
 23 54  1  0  0  0  0
 24 25  1  0  0  0  0
 24 55  1  0  0  0  0
 24 56  1  0  0  0  0
 25 57  1  0  0  0  0
 26 30  1  0  0  0  0
 26 27  1  0  0  0  0
 26 58  1  0  0  0  0
 27 28  1  0  0  0  0
 27 59  1  0  0  0  0
 27 60  1  0  0  0  0
 28 29  1  0  0  0  0
 28 61  1  0  0  0  0
 28 62  1  0  0  0  0
 29 30  1  0  0  0  0
 30 63  1  0  0  0  0
 30 64  1  0  0  0  0
M  CHG  1   4   1
M  END
> <s_m_source_file>
AV-unprocessed.smi

> <i_m_source_file_index>
212

> <i_lp_mmshare_version>
43012

> <i_f3d_flags>
0

> <s_epik_input>
W0NIM11bQ0BASF0xW0NIMl1OKFtDSDJdQyhbQ0gzXSkoW0NIM10pW09IXSlbQ0gyXVtDSDJdTjFjKG5bY0hdbjIpYyhjMjMpbltjSF1uM1tDSDJdW0NASF0oW0NIMl1bT0hdKVtDQEBIXTRbQ0gyXVtDSDJdT1tDSDJdNA==

> <s_epik_cmdline>
J2VwaWtfcHl0aG9uJywgJy1waCcsICc3LjAnLCAnLXRuJywgJzgnLCAnLW1hJywgJzIwMCcsICctbWV0YWxfYmluZGluZycsICctaW1hZScsICc8aW5maWxlLm1hZT4nLCAnLW9tYWUnLCAnPG91dGZpbGUubWFlPic=

> <r_lp_tautomer_probability>
1

> <r_epik_Ionization_Penalty>
0.00182193

> <r_epik_Ionization_Penalty_Charging>
0.00173996

> <r_epik_Ionization_Penalty_Neutral>
8.19718e-05

> <r_epik_State_Penalty>
-0

> <r_epik_Charging_Adjusted_Penalty>
0.00173996

> <i_epik_Tot_Q>
1

> <i_epik_Tot_abs_Q>
1

> <r_epik_Metal_State_Penalty>
-0

> <b_epik_Metal_Only>
0

> <s_lp_Force_Field>
OPLS_2005

> <r_lp_Energy>
60.0337

> <b_lp_Chiralities_Consistent>
1

> <s_lp_Variant>
AV-unprocessed.smi:212-11

> <Gold.Version>
5.8.1

> <Gold.Id.Protein>
6NUR|6NUR_protein|mol2

> <Gold.PLP.Fitness>
57.8085

> <Gold.PLP.PLP>
-52.3074

> <Gold.PLP.part.hbond>
-2.7262

> <Gold.PLP.part.metal>
0.0000

> <Gold.PLP.part.buried>
-1.7720

> <Gold.PLP.part.nonpolar>
-49.9326

> <Gold.PLP.part.repulsive>
2.8705

> <Gold.PLP.ligand.clash>
0.0000

> <Gold.PLP.ligand.torsion>
1.9908

> <Gold.PLP.Chemscore.Hbond>
2.8160

> <Gold.PLP.Chemscore.CHOScore>
0.0000

> <Gold.PLP.Chemscore.Metal>
0.0000

> <Gold.Chemscore.Hbonds>
donor molecule, donor type, donor heavy atom, donor atom, acceptor molecule, acceptor atom, score
      L1  H     4    65       P1 10175  1.92
      L1  H     9    45       P1 10175  0.83

> <Gold.PLP.Chemscore.Internal.Correction>
1.0347

> <Gold.Rescore>
     Score         DG    S(hbond)    S(metal)    S(lipo)     H(rot)  DE(clash)    DE(int)     intcor
      9.73     -16.68       1.85        0.00     117.23       3.40       2.48       4.47       ----

> <Gold.Chemscore.Fitness>
9.7312

> <Gold.Chemscore.DG>
-16.6831

> <Gold.Chemscore.ZeroCoef>
-5.4800

> <Gold.Chemscore.Hbond>
1.8525

> <Gold.Chemscore.Metal>
0.0000

> <Gold.Chemscore.Lipo>
117.2310

> <Gold.Chemscore.Internal_Hbond>
0.0000

> <Gold.Chemscore.DEClash>
2.4769

> <Gold.Chemscore.DEInternal>
4.4750

> <Gold.Chemscore.Rot>
3.3986

> <Gold.Chemscore.Internal.Correction>
   9.000000E+99

> <Gold.Chemscore.Hbonds>
donor molecule, donor type, donor heavy atom, donor atom, acceptor molecule, acceptor atom, score
      L1  H     4    65       P1 10175  0.91
      L1  H     9    45       P1 10175  0.83

> <Gold.Chemscore.Hbond.Weighted>
-6.1875

> <Gold.Chemscore.Metal.Weighted>
-0.0000

> <Gold.Chemscore.Lipo.Weighted>
-13.7160

> <Gold.Chemscore.Internal_Hbond.Weighted>
0.0000

> <Gold.Chemscore.DEClash.Weighted>
2.4769

> <Gold.Chemscore.DEInternal.Weighted>
4.4750

> <Gold.Chemscore.Rot.Weighted>
8.7005

> <Gold.Chemscore.Internal.Correction.Weighted>
   9.000000E+99

> <Gold.Protein.RotatedTorsions>
[ 6907 6896 6895 6894 ] final  155.90 input  -60.11 | X-H torsion
[ 7974 7965 7964 7962 ] final  173.06 input  175.53 | X-H torsion
[ 8008 7997 7996 7995 ] final   88.85 input   59.86 | X-H torsion
[ 10167 10162 10161 10158 ] final   55.99 input  -65.29 | X-H torsion
[ 10718 10713 10712 10709 ] final  102.79 input   66.30 | X-H torsion
[ 10763 10752 10751 10750 ] final   67.44 input  -60.55 | X-H torsion
[ 11005 11000 10999 10996 ] final  147.87 input  -57.11 | X-H torsion

> <Gold.Protein.ActiveResidues>
 VAL166  LYS551  ARG553  GLY616  TRP617  ASP618  TYR619  PRO620  LYS621  CYS622 
 ASP623  PHE694  ASN695  SER759  ASP760  ASP761  ALA762  ILE779  LEU786  VAL792 
 PHE793  MET794  SER795  GLU796  ALA797  LYS798  CYS799  TRP800  GLU811  SER814 

> <Gold.Protein.RotatedAtoms>
  152.0374  133.3963  159.4322 H   0  0  0  0  0  0  0  0  0  0  0  0  # atno 6907 bound_to 6896
  150.6878  134.3453  159.4894 H   0  0  0  0  0  0  0  0  0  0  0  0  # atno 6908 bound_to 6896
  152.1247  134.9179  160.0612 H   0  0  0  0  0  0  0  0  0  0  0  0  # atno 6909 bound_to 6896
  144.7253  139.9591  143.6434 H   0  0  0  0  0  0  0  0  0  0  0  0  # atno 7974 bound_to 7965
  155.9928  140.3367  155.6770 H   0  0  0  0  0  0  0  0  0  0  0  0  # atno 8008 bound_to 7997
  155.6397  140.0694  157.2640 H   0  0  0  0  0  0  0  0  0  0  0  0  # atno 8009 bound_to 7997
  154.4225  140.1745  156.1547 H   0  0  0  0  0  0  0  0  0  0  0  0  # atno 8010 bound_to 7997
  140.2135  144.3864  150.6479 H   0  0  0  0  0  0  0  0  0  0  0  0  # atno 10167 bound_to 10162
  157.6792  131.0762  150.5457 H   0  0  0  0  0  0  0  0  0  0  0  0  # atno 10718 bound_to 10713
  153.0186  135.5284  154.6980 H   0  0  0  0  0  0  0  0  0  0  0  0  # atno 10763 bound_to 10752
  154.6097  135.2877  155.0448 H   0  0  0  0  0  0  0  0  0  0  0  0  # atno 10764 bound_to 10752
  154.1475  135.6568  153.5008 H   0  0  0  0  0  0  0  0  0  0  0  0  # atno 10765 bound_to 10752
  140.0912  134.9040  157.1653 H   0  0  0  0  0  0  0  0  0  0  0  0  # atno 11005 bound_to 11000
  146.0651  139.3642  143.0557 LP  0  0  0  0  0  0  0  0  0  0  0  0  # atno 17320 bound_to 7965
  145.8041  140.9757  143.0983 LP  0  0  0  0  0  0  0  0  0  0  0  0  # atno 17321 bound_to 7965
  140.6306  143.2187  151.6503 LP  0  0  0  0  0  0  0  0  0  0  0  0  # atno 17342 bound_to 10162
  139.5171  144.3327  152.0812 LP  0  0  0  0  0  0  0  0  0  0  0  0  # atno 17343 bound_to 10162
  156.5763  130.4292  149.5997 LP  0  0  0  0  0  0  0  0  0  0  0  0  # atno 17370 bound_to 10713
  156.2699  130.7011  151.1805 LP  0  0  0  0  0  0  0  0  0  0  0  0  # atno 17371 bound_to 10713
  140.3350  134.2767  155.7221 LP  0  0  0  0  0  0  0  0  0  0  0  0  # atno 17394 bound_to 11000
  141.2078  133.7795  157.0096 LP  0  0  0  0  0  0  0  0  0  0  0  0  # atno 17395 bound_to 11000

$$$$
