AV-unprocessed.smi:672|AV-procd|sdf|3292|dock2
  -GOLD-   22720 0253D 1   1.00000     0.00000
 Structure written by MMmdl.
 36 37  0  0  0  0  0  0  0  0  1 V2000
  150.4889  142.2836  157.2340 C   0  0  0  0  0  0  0  0  0  0  0  0
  150.9986  141.3738  156.1113 C   0  0  0  0  0  0  0  0  0  0  0  0
  149.9729  140.3886  155.6589 C   0  0  0  0  0  0  0  0  0  0  0  0
  148.7534  140.3113  156.2061 N   0  0  0  0  0  0  0  0  0  0  0  0
  147.9684  139.3364  155.6067 N   0  0  0  0  0  0  0  0  0  0  0  0
  148.6160  138.7153  154.6112 C   0  0  0  0  0  0  0  0  0  0  0  0
  148.0474  137.6767  153.8270 N   0  0  0  0  0  0  0  0  0  0  0  0
  146.8118  137.1528  153.9082 C   0  0  0  0  0  0  0  0  0  0  0  0
  145.9394  137.5040  154.7031 O   0  0  0  0  0  0  0  0  0  0  0  0
  146.6380  136.1774  153.0045 N   0  0  0  0  0  0  0  0  0  0  0  0
  145.4112  135.4024  152.8323 C   0  0  1  0  0  0  0  0  0  0  0  0
  144.5014  136.0439  151.7670 C   0  0  0  0  0  0  0  0  0  0  0  0
  144.1013  134.9154  150.8146 C   0  0  0  0  0  0  0  0  0  0  0  0
  145.2772  133.9418  150.8671 C   0  0  2  0  0  0  0  0  0  0  0  0
  144.8502  132.2692  150.3031 S   0  0  0  0  0  0  0  0  0  0  0  0
  143.8406  132.6652  148.8513 C   0  0  0  0  0  0  0  0  0  0  0  0
  145.7085  133.9735  152.3350 C   0  0  0  0  0  0  0  0  0  0  0  0
  150.2522  139.2802  154.3206 S   0  0  0  0  0  0  0  0  0  0  0  0
  151.2607  142.9894  157.5411 H   0  0  0  0  0  0  0  0  0  0  0  0
  150.2001  141.7027  158.1105 H   0  0  0  0  0  0  0  0  0  0  0  0
  149.6205  142.8584  156.9110 H   0  0  0  0  0  0  0  0  0  0  0  0
  151.3049  141.9760  155.2556 H   0  0  0  0  0  0  0  0  0  0  0  0
  151.8848  140.8327  156.4447 H   0  0  0  0  0  0  0  0  0  0  0  0
  148.6563  137.2817  153.1259 H   0  0  0  0  0  0  0  0  0  0  0  0
  147.4073  135.9534  152.3908 H   0  0  0  0  0  0  0  0  0  0  0  0
  144.8761  135.3529  153.7828 H   0  0  0  0  0  0  0  0  0  0  0  0
  143.6301  136.5283  152.2088 H   0  0  0  0  0  0  0  0  0  0  0  0
  145.0425  136.8070  151.2054 H   0  0  0  0  0  0  0  0  0  0  0  0
  143.1977  134.4289  151.1846 H   0  0  0  0  0  0  0  0  0  0  0  0
  143.8962  135.2769  149.8067 H   0  0  0  0  0  0  0  0  0  0  0  0
  146.0928  134.3260  150.2525 H   0  0  0  0  0  0  0  0  0  0  0  0
  143.5254  131.7479  148.3540 H   0  0  0  0  0  0  0  0  0  0  0  0
  144.4111  133.2644  148.1416 H   0  0  0  0  0  0  0  0  0  0  0  0
  142.9498  133.2216  149.1423 H   0  0  0  0  0  0  0  0  0  0  0  0
  146.7505  133.6757  152.4607 H   0  0  0  0  0  0  0  0  0  0  0  0
  145.1061  133.2690  152.9105 H   0  0  0  0  0  0  0  0  0  0  0  0
  1  2  1  0  0  0  0
  1 19  1  0  0  0  0
  1 20  1  0  0  0  0
  1 21  1  0  0  0  0
  2  3  1  0  0  0  0
  2 22  1  0  0  0  0
  2 23  1  0  0  0  0
  3 18  1  0  0  0  0
  3  4  2  0  0  0  0
  4  5  1  0  0  0  0
  5  6  2  0  0  0  0
  6  7  1  0  0  0  0
  6 18  1  0  0  0  0
  7  8  1  0  0  0  0
  7 24  1  0  0  0  0
  8  9  2  0  0  0  0
  8 10  1  0  0  0  0
 10 11  1  0  0  0  0
 10 25  1  0  0  0  0
 11 17  1  0  0  0  0
 11 12  1  0  0  0  0
 11 26  1  0  0  0  0
 12 13  1  0  0  0  0
 12 27  1  0  0  0  0
 12 28  1  0  0  0  0
 13 14  1  0  0  0  0
 13 29  1  0  0  0  0
 13 30  1  0  0  0  0
 14 15  1  0  0  0  0
 14 17  1  0  0  0  0
 14 31  1  0  0  0  0
 15 16  1  0  0  0  0
 16 32  1  0  0  0  0
 16 33  1  0  0  0  0
 16 34  1  0  0  0  0
 17 35  1  0  0  0  0
 17 36  1  0  0  0  0
M  END
> <s_m_source_file>
AV-unprocessed.smi

> <i_m_source_file_index>
672

> <i_lp_mmshare_version>
43012

> <i_f3d_flags>
0

> <s_epik_input>
W0NIM11bQ0gyXWMxbm5jKHMxKVtOSF1DKD1PKVtOSF1bQ0BASF0yW0NIMl1bQ0gyXVtDQEhdKFtDSDJdMilTW0NIM10=

> <s_epik_cmdline>
J2VwaWtfcHl0aG9uJywgJy1waCcsICc3LjAnLCAnLXRuJywgJzgnLCAnLW1hJywgJzIwMCcsICctbWV0YWxfYmluZGluZycsICctaW1hZScsICc8aW5maWxlLm1hZT4nLCAnLW9tYWUnLCAnPG91dGZpbGUubWFlPic=

> <r_lp_tautomer_probability>
1

> <r_epik_Ionization_Penalty>
0.000422169

> <r_epik_Ionization_Penalty_Charging>
0

> <r_epik_Ionization_Penalty_Neutral>
0.000422169

> <r_epik_State_Penalty>
-0

> <r_epik_Charging_Adjusted_Penalty>
0

> <i_epik_Tot_Q>
0

> <i_epik_Tot_abs_Q>
0

> <r_epik_Metal_State_Penalty>
0.200061

> <b_epik_Metal_Only>
0

> <s_lp_Force_Field>
OPLS_2005

> <r_lp_Energy>
11.6788

> <b_lp_Chiralities_Consistent>
1

> <s_lp_Variant>
AV-unprocessed.smi:672-4

> <Gold.Version>
5.8.1

> <Gold.Id.Protein>
6NUR|6NUR_protein|mol2

> <Gold.PLP.Fitness>
33.7554

> <Gold.PLP.PLP>
-28.8205

> <Gold.PLP.part.hbond>
-2.0000

> <Gold.PLP.part.metal>
0.0000

> <Gold.PLP.part.buried>
-3.5498

> <Gold.PLP.part.nonpolar>
-23.8670

> <Gold.PLP.part.repulsive>
0.1072

> <Gold.PLP.ligand.clash>
0.0000

> <Gold.PLP.ligand.torsion>
0.5479

> <Gold.PLP.Chemscore.Hbond>
2.0000

> <Gold.PLP.Chemscore.CHOScore>
0.0000

> <Gold.PLP.Chemscore.Metal>
0.0000

> <Gold.Chemscore.Hbonds>
donor molecule, donor type, donor heavy atom, donor atom, acceptor molecule, acceptor atom, score
      L1  H     7    24       P1  7948  1.00
      L1  H    10    25       P1  7948  1.00

> <Gold.PLP.Chemscore.Internal.Correction>
0.0307

> <Gold.Rescore>
     Score         DG    S(hbond)    S(metal)    S(lipo)     H(rot)  DE(clash)    DE(int)     intcor
     15.16     -17.00       1.90        0.00      74.09       1.37       0.03       1.81       ----

> <Gold.Chemscore.Fitness>
15.1567

> <Gold.Chemscore.DG>
-16.9962

> <Gold.Chemscore.ZeroCoef>
-5.4800

> <Gold.Chemscore.Hbond>
1.9003

> <Gold.Chemscore.Metal>
0.0000

> <Gold.Chemscore.Lipo>
74.0893

> <Gold.Chemscore.Internal_Hbond>
0.0000

> <Gold.Chemscore.DEClash>
0.0261

> <Gold.Chemscore.DEInternal>
1.8135

> <Gold.Chemscore.Rot>
1.3669

> <Gold.Chemscore.Internal.Correction>
   9.000000E+99

> <Gold.Chemscore.Hbonds>
donor molecule, donor type, donor heavy atom, donor atom, acceptor molecule, acceptor atom, score
      L1  H     7    24       P1  7948  0.97
      L1  H    10    25       P1  7948  0.96

> <Gold.Chemscore.Hbond.Weighted>
-6.3470

> <Gold.Chemscore.Metal.Weighted>
-0.0000

> <Gold.Chemscore.Lipo.Weighted>
-8.6684

> <Gold.Chemscore.Internal_Hbond.Weighted>
0.0000

> <Gold.Chemscore.DEClash.Weighted>
0.0261

> <Gold.Chemscore.DEInternal.Weighted>
1.8135

> <Gold.Chemscore.Rot.Weighted>
3.4992

> <Gold.Chemscore.Internal.Correction.Weighted>
   9.000000E+99

> <Gold.Protein.RotatedTorsions>
[ 6907 6896 6895 6894 ] final  -12.69 input  -60.11 | X-H torsion
[ 7974 7965 7964 7962 ] final -139.01 input  175.53 | X-H torsion
[ 8008 7997 7996 7995 ] final  -36.29 input   59.86 | X-H torsion
[ 10167 10162 10161 10158 ] final   60.54 input  -65.29 | X-H torsion
[ 10718 10713 10712 10709 ] final  123.64 input   66.30 | X-H torsion
[ 10763 10752 10751 10750 ] final    5.58 input  -60.55 | X-H torsion
[ 11005 11000 10999 10996 ] final -131.86 input  -57.11 | X-H torsion

> <Gold.Protein.ActiveResidues>
 VAL166  LYS551  ARG553  GLY616  TRP617  ASP618  TYR619  PRO620  LYS621  CYS622 
 ASP623  PHE694  ASN695  SER759  ASP760  ASP761  ALA762  ILE779  LEU786  VAL792 
 PHE793  MET794  SER795  GLU796  ALA797  LYS798  CYS799  TRP800  GLU811  SER814 

> <Gold.Protein.RotatedAtoms>
  151.3666  135.0914  159.9451 H   0  0  0  0  0  0  0  0  0  0  0  0  # atno 6907 bound_to 6896
  152.5147  133.9206  159.7543 H   0  0  0  0  0  0  0  0  0  0  0  0  # atno 6908 bound_to 6896
  150.9611  133.6389  159.2783 H   0  0  0  0  0  0  0  0  0  0  0  0  # atno 6909 bound_to 6896
  144.8712  140.6369  143.5266 H   0  0  0  0  0  0  0  0  0  0  0  0  # atno 7974 bound_to 7965
  154.4076  140.1634  156.2350 H   0  0  0  0  0  0  0  0  0  0  0  0  # atno 8008 bound_to 7997
  155.9250  140.3418  155.6180 H   0  0  0  0  0  0  0  0  0  0  0  0  # atno 8009 bound_to 7997
  155.7175  140.0764  157.2335 H   0  0  0  0  0  0  0  0  0  0  0  0  # atno 8010 bound_to 7997
  140.1645  144.4338  150.6692 H   0  0  0  0  0  0  0  0  0  0  0  0  # atno 10167 bound_to 10162
  157.5648  131.1087  150.8473 H   0  0  0  0  0  0  0  0  0  0  0  0  # atno 10718 bound_to 10713
  153.2577  135.6920  153.7611 H   0  0  0  0  0  0  0  0  0  0  0  0  # atno 10763 bound_to 10752
  153.6682  135.3349  155.3147 H   0  0  0  0  0  0  0  0  0  0  0  0  # atno 10764 bound_to 10752
  154.8418  135.4493  154.1556 H   0  0  0  0  0  0  0  0  0  0  0  0  # atno 10765 bound_to 10752
  140.9221  134.1430  157.4305 H   0  0  0  0  0  0  0  0  0  0  0  0  # atno 11005 bound_to 11000
  145.4128  139.1577  143.4116 LP  0  0  0  0  0  0  0  0  0  0  0  0  # atno 17320 bound_to 7965
  146.2931  140.4233  142.8732 LP  0  0  0  0  0  0  0  0  0  0  0  0  # atno 17321 bound_to 7965
  140.6622  143.2256  151.5829 LP  0  0  0  0  0  0  0  0  0  0  0  0  # atno 17342 bound_to 10162
  139.5366  144.2764  152.1264 LP  0  0  0  0  0  0  0  0  0  0  0  0  # atno 17343 bound_to 10162
  156.8961  130.5230  149.5284 LP  0  0  0  0  0  0  0  0  0  0  0  0  # atno 17370 bound_to 10713
  156.0697  130.5733  150.9360 LP  0  0  0  0  0  0  0  0  0  0  0  0  # atno 17371 bound_to 10713
  139.8778  134.9975  156.5851 LP  0  0  0  0  0  0  0  0  0  0  0  0  # atno 17394 bound_to 11000
  140.7974  133.8533  155.8697 LP  0  0  0  0  0  0  0  0  0  0  0  0  # atno 17395 bound_to 11000

$$$$
