AV-unprocessed.smi:109|AV-procd|sdf|1052|dock3
  -GOLD-   2262018103D 1   1.00000     0.00000
 Structure written by MMmdl.
 58 61  0  0  0  0  0  0  0  0  1 V2000
  153.1073  138.5464  156.9231 O   0  0  0  0  0  0  0  0  0  0  0  0
  152.7340  138.4566  158.2810 C   0  0  0  0  0  0  0  0  0  0  0  0
  153.0083  139.7930  158.9888 C   0  0  0  0  0  0  0  0  0  0  0  0
  152.2419  140.9760  158.3567 C   0  0  1  0  0  0  0  0  0  0  0  0
  150.8047  140.7032  158.3757 N   0  0  0  0  0  0  0  0  0  0  0  0
  150.0400  140.8398  157.2696 C   0  0  0  0  0  0  0  0  0  0  0  0
  150.2198  141.8745  156.4078 N   0  0  0  0  0  0  0  0  0  0  0  0
  149.4564  141.9748  155.3160 C   0  0  0  0  0  0  0  0  0  0  0  0
  148.4790  141.1646  154.9047 N   0  0  0  0  0  0  0  0  0  0  0  0
  148.2907  140.1239  155.7667 C   0  0  0  0  0  0  0  0  0  0  0  0
  149.0248  139.8965  156.9646 C   0  0  0  0  0  0  0  0  0  0  0  0
  148.5603  138.7479  157.5911 N   0  0  0  0  0  0  0  0  0  0  0  0
  147.6080  138.3233  156.8050 C   0  0  0  0  0  0  0  0  0  0  0  0
  147.3793  139.0884  155.6827 N   0  0  0  0  0  0  0  0  0  0  0  0
  146.3658  138.8328  154.6071 C   0  0  2  0  0  0  0  0  0  0  0  0
  145.8014  137.5683  154.7924 O   0  0  0  0  0  0  0  0  0  0  0  0
  146.0154  136.7540  153.6425 C   0  0  1  0  0  0  0  0  0  0  0  0
  144.8822  135.7258  153.4801 C   0  0  0  0  0  0  0  0  0  0  0  0
  145.1388  134.8796  152.3794 O   0  0  0  0  0  0  0  0  0  0  0  0
  146.2277  137.7485  152.4916 C   0  0  1  0  0  0  0  0  0  0  0  0
  144.9951  138.1923  151.9549 O   0  0  0  0  0  0  0  0  0  0  0  0
  146.9498  138.8957  153.1803 C   0  0  2  0  0  0  0  0  0  0  0  0
  148.3530  138.7105  153.1219 O   0  0  0  0  0  0  0  0  0  0  0  0
  152.5475  142.3528  159.0077 C   0  0  0  0  0  0  0  0  0  0  0  0
  152.2305  142.3829  160.5185 C   0  0  0  0  0  0  0  0  0  0  0  0
  152.6427  143.7219  161.1521 C   0  0  0  0  0  0  0  0  0  0  0  0
  151.9752  144.9059  160.4350 C   0  0  0  0  0  0  0  0  0  0  0  0
  152.2773  144.8849  158.9284 C   0  0  0  0  0  0  0  0  0  0  0  0
  151.8671  143.5447  158.2958 C   0  0  0  0  0  0  0  0  0  0  0  0
  145.5928  139.5839  154.7743 H   0  0  0  0  0  0  0  0  0  0  0  0
  146.9512  136.2172  153.8021 H   0  0  0  0  0  0  0  0  0  0  0  0
  146.8116  137.3134  151.6793 H   0  0  0  0  0  0  0  0  0  0  0  0
  146.7210  139.8638  152.7327 H   0  0  0  0  0  0  0  0  0  0  0  0
  152.3795  138.2603  156.3925 H   0  0  0  0  0  0  0  0  0  0  0  0
  151.6761  138.1994  158.3411 H   0  0  0  0  0  0  0  0  0  0  0  0
  153.2944  137.6449  158.7457 H   0  0  0  0  0  0  0  0  0  0  0  0
  152.7550  139.7028  160.0460 H   0  0  0  0  0  0  0  0  0  0  0  0
  154.0807  139.9803  158.9477 H   0  0  0  0  0  0  0  0  0  0  0  0
  152.5687  141.0281  157.3177 H   0  0  0  0  0  0  0  0  0  0  0  0
  150.4200  140.4583  159.2769 H   0  0  0  0  0  0  0  0  0  0  0  0
  149.6584  142.8232  154.6792 H   0  0  0  0  0  0  0  0  0  0  0  0
  147.0422  137.4292  157.0231 H   0  0  0  0  0  0  0  0  0  0  0  0
  144.8132  135.1086  154.3762 H   0  0  0  0  0  0  0  0  0  0  0  0
  143.9140  136.2104  153.3544 H   0  0  0  0  0  0  0  0  0  0  0  0
  144.6919  135.2273  151.6227 H   0  0  0  0  0  0  0  0  0  0  0  0
  144.9185  139.1205  152.1160 H   0  0  0  0  0  0  0  0  0  0  0  0
  148.5263  137.8425  152.7912 H   0  0  0  0  0  0  0  0  0  0  0  0
  153.6245  142.5083  158.9258 H   0  0  0  0  0  0  0  0  0  0  0  0
  151.1658  142.2264  160.6904 H   0  0  0  0  0  0  0  0  0  0  0  0
  152.7487  141.5673  161.0239 H   0  0  0  0  0  0  0  0  0  0  0  0
  152.3760  143.7299  162.2094 H   0  0  0  0  0  0  0  0  0  0  0  0
  153.7270  143.8300  161.1059 H   0  0  0  0  0  0  0  0  0  0  0  0
  150.8965  144.8660  160.5916 H   0  0  0  0  0  0  0  0  0  0  0  0
  152.3171  145.8454  160.8702 H   0  0  0  0  0  0  0  0  0  0  0  0
  151.7546  145.7042  158.4338 H   0  0  0  0  0  0  0  0  0  0  0  0
  153.3423  145.0555  158.7660 H   0  0  0  0  0  0  0  0  0  0  0  0
  152.1258  143.5518  157.2367 H   0  0  0  0  0  0  0  0  0  0  0  0
  150.7826  143.4466  158.3489 H   0  0  0  0  0  0  0  0  0  0  0  0
  1  2  1  0  0  0  0
  1 34  1  0  0  0  0
  2  3  1  0  0  0  0
  2 35  1  0  0  0  0
  2 36  1  0  0  0  0
  3  4  1  0  0  0  0
  3 37  1  0  0  0  0
  3 38  1  0  0  0  0
  4  5  1  0  0  0  0
  4 24  1  0  0  0  0
  4 39  1  0  0  0  0
  5  6  1  0  0  0  0
  5 40  1  0  0  0  0
  6 11  1  0  0  0  0
  6  7  2  0  0  0  0
  7  8  1  0  0  0  0
  8  9  2  0  0  0  0
  8 41  1  0  0  0  0
  9 10  1  0  0  0  0
 10 14  1  0  0  0  0
 10 11  2  0  0  0  0
 11 12  1  0  0  0  0
 12 13  2  0  0  0  0
 13 14  1  0  0  0  0
 13 42  1  0  0  0  0
 14 15  1  0  0  0  0
 15 30  1  0  0  0  0
 15 22  1  0  0  0  0
 15 16  1  0  0  0  0
 16 17  1  0  0  0  0
 17 31  1  0  0  0  0
 17 18  1  0  0  0  0
 17 20  1  0  0  0  0
 18 19  1  0  0  0  0
 18 43  1  0  0  0  0
 18 44  1  0  0  0  0
 19 45  1  0  0  0  0
 20 32  1  0  0  0  0
 20 21  1  0  0  0  0
 20 22  1  0  0  0  0
 21 46  1  0  0  0  0
 22 33  1  0  0  0  0
 22 23  1  0  0  0  0
 23 47  1  0  0  0  0
 24 29  1  0  0  0  0
 24 25  1  0  0  0  0
 24 48  1  0  0  0  0
 25 26  1  0  0  0  0
 25 49  1  0  0  0  0
 25 50  1  0  0  0  0
 26 27  1  0  0  0  0
 26 51  1  0  0  0  0
 26 52  1  0  0  0  0
 27 28  1  0  0  0  0
 27 53  1  0  0  0  0
 27 54  1  0  0  0  0
 28 29  1  0  0  0  0
 28 55  1  0  0  0  0
 28 56  1  0  0  0  0
 29 57  1  0  0  0  0
 29 58  1  0  0  0  0
M  END
> <s_m_source_file>
AV-unprocessed.smi

> <i_m_source_file_index>
109

> <i_lp_mmshare_version>
43012

> <i_f3d_flags>
0

> <s_epik_input>
W0NIMl0xW0NIMl1bQ0gyXVtDSDJdW0NIMl1bQ0hdMVtDQEhdKFtDSDJdW0NIMl1bT0hdKVtOSF1jKG5bY0hdbjIpYyhjMjMpbltjSF1uM1tDQEBIXTRPW0NASF0oW0NIMl1bT0hdKVtDQEBIXShbT0hdKVtDQEhdNFtPSF0=

> <s_epik_cmdline>
J2VwaWtfcHl0aG9uJywgJy1waCcsICc3LjAnLCAnLXRuJywgJzgnLCAnLW1hJywgJzIwMCcsICctbWV0YWxfYmluZGluZycsICctaW1hZScsICc8aW5maWxlLm1hZT4nLCAnLW9tYWUnLCAnPG91dGZpbGUubWFlPic=

> <r_lp_tautomer_probability>
1

> <r_epik_Ionization_Penalty>
0.000793976

> <r_epik_Ionization_Penalty_Charging>
0

> <r_epik_Ionization_Penalty_Neutral>
0.000793976

> <r_epik_State_Penalty>
-0

> <r_epik_Charging_Adjusted_Penalty>
0

> <i_epik_Tot_Q>
0

> <i_epik_Tot_abs_Q>
0

> <r_epik_Metal_State_Penalty>
-0

> <b_epik_Metal_Only>
0

> <s_epik_Chemistry_Notes>
This compound contains an acetal/aminal-like group ( X-CH(R)-Y where X, Y are N, S, or O) that may be acid/base labile, releasing an aldehyde.

> <s_lp_Force_Field>
OPLS_2005

> <r_lp_Energy>
55.7279

> <b_lp_Chiralities_Consistent>
1

> <s_lp_Variant>
AV-unprocessed.smi:109-22

> <Gold.Version>
5.8.1

> <Gold.Id.Protein>
6NUR|6NUR_protein|mol2

> <Gold.PLP.Fitness>
50.7283

> <Gold.PLP.PLP>
-41.0891

> <Gold.PLP.part.hbond>
-4.5521

> <Gold.PLP.part.metal>
0.0000

> <Gold.PLP.part.buried>
-5.1088

> <Gold.PLP.part.nonpolar>
-32.9390

> <Gold.PLP.part.repulsive>
0.6085

> <Gold.PLP.ligand.clash>
0.0206

> <Gold.PLP.ligand.torsion>
0.6872

> <Gold.PLP.Chemscore.Hbond>
2.9280

> <Gold.PLP.Chemscore.CHOScore>
0.6277

> <Gold.PLP.Chemscore.Metal>
0.0000

> <Gold.Chemscore.Hbonds>
donor molecule, donor type, donor heavy atom, donor atom, acceptor molecule, acceptor atom, score
      L1  H    21    46       P1 10175  0.85
      L1  H    23    47       P1  7948  1.00
      P1  H  7997  8010       L1     1  1.00
      L1  C     8    41       P1  8028  0.61

> <Gold.PLP.Chemscore.Internal.Correction>
0.3671

> <Gold.Rescore>
     Score         DG    S(hbond)    S(metal)    S(lipo)     H(rot)  DE(clash)    DE(int)     intcor
     11.15     -12.64       2.80        0.00     100.88       5.47       1.04       0.45       ----

> <Gold.Chemscore.Fitness>
11.1531

> <Gold.Chemscore.DG>
-12.6424

> <Gold.Chemscore.ZeroCoef>
-5.4800

> <Gold.Chemscore.Hbond>
2.8004

> <Gold.Chemscore.Metal>
0.0000

> <Gold.Chemscore.Lipo>
100.8772

> <Gold.Chemscore.Internal_Hbond>
0.0000

> <Gold.Chemscore.DEClash>
1.0436

> <Gold.Chemscore.DEInternal>
0.4457

> <Gold.Chemscore.Rot>
5.4662

> <Gold.Chemscore.Internal.Correction>
   9.000000E+99

> <Gold.Chemscore.Hbonds>
donor molecule, donor type, donor heavy atom, donor atom, acceptor molecule, acceptor atom, score
      L1  H    21    46       P1 10175  0.83
      L1  H    23    47       P1  7948  1.00
      P1  H  7997  8010       L1     1  0.81

> <Gold.Chemscore.Hbond.Weighted>
-9.3533

> <Gold.Chemscore.Metal.Weighted>
-0.0000

> <Gold.Chemscore.Lipo.Weighted>
-11.8026

> <Gold.Chemscore.Internal_Hbond.Weighted>
0.0000

> <Gold.Chemscore.DEClash.Weighted>
1.0436

> <Gold.Chemscore.DEInternal.Weighted>
0.4457

> <Gold.Chemscore.Rot.Weighted>
13.9935

> <Gold.Chemscore.Internal.Correction.Weighted>
   9.000000E+99

> <Gold.Protein.RotatedTorsions>
[ 6907 6896 6895 6894 ] final  128.35 input  -60.11 | X-H torsion
[ 7974 7965 7964 7962 ] final   48.56 input  175.53 | X-H torsion
[ 8008 7997 7996 7995 ] final   66.88 input   59.86 | X-H torsion
[ 10167 10162 10161 10158 ] final   35.24 input  -65.29 | X-H torsion
[ 10718 10713 10712 10709 ] final  -99.83 input   66.30 | X-H torsion
[ 10763 10752 10751 10750 ] final    2.21 input  -60.55 | X-H torsion
[ 11005 11000 10999 10996 ] final  142.30 input  -57.11 | X-H torsion

> <Gold.Protein.ActiveResidues>
 VAL166  LYS551  ARG553  GLY616  TRP617  ASP618  TYR619  PRO620  LYS621  CYS622 
 ASP623  PHE694  ASN695  SER759  ASP760  ASP761  ALA762  ILE779  LEU786  VAL792 
 PHE793  MET794  SER795  GLU796  ALA797  LYS798  CYS799  TRP800  GLU811  SER814 

> <Gold.Protein.RotatedAtoms>
  152.3728  133.6441  159.6099 H   0  0  0  0  0  0  0  0  0  0  0  0  # atno 6907 bound_to 6896
  150.7681  133.9242  159.3416 H   0  0  0  0  0  0  0  0  0  0  0  0  # atno 6908 bound_to 6896
  151.7062  135.0922  160.0311 H   0  0  0  0  0  0  0  0  0  0  0  0  # atno 6909 bound_to 6896
  146.0192  139.4631  142.9908 H   0  0  0  0  0  0  0  0  0  0  0  0  # atno 7974 bound_to 7965
  155.6842  140.3496  155.4867 H   0  0  0  0  0  0  0  0  0  0  0  0  # atno 8008 bound_to 7997
  155.9580  140.1132  157.0943 H   0  0  0  0  0  0  0  0  0  0  0  0  # atno 8009 bound_to 7997
  154.4136  140.1181  156.5127 H   0  0  0  0  0  0  0  0  0  0  0  0  # atno 8010 bound_to 7997
  140.4240  144.1419  150.6151 H   0  0  0  0  0  0  0  0  0  0  0  0  # atno 10167 bound_to 10162
  156.0145  130.5300  150.6728 H   0  0  0  0  0  0  0  0  0  0  0  0  # atno 10718 bound_to 10713
  153.2985  135.6954  153.7226 H   0  0  0  0  0  0  0  0  0  0  0  0  # atno 10763 bound_to 10752
  153.6149  135.3437  155.2992 H   0  0  0  0  0  0  0  0  0  0  0  0  # atno 10764 bound_to 10752
  154.8544  135.4372  154.2088 H   0  0  0  0  0  0  0  0  0  0  0  0  # atno 10765 bound_to 10752
  140.0466  134.9277  157.0942 H   0  0  0  0  0  0  0  0  0  0  0  0  # atno 11005 bound_to 11000
  145.7220  141.0072  143.1397 LP  0  0  0  0  0  0  0  0  0  0  0  0  # atno 17320 bound_to 7965
  144.6983  139.8882  143.7451 LP  0  0  0  0  0  0  0  0  0  0  0  0  # atno 17321 bound_to 7965
  140.4502  143.2490  151.9358 LP  0  0  0  0  0  0  0  0  0  0  0  0  # atno 17342 bound_to 10162
  139.4783  144.5570  151.8298 LP  0  0  0  0  0  0  0  0  0  0  0  0  # atno 17343 bound_to 10162
  157.4447  131.0865  151.0907 LP  0  0  0  0  0  0  0  0  0  0  0  0  # atno 17370 bound_to 10713
  157.1441  130.6156  149.5563 LP  0  0  0  0  0  0  0  0  0  0  0  0  # atno 17371 bound_to 10713
  140.3983  134.2110  155.7164 LP  0  0  0  0  0  0  0  0  0  0  0  0  # atno 17394 bound_to 11000
  141.1910  133.8204  157.0896 LP  0  0  0  0  0  0  0  0  0  0  0  0  # atno 17395 bound_to 11000

$$$$
