AV-unprocessed.smi:1837|AV-procd|sdf|7481|dock6
  -GOLD-   22720 9183D 1   1.00000     0.00000
 Structure written by MMmdl.
 45 48  0  0  0  0  0  0  0  0  3 V2000
  151.2507  141.3811  157.0246 O   0  0  0  0  0  0  0  0  0  0  0  0
  150.7006  142.4772  157.1362 C   0  0  0  0  0  0  0  0  0  0  0  0
  151.4327  143.6540  157.7967 C   0  0  0  0  0  0  0  0  0  0  0  0
  152.0088  143.3168  159.1094 N   0  0  0  0  0  0  0  0  0  0  0  0
  152.8472  142.1860  159.1704 C   0  0  0  0  0  0  0  0  0  0  0  0
  153.4231  141.7829  160.3200 C   0  0  0  0  0  0  0  0  0  0  0  0
  154.2761  140.6157  160.3660 N   0  3  0  0  0  0  0  0  0  0  0  0
  154.4350  139.9622  159.3398 O   0  0  0  0  0  0  0  0  0  0  0  0
  154.8140  140.3123  161.4267 O   0  5  0  0  0  0  0  0  0  0  0  0
  153.1552  142.5579  161.5160 C   0  0  0  0  0  0  0  0  0  0  0  0
  152.3504  143.6377  161.4653 C   0  0  0  0  0  0  0  0  0  0  0  0
  151.7209  144.0716  160.2139 C   0  0  0  0  0  0  0  0  0  0  0  0
  150.9804  145.0537  160.1622 O   0  0  0  0  0  0  0  0  0  0  0  0
  149.4605  142.7416  156.6898 N   0  0  0  0  0  0  0  0  0  0  0  0
  148.5206  141.8345  156.0226 C   0  0  0  0  0  0  0  0  0  0  0  0
  148.1385  140.6368  156.9350 C   0  0  0  0  0  0  0  0  0  0  0  0
  147.2015  139.6748  156.1723 C   0  0  1  0  0  0  0  0  0  0  0  0
  145.9213  140.4267  155.7474 C   0  0  0  0  0  0  0  0  0  0  0  0
  146.2998  141.6028  154.8208 C   0  0  2  0  0  0  0  0  0  0  0  0
  147.0197  141.0623  153.5678 C   0  0  0  0  0  0  0  0  0  0  0  0
  148.2974  140.3136  154.0003 C   0  0  2  0  0  0  0  0  0  0  0  0
  147.9219  139.1333  154.9201 C   0  0  0  0  0  0  0  0  0  0  0  0
  149.2289  141.2822  154.7593 C   0  0  0  0  0  0  0  0  0  0  0  0
  147.2307  142.5764  155.5759 C   0  0  0  0  0  0  0  0  0  0  0  0
  152.2105  143.9964  157.1128 H   0  0  0  0  0  0  0  0  0  0  0  0
  150.7483  144.4992  157.8943 H   0  0  0  0  0  0  0  0  0  0  0  0
  152.9770  141.6730  158.2284 H   0  0  0  0  0  0  0  0  0  0  0  0
  153.5962  142.2771  162.4612 H   0  0  0  0  0  0  0  0  0  0  0  0
  152.1636  144.1995  162.3690 H   0  0  0  0  0  0  0  0  0  0  0  0
  149.1227  143.6821  156.8343 H   0  0  0  0  0  0  0  0  0  0  0  0
  149.0344  140.1059  157.2596 H   0  0  0  0  0  0  0  0  0  0  0  0
  147.6395  140.9769  157.8425 H   0  0  0  0  0  0  0  0  0  0  0  0
  146.9323  138.8421  156.8228 H   0  0  0  0  0  0  0  0  0  0  0  0
  145.2378  139.7479  155.2357 H   0  0  0  0  0  0  0  0  0  0  0  0
  145.3897  140.7939  156.6261 H   0  0  0  0  0  0  0  0  0  0  0  0
  145.3949  142.1304  154.5178 H   0  0  0  0  0  0  0  0  0  0  0  0
  146.3607  140.3955  153.0102 H   0  0  0  0  0  0  0  0  0  0  0  0
  147.2715  141.8816  152.8932 H   0  0  0  0  0  0  0  0  0  0  0  0
  148.8112  139.9343  153.1165 H   0  0  0  0  0  0  0  0  0  0  0  0
  148.8154  138.5784  155.2084 H   0  0  0  0  0  0  0  0  0  0  0  0
  147.2794  138.4299  154.3889 H   0  0  0  0  0  0  0  0  0  0  0  0
  149.5232  142.1011  154.1008 H   0  0  0  0  0  0  0  0  0  0  0  0
  150.1503  140.7670  155.0353 H   0  0  0  0  0  0  0  0  0  0  0  0
  146.6969  142.9879  156.4326 H   0  0  0  0  0  0  0  0  0  0  0  0
  147.4820  143.4237  154.9364 H   0  0  0  0  0  0  0  0  0  0  0  0
  1  2  2  0  0  0  0
  2  3  1  0  0  0  0
  2 14  1  0  0  0  0
  3  4  1  0  0  0  0
  3 25  1  0  0  0  0
  3 26  1  0  0  0  0
  4 12  1  0  0  0  0
  4  5  1  0  0  0  0
  5  6  2  0  0  0  0
  5 27  1  0  0  0  0
  6  7  1  0  0  0  0
  6 10  1  0  0  0  0
  7  8  2  0  0  0  0
  7  9  1  0  0  0  0
 10 11  2  0  0  0  0
 10 28  1  0  0  0  0
 11 12  1  0  0  0  0
 11 29  1  0  0  0  0
 12 13  2  0  0  0  0
 14 15  1  0  0  0  0
 14 30  1  0  0  0  0
 15 23  1  0  0  0  0
 15 24  1  0  0  0  0
 15 16  1  0  0  0  0
 16 17  1  0  0  0  0
 16 31  1  0  0  0  0
 16 32  1  0  0  0  0
 17 22  1  0  0  0  0
 17 18  1  0  0  0  0
 17 33  1  0  0  0  0
 18 19  1  0  0  0  0
 18 34  1  0  0  0  0
 18 35  1  0  0  0  0
 19 20  1  0  0  0  0
 19 24  1  0  0  0  0
 19 36  1  0  0  0  0
 20 21  1  0  0  0  0
 20 37  1  0  0  0  0
 20 38  1  0  0  0  0
 21 22  1  0  0  0  0
 21 23  1  0  0  0  0
 21 39  1  0  0  0  0
 22 40  1  0  0  0  0
 22 41  1  0  0  0  0
 23 42  1  0  0  0  0
 23 43  1  0  0  0  0
 24 44  1  0  0  0  0
 24 45  1  0  0  0  0
M  CHG  1   7   1
M  CHG  1   9  -1
M  END
> <s_m_source_file>
AV-unprocessed.smi

> <i_m_source_file_index>
1837

> <i_lp_mmshare_version>
43012

> <i_f3d_flags>
0

> <s_epik_input>
Tz1jMVtjSF1bY0hdYyhbTitdKD1PKVtPLV0pW2NIXW4xW0NIMl1DKD1PKVtOSF1DMjNbQ0gyXVtDQEhdNFtDSDJdW0NAQEhdKFtDSDJdMylbQ0gyXVtDQEhdKFtDSDJdNClbQ0gyXTI=

> <s_epik_cmdline>
J2VwaWtfcHl0aG9uJywgJy1waCcsICc3LjAnLCAnLXRuJywgJzgnLCAnLW1hJywgJzIwMCcsICctbWV0YWxfYmluZGluZycsICctaW1hZScsICc8aW5maWxlLm1hZT4nLCAnLW9tYWUnLCAnPG91dGZpbGUubWFlPic=

> <r_lp_tautomer_probability>
1

> <r_epik_Ionization_Penalty>
2.34466e-08

> <r_epik_Ionization_Penalty_Charging>
8.88262e-11

> <r_epik_Ionization_Penalty_Neutral>
2.33578e-08

> <r_epik_State_Penalty>
-0

> <r_epik_Charging_Adjusted_Penalty>
8.88262e-11

> <i_epik_Tot_Q>
0

> <i_epik_Tot_abs_Q>
2

> <r_epik_Metal_State_Penalty>
-0

> <b_epik_Metal_Only>
0

> <s_lp_Force_Field>
OPLS_2005

> <r_lp_Energy>
41.9783

> <b_lp_Chiralities_Consistent>
1

> <s_lp_Variant>
AV-unprocessed.smi:1837-1

> <Gold.Version>
5.8.1

> <Gold.Id.Protein>
6NUR|6NUR_protein|mol2

> <Gold.PLP.Fitness>
49.0261

> <Gold.PLP.PLP>
-44.4988

> <Gold.PLP.part.hbond>
-2.7653

> <Gold.PLP.part.metal>
0.0000

> <Gold.PLP.part.buried>
-0.2190

> <Gold.PLP.part.nonpolar>
-40.8440

> <Gold.PLP.part.repulsive>
0.2184

> <Gold.PLP.ligand.clash>
0.0000

> <Gold.PLP.ligand.torsion>
0.1451

> <Gold.PLP.Chemscore.Hbond>
1.6000

> <Gold.PLP.Chemscore.CHOScore>
0.0000

> <Gold.PLP.Chemscore.Metal>
0.0000

> <Gold.Chemscore.Hbonds>
donor molecule, donor type, donor heavy atom, donor atom, acceptor molecule, acceptor atom, score
      L1  H    14    30       P1  8028  0.50
      P1  H  7997  8009       L1     8  0.80

> <Gold.PLP.Chemscore.Internal.Correction>
0.0174

> <Gold.Rescore>
     Score         DG    S(hbond)    S(metal)    S(lipo)     H(rot)  DE(clash)    DE(int)     intcor
     16.79     -18.57       1.75        0.00      95.52       1.53       0.23       1.54       ----

> <Gold.Chemscore.Fitness>
16.7921

> <Gold.Chemscore.DG>
-18.5657

> <Gold.Chemscore.ZeroCoef>
-5.4800

> <Gold.Chemscore.Hbond>
1.7470

> <Gold.Chemscore.Metal>
0.0000

> <Gold.Chemscore.Lipo>
95.5193

> <Gold.Chemscore.Internal_Hbond>
0.0000

> <Gold.Chemscore.DEClash>
0.2289

> <Gold.Chemscore.DEInternal>
1.5447

> <Gold.Chemscore.Rot>
1.5332

> <Gold.Chemscore.Internal.Correction>
   9.000000E+99

> <Gold.Chemscore.Hbonds>
donor molecule, donor type, donor heavy atom, donor atom, acceptor molecule, acceptor atom, score
      L1  H    14    30       P1  8028  0.36
      P1  H  7997  8009       L1     8  0.76

> <Gold.Chemscore.Hbond.Weighted>
-5.8348

> <Gold.Chemscore.Metal.Weighted>
-0.0000

> <Gold.Chemscore.Lipo.Weighted>
-11.1758

> <Gold.Chemscore.Internal_Hbond.Weighted>
0.0000

> <Gold.Chemscore.DEClash.Weighted>
0.2289

> <Gold.Chemscore.DEInternal.Weighted>
1.5447

> <Gold.Chemscore.Rot.Weighted>
3.9249

> <Gold.Chemscore.Internal.Correction.Weighted>
   9.000000E+99

> <Gold.Protein.RotatedTorsions>
[ 6907 6896 6895 6894 ] final  -51.79 input  -60.11 | X-H torsion
[ 7974 7965 7964 7962 ] final -156.31 input  175.53 | X-H torsion
[ 8008 7997 7996 7995 ] final  117.20 input   59.86 | X-H torsion
[ 10167 10162 10161 10158 ] final   11.52 input  -65.29 | X-H torsion
[ 10718 10713 10712 10709 ] final   48.43 input   66.30 | X-H torsion
[ 10763 10752 10751 10750 ] final  -75.34 input  -60.55 | X-H torsion
[ 11005 11000 10999 10996 ] final   62.07 input  -57.11 | X-H torsion

> <Gold.Protein.ActiveResidues>
 VAL166  LYS551  ARG553  GLY616  TRP617  ASP618  TYR619  PRO620  LYS621  CYS622 
 ASP623  PHE694  ASN695  SER759  ASP760  ASP761  ALA762  ILE779  LEU786  VAL792 
 PHE793  MET794  SER795  GLU796  ALA797  LYS798  CYS799  TRP800  GLU811  SER814 

> <Gold.Protein.RotatedAtoms>
  150.8578  134.7922  159.7058 H   0  0  0  0  0  0  0  0  0  0  0  0  # atno 6907 bound_to 6896
  152.4624  134.5149  159.9775 H   0  0  0  0  0  0  0  0  0  0  0  0  # atno 6908 bound_to 6896
  151.5259  133.3420  159.2945 H   0  0  0  0  0  0  0  0  0  0  0  0  # atno 6909 bound_to 6896
  144.7599  140.4128  143.5984 H   0  0  0  0  0  0  0  0  0  0  0  0  # atno 7974 bound_to 7965
  156.2481  140.2901  156.0642 H   0  0  0  0  0  0  0  0  0  0  0  0  # atno 8008 bound_to 7997
  155.1742  140.0402  157.2886 H   0  0  0  0  0  0  0  0  0  0  0  0  # atno 8009 bound_to 7997
  154.6304  140.2498  155.7447 H   0  0  0  0  0  0  0  0  0  0  0  0  # atno 8010 bound_to 7997
  140.6126  143.8375  150.7083 H   0  0  0  0  0  0  0  0  0  0  0  0  # atno 10167 bound_to 10162
  157.4686  130.8241  149.7963 H   0  0  0  0  0  0  0  0  0  0  0  0  # atno 10718 bound_to 10713
  154.4852  135.5834  153.6419 H   0  0  0  0  0  0  0  0  0  0  0  0  # atno 10763 bound_to 10752
  152.9853  135.6099  154.3195 H   0  0  0  0  0  0  0  0  0  0  0  0  # atno 10764 bound_to 10752
  154.3090  135.2845  155.2554 H   0  0  0  0  0  0  0  0  0  0  0  0  # atno 10765 bound_to 10752
  140.0117  134.6286  155.9770 H   0  0  0  0  0  0  0  0  0  0  0  0  # atno 11005 bound_to 11000
  145.6654  139.1589  143.2785 LP  0  0  0  0  0  0  0  0  0  0  0  0  # atno 17320 bound_to 7965
  146.1651  140.6730  142.9259 LP  0  0  0  0  0  0  0  0  0  0  0  0  # atno 17321 bound_to 7965
  140.1947  143.4008  152.1837 LP  0  0  0  0  0  0  0  0  0  0  0  0  # atno 17342 bound_to 10162
  139.5373  144.7222  151.4849 LP  0  0  0  0  0  0  0  0  0  0  0  0  # atno 17343 bound_to 10162
  156.0062  130.3854  150.2422 LP  0  0  0  0  0  0  0  0  0  0  0  0  # atno 17370 bound_to 10713
  157.0604  131.0088  151.3224 LP  0  0  0  0  0  0  0  0  0  0  0  0  # atno 17371 bound_to 10713
  141.1715  133.6537  156.4671 LP  0  0  0  0  0  0  0  0  0  0  0  0  # atno 17394 bound_to 11000
  140.4542  134.6900  157.5054 LP  0  0  0  0  0  0  0  0  0  0  0  0  # atno 17395 bound_to 11000

$$$$
