AV-unprocessed.smi:2390|AV-procd|sdf|9476|dock5
  -GOLD-   2272013103D 1   1.00000     0.00000
 Structure written by MMmdl.
 45 46  0  0  0  0  0  0  0  0  1 V2000
  144.1517  133.0234  149.1942 C   0  0  0  0  0  0  0  0  0  0  0  0
  144.9173  132.5224  150.4006 C   0  0  0  0  0  0  0  0  0  0  0  0
  144.7736  131.1954  150.8513 C   0  0  0  0  0  0  0  0  0  0  0  0
  145.5141  130.7941  151.9775 C   0  0  0  0  0  0  0  0  0  0  0  0
  146.3620  131.7292  152.6021 C   0  0  0  0  0  0  0  0  0  0  0  0
  146.4473  133.0426  152.0878 C   0  0  0  0  0  0  0  0  0  0  0  0
  147.3301  133.9074  152.7875 N   0  0  0  0  0  0  0  0  0  0  0  0
  147.6678  133.8740  154.0886 C   0  0  0  0  0  0  0  0  0  0  0  0
  147.2703  133.0424  154.9053 O   0  0  0  0  0  0  0  0  0  0  0  0
  148.5029  134.8772  154.3964 N   0  0  0  0  0  0  0  0  0  0  0  0
  149.0341  135.1713  155.7276 C   0  0  1  0  0  0  0  0  0  0  0  0
  150.4944  134.6923  155.8202 C   0  0  0  0  0  0  0  0  0  0  0  0
  148.8175  136.6752  156.0872 C   0  0  1  0  0  0  0  0  0  0  0  0
  149.2308  136.9286  157.5600 C   0  0  0  0  0  0  0  0  0  0  0  0
  149.4727  137.6160  155.1431 N   0  0  0  0  0  0  0  0  0  0  0  0
  150.9357  137.6073  155.2594 C   0  0  0  0  0  0  0  0  0  0  0  0
  151.6193  138.5894  154.2923 C   0  0  0  0  0  0  0  0  0  0  0  0
  151.1195  139.9016  154.5081 O   0  0  0  0  0  0  0  0  0  0  0  0
  149.7124  139.9712  154.3264 C   0  0  0  0  0  0  0  0  0  0  0  0
  149.0156  139.0026  155.2970 C   0  0  0  0  0  0  0  0  0  0  0  0
  145.7284  133.4199  151.0010 N   0  0  0  0  0  0  0  0  0  0  0  0
  143.6377  132.2074  148.6856 H   0  0  0  0  0  0  0  0  0  0  0  0
  144.8295  133.4940  148.4812 H   0  0  0  0  0  0  0  0  0  0  0  0
  143.4070  133.7594  149.4983 H   0  0  0  0  0  0  0  0  0  0  0  0
  144.1148  130.5020  150.3493 H   0  0  0  0  0  0  0  0  0  0  0  0
  145.4344  129.7857  152.3560 H   0  0  0  0  0  0  0  0  0  0  0  0
  146.9392  131.4364  153.4673 H   0  0  0  0  0  0  0  0  0  0  0  0
  147.7416  134.6461  152.2367 H   0  0  0  0  0  0  0  0  0  0  0  0
  148.7714  135.5108  153.6579 H   0  0  0  0  0  0  0  0  0  0  0  0
  148.5216  134.5674  156.4749 H   0  0  0  0  0  0  0  0  0  0  0  0
  150.9463  134.9867  156.7678 H   0  0  0  0  0  0  0  0  0  0  0  0
  151.1137  135.0825  155.0130 H   0  0  0  0  0  0  0  0  0  0  0  0
  150.5450  133.6047  155.7591 H   0  0  0  0  0  0  0  0  0  0  0  0
  147.7422  136.8519  156.0319 H   0  0  0  0  0  0  0  0  0  0  0  0
  148.7797  136.2154  158.2469 H   0  0  0  0  0  0  0  0  0  0  0  0
  148.9014  137.9028  157.9179 H   0  0  0  0  0  0  0  0  0  0  0  0
  150.3122  136.8731  157.6883 H   0  0  0  0  0  0  0  0  0  0  0  0
  151.2263  137.8468  156.2835 H   0  0  0  0  0  0  0  0  0  0  0  0
  151.3341  136.6187  155.0391 H   0  0  0  0  0  0  0  0  0  0  0  0
  152.6975  138.5897  154.4528 H   0  0  0  0  0  0  0  0  0  0  0  0
  151.4501  138.2928  153.2559 H   0  0  0  0  0  0  0  0  0  0  0  0
  149.3803  140.9932  154.5082 H   0  0  0  0  0  0  0  0  0  0  0  0
  149.4577  139.7305  153.2929 H   0  0  0  0  0  0  0  0  0  0  0  0
  147.9488  139.0831  155.1009 H   0  0  0  0  0  0  0  0  0  0  0  0
  149.1777  139.3351  156.3232 H   0  0  0  0  0  0  0  0  0  0  0  0
  1  2  1  0  0  0  0
  1 22  1  0  0  0  0
  1 23  1  0  0  0  0
  1 24  1  0  0  0  0
  2 21  1  0  0  0  0
  2  3  2  0  0  0  0
  3  4  1  0  0  0  0
  3 25  1  0  0  0  0
  4  5  2  0  0  0  0
  4 26  1  0  0  0  0
  5  6  1  0  0  0  0
  5 27  1  0  0  0  0
  6  7  1  0  0  0  0
  6 21  2  0  0  0  0
  7  8  1  0  0  0  0
  7 28  1  0  0  0  0
  8  9  2  0  0  0  0
  8 10  1  0  0  0  0
 10 11  1  0  0  0  0
 10 29  1  0  0  0  0
 11 12  1  0  0  0  0
 11 13  1  0  0  0  0
 11 30  1  0  0  0  0
 12 31  1  0  0  0  0
 12 32  1  0  0  0  0
 12 33  1  0  0  0  0
 13 14  1  0  0  0  0
 13 15  1  0  0  0  0
 13 34  1  0  0  0  0
 14 35  1  0  0  0  0
 14 36  1  0  0  0  0
 14 37  1  0  0  0  0
 15 20  1  0  0  0  0
 15 16  1  0  0  0  0
 16 17  1  0  0  0  0
 16 38  1  0  0  0  0
 16 39  1  0  0  0  0
 17 18  1  0  0  0  0
 17 40  1  0  0  0  0
 17 41  1  0  0  0  0
 18 19  1  0  0  0  0
 19 20  1  0  0  0  0
 19 42  1  0  0  0  0
 19 43  1  0  0  0  0
 20 44  1  0  0  0  0
 20 45  1  0  0  0  0
M  END
> <s_m_source_file>
AV-unprocessed.smi

> <i_m_source_file_index>
2390

> <i_lp_mmshare_version>
43012

> <i_f3d_flags>
0

> <s_epik_input>
W0NIM11jMVtjSF1bY0hdW2NIXWMobjEpW05IXUMoPU8pW05IXVtDQEhdKFtDSDNdKVtDQEhdKFtDSDNdKU4yW0NIMl1bQ0gyXU9bQ0gyXVtDSDJdMg==

> <s_epik_cmdline>
J2VwaWtfcHl0aG9uJywgJy1waCcsICc3LjAnLCAnLXRuJywgJzgnLCAnLW1hJywgJzIwMCcsICctbWV0YWxfYmluZGluZycsICctaW1hZScsICc8aW5maWxlLm1hZT4nLCAnLW9tYWUnLCAnPG91dGZpbGUubWFlPic=

> <r_epik_Ionization_Penalty>
0.266074

> <r_epik_Ionization_Penalty_Charging>
0

> <r_epik_Ionization_Penalty_Neutral>
0.266074

> <r_epik_State_Penalty>
0.257924

> <r_epik_Charging_Adjusted_Penalty>
0.257924

> <i_epik_Tot_Q>
0

> <i_epik_Tot_abs_Q>
0

> <r_epik_Metal_State_Penalty>
0.257919

> <b_epik_Metal_Only>
0

> <s_lp_Force_Field>
OPLS_2005

> <r_lp_Energy>
36.7319

> <b_lp_Chiralities_Consistent>
1

> <s_lp_Variant>
AV-unprocessed.smi:2390-4

> <Gold.Version>
5.8.1

> <Gold.Id.Protein>
6NUR|6NUR_protein|mol2

> <Gold.PLP.Fitness>
40.0348

> <Gold.PLP.PLP>
-31.8130

> <Gold.PLP.part.hbond>
-3.0000

> <Gold.PLP.part.metal>
0.0000

> <Gold.PLP.part.buried>
-6.4866

> <Gold.PLP.part.nonpolar>
-23.0211

> <Gold.PLP.part.repulsive>
0.3404

> <Gold.PLP.ligand.clash>
0.0000

> <Gold.PLP.ligand.torsion>
0.4410

> <Gold.PLP.Chemscore.Hbond>
3.0000

> <Gold.PLP.Chemscore.CHOScore>
0.0000

> <Gold.PLP.Chemscore.Metal>
0.0000

> <Gold.Chemscore.Hbonds>
donor molecule, donor type, donor heavy atom, donor atom, acceptor molecule, acceptor atom, score
      L1  H     7    28       P1  7948  1.00
      L1  H    10    29       P1  7948  1.00
      P1  H  7989  7998       L1    18  0.89

> <Gold.PLP.Chemscore.Internal.Correction>
0.1038

> <Gold.Rescore>
     Score         DG    S(hbond)    S(metal)    S(lipo)     H(rot)  DE(clash)    DE(int)     intcor
     15.48     -18.90       2.19        0.00      83.71       1.44       0.80       2.63       ----

> <Gold.Chemscore.Fitness>
15.4791

> <Gold.Chemscore.DG>
-18.9034

> <Gold.Chemscore.ZeroCoef>
-5.4800

> <Gold.Chemscore.Hbond>
2.1901

> <Gold.Chemscore.Metal>
0.0000

> <Gold.Chemscore.Lipo>
83.7088

> <Gold.Chemscore.Internal_Hbond>
0.0000

> <Gold.Chemscore.DEClash>
0.7977

> <Gold.Chemscore.DEInternal>
2.6265

> <Gold.Chemscore.Rot>
1.4396

> <Gold.Chemscore.Internal.Correction>
   9.000000E+99

> <Gold.Chemscore.Hbonds>
donor molecule, donor type, donor heavy atom, donor atom, acceptor molecule, acceptor atom, score
      L1  H     7    28       P1  7948  0.63
      L1  H    10    29       P1  7948  0.92
      P1  H  7989  7998       L1    18  0.28

> <Gold.Chemscore.Hbond.Weighted>
-7.3149

> <Gold.Chemscore.Metal.Weighted>
-0.0000

> <Gold.Chemscore.Lipo.Weighted>
-9.7939

> <Gold.Chemscore.Internal_Hbond.Weighted>
0.0000

> <Gold.Chemscore.DEClash.Weighted>
0.7977

> <Gold.Chemscore.DEInternal.Weighted>
2.6265

> <Gold.Chemscore.Rot.Weighted>
3.6855

> <Gold.Chemscore.Internal.Correction.Weighted>
   9.000000E+99

> <Gold.Protein.RotatedTorsions>
[ 6907 6896 6895 6894 ] final   86.62 input  -60.11 | X-H torsion
[ 7974 7965 7964 7962 ] final  137.02 input  175.53 | X-H torsion
[ 8008 7997 7996 7995 ] final  125.11 input   59.86 | X-H torsion
[ 10167 10162 10161 10158 ] final   69.49 input  -65.29 | X-H torsion
[ 10718 10713 10712 10709 ] final -128.90 input   66.30 | X-H torsion
[ 10763 10752 10751 10750 ] final -157.67 input  -60.55 | X-H torsion
[ 11005 11000 10999 10996 ] final   95.82 input  -57.11 | X-H torsion

> <Gold.Protein.ActiveResidues>
 VAL166  LYS551  ARG553  GLY616  TRP617  ASP618  TYR619  PRO620  LYS621  CYS622 
 ASP623  PHE694  ASN695  SER759  ASP760  ASP761  ALA762  ILE779  LEU786  VAL792 
 PHE793  MET794  SER795  GLU796  ALA797  LYS798  CYS799  TRP800  GLU811  SER814 

> <Gold.Protein.RotatedAtoms>
  152.5397  134.2404  159.8859 H   0  0  0  0  0  0  0  0  0  0  0  0  # atno 6907 bound_to 6896
  151.2371  133.4412  159.2613 H   0  0  0  0  0  0  0  0  0  0  0  0  # atno 6908 bound_to 6896
  151.0661  134.9782  159.8341 H   0  0  0  0  0  0  0  0  0  0  0  0  # atno 6909 bound_to 6896
  144.9508  139.4821  143.5527 H   0  0  0  0  0  0  0  0  0  0  0  0  # atno 7974 bound_to 7965
  156.2823  140.2724  156.1896 H   0  0  0  0  0  0  0  0  0  0  0  0  # atno 8008 bound_to 7997
  155.0472  140.0386  157.2549 H   0  0  0  0  0  0  0  0  0  0  0  0  # atno 8009 bound_to 7997
  154.7225  140.2690  155.6534 H   0  0  0  0  0  0  0  0  0  0  0  0  # atno 8010 bound_to 7997
  140.0672  144.5183  150.7252 H   0  0  0  0  0  0  0  0  0  0  0  0  # atno 10167 bound_to 10162
  156.1995  130.6848  151.0522 H   0  0  0  0  0  0  0  0  0  0  0  0  # atno 10718 bound_to 10713
  154.7617  135.3119  154.8365 H   0  0  0  0  0  0  0  0  0  0  0  0  # atno 10763 bound_to 10752
  153.9124  135.6804  153.4754 H   0  0  0  0  0  0  0  0  0  0  0  0  # atno 10764 bound_to 10752
  153.1219  135.4819  154.9140 H   0  0  0  0  0  0  0  0  0  0  0  0  # atno 10765 bound_to 10752
  139.8786  134.8919  156.4067 H   0  0  0  0  0  0  0  0  0  0  0  0  # atno 11005 bound_to 11000
  146.3320  139.8592  142.8859 LP  0  0  0  0  0  0  0  0  0  0  0  0  # atno 17320 bound_to 7965
  145.2847  141.0149  143.3697 LP  0  0  0  0  0  0  0  0  0  0  0  0  # atno 17321 bound_to 7965
  140.7143  143.2531  151.4483 LP  0  0  0  0  0  0  0  0  0  0  0  0  # atno 17342 bound_to 10162
  139.5858  144.1609  152.2026 LP  0  0  0  0  0  0  0  0  0  0  0  0  # atno 17343 bound_to 10162
  157.6977  131.0788  150.6917 LP  0  0  0  0  0  0  0  0  0  0  0  0  # atno 17370 bound_to 10713
  156.6975  130.4613  149.5582 LP  0  0  0  0  0  0  0  0  0  0  0  0  # atno 17371 bound_to 10713
  140.9229  133.7632  155.9928 LP  0  0  0  0  0  0  0  0  0  0  0  0  # atno 17394 bound_to 11000
  140.8419  134.3056  157.5310 LP  0  0  0  0  0  0  0  0  0  0  0  0  # atno 17395 bound_to 11000

$$$$
