AV-unprocessed.smi:1015|AV-procd|sdf|4434|dock1
  -GOLD-   22720 2393D 1   1.00000     0.00000
 Structure written by MMmdl.
 43 44  0  0  0  0  0  0  0  0  2 V2000
  144.0158  133.1655  150.6571 C   0  0  0  0  0  0  0  0  0  0  0  0
  144.6820  133.5031  151.8612 O   0  0  0  0  0  0  0  0  0  0  0  0
  145.9489  134.0978  151.6342 C   0  0  0  0  0  0  0  0  0  0  0  0
  145.7486  135.4203  150.8778 C   0  0  0  0  0  0  0  0  0  0  0  0
  146.3049  136.5849  151.6130 N   0  3  2  0  0  0  0  0  0  0  0  0
  145.7882  136.6734  153.0022 C   0  0  0  0  0  0  0  0  0  0  0  0
  146.4909  137.7931  153.7874 C   0  0  0  0  0  0  0  0  0  0  0  0
  146.3521  139.1567  153.0795 C   0  0  1  0  0  0  0  0  0  0  0  0
  147.0893  140.3007  153.8077 C   0  0  0  0  0  0  0  0  0  0  0  0
  148.5381  140.1473  153.7350 N   0  0  0  0  0  0  0  0  0  0  0  0
  149.3500  139.9028  154.7758 C   0  0  0  0  0  0  0  0  0  0  0  0
  148.9496  139.7038  155.9223 O   0  0  0  0  0  0  0  0  0  0  0  0
  150.8494  139.9293  154.4847 C   0  0  0  0  0  0  0  0  0  0  0  0
  151.4648  138.6872  154.9120 N   0  0  0  0  0  0  0  0  0  0  0  0
  151.2191  137.4224  154.5648 C   0  0  0  0  0  0  0  0  0  0  0  0
  151.9922  136.5750  155.2266 N   0  0  0  0  0  0  0  0  0  0  0  0
  152.7576  137.4062  156.0273 N   0  0  0  0  0  0  0  0  0  0  0  0
  152.4483  138.6607  155.8460 N   0  0  0  0  0  0  0  0  0  0  0  0
  146.8502  139.0181  151.6303 C   0  0  0  0  0  0  0  0  0  0  0  0
  146.1366  137.8737  150.8918 C   0  0  0  0  0  0  0  0  0  0  0  0
  143.0538  132.7076  150.8869 H   0  0  0  0  0  0  0  0  0  0  0  0
  144.5967  132.4513  150.0723 H   0  0  0  0  0  0  0  0  0  0  0  0
  143.8301  134.0500  150.0464 H   0  0  0  0  0  0  0  0  0  0  0  0
  146.4786  134.2488  152.5748 H   0  0  0  0  0  0  0  0  0  0  0  0
  146.5607  133.4263  151.0299 H   0  0  0  0  0  0  0  0  0  0  0  0
  146.1982  135.3646  149.8855 H   0  0  0  0  0  0  0  0  0  0  0  0
  144.6780  135.5585  150.7210 H   0  0  0  0  0  0  0  0  0  0  0  0
  144.7106  136.8455  152.9824 H   0  0  0  0  0  0  0  0  0  0  0  0
  145.9481  135.7251  153.5169 H   0  0  0  0  0  0  0  0  0  0  0  0
  146.0640  137.8371  154.7897 H   0  0  0  0  0  0  0  0  0  0  0  0
  147.5464  137.5470  153.9116 H   0  0  0  0  0  0  0  0  0  0  0  0
  145.2913  139.4114  153.0466 H   0  0  0  0  0  0  0  0  0  0  0  0
  146.7749  141.2690  153.4142 H   0  0  0  0  0  0  0  0  0  0  0  0
  146.8143  140.3005  154.8629 H   0  0  0  0  0  0  0  0  0  0  0  0
  148.9638  140.2943  152.8311 H   0  0  0  0  0  0  0  0  0  0  0  0
  151.0226  140.0593  153.4156 H   0  0  0  0  0  0  0  0  0  0  0  0
  151.3239  140.7681  154.9966 H   0  0  0  0  0  0  0  0  0  0  0  0
  150.4733  137.1250  153.8425 H   0  0  0  0  0  0  0  0  0  0  0  0
  146.6917  139.9529  151.0914 H   0  0  0  0  0  0  0  0  0  0  0  0
  147.9263  138.8380  151.6243 H   0  0  0  0  0  0  0  0  0  0  0  0
  146.5414  137.8016  149.8833 H   0  0  0  0  0  0  0  0  0  0  0  0
  145.0740  138.0997  150.7888 H   0  0  0  0  0  0  0  0  0  0  0  0
  147.2980  136.4179  151.6949 H   0  0  0  0  0  0  0  0  0  0  0  0
  1  2  1  0  0  0  0
  1 21  1  0  0  0  0
  1 22  1  0  0  0  0
  1 23  1  0  0  0  0
  2  3  1  0  0  0  0
  3  4  1  0  0  0  0
  3 24  1  0  0  0  0
  3 25  1  0  0  0  0
  4  5  1  0  0  0  0
  4 26  1  0  0  0  0
  4 27  1  0  0  0  0
  5 20  1  0  0  0  0
  5  6  1  0  0  0  0
  5 43  1  0  0  0  0
  6  7  1  0  0  0  0
  6 28  1  0  0  0  0
  6 29  1  0  0  0  0
  7  8  1  0  0  0  0
  7 30  1  0  0  0  0
  7 31  1  0  0  0  0
  8  9  1  0  0  0  0
  8 19  1  0  0  0  0
  8 32  1  0  0  0  0
  9 10  1  0  0  0  0
  9 33  1  0  0  0  0
  9 34  1  0  0  0  0
 10 11  1  0  0  0  0
 10 35  1  0  0  0  0
 11 12  2  0  0  0  0
 11 13  1  0  0  0  0
 13 14  1  0  0  0  0
 13 36  1  0  0  0  0
 13 37  1  0  0  0  0
 14 18  1  0  0  0  0
 14 15  1  0  0  0  0
 15 16  2  0  0  0  0
 15 38  1  0  0  0  0
 16 17  1  0  0  0  0
 17 18  2  0  0  0  0
 19 20  1  0  0  0  0
 19 39  1  0  0  0  0
 19 40  1  0  0  0  0
 20 41  1  0  0  0  0
 20 42  1  0  0  0  0
M  CHG  1   5   1
M  END
> <s_m_source_file>
AV-unprocessed.smi

> <i_m_source_file_index>
1015

> <i_lp_mmshare_version>
43012

> <i_f3d_flags>
0

> <s_epik_input>
W0NIM11PW0NIMl1bQ0gyXU4xW0NIMl1bQ0gyXVtDSF0oW0NIMl1bQ0gyXTEpW0NIMl1bTkhdQyg9TylbQ0gyXW4yW2NIXW5ubjI=

> <s_epik_cmdline>
J2VwaWtfcHl0aG9uJywgJy1waCcsICc3LjAnLCAnLXRuJywgJzgnLCAnLW1hJywgJzIwMCcsICctbWV0YWxfYmluZGluZycsICctaW1hZScsICc8aW5maWxlLm1hZT4nLCAnLW9tYWUnLCAnPG91dGZpbGUubWFlPic=

> <r_lp_tautomer_probability>
1

> <r_epik_Ionization_Penalty>
0.0104119

> <r_epik_Ionization_Penalty_Charging>
0.0104107

> <r_epik_Ionization_Penalty_Neutral>
1.19574e-06

> <r_epik_State_Penalty>
0.00795975

> <r_epik_Charging_Adjusted_Penalty>
0.0183705

> <i_epik_Tot_Q>
1

> <i_epik_Tot_abs_Q>
1

> <r_epik_Metal_State_Penalty>
0.00795975

> <b_epik_Metal_Only>
0

> <s_lp_Force_Field>
OPLS_2005

> <r_lp_Energy>
21.2096

> <b_lp_Chiralities_Consistent>
1

> <s_lp_Variant>
AV-unprocessed.smi:1015-1

> <Gold.Version>
5.8.1

> <Gold.Id.Protein>
6NUR|6NUR_protein|mol2

> <Gold.PLP.Fitness>
44.4026

> <Gold.PLP.PLP>
-29.4539

> <Gold.PLP.part.hbond>
-3.9033

> <Gold.PLP.part.metal>
0.0000

> <Gold.PLP.part.buried>
6.0281

> <Gold.PLP.part.nonpolar>
-31.2301

> <Gold.PLP.part.repulsive>
0.3795

> <Gold.PLP.ligand.clash>
0.0000

> <Gold.PLP.ligand.torsion>
0.4602

> <Gold.PLP.Chemscore.Hbond>
4.3650

> <Gold.PLP.Chemscore.CHOScore>
0.8579

> <Gold.PLP.Chemscore.Metal>
0.0000

> <Gold.Chemscore.Hbonds>
donor molecule, donor type, donor heavy atom, donor atom, acceptor molecule, acceptor atom, score
      L1  H     5    43       P1  7948  2.00
      L1  H    10    35       P1  7957  1.00
      P1  H 10752 10765       L1    16  0.89
      L1  C    15    38       P1  7948  0.62
      L1  C    15    38       P1  7949  0.25

> <Gold.PLP.Chemscore.Internal.Correction>
0.2005

> <Gold.Rescore>
     Score         DG    S(hbond)    S(metal)    S(lipo)     H(rot)  DE(clash)    DE(int)     intcor
     11.59     -14.99       2.91        0.00      68.16       3.19       2.85       0.55       ----

> <Gold.Chemscore.Fitness>
11.5883

> <Gold.Chemscore.DG>
-14.9856

> <Gold.Chemscore.ZeroCoef>
-5.4800

> <Gold.Chemscore.Hbond>
2.9056

> <Gold.Chemscore.Metal>
0.0000

> <Gold.Chemscore.Lipo>
68.1602

> <Gold.Chemscore.Internal_Hbond>
0.0000

> <Gold.Chemscore.DEClash>
2.8491

> <Gold.Chemscore.DEInternal>
0.5483

> <Gold.Chemscore.Rot>
3.1928

> <Gold.Chemscore.Internal.Correction>
   9.000000E+99

> <Gold.Chemscore.Hbonds>
donor molecule, donor type, donor heavy atom, donor atom, acceptor molecule, acceptor atom, score
      L1  H     5    43       P1  7948  1.00
      L1  H    10    35       P1  7957  1.00
      P1  H  7997  8009       L1    18  0.06
      P1  H 10752 10765       L1    16  0.43

> <Gold.Chemscore.Hbond.Weighted>
-9.7045

> <Gold.Chemscore.Metal.Weighted>
-0.0000

> <Gold.Chemscore.Lipo.Weighted>
-7.9747

> <Gold.Chemscore.Internal_Hbond.Weighted>
0.0000

> <Gold.Chemscore.DEClash.Weighted>
2.8491

> <Gold.Chemscore.DEInternal.Weighted>
0.5483

> <Gold.Chemscore.Rot.Weighted>
8.1737

> <Gold.Chemscore.Internal.Correction.Weighted>
   9.000000E+99

> <Gold.Protein.RotatedTorsions>
[ 6907 6896 6895 6894 ] final -122.97 input  -60.11 | X-H torsion
[ 7974 7965 7964 7962 ] final   70.15 input  175.53 | X-H torsion
[ 8008 7997 7996 7995 ] final -155.59 input   59.86 | X-H torsion
[ 10167 10162 10161 10158 ] final   72.58 input  -65.29 | X-H torsion
[ 10718 10713 10712 10709 ] final -113.87 input   66.30 | X-H torsion
[ 10763 10752 10751 10750 ] final -176.23 input  -60.55 | X-H torsion
[ 11005 11000 10999 10996 ] final -133.44 input  -57.11 | X-H torsion

> <Gold.Protein.ActiveResidues>
 VAL166  LYS551  ARG553  GLY616  TRP617  ASP618  TYR619  PRO620  LYS621  CYS622 
 ASP623  PHE694  ASN695  SER759  ASP760  ASP761  ALA762  ILE779  LEU786  VAL792 
 PHE793  MET794  SER795  GLU796  ALA797  LYS798  CYS799  TRP800  GLU811  SER814 

> <Gold.Protein.RotatedAtoms>
  150.8627  133.7620  159.2986 H   0  0  0  0  0  0  0  0  0  0  0  0  # atno 6907 bound_to 6896
  151.5258  135.1066  159.9899 H   0  0  0  0  0  0  0  0  0  0  0  0  # atno 6908 bound_to 6896
  152.4638  133.7834  159.6919 H   0  0  0  0  0  0  0  0  0  0  0  0  # atno 6909 bound_to 6896
  145.7817  139.2891  143.1262 H   0  0  0  0  0  0  0  0  0  0  0  0  # atno 7974 bound_to 7965
  155.7041  140.0770  157.2398 H   0  0  0  0  0  0  0  0  0  0  0  0  # atno 8008 bound_to 7997
  154.4068  140.1642  156.2277 H   0  0  0  0  0  0  0  0  0  0  0  0  # atno 8009 bound_to 7997
  155.9341  140.3389  155.6276 H   0  0  0  0  0  0  0  0  0  0  0  0  # atno 8010 bound_to 7997
  140.0337  144.5445  150.7487 H   0  0  0  0  0  0  0  0  0  0  0  0  # atno 10167 bound_to 10162
  156.0794  130.5996  150.8700 H   0  0  0  0  0  0  0  0  0  0  0  0  # atno 10718 bound_to 10713
  154.5748  135.2831  155.0791 H   0  0  0  0  0  0  0  0  0  0  0  0  # atno 10763 bound_to 10752
  154.2150  135.6401  153.5131 H   0  0  0  0  0  0  0  0  0  0  0  0  # atno 10764 bound_to 10752
  153.0069  135.5501  154.6383 H   0  0  0  0  0  0  0  0  0  0  0  0  # atno 10765 bound_to 10752
  140.9081  134.1604  157.4410 H   0  0  0  0  0  0  0  0  0  0  0  0  # atno 11005 bound_to 11000
  146.0067  140.8472  142.9991 LP  0  0  0  0  0  0  0  0  0  0  0  0  # atno 17320 bound_to 7965
  144.6795  140.2431  143.7341 LP  0  0  0  0  0  0  0  0  0  0  0  0  # atno 17321 bound_to 7965
  140.7291  143.2668  151.4017 LP  0  0  0  0  0  0  0  0  0  0  0  0  # atno 17342 bound_to 10162
  139.6059  144.1198  152.2248 LP  0  0  0  0  0  0  0  0  0  0  0  0  # atno 17343 bound_to 10162
  157.5904  131.0944  150.9128 LP  0  0  0  0  0  0  0  0  0  0  0  0  # atno 17370 bound_to 10713
  156.9305  130.5348  149.5279 LP  0  0  0  0  0  0  0  0  0  0  0  0  # atno 17371 bound_to 10713
  139.8753  134.9925  156.5598 LP  0  0  0  0  0  0  0  0  0  0  0  0  # atno 17394 bound_to 11000
  140.8145  133.8402  155.8840 LP  0  0  0  0  0  0  0  0  0  0  0  0  # atno 17395 bound_to 11000

$$$$
