AV-unprocessed.smi:1880|AV-procd|sdf|7636|dock4
  -GOLD-   22720 9363D 1   1.00000     0.00000
 Structure written by MMmdl.
 36 38  0  0  0  0  0  0  0  0  1 V2000
  149.8013  141.0810  153.8142 O   0  0  0  0  0  0  0  0  0  0  0  0
  149.8744  141.0752  155.2266 C   0  0  1  0  0  0  0  0  0  0  0  0
  148.4628  140.8354  155.7839 C   0  0  0  0  0  0  0  0  0  0  0  0
  147.6505  141.9582  155.4839 O   0  0  0  0  0  0  0  0  0  0  0  0
  146.2680  141.6468  155.4816 C   0  0  0  0  0  0  0  0  0  0  0  0
  145.5653  142.8326  154.9137 C   0  0  0  0  0  0  0  0  0  0  0  0
  145.6711  143.5122  153.7317 C   0  0  0  0  0  0  0  0  0  0  0  0
  144.7141  144.5630  153.7863 C   0  0  0  0  0  0  0  0  0  0  0  0
  144.0955  144.4458  154.9985 C   0  0  0  0  0  0  0  0  0  0  0  0
  144.6030  143.3947  155.6985 O   0  0  0  0  0  0  0  0  0  0  0  0
  150.8628  139.9810  155.6748 C   0  0  0  0  0  0  0  0  0  0  0  0
  151.3045  140.1571  157.0472 N   0  0  0  0  0  0  0  0  0  0  0  0
  151.6637  139.1887  157.9114 C   0  0  0  0  0  0  0  0  0  0  0  0
  152.0398  139.5673  159.1295 N   0  0  0  0  0  0  0  0  0  0  0  0
  151.9088  140.9430  159.0474 C   0  0  0  0  0  0  0  0  0  0  0  0
  152.1534  141.9465  160.0118 C   0  0  0  0  0  0  0  0  0  0  0  0
  151.9454  143.3059  159.6979 C   0  0  0  0  0  0  0  0  0  0  0  0
  152.1849  144.2549  160.6338 F   0  0  0  0  0  0  0  0  0  0  0  0
  151.4903  143.6816  158.4165 C   0  0  0  0  0  0  0  0  0  0  0  0
  151.2928  144.9888  158.1237 F   0  0  0  0  0  0  0  0  0  0  0  0
  151.2406  142.6994  157.4390 C   0  0  0  0  0  0  0  0  0  0  0  0
  151.4500  141.3446  157.7565 C   0  0  0  0  0  0  0  0  0  0  0  0
  149.1355  140.4648  153.5481 H   0  0  0  0  0  0  0  0  0  0  0  0
  150.2415  142.0449  155.5662 H   0  0  0  0  0  0  0  0  0  0  0  0
  148.0327  139.9134  155.3880 H   0  0  0  0  0  0  0  0  0  0  0  0
  148.5103  140.7292  156.8689 H   0  0  0  0  0  0  0  0  0  0  0  0
  146.0730  140.7613  154.8748 H   0  0  0  0  0  0  0  0  0  0  0  0
  145.9153  141.4472  156.4944 H   0  0  0  0  0  0  0  0  0  0  0  0
  146.3525  143.2803  152.9268 H   0  0  0  0  0  0  0  0  0  0  0  0
  144.5046  145.3093  153.0342 H   0  0  0  0  0  0  0  0  0  0  0  0
  143.3124  144.9975  155.4972 H   0  0  0  0  0  0  0  0  0  0  0  0
  150.3973  138.9979  155.5941 H   0  0  0  0  0  0  0  0  0  0  0  0
  151.7378  139.9638  155.0236 H   0  0  0  0  0  0  0  0  0  0  0  0
  151.6473  138.1459  157.6296 H   0  0  0  0  0  0  0  0  0  0  0  0
  152.5016  141.6705  160.9960 H   0  0  0  0  0  0  0  0  0  0  0  0
  150.8898  142.9835  156.4581 H   0  0  0  0  0  0  0  0  0  0  0  0
  1  2  1  0  0  0  0
  1 23  1  0  0  0  0
  2  3  1  0  0  0  0
  2 11  1  0  0  0  0
  2 24  1  0  0  0  0
  3  4  1  0  0  0  0
  3 25  1  0  0  0  0
  3 26  1  0  0  0  0
  4  5  1  0  0  0  0
  5  6  1  0  0  0  0
  5 27  1  0  0  0  0
  5 28  1  0  0  0  0
  6 10  1  0  0  0  0
  6  7  2  0  0  0  0
  7  8  1  0  0  0  0
  7 29  1  0  0  0  0
  8  9  2  0  0  0  0
  8 30  1  0  0  0  0
  9 10  1  0  0  0  0
  9 31  1  0  0  0  0
 11 12  1  0  0  0  0
 11 32  1  0  0  0  0
 11 33  1  0  0  0  0
 12 22  1  0  0  0  0
 12 13  1  0  0  0  0
 13 14  2  0  0  0  0
 13 34  1  0  0  0  0
 14 15  1  0  0  0  0
 15 22  2  0  0  0  0
 15 16  1  0  0  0  0
 16 17  2  0  0  0  0
 16 35  1  0  0  0  0
 17 18  1  0  0  0  0
 17 19  1  0  0  0  0
 19 20  1  0  0  0  0
 19 21  2  0  0  0  0
 21 22  1  0  0  0  0
 21 36  1  0  0  0  0
M  END
> <s_m_source_file>
AV-unprocessed.smi

> <i_m_source_file_index>
1880

> <i_lp_mmshare_version>
43012

> <i_f3d_flags>
0

> <s_epik_input>
W2NIXTFjKEYpYyhGKVtjSF1jKGMxMiluKFtjSF1uMilbQ0gyXVtDQEhdKFtPSF0pW0NIMl1PW0NIMl1jM1tjSF1bY0hdW2NIXW8z

> <s_epik_cmdline>
J2VwaWtfcHl0aG9uJywgJy1waCcsICc3LjAnLCAnLXRuJywgJzgnLCAnLW1hJywgJzIwMCcsICctbWV0YWxfYmluZGluZycsICctaW1hZScsICc8aW5maWxlLm1hZT4nLCAnLW9tYWUnLCAnPG91dGZpbGUubWFlPic=

> <r_epik_Ionization_Penalty>
0.0152348

> <r_epik_Ionization_Penalty_Charging>
0

> <r_epik_Ionization_Penalty_Neutral>
0.0152348

> <r_epik_State_Penalty>
0.0119607

> <r_epik_Charging_Adjusted_Penalty>
0.0119607

> <i_epik_Tot_Q>
0

> <i_epik_Tot_abs_Q>
0

> <r_epik_Metal_State_Penalty>
1.20821e-05

> <b_epik_Metal_Only>
0

> <s_lp_Force_Field>
OPLS_2005

> <r_lp_Energy>
7.94545

> <b_lp_Chiralities_Consistent>
1

> <s_lp_Variant>
AV-unprocessed.smi:1880-2

> <Gold.Version>
5.8.1

> <Gold.Id.Protein>
6NUR|6NUR_protein|mol2

> <Gold.PLP.Fitness>
48.4452

> <Gold.PLP.PLP>
-46.2160

> <Gold.PLP.part.hbond>
-2.7916

> <Gold.PLP.part.metal>
0.0000

> <Gold.PLP.part.buried>
-6.4319

> <Gold.PLP.part.nonpolar>
-38.1332

> <Gold.PLP.part.repulsive>
1.0505

> <Gold.PLP.ligand.clash>
0.0000

> <Gold.PLP.ligand.torsion>
0.7029

> <Gold.PLP.Chemscore.Hbond>
1.1968

> <Gold.PLP.Chemscore.CHOScore>
0.0000

> <Gold.PLP.Chemscore.Metal>
0.0000

> <Gold.Chemscore.Hbonds>
donor molecule, donor type, donor heavy atom, donor atom, acceptor molecule, acceptor atom, score
      P1  H  7989  7998       L1     1  0.32
      P1  H  8011  8017       L1     1  0.88

> <Gold.PLP.Chemscore.Internal.Correction>
0.0446

> <Gold.Rescore>
     Score         DG    S(hbond)    S(metal)    S(lipo)     H(rot)  DE(clash)    DE(int)     intcor
     11.35     -12.93       0.99        0.00      97.74       2.85       0.16       1.42       ----

> <Gold.Chemscore.Fitness>
11.3527

> <Gold.Chemscore.DG>
-12.9329

> <Gold.Chemscore.ZeroCoef>
-5.4800

> <Gold.Chemscore.Hbond>
0.9935

> <Gold.Chemscore.Metal>
0.0000

> <Gold.Chemscore.Lipo>
97.7355

> <Gold.Chemscore.Internal_Hbond>
0.0000

> <Gold.Chemscore.DEClash>
0.1607

> <Gold.Chemscore.DEInternal>
1.4195

> <Gold.Chemscore.Rot>
2.8518

> <Gold.Chemscore.Internal.Correction>
   9.000000E+99

> <Gold.Chemscore.Hbonds>
donor molecule, donor type, donor heavy atom, donor atom, acceptor molecule, acceptor atom, score
      P1  H  7989  7998       L1     1  0.06
      P1  H  8011  8017       L1     1  0.33

> <Gold.Chemscore.Hbond.Weighted>
-3.3184

> <Gold.Chemscore.Metal.Weighted>
-0.0000

> <Gold.Chemscore.Lipo.Weighted>
-11.4351

> <Gold.Chemscore.Internal_Hbond.Weighted>
0.0000

> <Gold.Chemscore.DEClash.Weighted>
0.1607

> <Gold.Chemscore.DEInternal.Weighted>
1.4195

> <Gold.Chemscore.Rot.Weighted>
7.3005

> <Gold.Chemscore.Internal.Correction.Weighted>
   9.000000E+99

> <Gold.Protein.RotatedTorsions>
[ 6907 6896 6895 6894 ] final  -99.07 input  -60.11 | X-H torsion
[ 7974 7965 7964 7962 ] final   34.46 input  175.53 | X-H torsion
[ 8008 7997 7996 7995 ] final  168.63 input   59.86 | X-H torsion
[ 10167 10162 10161 10158 ] final  -61.54 input  -65.29 | X-H torsion
[ 10718 10713 10712 10709 ] final  173.29 input   66.30 | X-H torsion
[ 10763 10752 10751 10750 ] final  146.26 input  -60.55 | X-H torsion
[ 11005 11000 10999 10996 ] final   53.16 input  -57.11 | X-H torsion

> <Gold.Protein.ActiveResidues>
 VAL166  LYS551  ARG553  GLY616  TRP617  ASP618  TYR619  PRO620  LYS621  CYS622 
 ASP623  PHE694  ASN695  SER759  ASP760  ASP761  ALA762  ILE779  LEU786  VAL792 
 PHE793  MET794  SER795  GLU796  ALA797  LYS798  CYS799  TRP800  GLU811  SER814 

> <Gold.Protein.RotatedAtoms>
  150.7068  134.1096  159.3995 H   0  0  0  0  0  0  0  0  0  0  0  0  # atno 6907 bound_to 6896
  151.9083  135.0347  160.0521 H   0  0  0  0  0  0  0  0  0  0  0  0  # atno 6908 bound_to 6896
  152.2357  133.5059  159.5278 H   0  0  0  0  0  0  0  0  0  0  0  0  # atno 6909 bound_to 6896
  146.1351  139.6266  142.9201 H   0  0  0  0  0  0  0  0  0  0  0  0  # atno 7974 bound_to 7965
  156.1529  140.1585  156.8740 H   0  0  0  0  0  0  0  0  0  0  0  0  # atno 8008 bound_to 7997
  154.5088  140.0806  156.7985 H   0  0  0  0  0  0  0  0  0  0  0  0  # atno 8009 bound_to 7997
  155.3860  140.3407  155.4251 H   0  0  0  0  0  0  0  0  0  0  0  0  # atno 8010 bound_to 7997
  140.5999  143.2359  151.5953 H   0  0  0  0  0  0  0  0  0  0  0  0  # atno 10167 bound_to 10162
  156.9665  131.0077  151.2915 H   0  0  0  0  0  0  0  0  0  0  0  0  # atno 10718 bound_to 10713
  154.0189  135.2908  155.3383 H   0  0  0  0  0  0  0  0  0  0  0  0  # atno 10763 bound_to 10752
  154.7058  135.5170  153.8596 H   0  0  0  0  0  0  0  0  0  0  0  0  # atno 10764 bound_to 10752
  153.0690  135.6641  154.0413 H   0  0  0  0  0  0  0  0  0  0  0  0  # atno 10765 bound_to 10752
  140.0789  134.5365  155.8967 H   0  0  0  0  0  0  0  0  0  0  0  0  # atno 11005 bound_to 11000
  145.5174  141.0433  143.2454 LP  0  0  0  0  0  0  0  0  0  0  0  0  # atno 17320 bound_to 7965
  144.7731  139.6690  143.7186 LP  0  0  0  0  0  0  0  0  0  0  0  0  # atno 17321 bound_to 7965
  139.5284  144.2991  152.1089 LP  0  0  0  0  0  0  0  0  0  0  0  0  # atno 17342 bound_to 10162
  140.2169  144.4505  150.6359 LP  0  0  0  0  0  0  0  0  0  0  0  0  # atno 17343 bound_to 10162
  157.5622  130.8253  149.8280 LP  0  0  0  0  0  0  0  0  0  0  0  0  # atno 17370 bound_to 10713
  156.0300  130.3767  150.1714 LP  0  0  0  0  0  0  0  0  0  0  0  0  # atno 17371 bound_to 10713
  141.2040  133.6636  156.6093 LP  0  0  0  0  0  0  0  0  0  0  0  0  # atno 17394 bound_to 11000
  140.3516  134.7763  157.4471 LP  0  0  0  0  0  0  0  0  0  0  0  0  # atno 17395 bound_to 11000

$$$$
