AV-unprocessed.smi:1047|AV-procd|sdf|4576|dock3
  -GOLD-   22720 3 33D 1   1.00000     0.00000
 Structure written by MMmdl.
 56 58  0  0  0  0  0  0  0  0  2 V2000
  146.5749  132.0825  152.3472 C   0  0  0  0  0  0  0  0  0  0  0  0
  147.1254  133.3989  152.9135 C   0  0  0  0  0  0  0  0  0  0  0  0
  146.5891  134.5899  152.2086 N   0  3  1  0  0  0  0  0  0  0  0  0
  145.1474  134.4827  151.8744 C   0  0  0  0  0  0  0  0  0  0  0  0
  144.6801  135.7288  151.1037 C   0  0  0  0  0  0  0  0  0  0  0  0
  144.9409  136.8981  151.8701 O   0  0  0  0  0  0  0  0  0  0  0  0
  146.3275  137.0615  152.1505 C   0  0  1  0  0  0  0  0  0  0  0  0
  146.5405  138.4099  152.8591 C   0  0  0  0  0  0  0  0  0  0  0  0
  147.9555  138.6958  153.0820 N   0  0  0  0  0  0  0  0  0  0  0  0
  148.2237  139.2961  154.3853 C   0  0  0  0  0  0  0  0  0  0  0  0
  149.5391  140.0990  154.3708 C   0  0  1  0  0  0  0  0  0  0  0  0
  149.6008  140.8304  153.1643 O   0  0  0  0  0  0  0  0  0  0  0  0
  149.6572  141.1117  155.5268 C   0  0  0  0  0  0  0  0  0  0  0  0
  150.7586  140.8104  156.4234 N   0  0  0  0  0  0  0  0  0  0  0  0
  151.6043  139.7656  156.3418 C   0  0  0  0  0  0  0  0  0  0  0  0
  152.5474  139.6710  157.2743 N   0  0  0  0  0  0  0  0  0  0  0  0
  152.2867  140.7881  158.0491 C   0  0  0  0  0  0  0  0  0  0  0  0
  152.9321  141.2701  159.2088 C   0  0  0  0  0  0  0  0  0  0  0  0
  152.4883  142.4497  159.8481 C   0  0  0  0  0  0  0  0  0  0  0  0
  153.2120  142.9316  161.0929 C   0  0  0  0  0  0  0  0  0  0  0  0
  151.3816  143.1670  159.3272 C   0  0  0  0  0  0  0  0  0  0  0  0
  150.8879  144.4379  159.9959 C   0  0  0  0  0  0  0  0  0  0  0  0
  150.7245  142.6986  158.1702 C   0  0  0  0  0  0  0  0  0  0  0  0
  151.1756  141.5239  157.5425 C   0  0  0  0  0  0  0  0  0  0  0  0
  146.8538  135.8481  152.9459 C   0  0  0  0  0  0  0  0  0  0  0  0
  147.0573  131.2291  152.8243 H   0  0  0  0  0  0  0  0  0  0  0  0
  146.7585  132.0071  151.2751 H   0  0  0  0  0  0  0  0  0  0  0  0
  145.5032  131.9809  152.5147 H   0  0  0  0  0  0  0  0  0  0  0  0
  146.9228  133.4729  153.9828 H   0  0  0  0  0  0  0  0  0  0  0  0
  148.2105  133.3802  152.8047 H   0  0  0  0  0  0  0  0  0  0  0  0
  144.9604  133.5971  151.2684 H   0  0  0  0  0  0  0  0  0  0  0  0
  144.5655  134.3724  152.7910 H   0  0  0  0  0  0  0  0  0  0  0  0
  145.1774  135.7958  150.1348 H   0  0  0  0  0  0  0  0  0  0  0  0
  143.6095  135.6685  150.9074 H   0  0  0  0  0  0  0  0  0  0  0  0
  146.8608  137.1106  151.1992 H   0  0  0  0  0  0  0  0  0  0  0  0
  146.0927  139.2062  152.2632 H   0  0  0  0  0  0  0  0  0  0  0  0
  146.0089  138.4010  153.8113 H   0  0  0  0  0  0  0  0  0  0  0  0
  148.4940  137.8406  152.9850 H   0  0  0  0  0  0  0  0  0  0  0  0
  147.3927  139.9279  154.7022 H   0  0  0  0  0  0  0  0  0  0  0  0
  148.2948  138.4950  155.1205 H   0  0  0  0  0  0  0  0  0  0  0  0
  150.3923  139.4200  154.4098 H   0  0  0  0  0  0  0  0  0  0  0  0
  149.5829  140.2189  152.4439 H   0  0  0  0  0  0  0  0  0  0  0  0
  149.8083  142.1178  155.1328 H   0  0  0  0  0  0  0  0  0  0  0  0
  148.7329  141.1410  156.1053 H   0  0  0  0  0  0  0  0  0  0  0  0
  151.5190  139.0300  155.5550 H   0  0  0  0  0  0  0  0  0  0  0  0
  153.7747  140.7231  159.6056 H   0  0  0  0  0  0  0  0  0  0  0  0
  153.6280  143.9262  160.9318 H   0  0  0  0  0  0  0  0  0  0  0  0
  154.0329  142.2651  161.3596 H   0  0  0  0  0  0  0  0  0  0  0  0
  152.5276  142.9749  161.9404 H   0  0  0  0  0  0  0  0  0  0  0  0
  150.0428  144.8680  159.4579 H   0  0  0  0  0  0  0  0  0  0  0  0
  151.6798  145.1867  160.0264 H   0  0  0  0  0  0  0  0  0  0  0  0
  150.5651  144.2321  161.0167 H   0  0  0  0  0  0  0  0  0  0  0  0
  149.8784  143.2340  157.7652 H   0  0  0  0  0  0  0  0  0  0  0  0
  146.3782  135.7922  153.9263 H   0  0  0  0  0  0  0  0  0  0  0  0
  147.9256  135.9586  153.1152 H   0  0  0  0  0  0  0  0  0  0  0  0
  147.0923  134.6610  151.3357 H   0  0  0  0  0  0  0  0  0  0  0  0
  1  2  1  0  0  0  0
  1 26  1  0  0  0  0
  1 27  1  0  0  0  0
  1 28  1  0  0  0  0
  2  3  1  0  0  0  0
  2 29  1  0  0  0  0
  2 30  1  0  0  0  0
  3 25  1  0  0  0  0
  3  4  1  0  0  0  0
  3 56  1  0  0  0  0
  4  5  1  0  0  0  0
  4 31  1  0  0  0  0
  4 32  1  0  0  0  0
  5  6  1  0  0  0  0
  5 33  1  0  0  0  0
  5 34  1  0  0  0  0
  6  7  1  0  0  0  0
  7  8  1  0  0  0  0
  7 25  1  0  0  0  0
  7 35  1  0  0  0  0
  8  9  1  0  0  0  0
  8 36  1  0  0  0  0
  8 37  1  0  0  0  0
  9 10  1  0  0  0  0
  9 38  1  0  0  0  0
 10 11  1  0  0  0  0
 10 39  1  0  0  0  0
 10 40  1  0  0  0  0
 11 12  1  0  0  0  0
 11 13  1  0  0  0  0
 11 41  1  0  0  0  0
 12 42  1  0  0  0  0
 13 14  1  0  0  0  0
 13 43  1  0  0  0  0
 13 44  1  0  0  0  0
 14 24  1  0  0  0  0
 14 15  1  0  0  0  0
 15 16  2  0  0  0  0
 15 45  1  0  0  0  0
 16 17  1  0  0  0  0
 17 24  2  0  0  0  0
 17 18  1  0  0  0  0
 18 19  2  0  0  0  0
 18 46  1  0  0  0  0
 19 20  1  0  0  0  0
 19 21  1  0  0  0  0
 20 47  1  0  0  0  0
 20 48  1  0  0  0  0
 20 49  1  0  0  0  0
 21 22  1  0  0  0  0
 21 23  2  0  0  0  0
 22 50  1  0  0  0  0
 22 51  1  0  0  0  0
 22 52  1  0  0  0  0
 23 24  1  0  0  0  0
 23 53  1  0  0  0  0
 25 54  1  0  0  0  0
 25 55  1  0  0  0  0
M  CHG  1   3   1
M  END
> <s_m_source_file>
AV-unprocessed.smi

> <i_m_source_file_index>
1047

> <i_lp_mmshare_version>
43012

> <i_f3d_flags>
0

> <s_epik_input>
W0NIM11bQ0gyXU4xW0NIMl1bQ0gyXU9bQ0BIXShbQ0gyXTEpW0NIMl1bTkhdW0NIMl1bQ0BIXShbT0hdKVtDSDJdbihbY0hdbjIpYyhjMjMpW2NIXWMoW0NIM10pYyhbY0hdMylbQ0gzXQ==

> <s_epik_cmdline>
J2VwaWtfcHl0aG9uJywgJy1waCcsICc3LjAnLCAnLXRuJywgJzgnLCAnLW1hJywgJzIwMCcsICctbWV0YWxfYmluZGluZycsICctaW1hZScsICc8aW5maWxlLm1hZT4nLCAnLW9tYWUnLCAnPG91dGZpbGUubWFlPic=

> <r_epik_Ionization_Penalty>
1.19246

> <r_epik_Ionization_Penalty_Charging>
0.210041

> <r_epik_Ionization_Penalty_Neutral>
0.982415

> <r_epik_State_Penalty>
1.57595

> <r_epik_Charging_Adjusted_Penalty>
1.78599

> <i_epik_Tot_Q>
1

> <i_epik_Tot_abs_Q>
1

> <r_epik_Metal_State_Penalty>
1.46172

> <b_epik_Metal_Only>
0

> <s_lp_Force_Field>
OPLS_2005

> <r_lp_Energy>
33.3203

> <b_lp_Chiralities_Consistent>
1

> <s_lp_Variant>
AV-unprocessed.smi:1047-17

> <Gold.Version>
5.8.1

> <Gold.Id.Protein>
6NUR|6NUR_protein|mol2

> <Gold.PLP.Fitness>
49.4167

> <Gold.PLP.PLP>
-41.6373

> <Gold.PLP.part.hbond>
-5.7603

> <Gold.PLP.part.metal>
0.0000

> <Gold.PLP.part.buried>
0.2815

> <Gold.PLP.part.nonpolar>
-37.9397

> <Gold.PLP.part.repulsive>
1.6242

> <Gold.PLP.ligand.clash>
0.0000

> <Gold.PLP.ligand.torsion>
1.4631

> <Gold.PLP.Chemscore.Hbond>
3.5301

> <Gold.PLP.Chemscore.CHOScore>
0.0000

> <Gold.PLP.Chemscore.Metal>
0.0000

> <Gold.Chemscore.Hbonds>
donor molecule, donor type, donor heavy atom, donor atom, acceptor molecule, acceptor atom, score
      L1  H     9    38       P1  7948  0.96
      L1  H    12    42       P1  7957  0.38
      P1  H  7989  7998       L1    12  0.06
      P1  H  7997  8009       L1    16  1.00
      P1  H  8011  8017       L1    12  1.00

> <Gold.PLP.Chemscore.Internal.Correction>
0.1153

> <Gold.Rescore>
     Score         DG    S(hbond)    S(metal)    S(lipo)     H(rot)  DE(clash)    DE(int)     intcor
     17.64     -22.79       2.79        0.00     125.74       2.62       3.61       1.55       ----

> <Gold.Chemscore.Fitness>
17.6352

> <Gold.Chemscore.DG>
-22.7924

> <Gold.Chemscore.ZeroCoef>
-5.4800

> <Gold.Chemscore.Hbond>
2.7876

> <Gold.Chemscore.Metal>
0.0000

> <Gold.Chemscore.Lipo>
125.7374

> <Gold.Chemscore.Internal_Hbond>
0.0000

> <Gold.Chemscore.DEClash>
3.6119

> <Gold.Chemscore.DEInternal>
1.5453

> <Gold.Chemscore.Rot>
2.6209

> <Gold.Chemscore.Internal.Correction>
   9.000000E+99

> <Gold.Chemscore.Hbonds>
donor molecule, donor type, donor heavy atom, donor atom, acceptor molecule, acceptor atom, score
      L1  H     9    38       P1  7948  0.89
      L1  H    12    42       P1  7957  0.38
      P1  H  7997  8009       L1    16  0.24
      P1  H  8011  8017       L1    12  0.35

> <Gold.Chemscore.Hbond.Weighted>
-9.3107

> <Gold.Chemscore.Metal.Weighted>
-0.0000

> <Gold.Chemscore.Lipo.Weighted>
-14.7113

> <Gold.Chemscore.Internal_Hbond.Weighted>
0.0000

> <Gold.Chemscore.DEClash.Weighted>
3.6119

> <Gold.Chemscore.DEInternal.Weighted>
1.5453

> <Gold.Chemscore.Rot.Weighted>
6.7096

> <Gold.Chemscore.Internal.Correction.Weighted>
   9.000000E+99

> <Gold.Protein.RotatedTorsions>
[ 6907 6896 6895 6894 ] final  126.54 input  -60.11 | X-H torsion
[ 7974 7965 7964 7962 ] final  -32.14 input  175.53 | X-H torsion
[ 8008 7997 7996 7995 ] final -174.89 input   59.86 | X-H torsion
[ 10167 10162 10161 10158 ] final  102.94 input  -65.29 | X-H torsion
[ 10718 10713 10712 10709 ] final   -9.30 input   66.30 | X-H torsion
[ 10763 10752 10751 10750 ] final   72.98 input  -60.55 | X-H torsion
[ 11005 11000 10999 10996 ] final   49.21 input  -57.11 | X-H torsion

> <Gold.Protein.ActiveResidues>
 VAL166  LYS551  ARG553  GLY616  TRP617  ASP618  TYR619  PRO620  LYS621  CYS622 
 ASP623  PHE694  ASN695  SER759  ASP760  ASP761  ALA762  ILE779  LEU786  VAL792 
 PHE793  MET794  SER795  GLU796  ALA797  LYS798  CYS799  TRP800  GLU811  SER814 

> <Gold.Protein.RotatedAtoms>
  152.3894  133.6658  159.6225 H   0  0  0  0  0  0  0  0  0  0  0  0  # atno 6907 bound_to 6896
  150.7806  133.8979  159.3341 H   0  0  0  0  0  0  0  0  0  0  0  0  # atno 6908 bound_to 6896
  151.6769  135.0969  160.0260 H   0  0  0  0  0  0  0  0  0  0  0  0  # atno 6909 bound_to 6896
  146.1013  140.5755  142.8819 H   0  0  0  0  0  0  0  0  0  0  0  0  # atno 7974 bound_to 7965
  155.9757  140.1172  157.0772 H   0  0  0  0  0  0  0  0  0  0  0  0  # atno 8008 bound_to 7997
  154.4168  140.1154  156.5435 H   0  0  0  0  0  0  0  0  0  0  0  0  # atno 8009 bound_to 7997
  155.6537  140.3473  155.4759 H   0  0  0  0  0  0  0  0  0  0  0  0  # atno 8010 bound_to 7997
  139.7306  144.7037  151.0728 H   0  0  0  0  0  0  0  0  0  0  0  0  # atno 10167 bound_to 10162
  156.6901  130.5062  149.5946 H   0  0  0  0  0  0  0  0  0  0  0  0  # atno 10718 bound_to 10713
  153.0492  135.5080  154.7824 H   0  0  0  0  0  0  0  0  0  0  0  0  # atno 10763 bound_to 10752
  154.6700  135.2951  154.9757 H   0  0  0  0  0  0  0  0  0  0  0  0  # atno 10764 bound_to 10752
  154.0578  135.6695  153.4860 H   0  0  0  0  0  0  0  0  0  0  0  0  # atno 10765 bound_to 10752
  140.1123  134.4939  155.8667 H   0  0  0  0  0  0  0  0  0  0  0  0  # atno 11005 bound_to 11000
  144.7435  140.5006  143.6852 LP  0  0  0  0  0  0  0  0  0  0  0  0  # atno 17320 bound_to 7965
  145.5848  139.1491  143.3215 LP  0  0  0  0  0  0  0  0  0  0  0  0  # atno 17321 bound_to 7965
  140.7770  143.5049  150.9725 LP  0  0  0  0  0  0  0  0  0  0  0  0  # atno 17342 bound_to 10162
  139.8737  143.7160  152.3164 LP  0  0  0  0  0  0  0  0  0  0  0  0  # atno 17343 bound_to 10162
  156.1804  130.6495  151.0944 LP  0  0  0  0  0  0  0  0  0  0  0  0  # atno 17370 bound_to 10713
  157.7012  131.0775  150.6814 LP  0  0  0  0  0  0  0  0  0  0  0  0  # atno 17371 bound_to 10713
  141.2133  133.6731  156.6728 LP  0  0  0  0  0  0  0  0  0  0  0  0  # atno 17394 bound_to 11000
  140.3075  134.8113  157.4149 LP  0  0  0  0  0  0  0  0  0  0  0  0  # atno 17395 bound_to 11000

$$$$
