AV-unprocessed.smi:332|AV-procd|sdf|2358|dock2
  -GOLD-   2262022273D 1   1.00000     0.00000
 Structure written by MMmdl.
 42 44  0  0  0  0  0  0  0  0  1 V2000
  150.5389  138.3234  157.5094 C   0  0  0  0  0  0  0  0  0  0  0  0
  149.0742  138.7405  157.7318 C   0  0  2  0  0  0  0  0  0  0  0  0
  148.2464  137.5374  157.7957 N   0  0  0  0  0  0  0  0  0  0  0  0
  148.5421  136.4195  158.4761 C   0  0  0  0  0  0  0  0  0  0  0  0
  149.5891  136.2666  159.1065 O   0  0  0  0  0  0  0  0  0  0  0  0
  147.4959  135.2983  158.4131 C   0  0  0  0  0  0  0  0  0  0  0  0
  147.1967  134.7167  159.7321 N   0  0  0  0  0  0  0  0  0  0  0  0
  147.1879  133.3107  159.8278 C   0  0  0  0  0  0  0  0  0  0  0  0
  146.9272  132.6793  160.9834 C   0  0  0  0  0  0  0  0  0  0  0  0
  146.6502  133.4811  162.1518 C   0  0  0  0  0  0  0  0  0  0  0  0
  146.6591  134.8269  162.0721 C   0  0  0  0  0  0  0  0  0  0  0  0
  146.9449  135.5212  160.8111 C   0  0  0  0  0  0  0  0  0  0  0  0
  146.9565  136.7500  160.7291 O   0  0  0  0  0  0  0  0  0  0  0  0
  148.5374  139.6762  156.6202 C   0  0  1  0  0  0  0  0  0  0  0  0
  149.2222  141.0670  156.5925 C   0  0  0  0  0  0  0  0  0  0  0  0
  149.6963  141.2018  155.1351 C   0  0  2  0  0  0  0  0  0  0  0  0
  148.4782  141.3631  154.2079 C   0  0  0  0  0  0  0  0  0  0  0  0
  147.8624  139.9515  154.2119 C   0  0  0  0  0  0  0  0  0  0  0  0
  148.7866  139.1792  155.1732 C   0  0  1  0  0  0  0  0  0  0  0  0
  150.1462  139.7798  154.8298 C   0  0  0  0  0  0  0  0  0  0  0  0
  151.2133  139.1782  157.5350 H   0  0  0  0  0  0  0  0  0  0  0  0
  150.6680  137.8254  156.5478 H   0  0  0  0  0  0  0  0  0  0  0  0
  150.8720  137.6341  158.2861 H   0  0  0  0  0  0  0  0  0  0  0  0
  149.0102  139.2696  158.6843 H   0  0  0  0  0  0  0  0  0  0  0  0
  147.3663  137.5683  157.3018 H   0  0  0  0  0  0  0  0  0  0  0  0
  146.5787  135.6763  157.9568 H   0  0  0  0  0  0  0  0  0  0  0  0
  147.8615  134.5326  157.7275 H   0  0  0  0  0  0  0  0  0  0  0  0
  147.4116  132.7847  158.9110 H   0  0  0  0  0  0  0  0  0  0  0  0
  146.9282  131.6004  161.0380 H   0  0  0  0  0  0  0  0  0  0  0  0
  146.4363  132.9995  163.0949 H   0  0  0  0  0  0  0  0  0  0  0  0
  146.4504  135.4104  162.9569 H   0  0  0  0  0  0  0  0  0  0  0  0
  147.4655  139.8046  156.7800 H   0  0  0  0  0  0  0  0  0  0  0  0
  148.5436  141.8691  156.8852 H   0  0  0  0  0  0  0  0  0  0  0  0
  150.0832  141.1053  157.2613 H   0  0  0  0  0  0  0  0  0  0  0  0
  150.4597  141.9673  154.9931 H   0  0  0  0  0  0  0  0  0  0  0  0
  147.7834  142.1222  154.5690 H   0  0  0  0  0  0  0  0  0  0  0  0
  148.7883  141.6434  153.2004 H   0  0  0  0  0  0  0  0  0  0  0  0
  146.8215  139.9498  154.5375 H   0  0  0  0  0  0  0  0  0  0  0  0
  147.8973  139.5180  153.2116 H   0  0  0  0  0  0  0  0  0  0  0  0
  148.7213  138.0999  155.0417 H   0  0  0  0  0  0  0  0  0  0  0  0
  150.4342  139.6320  153.7874 H   0  0  0  0  0  0  0  0  0  0  0  0
  150.9544  139.4325  155.4754 H   0  0  0  0  0  0  0  0  0  0  0  0
  1  2  1  0  0  0  0
  1 21  1  0  0  0  0
  1 22  1  0  0  0  0
  1 23  1  0  0  0  0
  2  3  1  0  0  0  0
  2 14  1  0  0  0  0
  2 24  1  0  0  0  0
  3  4  1  0  0  0  0
  3 25  1  0  0  0  0
  4  5  2  0  0  0  0
  4  6  1  0  0  0  0
  6  7  1  0  0  0  0
  6 26  1  0  0  0  0
  6 27  1  0  0  0  0
  7 12  1  0  0  0  0
  7  8  1  0  0  0  0
  8  9  2  0  0  0  0
  8 28  1  0  0  0  0
  9 10  1  0  0  0  0
  9 29  1  0  0  0  0
 10 11  2  0  0  0  0
 10 30  1  0  0  0  0
 11 12  1  0  0  0  0
 11 31  1  0  0  0  0
 12 13  2  0  0  0  0
 14 19  1  0  0  0  0
 14 15  1  0  0  0  0
 14 32  1  0  0  0  0
 15 16  1  0  0  0  0
 15 33  1  0  0  0  0
 15 34  1  0  0  0  0
 16 20  1  0  0  0  0
 16 17  1  0  0  0  0
 16 35  1  0  0  0  0
 17 18  1  0  0  0  0
 17 36  1  0  0  0  0
 17 37  1  0  0  0  0
 18 19  1  0  0  0  0
 18 38  1  0  0  0  0
 18 39  1  0  0  0  0
 19 20  1  0  0  0  0
 19 40  1  0  0  0  0
 20 41  1  0  0  0  0
 20 42  1  0  0  0  0
M  END
> <s_m_source_file>
AV-unprocessed.smi

> <i_m_source_file_index>
332

> <i_lp_mmshare_version>
43012

> <i_f3d_flags>
0

> <s_epik_input>
W0NIMl0xW0NIMl1bQ0BIXShbQ0gyXTIpW0NAQEhdKFtDSDJdW0NAQEhdMTIpW0NASF0oW0NIM10pW05IXUMoPU8pW0NIMl1uM1tjSF1bY0hdW2NIXVtjSF1jMz1P

> <s_epik_cmdline>
J2VwaWtfcHl0aG9uJywgJy1waCcsICc3LjAnLCAnLXRuJywgJzgnLCAnLW1hJywgJzIwMCcsICctbWV0YWxfYmluZGluZycsICctaW1hZScsICc8aW5maWxlLm1hZT4nLCAnLW9tYWUnLCAnPG91dGZpbGUubWFlPic=

> <r_lp_tautomer_probability>
1

> <r_epik_Ionization_Penalty>
4.05802e-07

> <r_epik_Ionization_Penalty_Charging>
3.84175e-07

> <r_epik_Ionization_Penalty_Neutral>
2.16269e-08

> <r_epik_State_Penalty>
-0

> <r_epik_Charging_Adjusted_Penalty>
3.84175e-07

> <i_epik_Tot_Q>
0

> <i_epik_Tot_abs_Q>
0

> <r_epik_Metal_State_Penalty>
-0

> <b_epik_Metal_Only>
0

> <s_lp_Force_Field>
OPLS_2005

> <r_lp_Energy>
59.8508

> <b_lp_Chiralities_Consistent>
1

> <s_lp_Variant>
AV-unprocessed.smi:332-7

> <Gold.Version>
5.8.1

> <Gold.Id.Protein>
6NUR|6NUR_protein|mol2

> <Gold.PLP.Fitness>
43.0982

> <Gold.PLP.PLP>
-35.6165

> <Gold.PLP.part.hbond>
-3.0000

> <Gold.PLP.part.metal>
0.0000

> <Gold.PLP.part.buried>
-3.2620

> <Gold.PLP.part.nonpolar>
-29.5052

> <Gold.PLP.part.repulsive>
0.0957

> <Gold.PLP.ligand.clash>
0.0000

> <Gold.PLP.ligand.torsion>
0.5363

> <Gold.PLP.Chemscore.Hbond>
2.8400

> <Gold.PLP.Chemscore.CHOScore>
0.0000

> <Gold.PLP.Chemscore.Metal>
0.0000

> <Gold.Chemscore.Hbonds>
donor molecule, donor type, donor heavy atom, donor atom, acceptor molecule, acceptor atom, score
      P1  H  6896  6908       L1     5  1.00
      P1  H  6934  6947       L1    13  0.34

> <Gold.PLP.Chemscore.Internal.Correction>
0.0342

> <Gold.Rescore>
     Score         DG    S(hbond)    S(metal)    S(lipo)     H(rot)  DE(clash)    DE(int)     intcor
     15.80     -19.89       2.77        0.00      77.84       1.54       0.01       4.08       ----

> <Gold.Chemscore.Fitness>
15.7966

> <Gold.Chemscore.DG>
-19.8873

> <Gold.Chemscore.ZeroCoef>
-5.4800

> <Gold.Chemscore.Hbond>
2.7671

> <Gold.Chemscore.Metal>
0.0000

> <Gold.Chemscore.Lipo>
77.8391

> <Gold.Chemscore.Internal_Hbond>
0.0000

> <Gold.Chemscore.DEClash>
0.0127

> <Gold.Chemscore.DEInternal>
4.0779

> <Gold.Chemscore.Rot>
1.5398

> <Gold.Chemscore.Internal.Correction>
   9.000000E+99

> <Gold.Chemscore.Hbonds>
donor molecule, donor type, donor heavy atom, donor atom, acceptor molecule, acceptor atom, score
      P1  H  6896  6908       L1     5  0.98
      P1  H  6934  6947       L1    13  0.35

> <Gold.Chemscore.Hbond.Weighted>
-9.2420

> <Gold.Chemscore.Metal.Weighted>
-0.0000

> <Gold.Chemscore.Lipo.Weighted>
-9.1072

> <Gold.Chemscore.Internal_Hbond.Weighted>
0.0000

> <Gold.Chemscore.DEClash.Weighted>
0.0127

> <Gold.Chemscore.DEInternal.Weighted>
4.0779

> <Gold.Chemscore.Rot.Weighted>
3.9419

> <Gold.Chemscore.Internal.Correction.Weighted>
   9.000000E+99

> <Gold.Protein.RotatedTorsions>
[ 6907 6896 6895 6894 ] final -166.52 input  -60.11 | X-H torsion
[ 7974 7965 7964 7962 ] final  -81.37 input  175.53 | X-H torsion
[ 8008 7997 7996 7995 ] final -110.51 input   59.86 | X-H torsion
[ 10167 10162 10161 10158 ] final  160.32 input  -65.29 | X-H torsion
[ 10718 10713 10712 10709 ] final  -68.01 input   66.30 | X-H torsion
[ 10763 10752 10751 10750 ] final -108.20 input  -60.55 | X-H torsion
[ 11005 11000 10999 10996 ] final -162.12 input  -57.11 | X-H torsion

> <Gold.Protein.ActiveResidues>
 VAL166  LYS551  ARG553  GLY616  TRP617  ASP618  TYR619  PRO620  LYS621  CYS622 
 ASP623  PHE694  ASN695  SER759  ASP760  ASP761  ALA762  ILE779  LEU786  VAL792 
 PHE793  MET794  SER795  GLU796  ALA797  LYS798  CYS799  TRP800  GLU811  SER814 

> <Gold.Protein.RotatedAtoms>
  151.4448  133.3633  159.2786 H   0  0  0  0  0  0  0  0  0  0  0  0  # atno 6907 bound_to 6896
  150.9132  134.8550  159.7450 H   0  0  0  0  0  0  0  0  0  0  0  0  # atno 6908 bound_to 6896
  152.4943  134.4380  159.9586 H   0  0  0  0  0  0  0  0  0  0  0  0  # atno 6909 bound_to 6896
  145.5476  140.9501  143.1517 H   0  0  0  0  0  0  0  0  0  0  0  0  # atno 7974 bound_to 7965
  154.9757  140.0397  157.2255 H   0  0  0  0  0  0  0  0  0  0  0  0  # atno 8008 bound_to 7997
  154.7760  140.2810  155.6078 H   0  0  0  0  0  0  0  0  0  0  0  0  # atno 8009 bound_to 7997
  156.2929  140.2601  156.2574 H   0  0  0  0  0  0  0  0  0  0  0  0  # atno 8010 bound_to 7997
  139.4839  144.4645  151.8660 H   0  0  0  0  0  0  0  0  0  0  0  0  # atno 10167 bound_to 10162
  156.0527  130.4287  150.1938 H   0  0  0  0  0  0  0  0  0  0  0  0  # atno 10718 bound_to 10713
  154.8121  135.4646  154.0545 H   0  0  0  0  0  0  0  0  0  0  0  0  # atno 10763 bound_to 10752
  153.1967  135.6863  153.8289 H   0  0  0  0  0  0  0  0  0  0  0  0  # atno 10764 bound_to 10752
  153.7788  135.3259  155.3340 H   0  0  0  0  0  0  0  0  0  0  0  0  # atno 10765 bound_to 10752
  140.6128  134.4831  157.5217 H   0  0  0  0  0  0  0  0  0  0  0  0  # atno 11005 bound_to 11000
  144.7545  139.7108  143.7259 LP  0  0  0  0  0  0  0  0  0  0  0  0  # atno 17320 bound_to 7965
  146.1939  139.5194  142.9787 LP  0  0  0  0  0  0  0  0  0  0  0  0  # atno 17321 bound_to 7965
  140.4110  144.2369  150.5889 LP  0  0  0  0  0  0  0  0  0  0  0  0  # atno 17342 bound_to 10162
  140.4966  143.2330  151.8740 LP  0  0  0  0  0  0  0  0  0  0  0  0  # atno 17343 bound_to 10162
  157.0019  130.9925  151.3388 LP  0  0  0  0  0  0  0  0  0  0  0  0  # atno 17370 bound_to 10713
  157.5469  130.8156  149.8097 LP  0  0  0  0  0  0  0  0  0  0  0  0  # atno 17371 bound_to 10713
  139.9185  134.8197  156.1288 LP  0  0  0  0  0  0  0  0  0  0  0  0  # atno 17394 bound_to 11000
  141.0796  133.6760  156.2308 LP  0  0  0  0  0  0  0  0  0  0  0  0  # atno 17395 bound_to 11000

$$$$
