AV-unprocessed.smi:142|AV-procd|sdf|1192|dock3
  -GOLD-   2262018353D 1   1.00000     0.00000
 Structure written by MMmdl.
 52 55  0  0  0  0  0  0  0  0  1 V2000
  152.5132  138.9350  154.7346 C   0  0  0  0  0  0  0  0  0  0  0  0
  151.2910  139.0803  155.6508 C   0  0  1  0  0  0  0  0  0  0  0  0
  151.0861  137.8349  156.3860 N   0  0  0  0  0  0  0  0  0  0  0  0
  151.1359  136.6068  155.8476 C   0  0  0  0  0  0  0  0  0  0  0  0
  151.4597  136.3917  154.6794 O   0  0  0  0  0  0  0  0  0  0  0  0
  150.7443  135.4447  156.7698 C   0  0  0  0  0  0  0  0  0  0  0  0
  150.5213  134.1985  156.0053 N   0  0  0  0  0  0  0  0  0  0  0  0
  149.5406  134.1797  154.9831 C   0  0  0  0  0  0  0  0  0  0  0  0
  148.9011  135.1908  154.6902 O   0  0  0  0  0  0  0  0  0  0  0  0
  149.3416  132.8925  154.3269 C   0  0  0  0  0  0  0  0  0  0  0  0
  148.4230  132.7764  153.3530 F   0  0  0  0  0  0  0  0  0  0  0  0
  150.0599  131.8098  154.6889 C   0  0  0  0  0  0  0  0  0  0  0  0
  151.0266  131.8432  155.6750 N   0  0  0  0  0  0  0  0  0  0  0  0
  151.7250  130.5568  156.0603 C   0  0  1  0  0  0  0  0  0  0  0  0
  151.1395  129.3054  155.3882 C   0  0  0  0  0  0  0  0  0  0  0  0
  152.3874  128.4782  155.1640 C   0  0  0  0  0  0  0  0  0  0  0  0
  153.4342  129.5483  154.8742 C   0  0  0  0  0  0  0  0  0  0  0  0
  153.0760  130.6471  155.7079 O   0  0  0  0  0  0  0  0  0  0  0  0
  151.2642  133.0499  156.3732 C   0  0  0  0  0  0  0  0  0  0  0  0
  152.0880  133.1050  157.2875 O   0  0  0  0  0  0  0  0  0  0  0  0
  151.4385  140.2873  156.5738 C   0  0  0  0  0  0  0  0  0  0  0  0
  150.8338  141.5254  156.2571 C   0  0  0  0  0  0  0  0  0  0  0  0
  150.9872  142.6338  157.1115 C   0  0  0  0  0  0  0  0  0  0  0  0
  151.7416  142.5141  158.2954 C   0  0  0  0  0  0  0  0  0  0  0  0
  151.9006  143.6213  159.1543 C   0  0  0  0  0  0  0  0  0  0  0  0
  152.6550  143.4939  160.3369 C   0  0  0  0  0  0  0  0  0  0  0  0
  153.2519  142.2610  160.6645 C   0  0  0  0  0  0  0  0  0  0  0  0
  153.0964  141.1522  159.8100 C   0  0  0  0  0  0  0  0  0  0  0  0
  152.3424  141.2736  158.6244 C   0  0  0  0  0  0  0  0  0  0  0  0
  152.1861  140.1671  157.7645 C   0  0  0  0  0  0  0  0  0  0  0  0
  152.6541  139.8287  154.1259 H   0  0  0  0  0  0  0  0  0  0  0  0
  152.3979  138.0895  154.0556 H   0  0  0  0  0  0  0  0  0  0  0  0
  153.4260  138.7778  155.3105 H   0  0  0  0  0  0  0  0  0  0  0  0
  150.4180  139.2403  155.0150 H   0  0  0  0  0  0  0  0  0  0  0  0
  150.8178  137.9171  157.3557 H   0  0  0  0  0  0  0  0  0  0  0  0
  151.5224  135.3334  157.5258 H   0  0  0  0  0  0  0  0  0  0  0  0
  149.8504  135.7019  157.3414 H   0  0  0  0  0  0  0  0  0  0  0  0
  149.8656  130.8789  154.1764 H   0  0  0  0  0  0  0  0  0  0  0  0
  151.6648  130.4957  157.1476 H   0  0  0  0  0  0  0  0  0  0  0  0
  150.4075  128.8221  156.0355 H   0  0  0  0  0  0  0  0  0  0  0  0
  150.6606  129.5432  154.4395 H   0  0  0  0  0  0  0  0  0  0  0  0
  152.6473  127.9390  156.0758 H   0  0  0  0  0  0  0  0  0  0  0  0
  152.2824  127.7544  154.3556 H   0  0  0  0  0  0  0  0  0  0  0  0
  154.4488  129.2083  155.0816 H   0  0  0  0  0  0  0  0  0  0  0  0
  153.3914  129.8537  153.8286 H   0  0  0  0  0  0  0  0  0  0  0  0
  150.2501  141.6340  155.3551 H   0  0  0  0  0  0  0  0  0  0  0  0
  150.5234  143.5744  156.8531 H   0  0  0  0  0  0  0  0  0  0  0  0
  151.4461  144.5707  158.9110 H   0  0  0  0  0  0  0  0  0  0  0  0
  152.7762  144.3428  160.9937 H   0  0  0  0  0  0  0  0  0  0  0  0
  153.8298  142.1659  161.5719 H   0  0  0  0  0  0  0  0  0  0  0  0
  153.5588  140.2106  160.0681 H   0  0  0  0  0  0  0  0  0  0  0  0
  152.6470  139.2224  158.0150 H   0  0  0  0  0  0  0  0  0  0  0  0
  1  2  1  0  0  0  0
  1 31  1  0  0  0  0
  1 32  1  0  0  0  0
  1 33  1  0  0  0  0
  2  3  1  0  0  0  0
  2 21  1  0  0  0  0
  2 34  1  0  0  0  0
  3  4  1  0  0  0  0
  3 35  1  0  0  0  0
  4  5  2  0  0  0  0
  4  6  1  0  0  0  0
  6  7  1  0  0  0  0
  6 36  1  0  0  0  0
  6 37  1  0  0  0  0
  7 19  1  0  0  0  0
  7  8  1  0  0  0  0
  8  9  2  0  0  0  0
  8 10  1  0  0  0  0
 10 11  1  0  0  0  0
 10 12  2  0  0  0  0
 12 13  1  0  0  0  0
 12 38  1  0  0  0  0
 13 14  1  0  0  0  0
 13 19  1  0  0  0  0
 14 18  1  0  0  0  0
 14 15  1  0  0  0  0
 14 39  1  0  0  0  0
 15 16  1  0  0  0  0
 15 40  1  0  0  0  0
 15 41  1  0  0  0  0
 16 17  1  0  0  0  0
 16 42  1  0  0  0  0
 16 43  1  0  0  0  0
 17 18  1  0  0  0  0
 17 44  1  0  0  0  0
 17 45  1  0  0  0  0
 19 20  2  0  0  0  0
 21 30  1  0  0  0  0
 21 22  2  0  0  0  0
 22 23  1  0  0  0  0
 22 46  1  0  0  0  0
 23 24  2  0  0  0  0
 23 47  1  0  0  0  0
 24 29  1  0  0  0  0
 24 25  1  0  0  0  0
 25 26  2  0  0  0  0
 25 48  1  0  0  0  0
 26 27  1  0  0  0  0
 26 49  1  0  0  0  0
 27 28  2  0  0  0  0
 27 50  1  0  0  0  0
 28 29  1  0  0  0  0
 28 51  1  0  0  0  0
 29 30  2  0  0  0  0
 30 52  1  0  0  0  0
M  END
> <s_m_source_file>
AV-unprocessed.smi

> <i_m_source_file_index>
142

> <i_lp_mmshare_version>
43012

> <i_f3d_flags>
0

> <s_epik_input>
W2NIXTFbY0hdW2NIXVtjSF1jKGMxMilbY0hdYyhbY0hdW2NIXTIpW0NASF0oW0NIM10pW05IXUMoPU8pW0NIMl1uM2MoPU8pYyhGKVtjSF1uKGMzPU8pW0NAQEhdNFtDSDJdW0NIMl1bQ0gyXU80

> <s_epik_cmdline>
J2VwaWtfcHl0aG9uJywgJy1waCcsICc3LjAnLCAnLXRuJywgJzgnLCAnLW1hJywgJzIwMCcsICctbWV0YWxfYmluZGluZycsICctaW1hZScsICc8aW5maWxlLm1hZT4nLCAnLW9tYWUnLCAnPG91dGZpbGUubWFlPic=

> <r_lp_tautomer_probability>
1

> <r_epik_Ionization_Penalty>
3.35688e-08

> <r_epik_Ionization_Penalty_Charging>
3.59856e-09

> <r_epik_Ionization_Penalty_Neutral>
2.99702e-08

> <r_epik_State_Penalty>
-0

> <r_epik_Charging_Adjusted_Penalty>
3.59856e-09

> <i_epik_Tot_Q>
0

> <i_epik_Tot_abs_Q>
0

> <r_epik_Metal_State_Penalty>
-0

> <b_epik_Metal_Only>
0

> <s_epik_Chemistry_Notes>
This compound contains an acetal/aminal-like group ( X-CH(R)-Y where X, Y are N, S, or O) that may be acid/base labile, releasing an aldehyde.

> <s_lp_Force_Field>
OPLS_2005

> <r_lp_Energy>
24.972

> <b_lp_Chiralities_Consistent>
1

> <s_lp_Variant>
AV-unprocessed.smi:142-4

> <Gold.Version>
5.8.1

> <Gold.Id.Protein>
6NUR|6NUR_protein|mol2

> <Gold.PLP.Fitness>
64.4715

> <Gold.PLP.PLP>
-61.2942

> <Gold.PLP.part.hbond>
-2.0000

> <Gold.PLP.part.metal>
0.0000

> <Gold.PLP.part.buried>
-7.4346

> <Gold.PLP.part.nonpolar>
-53.8385

> <Gold.PLP.part.repulsive>
1.2117

> <Gold.PLP.ligand.clash>
0.0000

> <Gold.PLP.ligand.torsion>
1.0650

> <Gold.PLP.Chemscore.Hbond>
1.7360

> <Gold.PLP.Chemscore.CHOScore>
0.0000

> <Gold.PLP.Chemscore.Metal>
0.0000

> <Gold.Chemscore.Hbonds>
donor molecule, donor type, donor heavy atom, donor atom, acceptor molecule, acceptor atom, score
      P1  H  6896  6907       L1    20  0.72
      P1  H 10752 10765       L1     5  1.00

> <Gold.PLP.Chemscore.Internal.Correction>
0.0993

> <Gold.Rescore>
     Score         DG    S(hbond)    S(metal)    S(lipo)     H(rot)  DE(clash)    DE(int)     intcor
     16.52     -22.21       1.83        0.00     134.87       2.02       0.00       5.68       ----

> <Gold.Chemscore.Fitness>
16.5160

> <Gold.Chemscore.DG>
-22.2052

> <Gold.Chemscore.ZeroCoef>
-5.4800

> <Gold.Chemscore.Hbond>
1.8293

> <Gold.Chemscore.Metal>
0.0000

> <Gold.Chemscore.Lipo>
134.8738

> <Gold.Chemscore.Internal_Hbond>
0.0000

> <Gold.Chemscore.DEClash>
0.0048

> <Gold.Chemscore.DEInternal>
5.6845

> <Gold.Chemscore.Rot>
2.0175

> <Gold.Chemscore.Internal.Correction>
   9.000000E+99

> <Gold.Chemscore.Hbonds>
donor molecule, donor type, donor heavy atom, donor atom, acceptor molecule, acceptor atom, score
      P1  H  6896  6907       L1    20  0.67
      P1  H 10752 10765       L1     5  0.91

> <Gold.Chemscore.Hbond.Weighted>
-6.1098

> <Gold.Chemscore.Metal.Weighted>
-0.0000

> <Gold.Chemscore.Lipo.Weighted>
-15.7802

> <Gold.Chemscore.Internal_Hbond.Weighted>
0.0000

> <Gold.Chemscore.DEClash.Weighted>
0.0048

> <Gold.Chemscore.DEInternal.Weighted>
5.6845

> <Gold.Chemscore.Rot.Weighted>
5.1648

> <Gold.Chemscore.Internal.Correction.Weighted>
   9.000000E+99

> <Gold.Protein.RotatedTorsions>
[ 6907 6896 6895 6894 ] final -173.10 input  -60.11 | X-H torsion
[ 7974 7965 7964 7962 ] final   49.78 input  175.53 | X-H torsion
[ 8008 7997 7996 7995 ] final   98.40 input   59.86 | X-H torsion
[ 10167 10162 10161 10158 ] final  -45.21 input  -65.29 | X-H torsion
[ 10718 10713 10712 10709 ] final  162.77 input   66.30 | X-H torsion
[ 10763 10752 10751 10750 ] final  172.85 input  -60.55 | X-H torsion
[ 11005 11000 10999 10996 ] final   60.16 input  -57.11 | X-H torsion

> <Gold.Protein.ActiveResidues>
 VAL166  LYS551  ARG553  GLY616  TRP617  ASP618  TYR619  PRO620  LYS621  CYS622 
 ASP623  PHE694  ASN695  SER759  ASP760  ASP761  ALA762  ILE779  LEU786  VAL792 
 PHE793  MET794  SER795  GLU796  ALA797  LYS798  CYS799  TRP800  GLU811  SER814 

> <Gold.Protein.RotatedAtoms>
  151.5507  133.3418  159.2952 H   0  0  0  0  0  0  0  0  0  0  0  0  # atno 6907 bound_to 6896
  150.8480  134.7798  159.6997 H   0  0  0  0  0  0  0  0  0  0  0  0  # atno 6908 bound_to 6896
  152.4533  134.5354  159.9875 H   0  0  0  0  0  0  0  0  0  0  0  0  # atno 6909 bound_to 6896
  146.0076  139.4507  142.9976 H   0  0  0  0  0  0  0  0  0  0  0  0  # atno 7974 bound_to 7965
  156.1000  140.3244  155.7929 H   0  0  0  0  0  0  0  0  0  0  0  0  # atno 8008 bound_to 7997
  155.4853  140.0557  157.2978 H   0  0  0  0  0  0  0  0  0  0  0  0  # atno 8009 bound_to 7997
  154.4691  140.2003  156.0057 H   0  0  0  0  0  0  0  0  0  0  0  0  # atno 8010 bound_to 7997
  140.6867  143.2891  151.3606 H   0  0  0  0  0  0  0  0  0  0  0  0  # atno 10167 bound_to 10162
  157.1179  131.0485  151.2428 H   0  0  0  0  0  0  0  0  0  0  0  0  # atno 10718 bound_to 10713
  154.4318  135.2760  155.1907 H   0  0  0  0  0  0  0  0  0  0  0  0  # atno 10763 bound_to 10752
  154.3810  135.6087  153.5794 H   0  0  0  0  0  0  0  0  0  0  0  0  # atno 10764 bound_to 10752
  152.9836  135.5880  154.4631 H   0  0  0  0  0  0  0  0  0  0  0  0  # atno 10765 bound_to 10752
  140.0252  134.6094  155.9584 H   0  0  0  0  0  0  0  0  0  0  0  0  # atno 11005 bound_to 11000
  145.7392  141.0014  143.1310 LP  0  0  0  0  0  0  0  0  0  0  0  0  # atno 17320 bound_to 7965
  144.6941  139.9078  143.7462 LP  0  0  0  0  0  0  0  0  0  0  0  0  # atno 17321 bound_to 7965
  139.6231  144.0867  152.2410 LP  0  0  0  0  0  0  0  0  0  0  0  0  # atno 17342 bound_to 10162
  140.0318  144.6075  150.7482 LP  0  0  0  0  0  0  0  0  0  0  0  0  # atno 17343 bound_to 10162
  157.4502  130.7594  149.7144 LP  0  0  0  0  0  0  0  0  0  0  0  0  # atno 17370 bound_to 10713
  155.9835  130.4000  150.3359 LP  0  0  0  0  0  0  0  0  0  0  0  0  # atno 17371 bound_to 10713
  141.1798  133.6545  156.4974 LP  0  0  0  0  0  0  0  0  0  0  0  0  # atno 17394 bound_to 11000
  140.4319  134.7093  157.4946 LP  0  0  0  0  0  0  0  0  0  0  0  0  # atno 17395 bound_to 11000

$$$$
