AV-unprocessed.smi:1419|AV-procd|sdf|5785|dock5
  -GOLD-   22720 5433D 1   1.00000     0.00000
 Structure written by MMmdl.
 41 42  0  0  0  0  0  0  0  0  1 V2000
  154.1859  140.4790  161.1497 C   0  0  0  0  0  0  0  0  0  0  0  0
  153.1945  141.3236  160.3327 C   0  0  1  0  0  0  0  0  0  0  0  0
  153.7817  142.6780  159.8774 C   0  0  0  0  0  0  0  0  0  0  0  0
  152.7586  143.6394  159.5122 N   0  0  0  0  0  0  0  0  0  0  0  0
  151.8641  144.2780  160.3610 C   0  0  0  0  0  0  0  0  0  0  0  0
  151.0904  145.0981  159.5711 C   0  0  0  0  0  0  0  0  0  0  0  0
  151.4920  144.9842  158.2422 N   0  0  0  0  0  0  0  0  0  0  0  0
  152.4852  144.1056  158.2859 C   0  0  0  0  0  0  0  0  0  0  0  0
  152.7547  140.5507  159.1753 N   0  0  0  0  0  0  0  0  0  0  0  0
  151.6542  140.7922  158.4426 C   0  0  0  0  0  0  0  0  0  0  0  0
  150.8874  141.7217  158.6981 O   0  0  0  0  0  0  0  0  0  0  0  0
  151.4651  139.9379  157.4064 N   0  0  0  0  0  0  0  0  0  0  0  0
  152.4609  139.0414  156.8043 C   0  0  0  0  0  0  0  0  0  0  0  0
  152.7997  139.5729  155.3985 C   0  0  1  0  0  0  0  0  0  0  0  0
  153.7843  138.6603  154.6595 C   0  0  0  0  0  0  0  0  0  0  0  0
  151.6039  139.6549  154.6183 O   0  0  0  0  0  0  0  0  0  0  0  0
  150.5406  140.4252  155.1889 C   0  0  2  0  0  0  0  0  0  0  0  0
  150.8378  141.9342  155.1135 C   0  0  0  0  0  0  0  0  0  0  0  0
  150.2335  139.9169  156.6138 C   0  0  0  0  0  0  0  0  0  0  0  0
  154.4700  140.9790  162.0759 H   0  0  0  0  0  0  0  0  0  0  0  0
  155.0971  140.2813  160.5845 H   0  0  0  0  0  0  0  0  0  0  0  0
  153.7488  139.5182  161.4237 H   0  0  0  0  0  0  0  0  0  0  0  0
  152.3278  141.5144  160.9686 H   0  0  0  0  0  0  0  0  0  0  0  0
  154.3946  143.1101  160.6697 H   0  0  0  0  0  0  0  0  0  0  0  0
  154.4373  142.5424  159.0159 H   0  0  0  0  0  0  0  0  0  0  0  0
  151.8501  144.0991  161.4261 H   0  0  0  0  0  0  0  0  0  0  0  0
  150.2831  145.7570  159.8548 H   0  0  0  0  0  0  0  0  0  0  0  0
  153.0253  143.7910  157.4048 H   0  0  0  0  0  0  0  0  0  0  0  0
  153.3351  139.7701  158.9052 H   0  0  0  0  0  0  0  0  0  0  0  0
  153.3724  138.9351  157.3922 H   0  0  0  0  0  0  0  0  0  0  0  0
  152.0411  138.0365  156.7348 H   0  0  0  0  0  0  0  0  0  0  0  0
  153.2504  140.5625  155.4807 H   0  0  0  0  0  0  0  0  0  0  0  0
  154.7237  138.5714  155.2055 H   0  0  0  0  0  0  0  0  0  0  0  0
  154.0119  139.0554  153.6692 H   0  0  0  0  0  0  0  0  0  0  0  0
  153.3746  137.6579  154.5319 H   0  0  0  0  0  0  0  0  0  0  0  0
  149.6618  140.2403  154.5706 H   0  0  0  0  0  0  0  0  0  0  0  0
  149.9842  142.5137  155.4660 H   0  0  0  0  0  0  0  0  0  0  0  0
  151.0411  142.2381  154.0866 H   0  0  0  0  0  0  0  0  0  0  0  0
  151.6960  142.2210  155.7205 H   0  0  0  0  0  0  0  0  0  0  0  0
  149.8577  138.8937  156.5691 H   0  0  0  0  0  0  0  0  0  0  0  0
  149.4300  140.5062  157.0580 H   0  0  0  0  0  0  0  0  0  0  0  0
  1  2  1  0  0  0  0
  1 20  1  0  0  0  0
  1 21  1  0  0  0  0
  1 22  1  0  0  0  0
  2  3  1  0  0  0  0
  2  9  1  0  0  0  0
  2 23  1  0  0  0  0
  3  4  1  0  0  0  0
  3 24  1  0  0  0  0
  3 25  1  0  0  0  0
  4  8  1  0  0  0  0
  4  5  1  0  0  0  0
  5  6  2  0  0  0  0
  5 26  1  0  0  0  0
  6  7  1  0  0  0  0
  6 27  1  0  0  0  0
  7  8  2  0  0  0  0
  8 28  1  0  0  0  0
  9 10  1  0  0  0  0
  9 29  1  0  0  0  0
 10 11  2  0  0  0  0
 10 12  1  0  0  0  0
 12 19  1  0  0  0  0
 12 13  1  0  0  0  0
 13 14  1  0  0  0  0
 13 30  1  0  0  0  0
 13 31  1  0  0  0  0
 14 15  1  0  0  0  0
 14 16  1  0  0  0  0
 14 32  1  0  0  0  0
 15 33  1  0  0  0  0
 15 34  1  0  0  0  0
 15 35  1  0  0  0  0
 16 17  1  0  0  0  0
 17 18  1  0  0  0  0
 17 19  1  0  0  0  0
 17 36  1  0  0  0  0
 18 37  1  0  0  0  0
 18 38  1  0  0  0  0
 18 39  1  0  0  0  0
 19 40  1  0  0  0  0
 19 41  1  0  0  0  0
M  END
> <s_m_source_file>
AV-unprocessed.smi

> <i_m_source_file_index>
1419

> <i_lp_mmshare_version>
43012

> <i_f3d_flags>
0

> <s_epik_input>
W2NIXTFuW2NIXVtjSF1uMVtDSDJdW0NAQEhdKFtDSDNdKVtOSF1DKD1PKU4yW0NIMl1bQ0BASF0oW0NIM10pT1tDQEBIXShbQ0gzXSlbQ0gyXTI=

> <s_epik_cmdline>
J2VwaWtfcHl0aG9uJywgJy1waCcsICc3LjAnLCAnLXRuJywgJzgnLCAnLW1hJywgJzIwMCcsICctbWV0YWxfYmluZGluZycsICctaW1hZScsICc8aW5maWxlLm1hZT4nLCAnLW9tYWUnLCAnPG91dGZpbGUubWFlPic=

> <r_lp_tautomer_probability>
1

> <r_epik_Ionization_Penalty>
0.625124

> <r_epik_Ionization_Penalty_Charging>
0.625093

> <r_epik_Ionization_Penalty_Neutral>
3.17415e-05

> <r_epik_State_Penalty>
0.641455

> <r_epik_Charging_Adjusted_Penalty>
1.26655

> <i_epik_Tot_Q>
0

> <i_epik_Tot_abs_Q>
0

> <r_epik_Metal_State_Penalty>
0.307717

> <b_epik_Metal_Only>
0

> <s_lp_Force_Field>
OPLS_2005

> <r_lp_Energy>
31.3243

> <b_lp_Chiralities_Consistent>
1

> <s_lp_Variant>
AV-unprocessed.smi:1419-12

> <Gold.Version>
5.8.1

> <Gold.Id.Protein>
6NUR|6NUR_protein|mol2

> <Gold.PLP.Fitness>
43.2894

> <Gold.PLP.PLP>
-42.5258

> <Gold.PLP.part.hbond>
-1.5899

> <Gold.PLP.part.metal>
0.0000

> <Gold.PLP.part.buried>
-4.2386

> <Gold.PLP.part.nonpolar>
-36.7167

> <Gold.PLP.part.repulsive>
0.3282

> <Gold.PLP.ligand.clash>
0.0000

> <Gold.PLP.ligand.torsion>
0.5357

> <Gold.PLP.Chemscore.Hbond>
0.6000

> <Gold.PLP.Chemscore.CHOScore>
0.0000

> <Gold.PLP.Chemscore.Metal>
0.0000

> <Gold.Chemscore.Hbonds>
donor molecule, donor type, donor heavy atom, donor atom, acceptor molecule, acceptor atom, score
      P1  H  7989  7998       L1    16  0.25

> <Gold.PLP.Chemscore.Internal.Correction>
0.0350

> <Gold.Rescore>
     Score         DG    S(hbond)    S(metal)    S(lipo)     H(rot)  DE(clash)    DE(int)     intcor
     11.57     -12.45       0.01        0.00      93.76       1.58       0.06       0.82       ----

> <Gold.Chemscore.Fitness>
11.5708

> <Gold.Chemscore.DG>
-12.4499

> <Gold.Chemscore.ZeroCoef>
-5.4800

> <Gold.Chemscore.Hbond>
0.0109

> <Gold.Chemscore.Metal>
0.0000

> <Gold.Chemscore.Lipo>
93.7636

> <Gold.Chemscore.Internal_Hbond>
0.0000

> <Gold.Chemscore.DEClash>
0.0630

> <Gold.Chemscore.DEInternal>
0.8161

> <Gold.Chemscore.Rot>
1.5769

> <Gold.Chemscore.Internal.Correction>
   9.000000E+99

> <Gold.Chemscore.Hbond.Weighted>
-0.0365

> <Gold.Chemscore.Metal.Weighted>
-0.0000

> <Gold.Chemscore.Lipo.Weighted>
-10.9703

> <Gold.Chemscore.Internal_Hbond.Weighted>
0.0000

> <Gold.Chemscore.DEClash.Weighted>
0.0630

> <Gold.Chemscore.DEInternal.Weighted>
0.8161

> <Gold.Chemscore.Rot.Weighted>
4.0369

> <Gold.Chemscore.Internal.Correction.Weighted>
   9.000000E+99

> <Gold.Protein.RotatedTorsions>
[ 6907 6896 6895 6894 ] final  144.46 input  -60.11 | X-H torsion
[ 7974 7965 7964 7962 ] final   50.65 input  175.53 | X-H torsion
[ 8008 7997 7996 7995 ] final -127.13 input   59.86 | X-H torsion
[ 10167 10162 10161 10158 ] final   69.26 input  -65.29 | X-H torsion
[ 10718 10713 10712 10709 ] final  131.92 input   66.30 | X-H torsion
[ 10763 10752 10751 10750 ] final  179.52 input  -60.55 | X-H torsion
[ 11005 11000 10999 10996 ] final   12.78 input  -57.11 | X-H torsion

> <Gold.Protein.ActiveResidues>
 VAL166  LYS551  ARG553  GLY616  TRP617  ASP618  TYR619  PRO620  LYS621  CYS622 
 ASP623  PHE694  ASN695  SER759  ASP760  ASP761  ALA762  ILE779  LEU786  VAL792 
 PHE793  MET794  SER795  GLU796  ALA797  LYS798  CYS799  TRP800  GLU811  SER814 

> <Gold.Protein.RotatedAtoms>
  152.1934  133.4789  159.5019 H   0  0  0  0  0  0  0  0  0  0  0  0  # atno 6907 bound_to 6896
  150.6955  134.1684  159.4212 H   0  0  0  0  0  0  0  0  0  0  0  0  # atno 6908 bound_to 6896
  151.9599  135.0128  160.0597 H   0  0  0  0  0  0  0  0  0  0  0  0  # atno 6909 bound_to 6896
  145.9991  139.4420  143.0026 H   0  0  0  0  0  0  0  0  0  0  0  0  # atno 7974 bound_to 7965
  155.2411  140.0428  157.2975 H   0  0  0  0  0  0  0  0  0  0  0  0  # atno 8008 bound_to 7997
  154.5828  140.2405  155.8000 H   0  0  0  0  0  0  0  0  0  0  0  0  # atno 8009 bound_to 7997
  156.2205  140.2971  155.9949 H   0  0  0  0  0  0  0  0  0  0  0  0  # atno 8010 bound_to 7997
  140.0697  144.5163  150.7236 H   0  0  0  0  0  0  0  0  0  0  0  0  # atno 10167 bound_to 10162
  157.4921  131.1091  150.9542 H   0  0  0  0  0  0  0  0  0  0  0  0  # atno 10718 bound_to 10713
  154.5217  135.2794  155.1257 H   0  0  0  0  0  0  0  0  0  0  0  0  # atno 10763 bound_to 10752
  154.2812  135.6285  153.5351 H   0  0  0  0  0  0  0  0  0  0  0  0  # atno 10764 bound_to 10752
  152.9938  135.5651  154.5707 H   0  0  0  0  0  0  0  0  0  0  0  0  # atno 10765 bound_to 10752
  140.4882  134.0867  155.7765 H   0  0  0  0  0  0  0  0  0  0  0  0  # atno 11005 bound_to 11000
  145.7514  140.9971  143.1248 LP  0  0  0  0  0  0  0  0  0  0  0  0  # atno 17320 bound_to 7965
  144.6913  139.9219  143.7468 LP  0  0  0  0  0  0  0  0  0  0  0  0  # atno 17321 bound_to 7965
  140.7132  143.2522  151.4517 LP  0  0  0  0  0  0  0  0  0  0  0  0  # atno 17342 bound_to 10162
  139.5843  144.1639  152.2009 LP  0  0  0  0  0  0  0  0  0  0  0  0  # atno 17343 bound_to 10162
  157.0241  130.5685  149.5335 LP  0  0  0  0  0  0  0  0  0  0  0  0  # atno 17370 bound_to 10713
  156.0179  130.5274  150.8190 LP  0  0  0  0  0  0  0  0  0  0  0  0  # atno 17371 bound_to 10713
  141.1497  133.8990  157.2127 LP  0  0  0  0  0  0  0  0  0  0  0  0  # atno 17394 bound_to 11000
  139.9785  135.0106  156.9691 LP  0  0  0  0  0  0  0  0  0  0  0  0  # atno 17395 bound_to 11000

$$$$
