AV-unprocessed.smi:994|AV-procd|sdf|4339|dock2
  -GOLD-   22720 2233D 1   1.00000     0.00000
 Structure written by MMmdl.
 38 39  0  0  0  0  0  0  0  0  3 V2000
  150.3333  141.7169  155.6973 O   0  0  0  0  0  0  0  0  0  0  0  0
  150.8323  141.0087  156.5729 C   0  0  0  0  0  0  0  0  0  0  0  0
  151.1381  139.7138  156.3911 N   0  0  0  0  0  0  0  0  0  0  0  0
  150.9458  138.9422  155.1630 C   0  0  2  0  0  0  0  0  0  0  0  0
  149.5379  138.3114  155.0991 C   0  0  0  0  0  0  0  0  0  0  0  0
  148.5956  138.9530  154.1109 C   0  0  0  0  0  0  0  0  0  0  0  0
  148.1682  140.2622  153.9889 C   0  0  0  0  0  0  0  0  0  0  0  0
  147.2715  140.3086  152.9339 N   0  0  0  0  0  0  0  0  0  0  0  0
  147.1737  139.0690  152.4571 C   0  0  0  0  0  0  0  0  0  0  0  0
  147.9546  138.2206  153.1227 N   0  3  0  0  0  0  0  0  0  0  0  0
  152.0688  137.9122  155.0196 C   0  0  0  0  0  0  0  0  0  0  0  0
  153.2427  138.3282  155.1377 O   0  0  0  0  0  0  0  0  0  0  0  0
  151.7361  136.7271  154.8003 O   0  5  0  0  0  0  0  0  0  0  0  0
  151.1150  141.5865  157.9651 C   0  0  0  0  0  0  0  0  0  0  0  0
  151.5141  143.0747  157.8698 C   0  0  0  0  0  0  0  0  0  0  0  0
  151.8087  143.6639  159.2589 C   0  0  0  0  0  0  0  0  0  0  0  0
  152.8924  142.8544  159.9889 C   0  0  0  0  0  0  0  0  0  0  0  0
  152.5109  141.3681  160.0797 C   0  0  0  0  0  0  0  0  0  0  0  0
  152.2152  140.7819  158.6894 C   0  0  0  0  0  0  0  0  0  0  0  0
  146.7733  141.1227  152.6031 H   0  0  0  0  0  0  0  0  0  0  0  0
  151.5574  139.2154  157.1634 H   0  0  0  0  0  0  0  0  0  0  0  0
  151.0413  139.6189  154.3111 H   0  0  0  0  0  0  0  0  0  0  0  0
  149.6322  137.2622  154.8164 H   0  0  0  0  0  0  0  0  0  0  0  0
  149.0723  138.3151  156.0860 H   0  0  0  0  0  0  0  0  0  0  0  0
  148.4070  141.1492  154.5572 H   0  0  0  0  0  0  0  0  0  0  0  0
  146.5362  138.7856  151.6323 H   0  0  0  0  0  0  0  0  0  0  0  0
  150.2001  141.5172  158.5571 H   0  0  0  0  0  0  0  0  0  0  0  0
  152.3968  143.1881  157.2381 H   0  0  0  0  0  0  0  0  0  0  0  0
  150.7182  143.6479  157.3925 H   0  0  0  0  0  0  0  0  0  0  0  0
  152.1237  144.7033  159.1624 H   0  0  0  0  0  0  0  0  0  0  0  0
  150.8947  143.6718  159.8542 H   0  0  0  0  0  0  0  0  0  0  0  0
  153.8414  142.9557  159.4611 H   0  0  0  0  0  0  0  0  0  0  0  0
  153.0497  143.2605  160.9885 H   0  0  0  0  0  0  0  0  0  0  0  0
  153.3151  140.8065  160.5561 H   0  0  0  0  0  0  0  0  0  0  0  0
  151.6341  141.2537  160.7183 H   0  0  0  0  0  0  0  0  0  0  0  0
  151.9117  139.7391  158.7909 H   0  0  0  0  0  0  0  0  0  0  0  0
  153.1332  140.7792  158.0992 H   0  0  0  0  0  0  0  0  0  0  0  0
  148.0473  137.2285  152.9565 H   0  0  0  0  0  0  0  0  0  0  0  0
  1  2  2  0  0  0  0
  2  3  1  0  0  0  0
  2 14  1  0  0  0  0
  3  4  1  0  0  0  0
  3 21  1  0  0  0  0
  4  5  1  0  0  0  0
  4 11  1  0  0  0  0
  4 22  1  0  0  0  0
  5  6  1  0  0  0  0
  5 23  1  0  0  0  0
  5 24  1  0  0  0  0
  6 10  1  0  0  0  0
  6  7  2  0  0  0  0
  7  8  1  0  0  0  0
  7 25  1  0  0  0  0
  8 20  1  0  0  0  0
  8  9  1  0  0  0  0
  9 10  2  0  0  0  0
  9 26  1  0  0  0  0
 10 38  1  0  0  0  0
 11 12  2  0  0  0  0
 11 13  1  0  0  0  0
 14 19  1  0  0  0  0
 14 15  1  0  0  0  0
 14 27  1  0  0  0  0
 15 16  1  0  0  0  0
 15 28  1  0  0  0  0
 15 29  1  0  0  0  0
 16 17  1  0  0  0  0
 16 30  1  0  0  0  0
 16 31  1  0  0  0  0
 17 18  1  0  0  0  0
 17 32  1  0  0  0  0
 17 33  1  0  0  0  0
 18 19  1  0  0  0  0
 18 34  1  0  0  0  0
 18 35  1  0  0  0  0
 19 36  1  0  0  0  0
 19 37  1  0  0  0  0
M  CHG  1  10   1
M  CHG  1  13  -1
M  END
> <s_m_source_file>
AV-unprocessed.smi

> <i_m_source_file_index>
994

> <i_lp_mmshare_version>
43012

> <i_f3d_flags>
0

> <s_epik_input>
W0NIMl0xW0NIMl1bQ0gyXVtDSDJdW0NIMl1bQ0hdMUMoPU8pW05IXVtDQEBIXShDKD1PKVtPSF0pW0NIMl1jMltjSF1bbkhdW2NIXW4y

> <s_epik_cmdline>
J2VwaWtfcHl0aG9uJywgJy1waCcsICc3LjAnLCAnLXRuJywgJzgnLCAnLW1hJywgJzIwMCcsICctbWV0YWxfYmluZGluZycsICctaW1hZScsICc8aW5maWxlLm1hZT4nLCAnLW9tYWUnLCAnPG91dGZpbGUubWFlPic=

> <r_lp_tautomer_probability>
1

> <r_epik_Ionization_Penalty>
0.469853

> <r_epik_Ionization_Penalty_Charging>
5.5863e-05

> <r_epik_Ionization_Penalty_Neutral>
0.469797

> <r_epik_State_Penalty>
0.377582

> <r_epik_Charging_Adjusted_Penalty>
0.377638

> <i_epik_Tot_Q>
0

> <i_epik_Tot_abs_Q>
2

> <r_epik_Metal_State_Penalty>
0.796804

> <b_epik_Metal_Only>
0

> <s_lp_Force_Field>
OPLS_2005

> <r_lp_Energy>
7.64934

> <b_lp_Chiralities_Consistent>
1

> <s_lp_Variant>
AV-unprocessed.smi:994-1

> <Gold.Version>
5.8.1

> <Gold.Id.Protein>
6NUR|6NUR_protein|mol2

> <Gold.PLP.Fitness>
54.3869

> <Gold.PLP.PLP>
-40.3250

> <Gold.PLP.part.hbond>
-4.5494

> <Gold.PLP.part.metal>
0.0000

> <Gold.PLP.part.buried>
-2.7570

> <Gold.PLP.part.nonpolar>
-34.1651

> <Gold.PLP.part.repulsive>
1.3864

> <Gold.PLP.ligand.clash>
0.0000

> <Gold.PLP.ligand.torsion>
1.8683

> <Gold.PLP.Chemscore.Hbond>
5.8880

> <Gold.PLP.Chemscore.CHOScore>
0.0000

> <Gold.PLP.Chemscore.Metal>
0.0000

> <Gold.Chemscore.Hbonds>
donor molecule, donor type, donor heavy atom, donor atom, acceptor molecule, acceptor atom, score
      L1  H    10    38       P1  7948  1.41
      P1  H  7997  8008       L1    12  0.45
      P1  H 10752 10764       L1    13  1.95

> <Gold.PLP.Chemscore.Internal.Correction>
0.1346

> <Gold.Rescore>
     Score         DG    S(hbond)    S(metal)    S(lipo)     H(rot)  DE(clash)    DE(int)     intcor
     15.49     -17.16       2.66        0.00      83.43       2.72       0.26       1.41       ----

> <Gold.Chemscore.Fitness>
15.4850

> <Gold.Chemscore.DG>
-17.1588

> <Gold.Chemscore.ZeroCoef>
-5.4800

> <Gold.Chemscore.Hbond>
2.6593

> <Gold.Chemscore.Metal>
0.0000

> <Gold.Chemscore.Lipo>
83.4340

> <Gold.Chemscore.Internal_Hbond>
0.0000

> <Gold.Chemscore.DEClash>
0.2593

> <Gold.Chemscore.DEInternal>
1.4144

> <Gold.Chemscore.Rot>
2.7208

> <Gold.Chemscore.Internal.Correction>
   9.000000E+99

> <Gold.Chemscore.Hbonds>
donor molecule, donor type, donor heavy atom, donor atom, acceptor molecule, acceptor atom, score
      L1  H    10    38       P1  7948  0.70
      P1  H  7997  8008       L1    12  0.22
      P1  H 10752 10764       L1    13  0.87

> <Gold.Chemscore.Hbond.Weighted>
-8.8822

> <Gold.Chemscore.Metal.Weighted>
-0.0000

> <Gold.Chemscore.Lipo.Weighted>
-9.7618

> <Gold.Chemscore.Internal_Hbond.Weighted>
0.0000

> <Gold.Chemscore.DEClash.Weighted>
0.2593

> <Gold.Chemscore.DEInternal.Weighted>
1.4144

> <Gold.Chemscore.Rot.Weighted>
6.9652

> <Gold.Chemscore.Internal.Correction.Weighted>
   9.000000E+99

> <Gold.Protein.RotatedTorsions>
[ 6907 6896 6895 6894 ] final  175.77 input  -60.11 | X-H torsion
[ 7974 7965 7964 7962 ] final  105.07 input  175.53 | X-H torsion
[ 8008 7997 7996 7995 ] final  -20.57 input   59.86 | X-H torsion
[ 10167 10162 10161 10158 ] final  -26.42 input  -65.29 | X-H torsion
[ 10718 10713 10712 10709 ] final  -92.47 input   66.30 | X-H torsion
[ 10763 10752 10751 10750 ] final  -83.66 input  -60.55 | X-H torsion
[ 11005 11000 10999 10996 ] final   -9.84 input  -57.11 | X-H torsion

> <Gold.Protein.ActiveResidues>
 VAL166  LYS551  ARG553  GLY616  TRP617  ASP618  TYR619  PRO620  LYS621  CYS622 
 ASP623  PHE694  ASN695  SER759  ASP760  ASP761  ALA762  ILE779  LEU786  VAL792 
 PHE793  MET794  SER795  GLU796  ALA797  LYS798  CYS799  TRP800  GLU811  SER814 

> <Gold.Protein.RotatedAtoms>
  151.7309  133.3317  159.3339 H   0  0  0  0  0  0  0  0  0  0  0  0  # atno 6907 bound_to 6896
  150.7613  134.6364  159.6223 H   0  0  0  0  0  0  0  0  0  0  0  0  # atno 6908 bound_to 6896
  152.3593  134.6898  160.0264 H   0  0  0  0  0  0  0  0  0  0  0  0  # atno 6909 bound_to 6896
  145.3244  139.2503  143.3694 H   0  0  0  0  0  0  0  0  0  0  0  0  # atno 7974 bound_to 7965
  154.4761  140.2058  155.9875 H   0  0  0  0  0  0  0  0  0  0  0  0  # atno 8008 bound_to 7997
  156.1091  140.3232  155.8018 H   0  0  0  0  0  0  0  0  0  0  0  0  # atno 8009 bound_to 7997
  155.4665  140.0528  157.2975 H   0  0  0  0  0  0  0  0  0  0  0  0  # atno 8010 bound_to 7997
  140.7283  143.4180  151.0997 H   0  0  0  0  0  0  0  0  0  0  0  0  # atno 10167 bound_to 10162
  156.0002  130.4988  150.5630 H   0  0  0  0  0  0  0  0  0  0  0  0  # atno 10718 bound_to 10713
  154.5904  135.5548  153.7272 H   0  0  0  0  0  0  0  0  0  0  0  0  # atno 10763 bound_to 10752
  153.0114  135.6342  154.1858 H   0  0  0  0  0  0  0  0  0  0  0  0  # atno 10764 bound_to 10752
  154.1798  135.2887  155.3035 H   0  0  0  0  0  0  0  0  0  0  0  0  # atno 10765 bound_to 10752
  140.7384  133.8691  155.8948 H   0  0  0  0  0  0  0  0  0  0  0  0  # atno 11005 bound_to 11000
  146.3070  140.3809  142.8684 LP  0  0  0  0  0  0  0  0  0  0  0  0  # atno 17320 bound_to 7965
  144.8913  140.7527  143.5925 LP  0  0  0  0  0  0  0  0  0  0  0  0  # atno 17321 bound_to 7965
  139.7822  143.8339  152.3139 LP  0  0  0  0  0  0  0  0  0  0  0  0  # atno 17342 bound_to 10162
  139.8294  144.7260  150.9470 LP  0  0  0  0  0  0  0  0  0  0  0  0  # atno 17343 bound_to 10162
  157.3536  131.0738  151.1693 LP  0  0  0  0  0  0  0  0  0  0  0  0  # atno 17370 bound_to 10713
  157.2501  130.6610  149.5928 LP  0  0  0  0  0  0  0  0  0  0  0  0  # atno 17371 bound_to 10713
  140.9859  134.1344  157.4453 LP  0  0  0  0  0  0  0  0  0  0  0  0  # atno 17394 bound_to 11000
  139.8811  135.0025  156.6131 LP  0  0  0  0  0  0  0  0  0  0  0  0  # atno 17395 bound_to 11000

$$$$
