AV-unprocessed.smi:3212|AV-procd|sdf|12279|dock1
  -GOLD-   2272018113D 1   1.00000     0.00000
 Structure written by MMmdl.
 40 40  0  0  0  0  0  0  0  0  2 V2000
  146.8281  139.5952  151.3191 C   0  0  0  0  0  0  0  0  0  0  0  0
  146.2990  138.4358  152.1772 C   0  0  1  0  0  0  0  0  0  0  0  0
  146.4181  137.1634  151.4288 N   0  3  0  0  0  0  0  0  0  0  0  0
  145.4683  136.1060  151.8358 C   0  0  0  0  0  0  0  0  0  0  0  0
  144.8342  135.4356  150.6092 C   0  0  0  0  0  0  0  0  0  0  0  0
  144.9310  133.9906  150.6780 N   0  0  0  0  0  0  0  0  0  0  0  0
  143.9127  133.0609  150.7025 C   0  0  0  0  0  0  0  0  0  0  0  0
  144.4921  131.8263  150.7694 C   0  0  0  0  0  0  0  0  0  0  0  0
  145.8871  132.1070  150.7773 C   0  0  0  0  0  0  0  0  0  0  0  0
  146.1463  133.4037  150.7222 N   0  0  0  0  0  0  0  0  0  0  0  0
  147.0545  138.3847  153.5124 C   0  0  0  0  0  0  0  0  0  0  0  0
  146.4367  138.2059  154.5622 O   0  0  0  0  0  0  0  0  0  0  0  0
  148.3897  138.5334  153.4427 N   0  0  0  0  0  0  0  0  0  0  0  0
  149.3651  138.5322  154.5397 C   0  0  0  0  0  0  0  0  0  0  0  0
  149.0461  137.3123  155.4215 C   0  0  0  0  0  0  0  0  0  0  0  0
  149.2302  139.8133  155.3897 C   0  0  0  0  0  0  0  0  0  0  0  0
  150.8009  138.3913  153.9915 C   0  0  0  0  0  0  0  0  0  0  0  0
  146.7317  140.5505  151.8371 H   0  0  0  0  0  0  0  0  0  0  0  0
  146.2712  139.6755  150.3849 H   0  0  0  0  0  0  0  0  0  0  0  0
  147.8808  139.4591  151.0663 H   0  0  0  0  0  0  0  0  0  0  0  0
  145.2405  138.6166  152.3741 H   0  0  0  0  0  0  0  0  0  0  0  0
  146.2563  137.3596  150.4515 H   0  0  0  0  0  0  0  0  0  0  0  0
  145.9874  135.3601  152.4393 H   0  0  0  0  0  0  0  0  0  0  0  0
  144.6908  136.5429  152.4639 H   0  0  0  0  0  0  0  0  0  0  0  0
  143.7815  135.7095  150.5270 H   0  0  0  0  0  0  0  0  0  0  0  0
  145.3230  135.7718  149.6935 H   0  0  0  0  0  0  0  0  0  0  0  0
  142.8725  133.3505  150.6716 H   0  0  0  0  0  0  0  0  0  0  0  0
  143.9956  130.8680  150.8055 H   0  0  0  0  0  0  0  0  0  0  0  0
  146.7130  131.4124  150.8209 H   0  0  0  0  0  0  0  0  0  0  0  0
  148.7812  138.6647  152.5210 H   0  0  0  0  0  0  0  0  0  0  0  0
  149.7332  137.2429  156.2658 H   0  0  0  0  0  0  0  0  0  0  0  0
  149.1258  136.3811  154.8588 H   0  0  0  0  0  0  0  0  0  0  0  0
  148.0348  137.3661  155.8269 H   0  0  0  0  0  0  0  0  0  0  0  0
  148.2109  139.9416  155.7558 H   0  0  0  0  0  0  0  0  0  0  0  0
  149.4945  140.7094  154.8282 H   0  0  0  0  0  0  0  0  0  0  0  0
  149.8879  139.7773  156.2588 H   0  0  0  0  0  0  0  0  0  0  0  0
  151.5223  138.2921  154.8032 H   0  0  0  0  0  0  0  0  0  0  0  0
  151.1034  139.2568  153.4021 H   0  0  0  0  0  0  0  0  0  0  0  0
  150.8996  137.5092  153.3576 H   0  0  0  0  0  0  0  0  0  0  0  0
  147.3616  136.8184  151.5369 H   0  0  0  0  0  0  0  0  0  0  0  0
  1  2  1  0  0  0  0
  1 18  1  0  0  0  0
  1 19  1  0  0  0  0
  1 20  1  0  0  0  0
  2  3  1  0  0  0  0
  2 11  1  0  0  0  0
  2 21  1  0  0  0  0
  3  4  1  0  0  0  0
  3 22  1  0  0  0  0
  3 40  1  0  0  0  0
  4  5  1  0  0  0  0
  4 23  1  0  0  0  0
  4 24  1  0  0  0  0
  5  6  1  0  0  0  0
  5 25  1  0  0  0  0
  5 26  1  0  0  0  0
  6 10  1  0  0  0  0
  6  7  1  0  0  0  0
  7  8  2  0  0  0  0
  7 27  1  0  0  0  0
  8  9  1  0  0  0  0
  8 28  1  0  0  0  0
  9 10  2  0  0  0  0
  9 29  1  0  0  0  0
 11 12  2  0  0  0  0
 11 13  1  0  0  0  0
 13 14  1  0  0  0  0
 13 30  1  0  0  0  0
 14 15  1  0  0  0  0
 14 16  1  0  0  0  0
 14 17  1  0  0  0  0
 15 31  1  0  0  0  0
 15 32  1  0  0  0  0
 15 33  1  0  0  0  0
 16 34  1  0  0  0  0
 16 35  1  0  0  0  0
 16 36  1  0  0  0  0
 17 37  1  0  0  0  0
 17 38  1  0  0  0  0
 17 39  1  0  0  0  0
M  CHG  1   3   1
M  END
> <s_m_source_file>
AV-unprocessed.smi

> <i_m_source_file_index>
3212

> <i_lp_mmshare_version>
43012

> <i_f3d_flags>
0

> <s_epik_input>
W0NIM11DKFtDSDNdKShbQ0gzXSlbTkhdQyg9TylbQ0BIXShbQ0gzXSlbTkhdW0NIMl1bQ0gyXW4xW2NIXVtjSF1bY0hdbjE=

> <s_epik_cmdline>
J2VwaWtfcHl0aG9uJywgJy1waCcsICc3LjAnLCAnLXRuJywgJzgnLCAnLW1hJywgJzIwMCcsICctbWV0YWxfYmluZGluZycsICctaW1hZScsICc8aW5maWxlLm1hZT4nLCAnLW9tYWUnLCAnPG91dGZpbGUubWFlPic=

> <r_lp_tautomer_probability>
1

> <r_epik_Ionization_Penalty>
0.198377

> <r_epik_Ionization_Penalty_Charging>
0.198374

> <r_epik_Ionization_Penalty_Neutral>
3.0924e-06

> <r_epik_State_Penalty>
0.188176

> <r_epik_Charging_Adjusted_Penalty>
0.38655

> <i_epik_Tot_Q>
1

> <i_epik_Tot_abs_Q>
1

> <r_epik_Metal_State_Penalty>
0.188456

> <b_epik_Metal_Only>
0

> <s_lp_Force_Field>
OPLS_2005

> <r_lp_Energy>
5.64446

> <b_lp_Chiralities_Consistent>
1

> <s_lp_Variant>
AV-unprocessed.smi:3212-2

> <Gold.Version>
5.8.1

> <Gold.Id.Protein>
6NUR|6NUR_protein|mol2

> <Gold.PLP.Fitness>
44.2651

> <Gold.PLP.PLP>
-32.4264

> <Gold.PLP.part.hbond>
-3.0206

> <Gold.PLP.part.metal>
0.0000

> <Gold.PLP.part.buried>
-3.7945

> <Gold.PLP.part.nonpolar>
-26.9287

> <Gold.PLP.part.repulsive>
0.4154

> <Gold.PLP.ligand.clash>
0.0000

> <Gold.PLP.ligand.torsion>
1.5925

> <Gold.PLP.Chemscore.Hbond>
2.9280

> <Gold.PLP.Chemscore.CHOScore>
2.0000

> <Gold.PLP.Chemscore.Metal>
0.0000

> <Gold.Chemscore.Hbonds>
donor molecule, donor type, donor heavy atom, donor atom, acceptor molecule, acceptor atom, score
      L1  H     3    40       P1  7948  2.00
      L1  H    13    30       P1  7957  0.81
      L1  C     7    27       P1 10186  1.00
      L1  C     9    29       P1 10747  1.00

> <Gold.PLP.Chemscore.Internal.Correction>
0.2397

> <Gold.Rescore>
     Score         DG    S(hbond)    S(metal)    S(lipo)     H(rot)  DE(clash)    DE(int)     intcor
     13.13     -16.54       1.96        0.00      83.79       2.07       1.16       2.24       ----

> <Gold.Chemscore.Fitness>
13.1347

> <Gold.Chemscore.DG>
-16.5373

> <Gold.Chemscore.ZeroCoef>
-5.4800

> <Gold.Chemscore.Hbond>
1.9588

> <Gold.Chemscore.Metal>
0.0000

> <Gold.Chemscore.Lipo>
83.7897

> <Gold.Chemscore.Internal_Hbond>
0.0000

> <Gold.Chemscore.DEClash>
1.1620

> <Gold.Chemscore.DEInternal>
2.2406

> <Gold.Chemscore.Rot>
2.0659

> <Gold.Chemscore.Internal.Correction>
   9.000000E+99

> <Gold.Chemscore.Hbonds>
donor molecule, donor type, donor heavy atom, donor atom, acceptor molecule, acceptor atom, score
      L1  H     3    40       P1  7948  1.00
      L1  H    13    30       P1  7957  0.72

> <Gold.Chemscore.Hbond.Weighted>
-6.5425

> <Gold.Chemscore.Metal.Weighted>
-0.0000

> <Gold.Chemscore.Lipo.Weighted>
-9.8034

> <Gold.Chemscore.Internal_Hbond.Weighted>
0.0000

> <Gold.Chemscore.DEClash.Weighted>
1.1620

> <Gold.Chemscore.DEInternal.Weighted>
2.2406

> <Gold.Chemscore.Rot.Weighted>
5.2886

> <Gold.Chemscore.Internal.Correction.Weighted>
   9.000000E+99

> <Gold.Protein.RotatedTorsions>
[ 6907 6896 6895 6894 ] final -102.24 input  -60.11 | X-H torsion
[ 7974 7965 7964 7962 ] final -109.02 input  175.53 | X-H torsion
[ 8008 7997 7996 7995 ] final   94.73 input   59.86 | X-H torsion
[ 10167 10162 10161 10158 ] final -171.19 input  -65.29 | X-H torsion
[ 10718 10713 10712 10709 ] final  -69.05 input   66.30 | X-H torsion
[ 10763 10752 10751 10750 ] final  -86.13 input  -60.55 | X-H torsion
[ 11005 11000 10999 10996 ] final   79.22 input  -57.11 | X-H torsion

> <Gold.Protein.ActiveResidues>
 VAL166  LYS551  ARG553  GLY616  TRP617  ASP618  TYR619  PRO620  LYS621  CYS622 
 ASP623  PHE694  ASN695  SER759  ASP760  ASP761  ALA762  ILE779  LEU786  VAL792 
 PHE793  MET794  SER795  GLU796  ALA797  LYS798  CYS799  TRP800  GLU811  SER814 

> <Gold.Protein.RotatedAtoms>
  150.7188  134.0611  159.3831 H   0  0  0  0  0  0  0  0  0  0  0  0  # atno 6907 bound_to 6896
  151.8591  135.0528  160.0476 H   0  0  0  0  0  0  0  0  0  0  0  0  # atno 6908 bound_to 6896
  152.2731  133.5365  159.5488 H   0  0  0  0  0  0  0  0  0  0  0  0  # atno 6909 bound_to 6896
  145.1857  140.8992  143.3454 H   0  0  0  0  0  0  0  0  0  0  0  0  # atno 7974 bound_to 7965
  156.0611  140.3296  155.7462 H   0  0  0  0  0  0  0  0  0  0  0  0  # atno 8008 bound_to 7997
  155.5453  140.0605  157.2879 H   0  0  0  0  0  0  0  0  0  0  0  0  # atno 8009 bound_to 7997
  154.4482  140.1903  156.0621 H   0  0  0  0  0  0  0  0  0  0  0  0  # atno 8010 bound_to 7997
  139.5817  144.1409  152.1523 H   0  0  0  0  0  0  0  0  0  0  0  0  # atno 10167 bound_to 10162
  156.0474  130.4305  150.2091 H   0  0  0  0  0  0  0  0  0  0  0  0  # atno 10718 bound_to 10713
  154.6190  135.5460  153.7554 H   0  0  0  0  0  0  0  0  0  0  0  0  # atno 10763 bound_to 10752
  153.0229  135.6408  154.1468 H   0  0  0  0  0  0  0  0  0  0  0  0  # atno 10764 bound_to 10752
  154.1403  135.2909  155.3142 H   0  0  0  0  0  0  0  0  0  0  0  0  # atno 10765 bound_to 10752
  139.9181  134.7825  156.1750 H   0  0  0  0  0  0  0  0  0  0  0  0  # atno 11005 bound_to 11000
  145.0091  139.3526  143.6129 LP  0  0  0  0  0  0  0  0  0  0  0  0  # atno 17320 bound_to 7965
  146.3445  139.9347  142.8749 LP  0  0  0  0  0  0  0  0  0  0  0  0  # atno 17321 bound_to 7965
  140.0964  144.5577  150.7019 LP  0  0  0  0  0  0  0  0  0  0  0  0  # atno 17342 bound_to 10162
  140.7094  143.2493  151.4627 LP  0  0  0  0  0  0  0  0  0  0  0  0  # atno 17343 bound_to 10162
  157.0179  130.9970  151.3348 LP  0  0  0  0  0  0  0  0  0  0  0  0  # atno 17370 bound_to 10713
  157.5365  130.8092  149.7977 LP  0  0  0  0  0  0  0  0  0  0  0  0  # atno 17371 bound_to 10713
  141.0677  133.6811  156.2077 LP  0  0  0  0  0  0  0  0  0  0  0  0  # atno 17394 bound_to 11000
  140.6558  134.5019  157.5580 LP  0  0  0  0  0  0  0  0  0  0  0  0  # atno 17395 bound_to 11000

$$$$
