AV-unprocessed.smi:198|AV-procd|sdf|1557|dock6
  -GOLD-   2262019433D 1   1.00000     0.00000
 Structure written by MMmdl.
 59 63  0  0  0  0  0  0  0  0  2 V2000
  146.8845  129.0419  152.7596 C   0  0  0  0  0  0  0  0  0  0  0  0
  146.9724  130.3842  152.1452 N   0  3  2  0  0  0  0  0  0  0  0  0
  147.4491  131.4109  153.1027 C   0  0  0  0  0  0  0  0  0  0  0  0
  147.6504  132.7620  152.3984 C   0  0  0  0  0  0  0  0  0  0  0  0
  146.3588  133.2509  151.7002 C   0  0  1  0  0  0  0  0  0  0  0  0
  145.8558  132.1379  150.7476 C   0  0  2  0  0  0  0  0  0  0  0  0
  144.5575  132.5713  150.0383 C   0  0  0  0  0  0  0  0  0  0  0  0
  143.4932  133.0317  151.0461 C   0  0  0  0  0  0  0  0  0  0  0  0
  144.0588  134.1092  151.9820 C   0  0  0  0  0  0  0  0  0  0  0  0
  145.2916  133.6597  152.6271 N   0  0  0  0  0  0  0  0  0  0  0  0
  145.6519  134.5076  153.6159 C   0  0  0  0  0  0  0  0  0  0  0  0
  145.8954  133.9650  154.8336 N   0  0  0  0  0  0  0  0  0  0  0  0
  146.2489  134.7521  155.8545 C   0  0  0  0  0  0  0  0  0  0  0  0
  146.4126  136.0767  155.8700 N   0  0  0  0  0  0  0  0  0  0  0  0
  146.1679  136.6243  154.6446 C   0  0  0  0  0  0  0  0  0  0  0  0
  145.7813  135.9176  153.4713 C   0  0  0  0  0  0  0  0  0  0  0  0
  145.6039  136.8059  152.4181 N   0  0  0  0  0  0  0  0  0  0  0  0
  145.8622  137.9733  152.9415 C   0  0  0  0  0  0  0  0  0  0  0  0
  146.2363  137.9543  154.2667 N   0  0  0  0  0  0  0  0  0  0  0  0
  146.5242  139.0926  155.0903 C   0  0  0  0  0  0  0  0  0  0  0  0
  145.6368  140.3405  155.0498 C   0  0  0  0  0  0  0  0  0  0  0  0
  146.8754  141.2440  155.2377 C   0  0  0  0  0  0  0  0  0  0  0  0
  146.9532  142.4504  154.2891 C   0  0  0  0  0  0  0  0  0  0  0  0
  148.2910  142.8508  154.0715 O   0  0  0  0  0  0  0  0  0  0  0  0
  147.1562  141.7689  156.6634 C   0  0  0  0  0  0  0  0  0  0  0  0
  148.4635  142.2808  156.8251 O   0  0  0  0  0  0  0  0  0  0  0  0
  147.7032  140.0209  154.7821 C   0  0  0  0  0  0  0  0  0  0  0  0
  145.7064  130.7863  151.4847 C   0  0  0  0  0  0  0  0  0  0  0  0
  146.1494  129.0276  153.5654 H   0  0  0  0  0  0  0  0  0  0  0  0
  147.8491  128.7425  153.1712 H   0  0  0  0  0  0  0  0  0  0  0  0
  146.5948  128.2966  152.0181 H   0  0  0  0  0  0  0  0  0  0  0  0
  146.7363  131.5118  153.9226 H   0  0  0  0  0  0  0  0  0  0  0  0
  148.3935  131.0878  153.5424 H   0  0  0  0  0  0  0  0  0  0  0  0
  148.0315  133.5012  153.1033 H   0  0  0  0  0  0  0  0  0  0  0  0
  148.4337  132.6514  151.6476 H   0  0  0  0  0  0  0  0  0  0  0  0
  146.6118  134.1216  151.0940 H   0  0  0  0  0  0  0  0  0  0  0  0
  146.6116  131.9958  149.9735 H   0  0  0  0  0  0  0  0  0  0  0  0
  144.7795  133.3942  149.3575 H   0  0  0  0  0  0  0  0  0  0  0  0
  144.1684  131.7613  149.4208 H   0  0  0  0  0  0  0  0  0  0  0  0
  142.6235  133.4209  150.5163 H   0  0  0  0  0  0  0  0  0  0  0  0
  143.1372  132.1842  151.6322 H   0  0  0  0  0  0  0  0  0  0  0  0
  144.2597  135.0185  151.4136 H   0  0  0  0  0  0  0  0  0  0  0  0
  143.3130  134.3653  152.7361 H   0  0  0  0  0  0  0  0  0  0  0  0
  146.4265  134.2490  156.7936 H   0  0  0  0  0  0  0  0  0  0  0  0
  145.7889  138.8867  152.3690 H   0  0  0  0  0  0  0  0  0  0  0  0
  146.5969  138.7072  156.1080 H   0  0  0  0  0  0  0  0  0  0  0  0
  145.1590  140.4801  154.0786 H   0  0  0  0  0  0  0  0  0  0  0  0
  144.9036  140.3967  155.8548 H   0  0  0  0  0  0  0  0  0  0  0  0
  146.4882  142.2290  153.3278 H   0  0  0  0  0  0  0  0  0  0  0  0
  146.4154  143.3048  154.7009 H   0  0  0  0  0  0  0  0  0  0  0  0
  148.5339  143.4675  154.7452 H   0  0  0  0  0  0  0  0  0  0  0  0
  146.4558  142.5622  156.9264 H   0  0  0  0  0  0  0  0  0  0  0  0
  147.0240  140.9791  157.4036 H   0  0  0  0  0  0  0  0  0  0  0  0
  148.5085  143.1275  156.4075 H   0  0  0  0  0  0  0  0  0  0  0  0
  148.5959  139.8233  155.3769 H   0  0  0  0  0  0  0  0  0  0  0  0
  147.9445  140.0408  153.7182 H   0  0  0  0  0  0  0  0  0  0  0  0
  145.4135  130.0139  150.7721 H   0  0  0  0  0  0  0  0  0  0  0  0
  144.9177  130.8361  152.2365 H   0  0  0  0  0  0  0  0  0  0  0  0
  147.6703  130.3215  151.4176 H   0  0  0  0  0  0  0  0  0  0  0  0
  1  2  1  0  0  0  0
  1 29  1  0  0  0  0
  1 30  1  0  0  0  0
  1 31  1  0  0  0  0
  2 28  1  0  0  0  0
  2  3  1  0  0  0  0
  2 59  1  0  0  0  0
  3  4  1  0  0  0  0
  3 32  1  0  0  0  0
  3 33  1  0  0  0  0
  4  5  1  0  0  0  0
  4 34  1  0  0  0  0
  4 35  1  0  0  0  0
  5 10  1  0  0  0  0
  5  6  1  0  0  0  0
  5 36  1  0  0  0  0
  6  7  1  0  0  0  0
  6 28  1  0  0  0  0
  6 37  1  0  0  0  0
  7  8  1  0  0  0  0
  7 38  1  0  0  0  0
  7 39  1  0  0  0  0
  8  9  1  0  0  0  0
  8 40  1  0  0  0  0
  8 41  1  0  0  0  0
  9 10  1  0  0  0  0
  9 42  1  0  0  0  0
  9 43  1  0  0  0  0
 10 11  1  0  0  0  0
 11 16  1  0  0  0  0
 11 12  2  0  0  0  0
 12 13  1  0  0  0  0
 13 14  2  0  0  0  0
 13 44  1  0  0  0  0
 14 15  1  0  0  0  0
 15 19  1  0  0  0  0
 15 16  2  0  0  0  0
 16 17  1  0  0  0  0
 17 18  2  0  0  0  0
 18 19  1  0  0  0  0
 18 45  1  0  0  0  0
 19 20  1  0  0  0  0
 20 27  1  0  0  0  0
 20 21  1  0  0  0  0
 20 46  1  0  0  0  0
 21 22  1  0  0  0  0
 21 47  1  0  0  0  0
 21 48  1  0  0  0  0
 22 23  1  0  0  0  0
 22 25  1  0  0  0  0
 22 27  1  0  0  0  0
 23 24  1  0  0  0  0
 23 49  1  0  0  0  0
 23 50  1  0  0  0  0
 24 51  1  0  0  0  0
 25 26  1  0  0  0  0
 25 52  1  0  0  0  0
 25 53  1  0  0  0  0
 26 54  1  0  0  0  0
 27 55  1  0  0  0  0
 27 56  1  0  0  0  0
 28 57  1  0  0  0  0
 28 58  1  0  0  0  0
M  CHG  1   2   1
M  END
> <s_m_source_file>
AV-unprocessed.smi

> <i_m_source_file_index>
198

> <i_lp_mmshare_version>
43012

> <i_f3d_flags>
0

> <s_epik_input>
W0NIMl0xW0NIMl1OKFtDSDNdKVtDSDJdW0NAQEhdKFtDQEhdMTIpW0NIMl1bQ0gyXVtDSDJdTjJjKG5bY0hdbjMpYyhjMzQpbltjSF1uNFtDSF0oW0NIMl01KVtDSDJdQzUoW0NIMl1bT0hdKVtDSDJdW09IXQ==

> <s_epik_cmdline>
J2VwaWtfcHl0aG9uJywgJy1waCcsICc3LjAnLCAnLXRuJywgJzgnLCAnLW1hJywgJzIwMCcsICctbWV0YWxfYmluZGluZycsICctaW1hZScsICc8aW5maWxlLm1hZT4nLCAnLW9tYWUnLCAnPG91dGZpbGUubWFlPic=

> <r_lp_tautomer_probability>
1

> <r_epik_Ionization_Penalty>
0.00239938

> <r_epik_Ionization_Penalty_Charging>
0.00138697

> <r_epik_Ionization_Penalty_Neutral>
0.00101241

> <r_epik_State_Penalty>
-0

> <r_epik_Charging_Adjusted_Penalty>
0.00138697

> <i_epik_Tot_Q>
1

> <i_epik_Tot_abs_Q>
1

> <r_epik_Metal_State_Penalty>
-0

> <b_epik_Metal_Only>
0

> <s_lp_Force_Field>
OPLS_2005

> <r_lp_Energy>
60.6867

> <b_lp_Chiralities_Consistent>
1

> <s_lp_Variant>
AV-unprocessed.smi:198-6

> <Gold.Version>
5.8.1

> <Gold.Id.Protein>
6NUR|6NUR_protein|mol2

> <Gold.PLP.Fitness>
46.1469

> <Gold.PLP.PLP>
-35.4134

> <Gold.PLP.part.hbond>
-4.8142

> <Gold.PLP.part.metal>
0.0000

> <Gold.PLP.part.buried>
-2.5849

> <Gold.PLP.part.nonpolar>
-27.3476

> <Gold.PLP.part.repulsive>
0.3714

> <Gold.PLP.ligand.clash>
0.0000

> <Gold.PLP.ligand.torsion>
0.8301

> <Gold.PLP.Chemscore.Hbond>
3.0000

> <Gold.PLP.Chemscore.CHOScore>
0.9308

> <Gold.PLP.Chemscore.Metal>
0.0000

> <Gold.Chemscore.Hbonds>
donor molecule, donor type, donor heavy atom, donor atom, acceptor molecule, acceptor atom, score
      L1  H     2    59       P1 10747  1.00
      L1  H    24    51       P1  8028  1.00
      L1  H    26    54       P1  8028  1.00
      L1  C    18    45       P1 10175  0.64

> <Gold.PLP.Chemscore.Internal.Correction>
0.6014

> <Gold.Rescore>
     Score         DG    S(hbond)    S(metal)    S(lipo)     H(rot)  DE(clash)    DE(int)     intcor
     17.04     -18.20       3.05        0.00      88.94       3.08       0.10       1.05       ----

> <Gold.Chemscore.Fitness>
17.0428

> <Gold.Chemscore.DG>
-18.1977

> <Gold.Chemscore.ZeroCoef>
-5.4800

> <Gold.Chemscore.Hbond>
3.0513

> <Gold.Chemscore.Metal>
0.0000

> <Gold.Chemscore.Lipo>
88.9437

> <Gold.Chemscore.Internal_Hbond>
0.0000

> <Gold.Chemscore.DEClash>
0.1037

> <Gold.Chemscore.DEInternal>
1.0513

> <Gold.Chemscore.Rot>
3.0781

> <Gold.Chemscore.Internal.Correction>
   9.000000E+99

> <Gold.Chemscore.Hbonds>
donor molecule, donor type, donor heavy atom, donor atom, acceptor molecule, acceptor atom, score
      L1  H     2    59       P1 10747  1.00
      L1  H    24    51       P1  8028  0.96
      L1  H    26    54       P1  8028  0.82
      P1  H  8011  8017       L1    24  0.01

> <Gold.Chemscore.Hbond.Weighted>
-10.1913

> <Gold.Chemscore.Metal.Weighted>
-0.0000

> <Gold.Chemscore.Lipo.Weighted>
-10.4064

> <Gold.Chemscore.Internal_Hbond.Weighted>
0.0000

> <Gold.Chemscore.DEClash.Weighted>
0.1037

> <Gold.Chemscore.DEInternal.Weighted>
1.0513

> <Gold.Chemscore.Rot.Weighted>
7.8800

> <Gold.Chemscore.Internal.Correction.Weighted>
   9.000000E+99

> <Gold.Protein.RotatedTorsions>
[ 6907 6896 6895 6894 ] final -158.08 input  -60.11 | X-H torsion
[ 7974 7965 7964 7962 ] final  -48.99 input  175.53 | X-H torsion
[ 8008 7997 7996 7995 ] final   -6.37 input   59.86 | X-H torsion
[ 10167 10162 10161 10158 ] final -169.45 input  -65.29 | X-H torsion
[ 10718 10713 10712 10709 ] final   70.84 input   66.30 | X-H torsion
[ 10763 10752 10751 10750 ] final -140.15 input  -60.55 | X-H torsion
[ 11005 11000 10999 10996 ] final  103.50 input  -57.11 | X-H torsion

> <Gold.Protein.ActiveResidues>
 VAL166  LYS551  ARG553  GLY616  TRP617  ASP618  TYR619  PRO620  LYS621  CYS622 
 ASP623  PHE694  ASN695  SER759  ASP760  ASP761  ALA762  ILE779  LEU786  VAL792 
 PHE793  MET794  SER795  GLU796  ALA797  LYS798  CYS799  TRP800  GLU811  SER814 

> <Gold.Protein.RotatedAtoms>
  151.3126  133.4074  159.2647 H   0  0  0  0  0  0  0  0  0  0  0  0  # atno 6907 bound_to 6896
  151.0101  134.9391  159.8013 H   0  0  0  0  0  0  0  0  0  0  0  0  # atno 6908 bound_to 6896
  152.5298  134.3091  159.9159 H   0  0  0  0  0  0  0  0  0  0  0  0  # atno 6909 bound_to 6896
  145.9453  140.7624  142.9532 H   0  0  0  0  0  0  0  0  0  0  0  0  # atno 7974 bound_to 7965
  154.5944  140.2434  155.7876 H   0  0  0  0  0  0  0  0  0  0  0  0  # atno 8008 bound_to 7997
  156.2269  140.2979  156.0044 H   0  0  0  0  0  0  0  0  0  0  0  0  # atno 8009 bound_to 7997
  155.2318  140.0404  157.2953 H   0  0  0  0  0  0  0  0  0  0  0  0  # atno 8010 bound_to 7997
  139.5922  144.1189  152.1647 H   0  0  0  0  0  0  0  0  0  0  0  0  # atno 10167 bound_to 10162
  157.6421  130.9498  150.0707 H   0  0  0  0  0  0  0  0  0  0  0  0  # atno 10718 bound_to 10713
  154.8588  135.3562  154.5661 H   0  0  0  0  0  0  0  0  0  0  0  0  # atno 10763 bound_to 10752
  153.6274  135.7003  153.5292 H   0  0  0  0  0  0  0  0  0  0  0  0  # atno 10764 bound_to 10752
  153.3077  135.4187  155.1268 H   0  0  0  0  0  0  0  0  0  0  0  0  # atno 10765 bound_to 10752
  139.8784  134.9265  156.5219 H   0  0  0  0  0  0  0  0  0  0  0  0  # atno 11005 bound_to 11000
  144.6786  140.2346  143.7351 LP  0  0  0  0  0  0  0  0  0  0  0  0  # atno 17320 bound_to 7965
  145.8245  139.2058  143.1919 LP  0  0  0  0  0  0  0  0  0  0  0  0  # atno 17321 bound_to 7965
  140.0766  144.5735  150.7152 LP  0  0  0  0  0  0  0  0  0  0  0  0  # atno 17342 bound_to 10162
  140.7182  143.2564  151.4365 LP  0  0  0  0  0  0  0  0  0  0  0  0  # atno 17343 bound_to 10162
  156.1712  130.3646  149.9163 LP  0  0  0  0  0  0  0  0  0  0  0  0  # atno 17370 bound_to 10713
  156.7138  130.8980  151.3612 LP  0  0  0  0  0  0  0  0  0  0  0  0  # atno 17371 bound_to 10713
  140.8444  133.8180  155.9106 LP  0  0  0  0  0  0  0  0  0  0  0  0  # atno 17394 bound_to 11000
  140.9206  134.2146  157.4929 LP  0  0  0  0  0  0  0  0  0  0  0  0  # atno 17395 bound_to 11000

$$$$
