AV-unprocessed.smi:3164|AV-procd|sdf|12084|dock4
  -GOLD-   2272017513D 1   1.00000     0.00000
 Structure written by MMmdl.
 39 40  0  0  0  0  0  0  0  0  2 V2000
  147.6333  141.1579  154.2044 C   0  0  0  0  0  0  0  0  0  0  0  0
  148.7920  140.6351  154.9127 N   0  0  0  0  0  0  0  0  0  0  0  0
  149.7595  141.6843  155.2063 C   0  0  0  0  0  0  0  0  0  0  0  0
  150.9910  141.1307  155.9425 C   0  0  0  0  0  0  0  0  0  0  0  0
  151.5719  140.0796  155.1756 O   0  0  0  0  0  0  0  0  0  0  0  0
  150.6693  139.0065  154.9183 C   0  0  2  0  0  0  0  0  0  0  0  0
  151.4248  137.9390  154.1127 C   0  0  0  0  0  0  0  0  0  0  0  0
  150.7034  136.6508  154.1120 N   0  3  0  0  0  0  0  0  0  0  0  0
  150.1817  136.2517  155.4348 C   0  0  0  0  0  0  0  0  0  0  0  0
  150.0943  134.7233  155.5722 C   0  0  0  0  0  0  0  0  0  0  0  0
  149.1133  134.0951  154.5978 C   0  0  0  0  0  0  0  0  0  0  0  0
  147.8452  134.6740  154.3757 C   0  0  0  0  0  0  0  0  0  0  0  0
  146.9719  134.0473  153.4655 C   0  0  0  0  0  0  0  0  0  0  0  0
  147.3970  132.8710  152.8184 C   0  0  0  0  0  0  0  0  0  0  0  0
  148.6822  132.3721  153.1099 C   0  0  0  0  0  0  0  0  0  0  0  0
  149.5268  132.9654  153.9813 N   0  0  0  0  0  0  0  0  0  0  0  0
  149.4414  139.5651  154.1675 C   0  0  0  0  0  0  0  0  0  0  0  0
  147.1393  141.9328  154.7916 H   0  0  0  0  0  0  0  0  0  0  0  0
  146.9048  140.3682  154.0182 H   0  0  0  0  0  0  0  0  0  0  0  0
  147.9191  141.5899  153.2442 H   0  0  0  0  0  0  0  0  0  0  0  0
  150.0802  142.1619  154.2790 H   0  0  0  0  0  0  0  0  0  0  0  0
  149.2922  142.4613  155.8124 H   0  0  0  0  0  0  0  0  0  0  0  0
  151.7312  141.9175  156.0886 H   0  0  0  0  0  0  0  0  0  0  0  0
  150.7165  140.7604  156.9314 H   0  0  0  0  0  0  0  0  0  0  0  0
  150.3587  138.5800  155.8743 H   0  0  0  0  0  0  0  0  0  0  0  0
  151.5853  138.2775  153.0881 H   0  0  0  0  0  0  0  0  0  0  0  0
  152.4096  137.7809  154.5545 H   0  0  0  0  0  0  0  0  0  0  0  0
  149.9251  136.7208  153.4715 H   0  0  0  0  0  0  0  0  0  0  0  0
  150.8363  136.6517  156.2098 H   0  0  0  0  0  0  0  0  0  0  0  0
  149.1978  136.6978  155.5865 H   0  0  0  0  0  0  0  0  0  0  0  0
  151.0811  134.2800  155.4313 H   0  0  0  0  0  0  0  0  0  0  0  0
  149.7903  134.4650  156.5875 H   0  0  0  0  0  0  0  0  0  0  0  0
  147.5460  135.5777  154.8864 H   0  0  0  0  0  0  0  0  0  0  0  0
  145.9940  134.4609  153.2674 H   0  0  0  0  0  0  0  0  0  0  0  0
  146.7543  132.3639  152.1139 H   0  0  0  0  0  0  0  0  0  0  0  0
  149.0410  131.4726  152.6317 H   0  0  0  0  0  0  0  0  0  0  0  0
  148.7259  138.7624  153.9855 H   0  0  0  0  0  0  0  0  0  0  0  0
  149.7510  139.9345  153.1884 H   0  0  0  0  0  0  0  0  0  0  0  0
  151.3296  135.9302  153.7824 H   0  0  0  0  0  0  0  0  0  0  0  0
  1  2  1  0  0  0  0
  1 18  1  0  0  0  0
  1 19  1  0  0  0  0
  1 20  1  0  0  0  0
  2 17  1  0  0  0  0
  2  3  1  0  0  0  0
  3  4  1  0  0  0  0
  3 21  1  0  0  0  0
  3 22  1  0  0  0  0
  4  5  1  0  0  0  0
  4 23  1  0  0  0  0
  4 24  1  0  0  0  0
  5  6  1  0  0  0  0
  6  7  1  0  0  0  0
  6 17  1  0  0  0  0
  6 25  1  0  0  0  0
  7  8  1  0  0  0  0
  7 26  1  0  0  0  0
  7 27  1  0  0  0  0
  8  9  1  0  0  0  0
  8 28  1  0  0  0  0
  8 39  1  0  0  0  0
  9 10  1  0  0  0  0
  9 29  1  0  0  0  0
  9 30  1  0  0  0  0
 10 11  1  0  0  0  0
 10 31  1  0  0  0  0
 10 32  1  0  0  0  0
 11 16  1  0  0  0  0
 11 12  2  0  0  0  0
 12 13  1  0  0  0  0
 12 33  1  0  0  0  0
 13 14  2  0  0  0  0
 13 34  1  0  0  0  0
 14 15  1  0  0  0  0
 14 35  1  0  0  0  0
 15 16  2  0  0  0  0
 15 36  1  0  0  0  0
 17 37  1  0  0  0  0
 17 38  1  0  0  0  0
M  CHG  1   8   1
M  END
> <s_m_source_file>
AV-unprocessed.smi

> <i_m_source_file_index>
3164

> <i_lp_mmshare_version>
43012

> <i_f3d_flags>
0

> <s_epik_input>
W0NIM11OMVtDSDJdW0NIMl1PW0NASF0oW0NIMl0xKVtDSDJdW05IXVtDSDJdW0NIMl1jMltjSF1bY0hdW2NIXVtjSF1uMg==

> <s_epik_cmdline>
J2VwaWtfcHl0aG9uJywgJy1waCcsICc3LjAnLCAnLXRuJywgJzgnLCAnLW1hJywgJzIwMCcsICctbWV0YWxfYmluZGluZycsICctaW1hZScsICc8aW5maWxlLm1hZT4nLCAnLW9tYWUnLCAnPG91dGZpbGUubWFlPic=

> <r_epik_Ionization_Penalty>
0.584284

> <r_epik_Ionization_Penalty_Charging>
0.00270218

> <r_epik_Ionization_Penalty_Neutral>
0.581582

> <r_epik_State_Penalty>
0.593163

> <r_epik_Charging_Adjusted_Penalty>
0.595865

> <i_epik_Tot_Q>
1

> <i_epik_Tot_abs_Q>
1

> <r_epik_Metal_State_Penalty>
0.593163

> <b_epik_Metal_Only>
0

> <s_lp_Force_Field>
OPLS_2005

> <r_lp_Energy>
23.4824

> <b_lp_Chiralities_Consistent>
1

> <s_lp_Variant>
AV-unprocessed.smi:3164-6

> <Gold.Version>
5.8.1

> <Gold.Id.Protein>
6NUR|6NUR_protein|mol2

> <Gold.PLP.Fitness>
42.2383

> <Gold.PLP.PLP>
-31.1178

> <Gold.PLP.part.hbond>
-3.0000

> <Gold.PLP.part.metal>
0.0000

> <Gold.PLP.part.buried>
-1.0270

> <Gold.PLP.part.nonpolar>
-25.9136

> <Gold.PLP.part.repulsive>
0.3402

> <Gold.PLP.ligand.clash>
0.0000

> <Gold.PLP.ligand.torsion>
0.5648

> <Gold.PLP.Chemscore.Hbond>
3.0749

> <Gold.PLP.Chemscore.CHOScore>
0.9985

> <Gold.PLP.Chemscore.Metal>
0.0000

> <Gold.Chemscore.Hbonds>
donor molecule, donor type, donor heavy atom, donor atom, acceptor molecule, acceptor atom, score
      L1  H     8    28       P1  7948  2.00
      L1  H     8    39       P1  7949  0.09
      P1  H  7989  7998       L1     5  1.00
      L1  C    15    36       P1 10747  1.00

> <Gold.PLP.Chemscore.Internal.Correction>
0.0299

> <Gold.Rescore>
     Score         DG    S(hbond)    S(metal)    S(lipo)     H(rot)  DE(clash)    DE(int)     intcor
     14.69     -15.02       1.54        0.00      72.01       1.57       0.01       0.32       ----

> <Gold.Chemscore.Fitness>
14.6854

> <Gold.Chemscore.DG>
-15.0179

> <Gold.Chemscore.ZeroCoef>
-5.4800

> <Gold.Chemscore.Hbond>
1.5387

> <Gold.Chemscore.Metal>
0.0000

> <Gold.Chemscore.Lipo>
72.0060

> <Gold.Chemscore.Internal_Hbond>
0.0000

> <Gold.Chemscore.DEClash>
0.0130

> <Gold.Chemscore.DEInternal>
0.3196

> <Gold.Chemscore.Rot>
1.5726

> <Gold.Chemscore.Internal.Correction>
   9.000000E+99

> <Gold.Chemscore.Hbonds>
donor molecule, donor type, donor heavy atom, donor atom, acceptor molecule, acceptor atom, score
      L1  H     8    28       P1  7948  0.25
      L1  H     8    39       P1  7949  0.03
      P1  H  7989  7998       L1     5  0.09

> <Gold.Chemscore.Hbond.Weighted>
-5.1391

> <Gold.Chemscore.Metal.Weighted>
-0.0000

> <Gold.Chemscore.Lipo.Weighted>
-8.4247

> <Gold.Chemscore.Internal_Hbond.Weighted>
0.0000

> <Gold.Chemscore.DEClash.Weighted>
0.0130

> <Gold.Chemscore.DEInternal.Weighted>
0.3196

> <Gold.Chemscore.Rot.Weighted>
4.0259

> <Gold.Chemscore.Internal.Correction.Weighted>
   9.000000E+99

> <Gold.Protein.RotatedTorsions>
[ 6907 6896 6895 6894 ] final -159.26 input  -60.11 | X-H torsion
[ 7974 7965 7964 7962 ] final   14.50 input  175.53 | X-H torsion
[ 8008 7997 7996 7995 ] final  -85.12 input   59.86 | X-H torsion
[ 10167 10162 10161 10158 ] final   31.93 input  -65.29 | X-H torsion
[ 10718 10713 10712 10709 ] final  121.06 input   66.30 | X-H torsion
[ 10763 10752 10751 10750 ] final  -15.27 input  -60.55 | X-H torsion
[ 11005 11000 10999 10996 ] final -130.64 input  -57.11 | X-H torsion

> <Gold.Protein.ActiveResidues>
 VAL166  LYS551  ARG553  GLY616  TRP617  ASP618  TYR619  PRO620  LYS621  CYS622 
 ASP623  PHE694  ASN695  SER759  ASP760  ASP761  ALA762  ILE779  LEU786  VAL792 
 PHE793  MET794  SER795  GLU796  ALA797  LYS798  CYS799  TRP800  GLU811  SER814 

> <Gold.Protein.RotatedAtoms>
  151.3308  133.4001  159.2662 H   0  0  0  0  0  0  0  0  0  0  0  0  # atno 6907 bound_to 6896
  150.9957  134.9282  159.7935 H   0  0  0  0  0  0  0  0  0  0  0  0  # atno 6908 bound_to 6896
  152.5260  134.3273  159.9222 H   0  0  0  0  0  0  0  0  0  0  0  0  # atno 6909 bound_to 6896
  146.2303  139.9032  142.8536 H   0  0  0  0  0  0  0  0  0  0  0  0  # atno 7974 bound_to 7965
  154.6373  140.0596  156.9803 H   0  0  0  0  0  0  0  0  0  0  0  0  # atno 8008 bound_to 7997
  155.1572  140.3279  155.4400 H   0  0  0  0  0  0  0  0  0  0  0  0  # atno 8009 bound_to 7997
  156.2513  140.1937  156.6681 H   0  0  0  0  0  0  0  0  0  0  0  0  # atno 8010 bound_to 7997
  140.4544  144.1000  150.6198 H   0  0  0  0  0  0  0  0  0  0  0  0  # atno 10167 bound_to 10162
  157.5845  131.1071  150.8121 H   0  0  0  0  0  0  0  0  0  0  0  0  # atno 10718 bound_to 10713
  153.5408  135.7013  153.5637 H   0  0  0  0  0  0  0  0  0  0  0  0  # atno 10763 bound_to 10752
  153.3604  135.3971  155.1714 H   0  0  0  0  0  0  0  0  0  0  0  0  # atno 10764 bound_to 10752
  154.8674  135.3787  154.4912 H   0  0  0  0  0  0  0  0  0  0  0  0  # atno 10765 bound_to 10752
  140.9328  134.1297  157.4220 H   0  0  0  0  0  0  0  0  0  0  0  0  # atno 11005 bound_to 11000
  145.2302  140.9970  143.3995 LP  0  0  0  0  0  0  0  0  0  0  0  0  # atno 17320 bound_to 7965
  144.9536  139.4055  143.6390 LP  0  0  0  0  0  0  0  0  0  0  0  0  # atno 17321 bound_to 7965
  140.4168  143.2630  151.9765 LP  0  0  0  0  0  0  0  0  0  0  0  0  # atno 17342 bound_to 10162
  139.4800  144.5866  151.7842 LP  0  0  0  0  0  0  0  0  0  0  0  0  # atno 17343 bound_to 10162
  156.8559  130.5096  149.5308 LP  0  0  0  0  0  0  0  0  0  0  0  0  # atno 17370 bound_to 10713
  156.0894  130.5883  150.9705 LP  0  0  0  0  0  0  0  0  0  0  0  0  # atno 17371 bound_to 10713
  139.8800  135.0011  156.6047 LP  0  0  0  0  0  0  0  0  0  0  0  0  # atno 17394 bound_to 11000
  140.7839  133.8637  155.8590 LP  0  0  0  0  0  0  0  0  0  0  0  0  # atno 17395 bound_to 11000

$$$$
