AV-unprocessed.smi:2061|AV-procd|sdf|8363|dock10
  -GOLD-   2272011 33D 1   1.00000     0.00000
 Structure written by MMmdl.
 45 46  0  0  0  0  0  0  0  0  1 V2000
  150.7869  142.1406  156.5185 C   0  0  0  0  0  0  0  0  0  0  0  0
  150.5223  141.0002  155.5965 C   0  0  0  0  0  0  0  0  0  0  0  0
  149.3790  140.5038  155.0360 C   0  0  0  0  0  0  0  0  0  0  0  0
  149.8509  139.4082  154.2651 C   0  0  0  0  0  0  0  0  0  0  0  0
  148.9535  138.6094  153.5115 N   0  0  0  0  0  0  0  0  0  0  0  0
  147.6283  138.7796  153.3667 C   0  0  0  0  0  0  0  0  0  0  0  0
  146.9690  139.6787  153.8891 O   0  0  0  0  0  0  0  0  0  0  0  0
  147.1019  137.8331  152.5755 N   0  0  0  0  0  0  0  0  0  0  0  0
  145.6925  137.7164  152.2071 C   0  0  0  0  0  0  0  0  0  0  0  0
  145.0093  136.4602  152.8186 C   0  0  1  0  0  0  0  0  0  0  0  0
  143.4794  136.5564  152.5878 C   0  0  0  0  0  0  0  0  0  0  0  0
  145.5842  135.1855  152.3257 N   0  0  0  0  0  0  0  0  0  0  0  0
  144.8754  134.6598  151.1548 C   0  0  0  0  0  0  0  0  0  0  0  0
  145.4858  133.3505  150.6236 C   0  0  2  0  0  0  0  0  0  0  0  0
  144.6845  132.7762  149.4503 C   0  0  0  0  0  0  0  0  0  0  0  0
  145.5023  132.3781  151.6629 O   0  0  0  0  0  0  0  0  0  0  0  0
  146.1679  132.7908  152.8541 C   0  0  1  0  0  0  0  0  0  0  0  0
  147.6968  132.8001  152.6842 C   0  0  0  0  0  0  0  0  0  0  0  0
  145.6000  134.1354  153.3510 C   0  0  0  0  0  0  0  0  0  0  0  0
  151.1631  139.2499  154.3477 N   0  0  0  0  0  0  0  0  0  0  0  0
  151.5999  140.2690  155.2023 O   0  0  0  0  0  0  0  0  0  0  0  0
  149.9207  142.7997  156.5799 H   0  0  0  0  0  0  0  0  0  0  0  0
  151.6364  142.7301  156.1728 H   0  0  0  0  0  0  0  0  0  0  0  0
  151.0103  141.7807  157.5228 H   0  0  0  0  0  0  0  0  0  0  0  0
  148.3698  140.8682  155.1597 H   0  0  0  0  0  0  0  0  0  0  0  0
  149.3656  137.8240  153.0300 H   0  0  0  0  0  0  0  0  0  0  0  0
  147.7244  137.1351  152.1957 H   0  0  0  0  0  0  0  0  0  0  0  0
  145.1304  138.6127  152.4749 H   0  0  0  0  0  0  0  0  0  0  0  0
  145.7012  137.6742  151.1199 H   0  0  0  0  0  0  0  0  0  0  0  0
  145.1699  136.5050  153.8970 H   0  0  0  0  0  0  0  0  0  0  0  0
  143.0674  137.5122  152.9083 H   0  0  0  0  0  0  0  0  0  0  0  0
  142.9262  135.8107  153.1566 H   0  0  0  0  0  0  0  0  0  0  0  0
  143.2317  136.4314  151.5331 H   0  0  0  0  0  0  0  0  0  0  0  0
  143.8237  134.5030  151.3996 H   0  0  0  0  0  0  0  0  0  0  0  0
  144.9059  135.3745  150.3347 H   0  0  0  0  0  0  0  0  0  0  0  0
  146.5044  133.5366  150.2819 H   0  0  0  0  0  0  0  0  0  0  0  0
  144.6451  133.4802  148.6188 H   0  0  0  0  0  0  0  0  0  0  0  0
  143.6599  132.5491  149.7462 H   0  0  0  0  0  0  0  0  0  0  0  0
  145.1372  131.8547  149.0836 H   0  0  0  0  0  0  0  0  0  0  0  0
  145.9390  132.0356  153.6066 H   0  0  0  0  0  0  0  0  0  0  0  0
  148.1904  132.9972  153.6361 H   0  0  0  0  0  0  0  0  0  0  0  0
  148.0282  133.5655  151.9828 H   0  0  0  0  0  0  0  0  0  0  0  0
  148.0535  131.8360  152.3214 H   0  0  0  0  0  0  0  0  0  0  0  0
  146.1980  134.4352  154.2090 H   0  0  0  0  0  0  0  0  0  0  0  0
  144.5849  133.9755  153.7177 H   0  0  0  0  0  0  0  0  0  0  0  0
  1  2  1  0  0  0  0
  1 22  1  0  0  0  0
  1 23  1  0  0  0  0
  1 24  1  0  0  0  0
  2 21  1  0  0  0  0
  2  3  2  0  0  0  0
  3  4  1  0  0  0  0
  3 25  1  0  0  0  0
  4  5  1  0  0  0  0
  4 20  2  0  0  0  0
  5  6  1  0  0  0  0
  5 26  1  0  0  0  0
  6  7  2  0  0  0  0
  6  8  1  0  0  0  0
  8  9  1  0  0  0  0
  8 27  1  0  0  0  0
  9 10  1  0  0  0  0
  9 28  1  0  0  0  0
  9 29  1  0  0  0  0
 10 11  1  0  0  0  0
 10 12  1  0  0  0  0
 10 30  1  0  0  0  0
 11 31  1  0  0  0  0
 11 32  1  0  0  0  0
 11 33  1  0  0  0  0
 12 19  1  0  0  0  0
 12 13  1  0  0  0  0
 13 14  1  0  0  0  0
 13 34  1  0  0  0  0
 13 35  1  0  0  0  0
 14 15  1  0  0  0  0
 14 16  1  0  0  0  0
 14 36  1  0  0  0  0
 15 37  1  0  0  0  0
 15 38  1  0  0  0  0
 15 39  1  0  0  0  0
 16 17  1  0  0  0  0
 17 18  1  0  0  0  0
 17 19  1  0  0  0  0
 17 40  1  0  0  0  0
 18 41  1  0  0  0  0
 18 42  1  0  0  0  0
 18 43  1  0  0  0  0
 19 44  1  0  0  0  0
 19 45  1  0  0  0  0
 20 21  1  0  0  0  0
M  END
> <s_m_source_file>
AV-unprocessed.smi

> <i_m_source_file_index>
2061

> <i_lp_mmshare_version>
43012

> <i_f3d_flags>
0

> <s_epik_input>
W0NIM11jMVtjSF1jKG5vMSlbTkhdQyg9TylbTkhdW0NIMl1bQ0BIXShbQ0gzXSlOMltDSDJdW0NAQEhdKFtDSDNdKU9bQ0BASF0oW0NIM10pW0NIMl0y

> <s_epik_cmdline>
J2VwaWtfcHl0aG9uJywgJy1waCcsICc3LjAnLCAnLXRuJywgJzgnLCAnLW1hJywgJzIwMCcsICctbWV0YWxfYmluZGluZycsICctaW1hZScsICc8aW5maWxlLm1hZT4nLCAnLW9tYWUnLCAnPG91dGZpbGUubWFlPic=

> <r_epik_Ionization_Penalty>
0.214073

> <r_epik_Ionization_Penalty_Charging>
0

> <r_epik_Ionization_Penalty_Neutral>
0.214073

> <r_epik_State_Penalty>
0.204211

> <r_epik_Charging_Adjusted_Penalty>
0.204211

> <i_epik_Tot_Q>
0

> <i_epik_Tot_abs_Q>
0

> <r_epik_Metal_State_Penalty>
0.217067

> <b_epik_Metal_Only>
0

> <s_lp_Force_Field>
OPLS_2005

> <r_lp_Energy>
29.4213

> <b_lp_Chiralities_Consistent>
1

> <s_lp_Variant>
AV-unprocessed.smi:2061-4

> <Gold.Version>
5.8.1

> <Gold.Id.Protein>
6NUR|6NUR_protein|mol2

> <Gold.PLP.Fitness>
37.9140

> <Gold.PLP.PLP>
-33.9461

> <Gold.PLP.part.hbond>
-5.0000

> <Gold.PLP.part.metal>
0.0000

> <Gold.PLP.part.buried>
-2.8263

> <Gold.PLP.part.nonpolar>
-26.7303

> <Gold.PLP.part.repulsive>
0.6461

> <Gold.PLP.ligand.clash>
0.0000

> <Gold.PLP.ligand.torsion>
0.8732

> <Gold.PLP.Chemscore.Hbond>
1.8960

> <Gold.PLP.Chemscore.CHOScore>
0.0000

> <Gold.PLP.Chemscore.Metal>
0.0000

> <Gold.Chemscore.Hbonds>
donor molecule, donor type, donor heavy atom, donor atom, acceptor molecule, acceptor atom, score
      L1  H     5    26       P1  7948  0.90
      L1  H     8    27       P1  7948  1.00

> <Gold.PLP.Chemscore.Internal.Correction>
0.0264

> <Gold.Rescore>
     Score         DG    S(hbond)    S(metal)    S(lipo)     H(rot)  DE(clash)    DE(int)     intcor
     13.69     -15.87       1.93        0.00      67.47       1.55       0.16       2.01       ----

> <Gold.Chemscore.Fitness>
13.6948

> <Gold.Chemscore.DG>
-15.8672

> <Gold.Chemscore.ZeroCoef>
-5.4800

> <Gold.Chemscore.Hbond>
1.9324

> <Gold.Chemscore.Metal>
0.0000

> <Gold.Chemscore.Lipo>
67.4718

> <Gold.Chemscore.Internal_Hbond>
0.0000

> <Gold.Chemscore.DEClash>
0.1646

> <Gold.Chemscore.DEInternal>
2.0077

> <Gold.Chemscore.Rot>
1.5474

> <Gold.Chemscore.Internal.Correction>
   9.000000E+99

> <Gold.Chemscore.Hbonds>
donor molecule, donor type, donor heavy atom, donor atom, acceptor molecule, acceptor atom, score
      L1  H     5    26       P1  7948  0.81
      L1  H     8    27       P1  7948  0.94

> <Gold.Chemscore.Hbond.Weighted>
-6.4542

> <Gold.Chemscore.Metal.Weighted>
-0.0000

> <Gold.Chemscore.Lipo.Weighted>
-7.8942

> <Gold.Chemscore.Internal_Hbond.Weighted>
0.0000

> <Gold.Chemscore.DEClash.Weighted>
0.1646

> <Gold.Chemscore.DEInternal.Weighted>
2.0077

> <Gold.Chemscore.Rot.Weighted>
3.9612

> <Gold.Chemscore.Internal.Correction.Weighted>
   9.000000E+99

> <Gold.Protein.RotatedTorsions>
[ 6907 6896 6895 6894 ] final -142.57 input  -60.11 | X-H torsion
[ 7974 7965 7964 7962 ] final   53.99 input  175.53 | X-H torsion
[ 8008 7997 7996 7995 ] final   40.52 input   59.86 | X-H torsion
[ 10167 10162 10161 10158 ] final -144.04 input  -65.29 | X-H torsion
[ 10718 10713 10712 10709 ] final  -90.39 input   66.30 | X-H torsion
[ 10763 10752 10751 10750 ] final   17.88 input  -60.55 | X-H torsion
[ 11005 11000 10999 10996 ] final  -98.82 input  -57.11 | X-H torsion

> <Gold.Protein.ActiveResidues>
 VAL166  LYS551  ARG553  GLY616  TRP617  ASP618  TYR619  PRO620  LYS621  CYS622 
 ASP623  PHE694  ASN695  SER759  ASP760  ASP761  ALA762  ILE779  LEU786  VAL792 
 PHE793  MET794  SER795  GLU796  ALA797  LYS798  CYS799  TRP800  GLU811  SER814 

> <Gold.Protein.RotatedAtoms>
  151.0888  133.5332  159.2615 H   0  0  0  0  0  0  0  0  0  0  0  0  # atno 6907 bound_to 6896
  151.2208  135.0517  159.8958 H   0  0  0  0  0  0  0  0  0  0  0  0  # atno 6908 bound_to 6896
  152.5432  134.0690  159.8239 H   0  0  0  0  0  0  0  0  0  0  0  0  # atno 6909 bound_to 6896
  145.9654  139.4099  143.0222 H   0  0  0  0  0  0  0  0  0  0  0  0  # atno 7974 bound_to 7965
  155.2545  140.3355  155.4279 H   0  0  0  0  0  0  0  0  0  0  0  0  # atno 8008 bound_to 7997
  156.2201  140.1805  156.7540 H   0  0  0  0  0  0  0  0  0  0  0  0  # atno 8009 bound_to 7997
  154.5813  140.0653  156.9092 H   0  0  0  0  0  0  0  0  0  0  0  0  # atno 8010 bound_to 7997
  139.7936  143.7931  152.2652 H   0  0  0  0  0  0  0  0  0  0  0  0  # atno 10167 bound_to 10162
  155.9987  130.4908  150.5316 H   0  0  0  0  0  0  0  0  0  0  0  0  # atno 10718 bound_to 10713
  153.1299  135.6738  153.9195 H   0  0  0  0  0  0  0  0  0  0  0  0  # atno 10763 bound_to 10752
  153.8684  135.3072  155.3442 H   0  0  0  0  0  0  0  0  0  0  0  0  # atno 10764 bound_to 10752
  154.7698  135.4945  153.9708 H   0  0  0  0  0  0  0  0  0  0  0  0  # atno 10765 bound_to 10752
  141.1331  133.8274  157.0890 H   0  0  0  0  0  0  0  0  0  0  0  0  # atno 11005 bound_to 11000
  145.7981  140.9784  143.1013 LP  0  0  0  0  0  0  0  0  0  0  0  0  # atno 17320 bound_to 7965
  144.6824  139.9766  143.7483 LP  0  0  0  0  0  0  0  0  0  0  0  0  # atno 17321 bound_to 7965
  139.8030  144.7366  150.9799 LP  0  0  0  0  0  0  0  0  0  0  0  0  # atno 17342 bound_to 10162
  140.7820  143.4326  151.0672 LP  0  0  0  0  0  0  0  0  0  0  0  0  # atno 17343 bound_to 10162
  157.3264  131.0691  151.1893 LP  0  0  0  0  0  0  0  0  0  0  0  0  # atno 17370 bound_to 10713
  157.2789  130.6740  149.6056 LP  0  0  0  0  0  0  0  0  0  0  0  0  # atno 17371 bound_to 10713
  140.0404  134.9857  157.0951 LP  0  0  0  0  0  0  0  0  0  0  0  0  # atno 17394 bound_to 11000
  140.4144  134.1947  155.7163 LP  0  0  0  0  0  0  0  0  0  0  0  0  # atno 17395 bound_to 11000

$$$$
