AV-unprocessed.smi:424|AV-procd|sdf|2539|dock4
  -GOLD-   2262022503D 1   1.00000     0.00000
 Structure written by MMmdl.
 34 35  0  0  0  0  0  0  0  0  1 V2000
  145.9971  137.2187  152.2415 C   0  0  0  0  0  0  0  0  0  0  0  0
  146.6767  138.4652  151.6518 C   0  0  0  0  0  0  0  0  0  0  0  0
  147.3549  139.3550  152.6998 C   0  0  0  0  0  0  0  0  0  0  0  0
  146.8794  140.4541  152.9852 O   0  0  0  0  0  0  0  0  0  0  0  0
  148.4808  138.8469  153.2339 N   0  0  0  0  0  0  0  0  0  0  0  0
  149.3306  139.4035  154.2289 C   0  0  0  0  0  0  0  0  0  0  0  0
  150.6284  138.9305  154.5335 C   0  0  0  0  0  0  0  0  0  0  0  0
  151.3771  139.5856  155.5301 C   0  0  0  0  0  0  0  0  0  0  0  0
  150.8187  140.7015  156.1969 C   0  0  0  0  0  0  0  0  0  0  0  0
  151.5545  141.3737  157.1971 N   0  0  0  0  0  0  0  0  0  0  0  0
  151.9756  140.5580  158.3335 C   0  0  0  0  0  0  0  0  0  0  0  0
  153.0179  141.3119  159.1777 C   0  0  0  0  0  0  0  0  0  0  0  0
  152.5018  142.5809  159.5654 O   0  0  0  0  0  0  0  0  0  0  0  0
  152.2076  143.3987  158.4380 C   0  0  0  0  0  0  0  0  0  0  0  0
  151.1299  142.7205  157.5755 C   0  0  0  0  0  0  0  0  0  0  0  0
  149.5813  141.1619  155.8899 N   0  0  0  0  0  0  0  0  0  0  0  0
  148.8666  140.5307  154.9352 C   0  0  0  0  0  0  0  0  0  0  0  0
  145.5486  136.6156  151.4519 H   0  0  0  0  0  0  0  0  0  0  0  0
  145.2030  137.4896  152.9383 H   0  0  0  0  0  0  0  0  0  0  0  0
  146.7115  136.5874  152.7716 H   0  0  0  0  0  0  0  0  0  0  0  0
  147.4244  138.1565  150.9200 H   0  0  0  0  0  0  0  0  0  0  0  0
  145.9392  139.0616  151.1140 H   0  0  0  0  0  0  0  0  0  0  0  0
  148.7920  137.9684  152.8453 H   0  0  0  0  0  0  0  0  0  0  0  0
  151.0742  138.0957  154.0163 H   0  0  0  0  0  0  0  0  0  0  0  0
  152.3744  139.2381  155.7542 H   0  0  0  0  0  0  0  0  0  0  0  0
  151.1006  140.3260  158.9421 H   0  0  0  0  0  0  0  0  0  0  0  0
  152.4001  139.6075  158.0143 H   0  0  0  0  0  0  0  0  0  0  0  0
  153.2601  140.7392  160.0730 H   0  0  0  0  0  0  0  0  0  0  0  0
  153.9479  141.4405  158.6216 H   0  0  0  0  0  0  0  0  0  0  0  0
  151.8548  144.3699  158.7850 H   0  0  0  0  0  0  0  0  0  0  0  0
  153.1144  143.5780  157.8579 H   0  0  0  0  0  0  0  0  0  0  0  0
  150.9478  143.3244  156.6856 H   0  0  0  0  0  0  0  0  0  0  0  0
  150.1917  142.6613  158.1289 H   0  0  0  0  0  0  0  0  0  0  0  0
  147.8887  140.9419  154.7311 H   0  0  0  0  0  0  0  0  0  0  0  0
  1  2  1  0  0  0  0
  1 18  1  0  0  0  0
  1 19  1  0  0  0  0
  1 20  1  0  0  0  0
  2  3  1  0  0  0  0
  2 21  1  0  0  0  0
  2 22  1  0  0  0  0
  3  4  2  0  0  0  0
  3  5  1  0  0  0  0
  5  6  1  0  0  0  0
  5 23  1  0  0  0  0
  6 17  1  0  0  0  0
  6  7  2  0  0  0  0
  7  8  1  0  0  0  0
  7 24  1  0  0  0  0
  8  9  2  0  0  0  0
  8 25  1  0  0  0  0
  9 10  1  0  0  0  0
  9 16  1  0  0  0  0
 10 15  1  0  0  0  0
 10 11  1  0  0  0  0
 11 12  1  0  0  0  0
 11 26  1  0  0  0  0
 11 27  1  0  0  0  0
 12 13  1  0  0  0  0
 12 28  1  0  0  0  0
 12 29  1  0  0  0  0
 13 14  1  0  0  0  0
 14 15  1  0  0  0  0
 14 30  1  0  0  0  0
 14 31  1  0  0  0  0
 15 32  1  0  0  0  0
 15 33  1  0  0  0  0
 16 17  2  0  0  0  0
 17 34  1  0  0  0  0
M  END
> <s_m_source_file>
AV-unprocessed.smi

> <i_m_source_file_index>
424

> <i_lp_mmshare_version>
43012

> <i_f3d_flags>
0

> <s_epik_input>
W0NIM11bQ0gyXUMoPU8pW05IXWMxW2NIXVtjSF1jKG5bY0hdMSlOMltDSDJdW0NIMl1PW0NIMl1bQ0gyXTI=

> <s_epik_cmdline>
J2VwaWtfcHl0aG9uJywgJy1waCcsICc3LjAnLCAnLXRuJywgJzgnLCAnLW1hJywgJzIwMCcsICctbWV0YWxfYmluZGluZycsICctaW1hZScsICc8aW5maWxlLm1hZT4nLCAnLW9tYWUnLCAnPG91dGZpbGUubWFlPic=

> <r_lp_tautomer_probability>
1

> <r_epik_Ionization_Penalty>
0.000622595

> <r_epik_Ionization_Penalty_Charging>
0

> <r_epik_Ionization_Penalty_Neutral>
0.000622595

> <r_epik_State_Penalty>
0.000387388

> <r_epik_Charging_Adjusted_Penalty>
0.000387388

> <i_epik_Tot_Q>
0

> <i_epik_Tot_abs_Q>
0

> <r_epik_Metal_State_Penalty>
-0

> <b_epik_Metal_Only>
0

> <s_lp_Force_Field>
OPLS_2005

> <r_lp_Energy>
21.9993

> <b_lp_Chiralities_Consistent>
1

> <s_lp_Variant>
AV-unprocessed.smi:424-1

> <Gold.Version>
5.8.1

> <Gold.Id.Protein>
6NUR|6NUR_protein|mol2

> <Gold.PLP.Fitness>
35.1507

> <Gold.PLP.PLP>
-32.6046

> <Gold.PLP.part.hbond>
-1.9894

> <Gold.PLP.part.metal>
0.0000

> <Gold.PLP.part.buried>
-1.8268

> <Gold.PLP.part.nonpolar>
-31.0375

> <Gold.PLP.part.repulsive>
0.3693

> <Gold.PLP.ligand.clash>
0.0000

> <Gold.PLP.ligand.torsion>
0.3895

> <Gold.PLP.Chemscore.Hbond>
0.9913

> <Gold.PLP.Chemscore.CHOScore>
0.0000

> <Gold.PLP.Chemscore.Metal>
0.0000

> <Gold.Chemscore.Hbonds>
donor molecule, donor type, donor heavy atom, donor atom, acceptor molecule, acceptor atom, score
      L1  H     5    23       P1  7948  1.00

> <Gold.PLP.Chemscore.Internal.Correction>
0.3514

> <Gold.Rescore>
     Score         DG    S(hbond)    S(metal)    S(lipo)     H(rot)  DE(clash)    DE(int)     intcor
     12.37     -15.26       0.97        0.00      81.72       1.18       1.20       1.69       ----

> <Gold.Chemscore.Fitness>
12.3711

> <Gold.Chemscore.DG>
-15.2595

> <Gold.Chemscore.ZeroCoef>
-5.4800

> <Gold.Chemscore.Hbond>
0.9734

> <Gold.Chemscore.Metal>
0.0000

> <Gold.Chemscore.Lipo>
81.7218

> <Gold.Chemscore.Internal_Hbond>
0.0000

> <Gold.Chemscore.DEClash>
1.1958

> <Gold.Chemscore.DEInternal>
1.6926

> <Gold.Chemscore.Rot>
1.1848

> <Gold.Chemscore.Internal.Correction>
   9.000000E+99

> <Gold.Chemscore.Hbonds>
donor molecule, donor type, donor heavy atom, donor atom, acceptor molecule, acceptor atom, score
      L1  H     5    23       P1  7948  0.98

> <Gold.Chemscore.Hbond.Weighted>
-3.2511

> <Gold.Chemscore.Metal.Weighted>
-0.0000

> <Gold.Chemscore.Lipo.Weighted>
-9.5614

> <Gold.Chemscore.Internal_Hbond.Weighted>
0.0000

> <Gold.Chemscore.DEClash.Weighted>
1.1958

> <Gold.Chemscore.DEInternal.Weighted>
1.6926

> <Gold.Chemscore.Rot.Weighted>
3.0331

> <Gold.Chemscore.Internal.Correction.Weighted>
   9.000000E+99

> <Gold.Protein.RotatedTorsions>
[ 6907 6896 6895 6894 ] final  171.26 input  -60.11 | X-H torsion
[ 7974 7965 7964 7962 ] final  116.66 input  175.53 | X-H torsion
[ 8008 7997 7996 7995 ] final   -2.30 input   59.86 | X-H torsion
[ 10167 10162 10161 10158 ] final  116.55 input  -65.29 | X-H torsion
[ 10718 10713 10712 10709 ] final   -9.08 input   66.30 | X-H torsion
[ 10763 10752 10751 10750 ] final   27.66 input  -60.55 | X-H torsion
[ 11005 11000 10999 10996 ] final -174.91 input  -57.11 | X-H torsion

> <Gold.Protein.ActiveResidues>
 VAL166  LYS551  ARG553  GLY616  TRP617  ASP618  TYR619  PRO620  LYS621  CYS622 
 ASP623  PHE694  ASN695  SER759  ASP760  ASP761  ALA762  ILE779  LEU786  VAL792 
 PHE793  MET794  SER795  GLU796  ALA797  LYS798  CYS799  TRP800  GLU811  SER814 

> <Gold.Protein.RotatedAtoms>
  151.8031  133.3372  159.3532 H   0  0  0  0  0  0  0  0  0  0  0  0  # atno 6907 bound_to 6896
  150.7351  134.5735  159.5911 H   0  0  0  0  0  0  0  0  0  0  0  0  # atno 6908 bound_to 6896
  152.3129  134.7477  160.0383 H   0  0  0  0  0  0  0  0  0  0  0  0  # atno 6909 bound_to 6896
  145.1769  139.3071  143.4438 H   0  0  0  0  0  0  0  0  0  0  0  0  # atno 7974 bound_to 7965
  154.6373  140.2538  155.7364 H   0  0  0  0  0  0  0  0  0  0  0  0  # atno 8008 bound_to 7997
  156.2510  140.2895  156.0671 H   0  0  0  0  0  0  0  0  0  0  0  0  # atno 8009 bound_to 7997
  155.1652  140.0385  157.2841 H   0  0  0  0  0  0  0  0  0  0  0  0  # atno 8010 bound_to 7997
  139.6239  144.7105  151.2575 H   0  0  0  0  0  0  0  0  0  0  0  0  # atno 10167 bound_to 10162
  156.6932  130.5071  149.5938 H   0  0  0  0  0  0  0  0  0  0  0  0  # atno 10718 bound_to 10713
  153.0541  135.6531  154.0620 H   0  0  0  0  0  0  0  0  0  0  0  0  # atno 10763 bound_to 10752
  154.0302  135.2912  155.3371 H   0  0  0  0  0  0  0  0  0  0  0  0  # atno 10764 bound_to 10752
  154.6846  135.5306  153.8377 H   0  0  0  0  0  0  0  0  0  0  0  0  # atno 10765 bound_to 10752
  140.4692  134.6182  157.4875 H   0  0  0  0  0  0  0  0  0  0  0  0  # atno 11005 bound_to 11000
  146.3460  140.1934  142.8589 LP  0  0  0  0  0  0  0  0  0  0  0  0  # atno 17320 bound_to 7965
  145.0176  140.8767  143.5186 LP  0  0  0  0  0  0  0  0  0  0  0  0  # atno 17321 bound_to 7965
  140.7399  143.6604  150.8169 LP  0  0  0  0  0  0  0  0  0  0  0  0  # atno 17342 bound_to 10162
  140.0219  143.5534  152.2797 LP  0  0  0  0  0  0  0  0  0  0  0  0  # atno 17343 bound_to 10162
  156.1782  130.6482  151.0920 LP  0  0  0  0  0  0  0  0  0  0  0  0  # atno 17370 bound_to 10713
  157.7001  131.0779  150.6847 LP  0  0  0  0  0  0  0  0  0  0  0  0  # atno 17371 bound_to 10713
  139.9896  134.7006  155.9713 LP  0  0  0  0  0  0  0  0  0  0  0  0  # atno 17394 bound_to 11000
  141.1585  133.6540  156.4240 LP  0  0  0  0  0  0  0  0  0  0  0  0  # atno 17395 bound_to 11000

$$$$
