AV-unprocessed.smi:2069|AV-procd|sdf|8433|dock8
  -GOLD-   2272011133D 1   1.00000     0.00000
 Structure written by MMmdl.
 39 40  0  0  0  0  0  0  0  0  2 V2000
  137.9747  137.5120  155.1417 C   0  0  0  0  0  0  0  0  0  0  0  0
  139.4585  137.6540  155.1479 C   0  0  0  0  0  0  0  0  0  0  0  0
  140.2497  136.9679  155.9817 N   0  0  0  0  0  0  0  0  0  0  0  0
  141.5923  137.2674  155.7987 N   0  0  0  0  0  0  0  0  0  0  0  0
  141.7747  138.1733  154.8281 C   0  0  0  0  0  0  0  0  0  0  0  0
  143.0491  138.6585  154.4314 N   0  0  0  0  0  0  0  0  0  0  0  0
  144.2589  138.2857  154.8847 C   0  0  0  0  0  0  0  0  0  0  0  0
  144.4635  137.4442  155.7599 O   0  0  0  0  0  0  0  0  0  0  0  0
  145.2405  138.9447  154.2507 N   0  0  0  0  0  0  0  0  0  0  0  0
  146.6704  138.7818  154.5062 C   0  0  0  0  0  0  0  0  0  0  0  0
  147.4089  140.1268  154.7414 C   0  0  2  0  0  0  0  0  0  0  0  0
  147.2943  141.0449  153.4989 C   0  0  0  0  0  0  0  0  0  0  0  0
  148.8270  139.8677  155.1592 N   0  3  0  0  0  0  0  0  0  0  0  0
  149.5754  138.8824  154.3295 C   0  0  0  0  0  0  0  0  0  0  0  0
  151.0002  138.6687  154.8693 C   0  0  0  0  0  0  0  0  0  0  0  0
  151.6875  139.9094  154.9269 O   0  0  0  0  0  0  0  0  0  0  0  0
  151.0427  140.8195  155.8049 C   0  0  0  0  0  0  0  0  0  0  0  0
  149.6271  141.1170  155.2843 C   0  0  0  0  0  0  0  0  0  0  0  0
  140.3054  138.7386  154.0517 S   0  0  0  0  0  0  0  0  0  0  0  0
  137.6408  136.9217  155.9956 H   0  0  0  0  0  0  0  0  0  0  0  0
  137.6524  137.0161  154.2262 H   0  0  0  0  0  0  0  0  0  0  0  0
  137.5052  138.4944  155.1928 H   0  0  0  0  0  0  0  0  0  0  0  0
  143.0366  139.3653  153.7112 H   0  0  0  0  0  0  0  0  0  0  0  0
  144.9794  139.6175  153.5445 H   0  0  0  0  0  0  0  0  0  0  0  0
  146.7390  138.1382  155.3809 H   0  0  0  0  0  0  0  0  0  0  0  0
  147.1507  138.2313  153.6953 H   0  0  0  0  0  0  0  0  0  0  0  0
  146.9143  140.6522  155.5601 H   0  0  0  0  0  0  0  0  0  0  0  0
  146.2563  141.2237  153.2220 H   0  0  0  0  0  0  0  0  0  0  0  0
  147.7936  140.6084  152.6332 H   0  0  0  0  0  0  0  0  0  0  0  0
  147.7150  142.0345  153.6764 H   0  0  0  0  0  0  0  0  0  0  0  0
  149.0801  137.9120  154.3357 H   0  0  0  0  0  0  0  0  0  0  0  0
  149.6138  139.2275  153.2951 H   0  0  0  0  0  0  0  0  0  0  0  0
  150.9767  138.2054  155.8570 H   0  0  0  0  0  0  0  0  0  0  0  0
  151.5506  137.9917  154.2156 H   0  0  0  0  0  0  0  0  0  0  0  0
  151.0109  140.4132  156.8172 H   0  0  0  0  0  0  0  0  0  0  0  0
  151.6269  141.7388  155.8493 H   0  0  0  0  0  0  0  0  0  0  0  0
  149.6892  141.6086  154.3121 H   0  0  0  0  0  0  0  0  0  0  0  0
  149.1553  141.8232  155.9644 H   0  0  0  0  0  0  0  0  0  0  0  0
  148.7746  139.4598  156.0819 H   0  0  0  0  0  0  0  0  0  0  0  0
  1  2  1  0  0  0  0
  1 20  1  0  0  0  0
  1 21  1  0  0  0  0
  1 22  1  0  0  0  0
  2 19  1  0  0  0  0
  2  3  2  0  0  0  0
  3  4  1  0  0  0  0
  4  5  2  0  0  0  0
  5  6  1  0  0  0  0
  5 19  1  0  0  0  0
  6  7  1  0  0  0  0
  6 23  1  0  0  0  0
  7  8  2  0  0  0  0
  7  9  1  0  0  0  0
  9 10  1  0  0  0  0
  9 24  1  0  0  0  0
 10 11  1  0  0  0  0
 10 25  1  0  0  0  0
 10 26  1  0  0  0  0
 11 12  1  0  0  0  0
 11 13  1  0  0  0  0
 11 27  1  0  0  0  0
 12 28  1  0  0  0  0
 12 29  1  0  0  0  0
 12 30  1  0  0  0  0
 13 18  1  0  0  0  0
 13 14  1  0  0  0  0
 13 39  1  0  0  0  0
 14 15  1  0  0  0  0
 14 31  1  0  0  0  0
 14 32  1  0  0  0  0
 15 16  1  0  0  0  0
 15 33  1  0  0  0  0
 15 34  1  0  0  0  0
 16 17  1  0  0  0  0
 17 18  1  0  0  0  0
 17 35  1  0  0  0  0
 17 36  1  0  0  0  0
 18 37  1  0  0  0  0
 18 38  1  0  0  0  0
M  CHG  1  13   1
M  END
> <s_m_source_file>
AV-unprocessed.smi

> <i_m_source_file_index>
2069

> <i_lp_mmshare_version>
43012

> <i_f3d_flags>
0

> <s_epik_input>
W0NIM11jMW5uYyhzMSlbTkhdQyg9TylbTkhdW0NIMl1bQ0BIXShbQ0gzXSlOMltDSDJdW0NIMl1PW0NIMl1bQ0gyXTI=

> <s_epik_cmdline>
J2VwaWtfcHl0aG9uJywgJy1waCcsICc3LjAnLCAnLXRuJywgJzgnLCAnLW1hJywgJzIwMCcsICctbWV0YWxfYmluZGluZycsICctaW1hZScsICc8aW5maWxlLm1hZT4nLCAnLW9tYWUnLCAnPG91dGZpbGUubWFlPic=

> <r_lp_tautomer_probability>
1

> <r_epik_Ionization_Penalty>
0.70016

> <r_epik_Ionization_Penalty_Charging>
0.695697

> <r_epik_Ionization_Penalty_Neutral>
0.00446266

> <r_epik_State_Penalty>
0.717972

> <r_epik_Charging_Adjusted_Penalty>
1.41367

> <i_epik_Tot_Q>
1

> <i_epik_Tot_abs_Q>
1

> <r_epik_Metal_State_Penalty>
1.06969

> <b_epik_Metal_Only>
0

> <s_lp_Force_Field>
OPLS_2005

> <r_lp_Energy>
19.5762

> <b_lp_Chiralities_Consistent>
1

> <s_lp_Variant>
AV-unprocessed.smi:2069-3

> <Gold.Version>
5.8.1

> <Gold.Id.Protein>
6NUR|6NUR_protein|mol2

> <Gold.PLP.Fitness>
40.2784

> <Gold.PLP.PLP>
-29.4265

> <Gold.PLP.part.hbond>
-3.9374

> <Gold.PLP.part.metal>
0.0000

> <Gold.PLP.part.buried>
-4.8082

> <Gold.PLP.part.nonpolar>
-21.5102

> <Gold.PLP.part.repulsive>
0.1386

> <Gold.PLP.ligand.clash>
0.0000

> <Gold.PLP.ligand.torsion>
0.1907

> <Gold.PLP.Chemscore.Hbond>
3.7280

> <Gold.PLP.Chemscore.CHOScore>
0.0000

> <Gold.PLP.Chemscore.Metal>
0.0000

> <Gold.Chemscore.Hbonds>
donor molecule, donor type, donor heavy atom, donor atom, acceptor molecule, acceptor atom, score
      L1  H     6    23       P1 10175  1.00
      L1  H     9    24       P1 10175  1.00
      P1  H  7989  7998       L1    16  0.95
      P1  H 11000 11005       L1     3  0.59

> <Gold.PLP.Chemscore.Internal.Correction>
0.0492

> <Gold.Rescore>
     Score         DG    S(hbond)    S(metal)    S(lipo)     H(rot)  DE(clash)    DE(int)     intcor
     18.51     -20.07       3.41        0.00      63.27       1.65       0.04       1.52       ----

> <Gold.Chemscore.Fitness>
18.5149

> <Gold.Chemscore.DG>
-20.0660

> <Gold.Chemscore.ZeroCoef>
-5.4800

> <Gold.Chemscore.Hbond>
3.4137

> <Gold.Chemscore.Metal>
0.0000

> <Gold.Chemscore.Lipo>
63.2657

> <Gold.Chemscore.Internal_Hbond>
0.0000

> <Gold.Chemscore.DEClash>
0.0355

> <Gold.Chemscore.DEInternal>
1.5156

> <Gold.Chemscore.Rot>
1.6476

> <Gold.Chemscore.Internal.Correction>
   9.000000E+99

> <Gold.Chemscore.Hbonds>
donor molecule, donor type, donor heavy atom, donor atom, acceptor molecule, acceptor atom, score
      L1  H     6    23       P1 10175  1.00
      L1  H     9    24       P1 10175  0.95
      P1  H  7989  7998       L1    16  0.20
      P1  H 11000 11005       L1     3  0.47

> <Gold.Chemscore.Hbond.Weighted>
-11.4018

> <Gold.Chemscore.Metal.Weighted>
-0.0000

> <Gold.Chemscore.Lipo.Weighted>
-7.4021

> <Gold.Chemscore.Internal_Hbond.Weighted>
0.0000

> <Gold.Chemscore.DEClash.Weighted>
0.0355

> <Gold.Chemscore.DEInternal.Weighted>
1.5156

> <Gold.Chemscore.Rot.Weighted>
4.2179

> <Gold.Chemscore.Internal.Correction.Weighted>
   9.000000E+99

> <Gold.Protein.RotatedTorsions>
[ 6907 6896 6895 6894 ] final  -18.30 input  -60.11 | X-H torsion
[ 7974 7965 7964 7962 ] final -139.70 input  175.53 | X-H torsion
[ 8008 7997 7996 7995 ] final -135.30 input   59.86 | X-H torsion
[ 10167 10162 10161 10158 ] final  -47.01 input  -65.29 | X-H torsion
[ 10718 10713 10712 10709 ] final  146.80 input   66.30 | X-H torsion
[ 10763 10752 10751 10750 ] final -179.41 input  -60.55 | X-H torsion
[ 11005 11000 10999 10996 ] final   85.01 input  -57.11 | X-H torsion

> <Gold.Protein.ActiveResidues>
 VAL166  LYS551  ARG553  GLY616  TRP617  ASP618  TYR619  PRO620  LYS621  CYS622 
 ASP623  PHE694  ASN695  SER759  ASP760  ASP761  ALA762  ILE779  LEU786  VAL792 
 PHE793  MET794  SER795  GLU796  ALA797  LYS798  CYS799  TRP800  GLU811  SER814 

> <Gold.Protein.RotatedAtoms>
  151.2803  135.0711  159.9166 H   0  0  0  0  0  0  0  0  0  0  0  0  # atno 6907 bound_to 6896
  152.5335  134.0038  159.7917 H   0  0  0  0  0  0  0  0  0  0  0  0  # atno 6908 bound_to 6896
  151.0291  133.5756  159.2693 H   0  0  0  0  0  0  0  0  0  0  0  0  # atno 6909 bound_to 6896
  144.8656  140.6288  143.5300 H   0  0  0  0  0  0  0  0  0  0  0  0  # atno 7974 bound_to 7965
  155.3764  140.0491  157.3044 H   0  0  0  0  0  0  0  0  0  0  0  0  # atno 8008 bound_to 7997
  154.5104  140.2189  155.9129 H   0  0  0  0  0  0  0  0  0  0  0  0  # atno 8009 bound_to 7997
  156.1576  140.3123  155.8758 H   0  0  0  0  0  0  0  0  0  0  0  0  # atno 8010 bound_to 7997
  140.6793  143.2804  151.3865 H   0  0  0  0  0  0  0  0  0  0  0  0  # atno 10167 bound_to 10162
  157.3288  131.0917  151.1180 H   0  0  0  0  0  0  0  0  0  0  0  0  # atno 10718 bound_to 10713
  154.5355  135.2802  155.1142 H   0  0  0  0  0  0  0  0  0  0  0  0  # atno 10763 bound_to 10752
  154.2646  135.6315  153.5291 H   0  0  0  0  0  0  0  0  0  0  0  0  # atno 10764 bound_to 10752
  152.9966  135.5613  154.5880 H   0  0  0  0  0  0  0  0  0  0  0  0  # atno 10765 bound_to 10752
  139.8984  134.8256  156.2523 H   0  0  0  0  0  0  0  0  0  0  0  0  # atno 11005 bound_to 11000
  145.4228  139.1561  143.4064 LP  0  0  0  0  0  0  0  0  0  0  0  0  # atno 17320 bound_to 7965
  146.2893  140.4340  142.8745 LP  0  0  0  0  0  0  0  0  0  0  0  0  # atno 17321 bound_to 7965
  139.6105  144.1107  152.2294 LP  0  0  0  0  0  0  0  0  0  0  0  0  # atno 17342 bound_to 10162
  140.0520  144.5925  150.7329 LP  0  0  0  0  0  0  0  0  0  0  0  0  # atno 17343 bound_to 10162
  157.2437  130.6581  149.5901 LP  0  0  0  0  0  0  0  0  0  0  0  0  # atno 17370 bound_to 10713
  155.9693  130.4560  150.5910 LP  0  0  0  0  0  0  0  0  0  0  0  0  # atno 17371 bound_to 10713
  141.0216  133.7038  156.1277 LP  0  0  0  0  0  0  0  0  0  0  0  0  # atno 17394 bound_to 11000
  140.7226  134.4342  157.5573 LP  0  0  0  0  0  0  0  0  0  0  0  0  # atno 17395 bound_to 11000

$$$$
