AV-unprocessed.smi:1916|AV-procd|sdf|7765|dock2
  -GOLD-   22720 9513D 1   1.00000     0.00000
 Structure written by MMmdl.
 45 47  0  0  0  0  0  0  0  0  1 V2000
  151.8541  136.1406  156.4856 O   0  0  0  0  0  0  0  0  0  0  0  0
  151.4884  137.2869  156.7483 C   0  0  0  0  0  0  0  0  0  0  0  0
  150.4508  137.5639  157.5538 N   0  0  0  0  0  0  0  0  0  0  0  0
  149.6350  136.5764  158.2570 C   0  0  0  0  0  0  0  0  0  0  0  0
  148.4741  137.2201  159.0423 C   0  0  0  0  0  0  0  0  0  0  0  0
  148.0977  136.4664  160.3068 C   0  0  0  0  0  0  0  0  0  0  0  0
  147.9211  135.0659  160.2878 C   0  0  0  0  0  0  0  0  0  0  0  0
  147.5331  134.4227  161.4789 C   0  0  0  0  0  0  0  0  0  0  0  0
  147.3430  135.1992  162.6379 C   0  0  0  0  0  0  0  0  0  0  0  0
  147.5526  136.5902  162.5546 C   0  0  0  0  0  0  0  0  0  0  0  0
  147.9247  137.2171  161.4179 N   0  0  0  0  0  0  0  0  0  0  0  0
  152.2402  138.4916  156.1605 C   0  0  1  0  0  0  0  0  0  0  0  0
  151.4363  139.1460  155.0232 C   0  0  0  0  0  0  0  0  0  0  0  0
  150.9330  140.4423  155.6354 C   0  0  0  0  0  0  0  0  0  0  0  0
  150.1015  141.1570  155.0774 O   0  0  0  0  0  0  0  0  0  0  0  0
  151.4794  140.6560  156.8401 N   0  0  0  0  0  0  0  0  0  0  0  0
  151.0916  141.7394  157.7567 C   0  0  0  0  0  0  0  0  0  0  0  0
  151.2955  143.1739  157.2122 C   0  0  0  0  0  0  0  0  0  0  0  0
  152.0065  143.9456  158.3265 C   0  0  0  0  0  0  0  0  0  0  0  0
  152.8012  142.8847  159.0818 C   0  0  0  0  0  0  0  0  0  0  0  0
  151.8904  141.6577  159.0725 C   0  0  0  0  0  0  0  0  0  0  0  0
  152.4486  139.6230  157.1875 C   0  0  0  0  0  0  0  0  0  0  0  0
  150.2221  138.5348  157.7102 H   0  0  0  0  0  0  0  0  0  0  0  0
  149.2298  135.8894  157.5140 H   0  0  0  0  0  0  0  0  0  0  0  0
  150.2519  135.9708  158.9231 H   0  0  0  0  0  0  0  0  0  0  0  0
  148.7326  138.2476  159.3017 H   0  0  0  0  0  0  0  0  0  0  0  0
  147.5939  137.2854  158.4015 H   0  0  0  0  0  0  0  0  0  0  0  0
  148.0626  134.4988  159.3796 H   0  0  0  0  0  0  0  0  0  0  0  0
  147.3790  133.3540  161.5016 H   0  0  0  0  0  0  0  0  0  0  0  0
  147.0427  134.7403  163.5683 H   0  0  0  0  0  0  0  0  0  0  0  0
  147.4167  137.2165  163.4239 H   0  0  0  0  0  0  0  0  0  0  0  0
  153.2095  138.1550  155.7882 H   0  0  0  0  0  0  0  0  0  0  0  0
  152.0754  139.3725  154.1692 H   0  0  0  0  0  0  0  0  0  0  0  0
  150.6020  138.5384  154.6694 H   0  0  0  0  0  0  0  0  0  0  0  0
  150.0325  141.6252  157.9961 H   0  0  0  0  0  0  0  0  0  0  0  0
  151.9172  143.2051  156.3197 H   0  0  0  0  0  0  0  0  0  0  0  0
  150.3474  143.6424  156.9461 H   0  0  0  0  0  0  0  0  0  0  0  0
  152.6367  144.7491  157.9443 H   0  0  0  0  0  0  0  0  0  0  0  0
  151.2675  144.3915  158.9936 H   0  0  0  0  0  0  0  0  0  0  0  0
  153.7229  142.6620  158.5425 H   0  0  0  0  0  0  0  0  0  0  0  0
  153.0713  143.1995  160.0900 H   0  0  0  0  0  0  0  0  0  0  0  0
  151.2016  141.7114  159.9166 H   0  0  0  0  0  0  0  0  0  0  0  0
  152.4574  140.7318  159.1807 H   0  0  0  0  0  0  0  0  0  0  0  0
  152.3172  139.2907  158.2188 H   0  0  0  0  0  0  0  0  0  0  0  0
  153.4574  140.0272  157.0950 H   0  0  0  0  0  0  0  0  0  0  0  0
  1  2  2  0  0  0  0
  2  3  1  0  0  0  0
  2 12  1  0  0  0  0
  3  4  1  0  0  0  0
  3 23  1  0  0  0  0
  4  5  1  0  0  0  0
  4 24  1  0  0  0  0
  4 25  1  0  0  0  0
  5  6  1  0  0  0  0
  5 26  1  0  0  0  0
  5 27  1  0  0  0  0
  6 11  1  0  0  0  0
  6  7  2  0  0  0  0
  7  8  1  0  0  0  0
  7 28  1  0  0  0  0
  8  9  2  0  0  0  0
  8 29  1  0  0  0  0
  9 10  1  0  0  0  0
  9 30  1  0  0  0  0
 10 11  2  0  0  0  0
 10 31  1  0  0  0  0
 12 22  1  0  0  0  0
 12 13  1  0  0  0  0
 12 32  1  0  0  0  0
 13 14  1  0  0  0  0
 13 33  1  0  0  0  0
 13 34  1  0  0  0  0
 14 15  2  0  0  0  0
 14 16  1  0  0  0  0
 16 17  1  0  0  0  0
 16 22  1  0  0  0  0
 17 21  1  0  0  0  0
 17 18  1  0  0  0  0
 17 35  1  0  0  0  0
 18 19  1  0  0  0  0
 18 36  1  0  0  0  0
 18 37  1  0  0  0  0
 19 20  1  0  0  0  0
 19 38  1  0  0  0  0
 19 39  1  0  0  0  0
 20 21  1  0  0  0  0
 20 40  1  0  0  0  0
 20 41  1  0  0  0  0
 21 42  1  0  0  0  0
 21 43  1  0  0  0  0
 22 44  1  0  0  0  0
 22 45  1  0  0  0  0
M  END
> <s_m_source_file>
AV-unprocessed.smi

> <i_m_source_file_index>
1916

> <i_lp_mmshare_version>
43012

> <i_f3d_flags>
0

> <s_epik_input>
W0NIMl0xW0NIMl1bQ0gyXVtDSDJdW0NIXTFOKFtDSDJdMilDKD1PKVtDSDJdW0NASF0yQyg9TylbTkhdW0NIMl1bQ0gyXWMzW2NIXVtjSF1bY0hdW2NIXW4z

> <s_epik_cmdline>
J2VwaWtfcHl0aG9uJywgJy1waCcsICc3LjAnLCAnLXRuJywgJzgnLCAnLW1hJywgJzIwMCcsICctbWV0YWxfYmluZGluZycsICctaW1hZScsICc8aW5maWxlLm1hZT4nLCAnLW9tYWUnLCAnPG91dGZpbGUubWFlPic=

> <r_epik_Ionization_Penalty>
0.0252359

> <r_epik_Ionization_Penalty_Charging>
0

> <r_epik_Ionization_Penalty_Neutral>
0.0252359

> <r_epik_State_Penalty>
0.020532

> <r_epik_Charging_Adjusted_Penalty>
0.020532

> <i_epik_Tot_Q>
0

> <i_epik_Tot_abs_Q>
0

> <r_epik_Metal_State_Penalty>
0.0196901

> <b_epik_Metal_Only>
0

> <s_lp_Force_Field>
OPLS_2005

> <r_lp_Energy>
33.9945

> <b_lp_Chiralities_Consistent>
1

> <s_lp_Variant>
AV-unprocessed.smi:1916-2

> <Gold.Version>
5.8.1

> <Gold.Id.Protein>
6NUR|6NUR_protein|mol2

> <Gold.PLP.Fitness>
53.0779

> <Gold.PLP.PLP>
-46.5961

> <Gold.PLP.part.hbond>
-3.9220

> <Gold.PLP.part.metal>
0.0000

> <Gold.PLP.part.buried>
-0.9520

> <Gold.PLP.part.nonpolar>
-40.2158

> <Gold.PLP.part.repulsive>
0.1522

> <Gold.PLP.ligand.clash>
0.0000

> <Gold.PLP.ligand.torsion>
0.8097

> <Gold.PLP.Chemscore.Hbond>
2.6661

> <Gold.PLP.Chemscore.CHOScore>
0.0000

> <Gold.PLP.Chemscore.Metal>
0.0000

> <Gold.Chemscore.Hbonds>
donor molecule, donor type, donor heavy atom, donor atom, acceptor molecule, acceptor atom, score
      P1  H  6931  6943       L1    11  1.00
      P1  H  6934  6947       L1    11  0.69
      P1  H 10752 10765       L1     1  0.98

> <Gold.PLP.Chemscore.Internal.Correction>
0.1029

> <Gold.Rescore>
     Score         DG    S(hbond)    S(metal)    S(lipo)     H(rot)  DE(clash)    DE(int)     intcor
     20.57     -21.32       2.15        0.00     109.16       1.61       0.04       0.71       ----

> <Gold.Chemscore.Fitness>
20.5704

> <Gold.Chemscore.DG>
-21.3217

> <Gold.Chemscore.ZeroCoef>
-5.4800

> <Gold.Chemscore.Hbond>
2.1541

> <Gold.Chemscore.Metal>
0.0000

> <Gold.Chemscore.Lipo>
109.1552

> <Gold.Chemscore.Internal_Hbond>
0.0000

> <Gold.Chemscore.DEClash>
0.0431

> <Gold.Chemscore.DEInternal>
0.7082

> <Gold.Chemscore.Rot>
1.6110

> <Gold.Chemscore.Internal.Correction>
   9.000000E+99

> <Gold.Chemscore.Hbonds>
donor molecule, donor type, donor heavy atom, donor atom, acceptor molecule, acceptor atom, score
      P1  H  6931  6943       L1    11  0.42
      P1  H  6934  6947       L1    11  0.50
      P1  H 10752 10765       L1     1  0.92

> <Gold.Chemscore.Hbond.Weighted>
-7.1949

> <Gold.Chemscore.Metal.Weighted>
-0.0000

> <Gold.Chemscore.Lipo.Weighted>
-12.7712

> <Gold.Chemscore.Internal_Hbond.Weighted>
0.0000

> <Gold.Chemscore.DEClash.Weighted>
0.0431

> <Gold.Chemscore.DEInternal.Weighted>
0.7082

> <Gold.Chemscore.Rot.Weighted>
4.1243

> <Gold.Chemscore.Internal.Correction.Weighted>
   9.000000E+99

> <Gold.Protein.RotatedTorsions>
[ 6907 6896 6895 6894 ] final -119.63 input  -60.11 | X-H torsion
[ 7974 7965 7964 7962 ] final  -13.91 input  175.53 | X-H torsion
[ 8008 7997 7996 7995 ] final   69.13 input   59.86 | X-H torsion
[ 10167 10162 10161 10158 ] final -138.90 input  -65.29 | X-H torsion
[ 10718 10713 10712 10709 ] final -156.48 input   66.30 | X-H torsion
[ 10763 10752 10751 10750 ] final -143.97 input  -60.55 | X-H torsion
[ 11005 11000 10999 10996 ] final  -92.67 input  -57.11 | X-H torsion

> <Gold.Protein.ActiveResidues>
 VAL166  LYS551  ARG553  GLY616  TRP617  ASP618  TYR619  PRO620  LYS621  CYS622 
 ASP623  PHE694  ASN695  SER759  ASP760  ASP761  ALA762  ILE779  LEU786  VAL792 
 PHE793  MET794  SER795  GLU796  ALA797  LYS798  CYS799  TRP800  GLU811  SER814 

> <Gold.Protein.RotatedAtoms>
  150.8322  133.8073  159.3093 H   0  0  0  0  0  0  0  0  0  0  0  0  # atno 6907 bound_to 6896
  151.5799  135.1057  160.0024 H   0  0  0  0  0  0  0  0  0  0  0  0  # atno 6908 bound_to 6896
  152.4399  133.7388  159.6685 H   0  0  0  0  0  0  0  0  0  0  0  0  # atno 6909 bound_to 6896
  146.2095  140.3272  142.8395 H   0  0  0  0  0  0  0  0  0  0  0  0  # atno 7974 bound_to 7965
  155.7189  140.3493  155.5007 H   0  0  0  0  0  0  0  0  0  0  0  0  # atno 8008 bound_to 7997
  155.9288  140.1080  157.1170 H   0  0  0  0  0  0  0  0  0  0  0  0  # atno 8009 bound_to 7997
  154.4082  140.1235  156.4762 H   0  0  0  0  0  0  0  0  0  0  0  0  # atno 8010 bound_to 7997
  139.8433  143.7294  152.2662 H   0  0  0  0  0  0  0  0  0  0  0  0  # atno 10167 bound_to 10162
  156.5270  130.8504  151.2703 H   0  0  0  0  0  0  0  0  0  0  0  0  # atno 10718 bound_to 10713
  154.8448  135.3453  154.6271 H   0  0  0  0  0  0  0  0  0  0  0  0  # atno 10763 bound_to 10752
  153.6880  135.6976  153.5103 H   0  0  0  0  0  0  0  0  0  0  0  0  # atno 10764 bound_to 10752
  153.2617  135.4321  155.0856 H   0  0  0  0  0  0  0  0  0  0  0  0  # atno 10765 bound_to 10752
  141.1516  133.7836  157.0052 H   0  0  0  0  0  0  0  0  0  0  0  0  # atno 11005 bound_to 11000
  144.8878  140.7484  143.5946 LP  0  0  0  0  0  0  0  0  0  0  0  0  # atno 17320 bound_to 7965
  145.3194  139.1793  143.4596 LP  0  0  0  0  0  0  0  0  0  0  0  0  # atno 17321 bound_to 7965
  139.7538  144.7526  151.0467 LP  0  0  0  0  0  0  0  0  0  0  0  0  # atno 17342 bound_to 10162
  140.7796  143.4830  150.9993 LP  0  0  0  0  0  0  0  0  0  0  0  0  # atno 17343 bound_to 10162
  157.7428  130.9898  150.2542 LP  0  0  0  0  0  0  0  0  0  0  0  0  # atno 17370 bound_to 10713
  156.3095  130.3770  149.7675 LP  0  0  0  0  0  0  0  0  0  0  0  0  # atno 17371 bound_to 10713
  140.0914  134.9590  157.1782 LP  0  0  0  0  0  0  0  0  0  0  0  0  # atno 17394 bound_to 11000
  140.3441  134.2671  155.7207 LP  0  0  0  0  0  0  0  0  0  0  0  0  # atno 17395 bound_to 11000

$$$$
