AV-unprocessed.smi:830|AV-procd|sdf|3871|dock10
  -GOLD-   22720 1323D 1   1.00000     0.00000
 Structure written by MMmdl.
 52 54  0  0  0  0  0  0  0  0  1 V2000
  152.6165  138.4295  154.5496 C   0  0  0  0  0  0  0  0  0  0  0  0
  151.0939  138.6374  154.6135 C   0  0  1  0  0  0  0  0  0  0  0  0
  150.4470  137.3718  154.2722 N   0  0  0  0  0  0  0  0  0  0  0  0
  150.5481  136.2391  154.9835 C   0  0  0  0  0  0  0  0  0  0  0  0
  151.1679  136.1591  156.0440 O   0  0  0  0  0  0  0  0  0  0  0  0
  149.8822  135.2343  154.3897 N   0  0  0  0  0  0  0  0  0  0  0  0
  149.7214  133.8845  154.8193 C   0  0  0  0  0  0  0  0  0  0  0  0
  150.6078  133.2712  155.7396 C   0  0  0  0  0  0  0  0  0  0  0  0
  150.3777  131.9441  156.1409 C   0  0  0  0  0  0  0  0  0  0  0  0
  149.2679  131.2705  155.6053 C   0  0  0  0  0  0  0  0  0  0  0  0
  148.4273  131.8305  154.7134 N   0  0  0  0  0  0  0  0  0  0  0  0
  148.6456  133.1048  154.3050 C   0  0  0  0  0  0  0  0  0  0  0  0
  147.7538  133.6301  153.3423 N   0  0  0  0  0  0  0  0  0  0  0  0
  147.0311  132.6762  152.5058 C   0  0  0  0  0  0  0  0  0  0  0  0
  145.6236  133.2497  152.3099 C   0  0  0  0  0  0  0  0  0  0  0  0
  145.7998  134.7385  152.5909 C   0  0  0  0  0  0  0  0  0  0  0  0
  146.8667  134.7378  153.6821 C   0  0  0  0  0  0  0  0  0  0  0  0
  150.7242  139.0469  156.0475 C   0  0  0  0  0  0  0  0  0  0  0  0
  149.8467  138.4410  156.6650 O   0  0  0  0  0  0  0  0  0  0  0  0
  151.4149  140.0725  156.5675 N   0  0  0  0  0  0  0  0  0  0  0  0
  151.2200  140.6244  157.9052 C   0  0  0  0  0  0  0  0  0  0  0  0
  151.0183  142.1509  157.8443 C   0  0  0  0  0  0  0  0  0  0  0  0
  151.9513  142.7435  158.9016 C   0  0  0  0  0  0  0  0  0  0  0  0
  153.1142  141.7586  158.9721 C   0  0  0  0  0  0  0  0  0  0  0  0
  152.4548  140.3901  158.7984 C   0  0  0  0  0  0  0  0  0  0  0  0
  153.1517  139.3438  154.8092 H   0  0  0  0  0  0  0  0  0  0  0  0
  152.9278  138.1474  153.5433 H   0  0  0  0  0  0  0  0  0  0  0  0
  152.9507  137.6438  155.2292 H   0  0  0  0  0  0  0  0  0  0  0  0
  150.8010  139.4149  153.9049 H   0  0  0  0  0  0  0  0  0  0  0  0
  149.9166  137.3503  153.4137 H   0  0  0  0  0  0  0  0  0  0  0  0
  149.3584  135.4830  153.5633 H   0  0  0  0  0  0  0  0  0  0  0  0
  151.4657  133.7870  156.1412 H   0  0  0  0  0  0  0  0  0  0  0  0
  151.0356  131.4560  156.8444 H   0  0  0  0  0  0  0  0  0  0  0  0
  149.0538  130.2518  155.8931 H   0  0  0  0  0  0  0  0  0  0  0  0
  147.5379  132.5997  151.5435 H   0  0  0  0  0  0  0  0  0  0  0  0
  146.9969  131.6804  152.9505 H   0  0  0  0  0  0  0  0  0  0  0  0
  145.2170  133.0468  151.3190 H   0  0  0  0  0  0  0  0  0  0  0  0
  144.9454  132.8167  153.0466 H   0  0  0  0  0  0  0  0  0  0  0  0
  146.1749  135.2446  151.7002 H   0  0  0  0  0  0  0  0  0  0  0  0
  144.8758  135.2289  152.8984 H   0  0  0  0  0  0  0  0  0  0  0  0
  146.3912  134.5762  154.6503 H   0  0  0  0  0  0  0  0  0  0  0  0
  147.4092  135.6828  153.7199 H   0  0  0  0  0  0  0  0  0  0  0  0
  152.1178  140.5112  155.9904 H   0  0  0  0  0  0  0  0  0  0  0  0
  150.3445  140.1641  158.3676 H   0  0  0  0  0  0  0  0  0  0  0  0
  151.3017  142.5387  156.8643 H   0  0  0  0  0  0  0  0  0  0  0  0
  149.9790  142.4353  158.0132 H   0  0  0  0  0  0  0  0  0  0  0  0
  152.2714  143.7573  158.6589 H   0  0  0  0  0  0  0  0  0  0  0  0
  151.4407  142.7765  159.8650 H   0  0  0  0  0  0  0  0  0  0  0  0
  153.8026  141.9429  158.1462 H   0  0  0  0  0  0  0  0  0  0  0  0
  153.6782  141.8383  159.9020 H   0  0  0  0  0  0  0  0  0  0  0  0
  152.1270  140.0232  159.7719 H   0  0  0  0  0  0  0  0  0  0  0  0
  153.1493  139.6501  158.3974 H   0  0  0  0  0  0  0  0  0  0  0  0
  1  2  1  0  0  0  0
  1 26  1  0  0  0  0
  1 27  1  0  0  0  0
  1 28  1  0  0  0  0
  2  3  1  0  0  0  0
  2 18  1  0  0  0  0
  2 29  1  0  0  0  0
  3  4  1  0  0  0  0
  3 30  1  0  0  0  0
  4  5  2  0  0  0  0
  4  6  1  0  0  0  0
  6  7  1  0  0  0  0
  6 31  1  0  0  0  0
  7 12  1  0  0  0  0
  7  8  2  0  0  0  0
  8  9  1  0  0  0  0
  8 32  1  0  0  0  0
  9 10  2  0  0  0  0
  9 33  1  0  0  0  0
 10 11  1  0  0  0  0
 10 34  1  0  0  0  0
 11 12  2  0  0  0  0
 12 13  1  0  0  0  0
 13 17  1  0  0  0  0
 13 14  1  0  0  0  0
 14 15  1  0  0  0  0
 14 35  1  0  0  0  0
 14 36  1  0  0  0  0
 15 16  1  0  0  0  0
 15 37  1  0  0  0  0
 15 38  1  0  0  0  0
 16 17  1  0  0  0  0
 16 39  1  0  0  0  0
 16 40  1  0  0  0  0
 17 41  1  0  0  0  0
 17 42  1  0  0  0  0
 18 19  2  0  0  0  0
 18 20  1  0  0  0  0
 20 21  1  0  0  0  0
 20 43  1  0  0  0  0
 21 25  1  0  0  0  0
 21 22  1  0  0  0  0
 21 44  1  0  0  0  0
 22 23  1  0  0  0  0
 22 45  1  0  0  0  0
 22 46  1  0  0  0  0
 23 24  1  0  0  0  0
 23 47  1  0  0  0  0
 23 48  1  0  0  0  0
 24 25  1  0  0  0  0
 24 49  1  0  0  0  0
 24 50  1  0  0  0  0
 25 51  1  0  0  0  0
 25 52  1  0  0  0  0
M  END
> <s_m_source_file>
AV-unprocessed.smi

> <i_m_source_file_index>
830

> <i_lp_mmshare_version>
43012

> <i_f3d_flags>
0

> <s_epik_input>
W0NIMl0xW0NIMl1bQ0gyXVtDSDJdW0NIXTFbTkhdQyg9TylbQ0BIXShbQ0gzXSlbTkhdQyg9TylbTkhdYzJbY0hdW2NIXVtjSF1uYzJOM1tDSDJdW0NIMl1bQ0gyXVtDSDJdMw==

> <s_epik_cmdline>
J2VwaWtfcHl0aG9uJywgJy1waCcsICc3LjAnLCAnLXRuJywgJzgnLCAnLW1hJywgJzIwMCcsICctbWV0YWxfYmluZGluZycsICctaW1hZScsICc8aW5maWxlLm1hZT4nLCAnLW9tYWUnLCAnPG91dGZpbGUubWFlPic=

> <r_lp_tautomer_probability>
1

> <r_epik_Ionization_Penalty>
0.0827694

> <r_epik_Ionization_Penalty_Charging>
0

> <r_epik_Ionization_Penalty_Neutral>
0.0827694

> <r_epik_State_Penalty>
0.0729202

> <r_epik_Charging_Adjusted_Penalty>
0.0729202

> <i_epik_Tot_Q>
0

> <i_epik_Tot_abs_Q>
0

> <r_epik_Metal_State_Penalty>
0.0639723

> <b_epik_Metal_Only>
0

> <s_lp_Force_Field>
OPLS_2005

> <r_lp_Energy>
46.8553

> <b_lp_Chiralities_Consistent>
1

> <s_lp_Variant>
AV-unprocessed.smi:830-2

> <Gold.Version>
5.8.1

> <Gold.Id.Protein>
6NUR|6NUR_protein|mol2

> <Gold.PLP.Fitness>
42.5516

> <Gold.PLP.PLP>
-37.6896

> <Gold.PLP.part.hbond>
-3.1212

> <Gold.PLP.part.metal>
0.0000

> <Gold.PLP.part.buried>
-4.2876

> <Gold.PLP.part.nonpolar>
-31.3004

> <Gold.PLP.part.repulsive>
0.6109

> <Gold.PLP.ligand.clash>
0.0000

> <Gold.PLP.ligand.torsion>
0.6852

> <Gold.PLP.Chemscore.Hbond>
1.9675

> <Gold.PLP.Chemscore.CHOScore>
0.0000

> <Gold.PLP.Chemscore.Metal>
0.0000

> <Gold.Chemscore.Hbonds>
donor molecule, donor type, donor heavy atom, donor atom, acceptor molecule, acceptor atom, score
      L1  H     3    30       P1  7948  0.82
      L1  H     6    31       P1  7948  1.00

> <Gold.PLP.Chemscore.Internal.Correction>
0.3300

> <Gold.Rescore>
     Score         DG    S(hbond)    S(metal)    S(lipo)     H(rot)  DE(clash)    DE(int)     intcor
     10.11     -15.86       1.58        0.00      79.42       1.64       0.00       5.75       ----

> <Gold.Chemscore.Fitness>
10.1104

> <Gold.Chemscore.DG>
-15.8611

> <Gold.Chemscore.ZeroCoef>
-5.4800

> <Gold.Chemscore.Hbond>
1.5817

> <Gold.Chemscore.Metal>
0.0000

> <Gold.Chemscore.Lipo>
79.4183

> <Gold.Chemscore.Internal_Hbond>
0.0000

> <Gold.Chemscore.DEClash>
0.0015

> <Gold.Chemscore.DEInternal>
5.7492

> <Gold.Chemscore.Rot>
1.6382

> <Gold.Chemscore.Internal.Correction>
   9.000000E+99

> <Gold.Chemscore.Hbonds>
donor molecule, donor type, donor heavy atom, donor atom, acceptor molecule, acceptor atom, score
      L1  H     3    30       P1  7948  0.34
      L1  H     6    31       P1  7948  0.30

> <Gold.Chemscore.Hbond.Weighted>
-5.2828

> <Gold.Chemscore.Metal.Weighted>
-0.0000

> <Gold.Chemscore.Lipo.Weighted>
-9.2919

> <Gold.Chemscore.Internal_Hbond.Weighted>
0.0000

> <Gold.Chemscore.DEClash.Weighted>
0.0015

> <Gold.Chemscore.DEInternal.Weighted>
5.7492

> <Gold.Chemscore.Rot.Weighted>
4.1937

> <Gold.Chemscore.Internal.Correction.Weighted>
   9.000000E+99

> <Gold.Protein.RotatedTorsions>
[ 6907 6896 6895 6894 ] final  -56.61 input  -60.11 | X-H torsion
[ 7974 7965 7964 7962 ] final  142.92 input  175.53 | X-H torsion
[ 8008 7997 7996 7995 ] final  143.15 input   59.86 | X-H torsion
[ 10167 10162 10161 10158 ] final  -22.21 input  -65.29 | X-H torsion
[ 10718 10713 10712 10709 ] final  -25.85 input   66.30 | X-H torsion
[ 10763 10752 10751 10750 ] final  149.08 input  -60.55 | X-H torsion
[ 11005 11000 10999 10996 ] final  145.56 input  -57.11 | X-H torsion

> <Gold.Protein.ActiveResidues>
 VAL166  LYS551  ARG553  GLY616  TRP617  ASP618  TYR619  PRO620  LYS621  CYS622 
 ASP623  PHE694  ASN695  SER759  ASP760  ASP761  ALA762  ILE779  LEU786  VAL792 
 PHE793  MET794  SER795  GLU796  ALA797  LYS798  CYS799  TRP800  GLU811  SER814 

> <Gold.Protein.RotatedAtoms>
  150.8153  134.7332  159.6724 H   0  0  0  0  0  0  0  0  0  0  0  0  # atno 6907 bound_to 6896
  152.4272  134.5842  159.9966 H   0  0  0  0  0  0  0  0  0  0  0  0  # atno 6908 bound_to 6896
  151.6041  133.3316  159.3089 H   0  0  0  0  0  0  0  0  0  0  0  0  # atno 6909 bound_to 6896
  144.8966  139.5482  143.5773 H   0  0  0  0  0  0  0  0  0  0  0  0  # atno 7974 bound_to 7965
  156.2936  140.2270  156.4844 H   0  0  0  0  0  0  0  0  0  0  0  0  # atno 8008 bound_to 7997
  154.7825  140.0459  157.1159 H   0  0  0  0  0  0  0  0  0  0  0  0  # atno 8009 bound_to 7997
  154.9742  140.3070  155.4978 H   0  0  0  0  0  0  0  0  0  0  0  0  # atno 8010 bound_to 7997
  140.7285  143.4556  151.0454 H   0  0  0  0  0  0  0  0  0  0  0  0  # atno 10167 bound_to 10162
  156.4590  130.4500  149.6941 H   0  0  0  0  0  0  0  0  0  0  0  0  # atno 10718 bound_to 10713
  154.0652  135.2871  155.3318 H   0  0  0  0  0  0  0  0  0  0  0  0  # atno 10763 bound_to 10752
  154.6782  135.5273  153.8231 H   0  0  0  0  0  0  0  0  0  0  0  0  # atno 10764 bound_to 10752
  153.0507  135.6575  154.0838 H   0  0  0  0  0  0  0  0  0  0  0  0  # atno 10765 bound_to 10752
  140.0722  134.9145  157.1364 H   0  0  0  0  0  0  0  0  0  0  0  0  # atno 11005 bound_to 11000
  146.3084  139.7661  142.9038 LP  0  0  0  0  0  0  0  0  0  0  0  0  # atno 17320 bound_to 7965
  145.3690  141.0339  143.3242 LP  0  0  0  0  0  0  0  0  0  0  0  0  # atno 17321 bound_to 7965
  139.8236  143.7787  152.3178 LP  0  0  0  0  0  0  0  0  0  0  0  0  # atno 17342 bound_to 10162
  139.7878  144.7421  150.9998 LP  0  0  0  0  0  0  0  0  0  0  0  0  # atno 17343 bound_to 10162
  156.3736  130.7543  151.2529 LP  0  0  0  0  0  0  0  0  0  0  0  0  # atno 17370 bound_to 10713
  157.7499  131.0316  150.4188 LP  0  0  0  0  0  0  0  0  0  0  0  0  # atno 17371 bound_to 10713
  140.3610  134.2494  155.7187 LP  0  0  0  0  0  0  0  0  0  0  0  0  # atno 17394 bound_to 11000
  141.2016  133.7958  157.0432 LP  0  0  0  0  0  0  0  0  0  0  0  0  # atno 17395 bound_to 11000

$$$$
