AV-unprocessed.smi:1971|AV-procd|sdf|7971|dock7
  -GOLD-   2272010143D 1   1.00000     0.00000
 Structure written by MMmdl.
 43 44  0  0  0  0  0  0  0  0  3 V2000
  144.5955  131.7494  150.1931 C   0  0  0  0  0  0  0  0  0  0  0  0
  144.3750  133.2303  150.5344 C   0  0  0  0  0  0  0  0  0  0  0  0
  145.5920  134.0233  150.3440 N   0  0  0  0  0  0  0  0  0  0  0  0
  145.5161  135.4017  150.8415 C   0  0  0  0  0  0  0  0  0  0  0  0
  145.4787  135.4663  152.3829 C   0  0  0  0  0  0  0  0  0  0  0  0
  146.6703  134.7920  152.9542 N   0  3  0  0  0  0  0  0  0  0  0  0
  146.8138  134.9682  154.4277 C   0  0  1  0  0  0  0  0  0  0  0  0
  145.6190  134.4029  155.2265 C   0  0  0  0  0  0  0  0  0  0  0  0
  148.1729  134.4096  154.9083 C   0  0  0  0  0  0  0  0  0  0  0  0
  149.2648  135.3595  154.7223 N   0  0  0  0  0  0  0  0  0  0  0  0
  150.1898  135.6774  155.6388 C   0  0  0  0  0  0  0  0  0  0  0  0
  150.1455  135.1646  156.7596 O   0  0  0  0  0  0  0  0  0  0  0  0
  151.1100  136.5629  155.1965 N   0  5  0  0  0  0  0  0  0  0  0  0
  151.1092  137.8223  155.6629 C   0  0  0  0  0  0  0  0  0  0  0  0
  150.1449  138.3041  156.4554 N   0  0  0  0  0  0  0  0  0  0  0  0
  150.3454  139.6345  156.8279 C   0  0  0  0  0  0  0  0  0  0  0  0
  151.4937  140.1758  156.3135 C   0  0  0  0  0  0  0  0  0  0  0  0
  152.3622  139.0239  155.3397 S   0  0  0  0  0  0  0  0  0  0  0  0
  146.7615  133.3945  152.4578 C   0  0  0  0  0  0  0  0  0  0  0  0
  146.7771  133.3773  150.9148 C   0  0  0  0  0  0  0  0  0  0  0  0
  143.7171  131.1624  150.4617 H   0  0  0  0  0  0  0  0  0  0  0  0
  145.4446  131.3393  150.7409 H   0  0  0  0  0  0  0  0  0  0  0  0
  144.7706  131.5946  149.1288 H   0  0  0  0  0  0  0  0  0  0  0  0
  143.5393  133.6288  149.9604 H   0  0  0  0  0  0  0  0  0  0  0  0
  144.0851  133.2921  151.5842 H   0  0  0  0  0  0  0  0  0  0  0  0
  146.3912  135.9440  150.4806 H   0  0  0  0  0  0  0  0  0  0  0  0
  144.6542  135.9162  150.4184 H   0  0  0  0  0  0  0  0  0  0  0  0
  145.4710  136.5128  152.6889 H   0  0  0  0  0  0  0  0  0  0  0  0
  144.5623  135.0233  152.7724 H   0  0  0  0  0  0  0  0  0  0  0  0
  146.8381  136.0434  154.6088 H   0  0  0  0  0  0  0  0  0  0  0  0
  145.6803  134.6885  156.2770 H   0  0  0  0  0  0  0  0  0  0  0  0
  145.5867  133.3138  155.1915 H   0  0  0  0  0  0  0  0  0  0  0  0
  144.6676  134.7804  154.8523 H   0  0  0  0  0  0  0  0  0  0  0  0
  148.1349  134.1683  155.9701 H   0  0  0  0  0  0  0  0  0  0  0  0
  148.4080  133.4786  154.3898 H   0  0  0  0  0  0  0  0  0  0  0  0
  149.3366  135.8054  153.8193 H   0  0  0  0  0  0  0  0  0  0  0  0
  149.6194  140.1177  157.4645 H   0  0  0  0  0  0  0  0  0  0  0  0
  151.8803  141.1747  156.4476 H   0  0  0  0  0  0  0  0  0  0  0  0
  147.6749  132.9276  152.8247 H   0  0  0  0  0  0  0  0  0  0  0  0
  145.9322  132.7952  152.8340 H   0  0  0  0  0  0  0  0  0  0  0  0
  146.8513  132.3532  150.5472 H   0  0  0  0  0  0  0  0  0  0  0  0
  147.6656  133.8965  150.5532 H   0  0  0  0  0  0  0  0  0  0  0  0
  147.4602  135.2791  152.5554 H   0  0  0  0  0  0  0  0  0  0  0  0
  1  2  1  0  0  0  0
  1 21  1  0  0  0  0
  1 22  1  0  0  0  0
  1 23  1  0  0  0  0
  2  3  1  0  0  0  0
  2 24  1  0  0  0  0
  2 25  1  0  0  0  0
  3 20  1  0  0  0  0
  3  4  1  0  0  0  0
  4  5  1  0  0  0  0
  4 26  1  0  0  0  0
  4 27  1  0  0  0  0
  5  6  1  0  0  0  0
  5 28  1  0  0  0  0
  5 29  1  0  0  0  0
  6  7  1  0  0  0  0
  6 19  1  0  0  0  0
  6 43  1  0  0  0  0
  7  8  1  0  0  0  0
  7  9  1  0  0  0  0
  7 30  1  0  0  0  0
  8 31  1  0  0  0  0
  8 32  1  0  0  0  0
  8 33  1  0  0  0  0
  9 10  1  0  0  0  0
  9 34  1  0  0  0  0
  9 35  1  0  0  0  0
 10 11  1  0  0  0  0
 10 36  1  0  0  0  0
 11 12  2  0  0  0  0
 11 13  1  0  0  0  0
 13 14  1  0  0  0  0
 14 18  1  0  0  0  0
 14 15  2  0  0  0  0
 15 16  1  0  0  0  0
 16 17  2  0  0  0  0
 16 37  1  0  0  0  0
 17 18  1  0  0  0  0
 17 38  1  0  0  0  0
 19 20  1  0  0  0  0
 19 39  1  0  0  0  0
 19 40  1  0  0  0  0
 20 41  1  0  0  0  0
 20 42  1  0  0  0  0
M  CHG  1   6   1
M  CHG  1  13  -1
M  END
> <s_m_source_file>
AV-unprocessed.smi

> <i_m_source_file_index>
1971

> <i_lp_mmshare_version>
43012

> <i_f3d_flags>
0

> <s_epik_input>
W0NIM11bQ0gyXU4xW0NIMl1bQ0gyXU4oW0NIMl1bQ0gyXTEpW0NASF0oW0NIM10pW0NIMl1bTkhdQyg9TylbTkhdYzJuW2NIXVtjSF1zMg==

> <s_epik_cmdline>
J2VwaWtfcHl0aG9uJywgJy1waCcsICc3LjAnLCAnLXRuJywgJzgnLCAnLW1hJywgJzIwMCcsICctbWV0YWxfYmluZGluZycsICctaW1hZScsICc8aW5maWxlLm1hZT4nLCAnLW9tYWUnLCAnPG91dGZpbGUubWFlPic=

> <r_epik_Ionization_Penalty>
6.3441

> <r_epik_Ionization_Penalty_Charging>
5.51153

> <r_epik_Ionization_Penalty_Neutral>
0.832567

> <r_epik_State_Penalty>
6.33945

> <r_epik_Charging_Adjusted_Penalty>
11.851

> <i_epik_Tot_Q>
0

> <i_epik_Tot_abs_Q>
2

> <r_epik_Metal_State_Penalty>
2.34542

> <b_epik_Metal_Only>
1

> <s_lp_Force_Field>
OPLS_2005

> <r_lp_Energy>
10.682

> <b_lp_Chiralities_Consistent>
1

> <s_lp_Variant>
AV-unprocessed.smi:1971-10

> <Gold.Version>
5.8.1

> <Gold.Id.Protein>
6NUR|6NUR_protein|mol2

> <Gold.PLP.Fitness>
45.2870

> <Gold.PLP.PLP>
-32.4086

> <Gold.PLP.part.hbond>
-3.0000

> <Gold.PLP.part.metal>
0.0000

> <Gold.PLP.part.buried>
-4.8445

> <Gold.PLP.part.nonpolar>
-25.5244

> <Gold.PLP.part.repulsive>
1.1686

> <Gold.PLP.ligand.clash>
0.0000

> <Gold.PLP.ligand.torsion>
1.1734

> <Gold.PLP.Chemscore.Hbond>
5.0000

> <Gold.PLP.Chemscore.CHOScore>
0.0000

> <Gold.PLP.Chemscore.Metal>
0.0000

> <Gold.Chemscore.Hbonds>
donor molecule, donor type, donor heavy atom, donor atom, acceptor molecule, acceptor atom, score
      L1  H     6    43       P1  7948  2.00
      L1  H    10    36       P1  7948  1.00
      P1  H 10752 10765       L1    13  1.40

> <Gold.PLP.Chemscore.Internal.Correction>
0.2252

> <Gold.Rescore>
     Score         DG    S(hbond)    S(metal)    S(lipo)     H(rot)  DE(clash)    DE(int)     intcor
     15.37     -16.88       2.47        0.00      65.28       1.75       0.00       1.50       ----

> <Gold.Chemscore.Fitness>
15.3702

> <Gold.Chemscore.DG>
-16.8779

> <Gold.Chemscore.ZeroCoef>
-5.4800

> <Gold.Chemscore.Hbond>
2.4674

> <Gold.Chemscore.Metal>
0.0000

> <Gold.Chemscore.Lipo>
65.2828

> <Gold.Chemscore.Internal_Hbond>
0.0000

> <Gold.Chemscore.DEClash>
0.0033

> <Gold.Chemscore.DEInternal>
1.5044

> <Gold.Chemscore.Rot>
1.7505

> <Gold.Chemscore.Internal.Correction>
   9.000000E+99

> <Gold.Chemscore.Hbonds>
donor molecule, donor type, donor heavy atom, donor atom, acceptor molecule, acceptor atom, score
      L1  H     6    43       P1  7948  1.00
      L1  H    10    36       P1  7948  0.62
      P1  H 10752 10765       L1    13  0.56

> <Gold.Chemscore.Hbond.Weighted>
-8.2411

> <Gold.Chemscore.Metal.Weighted>
-0.0000

> <Gold.Chemscore.Lipo.Weighted>
-7.6381

> <Gold.Chemscore.Internal_Hbond.Weighted>
0.0000

> <Gold.Chemscore.DEClash.Weighted>
0.0033

> <Gold.Chemscore.DEInternal.Weighted>
1.5044

> <Gold.Chemscore.Rot.Weighted>
4.4813

> <Gold.Chemscore.Internal.Correction.Weighted>
   9.000000E+99

> <Gold.Protein.RotatedTorsions>
[ 6907 6896 6895 6894 ] final   10.14 input  -60.11 | X-H torsion
[ 7974 7965 7964 7962 ] final -153.26 input  175.53 | X-H torsion
[ 8008 7997 7996 7995 ] final -176.06 input   59.86 | X-H torsion
[ 10167 10162 10161 10158 ] final -170.70 input  -65.29 | X-H torsion
[ 10718 10713 10712 10709 ] final  -59.03 input   66.30 | X-H torsion
[ 10763 10752 10751 10750 ] final -179.89 input  -60.55 | X-H torsion
[ 11005 11000 10999 10996 ] final -114.11 input  -57.11 | X-H torsion

> <Gold.Protein.ActiveResidues>
 VAL166  LYS551  ARG553  GLY616  TRP617  ASP618  TYR619  PRO620  LYS621  CYS622 
 ASP623  PHE694  ASN695  SER759  ASP760  ASP761  ALA762  ILE779  LEU786  VAL792 
 PHE793  MET794  SER795  GLU796  ALA797  LYS798  CYS799  TRP800  GLU811  SER814 

> <Gold.Protein.RotatedAtoms>
  151.7334  135.0870  160.0303 H   0  0  0  0  0  0  0  0  0  0  0  0  # atno 6907 bound_to 6896
  152.3526  133.6194  159.5964 H   0  0  0  0  0  0  0  0  0  0  0  0  # atno 6908 bound_to 6896
  150.7550  133.9466  159.3514 H   0  0  0  0  0  0  0  0  0  0  0  0  # atno 6909 bound_to 6896
  144.7750  140.4549  143.5880 H   0  0  0  0  0  0  0  0  0  0  0  0  # atno 7974 bound_to 7965
  155.9902  140.1199  157.0645 H   0  0  0  0  0  0  0  0  0  0  0  0  # atno 8008 bound_to 7997
  154.4209  140.1127  156.5624 H   0  0  0  0  0  0  0  0  0  0  0  0  # atno 8009 bound_to 7997
  155.6352  140.3473  155.4698 H   0  0  0  0  0  0  0  0  0  0  0  0  # atno 8010 bound_to 7997
  139.5846  144.1347  152.1559 H   0  0  0  0  0  0  0  0  0  0  0  0  # atno 10167 bound_to 10162
  156.1091  130.4177  150.0659 H   0  0  0  0  0  0  0  0  0  0  0  0  # atno 10718 bound_to 10713
  154.5293  135.2799  155.1194 H   0  0  0  0  0  0  0  0  0  0  0  0  # atno 10763 bound_to 10752
  154.2720  135.6302  153.5317 H   0  0  0  0  0  0  0  0  0  0  0  0  # atno 10764 bound_to 10752
  152.9953  135.5630  154.5803 H   0  0  0  0  0  0  0  0  0  0  0  0  # atno 10765 bound_to 10752
  141.0572  133.9593  157.2732 H   0  0  0  0  0  0  0  0  0  0  0  0  # atno 11005 bound_to 11000
  145.6213  139.1524  143.3021 LP  0  0  0  0  0  0  0  0  0  0  0  0  # atno 17320 bound_to 7965
  146.1923  140.6323  142.9140 LP  0  0  0  0  0  0  0  0  0  0  0  0  # atno 17321 bound_to 7965
  140.0908  144.5623  150.7056 LP  0  0  0  0  0  0  0  0  0  0  0  0  # atno 17342 bound_to 10162
  140.7120  143.2512  151.4553 LP  0  0  0  0  0  0  0  0  0  0  0  0  # atno 17343 bound_to 10162
  156.8627  130.9497  151.3616 LP  0  0  0  0  0  0  0  0  0  0  0  0  # atno 17370 bound_to 10713
  157.6271  130.8700  149.9208 LP  0  0  0  0  0  0  0  0  0  0  0  0  # atno 17371 bound_to 10713
  139.9401  135.0192  156.8680 LP  0  0  0  0  0  0  0  0  0  0  0  0  # atno 17394 bound_to 11000
  140.5940  134.0235  155.7511 LP  0  0  0  0  0  0  0  0  0  0  0  0  # atno 17395 bound_to 11000

$$$$
