AV-unprocessed.smi:330|AV-procd|sdf|2349|dock6
  -GOLD-   2262022263D 1   1.00000     0.00000
 Structure written by MMmdl.
 36 38  0  0  0  0  0  0  0  0  1 V2000
  153.4305  142.0378  161.9505 C   0  0  0  0  0  0  0  0  0  0  0  0
  152.7637  143.0797  161.0685 C   0  0  0  0  0  0  0  0  0  0  0  0
  152.2282  144.2299  161.4908 C   0  0  0  0  0  0  0  0  0  0  0  0
  151.5787  145.1921  160.1857 S   0  0  0  0  0  0  0  0  0  0  0  0
  152.0797  143.9354  158.9980 C   0  0  0  0  0  0  0  0  0  0  0  0
  151.8822  144.0440  157.7888 O   0  0  0  0  0  0  0  0  0  0  0  0
  152.6925  142.8854  159.6819 N   0  0  0  0  0  0  0  0  0  0  0  0
  153.2107  141.6892  159.0053 C   0  0  0  0  0  0  0  0  0  0  0  0
  152.1066  140.7814  158.4475 C   0  0  0  0  0  0  0  0  0  0  0  0
  151.3243  140.1975  159.1988 O   0  0  0  0  0  0  0  0  0  0  0  0
  152.0634  140.6733  157.1108 N   0  0  0  0  0  0  0  0  0  0  0  0
  151.1081  139.8728  156.3522 C   0  0  0  0  0  0  0  0  0  0  0  0
  151.7317  138.6065  155.7894 C   0  0  0  0  0  0  0  0  0  0  0  0
  152.7876  138.6624  154.7103 C   0  0  0  0  0  0  0  0  0  0  0  0
  151.4107  138.1241  154.3946 C   0  0  0  0  0  0  0  0  0  0  0  0
  150.4588  140.6811  155.2440 C   0  0  0  0  0  0  0  0  0  0  0  0
  149.1521  141.4029  155.4698 C   0  0  0  0  0  0  0  0  0  0  0  0
  149.2044  140.2026  154.5517 C   0  0  0  0  0  0  0  0  0  0  0  0
  153.6708  142.4640  162.9250 H   0  0  0  0  0  0  0  0  0  0  0  0
  154.3611  141.6758  161.5135 H   0  0  0  0  0  0  0  0  0  0  0  0
  152.7628  141.1904  162.1069 H   0  0  0  0  0  0  0  0  0  0  0  0
  152.1844  144.5787  162.5119 H   0  0  0  0  0  0  0  0  0  0  0  0
  153.8978  141.9670  158.2056 H   0  0  0  0  0  0  0  0  0  0  0  0
  153.8075  141.1033  159.7062 H   0  0  0  0  0  0  0  0  0  0  0  0
  152.7474  141.1872  156.5747 H   0  0  0  0  0  0  0  0  0  0  0  0
  150.3049  139.5683  157.0266 H   0  0  0  0  0  0  0  0  0  0  0  0
  151.8687  137.8260  156.5359 H   0  0  0  0  0  0  0  0  0  0  0  0
  153.0475  139.6353  154.2980 H   0  0  0  0  0  0  0  0  0  0  0  0
  153.6057  137.9479  154.7708 H   0  0  0  0  0  0  0  0  0  0  0  0
  151.3103  137.0509  154.2467 H   0  0  0  0  0  0  0  0  0  0  0  0
  150.7609  138.7423  153.7784 H   0  0  0  0  0  0  0  0  0  0  0  0
  151.1760  141.1984  154.6090 H   0  0  0  0  0  0  0  0  0  0  0  0
  148.6630  141.2768  156.4338 H   0  0  0  0  0  0  0  0  0  0  0  0
  149.0349  142.3832  155.0121 H   0  0  0  0  0  0  0  0  0  0  0  0
  149.1214  140.3826  153.4820 H   0  0  0  0  0  0  0  0  0  0  0  0
  148.7427  139.2836  154.9073 H   0  0  0  0  0  0  0  0  0  0  0  0
  1  2  1  0  0  0  0
  1 19  1  0  0  0  0
  1 20  1  0  0  0  0
  1 21  1  0  0  0  0
  2  7  1  0  0  0  0
  2  3  2  0  0  0  0
  3  4  1  0  0  0  0
  3 22  1  0  0  0  0
  4  5  1  0  0  0  0
  5  6  2  0  0  0  0
  5  7  1  0  0  0  0
  7  8  1  0  0  0  0
  8  9  1  0  0  0  0
  8 23  1  0  0  0  0
  8 24  1  0  0  0  0
  9 10  2  0  0  0  0
  9 11  1  0  0  0  0
 11 12  1  0  0  0  0
 11 25  1  0  0  0  0
 12 13  1  0  0  0  0
 12 16  1  0  0  0  0
 12 26  1  0  0  0  0
 13 15  1  0  0  0  0
 13 14  1  0  0  0  0
 13 27  1  0  0  0  0
 14 15  1  0  0  0  0
 14 28  1  0  0  0  0
 14 29  1  0  0  0  0
 15 30  1  0  0  0  0
 15 31  1  0  0  0  0
 16 18  1  0  0  0  0
 16 17  1  0  0  0  0
 16 32  1  0  0  0  0
 17 18  1  0  0  0  0
 17 33  1  0  0  0  0
 17 34  1  0  0  0  0
 18 35  1  0  0  0  0
 18 36  1  0  0  0  0
M  END
> <s_m_source_file>
AV-unprocessed.smi

> <i_m_source_file_index>
330

> <i_lp_mmshare_version>
43012

> <i_f3d_flags>
0

> <s_epik_input>
W0NIM11jMVtjSF1zYyg9TyluMVtDSDJdQyg9TylbTkhdW0NIXShbQ0hdMltDSDJdW0NIMl0yKVtDSF0zW0NIMl1bQ0gyXTM=

> <s_epik_cmdline>
J2VwaWtfcHl0aG9uJywgJy1waCcsICc3LjAnLCAnLXRuJywgJzgnLCAnLW1hJywgJzIwMCcsICctbWV0YWxfYmluZGluZycsICctaW1hZScsICc8aW5maWxlLm1hZT4nLCAnLW9tYWUnLCAnPG91dGZpbGUubWFlPic=

> <r_lp_tautomer_probability>
1

> <r_epik_Ionization_Penalty>
1.36851e-06

> <r_epik_Ionization_Penalty_Charging>
1.26835e-06

> <r_epik_Ionization_Penalty_Neutral>
1.00162e-07

> <r_epik_State_Penalty>
-0

> <r_epik_Charging_Adjusted_Penalty>
1.26835e-06

> <i_epik_Tot_Q>
0

> <i_epik_Tot_abs_Q>
0

> <r_epik_Metal_State_Penalty>
-0

> <b_epik_Metal_Only>
0

> <s_lp_Force_Field>
OPLS_2005

> <r_lp_Energy>
27.3766

> <b_lp_Chiralities_Consistent>
1

> <s_lp_Variant>
AV-unprocessed.smi:330-1

> <Gold.Version>
5.8.1

> <Gold.Id.Protein>
6NUR|6NUR_protein|mol2

> <Gold.PLP.Fitness>
45.3077

> <Gold.PLP.PLP>
-46.0682

> <Gold.PLP.part.hbond>
0.0000

> <Gold.PLP.part.metal>
0.0000

> <Gold.PLP.part.buried>
-4.4796

> <Gold.PLP.part.nonpolar>
-41.5718

> <Gold.PLP.part.repulsive>
0.2174

> <Gold.PLP.ligand.clash>
0.0000

> <Gold.PLP.ligand.torsion>
1.4572

> <Gold.PLP.Chemscore.Hbond>
0.0000

> <Gold.PLP.Chemscore.CHOScore>
0.0000

> <Gold.PLP.Chemscore.Metal>
0.0000

> <Gold.PLP.Chemscore.Internal.Correction>
2.1538

> <Gold.Rescore>
     Score         DG    S(hbond)    S(metal)    S(lipo)     H(rot)  DE(clash)    DE(int)     intcor
     12.21     -13.67       0.00        0.00     106.94       1.69       0.10       1.36       ----

> <Gold.Chemscore.Fitness>
12.2149

> <Gold.Chemscore.DG>
-13.6730

> <Gold.Chemscore.ZeroCoef>
-5.4800

> <Gold.Chemscore.Hbond>
0.0000

> <Gold.Chemscore.Metal>
0.0000

> <Gold.Chemscore.Lipo>
106.9400

> <Gold.Chemscore.Internal_Hbond>
0.0000

> <Gold.Chemscore.DEClash>
0.0989

> <Gold.Chemscore.DEInternal>
1.3593

> <Gold.Chemscore.Rot>
1.6871

> <Gold.Chemscore.Internal.Correction>
   9.000000E+99

> <Gold.Chemscore.Hbond.Weighted>
-0.0000

> <Gold.Chemscore.Metal.Weighted>
-0.0000

> <Gold.Chemscore.Lipo.Weighted>
-12.5120

> <Gold.Chemscore.Internal_Hbond.Weighted>
0.0000

> <Gold.Chemscore.DEClash.Weighted>
0.0989

> <Gold.Chemscore.DEInternal.Weighted>
1.3593

> <Gold.Chemscore.Rot.Weighted>
4.3189

> <Gold.Chemscore.Internal.Correction.Weighted>
   9.000000E+99

> <Gold.Protein.RotatedTorsions>
[ 6907 6896 6895 6894 ] final   28.87 input  -60.11 | X-H torsion
[ 7974 7965 7964 7962 ] final  119.52 input  175.53 | X-H torsion
[ 8008 7997 7996 7995 ] final   69.30 input   59.86 | X-H torsion
[ 10167 10162 10161 10158 ] final   34.80 input  -65.29 | X-H torsion
[ 10718 10713 10712 10709 ] final -133.66 input   66.30 | X-H torsion
[ 10763 10752 10751 10750 ] final  -28.17 input  -60.55 | X-H torsion
[ 11005 11000 10999 10996 ] final -165.06 input  -57.11 | X-H torsion

> <Gold.Protein.ActiveResidues>
 VAL166  LYS551  ARG553  GLY616  TRP617  ASP618  TYR619  PRO620  LYS621  CYS622 
 ASP623  PHE694  ASN695  SER759  ASP760  ASP761  ALA762  ILE779  LEU786  VAL792 
 PHE793  MET794  SER795  GLU796  ALA797  LYS798  CYS799  TRP800  GLU811  SER814 

> <Gold.Protein.RotatedAtoms>
  152.0233  134.9810  160.0570 H   0  0  0  0  0  0  0  0  0  0  0  0  # atno 6907 bound_to 6896
  152.1316  133.4406  159.4732 H   0  0  0  0  0  0  0  0  0  0  0  0  # atno 6908 bound_to 6896
  150.6857  134.2332  159.4486 H   0  0  0  0  0  0  0  0  0  0  0  0  # atno 6909 bound_to 6896
  145.1422  139.3261  143.4610 H   0  0  0  0  0  0  0  0  0  0  0  0  # atno 7974 bound_to 7965
  155.7215  140.3493  155.5018 H   0  0  0  0  0  0  0  0  0  0  0  0  # atno 8008 bound_to 7997
  155.9265  140.1076  157.1188 H   0  0  0  0  0  0  0  0  0  0  0  0  # atno 8009 bound_to 7997
  154.4078  140.1239  156.4734 H   0  0  0  0  0  0  0  0  0  0  0  0  # atno 8010 bound_to 7997
  140.4281  144.1363  150.6156 H   0  0  0  0  0  0  0  0  0  0  0  0  # atno 10167 bound_to 10162
  156.2473  130.7132  151.1017 H   0  0  0  0  0  0  0  0  0  0  0  0  # atno 10718 bound_to 10713
  153.7439  135.6930  153.4960 H   0  0  0  0  0  0  0  0  0  0  0  0  # atno 10763 bound_to 10752
  153.2050  135.4423  155.0310 H   0  0  0  0  0  0  0  0  0  0  0  0  # atno 10764 bound_to 10752
  154.8211  135.3422  154.6963 H   0  0  0  0  0  0  0  0  0  0  0  0  # atno 10765 bound_to 10752
  140.5799  134.5152  157.5176 H   0  0  0  0  0  0  0  0  0  0  0  0  # atno 11005 bound_to 11000
  146.3504  140.1463  142.8593 LP  0  0  0  0  0  0  0  0  0  0  0  0  # atno 17320 bound_to 7965
  145.0520  140.9025  143.4990 LP  0  0  0  0  0  0  0  0  0  0  0  0  # atno 17321 bound_to 7965
  140.4458  143.2507  151.9413 LP  0  0  0  0  0  0  0  0  0  0  0  0  # atno 17342 bound_to 10162
  139.4784  144.5610  151.8238 LP  0  0  0  0  0  0  0  0  0  0  0  0  # atno 17343 bound_to 10162
  157.7200  131.0687  150.6174 LP  0  0  0  0  0  0  0  0  0  0  0  0  # atno 17370 bound_to 10713
  156.6252  130.4416  149.5807 LP  0  0  0  0  0  0  0  0  0  0  0  0  # atno 17371 bound_to 10713
  139.9322  134.7942  156.0899 LP  0  0  0  0  0  0  0  0  0  0  0  0  # atno 17394 bound_to 11000
  141.1003  133.6680  156.2739 LP  0  0  0  0  0  0  0  0  0  0  0  0  # atno 17395 bound_to 11000

$$$$
