AV-unprocessed.smi:2409|AV-procd|sdf|9525|dock9
  -GOLD-   2272013153D 1   1.00000     0.00000
 Structure written by MMmdl.
 35 36  0  0  0  0  0  0  0  0  1 V2000
  152.5889  139.1440  157.1186 C   0  0  0  0  0  0  0  0  0  0  0  0
  152.6049  140.0395  156.0200 O   0  0  0  0  0  0  0  0  0  0  0  0
  151.4062  140.1671  155.4120 C   0  0  0  0  0  0  0  0  0  0  0  0
  150.4779  141.1710  155.4221 C   0  0  0  0  0  0  0  0  0  0  0  0
  150.4886  142.4170  156.0985 N   0  0  0  0  0  0  0  0  0  0  0  0
  151.1780  142.7447  157.2069 C   0  0  0  0  0  0  0  0  0  0  0  0
  151.9596  141.9928  157.7849 O   0  0  0  0  0  0  0  0  0  0  0  0
  150.9951  144.0119  157.6183 N   0  0  0  0  0  0  0  0  0  0  0  0
  151.5823  144.6579  158.7535 C   0  0  1  0  0  0  0  0  0  0  0  0
  150.6259  145.2669  159.7548 C   0  0  0  0  0  0  0  0  0  0  0  0
  151.3962  144.0249  160.1170 C   0  0  2  0  0  0  0  0  0  0  0  0
  152.4930  144.0906  161.1572 C   0  0  0  0  0  0  0  0  0  0  0  0
  149.4004  140.6853  154.6311 C   0  0  0  0  0  0  0  0  0  0  0  0
  148.0882  141.3402  154.3069 C   0  0  0  0  0  0  0  0  0  0  0  0
  149.6744  139.4848  154.1331 N   0  0  0  0  0  0  0  0  0  0  0  0
  150.9054  139.1681  154.6035 N   0  0  0  0  0  0  0  0  0  0  0  0
  151.4985  137.8947  154.2503 C   0  0  0  0  0  0  0  0  0  0  0  0
  153.5854  139.0842  157.5554 H   0  0  0  0  0  0  0  0  0  0  0  0
  152.2995  138.1413  156.8008 H   0  0  0  0  0  0  0  0  0  0  0  0
  151.9006  139.4747  157.8972 H   0  0  0  0  0  0  0  0  0  0  0  0
  149.9735  143.1626  155.6541 H   0  0  0  0  0  0  0  0  0  0  0  0
  150.4350  144.6018  157.0199 H   0  0  0  0  0  0  0  0  0  0  0  0
  152.4967  145.2275  158.5937 H   0  0  0  0  0  0  0  0  0  0  0  0
  150.9232  146.2034  160.2227 H   0  0  0  0  0  0  0  0  0  0  0  0
  149.5580  145.1582  159.5737 H   0  0  0  0  0  0  0  0  0  0  0  0
  150.8235  143.0994  160.1446 H   0  0  0  0  0  0  0  0  0  0  0  0
  153.0310  145.0371  161.0953 H   0  0  0  0  0  0  0  0  0  0  0  0
  153.2027  143.2777  161.0030 H   0  0  0  0  0  0  0  0  0  0  0  0
  152.0673  143.9970  162.1564 H   0  0  0  0  0  0  0  0  0  0  0  0
  148.0053  142.3224  154.7726 H   0  0  0  0  0  0  0  0  0  0  0  0
  147.2519  140.7362  154.6592 H   0  0  0  0  0  0  0  0  0  0  0  0
  147.9732  141.4746  153.2313 H   0  0  0  0  0  0  0  0  0  0  0  0
  152.5785  137.9302  154.3958 H   0  0  0  0  0  0  0  0  0  0  0  0
  151.2929  137.6639  153.2045 H   0  0  0  0  0  0  0  0  0  0  0  0
  151.0802  137.1093  154.8799 H   0  0  0  0  0  0  0  0  0  0  0  0
  1  2  1  0  0  0  0
  1 18  1  0  0  0  0
  1 19  1  0  0  0  0
  1 20  1  0  0  0  0
  2  3  1  0  0  0  0
  3 16  1  0  0  0  0
  3  4  2  0  0  0  0
  4  5  1  0  0  0  0
  4 13  1  0  0  0  0
  5  6  1  0  0  0  0
  5 21  1  0  0  0  0
  6  7  2  0  0  0  0
  6  8  1  0  0  0  0
  8  9  1  0  0  0  0
  8 22  1  0  0  0  0
  9 11  1  0  0  0  0
  9 10  1  0  0  0  0
  9 23  1  0  0  0  0
 10 11  1  0  0  0  0
 10 24  1  0  0  0  0
 10 25  1  0  0  0  0
 11 12  1  0  0  0  0
 11 26  1  0  0  0  0
 12 27  1  0  0  0  0
 12 28  1  0  0  0  0
 12 29  1  0  0  0  0
 13 14  1  0  0  0  0
 13 15  2  0  0  0  0
 14 30  1  0  0  0  0
 14 31  1  0  0  0  0
 14 32  1  0  0  0  0
 15 16  1  0  0  0  0
 16 17  1  0  0  0  0
 17 33  1  0  0  0  0
 17 34  1  0  0  0  0
 17 35  1  0  0  0  0
M  END
> <s_m_source_file>
AV-unprocessed.smi

> <i_m_source_file_index>
2409

> <i_lp_mmshare_version>
43012

> <i_f3d_flags>
0

> <s_epik_input>
W0NIM11uMW5jKFtDSDNdKWMoYzFPW0NIM10pW05IXUMoPU8pW05IXVtDQEBIXTJbQ0gyXVtDQEhdMltDSDNd

> <s_epik_cmdline>
J2VwaWtfcHl0aG9uJywgJy1waCcsICc3LjAnLCAnLXRuJywgJzgnLCAnLW1hJywgJzIwMCcsICctbWV0YWxfYmluZGluZycsICctaW1hZScsICc8aW5maWxlLm1hZT4nLCAnLW9tYWUnLCAnPG91dGZpbGUubWFlPic=

> <r_lp_tautomer_probability>
1

> <r_epik_Ionization_Penalty>
0.000417804

> <r_epik_Ionization_Penalty_Charging>
0

> <r_epik_Ionization_Penalty_Neutral>
0.000417804

> <r_epik_State_Penalty>
-0

> <r_epik_Charging_Adjusted_Penalty>
0

> <i_epik_Tot_Q>
0

> <i_epik_Tot_abs_Q>
0

> <r_epik_Metal_State_Penalty>
-0

> <b_epik_Metal_Only>
0

> <s_lp_Force_Field>
OPLS_2005

> <r_lp_Energy>
34.5155

> <b_lp_Chiralities_Consistent>
1

> <s_lp_Variant>
AV-unprocessed.smi:2409-4

> <Gold.Version>
5.8.1

> <Gold.Id.Protein>
6NUR|6NUR_protein|mol2

> <Gold.PLP.Fitness>
47.8400

> <Gold.PLP.PLP>
-39.6477

> <Gold.PLP.part.hbond>
-3.0000

> <Gold.PLP.part.metal>
0.0000

> <Gold.PLP.part.buried>
-4.7565

> <Gold.PLP.part.nonpolar>
-32.0391

> <Gold.PLP.part.repulsive>
0.3618

> <Gold.PLP.ligand.clash>
0.0000

> <Gold.PLP.ligand.torsion>
0.3258

> <Gold.PLP.Chemscore.Hbond>
2.9360

> <Gold.PLP.Chemscore.CHOScore>
0.0000

> <Gold.PLP.Chemscore.Metal>
0.0000

> <Gold.Chemscore.Hbonds>
donor molecule, donor type, donor heavy atom, donor atom, acceptor molecule, acceptor atom, score
      L1  H     5    21       P1  8028  1.00
      L1  H     8    22       P1  8028  0.98
      P1  H  7997  8009       L1     2  0.65

> <Gold.PLP.Chemscore.Internal.Correction>
0.0359

> <Gold.Rescore>
     Score         DG    S(hbond)    S(metal)    S(lipo)     H(rot)  DE(clash)    DE(int)     intcor
     15.40     -19.53       2.34        0.00      80.25       1.23       0.08       4.05       ----

> <Gold.Chemscore.Fitness>
15.3963

> <Gold.Chemscore.DG>
-19.5314

> <Gold.Chemscore.ZeroCoef>
-5.4800

> <Gold.Chemscore.Hbond>
2.3380

> <Gold.Chemscore.Metal>
0.0000

> <Gold.Chemscore.Lipo>
80.2500

> <Gold.Chemscore.Internal_Hbond>
0.0000

> <Gold.Chemscore.DEClash>
0.0812

> <Gold.Chemscore.DEInternal>
4.0538

> <Gold.Chemscore.Rot>
1.2292

> <Gold.Chemscore.Internal.Correction>
   9.000000E+99

> <Gold.Chemscore.Hbonds>
donor molecule, donor type, donor heavy atom, donor atom, acceptor molecule, acceptor atom, score
      L1  H     5    21       P1  8028  0.97
      L1  H     8    22       P1  8028  0.65
      P1  H  7997  8009       L1     2  0.06

> <Gold.Chemscore.Hbond.Weighted>
-7.8088

> <Gold.Chemscore.Metal.Weighted>
-0.0000

> <Gold.Chemscore.Lipo.Weighted>
-9.3892

> <Gold.Chemscore.Internal_Hbond.Weighted>
0.0000

> <Gold.Chemscore.DEClash.Weighted>
0.0812

> <Gold.Chemscore.DEInternal.Weighted>
4.0538

> <Gold.Chemscore.Rot.Weighted>
3.1467

> <Gold.Chemscore.Internal.Correction.Weighted>
   9.000000E+99

> <Gold.Protein.RotatedTorsions>
[ 6907 6896 6895 6894 ] final   19.35 input  -60.11 | X-H torsion
[ 7974 7965 7964 7962 ] final  130.09 input  175.53 | X-H torsion
[ 8008 7997 7996 7995 ] final -145.01 input   59.86 | X-H torsion
[ 10167 10162 10161 10158 ] final  132.85 input  -65.29 | X-H torsion
[ 10718 10713 10712 10709 ] final  109.19 input   66.30 | X-H torsion
[ 10763 10752 10751 10750 ] final -166.24 input  -60.55 | X-H torsion
[ 11005 11000 10999 10996 ] final  -31.00 input  -57.11 | X-H torsion

> <Gold.Protein.ActiveResidues>
 VAL166  LYS551  ARG553  GLY616  TRP617  ASP618  TYR619  PRO620  LYS621  CYS622 
 ASP623  PHE694  ASN695  SER759  ASP760  ASP761  ALA762  ILE779  LEU786  VAL792 
 PHE793  MET794  SER795  GLU796  ALA797  LYS798  CYS799  TRP800  GLU811  SER814 

> <Gold.Protein.RotatedAtoms>
  151.8796  135.0459  160.0487 H   0  0  0  0  0  0  0  0  0  0  0  0  # atno 6907 bound_to 6896
  152.2524  133.5221  159.5341 H   0  0  0  0  0  0  0  0  0  0  0  0  # atno 6908 bound_to 6896
  150.7088  134.0859  159.3957 H   0  0  0  0  0  0  0  0  0  0  0  0  # atno 6909 bound_to 6896
  145.0217  139.4126  143.5194 H   0  0  0  0  0  0  0  0  0  0  0  0  # atno 7974 bound_to 7965
  155.5363  140.0604  157.2879 H   0  0  0  0  0  0  0  0  0  0  0  0  # atno 8008 bound_to 7997
  154.4467  140.1927  156.0589 H   0  0  0  0  0  0  0  0  0  0  0  0  # atno 8009 bound_to 7997
  156.0617  140.3271  155.7473 H   0  0  0  0  0  0  0  0  0  0  0  0  # atno 8010 bound_to 7997
  139.5322  144.6643  151.4911 H   0  0  0  0  0  0  0  0  0  0  0  0  # atno 10167 bound_to 10162
  157.6553  131.0909  150.6416 H   0  0  0  0  0  0  0  0  0  0  0  0  # atno 10718 bound_to 10713
  154.6852  135.2961  154.9557 H   0  0  0  0  0  0  0  0  0  0  0  0  # atno 10763 bound_to 10752
  154.0538  135.6641  153.4807 H   0  0  0  0  0  0  0  0  0  0  0  0  # atno 10764 bound_to 10752
  153.0574  135.5136  154.7916 H   0  0  0  0  0  0  0  0  0  0  0  0  # atno 10765 bound_to 10752
  140.9430  133.7267  156.1105 H   0  0  0  0  0  0  0  0  0  0  0  0  # atno 11005 bound_to 11000
  146.3486  139.9718  142.8705 LP  0  0  0  0  0  0  0  0  0  0  0  0  # atno 17320 bound_to 7965
  145.1887  140.9801  143.4223 LP  0  0  0  0  0  0  0  0  0  0  0  0  # atno 17321 bound_to 7965
  140.6507  143.8702  150.6783 LP  0  0  0  0  0  0  0  0  0  0  0  0  # atno 17342 bound_to 10162
  140.2066  143.3917  152.1751 LP  0  0  0  0  0  0  0  0  0  0  0  0  # atno 17343 bound_to 10162
  156.6724  130.4543  149.5653 LP  0  0  0  0  0  0  0  0  0  0  0  0  # atno 17370 bound_to 10713
  156.1988  130.6607  151.1144 LP  0  0  0  0  0  0  0  0  0  0  0  0  # atno 17371 bound_to 10713
  140.7707  134.3835  157.5508 LP  0  0  0  0  0  0  0  0  0  0  0  0  # atno 17394 bound_to 11000
  139.8825  134.9020  156.2824 LP  0  0  0  0  0  0  0  0  0  0  0  0  # atno 17395 bound_to 11000

$$$$
