AV-unprocessed.smi:906|AV-procd|sdf|4104|dock2
  -GOLD-   22720 1593D 1   1.00000     0.00000
 Structure written by MMmdl.
 48 49  0  0  0  0  0  0  0  0  2 V2000
  152.4818  143.6516  161.6621 C   0  0  0  0  0  0  0  0  0  0  0  0
  152.0120  143.2806  160.2712 C   0  0  0  0  0  0  0  0  0  0  0  0
  152.0585  144.2174  159.2172 C   0  0  0  0  0  0  0  0  0  0  0  0
  151.6117  143.8161  157.9435 C   0  0  0  0  0  0  0  0  0  0  0  0
  151.1377  142.4993  157.7729 C   0  0  0  0  0  0  0  0  0  0  0  0
  150.6546  142.0150  156.4203 C   0  0  0  0  0  0  0  0  0  0  0  0
  150.0570  140.6006  156.4955 C   0  0  0  0  0  0  0  0  0  0  0  0
  148.7851  140.5157  155.7880 N   0  0  0  0  0  0  0  0  0  0  0  0
  148.6135  140.7269  154.4722 C   0  0  0  0  0  0  0  0  0  0  0  0
  149.5521  140.9977  153.7223 O   0  0  0  0  0  0  0  0  0  0  0  0
  147.3434  140.5451  154.0326 N   0  0  0  0  0  0  0  0  0  0  0  0
  146.9549  140.0099  152.7196 C   0  0  0  0  0  0  0  0  0  0  0  0
  146.4840  138.5536  152.8924 C   0  0  0  0  0  0  0  0  0  0  0  0
  145.3783  138.4578  153.8890 N   0  3  0  0  0  0  0  0  0  0  0  0
  144.7811  137.0997  154.0700 C   0  0  2  0  0  0  0  0  0  0  0  0
  145.8238  136.0042  154.3736 C   0  0  0  0  0  0  0  0  0  0  0  0
  143.8438  136.7182  152.9027 C   0  0  0  0  0  0  0  0  0  0  0  0
  142.9015  137.6501  152.7569 F   0  0  0  0  0  0  0  0  0  0  0  0
  144.5060  136.5893  151.7537 F   0  0  0  0  0  0  0  0  0  0  0  0
  143.2449  135.5591  153.1748 F   0  0  0  0  0  0  0  0  0  0  0  0
  145.7016  139.1322  155.1773 C   0  0  0  0  0  0  0  0  0  0  0  0
  146.1975  140.5708  154.9455 C   0  0  0  0  0  0  0  0  0  0  0  0
  151.1316  141.6411  158.8927 C   0  0  0  0  0  0  0  0  0  0  0  0
  151.5583  142.0170  160.1175 N   0  0  0  0  0  0  0  0  0  0  0  0
  152.7909  144.6961  161.7095 H   0  0  0  0  0  0  0  0  0  0  0  0
  153.3306  143.0324  161.9535 H   0  0  0  0  0  0  0  0  0  0  0  0
  151.6808  143.5009  162.3863 H   0  0  0  0  0  0  0  0  0  0  0  0
  152.4282  145.2196  159.3774 H   0  0  0  0  0  0  0  0  0  0  0  0
  151.6357  144.5071  157.1137 H   0  0  0  0  0  0  0  0  0  0  0  0
  149.9151  142.7209  156.0398 H   0  0  0  0  0  0  0  0  0  0  0  0
  151.4878  142.0337  155.7164 H   0  0  0  0  0  0  0  0  0  0  0  0
  150.7423  139.8846  156.0410 H   0  0  0  0  0  0  0  0  0  0  0  0
  149.9293  140.2924  157.5349 H   0  0  0  0  0  0  0  0  0  0  0  0
  147.9757  140.2676  156.3380 H   0  0  0  0  0  0  0  0  0  0  0  0
  146.1447  140.6170  152.3130 H   0  0  0  0  0  0  0  0  0  0  0  0
  147.7495  140.0489  151.9742 H   0  0  0  0  0  0  0  0  0  0  0  0
  146.1609  138.1706  151.9263 H   0  0  0  0  0  0  0  0  0  0  0  0
  147.3304  137.9448  153.2118 H   0  0  0  0  0  0  0  0  0  0  0  0
  144.1333  137.1665  154.9455 H   0  0  0  0  0  0  0  0  0  0  0  0
  145.3327  135.0652  154.6294 H   0  0  0  0  0  0  0  0  0  0  0  0
  146.4592  136.2741  155.2169 H   0  0  0  0  0  0  0  0  0  0  0  0
  146.4678  135.8047  153.5172 H   0  0  0  0  0  0  0  0  0  0  0  0
  144.8178  139.1565  155.8158 H   0  0  0  0  0  0  0  0  0  0  0  0
  146.4637  138.5624  155.7105 H   0  0  0  0  0  0  0  0  0  0  0  0
  146.4314  141.0461  155.8993 H   0  0  0  0  0  0  0  0  0  0  0  0
  145.4027  141.1747  154.5048 H   0  0  0  0  0  0  0  0  0  0  0  0
  150.7783  140.6242  158.8033 H   0  0  0  0  0  0  0  0  0  0  0  0
  144.6296  139.0139  153.5009 H   0  0  0  0  0  0  0  0  0  0  0  0
  1  2  1  0  0  0  0
  1 25  1  0  0  0  0
  1 26  1  0  0  0  0
  1 27  1  0  0  0  0
  2 24  1  0  0  0  0
  2  3  2  0  0  0  0
  3  4  1  0  0  0  0
  3 28  1  0  0  0  0
  4  5  2  0  0  0  0
  4 29  1  0  0  0  0
  5  6  1  0  0  0  0
  5 23  1  0  0  0  0
  6  7  1  0  0  0  0
  6 30  1  0  0  0  0
  6 31  1  0  0  0  0
  7  8  1  0  0  0  0
  7 32  1  0  0  0  0
  7 33  1  0  0  0  0
  8  9  1  0  0  0  0
  8 34  1  0  0  0  0
  9 10  2  0  0  0  0
  9 11  1  0  0  0  0
 11 22  1  0  0  0  0
 11 12  1  0  0  0  0
 12 13  1  0  0  0  0
 12 35  1  0  0  0  0
 12 36  1  0  0  0  0
 13 14  1  0  0  0  0
 13 37  1  0  0  0  0
 13 38  1  0  0  0  0
 14 15  1  0  0  0  0
 14 21  1  0  0  0  0
 14 48  1  0  0  0  0
 15 16  1  0  0  0  0
 15 17  1  0  0  0  0
 15 39  1  0  0  0  0
 16 40  1  0  0  0  0
 16 41  1  0  0  0  0
 16 42  1  0  0  0  0
 17 18  1  0  0  0  0
 17 19  1  0  0  0  0
 17 20  1  0  0  0  0
 21 22  1  0  0  0  0
 21 43  1  0  0  0  0
 21 44  1  0  0  0  0
 22 45  1  0  0  0  0
 22 46  1  0  0  0  0
 23 24  2  0  0  0  0
 23 47  1  0  0  0  0
M  CHG  1  14   1
M  END
> <s_m_source_file>
AV-unprocessed.smi

> <i_m_source_file_index>
906

> <i_lp_mmshare_version>
43012

> <i_f3d_flags>
0

> <s_epik_input>
W0NIM11jMVtjSF1bY0hdYyhbY0hdbjEpW0NIMl1bQ0gyXVtOSF1DKD1PKU4yW0NIMl1bQ0gyXU4oW0NASF0oW0NIM10pQyhGKShGKUYpW0NIMl1bQ0gyXTI=

> <s_epik_cmdline>
J2VwaWtfcHl0aG9uJywgJy1waCcsICc3LjAnLCAnLXRuJywgJzgnLCAnLW1hJywgJzIwMCcsICctbWV0YWxfYmluZGluZycsICctaW1hZScsICc8aW5maWxlLm1hZT4nLCAnLW9tYWUnLCAnPG91dGZpbGUubWFlPic=

> <r_epik_Ionization_Penalty>
2.02136

> <r_epik_Ionization_Penalty_Charging>
1.96814

> <r_epik_Ionization_Penalty_Neutral>
0.0532286

> <r_epik_State_Penalty>
2.14285

> <r_epik_Charging_Adjusted_Penalty>
4.11098

> <i_epik_Tot_Q>
1

> <i_epik_Tot_abs_Q>
1

> <r_epik_Metal_State_Penalty>
2.1406

> <b_epik_Metal_Only>
0

> <s_lp_Force_Field>
OPLS_2005

> <r_lp_Energy>
50.8751

> <b_lp_Chiralities_Consistent>
1

> <s_lp_Variant>
AV-unprocessed.smi:906-5

> <Gold.Version>
5.8.1

> <Gold.Id.Protein>
6NUR|6NUR_protein|mol2

> <Gold.PLP.Fitness>
48.0771

> <Gold.PLP.PLP>
-40.2848

> <Gold.PLP.part.hbond>
-4.0000

> <Gold.PLP.part.metal>
0.0000

> <Gold.PLP.part.buried>
-1.2237

> <Gold.PLP.part.nonpolar>
-38.4367

> <Gold.PLP.part.repulsive>
2.9828

> <Gold.PLP.ligand.clash>
1.0174

> <Gold.PLP.ligand.torsion>
1.0293

> <Gold.PLP.Chemscore.Hbond>
3.3318

> <Gold.PLP.Chemscore.CHOScore>
0.0000

> <Gold.PLP.Chemscore.Metal>
0.0000

> <Gold.Chemscore.Hbonds>
donor molecule, donor type, donor heavy atom, donor atom, acceptor molecule, acceptor atom, score
      L1  H    14    48       P1 10175  2.00
      P1  H  7989  7998       L1    10  0.31
      P1  H  8011  8017       L1    10  0.98

> <Gold.PLP.Chemscore.Internal.Correction>
0.8731

> <Gold.Rescore>
     Score         DG    S(hbond)    S(metal)    S(lipo)     H(rot)  DE(clash)    DE(int)     intcor
     16.48     -20.84       2.20        0.00     103.99       1.62       2.44       1.92       ----

> <Gold.Chemscore.Fitness>
16.4765

> <Gold.Chemscore.DG>
-20.8381

> <Gold.Chemscore.ZeroCoef>
-5.4800

> <Gold.Chemscore.Hbond>
2.1950

> <Gold.Chemscore.Metal>
0.0000

> <Gold.Chemscore.Lipo>
103.9877

> <Gold.Chemscore.Internal_Hbond>
0.0000

> <Gold.Chemscore.DEClash>
2.4391

> <Gold.Chemscore.DEInternal>
1.9225

> <Gold.Chemscore.Rot>
1.6171

> <Gold.Chemscore.Internal.Correction>
   9.000000E+99

> <Gold.Chemscore.Hbonds>
donor molecule, donor type, donor heavy atom, donor atom, acceptor molecule, acceptor atom, score
      L1  H    14    48       P1 10175  0.95
      P1  H  7989  7998       L1    10  0.30
      P1  H  8011  8017       L1    10  0.90

> <Gold.Chemscore.Hbond.Weighted>
-7.3313

> <Gold.Chemscore.Metal.Weighted>
-0.0000

> <Gold.Chemscore.Lipo.Weighted>
-12.1666

> <Gold.Chemscore.Internal_Hbond.Weighted>
0.0000

> <Gold.Chemscore.DEClash.Weighted>
2.4391

> <Gold.Chemscore.DEInternal.Weighted>
1.9225

> <Gold.Chemscore.Rot.Weighted>
4.1398

> <Gold.Chemscore.Internal.Correction.Weighted>
   9.000000E+99

> <Gold.Protein.RotatedTorsions>
[ 6907 6896 6895 6894 ] final   29.03 input  -60.11 | X-H torsion
[ 7974 7965 7964 7962 ] final  156.69 input  175.53 | X-H torsion
[ 8008 7997 7996 7995 ] final -130.05 input   59.86 | X-H torsion
[ 10167 10162 10161 10158 ] final  -38.75 input  -65.29 | X-H torsion
[ 10718 10713 10712 10709 ] final   75.85 input   66.30 | X-H torsion
[ 10763 10752 10751 10750 ] final -135.64 input  -60.55 | X-H torsion
[ 11005 11000 10999 10996 ] final  -13.42 input  -57.11 | X-H torsion

> <Gold.Protein.ActiveResidues>
 VAL166  LYS551  ARG553  GLY616  TRP617  ASP618  TYR619  PRO620  LYS621  CYS622 
 ASP623  PHE694  ASN695  SER759  ASP760  ASP761  ALA762  ILE779  LEU786  VAL792 
 PHE793  MET794  SER795  GLU796  ALA797  LYS798  CYS799  TRP800  GLU811  SER814 

> <Gold.Protein.RotatedAtoms>
  152.0256  134.9797  160.0571 H   0  0  0  0  0  0  0  0  0  0  0  0  # atno 6907 bound_to 6896
  152.1294  133.4394  159.4722 H   0  0  0  0  0  0  0  0  0  0  0  0  # atno 6908 bound_to 6896
  150.6855  134.2357  159.4495 H   0  0  0  0  0  0  0  0  0  0  0  0  # atno 6909 bound_to 6896
  144.7948  139.7238  143.6206 H   0  0  0  0  0  0  0  0  0  0  0  0  # atno 7974 bound_to 7965
  155.2894  140.0447  157.3022 H   0  0  0  0  0  0  0  0  0  0  0  0  # atno 8008 bound_to 7997
  154.5550  140.2329  155.8392 H   0  0  0  0  0  0  0  0  0  0  0  0  # atno 8009 bound_to 7997
  156.2000  140.3028  155.9513 H   0  0  0  0  0  0  0  0  0  0  0  0  # atno 8010 bound_to 7997
  140.7083  143.3257  151.2685 H   0  0  0  0  0  0  0  0  0  0  0  0  # atno 10167 bound_to 10162
  157.6650  130.9746  150.1412 H   0  0  0  0  0  0  0  0  0  0  0  0  # atno 10718 bound_to 10713
  154.8699  135.3697  154.4931 H   0  0  0  0  0  0  0  0  0  0  0  0  # atno 10763 bound_to 10752
  153.5577  135.7023  153.5567 H   0  0  0  0  0  0  0  0  0  0  0  0  # atno 10764 bound_to 10752
  153.3657  135.4035  155.1715 H   0  0  0  0  0  0  0  0  0  0  0  0  # atno 10765 bound_to 10752
  140.7760  133.8401  155.9249 H   0  0  0  0  0  0  0  0  0  0  0  0  # atno 11005 bound_to 11000
  146.2213  139.5640  142.9617 LP  0  0  0  0  0  0  0  0  0  0  0  0  # atno 17320 bound_to 7965
  145.5701  141.0395  143.2179 LP  0  0  0  0  0  0  0  0  0  0  0  0  # atno 17321 bound_to 7965
  139.6725  143.9996  152.2761 LP  0  0  0  0  0  0  0  0  0  0  0  0  # atno 17342 bound_to 10162
  139.9599  144.6565  150.8090 LP  0  0  0  0  0  0  0  0  0  0  0  0  # atno 17343 bound_to 10162
  156.2234  130.3676  149.8529 LP  0  0  0  0  0  0  0  0  0  0  0  0  # atno 17370 bound_to 10713
  156.6375  130.8691  151.3507 LP  0  0  0  0  0  0  0  0  0  0  0  0  # atno 17371 bound_to 10713
  140.9529  134.1756  157.4714 LP  0  0  0  0  0  0  0  0  0  0  0  0  # atno 17394 bound_to 11000
  139.8749  134.9916  156.5556 LP  0  0  0  0  0  0  0  0  0  0  0  0  # atno 17395 bound_to 11000

$$$$
