AV-unprocessed.smi:326|AV-procd|sdf|2344|dock1
  -GOLD-   2262022253D 1   1.00000     0.00000
 Structure written by MMmdl.
 44 45  0  0  0  0  0  0  0  0  1 V2000
  152.3122  131.2476  157.0109 C   0  0  0  0  0  0  0  0  0  0  0  0
  152.9000  132.0827  157.9923 O   0  0  0  0  0  0  0  0  0  0  0  0
  154.3053  131.9172  158.0778 C   0  0  0  0  0  0  0  0  0  0  0  0
  154.8745  132.8411  159.1668 C   0  0  0  0  0  0  0  0  0  0  0  0
  155.0853  134.2044  158.6667 N   0  0  0  0  0  0  0  0  0  0  0  0
  154.2407  135.1454  159.2325 N   0  0  0  0  0  0  0  0  0  0  0  0
  154.3320  136.3903  158.8919 C   0  0  0  0  0  0  0  0  0  0  0  0
  153.4441  137.4320  159.4784 C   0  0  0  0  0  0  0  0  0  0  0  0
  152.4232  137.1397  160.1034 O   0  0  0  0  0  0  0  0  0  0  0  0
  153.8359  138.7029  159.2752 N   0  0  0  0  0  0  0  0  0  0  0  0
  153.1381  139.8913  159.7556 C   0  0  2  0  0  0  0  0  0  0  0  0
  152.2884  140.5194  158.6325 C   0  0  0  0  0  0  0  0  0  0  0  0
  151.6040  141.8128  159.1036 C   0  0  0  0  0  0  0  0  0  0  0  0
  152.6239  142.8321  159.6466 C   0  0  1  0  0  0  0  0  0  0  0  0
  151.9337  144.1175  160.1243 C   0  0  0  0  0  0  0  0  0  0  0  0
  153.4717  142.1985  160.7666 C   0  0  0  0  0  0  0  0  0  0  0  0
  154.1605  140.9085  160.2933 C   0  0  0  0  0  0  0  0  0  0  0  0
  155.3151  136.8240  157.9138 C   0  0  0  0  0  0  0  0  0  0  0  0
  156.1327  135.8954  157.3713 C   0  0  0  0  0  0  0  0  0  0  0  0
  156.0527  134.4812  157.7405 C   0  0  0  0  0  0  0  0  0  0  0  0
  156.7905  133.6202  157.2625 O   0  0  0  0  0  0  0  0  0  0  0  0
  151.2344  131.4084  156.9920 H   0  0  0  0  0  0  0  0  0  0  0  0
  152.4919  130.1942  157.2292 H   0  0  0  0  0  0  0  0  0  0  0  0
  152.7035  131.4720  156.0178 H   0  0  0  0  0  0  0  0  0  0  0  0
  154.5308  130.8796  158.3276 H   0  0  0  0  0  0  0  0  0  0  0  0
  154.7755  132.1278  157.1158 H   0  0  0  0  0  0  0  0  0  0  0  0
  154.2297  132.8291  160.0472 H   0  0  0  0  0  0  0  0  0  0  0  0
  155.8298  132.4394  159.5085 H   0  0  0  0  0  0  0  0  0  0  0  0
  154.6858  138.8550  158.7510 H   0  0  0  0  0  0  0  0  0  0  0  0
  152.4807  139.6048  160.5791 H   0  0  0  0  0  0  0  0  0  0  0  0
  152.9188  140.7367  157.7690 H   0  0  0  0  0  0  0  0  0  0  0  0
  151.5314  139.8127  158.2907 H   0  0  0  0  0  0  0  0  0  0  0  0
  151.0436  142.2498  158.2762 H   0  0  0  0  0  0  0  0  0  0  0  0
  150.8734  141.5738  159.8777 H   0  0  0  0  0  0  0  0  0  0  0  0
  153.2946  143.1037  158.8298 H   0  0  0  0  0  0  0  0  0  0  0  0
  151.2528  143.9182  160.9524 H   0  0  0  0  0  0  0  0  0  0  0  0
  151.3558  144.5752  159.3209 H   0  0  0  0  0  0  0  0  0  0  0  0
  152.6642  144.8527  160.4635 H   0  0  0  0  0  0  0  0  0  0  0  0
  154.2246  142.9078  161.1123 H   0  0  0  0  0  0  0  0  0  0  0  0
  152.8395  141.9761  161.6276 H   0  0  0  0  0  0  0  0  0  0  0  0
  154.7253  140.4715  161.1178 H   0  0  0  0  0  0  0  0  0  0  0  0
  154.8866  141.1518  159.5159 H   0  0  0  0  0  0  0  0  0  0  0  0
  155.3973  137.8612  157.6228 H   0  0  0  0  0  0  0  0  0  0  0  0
  156.8687  136.2038  156.6436 H   0  0  0  0  0  0  0  0  0  0  0  0
  1  2  1  0  0  0  0
  1 22  1  0  0  0  0
  1 23  1  0  0  0  0
  1 24  1  0  0  0  0
  2  3  1  0  0  0  0
  3  4  1  0  0  0  0
  3 25  1  0  0  0  0
  3 26  1  0  0  0  0
  4  5  1  0  0  0  0
  4 27  1  0  0  0  0
  4 28  1  0  0  0  0
  5 20  1  0  0  0  0
  5  6  1  0  0  0  0
  6  7  2  0  0  0  0
  7  8  1  0  0  0  0
  7 18  1  0  0  0  0
  8  9  2  0  0  0  0
  8 10  1  0  0  0  0
 10 11  1  0  0  0  0
 10 29  1  0  0  0  0
 11 17  1  0  0  0  0
 11 12  1  0  0  0  0
 11 30  1  0  0  0  0
 12 13  1  0  0  0  0
 12 31  1  0  0  0  0
 12 32  1  0  0  0  0
 13 14  1  0  0  0  0
 13 33  1  0  0  0  0
 13 34  1  0  0  0  0
 14 15  1  0  0  0  0
 14 16  1  0  0  0  0
 14 35  1  0  0  0  0
 15 36  1  0  0  0  0
 15 37  1  0  0  0  0
 15 38  1  0  0  0  0
 16 17  1  0  0  0  0
 16 39  1  0  0  0  0
 16 40  1  0  0  0  0
 17 41  1  0  0  0  0
 17 42  1  0  0  0  0
 18 19  2  0  0  0  0
 18 43  1  0  0  0  0
 19 20  1  0  0  0  0
 19 44  1  0  0  0  0
 20 21  2  0  0  0  0
M  END
> <s_m_source_file>
AV-unprocessed.smi

> <i_m_source_file_index>
326

> <i_lp_mmshare_version>
43012

> <i_f3d_flags>
0

> <s_epik_input>
W0NIM11PW0NIMl1bQ0gyXW4xbmMoW2NIXVtjSF1jMT1PKUMoPU8pW05IXVtDQEBIXTJbQ0gyXVtDSDJdW0NAQEhdKFtDSDNdKVtDSDJdW0NIMl0y

> <s_epik_cmdline>
J2VwaWtfcHl0aG9uJywgJy1waCcsICc3LjAnLCAnLXRuJywgJzgnLCAnLW1hJywgJzIwMCcsICctbWV0YWxfYmluZGluZycsICctaW1hZScsICc8aW5maWxlLm1hZT4nLCAnLW9tYWUnLCAnPG91dGZpbGUubWFlPic=

> <r_lp_tautomer_probability>
1

> <r_epik_Ionization_Penalty>
6.47102e-07

> <r_epik_Ionization_Penalty_Charging>
6.8576e-09

> <r_epik_Ionization_Penalty_Neutral>
6.40245e-07

> <r_epik_State_Penalty>
-0

> <r_epik_Charging_Adjusted_Penalty>
6.8576e-09

> <i_epik_Tot_Q>
0

> <i_epik_Tot_abs_Q>
0

> <r_epik_Metal_State_Penalty>
-0

> <b_epik_Metal_Only>
0

> <s_lp_Force_Field>
OPLS_2005

> <r_lp_Energy>
29.5472

> <b_lp_Chiralities_Consistent>
1

> <s_lp_Variant>
AV-unprocessed.smi:326-1

> <Gold.Version>
5.8.1

> <Gold.Id.Protein>
6NUR|6NUR_protein|mol2

> <Gold.PLP.Fitness>
35.5865

> <Gold.PLP.PLP>
-31.5212

> <Gold.PLP.part.hbond>
-2.7303

> <Gold.PLP.part.metal>
0.0000

> <Gold.PLP.part.buried>
-5.0634

> <Gold.PLP.part.nonpolar>
-24.3826

> <Gold.PLP.part.repulsive>
0.0740

> <Gold.PLP.ligand.clash>
0.0000

> <Gold.PLP.ligand.torsion>
0.5386

> <Gold.PLP.Chemscore.Hbond>
1.6900

> <Gold.PLP.Chemscore.CHOScore>
0.0000

> <Gold.PLP.Chemscore.Metal>
0.0000

> <Gold.Chemscore.Hbonds>
donor molecule, donor type, donor heavy atom, donor atom, acceptor molecule, acceptor atom, score
      P1  H  6896  6907       L1     9  0.75
      P1  H  6896  6908       L1     2  0.88

> <Gold.PLP.Chemscore.Internal.Correction>
0.0726

> <Gold.Rescore>
     Score         DG    S(hbond)    S(metal)    S(lipo)     H(rot)  DE(clash)    DE(int)     intcor
     17.03     -17.69       1.93        0.00      83.07       1.55       0.00       0.66       ----

> <Gold.Chemscore.Fitness>
17.0293

> <Gold.Chemscore.DG>
-17.6864

> <Gold.Chemscore.ZeroCoef>
-5.4800

> <Gold.Chemscore.Hbond>
1.9311

> <Gold.Chemscore.Metal>
0.0000

> <Gold.Chemscore.Lipo>
83.0661

> <Gold.Chemscore.Internal_Hbond>
0.0000

> <Gold.Chemscore.DEClash>
0.0000

> <Gold.Chemscore.DEInternal>
0.6571

> <Gold.Chemscore.Rot>
1.5478

> <Gold.Chemscore.Internal.Correction>
   9.000000E+99

> <Gold.Chemscore.Hbonds>
donor molecule, donor type, donor heavy atom, donor atom, acceptor molecule, acceptor atom, score
      P1  H  6896  6907       L1     9  0.61
      P1  H  6896  6908       L1     2  0.73

> <Gold.Chemscore.Hbond.Weighted>
-6.4499

> <Gold.Chemscore.Metal.Weighted>
-0.0000

> <Gold.Chemscore.Lipo.Weighted>
-9.7187

> <Gold.Chemscore.Internal_Hbond.Weighted>
0.0000

> <Gold.Chemscore.DEClash.Weighted>
0.0000

> <Gold.Chemscore.DEInternal.Weighted>
0.6571

> <Gold.Chemscore.Rot.Weighted>
3.9623

> <Gold.Chemscore.Internal.Correction.Weighted>
   9.000000E+99

> <Gold.Protein.RotatedTorsions>
[ 6907 6896 6895 6894 ] final   29.91 input  -60.11 | X-H torsion
[ 7974 7965 7964 7962 ] final  -74.71 input  175.53 | X-H torsion
[ 8008 7997 7996 7995 ] final -137.00 input   59.86 | X-H torsion
[ 10167 10162 10161 10158 ] final -142.17 input  -65.29 | X-H torsion
[ 10718 10713 10712 10709 ] final  146.74 input   66.30 | X-H torsion
[ 10763 10752 10751 10750 ] final  -56.15 input  -60.55 | X-H torsion
[ 11005 11000 10999 10996 ] final  -21.16 input  -57.11 | X-H torsion

> <Gold.Protein.ActiveResidues>
 VAL166  LYS551  ARG553  GLY616  TRP617  ASP618  TYR619  PRO620  LYS621  CYS622 
 ASP623  PHE694  ASN695  SER759  ASP760  ASP761  ALA762  ILE779  LEU786  VAL792 
 PHE793  MET794  SER795  GLU796  ALA797  LYS798  CYS799  TRP800  GLU811  SER814 

> <Gold.Protein.RotatedAtoms>
  152.0383  134.9727  160.0573 H   0  0  0  0  0  0  0  0  0  0  0  0  # atno 6907 bound_to 6896
  152.1175  133.4330  159.4668 H   0  0  0  0  0  0  0  0  0  0  0  0  # atno 6908 bound_to 6896
  150.6847  134.2493  159.4547 H   0  0  0  0  0  0  0  0  0  0  0  0  # atno 6909 bound_to 6896
  145.6355  140.9326  143.1064 H   0  0  0  0  0  0  0  0  0  0  0  0  # atno 7974 bound_to 7965
  155.4045  140.0508  157.3035 H   0  0  0  0  0  0  0  0  0  0  0  0  # atno 8008 bound_to 7997
  154.4975  140.2144  155.9377 H   0  0  0  0  0  0  0  0  0  0  0  0  # atno 8009 bound_to 7997
  156.1424  140.3151  155.8522 H   0  0  0  0  0  0  0  0  0  0  0  0  # atno 8010 bound_to 7997
  139.8114  143.7697  152.2663 H   0  0  0  0  0  0  0  0  0  0  0  0  # atno 10167 bound_to 10162
  157.3295  131.0918  151.1175 H   0  0  0  0  0  0  0  0  0  0  0  0  # atno 10718 bound_to 10713
  154.2021  135.6409  153.5090 H   0  0  0  0  0  0  0  0  0  0  0  0  # atno 10763 bound_to 10752
  153.0009  135.5454  154.6304 H   0  0  0  0  0  0  0  0  0  0  0  0  # atno 10764 bound_to 10752
  154.5720  135.2917  155.0791 H   0  0  0  0  0  0  0  0  0  0  0  0  # atno 10765 bound_to 10752
  140.8535  133.7840  155.9992 H   0  0  0  0  0  0  0  0  0  0  0  0  # atno 11005 bound_to 11000
  144.7177  139.8138  143.7393 LP  0  0  0  0  0  0  0  0  0  0  0  0  # atno 17320 bound_to 7965
  146.1323  139.4360  143.0161 LP  0  0  0  0  0  0  0  0  0  0  0  0  # atno 17321 bound_to 7965
  139.7847  144.7432  151.0038 LP  0  0  0  0  0  0  0  0  0  0  0  0  # atno 17342 bound_to 10162
  140.7817  143.4505  151.0420 LP  0  0  0  0  0  0  0  0  0  0  0  0  # atno 17343 bound_to 10162
  157.2429  130.6577  149.5897 LP  0  0  0  0  0  0  0  0  0  0  0  0  # atno 17370 bound_to 10713
  155.9694  130.4563  150.5919 LP  0  0  0  0  0  0  0  0  0  0  0  0  # atno 17371 bound_to 10713
  140.8764  134.2665  157.5166 LP  0  0  0  0  0  0  0  0  0  0  0  0  # atno 17394 bound_to 11000
  139.8704  134.9593  156.4327 LP  0  0  0  0  0  0  0  0  0  0  0  0  # atno 17395 bound_to 11000

$$$$
