AV-unprocessed.smi:1207|AV-procd|sdf|5059|dock9
  -GOLD-   22720 4 93D 1   1.00000     0.00000
 Structure written by MMmdl.
 53 55  0  0  0  0  0  0  0  0  3 V2000
  152.4609  144.0707  160.1997 C   0  0  0  0  0  0  0  0  0  0  0  0
  152.0759  143.0363  159.1558 C   0  0  0  0  0  0  0  0  0  0  0  0
  151.2214  143.4290  158.1009 C   0  0  0  0  0  0  0  0  0  0  0  0
  150.8873  142.4609  157.1615 C   0  0  0  0  0  0  0  0  0  0  0  0
  150.0853  142.5310  156.0202 N   0  3  0  0  0  0  0  0  0  0  0  0
  150.0571  141.3145  155.4087 C   0  0  0  0  0  0  0  0  0  0  0  0
  150.8192  140.4648  156.1507 N   0  0  0  0  0  0  0  0  0  0  0  0
  151.1304  139.0453  155.9405 C   0  0  0  0  0  0  0  0  0  0  0  0
  150.4239  138.4387  154.7106 C   0  0  2  0  0  0  0  0  0  0  0  0
  150.9527  139.0634  153.5592 O   0  0  0  0  0  0  0  0  0  0  0  0
  148.8898  138.6190  154.7161 C   0  0  0  0  0  0  0  0  0  0  0  0
  148.1841  137.3397  154.4512 N   0  3  2  0  0  0  0  0  0  0  0  0
  146.7834  137.5503  154.0171 C   0  0  0  0  0  0  0  0  0  0  0  0
  148.2969  136.3683  155.5701 C   0  0  0  0  0  0  0  0  0  0  0  0
  148.7095  135.0095  155.0684 C   0  0  0  0  0  0  0  0  0  0  0  0
  149.9065  134.2829  155.3373 C   0  0  0  0  0  0  0  0  0  0  0  0
  151.0800  134.6709  156.1908 C   0  0  0  0  0  0  0  0  0  0  0  0
  149.9222  133.1149  154.7184 N   0  0  0  0  0  0  0  0  0  0  0  0
  148.7208  133.0389  154.0076 O   0  0  0  0  0  0  0  0  0  0  0  0
  148.0190  134.1782  154.2301 C   0  0  0  0  0  0  0  0  0  0  0  0
  146.6960  134.2966  153.5513 C   0  0  0  0  0  0  0  0  0  0  0  0
  151.3697  141.1405  157.2455 C   0  0  0  0  0  0  0  0  0  0  0  0
  152.2180  140.7384  158.2742 C   0  0  0  0  0  0  0  0  0  0  0  0
  152.5685  141.7082  159.2406 C   0  0  0  0  0  0  0  0  0  0  0  0
  153.4882  141.2979  160.3781 C   0  0  0  0  0  0  0  0  0  0  0  0
  152.0054  145.0388  159.9895 H   0  0  0  0  0  0  0  0  0  0  0  0
  153.5421  144.2096  160.2198 H   0  0  0  0  0  0  0  0  0  0  0  0
  152.1329  143.7563  161.1909 H   0  0  0  0  0  0  0  0  0  0  0  0
  150.8463  144.4395  158.0279 H   0  0  0  0  0  0  0  0  0  0  0  0
  149.5249  141.0695  154.5007 H   0  0  0  0  0  0  0  0  0  0  0  0
  152.2130  138.9644  155.8319 H   0  0  0  0  0  0  0  0  0  0  0  0
  150.8673  138.5029  156.8502 H   0  0  0  0  0  0  0  0  0  0  0  0
  150.6754  137.3811  154.6473 H   0  0  0  0  0  0  0  0  0  0  0  0
  150.2861  139.0838  152.8889 H   0  0  0  0  0  0  0  0  0  0  0  0
  148.5391  139.0195  155.6681 H   0  0  0  0  0  0  0  0  0  0  0  0
  148.6258  139.3620  153.9616 H   0  0  0  0  0  0  0  0  0  0  0  0
  146.1902  138.0004  154.8141 H   0  0  0  0  0  0  0  0  0  0  0  0
  146.3148  136.6088  153.7314 H   0  0  0  0  0  0  0  0  0  0  0  0
  146.7425  138.2068  153.1474 H   0  0  0  0  0  0  0  0  0  0  0  0
  149.0306  136.7203  156.2949 H   0  0  0  0  0  0  0  0  0  0  0  0
  147.3543  136.3318  156.1175 H   0  0  0  0  0  0  0  0  0  0  0  0
  150.8645  135.5509  156.7959 H   0  0  0  0  0  0  0  0  0  0  0  0
  151.9513  134.8976  155.5761 H   0  0  0  0  0  0  0  0  0  0  0  0
  151.3543  133.8650  156.8722 H   0  0  0  0  0  0  0  0  0  0  0  0
  145.9211  134.5838  154.2619 H   0  0  0  0  0  0  0  0  0  0  0  0
  146.4004  133.3509  153.0961 H   0  0  0  0  0  0  0  0  0  0  0  0
  146.7319  135.0521  152.7666 H   0  0  0  0  0  0  0  0  0  0  0  0
  152.5979  139.7294  158.3364 H   0  0  0  0  0  0  0  0  0  0  0  0
  153.7922  140.2545  160.2896 H   0  0  0  0  0  0  0  0  0  0  0  0
  152.9859  141.4184  161.3383 H   0  0  0  0  0  0  0  0  0  0  0  0
  154.3917  141.9079  160.3803 H   0  0  0  0  0  0  0  0  0  0  0  0
  148.6621  136.9289  153.6615 H   0  0  0  0  0  0  0  0  0  0  0  0
  149.5998  143.3500  155.6765 H   0  0  0  0  0  0  0  0  0  0  0  0
  1  2  1  0  0  0  0
  1 26  1  0  0  0  0
  1 27  1  0  0  0  0
  1 28  1  0  0  0  0
  2 24  1  0  0  0  0
  2  3  2  0  0  0  0
  3  4  1  0  0  0  0
  3 29  1  0  0  0  0
  4 22  2  0  0  0  0
  4  5  1  0  0  0  0
  5  6  2  0  0  0  0
  5 53  1  0  0  0  0
  6  7  1  0  0  0  0
  6 30  1  0  0  0  0
  7  8  1  0  0  0  0
  7 22  1  0  0  0  0
  8  9  1  0  0  0  0
  8 31  1  0  0  0  0
  8 32  1  0  0  0  0
  9 10  1  0  0  0  0
  9 11  1  0  0  0  0
  9 33  1  0  0  0  0
 10 34  1  0  0  0  0
 11 12  1  0  0  0  0
 11 35  1  0  0  0  0
 11 36  1  0  0  0  0
 12 13  1  0  0  0  0
 12 14  1  0  0  0  0
 12 52  1  0  0  0  0
 13 37  1  0  0  0  0
 13 38  1  0  0  0  0
 13 39  1  0  0  0  0
 14 15  1  0  0  0  0
 14 40  1  0  0  0  0
 14 41  1  0  0  0  0
 15 20  2  0  0  0  0
 15 16  1  0  0  0  0
 16 17  1  0  0  0  0
 16 18  2  0  0  0  0
 17 42  1  0  0  0  0
 17 43  1  0  0  0  0
 17 44  1  0  0  0  0
 18 19  1  0  0  0  0
 19 20  1  0  0  0  0
 20 21  1  0  0  0  0
 21 45  1  0  0  0  0
 21 46  1  0  0  0  0
 21 47  1  0  0  0  0
 22 23  1  0  0  0  0
 23 24  2  0  0  0  0
 23 48  1  0  0  0  0
 24 25  1  0  0  0  0
 25 49  1  0  0  0  0
 25 50  1  0  0  0  0
 25 51  1  0  0  0  0
M  CHG  1   5   1
M  CHG  1  12   1
M  END
> <s_m_source_file>
AV-unprocessed.smi

> <i_m_source_file_index>
1207

> <i_lp_mmshare_version>
43012

> <i_f3d_flags>
0

> <s_epik_input>
W0NIM11jKFtjSF0xKWMoW0NIM10pW2NIXWMoYzEyKW4oW2NIXW4yKVtDSDJdW0NASF0oW09IXSlbQ0gyXU4oW0NIM10pW0NIMl1jM2MoW0NIM10pbm9jM1tDSDNd

> <s_epik_cmdline>
J2VwaWtfcHl0aG9uJywgJy1waCcsICc3LjAnLCAnLXRuJywgJzgnLCAnLW1hJywgJzIwMCcsICctbWV0YWxfYmluZGluZycsICctaW1hZScsICc8aW5maWxlLm1hZT4nLCAnLW9tYWUnLCAnPG91dGZpbGUubWFlPic=

> <r_epik_Ionization_Penalty>
1.77463

> <r_epik_Ionization_Penalty_Charging>
1.77463

> <r_epik_Ionization_Penalty_Neutral>
3.70885e-06

> <r_epik_State_Penalty>
1.85225

> <r_epik_Charging_Adjusted_Penalty>
3.62688

> <i_epik_Tot_Q>
2

> <i_epik_Tot_abs_Q>
2

> <r_epik_Metal_State_Penalty>
1.92674

> <b_epik_Metal_Only>
0

> <s_lp_Force_Field>
OPLS_2005

> <r_lp_Energy>
20.2471

> <b_lp_Chiralities_Consistent>
1

> <s_lp_Variant>
AV-unprocessed.smi:1207-11

> <Gold.Version>
5.8.1

> <Gold.Id.Protein>
6NUR|6NUR_protein|mol2

> <Gold.PLP.Fitness>
55.1020

> <Gold.PLP.PLP>
-40.5382

> <Gold.PLP.part.hbond>
-3.9346

> <Gold.PLP.part.metal>
0.0000

> <Gold.PLP.part.buried>
0.5904

> <Gold.PLP.part.nonpolar>
-36.1103

> <Gold.PLP.part.repulsive>
0.3388

> <Gold.PLP.ligand.clash>
0.0000

> <Gold.PLP.ligand.torsion>
1.4677

> <Gold.PLP.Chemscore.Hbond>
5.7920

> <Gold.PLP.Chemscore.CHOScore>
0.0000

> <Gold.PLP.Chemscore.Metal>
0.0000

> <Gold.Chemscore.Hbonds>
donor molecule, donor type, donor heavy atom, donor atom, acceptor molecule, acceptor atom, score
      L1  H     5    53       P1  8028  2.00
      L1  H    10    34       P1  7957  0.82
      L1  H    12    52       P1  7948  2.00
      P1  H  7989  7998       L1    10  0.85

> <Gold.PLP.Chemscore.Internal.Correction>
0.1231

> <Gold.Rescore>
     Score         DG    S(hbond)    S(metal)    S(lipo)     H(rot)  DE(clash)    DE(int)     intcor
     18.39     -23.24       3.19        0.00     116.29       2.54       1.59       3.26       ----

> <Gold.Chemscore.Fitness>
18.3885

> <Gold.Chemscore.DG>
-23.2399

> <Gold.Chemscore.ZeroCoef>
-5.4800

> <Gold.Chemscore.Hbond>
3.1868

> <Gold.Chemscore.Metal>
0.0000

> <Gold.Chemscore.Lipo>
116.2894

> <Gold.Chemscore.Internal_Hbond>
0.0000

> <Gold.Chemscore.DEClash>
1.5870

> <Gold.Chemscore.DEInternal>
3.2644

> <Gold.Chemscore.Rot>
2.5351

> <Gold.Chemscore.Internal.Correction>
   9.000000E+99

> <Gold.Chemscore.Hbonds>
donor molecule, donor type, donor heavy atom, donor atom, acceptor molecule, acceptor atom, score
      L1  H     5    53       P1  8028  0.94
      L1  H    10    34       P1  7957  0.54
      L1  H    12    52       P1  7948  0.99
      P1  H  7989  7998       L1    10  0.25

> <Gold.Chemscore.Hbond.Weighted>
-10.6441

> <Gold.Chemscore.Metal.Weighted>
-0.0000

> <Gold.Chemscore.Lipo.Weighted>
-13.6059

> <Gold.Chemscore.Internal_Hbond.Weighted>
0.0000

> <Gold.Chemscore.DEClash.Weighted>
1.5870

> <Gold.Chemscore.DEInternal.Weighted>
3.2644

> <Gold.Chemscore.Rot.Weighted>
6.4900

> <Gold.Chemscore.Internal.Correction.Weighted>
   9.000000E+99

> <Gold.Protein.RotatedTorsions>
[ 6907 6896 6895 6894 ] final   13.18 input  -60.11 | X-H torsion
[ 7974 7965 7964 7962 ] final -166.42 input  175.53 | X-H torsion
[ 8008 7997 7996 7995 ] final   84.13 input   59.86 | X-H torsion
[ 10167 10162 10161 10158 ] final   44.40 input  -65.29 | X-H torsion
[ 10718 10713 10712 10709 ] final  169.40 input   66.30 | X-H torsion
[ 10763 10752 10751 10750 ] final  -48.97 input  -60.55 | X-H torsion
[ 11005 11000 10999 10996 ] final  -89.66 input  -57.11 | X-H torsion

> <Gold.Protein.ActiveResidues>
 VAL166  LYS551  ARG553  GLY616  TRP617  ASP618  TYR619  PRO620  LYS621  CYS622 
 ASP623  PHE694  ASN695  SER759  ASP760  ASP761  ALA762  ILE779  LEU786  VAL792 
 PHE793  MET794  SER795  GLU796  ALA797  LYS798  CYS799  TRP800  GLU811  SER814 

> <Gold.Protein.RotatedAtoms>
  151.7823  135.0758  160.0375 H   0  0  0  0  0  0  0  0  0  0  0  0  # atno 6907 bound_to 6896
  152.3214  133.5854  159.5756 H   0  0  0  0  0  0  0  0  0  0  0  0  # atno 6908 bound_to 6896
  150.7372  133.9921  159.3652 H   0  0  0  0  0  0  0  0  0  0  0  0  # atno 6909 bound_to 6896
  144.7246  140.2669  143.6256 H   0  0  0  0  0  0  0  0  0  0  0  0  # atno 7974 bound_to 7965
  155.9330  140.3413  155.6264 H   0  0  0  0  0  0  0  0  0  0  0  0  # atno 8008 bound_to 7997
  155.7134  140.0774  157.2380 H   0  0  0  0  0  0  0  0  0  0  0  0  # atno 8009 bound_to 7997
  154.4088  140.1618  156.2309 H   0  0  0  0  0  0  0  0  0  0  0  0  # atno 8010 bound_to 7997
  140.3347  144.2545  150.6163 H   0  0  0  0  0  0  0  0  0  0  0  0  # atno 10167 bound_to 10162
  157.0232  131.0238  151.2768 H   0  0  0  0  0  0  0  0  0  0  0  0  # atno 10718 bound_to 10713
  154.0865  135.6583  153.4846 H   0  0  0  0  0  0  0  0  0  0  0  0  # atno 10763 bound_to 10752
  153.0337  135.5192  154.7423 H   0  0  0  0  0  0  0  0  0  0  0  0  # atno 10764 bound_to 10752
  154.6533  135.3004  154.9927 H   0  0  0  0  0  0  0  0  0  0  0  0  # atno 10765 bound_to 10752
  141.1580  133.7644  156.9627 H   0  0  0  0  0  0  0  0  0  0  0  0  # atno 11005 bound_to 11000
  145.8080  139.1991  143.2009 LP  0  0  0  0  0  0  0  0  0  0  0  0  # atno 17320 bound_to 7965
  146.0620  140.7961  142.9730 LP  0  0  0  0  0  0  0  0  0  0  0  0  # atno 17321 bound_to 7965
  140.5365  143.2232  151.8155 LP  0  0  0  0  0  0  0  0  0  0  0  0  # atno 17342 bound_to 10162
  139.4850  144.4655  151.9489 LP  0  0  0  0  0  0  0  0  0  0  0  0  # atno 17343 bound_to 10162
  157.5233  130.8012  149.7834 LP  0  0  0  0  0  0  0  0  0  0  0  0  # atno 17370 bound_to 10713
  156.0095  130.3840  150.2314 LP  0  0  0  0  0  0  0  0  0  0  0  0  # atno 17371 bound_to 10713
  140.1182  134.9434  157.2165 LP  0  0  0  0  0  0  0  0  0  0  0  0  # atno 17394 bound_to 11000
  140.3106  134.3028  155.7268 LP  0  0  0  0  0  0  0  0  0  0  0  0  # atno 17395 bound_to 11000

$$$$
