AV-unprocessed.smi:1701|AV-procd|sdf|6832|dock4
  -GOLD-   22720 8 13D 1   1.00000     0.00000
 Structure written by MMmdl.
 54 56  0  0  0  0  0  0  0  0  2 V2000
  153.0162  142.7616  161.3121 C   0  0  0  0  0  0  0  0  0  0  0  0
  152.8349  141.9779  160.0029 C   0  0  0  0  0  0  0  0  0  0  0  0
  152.0891  142.7245  158.9901 N   0  0  0  0  0  0  0  0  0  0  0  0
  152.7329  143.9157  158.4315 C   0  0  0  0  0  0  0  0  0  0  0  0
  152.1979  145.2256  159.0317 C   0  0  0  0  0  0  0  0  0  0  0  0
  151.2909  141.9261  158.1416 C   0  0  0  0  0  0  0  0  0  0  0  0
  151.0065  142.3603  156.8264 C   0  0  0  0  0  0  0  0  0  0  0  0
  150.1995  141.5599  155.9956 C   0  0  0  0  0  0  0  0  0  0  0  0
  149.6863  140.3442  156.5057 C   0  0  0  0  0  0  0  0  0  0  0  0
  148.8784  139.4344  155.7721 N   0  0  0  0  0  0  0  0  0  0  0  0
  147.9402  139.6889  154.8389 C   0  0  0  0  0  0  0  0  0  0  0  0
  147.5828  140.8107  154.4886 O   0  0  0  0  0  0  0  0  0  0  0  0
  147.3963  138.5871  154.2897 N   0  0  0  0  0  0  0  0  0  0  0  0
  146.3598  138.4962  153.2564 C   0  0  1  0  0  0  0  0  0  0  0  0
  146.8269  139.0501  151.8965 C   0  0  0  0  0  0  0  0  0  0  0  0
  146.2442  138.0825  150.8619 C   0  0  0  0  0  0  0  0  0  0  0  0
  146.2787  136.7950  151.5641 N   0  3  2  0  0  0  0  0  0  0  0  0
  145.5674  135.6456  150.9692 C   0  0  0  0  0  0  0  0  0  0  0  0
  145.9193  134.3824  151.7836 C   0  0  0  0  0  0  0  0  0  0  0  0
  145.6711  134.5745  153.2972 C   0  0  0  0  0  0  0  0  0  0  0  0
  146.3299  135.8659  153.8299 C   0  0  0  0  0  0  0  0  0  0  0  0
  145.8804  137.0535  152.9590 C   0  0  1  0  0  0  0  0  0  0  0  0
  150.0320  139.9936  157.8257 C   0  0  0  0  0  0  0  0  0  0  0  0
  150.8055  140.7566  158.6244 N   0  0  0  0  0  0  0  0  0  0  0  0
  153.5571  142.1636  162.0454 H   0  0  0  0  0  0  0  0  0  0  0  0
  152.0563  143.0332  161.7518 H   0  0  0  0  0  0  0  0  0  0  0  0
  153.5841  143.6785  161.1519 H   0  0  0  0  0  0  0  0  0  0  0  0
  153.8083  141.6738  159.6191 H   0  0  0  0  0  0  0  0  0  0  0  0
  152.2998  141.0508  160.2102 H   0  0  0  0  0  0  0  0  0  0  0  0
  153.8050  143.8572  158.6211 H   0  0  0  0  0  0  0  0  0  0  0  0
  152.6198  143.9257  157.3467 H   0  0  0  0  0  0  0  0  0  0  0  0
  152.7367  146.0815  158.6251 H   0  0  0  0  0  0  0  0  0  0  0  0
  152.3242  145.2402  160.1145 H   0  0  0  0  0  0  0  0  0  0  0  0
  151.1400  145.3747  158.8167 H   0  0  0  0  0  0  0  0  0  0  0  0
  151.4112  143.2862  156.4451 H   0  0  0  0  0  0  0  0  0  0  0  0
  150.0081  141.8904  154.9871 H   0  0  0  0  0  0  0  0  0  0  0  0
  149.0129  138.4617  156.0050 H   0  0  0  0  0  0  0  0  0  0  0  0
  147.7739  137.7056  154.6068 H   0  0  0  0  0  0  0  0  0  0  0  0
  145.4958  139.0894  153.5615 H   0  0  0  0  0  0  0  0  0  0  0  0
  146.5084  140.0796  151.7295 H   0  0  0  0  0  0  0  0  0  0  0  0
  147.9162  139.0293  151.8324 H   0  0  0  0  0  0  0  0  0  0  0  0
  145.2124  138.3472  150.6246 H   0  0  0  0  0  0  0  0  0  0  0  0
  146.8197  138.0590  149.9360 H   0  0  0  0  0  0  0  0  0  0  0  0
  144.4914  135.8253  150.9735 H   0  0  0  0  0  0  0  0  0  0  0  0
  145.8715  135.5206  149.9295 H   0  0  0  0  0  0  0  0  0  0  0  0
  145.3486  133.5292  151.4158 H   0  0  0  0  0  0  0  0  0  0  0  0
  146.9706  134.1381  151.6246 H   0  0  0  0  0  0  0  0  0  0  0  0
  144.5965  134.6183  153.4801 H   0  0  0  0  0  0  0  0  0  0  0  0
  146.0405  133.7102  153.8500 H   0  0  0  0  0  0  0  0  0  0  0  0
  146.0415  136.0176  154.8699 H   0  0  0  0  0  0  0  0  0  0  0  0
  147.4163  135.7687  153.8110 H   0  0  0  0  0  0  0  0  0  0  0  0
  144.7890  137.0874  152.9858 H   0  0  0  0  0  0  0  0  0  0  0  0
  149.6753  139.0705  158.2587 H   0  0  0  0  0  0  0  0  0  0  0  0
  147.2548  136.5377  151.5989 H   0  0  0  0  0  0  0  0  0  0  0  0
  1  2  1  0  0  0  0
  1 25  1  0  0  0  0
  1 26  1  0  0  0  0
  1 27  1  0  0  0  0
  2  3  1  0  0  0  0
  2 28  1  0  0  0  0
  2 29  1  0  0  0  0
  3  4  1  0  0  0  0
  3  6  1  0  0  0  0
  4  5  1  0  0  0  0
  4 30  1  0  0  0  0
  4 31  1  0  0  0  0
  5 32  1  0  0  0  0
  5 33  1  0  0  0  0
  5 34  1  0  0  0  0
  6 24  1  0  0  0  0
  6  7  2  0  0  0  0
  7  8  1  0  0  0  0
  7 35  1  0  0  0  0
  8  9  2  0  0  0  0
  8 36  1  0  0  0  0
  9 10  1  0  0  0  0
  9 23  1  0  0  0  0
 10 11  1  0  0  0  0
 10 37  1  0  0  0  0
 11 12  2  0  0  0  0
 11 13  1  0  0  0  0
 13 14  1  0  0  0  0
 13 38  1  0  0  0  0
 14 22  1  0  0  0  0
 14 15  1  0  0  0  0
 14 39  1  0  0  0  0
 15 16  1  0  0  0  0
 15 40  1  0  0  0  0
 15 41  1  0  0  0  0
 16 17  1  0  0  0  0
 16 42  1  0  0  0  0
 16 43  1  0  0  0  0
 17 22  1  0  0  0  0
 17 18  1  0  0  0  0
 17 54  1  0  0  0  0
 18 19  1  0  0  0  0
 18 44  1  0  0  0  0
 18 45  1  0  0  0  0
 19 20  1  0  0  0  0
 19 46  1  0  0  0  0
 19 47  1  0  0  0  0
 20 21  1  0  0  0  0
 20 48  1  0  0  0  0
 20 49  1  0  0  0  0
 21 22  1  0  0  0  0
 21 50  1  0  0  0  0
 21 51  1  0  0  0  0
 22 52  1  0  0  0  0
 23 24  2  0  0  0  0
 23 53  1  0  0  0  0
M  CHG  1  17   1
M  END
> <s_m_source_file>
AV-unprocessed.smi

> <i_m_source_file_index>
1701

> <i_lp_mmshare_version>
43012

> <i_f3d_flags>
0

> <s_epik_input>
W0NIM11bQ0gyXU4oW0NIMl1bQ0gzXSljMVtjSF1bY0hdYyhbY0hdbjEpW05IXUMoPU8pW05IXVtDQEhdKFtDSDJdW0NIMl0yKVtDQEBIXShOMjMpW0NIMl1bQ0gyXVtDSDJdW0NIMl0z

> <s_epik_cmdline>
J2VwaWtfcHl0aG9uJywgJy1waCcsICc3LjAnLCAnLXRuJywgJzgnLCAnLW1hJywgJzIwMCcsICctbWV0YWxfYmluZGluZycsICctaW1hZScsICc8aW5maWxlLm1hZT4nLCAnLW9tYWUnLCAnPG91dGZpbGUubWFlPic=

> <r_lp_tautomer_probability>
1

> <r_epik_Ionization_Penalty>
0.56662

> <r_epik_Ionization_Penalty_Charging>
0.000974069

> <r_epik_Ionization_Penalty_Neutral>
0.565646

> <r_epik_State_Penalty>
2.0247

> <r_epik_Charging_Adjusted_Penalty>
2.02568

> <i_epik_Tot_Q>
1

> <i_epik_Tot_abs_Q>
1

> <r_epik_Metal_State_Penalty>
1.51504

> <b_epik_Metal_Only>
0

> <s_lp_Force_Field>
OPLS_2005

> <r_lp_Energy>
60.356

> <b_lp_Chiralities_Consistent>
1

> <s_lp_Variant>
AV-unprocessed.smi:1701-12

> <Gold.Version>
5.8.1

> <Gold.Id.Protein>
6NUR|6NUR_protein|mol2

> <Gold.PLP.Fitness>
49.1580

> <Gold.PLP.PLP>
-43.9149

> <Gold.PLP.part.hbond>
-1.0000

> <Gold.PLP.part.metal>
0.0000

> <Gold.PLP.part.buried>
-0.0131

> <Gold.PLP.part.nonpolar>
-43.1142

> <Gold.PLP.part.repulsive>
0.2078

> <Gold.PLP.ligand.clash>
0.0000

> <Gold.PLP.ligand.torsion>
0.7985

> <Gold.PLP.Chemscore.Hbond>
2.0000

> <Gold.PLP.Chemscore.CHOScore>
0.0000

> <Gold.PLP.Chemscore.Metal>
0.0000

> <Gold.Chemscore.Hbonds>
donor molecule, donor type, donor heavy atom, donor atom, acceptor molecule, acceptor atom, score
      L1  H    17    54       P1  7948  2.00

> <Gold.PLP.Chemscore.Internal.Correction>
0.8402

> <Gold.Rescore>
     Score         DG    S(hbond)    S(metal)    S(lipo)     H(rot)  DE(clash)    DE(int)     intcor
     17.16     -19.37       1.00        0.00     118.28       1.28       1.48       0.73       ----

> <Gold.Chemscore.Fitness>
17.1577

> <Gold.Chemscore.DG>
-19.3720

> <Gold.Chemscore.ZeroCoef>
-5.4800

> <Gold.Chemscore.Hbond>
1.0000

> <Gold.Chemscore.Metal>
0.0000

> <Gold.Chemscore.Lipo>
118.2779

> <Gold.Chemscore.Internal_Hbond>
0.0000

> <Gold.Chemscore.DEClash>
1.4810

> <Gold.Chemscore.DEInternal>
0.7333

> <Gold.Chemscore.Rot>
1.2838

> <Gold.Chemscore.Internal.Correction>
   9.000000E+99

> <Gold.Chemscore.Hbonds>
donor molecule, donor type, donor heavy atom, donor atom, acceptor molecule, acceptor atom, score
      L1  H    17    54       P1  7948  1.00

> <Gold.Chemscore.Hbond.Weighted>
-3.3400

> <Gold.Chemscore.Metal.Weighted>
-0.0000

> <Gold.Chemscore.Lipo.Weighted>
-13.8385

> <Gold.Chemscore.Internal_Hbond.Weighted>
0.0000

> <Gold.Chemscore.DEClash.Weighted>
1.4810

> <Gold.Chemscore.DEInternal.Weighted>
0.7333

> <Gold.Chemscore.Rot.Weighted>
3.2865

> <Gold.Chemscore.Internal.Correction.Weighted>
   9.000000E+99

> <Gold.Protein.RotatedTorsions>
[ 6907 6896 6895 6894 ] final  121.55 input  -60.11 | X-H torsion
[ 7974 7965 7964 7962 ] final  -13.68 input  175.53 | X-H torsion
[ 8008 7997 7996 7995 ] final  -81.65 input   59.86 | X-H torsion
[ 10167 10162 10161 10158 ] final  -25.81 input  -65.29 | X-H torsion
[ 10718 10713 10712 10709 ] final   41.50 input   66.30 | X-H torsion
[ 10763 10752 10751 10750 ] final  -23.17 input  -60.55 | X-H torsion
[ 11005 11000 10999 10996 ] final  -28.32 input  -57.11 | X-H torsion

> <Gold.Protein.ActiveResidues>
 VAL166  LYS551  ARG553  GLY616  TRP617  ASP618  TYR619  PRO620  LYS621  CYS622 
 ASP623  PHE694  ASN695  SER759  ASP760  ASP761  ALA762  ILE779  LEU786  VAL792 
 PHE793  MET794  SER795  GLU796  ALA797  LYS798  CYS799  TRP800  GLU811  SER814 

> <Gold.Protein.RotatedAtoms>
  152.4313  133.7282  159.6571 H   0  0  0  0  0  0  0  0  0  0  0  0  # atno 6907 bound_to 6896
  150.8192  133.8272  159.3152 H   0  0  0  0  0  0  0  0  0  0  0  0  # atno 6908 bound_to 6896
  151.5959  135.1053  160.0101 H   0  0  0  0  0  0  0  0  0  0  0  0  # atno 6909 bound_to 6896
  146.2105  140.3238  142.8393 H   0  0  0  0  0  0  0  0  0  0  0  0  # atno 7974 bound_to 7965
  154.6005  140.0645  156.9361 H   0  0  0  0  0  0  0  0  0  0  0  0  # atno 8008 bound_to 7997
  155.2141  140.3325  155.4306 H   0  0  0  0  0  0  0  0  0  0  0  0  # atno 8009 bound_to 7997
  156.2315  140.1843  156.7214 H   0  0  0  0  0  0  0  0  0  0  0  0  # atno 8010 bound_to 7997
  140.7285  143.4233  151.0917 H   0  0  0  0  0  0  0  0  0  0  0  0  # atno 10167 bound_to 10162
  157.3943  130.7824  149.7295 H   0  0  0  0  0  0  0  0  0  0  0  0  # atno 10718 bound_to 10713
  153.6636  135.6975  153.5169 H   0  0  0  0  0  0  0  0  0  0  0  0  # atno 10763 bound_to 10752
  153.2612  135.4244  155.0895 H   0  0  0  0  0  0  0  0  0  0  0  0  # atno 10764 bound_to 10752
  154.8445  135.3555  154.6181 H   0  0  0  0  0  0  0  0  0  0  0  0  # atno 10765 bound_to 10752
  140.9198  133.7406  156.0785 H   0  0  0  0  0  0  0  0  0  0  0  0  # atno 11005 bound_to 11000
  144.8901  140.7512  143.5932 LP  0  0  0  0  0  0  0  0  0  0  0  0  # atno 17320 bound_to 7965
  145.3160  139.1803  143.4613 LP  0  0  0  0  0  0  0  0  0  0  0  0  # atno 17321 bound_to 7965
  139.7881  143.8258  152.3148 LP  0  0  0  0  0  0  0  0  0  0  0  0  # atno 17342 bound_to 10162
  139.8233  144.7286  150.9545 LP  0  0  0  0  0  0  0  0  0  0  0  0  # atno 17343 bound_to 10162
  155.9806  130.4028  150.3518 LP  0  0  0  0  0  0  0  0  0  0  0  0  # atno 17370 bound_to 10713
  157.1638  131.0351  151.2828 LP  0  0  0  0  0  0  0  0  0  0  0  0  # atno 17371 bound_to 10713
  140.8003  134.3516  157.5441 LP  0  0  0  0  0  0  0  0  0  0  0  0  # atno 17394 bound_to 11000
  139.8773  134.9194  156.3225 LP  0  0  0  0  0  0  0  0  0  0  0  0  # atno 17395 bound_to 11000

$$$$
