AV-unprocessed.smi:573|AV-procd|sdf|2967|dock10
  -GOLD-   2262023473D 1   1.00000     0.00000
 Structure written by MMmdl.
 45 47  0  0  0  0  0  0  0  0  2 V2000
  147.6180  139.2900  154.0884 C   0  0  0  0  0  0  0  0  0  0  0  0
  148.0878  140.7522  154.0692 C   0  0  2  0  0  0  0  0  0  0  0  0
  149.3840  140.7944  153.5125 O   0  0  0  0  0  0  0  0  0  0  0  0
  148.1509  141.3835  155.4721 C   0  0  0  0  0  0  0  0  0  0  0  0
  149.1453  140.7517  156.3275 N   0  0  0  0  0  0  0  0  0  0  0  0
  149.9850  141.5382  157.1249 C   0  0  0  0  0  0  0  0  0  0  0  0
  150.1112  142.8912  157.0661 N   0  3  0  0  0  0  0  0  0  0  0  0
  151.0591  143.2863  158.0141 C   0  0  0  0  0  0  0  0  0  0  0  0
  151.5408  144.5496  158.3429 C   0  0  0  0  0  0  0  0  0  0  0  0
  152.5182  144.6110  159.3577 C   0  0  0  0  0  0  0  0  0  0  0  0
  152.9825  143.4464  160.0029 C   0  0  0  0  0  0  0  0  0  0  0  0
  152.4869  142.1700  159.6652 C   0  0  0  0  0  0  0  0  0  0  0  0
  151.5177  142.1145  158.6636 C   0  0  0  0  0  0  0  0  0  0  0  0
  150.8154  141.0503  158.0819 N   0  0  0  0  0  0  0  0  0  0  0  0
  151.0519  139.6718  158.5358 C   0  0  0  0  0  0  0  0  0  0  0  0
  151.4210  138.7309  157.3769 C   0  0  2  0  0  0  0  0  0  0  0  0
  152.0084  139.4989  156.1777 C   0  0  0  0  0  0  0  0  0  0  0  0
  152.3056  138.5424  155.0173 C   0  0  0  0  0  0  0  0  0  0  0  0
  151.0534  137.7222  154.6894 C   0  0  0  0  0  0  0  0  0  0  0  0
  150.5095  137.0463  155.9580 C   0  0  0  0  0  0  0  0  0  0  0  0
  150.2530  138.0265  156.9586 O   0  0  0  0  0  0  0  0  0  0  0  0
  146.6028  139.2063  154.4776 H   0  0  0  0  0  0  0  0  0  0  0  0
  148.2649  138.6729  154.7129 H   0  0  0  0  0  0  0  0  0  0  0  0
  147.6183  138.8637  153.0846 H   0  0  0  0  0  0  0  0  0  0  0  0
  147.4330  141.3371  153.4224 H   0  0  0  0  0  0  0  0  0  0  0  0
  149.3251  140.5802  152.5937 H   0  0  0  0  0  0  0  0  0  0  0  0
  148.3916  142.4441  155.3924 H   0  0  0  0  0  0  0  0  0  0  0  0
  147.1746  141.3299  155.9558 H   0  0  0  0  0  0  0  0  0  0  0  0
  149.1028  139.7531  156.4728 H   0  0  0  0  0  0  0  0  0  0  0  0
  151.1902  145.4436  157.8480 H   0  0  0  0  0  0  0  0  0  0  0  0
  152.9223  145.5708  159.6451 H   0  0  0  0  0  0  0  0  0  0  0  0
  153.7355  143.5330  160.7729 H   0  0  0  0  0  0  0  0  0  0  0  0
  152.8550  141.2847  160.1624 H   0  0  0  0  0  0  0  0  0  0  0  0
  151.8255  139.6755  159.3037 H   0  0  0  0  0  0  0  0  0  0  0  0
  150.1397  139.3259  159.0231 H   0  0  0  0  0  0  0  0  0  0  0  0
  152.1558  138.0092  157.7391 H   0  0  0  0  0  0  0  0  0  0  0  0
  151.3023  140.2619  155.8474 H   0  0  0  0  0  0  0  0  0  0  0  0
  152.9192  140.0220  156.4712 H   0  0  0  0  0  0  0  0  0  0  0  0
  152.6373  139.0986  154.1399 H   0  0  0  0  0  0  0  0  0  0  0  0
  153.1218  137.8733  155.2927 H   0  0  0  0  0  0  0  0  0  0  0  0
  150.2877  138.3746  154.2676 H   0  0  0  0  0  0  0  0  0  0  0  0
  151.2807  136.9736  153.9300 H   0  0  0  0  0  0  0  0  0  0  0  0
  149.5805  136.5222  155.7335 H   0  0  0  0  0  0  0  0  0  0  0  0
  151.2117  136.3015  156.3353 H   0  0  0  0  0  0  0  0  0  0  0  0
  149.5982  143.4886  156.4308 H   0  0  0  0  0  0  0  0  0  0  0  0
  1  2  1  0  0  0  0
  1 22  1  0  0  0  0
  1 23  1  0  0  0  0
  1 24  1  0  0  0  0
  2  3  1  0  0  0  0
  2  4  1  0  0  0  0
  2 25  1  0  0  0  0
  3 26  1  0  0  0  0
  4  5  1  0  0  0  0
  4 27  1  0  0  0  0
  4 28  1  0  0  0  0
  5  6  1  0  0  0  0
  5 29  1  0  0  0  0
  6 14  1  0  0  0  0
  6  7  2  0  0  0  0
  7  8  1  0  0  0  0
  7 45  1  0  0  0  0
  8 13  2  0  0  0  0
  8  9  1  0  0  0  0
  9 10  2  0  0  0  0
  9 30  1  0  0  0  0
 10 11  1  0  0  0  0
 10 31  1  0  0  0  0
 11 12  2  0  0  0  0
 11 32  1  0  0  0  0
 12 13  1  0  0  0  0
 12 33  1  0  0  0  0
 13 14  1  0  0  0  0
 14 15  1  0  0  0  0
 15 16  1  0  0  0  0
 15 34  1  0  0  0  0
 15 35  1  0  0  0  0
 16 21  1  0  0  0  0
 16 17  1  0  0  0  0
 16 36  1  0  0  0  0
 17 18  1  0  0  0  0
 17 37  1  0  0  0  0
 17 38  1  0  0  0  0
 18 19  1  0  0  0  0
 18 39  1  0  0  0  0
 18 40  1  0  0  0  0
 19 20  1  0  0  0  0
 19 41  1  0  0  0  0
 19 42  1  0  0  0  0
 20 21  1  0  0  0  0
 20 43  1  0  0  0  0
 20 44  1  0  0  0  0
M  CHG  1   7   1
M  END
> <s_m_source_file>
AV-unprocessed.smi

> <i_m_source_file_index>
573

> <i_lp_mmshare_version>
43012

> <i_f3d_flags>
0

> <s_epik_input>
W0NIM11bQ0BIXShbT0hdKVtDSDJdW05IXWMobjEpbihjKGMxMilbY0hdW2NIXVtjSF1bY0hdMilbQ0gyXVtDQEBIXTNbQ0gyXVtDSDJdW0NIMl1bQ0gyXU8z

> <s_epik_cmdline>
J2VwaWtfcHl0aG9uJywgJy1waCcsICc3LjAnLCAnLXRuJywgJzgnLCAnLW1hJywgJzIwMCcsICctbWV0YWxfYmluZGluZycsICctaW1hZScsICc8aW5maWxlLm1hZT4nLCAnLW9tYWUnLCAnPG91dGZpbGUubWFlPic=

> <r_epik_Ionization_Penalty>
0.0692245

> <r_epik_Ionization_Penalty_Charging>
0.0692223

> <r_epik_Ionization_Penalty_Neutral>
2.1869e-06

> <r_epik_State_Penalty>
0.0606215

> <r_epik_Charging_Adjusted_Penalty>
0.129844

> <i_epik_Tot_Q>
1

> <i_epik_Tot_abs_Q>
1

> <r_epik_Metal_State_Penalty>
2.77811

> <b_epik_Metal_Only>
0

> <s_lp_Force_Field>
OPLS_2005

> <r_lp_Energy>
19.8097

> <b_lp_Chiralities_Consistent>
1

> <s_lp_Variant>
AV-unprocessed.smi:573-1

> <Gold.Version>
5.8.1

> <Gold.Id.Protein>
6NUR|6NUR_protein|mol2

> <Gold.PLP.Fitness>
54.0832

> <Gold.PLP.PLP>
-46.7693

> <Gold.PLP.part.hbond>
-3.6332

> <Gold.PLP.part.metal>
0.0000

> <Gold.PLP.part.buried>
-4.6780

> <Gold.PLP.part.nonpolar>
-38.2242

> <Gold.PLP.part.repulsive>
0.0441

> <Gold.PLP.ligand.clash>
0.7033

> <Gold.PLP.ligand.torsion>
0.6702

> <Gold.PLP.Chemscore.Hbond>
3.1170

> <Gold.PLP.Chemscore.CHOScore>
0.0000

> <Gold.PLP.Chemscore.Metal>
0.0000

> <Gold.Chemscore.Hbonds>
donor molecule, donor type, donor heavy atom, donor atom, acceptor molecule, acceptor atom, score
      L1  H     3    26       P1  7957  1.00
      L1  H     7    45       P1  8028  2.00
      P1  H  7989  7998       L1     3  0.12

> <Gold.PLP.Chemscore.Internal.Correction>
0.0066

> <Gold.Rescore>
     Score         DG    S(hbond)    S(metal)    S(lipo)     H(rot)  DE(clash)    DE(int)     intcor
     18.68     -21.32       1.92        0.00     125.93       2.07       0.11       2.53       ----

> <Gold.Chemscore.Fitness>
18.6824

> <Gold.Chemscore.DG>
-21.3209

> <Gold.Chemscore.ZeroCoef>
-5.4800

> <Gold.Chemscore.Hbond>
1.9181

> <Gold.Chemscore.Metal>
0.0000

> <Gold.Chemscore.Lipo>
125.9268

> <Gold.Chemscore.Internal_Hbond>
0.0000

> <Gold.Chemscore.DEClash>
0.1100

> <Gold.Chemscore.DEInternal>
2.5286

> <Gold.Chemscore.Rot>
2.0699

> <Gold.Chemscore.Internal.Correction>
   9.000000E+99

> <Gold.Chemscore.Hbonds>
donor molecule, donor type, donor heavy atom, donor atom, acceptor molecule, acceptor atom, score
      L1  H     3    26       P1  7957  0.95
      L1  H     7    45       P1  8028  0.99
      P1  H  7989  7998       L1     3  0.01

> <Gold.Chemscore.Hbond.Weighted>
-6.4066

> <Gold.Chemscore.Metal.Weighted>
-0.0000

> <Gold.Chemscore.Lipo.Weighted>
-14.7334

> <Gold.Chemscore.Internal_Hbond.Weighted>
0.0000

> <Gold.Chemscore.DEClash.Weighted>
0.1100

> <Gold.Chemscore.DEInternal.Weighted>
2.5286

> <Gold.Chemscore.Rot.Weighted>
5.2991

> <Gold.Chemscore.Internal.Correction.Weighted>
   9.000000E+99

> <Gold.Protein.RotatedTorsions>
[ 6907 6896 6895 6894 ] final -179.38 input  -60.11 | X-H torsion
[ 7974 7965 7964 7962 ] final   35.20 input  175.53 | X-H torsion
[ 8008 7997 7996 7995 ] final  -44.65 input   59.86 | X-H torsion
[ 10167 10162 10161 10158 ] final  -11.99 input  -65.29 | X-H torsion
[ 10718 10713 10712 10709 ] final  126.54 input   66.30 | X-H torsion
[ 10763 10752 10751 10750 ] final -112.94 input  -60.55 | X-H torsion
[ 11005 11000 10999 10996 ] final  -30.90 input  -57.11 | X-H torsion

> <Gold.Protein.ActiveResidues>
 VAL166  LYS551  ARG553  GLY616  TRP617  ASP618  TYR619  PRO620  LYS621  CYS622 
 ASP623  PHE694  ASN695  SER759  ASP760  ASP761  ALA762  ILE779  LEU786  VAL792 
 PHE793  MET794  SER795  GLU796  ALA797  LYS798  CYS799  TRP800  GLU811  SER814 

> <Gold.Protein.RotatedAtoms>
  151.6525  133.3320  159.3154 H   0  0  0  0  0  0  0  0  0  0  0  0  # atno 6907 bound_to 6896
  150.7953  134.7012  159.6560 H   0  0  0  0  0  0  0  0  0  0  0  0  # atno 6908 bound_to 6896
  152.4039  134.6243  160.0110 H   0  0  0  0  0  0  0  0  0  0  0  0  # atno 6909 bound_to 6896
  146.1300  139.6173  142.9233 H   0  0  0  0  0  0  0  0  0  0  0  0  # atno 7974 bound_to 7965
  154.3998  140.1417  156.3718 H   0  0  0  0  0  0  0  0  0  0  0  0  # atno 8008 bound_to 7997
  155.8085  140.3473  155.5423 H   0  0  0  0  0  0  0  0  0  0  0  0  # atno 8009 bound_to 7997
  155.8410  140.0927  157.1725 H   0  0  0  0  0  0  0  0  0  0  0  0  # atno 8010 bound_to 7997
  140.7151  143.5581  150.9226 H   0  0  0  0  0  0  0  0  0  0  0  0  # atno 10167 bound_to 10162
  157.5410  131.1097  150.8858 H   0  0  0  0  0  0  0  0  0  0  0  0  # atno 10718 bound_to 10713
  154.8373  135.4472  154.1272 H   0  0  0  0  0  0  0  0  0  0  0  0  # atno 10763 bound_to 10752
  153.2492  135.6925  153.7704 H   0  0  0  0  0  0  0  0  0  0  0  0  # atno 10764 bound_to 10752
  153.7022  135.3370  155.3203 H   0  0  0  0  0  0  0  0  0  0  0  0  # atno 10765 bound_to 10752
  140.9422  133.7272  156.1093 H   0  0  0  0  0  0  0  0  0  0  0  0  # atno 11005 bound_to 11000
  145.5282  141.0428  143.2397 LP  0  0  0  0  0  0  0  0  0  0  0  0  # atno 17320 bound_to 7965
  144.7680  139.6799  143.7206 LP  0  0  0  0  0  0  0  0  0  0  0  0  # atno 17321 bound_to 7965
  139.9306  143.6498  152.3077 LP  0  0  0  0  0  0  0  0  0  0  0  0  # atno 17342 bound_to 10162
  139.6947  144.7643  151.1377 LP  0  0  0  0  0  0  0  0  0  0  0  0  # atno 17343 bound_to 10162
  156.9410  130.5385  149.5280 LP  0  0  0  0  0  0  0  0  0  0  0  0  # atno 17370 bound_to 10713
  156.0497  130.5568  150.8961 LP  0  0  0  0  0  0  0  0  0  0  0  0  # atno 17371 bound_to 10713
  140.7718  134.3824  157.5506 LP  0  0  0  0  0  0  0  0  0  0  0  0  # atno 17394 bound_to 11000
  139.8823  134.9027  156.2838 LP  0  0  0  0  0  0  0  0  0  0  0  0  # atno 17395 bound_to 11000

$$$$
