AV-unprocessed.smi:1543|AV-procd|sdf|6207|dock1
  -GOLD-   22720 6373D 1   1.00000     0.00000
 Structure written by MMmdl.
 48 49  0  0  0  0  0  0  0  0  1 V2000
  145.8595  142.4883  158.8001 C   0  0  0  0  0  0  0  0  0  0  0  0
  145.8767  141.3360  157.7900 C   0  0  1  0  0  0  0  0  0  0  0  0
  146.7191  141.6684  156.5461 C   0  0  0  0  0  0  0  0  0  0  0  0
  146.7901  140.5397  155.6137 N   0  0  0  0  0  0  0  0  0  0  0  0
  147.4452  140.8418  154.3095 C   0  0  0  0  0  0  0  0  0  0  0  0
  147.1148  139.8020  153.2118 C   0  0  0  0  0  0  0  0  0  0  0  0
  147.0048  142.2284  153.7746 C   0  0  0  0  0  0  0  0  0  0  0  0
  148.9961  140.8956  154.4413 C   0  0  0  0  0  0  0  0  0  0  0  0
  149.4476  141.9664  155.3299 N   0  0  0  0  0  0  0  0  0  0  0  0
  150.1803  141.8111  156.4410 C   0  0  0  0  0  0  0  0  0  0  0  0
  150.5498  140.7163  156.8634 O   0  0  0  0  0  0  0  0  0  0  0  0
  150.4425  143.0005  157.0103 N   0  0  0  0  0  0  0  0  0  0  0  0
  151.1628  143.2960  158.2009 C   0  0  0  0  0  0  0  0  0  0  0  0
  152.1460  142.4597  158.7851 C   0  0  0  0  0  0  0  0  0  0  0  0
  152.7834  142.8826  159.9677 C   0  0  0  0  0  0  0  0  0  0  0  0
  152.4201  144.1251  160.5215 C   0  0  0  0  0  0  0  0  0  0  0  0
  151.4918  144.9361  159.9727 N   0  0  0  0  0  0  0  0  0  0  0  0
  150.8848  144.5236  158.8396 C   0  0  0  0  0  0  0  0  0  0  0  0
  147.3389  139.3803  156.3265 C   0  0  0  0  0  0  0  0  0  0  0  0
  146.5515  139.0339  157.6058 C   0  0  2  0  0  0  0  0  0  0  0  0
  145.1926  138.3714  157.3224 C   0  0  0  0  0  0  0  0  0  0  0  0
  146.4173  140.1871  158.4361 O   0  0  0  0  0  0  0  0  0  0  0  0
  145.4452  143.3938  158.3559 H   0  0  0  0  0  0  0  0  0  0  0  0
  146.8647  142.7183  159.1544 H   0  0  0  0  0  0  0  0  0  0  0  0
  145.2501  142.2360  159.6682 H   0  0  0  0  0  0  0  0  0  0  0  0
  144.8488  141.1326  157.4882 H   0  0  0  0  0  0  0  0  0  0  0  0
  146.2714  142.5387  156.0708 H   0  0  0  0  0  0  0  0  0  0  0  0
  147.7221  141.9607  156.8583 H   0  0  0  0  0  0  0  0  0  0  0  0
  147.6072  140.0558  152.2725 H   0  0  0  0  0  0  0  0  0  0  0  0
  146.0469  139.7507  153.0003 H   0  0  0  0  0  0  0  0  0  0  0  0
  147.4479  138.7997  153.4813 H   0  0  0  0  0  0  0  0  0  0  0  0
  147.6108  142.5396  152.9227 H   0  0  0  0  0  0  0  0  0  0  0  0
  147.0969  143.0023  154.5377 H   0  0  0  0  0  0  0  0  0  0  0  0
  145.9717  142.2300  153.4277 H   0  0  0  0  0  0  0  0  0  0  0  0
  149.3899  139.9554  154.8268 H   0  0  0  0  0  0  0  0  0  0  0  0
  149.4544  140.9923  153.4552 H   0  0  0  0  0  0  0  0  0  0  0  0
  149.1985  142.9059  155.0572 H   0  0  0  0  0  0  0  0  0  0  0  0
  150.0441  143.8029  156.5448 H   0  0  0  0  0  0  0  0  0  0  0  0
  152.4327  141.5120  158.3589 H   0  0  0  0  0  0  0  0  0  0  0  0
  153.5358  142.2680  160.4389 H   0  0  0  0  0  0  0  0  0  0  0  0
  152.8892  144.4779  161.4279 H   0  0  0  0  0  0  0  0  0  0  0  0
  150.1475  145.1987  158.4303 H   0  0  0  0  0  0  0  0  0  0  0  0
  147.3518  138.4968  155.6909 H   0  0  0  0  0  0  0  0  0  0  0  0
  148.3738  139.5776  156.6065 H   0  0  0  0  0  0  0  0  0  0  0  0
  147.1408  138.3157  158.1760 H   0  0  0  0  0  0  0  0  0  0  0  0
  145.3256  137.4265  156.7953 H   0  0  0  0  0  0  0  0  0  0  0  0
  144.5507  138.9993  156.7049 H   0  0  0  0  0  0  0  0  0  0  0  0
  144.6618  138.1600  158.2509 H   0  0  0  0  0  0  0  0  0  0  0  0
  1  2  1  0  0  0  0
  1 23  1  0  0  0  0
  1 24  1  0  0  0  0
  1 25  1  0  0  0  0
  2 22  1  0  0  0  0
  2  3  1  0  0  0  0
  2 26  1  0  0  0  0
  3  4  1  0  0  0  0
  3 27  1  0  0  0  0
  3 28  1  0  0  0  0
  4  5  1  0  0  0  0
  4 19  1  0  0  0  0
  5  6  1  0  0  0  0
  5  7  1  0  0  0  0
  5  8  1  0  0  0  0
  6 29  1  0  0  0  0
  6 30  1  0  0  0  0
  6 31  1  0  0  0  0
  7 32  1  0  0  0  0
  7 33  1  0  0  0  0
  7 34  1  0  0  0  0
  8  9  1  0  0  0  0
  8 35  1  0  0  0  0
  8 36  1  0  0  0  0
  9 10  1  0  0  0  0
  9 37  1  0  0  0  0
 10 11  2  0  0  0  0
 10 12  1  0  0  0  0
 12 13  1  0  0  0  0
 12 38  1  0  0  0  0
 13 18  1  0  0  0  0
 13 14  2  0  0  0  0
 14 15  1  0  0  0  0
 14 39  1  0  0  0  0
 15 16  2  0  0  0  0
 15 40  1  0  0  0  0
 16 17  1  0  0  0  0
 16 41  1  0  0  0  0
 17 18  2  0  0  0  0
 18 42  1  0  0  0  0
 19 20  1  0  0  0  0
 19 43  1  0  0  0  0
 19 44  1  0  0  0  0
 20 21  1  0  0  0  0
 20 22  1  0  0  0  0
 20 45  1  0  0  0  0
 21 46  1  0  0  0  0
 21 47  1  0  0  0  0
 21 48  1  0  0  0  0
M  END
> <s_m_source_file>
AV-unprocessed.smi

> <i_m_source_file_index>
1543

> <i_lp_mmshare_version>
43012

> <i_f3d_flags>
0

> <s_epik_input>
W0NIM11bQ0BASF0xW0NIMl1OKFtDSDJdW0NASF0oTzEpW0NIM10pQyhbQ0gzXSkoW0NIM10pW0NIMl1bTkhdQyg9TylbTkhdYzJbY0hdW2NIXVtjSF1uW2NIXTI=

> <s_epik_cmdline>
J2VwaWtfcHl0aG9uJywgJy1waCcsICc3LjAnLCAnLXRuJywgJzgnLCAnLW1hJywgJzIwMCcsICctbWV0YWxfYmluZGluZycsICctaW1hZScsICc8aW5maWxlLm1hZT4nLCAnLW9tYWUnLCAnPG91dGZpbGUubWFlPic=

> <r_epik_Ionization_Penalty>
0.270794

> <r_epik_Ionization_Penalty_Charging>
0

> <r_epik_Ionization_Penalty_Neutral>
0.270794

> <r_epik_State_Penalty>
0.268291

> <r_epik_Charging_Adjusted_Penalty>
0.268291

> <i_epik_Tot_Q>
0

> <i_epik_Tot_abs_Q>
0

> <r_epik_Metal_State_Penalty>
0.264827

> <b_epik_Metal_Only>
0

> <s_lp_Force_Field>
OPLS_2005

> <r_lp_Energy>
46.1399

> <b_lp_Chiralities_Consistent>
1

> <s_lp_Variant>
AV-unprocessed.smi:1543-3

> <Gold.Version>
5.8.1

> <Gold.Id.Protein>
6NUR|6NUR_protein|mol2

> <Gold.PLP.Fitness>
42.6876

> <Gold.PLP.PLP>
-34.8013

> <Gold.PLP.part.hbond>
-3.0000

> <Gold.PLP.part.metal>
0.0000

> <Gold.PLP.part.buried>
-6.7599

> <Gold.PLP.part.nonpolar>
-25.6524

> <Gold.PLP.part.repulsive>
0.3981

> <Gold.PLP.ligand.clash>
0.0000

> <Gold.PLP.ligand.torsion>
0.4557

> <Gold.PLP.Chemscore.Hbond>
1.9120

> <Gold.PLP.Chemscore.CHOScore>
1.0000

> <Gold.PLP.Chemscore.Metal>
0.0000

> <Gold.Chemscore.Hbonds>
donor molecule, donor type, donor heavy atom, donor atom, acceptor molecule, acceptor atom, score
      L1  H     9    37       P1  8028  0.94
      L1  H    12    38       P1  8028  1.00
      P1  H  6934  6946       L1    22  0.01
      L1  C    18    42       P1  8029  0.77

> <Gold.PLP.Chemscore.Internal.Correction>
0.0618

> <Gold.Rescore>
     Score         DG    S(hbond)    S(metal)    S(lipo)     H(rot)  DE(clash)    DE(int)     intcor
     17.64     -18.64       1.95        0.00      88.00       1.43       0.05       0.95       ----

> <Gold.Chemscore.Fitness>
17.6354

> <Gold.Chemscore.DG>
-18.6373

> <Gold.Chemscore.ZeroCoef>
-5.4800

> <Gold.Chemscore.Hbond>
1.9519

> <Gold.Chemscore.Metal>
0.0000

> <Gold.Chemscore.Lipo>
88.0036

> <Gold.Chemscore.Internal_Hbond>
0.0000

> <Gold.Chemscore.DEClash>
0.0473

> <Gold.Chemscore.DEInternal>
0.9546

> <Gold.Chemscore.Rot>
1.4291

> <Gold.Chemscore.Internal.Correction>
   9.000000E+99

> <Gold.Chemscore.Hbonds>
donor molecule, donor type, donor heavy atom, donor atom, acceptor molecule, acceptor atom, score
      L1  H     9    37       P1  8028  0.91
      L1  H    12    38       P1  8028  0.99
      P1  H  6934  6946       L1    22  0.01

> <Gold.Chemscore.Hbond.Weighted>
-6.5194

> <Gold.Chemscore.Metal.Weighted>
-0.0000

> <Gold.Chemscore.Lipo.Weighted>
-10.2964

> <Gold.Chemscore.Internal_Hbond.Weighted>
0.0000

> <Gold.Chemscore.DEClash.Weighted>
0.0473

> <Gold.Chemscore.DEInternal.Weighted>
0.9546

> <Gold.Chemscore.Rot.Weighted>
3.6586

> <Gold.Chemscore.Internal.Correction.Weighted>
   9.000000E+99

> <Gold.Protein.RotatedTorsions>
[ 6907 6896 6895 6894 ] final  104.93 input  -60.11 | X-H torsion
[ 7974 7965 7964 7962 ] final  -90.03 input  175.53 | X-H torsion
[ 8008 7997 7996 7995 ] final  -93.20 input   59.86 | X-H torsion
[ 10167 10162 10161 10158 ] final -174.59 input  -65.29 | X-H torsion
[ 10718 10713 10712 10709 ] final   87.70 input   66.30 | X-H torsion
[ 10763 10752 10751 10750 ] final -107.88 input  -60.55 | X-H torsion
[ 11005 11000 10999 10996 ] final  -15.71 input  -57.11 | X-H torsion

> <Gold.Protein.ActiveResidues>
 VAL166  LYS551  ARG553  GLY616  TRP617  ASP618  TYR619  PRO620  LYS621  CYS622 
 ASP623  PHE694  ASN695  SER759  ASP760  ASP761  ALA762  ILE779  LEU786  VAL792 
 PHE793  MET794  SER795  GLU796  ALA797  LYS798  CYS799  TRP800  GLU811  SER814 

> <Gold.Protein.RotatedAtoms>
  152.5248  133.9604  159.7713 H   0  0  0  0  0  0  0  0  0  0  0  0  # atno 6907 bound_to 6896
  150.9895  133.6155  159.2717 H   0  0  0  0  0  0  0  0  0  0  0  0  # atno 6908 bound_to 6896
  151.3303  135.0846  159.9389 H   0  0  0  0  0  0  0  0  0  0  0  0  # atno 6909 bound_to 6896
  145.4319  140.9556  143.2123 H   0  0  0  0  0  0  0  0  0  0  0  0  # atno 7974 bound_to 7965
  154.7327  140.0501  157.0741 H   0  0  0  0  0  0  0  0  0  0  0  0  # atno 8008 bound_to 7997
  155.0280  140.3154  155.4749 H   0  0  0  0  0  0  0  0  0  0  0  0  # atno 8009 bound_to 7997
  156.2845  140.2155  156.5401 H   0  0  0  0  0  0  0  0  0  0  0  0  # atno 8010 bound_to 7997
  139.5626  144.1833  152.1262 H   0  0  0  0  0  0  0  0  0  0  0  0  # atno 10167 bound_to 10162
  157.6942  131.0266  150.3163 H   0  0  0  0  0  0  0  0  0  0  0  0  # atno 10718 bound_to 10713
  154.8102  135.4658  154.0496 H   0  0  0  0  0  0  0  0  0  0  0  0  # atno 10763 bound_to 10752
  153.1933  135.6858  153.8331 H   0  0  0  0  0  0  0  0  0  0  0  0  # atno 10764 bound_to 10752
  153.7841  135.3252  155.3347 H   0  0  0  0  0  0  0  0  0  0  0  0  # atno 10765 bound_to 10752
  140.7994  133.8226  155.9455 H   0  0  0  0  0  0  0  0  0  0  0  0  # atno 11005 bound_to 11000
  144.8177  139.5847  143.7001 LP  0  0  0  0  0  0  0  0  0  0  0  0  # atno 17320 bound_to 7965
  146.2602  139.6394  142.9367 LP  0  0  0  0  0  0  0  0  0  0  0  0  # atno 17321 bound_to 7965
  140.1350  144.5254  150.6779 LP  0  0  0  0  0  0  0  0  0  0  0  0  # atno 17342 bound_to 10162
  140.6907  143.2374  151.5139 LP  0  0  0  0  0  0  0  0  0  0  0  0  # atno 17343 bound_to 10162
  156.3657  130.3854  149.7216 LP  0  0  0  0  0  0  0  0  0  0  0  0  # atno 17370 bound_to 10713
  156.4647  130.7968  151.2988 LP  0  0  0  0  0  0  0  0  0  0  0  0  # atno 17371 bound_to 10713
  140.9310  134.2022  157.4864 LP  0  0  0  0  0  0  0  0  0  0  0  0  # atno 17394 bound_to 11000
  139.8723  134.9832  156.5190 LP  0  0  0  0  0  0  0  0  0  0  0  0  # atno 17395 bound_to 11000

$$$$
