AV-unprocessed.smi:1389|AV-procd|sdf|5651|dock6
  -GOLD-   22720 5273D 1   1.00000     0.00000
 Structure written by MMmdl.
 52 54  0  0  0  0  0  0  0  0  2 V2000
  148.9174  137.0343  155.4827 C   0  0  0  0  0  0  0  0  0  0  0  0
  149.2386  137.9001  154.2376 C   0  0  1  0  0  0  0  0  0  0  0  0
  147.9550  138.6764  153.8218 C   0  0  0  0  0  0  0  0  0  0  0  0
  146.9782  137.8485  153.1194 N   0  0  0  0  0  0  0  0  0  0  0  0
  145.8353  137.3922  153.6502 C   0  0  0  0  0  0  0  0  0  0  0  0
  145.4846  137.6170  154.8084 O   0  0  0  0  0  0  0  0  0  0  0  0
  145.1276  136.6889  152.7508 N   0  0  0  0  0  0  0  0  0  0  0  0
  143.8562  136.0701  152.9218 C   0  0  0  0  0  0  0  0  0  0  0  0
  142.8473  136.6371  153.7426 C   0  0  0  0  0  0  0  0  0  0  0  0
  141.6080  135.9831  153.8817 C   0  0  0  0  0  0  0  0  0  0  0  0
  141.3985  134.7678  153.2066 C   0  0  0  0  0  0  0  0  0  0  0  0
  142.3845  134.2457  152.4480 N   0  3  0  0  0  0  0  0  0  0  0  0
  143.5959  134.8303  152.2758 C   0  0  0  0  0  0  0  0  0  0  0  0
  144.5606  134.1784  151.4776 N   0  0  0  0  0  0  0  0  0  0  0  0
  145.0119  132.8964  152.0143 C   0  0  0  0  0  0  0  0  0  0  0  0
  145.1523  131.9464  150.8217 C   0  0  0  0  0  0  0  0  0  0  0  0
  144.1954  132.5332  149.7914 C   0  0  0  0  0  0  0  0  0  0  0  0
  144.3300  134.0332  150.0416 C   0  0  0  0  0  0  0  0  0  0  0  0
  150.4143  138.7785  154.4391 N   0  0  0  0  0  0  0  0  0  0  0  0
  151.6872  138.0521  154.3586 C   0  0  0  0  0  0  0  0  0  0  0  0
  152.9085  138.9564  154.5994 C   0  0  0  0  0  0  0  0  0  0  0  0
  152.7909  139.5979  155.8618 O   0  0  0  0  0  0  0  0  0  0  0  0
  151.6068  140.3772  155.9551 C   0  0  0  0  0  0  0  0  0  0  0  0
  150.3779  139.4802  155.7276 C   0  0  0  0  0  0  0  0  0  0  0  0
  148.0212  136.4294  155.3506 H   0  0  0  0  0  0  0  0  0  0  0  0
  148.7654  137.6559  156.3658 H   0  0  0  0  0  0  0  0  0  0  0  0
  149.7089  136.3203  155.7051 H   0  0  0  0  0  0  0  0  0  0  0  0
  149.4752  137.2110  153.4253 H   0  0  0  0  0  0  0  0  0  0  0  0
  147.4720  139.0939  154.7059 H   0  0  0  0  0  0  0  0  0  0  0  0
  148.1776  139.5185  153.1681 H   0  0  0  0  0  0  0  0  0  0  0  0
  147.1863  137.6200  152.1582 H   0  0  0  0  0  0  0  0  0  0  0  0
  145.4961  136.6739  151.8112 H   0  0  0  0  0  0  0  0  0  0  0  0
  143.0073  137.5600  154.2790 H   0  0  0  0  0  0  0  0  0  0  0  0
  140.8312  136.4065  154.5017 H   0  0  0  0  0  0  0  0  0  0  0  0
  140.4829  134.1965  153.2567 H   0  0  0  0  0  0  0  0  0  0  0  0
  145.9582  133.0048  152.5443 H   0  0  0  0  0  0  0  0  0  0  0  0
  144.2780  132.5023  152.7191 H   0  0  0  0  0  0  0  0  0  0  0  0
  146.1727  131.9834  150.4374 H   0  0  0  0  0  0  0  0  0  0  0  0
  144.9247  130.9108  151.0750 H   0  0  0  0  0  0  0  0  0  0  0  0
  144.4402  132.2487  148.7677 H   0  0  0  0  0  0  0  0  0  0  0  0
  143.1756  132.2084  150.0018 H   0  0  0  0  0  0  0  0  0  0  0  0
  143.4734  134.5877  149.6589 H   0  0  0  0  0  0  0  0  0  0  0  0
  145.2098  134.4179  149.5246 H   0  0  0  0  0  0  0  0  0  0  0  0
  151.6935  137.2351  155.0818 H   0  0  0  0  0  0  0  0  0  0  0  0
  151.8174  137.6066  153.3746 H   0  0  0  0  0  0  0  0  0  0  0  0
  153.8246  138.3656  154.5853 H   0  0  0  0  0  0  0  0  0  0  0  0
  152.9979  139.7035  153.8091 H   0  0  0  0  0  0  0  0  0  0  0  0
  151.5614  140.8381  156.9418 H   0  0  0  0  0  0  0  0  0  0  0  0
  151.6349  141.1874  155.2249 H   0  0  0  0  0  0  0  0  0  0  0  0
  149.5005  140.1209  155.7921 H   0  0  0  0  0  0  0  0  0  0  0  0
  150.3033  138.7566  156.5408 H   0  0  0  0  0  0  0  0  0  0  0  0
  142.2086  133.3566  151.9797 H   0  0  0  0  0  0  0  0  0  0  0  0
  1  2  1  0  0  0  0
  1 25  1  0  0  0  0
  1 26  1  0  0  0  0
  1 27  1  0  0  0  0
  2  3  1  0  0  0  0
  2 19  1  0  0  0  0
  2 28  1  0  0  0  0
  3  4  1  0  0  0  0
  3 29  1  0  0  0  0
  3 30  1  0  0  0  0
  4  5  1  0  0  0  0
  4 31  1  0  0  0  0
  5  6  2  0  0  0  0
  5  7  1  0  0  0  0
  7  8  1  0  0  0  0
  7 32  1  0  0  0  0
  8 13  1  0  0  0  0
  8  9  2  0  0  0  0
  9 10  1  0  0  0  0
  9 33  1  0  0  0  0
 10 11  2  0  0  0  0
 10 34  1  0  0  0  0
 11 12  1  0  0  0  0
 11 35  1  0  0  0  0
 12 13  2  0  0  0  0
 12 52  1  0  0  0  0
 13 14  1  0  0  0  0
 14 18  1  0  0  0  0
 14 15  1  0  0  0  0
 15 16  1  0  0  0  0
 15 36  1  0  0  0  0
 15 37  1  0  0  0  0
 16 17  1  0  0  0  0
 16 38  1  0  0  0  0
 16 39  1  0  0  0  0
 17 18  1  0  0  0  0
 17 40  1  0  0  0  0
 17 41  1  0  0  0  0
 18 42  1  0  0  0  0
 18 43  1  0  0  0  0
 19 24  1  0  0  0  0
 19 20  1  0  0  0  0
 20 21  1  0  0  0  0
 20 44  1  0  0  0  0
 20 45  1  0  0  0  0
 21 22  1  0  0  0  0
 21 46  1  0  0  0  0
 21 47  1  0  0  0  0
 22 23  1  0  0  0  0
 23 24  1  0  0  0  0
 23 48  1  0  0  0  0
 23 49  1  0  0  0  0
 24 50  1  0  0  0  0
 24 51  1  0  0  0  0
M  CHG  1  12   1
M  END
> <s_m_source_file>
AV-unprocessed.smi

> <i_m_source_file_index>
1389

> <i_lp_mmshare_version>
43012

> <i_f3d_flags>
0

> <s_epik_input>
W0NIMl0xW0NIMl1PW0NIMl1bQ0gyXU4xW0NASF0oW0NIM10pW0NIMl1bTkhdQyg9TylbTkhdYzJbY0hdW2NIXVtjSF1uYzJOM1tDSDJdW0NIMl1bQ0gyXVtDSDJdMw==

> <s_epik_cmdline>
J2VwaWtfcHl0aG9uJywgJy1waCcsICc3LjAnLCAnLXRuJywgJzgnLCAnLW1hJywgJzIwMCcsICctbWV0YWxfYmluZGluZycsICctaW1hZScsICc8aW5maWxlLm1hZT4nLCAnLW9tYWUnLCAnPG91dGZpbGUubWFlPic=

> <r_epik_Ionization_Penalty>
1.37675

> <r_epik_Ionization_Penalty_Charging>
1.11074

> <r_epik_Ionization_Penalty_Neutral>
0.26601

> <r_epik_State_Penalty>
1.46015

> <r_epik_Charging_Adjusted_Penalty>
2.57089

> <i_epik_Tot_Q>
1

> <i_epik_Tot_abs_Q>
1

> <r_epik_Metal_State_Penalty>
1.54223

> <b_epik_Metal_Only>
0

> <s_lp_Force_Field>
OPLS_2005

> <r_lp_Energy>
63.8734

> <b_lp_Chiralities_Consistent>
1

> <s_lp_Variant>
AV-unprocessed.smi:1389-6

> <Gold.Version>
5.8.1

> <Gold.Id.Protein>
6NUR|6NUR_protein|mol2

> <Gold.PLP.Fitness>
40.0251

> <Gold.PLP.PLP>
-37.6640

> <Gold.PLP.part.hbond>
-2.2685

> <Gold.PLP.part.metal>
0.0000

> <Gold.PLP.part.buried>
-4.7742

> <Gold.PLP.part.nonpolar>
-30.3049

> <Gold.PLP.part.repulsive>
0.4009

> <Gold.PLP.ligand.clash>
0.0000

> <Gold.PLP.ligand.torsion>
0.8761

> <Gold.PLP.Chemscore.Hbond>
1.3120

> <Gold.PLP.Chemscore.CHOScore>
0.0000

> <Gold.PLP.Chemscore.Metal>
0.0000

> <Gold.Chemscore.Hbonds>
donor molecule, donor type, donor heavy atom, donor atom, acceptor molecule, acceptor atom, score
      L1  H     4    31       P1  7948  0.15
      P1  H  7997  8008       L1    22  1.00

> <Gold.PLP.Chemscore.Internal.Correction>
0.1773

> <Gold.Rescore>
     Score         DG    S(hbond)    S(metal)    S(lipo)     H(rot)  DE(clash)    DE(int)     intcor
     14.48     -16.55       1.45        0.00      88.28       1.60       0.06       2.01       ----

> <Gold.Chemscore.Fitness>
14.4770

> <Gold.Chemscore.DG>
-16.5527

> <Gold.Chemscore.ZeroCoef>
-5.4800

> <Gold.Chemscore.Hbond>
1.4518

> <Gold.Chemscore.Metal>
0.0000

> <Gold.Chemscore.Lipo>
88.2785

> <Gold.Chemscore.Internal_Hbond>
0.0000

> <Gold.Chemscore.DEClash>
0.0617

> <Gold.Chemscore.DEInternal>
2.0141

> <Gold.Chemscore.Rot>
1.6035

> <Gold.Chemscore.Internal.Correction>
   9.000000E+99

> <Gold.Chemscore.Hbonds>
donor molecule, donor type, donor heavy atom, donor atom, acceptor molecule, acceptor atom, score
      L1  H     4    31       P1  7948  0.15
      P1  H  7997  8008       L1    22  0.45

> <Gold.Chemscore.Hbond.Weighted>
-4.8491

> <Gold.Chemscore.Metal.Weighted>
-0.0000

> <Gold.Chemscore.Lipo.Weighted>
-10.3286

> <Gold.Chemscore.Internal_Hbond.Weighted>
0.0000

> <Gold.Chemscore.DEClash.Weighted>
0.0617

> <Gold.Chemscore.DEInternal.Weighted>
2.0141

> <Gold.Chemscore.Rot.Weighted>
4.1049

> <Gold.Chemscore.Internal.Correction.Weighted>
   9.000000E+99

> <Gold.Protein.RotatedTorsions>
[ 6907 6896 6895 6894 ] final  165.75 input  -60.11 | X-H torsion
[ 7974 7965 7964 7962 ] final   76.63 input  175.53 | X-H torsion
[ 8008 7997 7996 7995 ] final  -34.26 input   59.86 | X-H torsion
[ 10167 10162 10161 10158 ] final   72.38 input  -65.29 | X-H torsion
[ 10718 10713 10712 10709 ] final  148.43 input   66.30 | X-H torsion
[ 10763 10752 10751 10750 ] final -143.08 input  -60.55 | X-H torsion
[ 11005 11000 10999 10996 ] final   88.24 input  -57.11 | X-H torsion

> <Gold.Protein.ActiveResidues>
 VAL166  LYS551  ARG553  GLY616  TRP617  ASP618  TYR619  PRO620  LYS621  CYS622 
 ASP623  PHE694  ASN695  SER759  ASP760  ASP761  ALA762  ILE779  LEU786  VAL792 
 PHE793  MET794  SER795  GLU796  ALA797  LYS798  CYS799  TRP800  GLU811  SER814 

> <Gold.Protein.RotatedAtoms>
  151.8896  133.3513  159.3793 H   0  0  0  0  0  0  0  0  0  0  0  0  # atno 6907 bound_to 6896
  150.7107  134.4937  159.5537 H   0  0  0  0  0  0  0  0  0  0  0  0  # atno 6908 bound_to 6896
  152.2505  134.8138  160.0497 H   0  0  0  0  0  0  0  0  0  0  0  0  # atno 6909 bound_to 6896
  145.7004  139.2581  143.1708 H   0  0  0  0  0  0  0  0  0  0  0  0  # atno 7974 bound_to 7965
  154.4126  140.1689  156.2020 H   0  0  0  0  0  0  0  0  0  0  0  0  # atno 8008 bound_to 7997
  155.9516  140.3400  155.6389 H   0  0  0  0  0  0  0  0  0  0  0  0  # atno 8009 bound_to 7997
  155.6863  140.0728  157.2456 H   0  0  0  0  0  0  0  0  0  0  0  0  # atno 8010 bound_to 7997
  140.0360  144.5428  150.7471 H   0  0  0  0  0  0  0  0  0  0  0  0  # atno 10167 bound_to 10162
  157.3087  131.0884  151.1333 H   0  0  0  0  0  0  0  0  0  0  0  0  # atno 10718 bound_to 10713
  154.8484  135.3478  154.6131 H   0  0  0  0  0  0  0  0  0  0  0  0  # atno 10763 bound_to 10752
  153.6740  135.6983  153.5143 H   0  0  0  0  0  0  0  0  0  0  0  0  # atno 10764 bound_to 10752
  153.2720  135.4290  155.0953 H   0  0  0  0  0  0  0  0  0  0  0  0  # atno 10765 bound_to 10752
  139.8901  134.8475  156.2973 H   0  0  0  0  0  0  0  0  0  0  0  0  # atno 11005 bound_to 11000
  146.0803  140.7772  142.9645 LP  0  0  0  0  0  0  0  0  0  0  0  0  # atno 17320 bound_to 7965
  144.6970  140.3478  143.7187 LP  0  0  0  0  0  0  0  0  0  0  0  0  # atno 17321 bound_to 7965
  140.7281  143.2659  151.4048 LP  0  0  0  0  0  0  0  0  0  0  0  0  # atno 17342 bound_to 10162
  139.6045  144.1226  152.2234 LP  0  0  0  0  0  0  0  0  0  0  0  0  # atno 17343 bound_to 10162
  157.2663  130.6683  149.5998 LP  0  0  0  0  0  0  0  0  0  0  0  0  # atno 17370 bound_to 10713
  155.9676  130.4493  150.5652 LP  0  0  0  0  0  0  0  0  0  0  0  0  # atno 17371 bound_to 10713
  140.9937  133.7193  156.0852 LP  0  0  0  0  0  0  0  0  0  0  0  0  # atno 17394 bound_to 11000
  140.7591  134.3959  157.5528 LP  0  0  0  0  0  0  0  0  0  0  0  0  # atno 17395 bound_to 11000

$$$$
