AV-unprocessed.smi:49|AV-procd|sdf|475|dock2
  -GOLD-   2262016343D 1   1.00000     0.00000
 Structure written by MMmdl.
 27 28  0  0  0  0  0  0  0  0  1 V2000
  153.3558  142.3701  161.0393 C   0  0  0  0  0  0  0  0  0  0  0  0
  152.6898  143.5953  160.4030 C   0  0  0  0  0  0  0  0  0  0  0  0
  151.7808  143.2237  159.2784 C   0  0  0  0  0  0  0  0  0  0  0  0
  151.5802  141.9291  158.8883 N   0  0  0  0  0  0  0  0  0  0  0  0
  150.7600  142.1168  157.8576 C   0  0  0  0  0  0  0  0  0  0  0  0
  150.1631  141.0386  157.0063 C   0  0  2  0  0  0  0  0  0  0  0  0
  150.5744  141.1673  155.5272 C   0  0  0  0  0  0  0  0  0  0  0  0
  149.2863  141.5673  154.8140 C   0  0  1  0  0  0  0  0  0  0  0  0
  149.2455  141.1389  153.4695 O   0  0  0  0  0  0  0  0  0  0  0  0
  148.2210  140.8950  155.6695 C   0  0  0  0  0  0  0  0  0  0  0  0
  148.6964  141.0583  157.0361 N   0  0  0  0  0  0  0  0  0  0  0  0
  150.4969  143.4083  157.6473 N   0  0  0  0  0  0  0  0  0  0  0  0
  151.1599  144.1548  158.5555 N   0  0  0  0  0  0  0  0  0  0  0  0
  150.5166  140.0772  157.3812 H   0  0  0  0  0  0  0  0  0  0  0  0
  149.1613  142.6506  154.8543 H   0  0  0  0  0  0  0  0  0  0  0  0
  149.9090  143.8065  156.9291 H   0  0  0  0  0  0  0  0  0  0  0  0
  154.0123  142.6658  161.8577 H   0  0  0  0  0  0  0  0  0  0  0  0
  153.9566  141.8248  160.3106 H   0  0  0  0  0  0  0  0  0  0  0  0
  152.6106  141.6830  161.4413 H   0  0  0  0  0  0  0  0  0  0  0  0
  152.1192  144.1386  161.1570 H   0  0  0  0  0  0  0  0  0  0  0  0
  153.4526  144.2839  160.0373 H   0  0  0  0  0  0  0  0  0  0  0  0
  151.3886  141.8734  155.3568 H   0  0  0  0  0  0  0  0  0  0  0  0
  150.9078  140.1922  155.1685 H   0  0  0  0  0  0  0  0  0  0  0  0
  148.4263  140.6913  153.3222 H   0  0  0  0  0  0  0  0  0  0  0  0
  147.2300  141.3266  155.5267 H   0  0  0  0  0  0  0  0  0  0  0  0
  148.1627  139.8331  155.4259 H   0  0  0  0  0  0  0  0  0  0  0  0
  148.3496  140.2882  157.5988 H   0  0  0  0  0  0  0  0  0  0  0  0
  1  2  1  0  0  0  0
  1 17  1  0  0  0  0
  1 18  1  0  0  0  0
  1 19  1  0  0  0  0
  2 20  1  0  0  0  0
  2 21  1  0  0  0  0
  2  3  1  0  0  0  0
  3  4  1  0  0  0  0
  3 13  2  0  0  0  0
  4  5  2  0  0  0  0
  5  6  1  0  0  0  0
  5 12  1  0  0  0  0
  6 14  1  0  0  0  0
  6 11  1  0  0  0  0
  6  7  1  0  0  0  0
  7  8  1  0  0  0  0
  7 22  1  0  0  0  0
  7 23  1  0  0  0  0
  8 15  1  0  0  0  0
  8  9  1  0  0  0  0
  8 10  1  0  0  0  0
  9 24  1  0  0  0  0
 10 11  1  0  0  0  0
 10 25  1  0  0  0  0
 10 26  1  0  0  0  0
 11 27  1  0  0  0  0
 12 13  1  0  0  0  0
 12 16  1  0  0  0  0
M  END
> <s_m_source_file>
AV-unprocessed.smi

> <i_m_source_file_index>
49

> <i_lp_mmshare_version>
43012

> <i_f3d_flags>
0

> <s_epik_input>
W0NIM11bQ0gyXWMxbmMobltuSF0xKVtDQEBIXTJbQ0gyXVtDQEBIXShbT0hdKVtDSDJdW05IXTI=

> <s_epik_cmdline>
J2VwaWtfcHl0aG9uJywgJy1waCcsICc3LjAnLCAnLXRuJywgJzgnLCAnLW1hJywgJzIwMCcsICctbWV0YWxfYmluZGluZycsICctaW1hZScsICc8aW5maWxlLm1hZT4nLCAnLW9tYWUnLCAnPG91dGZpbGUubWFlPic=

> <r_epik_Ionization_Penalty>
1.31544

> <r_epik_Ionization_Penalty_Charging>
0

> <r_epik_Ionization_Penalty_Neutral>
1.31544

> <r_epik_State_Penalty>
2.06074

> <r_epik_Charging_Adjusted_Penalty>
2.06074

> <i_epik_Tot_Q>
0

> <i_epik_Tot_abs_Q>
0

> <r_epik_Metal_State_Penalty>
2.32913

> <b_epik_Metal_Only>
0

> <s_lp_Force_Field>
OPLS_2005

> <r_lp_Energy>
18.0734

> <b_lp_Chiralities_Consistent>
1

> <s_lp_Variant>
AV-unprocessed.smi:49-13

> <Gold.Version>
5.8.1

> <Gold.Id.Protein>
6NUR|6NUR_protein|mol2

> <Gold.PLP.Fitness>
33.8727

> <Gold.PLP.PLP>
-27.2857

> <Gold.PLP.part.hbond>
-3.7454

> <Gold.PLP.part.metal>
0.0000

> <Gold.PLP.part.buried>
-4.6427

> <Gold.PLP.part.nonpolar>
-19.4045

> <Gold.PLP.part.repulsive>
0.1186

> <Gold.PLP.ligand.clash>
0.0000

> <Gold.PLP.ligand.torsion>
0.0076

> <Gold.PLP.Chemscore.Hbond>
2.1991

> <Gold.PLP.Chemscore.CHOScore>
0.0000

> <Gold.PLP.Chemscore.Metal>
0.0000

> <Gold.Chemscore.Hbonds>
donor molecule, donor type, donor heavy atom, donor atom, acceptor molecule, acceptor atom, score
      L1  H    12    16       P1  8028  1.00
      P1  H  7989  7998       L1     9  0.02
      P1  H  8011  8017       L1     9  1.00

> <Gold.PLP.Chemscore.Internal.Correction>
0.0050

> <Gold.Rescore>
     Score         DG    S(hbond)    S(metal)    S(lipo)     H(rot)  DE(clash)    DE(int)     intcor
     12.53     -12.68       1.88        0.00      48.54       1.86       0.13       0.02       ----

> <Gold.Chemscore.Fitness>
12.5254

> <Gold.Chemscore.DG>
-12.6764

> <Gold.Chemscore.ZeroCoef>
-5.4800

> <Gold.Chemscore.Hbond>
1.8766

> <Gold.Chemscore.Metal>
0.0000

> <Gold.Chemscore.Lipo>
48.5396

> <Gold.Chemscore.Internal_Hbond>
0.0000

> <Gold.Chemscore.DEClash>
0.1292

> <Gold.Chemscore.DEInternal>
0.0218

> <Gold.Chemscore.Rot>
1.8558

> <Gold.Chemscore.Internal.Correction>
   9.000000E+99

> <Gold.Chemscore.Hbonds>
donor molecule, donor type, donor heavy atom, donor atom, acceptor molecule, acceptor atom, score
      L1  H    12    16       P1  8028  0.98
      P1  H  8011  8017       L1     9  0.77

> <Gold.Chemscore.Hbond.Weighted>
-6.2680

> <Gold.Chemscore.Metal.Weighted>
-0.0000

> <Gold.Chemscore.Lipo.Weighted>
-5.6791

> <Gold.Chemscore.Internal_Hbond.Weighted>
0.0000

> <Gold.Chemscore.DEClash.Weighted>
0.1292

> <Gold.Chemscore.DEInternal.Weighted>
0.0218

> <Gold.Chemscore.Rot.Weighted>
4.7507

> <Gold.Chemscore.Internal.Correction.Weighted>
   9.000000E+99

> <Gold.Protein.RotatedTorsions>
[ 6907 6896 6895 6894 ] final  -63.22 input  -60.11 | X-H torsion
[ 7974 7965 7964 7962 ] final  -97.10 input  175.53 | X-H torsion
[ 8008 7997 7996 7995 ] final -133.85 input   59.86 | X-H torsion
[ 10167 10162 10161 10158 ] final  169.51 input  -65.29 | X-H torsion
[ 10718 10713 10712 10709 ] final   39.94 input   66.30 | X-H torsion
[ 10763 10752 10751 10750 ] final -179.33 input  -60.55 | X-H torsion
[ 11005 11000 10999 10996 ] final  -43.18 input  -57.11 | X-H torsion

> <Gold.Protein.ActiveResidues>
 VAL166  LYS551  ARG553  GLY616  TRP617  ASP618  TYR619  PRO620  LYS621  CYS622 
 ASP623  PHE694  ASN695  SER759  ASP760  ASP761  ALA762  ILE779  LEU786  VAL792 
 PHE793  MET794  SER795  GLU796  ALA797  LYS798  CYS799  TRP800  GLU811  SER814 

> <Gold.Protein.RotatedAtoms>
  150.7664  134.6465  159.6264 H   0  0  0  0  0  0  0  0  0  0  0  0  # atno 6907 bound_to 6896
  152.3697  134.6749  160.0189 H   0  0  0  0  0  0  0  0  0  0  0  0  # atno 6908 bound_to 6896
  151.7113  133.3276  159.3328 H   0  0  0  0  0  0  0  0  0  0  0  0  # atno 6909 bound_to 6896
  145.3382  140.9455  143.2623 H   0  0  0  0  0  0  0  0  0  0  0  0  # atno 7974 bound_to 7965
  155.3523  140.0478  157.3046 H   0  0  0  0  0  0  0  0  0  0  0  0  # atno 8008 bound_to 7997
  154.5220  140.2228  155.8922 H   0  0  0  0  0  0  0  0  0  0  0  0  # atno 8009 bound_to 7997
  156.1700  140.3098  155.8962 H   0  0  0  0  0  0  0  0  0  0  0  0  # atno 8010 bound_to 7997
  139.4994  144.3698  151.9737 H   0  0  0  0  0  0  0  0  0  0  0  0  # atno 10167 bound_to 10162
  157.3764  130.7729  149.7159 H   0  0  0  0  0  0  0  0  0  0  0  0  # atno 10718 bound_to 10713
  154.5365  135.2803  155.1134 H   0  0  0  0  0  0  0  0  0  0  0  0  # atno 10763 bound_to 10752
  154.2633  135.6317  153.5286 H   0  0  0  0  0  0  0  0  0  0  0  0  # atno 10764 bound_to 10752
  152.9969  135.5611  154.5892 H   0  0  0  0  0  0  0  0  0  0  0  0  # atno 10765 bound_to 10752
  141.0366  133.6797  156.2697 H   0  0  0  0  0  0  0  0  0  0  0  0  # atno 11005 bound_to 11000
  144.8811  139.4903  143.6722 LP  0  0  0  0  0  0  0  0  0  0  0  0  # atno 17320 bound_to 7965
  146.3018  139.7451  142.9085 LP  0  0  0  0  0  0  0  0  0  0  0  0  # atno 17321 bound_to 7965
  140.3134  144.3512  150.6028 LP  0  0  0  0  0  0  0  0  0  0  0  0  # atno 17342 bound_to 10162
  140.5781  143.2175  151.7479 LP  0  0  0  0  0  0  0  0  0  0  0  0  # atno 17343 bound_to 10162
  155.9766  130.4073  150.3767 LP  0  0  0  0  0  0  0  0  0  0  0  0  # atno 17370 bound_to 10713
  157.1865  131.0405  151.2722 LP  0  0  0  0  0  0  0  0  0  0  0  0  # atno 17371 bound_to 10713
  140.6311  134.5263  157.5559 LP  0  0  0  0  0  0  0  0  0  0  0  0  # atno 17394 bound_to 11000
  139.9245  134.8083  156.1110 LP  0  0  0  0  0  0  0  0  0  0  0  0  # atno 17395 bound_to 11000

$$$$
