AV-unprocessed.smi:217|AV-procd|sdf|1660|dock10
  -GOLD-   2262020 53D 1   1.00000     0.00000
 Structure written by MMmdl.
 57 61  0  0  0  0  0  0  0  0  1 V2000
  146.4827  132.1992  151.0597 O   0  0  0  0  0  0  0  0  0  0  0  0
  146.3684  133.5487  150.6577 C   0  0  0  0  0  0  0  0  0  0  0  0
  145.4984  134.3507  151.6394 C   0  0  0  0  0  0  0  0  0  0  0  0
  144.0736  133.7601  151.6581 C   0  0  0  0  0  0  0  0  0  0  0  0
  143.5406  133.6482  150.3539 O   0  0  0  0  0  0  0  0  0  0  0  0
  146.1248  134.6027  153.0295 C   0  0  0  0  0  0  0  0  0  0  0  0
  145.5948  136.0377  153.0003 C   0  0  0  0  0  0  0  0  0  0  0  0
  146.3128  137.1054  153.6322 N   0  0  0  0  0  0  0  0  0  0  0  0
  145.9662  138.4385  153.6465 C   0  0  0  0  0  0  0  0  0  0  0  0
  146.7587  139.2138  154.3359 N   0  0  0  0  0  0  0  0  0  0  0  0
  147.7001  138.3423  154.8673 C   0  0  0  0  0  0  0  0  0  0  0  0
  148.8242  138.5035  155.7183 C   0  0  0  0  0  0  0  0  0  0  0  0
  149.1920  139.7118  156.1950 N   0  0  0  0  0  0  0  0  0  0  0  0
  150.4800  140.1693  155.6837 C   0  0  0  0  0  0  0  0  0  0  0  0
  150.7284  141.6364  156.0712 C   0  0  0  0  0  0  0  0  0  0  0  0
  150.6095  141.8482  157.5963 C   0  0  0  0  0  0  0  0  0  0  0  0
  150.7954  143.3267  157.9951 C   0  0  2  0  0  0  0  0  0  0  0  0
  152.1333  143.9414  157.5826 C   0  0  0  0  0  0  0  0  0  0  0  0
  152.2442  145.1015  158.5449 C   0  0  0  0  0  0  0  0  0  0  0  0
  151.6599  144.5098  159.8244 C   0  0  0  0  0  0  0  0  0  0  0  0
  150.7749  143.4698  159.4136 O   0  0  0  0  0  0  0  0  0  0  0  0
  149.2450  141.3068  158.0727 C   0  0  0  0  0  0  0  0  0  0  0  0
  149.0356  139.8469  157.6400 C   0  0  0  0  0  0  0  0  0  0  0  0
  149.5360  137.3953  156.0540 N   0  0  0  0  0  0  0  0  0  0  0  0
  149.1639  136.1993  155.5873 C   0  0  0  0  0  0  0  0  0  0  0  0
  148.1379  135.8968  154.7879 N   0  0  0  0  0  0  0  0  0  0  0  0
  147.4285  137.0111  154.4460 C   0  0  0  0  0  0  0  0  0  0  0  0
  145.5714  135.8854  151.4776 C   0  0  0  0  0  0  0  0  0  0  0  0
  147.3839  131.9316  150.9623 H   0  0  0  0  0  0  0  0  0  0  0  0
  147.3663  133.9765  150.5612 H   0  0  0  0  0  0  0  0  0  0  0  0
  145.9342  133.5615  149.6577 H   0  0  0  0  0  0  0  0  0  0  0  0
  144.0656  132.7655  152.1038 H   0  0  0  0  0  0  0  0  0  0  0  0
  143.3975  134.3647  152.2627 H   0  0  0  0  0  0  0  0  0  0  0  0
  142.7300  134.1321  150.3180 H   0  0  0  0  0  0  0  0  0  0  0  0
  145.7212  133.9925  153.8380 H   0  0  0  0  0  0  0  0  0  0  0  0
  147.2157  134.5630  153.0210 H   0  0  0  0  0  0  0  0  0  0  0  0
  144.5801  136.0817  153.3993 H   0  0  0  0  0  0  0  0  0  0  0  0
  145.1037  138.8230  153.1215 H   0  0  0  0  0  0  0  0  0  0  0  0
  151.2760  139.5403  156.0855 H   0  0  0  0  0  0  0  0  0  0  0  0
  150.5063  140.0638  154.5982 H   0  0  0  0  0  0  0  0  0  0  0  0
  151.7161  141.9348  155.7202 H   0  0  0  0  0  0  0  0  0  0  0  0
  150.0100  142.2740  155.5540 H   0  0  0  0  0  0  0  0  0  0  0  0
  151.3929  141.2640  158.0816 H   0  0  0  0  0  0  0  0  0  0  0  0
  149.9841  143.9318  157.5872 H   0  0  0  0  0  0  0  0  0  0  0  0
  152.9498  143.2372  157.7490 H   0  0  0  0  0  0  0  0  0  0  0  0
  152.1557  144.2545  156.5385 H   0  0  0  0  0  0  0  0  0  0  0  0
  153.2655  145.4628  158.6683 H   0  0  0  0  0  0  0  0  0  0  0  0
  151.6264  145.9316  158.1994 H   0  0  0  0  0  0  0  0  0  0  0  0
  152.4467  144.0706  160.4388 H   0  0  0  0  0  0  0  0  0  0  0  0
  151.1407  145.2585  160.4233 H   0  0  0  0  0  0  0  0  0  0  0  0
  149.1675  141.3762  159.1580 H   0  0  0  0  0  0  0  0  0  0  0  0
  148.4417  141.9227  157.6659 H   0  0  0  0  0  0  0  0  0  0  0  0
  148.0406  139.5120  157.9368 H   0  0  0  0  0  0  0  0  0  0  0  0
  149.7552  139.2038  158.1490 H   0  0  0  0  0  0  0  0  0  0  0  0
  149.7757  135.3654  155.8982 H   0  0  0  0  0  0  0  0  0  0  0  0
  146.4995  136.2187  151.0093 H   0  0  0  0  0  0  0  0  0  0  0  0
  144.7056  136.3364  150.9915 H   0  0  0  0  0  0  0  0  0  0  0  0
  1  2  1  0  0  0  0
  1 29  1  0  0  0  0
  2  3  1  0  0  0  0
  2 30  1  0  0  0  0
  2 31  1  0  0  0  0
  3 28  1  0  0  0  0
  3  4  1  0  0  0  0
  3  6  1  0  0  0  0
  4  5  1  0  0  0  0
  4 32  1  0  0  0  0
  4 33  1  0  0  0  0
  5 34  1  0  0  0  0
  6  7  1  0  0  0  0
  6 35  1  0  0  0  0
  6 36  1  0  0  0  0
  7  8  1  0  0  0  0
  7 28  1  0  0  0  0
  7 37  1  0  0  0  0
  8 27  1  0  0  0  0
  8  9  1  0  0  0  0
  9 10  2  0  0  0  0
  9 38  1  0  0  0  0
 10 11  1  0  0  0  0
 11 27  2  0  0  0  0
 11 12  1  0  0  0  0
 12 13  1  0  0  0  0
 12 24  2  0  0  0  0
 13 23  1  0  0  0  0
 13 14  1  0  0  0  0
 14 15  1  0  0  0  0
 14 39  1  0  0  0  0
 14 40  1  0  0  0  0
 15 16  1  0  0  0  0
 15 41  1  0  0  0  0
 15 42  1  0  0  0  0
 16 17  1  0  0  0  0
 16 22  1  0  0  0  0
 16 43  1  0  0  0  0
 17 21  1  0  0  0  0
 17 18  1  0  0  0  0
 17 44  1  0  0  0  0
 18 19  1  0  0  0  0
 18 45  1  0  0  0  0
 18 46  1  0  0  0  0
 19 20  1  0  0  0  0
 19 47  1  0  0  0  0
 19 48  1  0  0  0  0
 20 21  1  0  0  0  0
 20 49  1  0  0  0  0
 20 50  1  0  0  0  0
 22 23  1  0  0  0  0
 22 51  1  0  0  0  0
 22 52  1  0  0  0  0
 23 53  1  0  0  0  0
 23 54  1  0  0  0  0
 24 25  1  0  0  0  0
 25 26  2  0  0  0  0
 25 55  1  0  0  0  0
 26 27  1  0  0  0  0
 28 56  1  0  0  0  0
 28 57  1  0  0  0  0
M  END
> <s_m_source_file>
AV-unprocessed.smi

> <i_m_source_file_index>
217

> <i_lp_mmshare_version>
43012

> <i_f3d_flags>
0

> <s_epik_input>
W09IXVtDSDJdQzEoW0NIMl1bT0hdKVtDSDJdW0NIXShbQ0gyXTEpbihbY0hdbjIpYyhjMjMpbltjSF1uYzNONFtDSDJdW0NIMl1bQ0hdKFtDSDJdW0NIMl00KVtDQEBIXTVbQ0gyXVtDSDJdW0NIMl1PNQ==

> <s_epik_cmdline>
J2VwaWtfcHl0aG9uJywgJy1waCcsICc3LjAnLCAnLXRuJywgJzgnLCAnLW1hJywgJzIwMCcsICctbWV0YWxfYmluZGluZycsICctaW1hZScsICc8aW5maWxlLm1hZT4nLCAnLW9tYWUnLCAnPG91dGZpbGUubWFlPic=

> <r_lp_tautomer_probability>
1

> <r_epik_Ionization_Penalty>
0.0037022

> <r_epik_Ionization_Penalty_Charging>
0

> <r_epik_Ionization_Penalty_Neutral>
0.0037022

> <r_epik_State_Penalty>
0.00257654

> <r_epik_Charging_Adjusted_Penalty>
0.00257654

> <i_epik_Tot_Q>
0

> <i_epik_Tot_abs_Q>
0

> <r_epik_Metal_State_Penalty>
-0

> <b_epik_Metal_Only>
0

> <s_lp_Force_Field>
OPLS_2005

> <r_lp_Energy>
56.6597

> <b_lp_Chiralities_Consistent>
1

> <s_lp_Variant>
AV-unprocessed.smi:217-1

> <Gold.Version>
5.8.1

> <Gold.Id.Protein>
6NUR|6NUR_protein|mol2

> <Gold.PLP.Fitness>
47.6755

> <Gold.PLP.PLP>
-38.7419

> <Gold.PLP.part.hbond>
-2.0000

> <Gold.PLP.part.metal>
0.0000

> <Gold.PLP.part.buried>
-7.0518

> <Gold.PLP.part.nonpolar>
-31.0741

> <Gold.PLP.part.repulsive>
0.5519

> <Gold.PLP.ligand.clash>
0.0000

> <Gold.PLP.ligand.torsion>
0.3842

> <Gold.PLP.Chemscore.Hbond>
2.0000

> <Gold.PLP.Chemscore.CHOScore>
1.0000

> <Gold.PLP.Chemscore.Metal>
0.0000

> <Gold.Chemscore.Hbonds>
donor molecule, donor type, donor heavy atom, donor atom, acceptor molecule, acceptor atom, score
      L1  H     1    29       P1 10747  0.98
      L1  H     5    34       P1 10186  1.00
      L1  C     9    38       P1 10175  1.00

> <Gold.PLP.Chemscore.Internal.Correction>
0.7021

> <Gold.Rescore>
     Score         DG    S(hbond)    S(metal)    S(lipo)     H(rot)  DE(clash)    DE(int)     intcor
     13.18     -14.99       1.92        0.00      98.24       3.28       0.23       1.58       ----

> <Gold.Chemscore.Fitness>
13.1799

> <Gold.Chemscore.DG>
-14.9871

> <Gold.Chemscore.ZeroCoef>
-5.4800

> <Gold.Chemscore.Hbond>
1.9227

> <Gold.Chemscore.Metal>
0.0000

> <Gold.Chemscore.Lipo>
98.2448

> <Gold.Chemscore.Internal_Hbond>
0.0000

> <Gold.Chemscore.DEClash>
0.2310

> <Gold.Chemscore.DEInternal>
1.5762

> <Gold.Chemscore.Rot>
3.2848

> <Gold.Chemscore.Internal.Correction>
   9.000000E+99

> <Gold.Chemscore.Hbonds>
donor molecule, donor type, donor heavy atom, donor atom, acceptor molecule, acceptor atom, score
      L1  H     1    29       P1 10747  0.90
      L1  H     5    34       P1 10186  0.86

> <Gold.Chemscore.Hbond.Weighted>
-6.4217

> <Gold.Chemscore.Metal.Weighted>
-0.0000

> <Gold.Chemscore.Lipo.Weighted>
-11.4946

> <Gold.Chemscore.Internal_Hbond.Weighted>
0.0000

> <Gold.Chemscore.DEClash.Weighted>
0.2310

> <Gold.Chemscore.DEInternal.Weighted>
1.5762

> <Gold.Chemscore.Rot.Weighted>
8.4092

> <Gold.Chemscore.Internal.Correction.Weighted>
   9.000000E+99

> <Gold.Protein.RotatedTorsions>
[ 6907 6896 6895 6894 ] final  105.13 input  -60.11 | X-H torsion
[ 7974 7965 7964 7962 ] final -121.37 input  175.53 | X-H torsion
[ 8008 7997 7996 7995 ] final   -9.34 input   59.86 | X-H torsion
[ 10167 10162 10161 10158 ] final  103.62 input  -65.29 | X-H torsion
[ 10718 10713 10712 10709 ] final -107.49 input   66.30 | X-H torsion
[ 10763 10752 10751 10750 ] final   35.35 input  -60.55 | X-H torsion
[ 11005 11000 10999 10996 ] final  -11.90 input  -57.11 | X-H torsion

> <Gold.Protein.ActiveResidues>
 VAL166  LYS551  ARG553  GLY616  TRP617  ASP618  TYR619  PRO620  LYS621  CYS622 
 ASP623  PHE694  ASN695  SER759  ASP760  ASP761  ALA762  ILE779  LEU786  VAL792 
 PHE793  MET794  SER795  GLU796  ALA797  LYS798  CYS799  TRP800  GLU811  SER814 

> <Gold.Protein.RotatedAtoms>
  152.5241  133.9574  159.7700 H   0  0  0  0  0  0  0  0  0  0  0  0  # atno 6907 bound_to 6896
  150.9872  133.6178  159.2720 H   0  0  0  0  0  0  0  0  0  0  0  0  # atno 6908 bound_to 6896
  151.3334  135.0853  159.9399 H   0  0  0  0  0  0  0  0  0  0  0  0  # atno 6909 bound_to 6896
  145.0411  140.8145  143.4266 H   0  0  0  0  0  0  0  0  0  0  0  0  # atno 7974 bound_to 7965
  154.5656  140.2357  155.8269 H   0  0  0  0  0  0  0  0  0  0  0  0  # atno 8008 bound_to 7997
  156.2065  140.3038  155.9597 H   0  0  0  0  0  0  0  0  0  0  0  0  # atno 8009 bound_to 7997
  155.2808  140.0422  157.3006 H   0  0  0  0  0  0  0  0  0  0  0  0  # atno 8010 bound_to 7997
  139.7247  144.7050  151.0817 H   0  0  0  0  0  0  0  0  0  0  0  0  # atno 10167 bound_to 10162
  156.0439  130.5665  150.7829 H   0  0  0  0  0  0  0  0  0  0  0  0  # atno 10718 bound_to 10713
  153.0123  135.6335  154.1813 H   0  0  0  0  0  0  0  0  0  0  0  0  # atno 10763 bound_to 10752
  154.1554  135.2826  155.3125 H   0  0  0  0  0  0  0  0  0  0  0  0  # atno 10764 bound_to 10752
  154.6022  135.5584  153.7446 H   0  0  0  0  0  0  0  0  0  0  0  0  # atno 10765 bound_to 10752
  140.7601  133.8522  155.9117 H   0  0  0  0  0  0  0  0  0  0  0  0  # atno 11005 bound_to 11000
  145.1647  139.2438  143.5373 LP  0  0  0  0  0  0  0  0  0  0  0  0  # atno 17320 bound_to 7965
  146.3509  140.1383  142.8595 LP  0  0  0  0  0  0  0  0  0  0  0  0  # atno 17321 bound_to 7965
  140.7760  143.5120  150.9640 LP  0  0  0  0  0  0  0  0  0  0  0  0  # atno 17342 bound_to 10162
  139.8808  143.7074  152.3157 LP  0  0  0  0  0  0  0  0  0  0  0  0  # atno 17343 bound_to 10162
  157.5292  131.0935  150.9978 LP  0  0  0  0  0  0  0  0  0  0  0  0  # atno 17370 bound_to 10713
  157.0288  130.5703  149.5340 LP  0  0  0  0  0  0  0  0  0  0  0  0  # atno 17371 bound_to 10713
  140.9671  134.1580  157.4607 LP  0  0  0  0  0  0  0  0  0  0  0  0  # atno 17394 bound_to 11000
  139.8772  134.9965  156.5800 LP  0  0  0  0  0  0  0  0  0  0  0  0  # atno 17395 bound_to 11000

$$$$
