AV-unprocessed.smi:2189|AV-procd|sdf|8886|dock10
  -GOLD-   2272012 83D 1   1.00000     0.00000
 Structure written by MMmdl.
 38 40  0  0  0  0  0  0  0  0  2 V2000
  151.9078  144.4556  158.2938 O   0  0  0  0  0  0  0  0  0  0  0  0
  151.8783  143.2736  158.6608 C   0  0  0  0  0  0  0  0  0  0  0  0
  151.3166  142.2429  157.9571 N   0  5  0  0  0  0  0  0  0  0  0  0
  151.0021  142.2567  156.5255 C   0  0  0  0  0  0  0  0  0  0  0  0
  150.8330  140.8116  155.9995 C   0  0  0  0  0  0  0  0  0  0  0  0
  149.5956  140.5756  155.1347 C   0  0  0  0  0  0  0  0  0  0  0  0
  148.6832  141.6266  154.8865 C   0  0  0  0  0  0  0  0  0  0  0  0
  147.5582  141.3696  154.0804 C   0  0  0  0  0  0  0  0  0  0  0  0
  147.3781  140.0737  153.5612 C   0  0  0  0  0  0  0  0  0  0  0  0
  148.3344  139.0880  153.8756 C   0  0  0  0  0  0  0  0  0  0  0  0
  149.4167  139.3229  154.6479 N   0  0  0  0  0  0  0  0  0  0  0  0
  152.4625  142.9183  159.9680 C   0  0  0  0  0  0  0  0  0  0  0  0
  152.3009  143.7823  161.0046 C   0  0  0  0  0  0  0  0  0  0  0  0
  152.8297  143.5051  162.3168 C   0  0  0  0  0  0  0  0  0  0  0  0
  153.5225  142.3743  162.4877 C   0  0  0  0  0  0  0  0  0  0  0  0
  153.7552  141.4586  161.4628 N   0  0  0  0  0  0  0  0  0  0  0  0
  154.6158  140.3227  161.7744 C   0  0  0  0  0  0  0  0  0  0  0  0
  154.0677  139.0558  161.1440 C   0  0  0  0  0  0  0  0  0  0  0  0
  154.1343  139.3291  159.3375 S   0  0  0  0  0  0  0  0  0  0  0  0
  155.5376  139.5658  158.9641 O   0  0  0  0  0  0  0  0  0  0  0  0
  153.3872  138.2436  158.6840 O   0  0  0  0  0  0  0  0  0  0  0  0
  153.2806  140.7646  159.2152 N   0  0  0  0  0  0  0  0  0  0  0  0
  153.1959  141.6506  160.1675 C   0  0  0  0  0  0  0  0  0  0  0  0
  150.0994  142.8229  156.2923 H   0  0  0  0  0  0  0  0  0  0  0  0
  151.8010  142.7385  155.9611 H   0  0  0  0  0  0  0  0  0  0  0  0
  151.7124  140.5450  155.4124 H   0  0  0  0  0  0  0  0  0  0  0  0
  150.8187  140.1136  156.8378 H   0  0  0  0  0  0  0  0  0  0  0  0
  148.8521  142.6120  155.2950 H   0  0  0  0  0  0  0  0  0  0  0  0
  146.8473  142.1531  153.8638 H   0  0  0  0  0  0  0  0  0  0  0  0
  146.5280  139.8406  152.9377 H   0  0  0  0  0  0  0  0  0  0  0  0
  148.2261  138.0823  153.4970 H   0  0  0  0  0  0  0  0  0  0  0  0
  151.7751  144.7168  160.8720 H   0  0  0  0  0  0  0  0  0  0  0  0
  152.6707  144.1907  163.1355 H   0  0  0  0  0  0  0  0  0  0  0  0
  153.9448  142.1114  163.4466 H   0  0  0  0  0  0  0  0  0  0  0  0
  155.6266  140.5287  161.4212 H   0  0  0  0  0  0  0  0  0  0  0  0
  154.6862  140.1760  162.8524 H   0  0  0  0  0  0  0  0  0  0  0  0
  154.6747  138.1849  161.3895 H   0  0  0  0  0  0  0  0  0  0  0  0
  153.0376  138.8597  161.4440 H   0  0  0  0  0  0  0  0  0  0  0  0
  1  2  2  0  0  0  0
  2  3  1  0  0  0  0
  2 12  1  0  0  0  0
  3  4  1  0  0  0  0
  4  5  1  0  0  0  0
  4 24  1  0  0  0  0
  4 25  1  0  0  0  0
  5  6  1  0  0  0  0
  5 26  1  0  0  0  0
  5 27  1  0  0  0  0
  6 11  1  0  0  0  0
  6  7  2  0  0  0  0
  7  8  1  0  0  0  0
  7 28  1  0  0  0  0
  8  9  2  0  0  0  0
  8 29  1  0  0  0  0
  9 10  1  0  0  0  0
  9 30  1  0  0  0  0
 10 11  2  0  0  0  0
 10 31  1  0  0  0  0
 12 23  1  0  0  0  0
 12 13  2  0  0  0  0
 13 14  1  0  0  0  0
 13 32  1  0  0  0  0
 14 15  2  0  0  0  0
 14 33  1  0  0  0  0
 15 16  1  0  0  0  0
 15 34  1  0  0  0  0
 16 23  1  0  0  0  0
 16 17  1  0  0  0  0
 17 18  1  0  0  0  0
 17 35  1  0  0  0  0
 17 36  1  0  0  0  0
 18 19  1  0  0  0  0
 18 37  1  0  0  0  0
 18 38  1  0  0  0  0
 19 20  2  0  0  0  0
 19 21  2  0  0  0  0
 19 22  1  0  0  0  0
 22 23  2  0  0  0  0
M  CHG  1   3  -1
M  END
> <s_m_source_file>
AV-unprocessed.smi

> <i_m_source_file_index>
2189

> <i_lp_mmshare_version>
43012

> <i_f3d_flags>
0

> <s_epik_input>
W0NIMl0xW0NIMl1TKD1PKSg9TylOPUMoTjEyKUMoPVtDSF1bQ0hdPVtDSF0yKUMoPU8pW05IXVtDSDJdW0NIMl1jM1tjSF1bY0hdW2NIXVtjSF1uMw==

> <s_epik_cmdline>
J2VwaWtfcHl0aG9uJywgJy1waCcsICc3LjAnLCAnLXRuJywgJzgnLCAnLW1hJywgJzIwMCcsICctbWV0YWxfYmluZGluZycsICctaW1hZScsICc8aW5maWxlLm1hZT4nLCAnLW9tYWUnLCAnPG91dGZpbGUubWFlPic=

> <r_epik_Ionization_Penalty>
5.6695

> <r_epik_Ionization_Penalty_Charging>
5.5942

> <r_epik_Ionization_Penalty_Neutral>
0.0753022

> <r_epik_State_Penalty>
5.60818

> <r_epik_Charging_Adjusted_Penalty>
11.2024

> <i_epik_Tot_Q>
-1

> <i_epik_Tot_abs_Q>
1

> <r_epik_Metal_State_Penalty>
1.61782

> <b_epik_Metal_Only>
1

> <s_lp_Force_Field>
OPLS_2005

> <r_lp_Energy>
39.8175

> <b_lp_Chiralities_Consistent>
1

> <s_lp_Variant>
AV-unprocessed.smi:2189-3

> <Gold.Version>
5.8.1

> <Gold.Id.Protein>
6NUR|6NUR_protein|mol2

> <Gold.PLP.Fitness>
54.9834

> <Gold.PLP.PLP>
-50.8114

> <Gold.PLP.part.hbond>
-1.0000

> <Gold.PLP.part.metal>
0.0000

> <Gold.PLP.part.buried>
-4.4588

> <Gold.PLP.part.nonpolar>
-45.0024

> <Gold.PLP.part.repulsive>
0.2579

> <Gold.PLP.ligand.clash>
0.0000

> <Gold.PLP.ligand.torsion>
1.1076

> <Gold.PLP.Chemscore.Hbond>
1.0000

> <Gold.PLP.Chemscore.CHOScore>
0.9888

> <Gold.PLP.Chemscore.Metal>
0.0000

> <Gold.Chemscore.Hbonds>
donor molecule, donor type, donor heavy atom, donor atom, acceptor molecule, acceptor atom, score
      P1  H  7997  8010       L1    20  1.00
      L1  C    10    31       P1  7948  0.92

> <Gold.PLP.Chemscore.Internal.Correction>
0.4206

> <Gold.Rescore>
     Score         DG    S(hbond)    S(metal)    S(lipo)     H(rot)  DE(clash)    DE(int)     intcor
     15.44     -18.00       0.93        0.00     111.97       1.44       0.03       2.53       ----

> <Gold.Chemscore.Fitness>
15.4395

> <Gold.Chemscore.DG>
-17.9999

> <Gold.Chemscore.ZeroCoef>
-5.4800

> <Gold.Chemscore.Hbond>
0.9325

> <Gold.Chemscore.Metal>
0.0000

> <Gold.Chemscore.Lipo>
111.9679

> <Gold.Chemscore.Internal_Hbond>
0.0000

> <Gold.Chemscore.DEClash>
0.0343

> <Gold.Chemscore.DEInternal>
2.5261

> <Gold.Chemscore.Rot>
1.4433

> <Gold.Chemscore.Internal.Correction>
   9.000000E+99

> <Gold.Chemscore.Hbonds>
donor molecule, donor type, donor heavy atom, donor atom, acceptor molecule, acceptor atom, score
      P1  H  7997  8010       L1    20  0.40

> <Gold.Chemscore.Hbond.Weighted>
-3.1146

> <Gold.Chemscore.Metal.Weighted>
-0.0000

> <Gold.Chemscore.Lipo.Weighted>
-13.1002

> <Gold.Chemscore.Internal_Hbond.Weighted>
0.0000

> <Gold.Chemscore.DEClash.Weighted>
0.0343

> <Gold.Chemscore.DEInternal.Weighted>
2.5261

> <Gold.Chemscore.Rot.Weighted>
3.6949

> <Gold.Chemscore.Internal.Correction.Weighted>
   9.000000E+99

> <Gold.Protein.RotatedTorsions>
[ 6907 6896 6895 6894 ] final   79.36 input  -60.11 | X-H torsion
[ 7974 7965 7964 7962 ] final   24.70 input  175.53 | X-H torsion
[ 8008 7997 7996 7995 ] final  -18.77 input   59.86 | X-H torsion
[ 10167 10162 10161 10158 ] final   17.20 input  -65.29 | X-H torsion
[ 10718 10713 10712 10709 ] final  -44.65 input   66.30 | X-H torsion
[ 10763 10752 10751 10750 ] final   19.28 input  -60.55 | X-H torsion
[ 11005 11000 10999 10996 ] final   56.50 input  -57.11 | X-H torsion

> <Gold.Protein.ActiveResidues>
 VAL166  LYS551  ARG553  GLY616  TRP617  ASP618  TYR619  PRO620  LYS621  CYS622 
 ASP623  PHE694  ASN695  SER759  ASP760  ASP761  ALA762  ILE779  LEU786  VAL792 
 PHE793  MET794  SER795  GLU796  ALA797  LYS798  CYS799  TRP800  GLU811  SER814 

> <Gold.Protein.RotatedAtoms>
  152.5195  134.3522  159.9254 H   0  0  0  0  0  0  0  0  0  0  0  0  # atno 6907 bound_to 6896
  151.3473  133.3932  159.2684 H   0  0  0  0  0  0  0  0  0  0  0  0  # atno 6908 bound_to 6896
  150.9755  134.9138  159.7871 H   0  0  0  0  0  0  0  0  0  0  0  0  # atno 6909 bound_to 6896
  146.1925  139.7568  142.8822 H   0  0  0  0  0  0  0  0  0  0  0  0  # atno 7974 bound_to 7965
  154.4883  140.2107  155.9606 H   0  0  0  0  0  0  0  0  0  0  0  0  # atno 8008 bound_to 7997
  156.1268  140.3204  155.8257 H   0  0  0  0  0  0  0  0  0  0  0  0  # atno 8009 bound_to 7997
  155.4369  140.0507  157.3004 H   0  0  0  0  0  0  0  0  0  0  0  0  # atno 8010 bound_to 7997
  140.5743  143.9102  150.6738 H   0  0  0  0  0  0  0  0  0  0  0  0  # atno 10167 bound_to 10162
  156.2364  130.4176  149.8813 H   0  0  0  0  0  0  0  0  0  0  0  0  # atno 10718 bound_to 10713
  153.1176  135.6711  153.9392 H   0  0  0  0  0  0  0  0  0  0  0  0  # atno 10763 bound_to 10752
  153.8917  135.3046  155.3449 H   0  0  0  0  0  0  0  0  0  0  0  0  # atno 10764 bound_to 10752
  154.7590  135.4997  153.9508 H   0  0  0  0  0  0  0  0  0  0  0  0  # atno 10765 bound_to 10752
  140.0524  134.5718  155.9247 H   0  0  0  0  0  0  0  0  0  0  0  0  # atno 11005 bound_to 11000
  145.3749  141.0349  143.3210 LP  0  0  0  0  0  0  0  0  0  0  0  0  # atno 17320 bound_to 7965
  144.8514  139.5317  143.6855 LP  0  0  0  0  0  0  0  0  0  0  0  0  # atno 17321 bound_to 7965
  140.2585  143.3541  152.1343 LP  0  0  0  0  0  0  0  0  0  0  0  0  # atno 17342 bound_to 10162
  139.5134  144.6932  151.5702 LP  0  0  0  0  0  0  0  0  0  0  0  0  # atno 17343 bound_to 10162
  156.6409  130.8704  151.3514 LP  0  0  0  0  0  0  0  0  0  0  0  0  # atno 17370 bound_to 10713
  157.7156  130.9493  150.1244 LP  0  0  0  0  0  0  0  0  0  0  0  0  # atno 17371 bound_to 10713
  141.1936  133.6580  156.5558 LP  0  0  0  0  0  0  0  0  0  0  0  0  # atno 17394 bound_to 11000
  140.3896  134.7452  157.4713 LP  0  0  0  0  0  0  0  0  0  0  0  0  # atno 17395 bound_to 11000

$$$$
