AV-unprocessed.smi:2737|AV-procd|sdf|10547|dock10
  -GOLD-   2272014593D 1   1.00000     0.00000
 Structure written by MMmdl.
 43 44  0  0  0  0  0  0  0  0  1 V2000
  147.3486  136.4470  162.2575 C   0  0  0  0  0  0  0  0  0  0  0  0
  148.2122  136.9571  161.2457 O   0  0  0  0  0  0  0  0  0  0  0  0
  148.0556  136.4510  159.9142 C   0  0  0  0  0  0  0  0  0  0  0  0
  148.0004  134.9075  159.9042 C   0  0  0  0  0  0  0  0  0  0  0  0
  146.7186  137.0285  159.4236 C   0  0  0  0  0  0  0  0  0  0  0  0
  149.1844  136.9874  159.0739 C   0  0  0  0  0  0  0  0  0  0  0  0
  149.1121  137.9646  158.1706 N   0  0  0  0  0  0  0  0  0  0  0  0
  150.4252  138.1336  157.8517 C   0  0  0  0  0  0  0  0  0  0  0  0
  150.8910  139.1208  156.8301 C   0  0  0  0  0  0  0  0  0  0  0  0
  151.8297  140.1472  157.4659 C   0  0  0  0  0  0  0  0  0  0  0  0
  152.9671  139.8167  157.8012 O   0  0  0  0  0  0  0  0  0  0  0  0
  151.3418  141.3878  157.6259 N   0  0  0  0  0  0  0  0  0  0  0  0
  152.0595  142.5063  158.2301 C   0  0  0  0  0  0  0  0  0  0  0  0
  152.2181  142.2600  159.7426 C   0  0  0  0  0  0  0  0  0  0  0  0
  152.9265  143.4375  160.4324 C   0  0  0  0  0  0  0  0  0  0  0  0
  152.1932  144.7619  160.1669 C   0  0  0  0  0  0  0  0  0  0  0  0
  152.0331  145.0146  158.6596 C   0  0  0  0  0  0  0  0  0  0  0  0
  151.3250  143.8383  157.9681 C   0  0  0  0  0  0  0  0  0  0  0  0
  151.2831  137.3649  158.5105 N   0  0  0  0  0  0  0  0  0  0  0  0
  150.4584  136.6216  159.3659 O   0  0  0  0  0  0  0  0  0  0  0  0
  147.6806  136.8171  163.2274 H   0  0  0  0  0  0  0  0  0  0  0  0
  147.3549  135.3578  162.3022 H   0  0  0  0  0  0  0  0  0  0  0  0
  146.3223  136.7865  162.1182 H   0  0  0  0  0  0  0  0  0  0  0  0
  147.7743  134.5304  158.9062 H   0  0  0  0  0  0  0  0  0  0  0  0
  147.2260  134.5370  160.5762 H   0  0  0  0  0  0  0  0  0  0  0  0
  148.9480  134.4598  160.2042 H   0  0  0  0  0  0  0  0  0  0  0  0
  146.5116  136.7314  158.3950 H   0  0  0  0  0  0  0  0  0  0  0  0
  146.7233  138.1188  159.4578 H   0  0  0  0  0  0  0  0  0  0  0  0
  145.8892  136.6833  160.0417 H   0  0  0  0  0  0  0  0  0  0  0  0
  151.4084  138.6015  156.0219 H   0  0  0  0  0  0  0  0  0  0  0  0
  150.0309  139.6219  156.3839 H   0  0  0  0  0  0  0  0  0  0  0  0
  150.3958  141.5667  157.3214 H   0  0  0  0  0  0  0  0  0  0  0  0
  153.0575  142.5613  157.7905 H   0  0  0  0  0  0  0  0  0  0  0  0
  151.2378  142.1122  160.1985 H   0  0  0  0  0  0  0  0  0  0  0  0
  152.7804  141.3414  159.9155 H   0  0  0  0  0  0  0  0  0  0  0  0
  152.9902  143.2559  161.5057 H   0  0  0  0  0  0  0  0  0  0  0  0
  153.9528  143.5089  160.0697 H   0  0  0  0  0  0  0  0  0  0  0  0
  151.2105  144.7370  160.6396 H   0  0  0  0  0  0  0  0  0  0  0  0
  152.7371  145.5873  160.6269 H   0  0  0  0  0  0  0  0  0  0  0  0
  151.4724  145.9350  158.4943 H   0  0  0  0  0  0  0  0  0  0  0  0
  153.0144  145.1656  158.2083 H   0  0  0  0  0  0  0  0  0  0  0  0
  151.2623  144.0324  156.8968 H   0  0  0  0  0  0  0  0  0  0  0  0
  150.2980  143.7717  158.3300 H   0  0  0  0  0  0  0  0  0  0  0  0
  1  2  1  0  0  0  0
  1 21  1  0  0  0  0
  1 22  1  0  0  0  0
  1 23  1  0  0  0  0
  2  3  1  0  0  0  0
  3  4  1  0  0  0  0
  3  5  1  0  0  0  0
  3  6  1  0  0  0  0
  4 24  1  0  0  0  0
  4 25  1  0  0  0  0
  4 26  1  0  0  0  0
  5 27  1  0  0  0  0
  5 28  1  0  0  0  0
  5 29  1  0  0  0  0
  6 20  1  0  0  0  0
  6  7  2  0  0  0  0
  7  8  1  0  0  0  0
  8  9  1  0  0  0  0
  8 19  2  0  0  0  0
  9 10  1  0  0  0  0
  9 30  1  0  0  0  0
  9 31  1  0  0  0  0
 10 11  2  0  0  0  0
 10 12  1  0  0  0  0
 12 13  1  0  0  0  0
 12 32  1  0  0  0  0
 13 18  1  0  0  0  0
 13 14  1  0  0  0  0
 13 33  1  0  0  0  0
 14 15  1  0  0  0  0
 14 34  1  0  0  0  0
 14 35  1  0  0  0  0
 15 16  1  0  0  0  0
 15 36  1  0  0  0  0
 15 37  1  0  0  0  0
 16 17  1  0  0  0  0
 16 38  1  0  0  0  0
 16 39  1  0  0  0  0
 17 18  1  0  0  0  0
 17 40  1  0  0  0  0
 17 41  1  0  0  0  0
 18 42  1  0  0  0  0
 18 43  1  0  0  0  0
 19 20  1  0  0  0  0
M  END
> <s_m_source_file>
AV-unprocessed.smi

> <i_m_source_file_index>
2737

> <i_lp_mmshare_version>
43012

> <i_f3d_flags>
0

> <s_epik_input>
W0NIM11PQyhbQ0gzXSkoW0NIM10pYzFuYyhubzEpW0NIMl1DKD1PKVtOSF1bQ0hdMltDSDJdW0NIMl1bQ0gyXVtDSDJdW0NIMl0y

> <s_epik_cmdline>
J2VwaWtfcHl0aG9uJywgJy1waCcsICc3LjAnLCAnLXRuJywgJzgnLCAnLW1hJywgJzIwMCcsICctbWV0YWxfYmluZGluZycsICctaW1hZScsICc8aW5maWxlLm1hZT4nLCAnLW9tYWUnLCAnPG91dGZpbGUubWFlPic=

> <r_lp_tautomer_probability>
1

> <r_epik_Ionization_Penalty>
6.23621e-08

> <r_epik_Ionization_Penalty_Charging>
0

> <r_epik_Ionization_Penalty_Neutral>
6.23621e-08

> <r_epik_State_Penalty>
-0

> <r_epik_Charging_Adjusted_Penalty>
0

> <i_epik_Tot_Q>
0

> <i_epik_Tot_abs_Q>
0

> <r_epik_Metal_State_Penalty>
-0

> <b_epik_Metal_Only>
0

> <s_lp_Force_Field>
OPLS_2005

> <r_lp_Energy>
12.1287

> <b_lp_Chiralities_Consistent>
1

> <s_lp_Variant>
AV-unprocessed.smi:2737-1

> <Gold.Version>
5.8.1

> <Gold.Id.Protein>
6NUR|6NUR_protein|mol2

> <Gold.PLP.Fitness>
47.5712

> <Gold.PLP.PLP>
-37.1348

> <Gold.PLP.part.hbond>
-4.0000

> <Gold.PLP.part.metal>
0.0000

> <Gold.PLP.part.buried>
-5.7266

> <Gold.PLP.part.nonpolar>
-27.3462

> <Gold.PLP.part.repulsive>
0.0615

> <Gold.PLP.ligand.clash>
0.0000

> <Gold.PLP.ligand.torsion>
0.5461

> <Gold.PLP.Chemscore.Hbond>
3.7680

> <Gold.PLP.Chemscore.CHOScore>
0.0000

> <Gold.PLP.Chemscore.Metal>
0.0000

> <Gold.Chemscore.Hbonds>
donor molecule, donor type, donor heavy atom, donor atom, acceptor molecule, acceptor atom, score
      P1  H  6896  6907       L1    20  0.99
      P1  H  6931  6943       L1     2  1.00
      P1  H  6934  6947       L1     2  0.15
      P1  H  7997  8009       L1    11  1.00

> <Gold.PLP.Chemscore.Internal.Correction>
0.2246

> <Gold.Rescore>
     Score         DG    S(hbond)    S(metal)    S(lipo)     H(rot)  DE(clash)    DE(int)     intcor
     20.39     -20.86       2.77        0.00      93.13       1.86       0.01       0.46       ----

> <Gold.Chemscore.Fitness>
20.3867

> <Gold.Chemscore.DG>
-20.8604

> <Gold.Chemscore.ZeroCoef>
-5.4800

> <Gold.Chemscore.Hbond>
2.7679

> <Gold.Chemscore.Metal>
0.0000

> <Gold.Chemscore.Lipo>
93.1278

> <Gold.Chemscore.Internal_Hbond>
0.0000

> <Gold.Chemscore.DEClash>
0.0089

> <Gold.Chemscore.DEInternal>
0.4648

> <Gold.Chemscore.Rot>
1.8596

> <Gold.Chemscore.Internal.Correction>
   9.000000E+99

> <Gold.Chemscore.Hbonds>
donor molecule, donor type, donor heavy atom, donor atom, acceptor molecule, acceptor atom, score
      P1  H  6896  6907       L1    20  0.90
      P1  H  6931  6943       L1     2  0.60
      P1  H  6934  6947       L1     2  0.01
      P1  H  7997  8009       L1    11  0.97

> <Gold.Chemscore.Hbond.Weighted>
-9.2449

> <Gold.Chemscore.Metal.Weighted>
-0.0000

> <Gold.Chemscore.Lipo.Weighted>
-10.8960

> <Gold.Chemscore.Internal_Hbond.Weighted>
0.0000

> <Gold.Chemscore.DEClash.Weighted>
0.0089

> <Gold.Chemscore.DEInternal.Weighted>
0.4648

> <Gold.Chemscore.Rot.Weighted>
4.7605

> <Gold.Chemscore.Internal.Correction.Weighted>
   9.000000E+99

> <Gold.Protein.RotatedTorsions>
[ 6907 6896 6895 6894 ] final  -50.49 input  -60.11 | X-H torsion
[ 7974 7965 7964 7962 ] final -161.43 input  175.53 | X-H torsion
[ 8008 7997 7996 7995 ] final  175.59 input   59.86 | X-H torsion
[ 10167 10162 10161 10158 ] final   56.38 input  -65.29 | X-H torsion
[ 10718 10713 10712 10709 ] final  127.71 input   66.30 | X-H torsion
[ 10763 10752 10751 10750 ] final  -17.75 input  -60.55 | X-H torsion
[ 11005 11000 10999 10996 ] final  143.48 input  -57.11 | X-H torsion

> <Gold.Protein.ActiveResidues>
 VAL166  LYS551  ARG553  GLY616  TRP617  ASP618  TYR619  PRO620  LYS621  CYS622 
 ASP623  PHE694  ASN695  SER759  ASP760  ASP761  ALA762  ILE779  LEU786  VAL792 
 PHE793  MET794  SER795  GLU796  ALA797  LYS798  CYS799  TRP800  GLU811  SER814 

> <Gold.Protein.RotatedAtoms>
  150.8702  134.8074  159.7148 H   0  0  0  0  0  0  0  0  0  0  0  0  # atno 6907 bound_to 6896
  152.4709  134.4959  159.9719 H   0  0  0  0  0  0  0  0  0  0  0  0  # atno 6908 bound_to 6896
  151.5049  133.3458  159.2910 H   0  0  0  0  0  0  0  0  0  0  0  0  # atno 6909 bound_to 6896
  144.7391  140.3398  143.6137 H   0  0  0  0  0  0  0  0  0  0  0  0  # atno 7974 bound_to 7965
  156.0855  140.1405  156.9659 H   0  0  0  0  0  0  0  0  0  0  0  0  # atno 8008 bound_to 7997
  154.4610  140.0943  156.6940 H   0  0  0  0  0  0  0  0  0  0  0  0  # atno 8009 bound_to 7997
  155.5006  140.3451  155.4373 H   0  0  0  0  0  0  0  0  0  0  0  0  # atno 8010 bound_to 7997
  140.2093  144.3905  150.6495 H   0  0  0  0  0  0  0  0  0  0  0  0  # atno 10167 bound_to 10162
  157.5309  131.1098  150.9010 H   0  0  0  0  0  0  0  0  0  0  0  0  # atno 10718 bound_to 10713
  153.5786  135.7005  153.5473 H   0  0  0  0  0  0  0  0  0  0  0  0  # atno 10763 bound_to 10752
  153.3281  135.4055  155.1472 H   0  0  0  0  0  0  0  0  0  0  0  0  # atno 10764 bound_to 10752
  154.8621  135.3712  154.5313 H   0  0  0  0  0  0  0  0  0  0  0  0  # atno 10765 bound_to 10752
  140.0557  134.9232  157.1096 H   0  0  0  0  0  0  0  0  0  0  0  0  # atno 11005 bound_to 11000
  145.7386  139.1757  143.2389 LP  0  0  0  0  0  0  0  0  0  0  0  0  # atno 17320 bound_to 7965
  146.1152  140.7379  142.9484 LP  0  0  0  0  0  0  0  0  0  0  0  0  # atno 17321 bound_to 7965
  140.6335  143.2191  151.6446 LP  0  0  0  0  0  0  0  0  0  0  0  0  # atno 17342 bound_to 10162
  139.5186  144.3279  152.0852 LP  0  0  0  0  0  0  0  0  0  0  0  0  # atno 17343 bound_to 10162
  156.9592  130.5449  149.5285 LP  0  0  0  0  0  0  0  0  0  0  0  0  # atno 17370 bound_to 10713
  156.0422  130.5503  150.8797 LP  0  0  0  0  0  0  0  0  0  0  0  0  # atno 17371 bound_to 10713
  140.3847  134.2249  155.7169 LP  0  0  0  0  0  0  0  0  0  0  0  0  # atno 17394 bound_to 11000
  141.1951  133.8113  157.0730 LP  0  0  0  0  0  0  0  0  0  0  0  0  # atno 17395 bound_to 11000

$$$$
