AV-unprocessed.smi:1063|AV-procd|sdf|4663|dock1
  -GOLD-   22720 3173D 1   1.00000     0.00000
 Structure written by MMmdl.
 38 39  0  0  0  0  0  0  0  0  1 V2000
  151.4820  142.9601  159.1779 C   0  0  0  0  0  0  0  0  0  0  0  0
  150.7658  141.9287  158.3025 C   0  0  0  0  0  0  0  0  0  0  0  0
  151.2012  142.1245  156.5502 S   0  0  0  0  0  0  0  0  0  0  0  0
  150.2616  140.9369  155.6380 C   0  0  0  0  0  0  0  0  0  0  0  0
  148.8547  140.9895  155.6404 C   0  0  0  0  0  0  0  0  0  0  0  0
  148.1527  140.0238  154.8942 C   0  0  0  0  0  0  0  0  0  0  0  0
  148.8763  139.0424  154.1851 C   0  0  0  0  0  0  0  0  0  0  0  0
  148.1434  138.0955  153.4202 N   0  0  0  0  0  0  0  0  0  0  0  0
  146.8168  137.8820  153.4055 C   0  0  0  0  0  0  0  0  0  0  0  0
  145.9831  138.5481  154.0184 O   0  0  0  0  0  0  0  0  0  0  0  0
  146.5020  136.8470  152.6140 N   0  0  0  0  0  0  0  0  0  0  0  0
  145.1537  136.3396  152.3803 C   0  0  0  0  0  0  0  0  0  0  0  0
  145.1381  135.2231  151.3216 C   0  0  1  0  0  0  0  0  0  0  0  0
  146.1925  134.1317  151.5066 C   0  0  0  0  0  0  0  0  0  0  0  0
  145.5859  132.9289  150.8017 C   0  0  0  0  0  0  0  0  0  0  0  0
  144.1072  133.2954  150.6409 C   0  0  0  0  0  0  0  0  0  0  0  0
  143.9293  134.4857  151.3971 O   0  0  0  0  0  0  0  0  0  0  0  0
  150.2917  139.0912  154.2450 C   0  0  0  0  0  0  0  0  0  0  0  0
  150.9733  140.0143  154.9565 N   0  0  0  0  0  0  0  0  0  0  0  0
  151.2081  142.8358  160.2256 H   0  0  0  0  0  0  0  0  0  0  0  0
  151.2195  143.9764  158.8836 H   0  0  0  0  0  0  0  0  0  0  0  0
  152.5645  142.8558  159.1020 H   0  0  0  0  0  0  0  0  0  0  0  0
  151.0301  140.9212  158.6247 H   0  0  0  0  0  0  0  0  0  0  0  0
  149.6862  142.0318  158.4135 H   0  0  0  0  0  0  0  0  0  0  0  0
  148.3268  141.7499  156.1968 H   0  0  0  0  0  0  0  0  0  0  0  0
  147.0728  140.0374  154.8705 H   0  0  0  0  0  0  0  0  0  0  0  0
  148.6917  137.5323  152.7867 H   0  0  0  0  0  0  0  0  0  0  0  0
  147.2537  136.3637  152.1445 H   0  0  0  0  0  0  0  0  0  0  0  0
  144.6962  135.9964  153.3100 H   0  0  0  0  0  0  0  0  0  0  0  0
  144.5445  137.1742  152.0326 H   0  0  0  0  0  0  0  0  0  0  0  0
  145.2180  135.6529  150.3210 H   0  0  0  0  0  0  0  0  0  0  0  0
  147.1668  134.4129  151.1055 H   0  0  0  0  0  0  0  0  0  0  0  0
  146.3174  133.9053  152.5663 H   0  0  0  0  0  0  0  0  0  0  0  0
  146.0477  132.7634  149.8277 H   0  0  0  0  0  0  0  0  0  0  0  0
  145.7176  132.0229  151.3940 H   0  0  0  0  0  0  0  0  0  0  0  0
  143.8750  133.4975  149.5943 H   0  0  0  0  0  0  0  0  0  0  0  0
  143.4400  132.5072  150.9904 H   0  0  0  0  0  0  0  0  0  0  0  0
  150.9118  138.3982  153.6984 H   0  0  0  0  0  0  0  0  0  0  0  0
  1  2  1  0  0  0  0
  1 20  1  0  0  0  0
  1 21  1  0  0  0  0
  1 22  1  0  0  0  0
  2  3  1  0  0  0  0
  2 23  1  0  0  0  0
  2 24  1  0  0  0  0
  3  4  1  0  0  0  0
  4 19  1  0  0  0  0
  4  5  2  0  0  0  0
  5  6  1  0  0  0  0
  5 25  1  0  0  0  0
  6  7  2  0  0  0  0
  6 26  1  0  0  0  0
  7  8  1  0  0  0  0
  7 18  1  0  0  0  0
  8  9  1  0  0  0  0
  8 27  1  0  0  0  0
  9 10  2  0  0  0  0
  9 11  1  0  0  0  0
 11 12  1  0  0  0  0
 11 28  1  0  0  0  0
 12 13  1  0  0  0  0
 12 29  1  0  0  0  0
 12 30  1  0  0  0  0
 13 17  1  0  0  0  0
 13 14  1  0  0  0  0
 13 31  1  0  0  0  0
 14 15  1  0  0  0  0
 14 32  1  0  0  0  0
 14 33  1  0  0  0  0
 15 16  1  0  0  0  0
 15 34  1  0  0  0  0
 15 35  1  0  0  0  0
 16 17  1  0  0  0  0
 16 36  1  0  0  0  0
 16 37  1  0  0  0  0
 18 19  2  0  0  0  0
 18 38  1  0  0  0  0
M  END
> <s_m_source_file>
AV-unprocessed.smi

> <i_m_source_file_index>
1063

> <i_lp_mmshare_version>
43012

> <i_f3d_flags>
0

> <s_epik_input>
W0NIM11bQ0gyXVNjMVtjSF1bY0hdYyhbY0hdbjEpW05IXUMoPU8pW05IXVtDSDJdW0NAQEhdMltDSDJdW0NIMl1bQ0gyXU8y

> <s_epik_cmdline>
J2VwaWtfcHl0aG9uJywgJy1waCcsICc3LjAnLCAnLXRuJywgJzgnLCAnLW1hJywgJzIwMCcsICctbWV0YWxfYmluZGluZycsICctaW1hZScsICc8aW5maWxlLm1hZT4nLCAnLW9tYWUnLCAnPG91dGZpbGUubWFlPic=

> <r_lp_tautomer_probability>
1

> <r_epik_Ionization_Penalty>
0.000426617

> <r_epik_Ionization_Penalty_Charging>
0

> <r_epik_Ionization_Penalty_Neutral>
0.000426617

> <r_epik_State_Penalty>
0.000241115

> <r_epik_Charging_Adjusted_Penalty>
0.000241115

> <i_epik_Tot_Q>
0

> <i_epik_Tot_abs_Q>
0

> <r_epik_Metal_State_Penalty>
-0

> <b_epik_Metal_Only>
0

> <s_lp_Force_Field>
OPLS_2005

> <r_lp_Energy>
18.8486

> <b_lp_Chiralities_Consistent>
1

> <s_lp_Variant>
AV-unprocessed.smi:1063-2

> <Gold.Version>
5.8.1

> <Gold.Id.Protein>
6NUR|6NUR_protein|mol2

> <Gold.PLP.Fitness>
40.7390

> <Gold.PLP.PLP>
-32.7551

> <Gold.PLP.part.hbond>
-3.3304

> <Gold.PLP.part.metal>
0.0000

> <Gold.PLP.part.buried>
-5.6594

> <Gold.PLP.part.nonpolar>
-25.2716

> <Gold.PLP.part.repulsive>
0.6257

> <Gold.PLP.ligand.clash>
0.0000

> <Gold.PLP.ligand.torsion>
0.1468

> <Gold.PLP.Chemscore.Hbond>
2.7420

> <Gold.PLP.Chemscore.CHOScore>
0.0000

> <Gold.PLP.Chemscore.Metal>
0.0000

> <Gold.Chemscore.Hbonds>
donor molecule, donor type, donor heavy atom, donor atom, acceptor molecule, acceptor atom, score
      L1  H     8    27       P1  7948  1.00
      L1  H    11    28       P1  7948  0.98
      P1  H  7989  7998       L1    19  0.75

> <Gold.PLP.Chemscore.Internal.Correction>
0.0514

> <Gold.Rescore>
     Score         DG    S(hbond)    S(metal)    S(lipo)     H(rot)  DE(clash)    DE(int)     intcor
     16.61     -18.53       1.94        0.00      88.26       1.47       0.31       1.60       ----

> <Gold.Chemscore.Fitness>
16.6137

> <Gold.Chemscore.DG>
-18.5269

> <Gold.Chemscore.ZeroCoef>
-5.4800

> <Gold.Chemscore.Hbond>
1.9399

> <Gold.Chemscore.Metal>
0.0000

> <Gold.Chemscore.Lipo>
88.2581

> <Gold.Chemscore.Internal_Hbond>
0.0000

> <Gold.Chemscore.DEClash>
0.3091

> <Gold.Chemscore.DEInternal>
1.6041

> <Gold.Chemscore.Rot>
1.4681

> <Gold.Chemscore.Internal.Correction>
   9.000000E+99

> <Gold.Chemscore.Hbonds>
donor molecule, donor type, donor heavy atom, donor atom, acceptor molecule, acceptor atom, score
      L1  H     8    27       P1  7948  0.97
      L1  H    11    28       P1  7948  0.93
      P1  H  7989  7998       L1    19  0.05

> <Gold.Chemscore.Hbond.Weighted>
-6.4791

> <Gold.Chemscore.Metal.Weighted>
-0.0000

> <Gold.Chemscore.Lipo.Weighted>
-10.3262

> <Gold.Chemscore.Internal_Hbond.Weighted>
0.0000

> <Gold.Chemscore.DEClash.Weighted>
0.3091

> <Gold.Chemscore.DEInternal.Weighted>
1.6041

> <Gold.Chemscore.Rot.Weighted>
3.7584

> <Gold.Chemscore.Internal.Correction.Weighted>
   9.000000E+99

> <Gold.Protein.RotatedTorsions>
[ 6907 6896 6895 6894 ] final -166.61 input  -60.11 | X-H torsion
[ 7974 7965 7964 7962 ] final -149.16 input  175.53 | X-H torsion
[ 8008 7997 7996 7995 ] final   27.30 input   59.86 | X-H torsion
[ 10167 10162 10161 10158 ] final  119.19 input  -65.29 | X-H torsion
[ 10718 10713 10712 10709 ] final -165.89 input   66.30 | X-H torsion
[ 10763 10752 10751 10750 ] final  144.03 input  -60.55 | X-H torsion
[ 11005 11000 10999 10996 ] final -143.40 input  -57.11 | X-H torsion

> <Gold.Protein.ActiveResidues>
 VAL166  LYS551  ARG553  GLY616  TRP617  ASP618  TYR619  PRO620  LYS621  CYS622 
 ASP623  PHE694  ASN695  SER759  ASP760  ASP761  ALA762  ILE779  LEU786  VAL792 
 PHE793  MET794  SER795  GLU796  ALA797  LYS798  CYS799  TRP800  GLU811  SER814 

> <Gold.Protein.RotatedAtoms>
  151.4463  133.3629  159.2788 H   0  0  0  0  0  0  0  0  0  0  0  0  # atno 6907 bound_to 6896
  150.9122  134.8540  159.7443 H   0  0  0  0  0  0  0  0  0  0  0  0  # atno 6908 bound_to 6896
  152.4938  134.4394  159.9590 H   0  0  0  0  0  0  0  0  0  0  0  0  # atno 6909 bound_to 6896
  144.7985  140.5102  143.5724 H   0  0  0  0  0  0  0  0  0  0  0  0  # atno 7974 bound_to 7965
  155.0407  140.3169  155.4725 H   0  0  0  0  0  0  0  0  0  0  0  0  # atno 8008 bound_to 7997
  156.2855  140.2163  156.5474 H   0  0  0  0  0  0  0  0  0  0  0  0  # atno 8009 bound_to 7997
  154.7292  140.0483  157.0699 H   0  0  0  0  0  0  0  0  0  0  0  0  # atno 8010 bound_to 7997
  139.6062  144.7070  151.2948 H   0  0  0  0  0  0  0  0  0  0  0  0  # atno 10167 bound_to 10162
  156.6600  130.9042  151.3027 H   0  0  0  0  0  0  0  0  0  0  0  0  # atno 10718 bound_to 10713
  153.9821  135.2940  155.3419 H   0  0  0  0  0  0  0  0  0  0  0  0  # atno 10763 bound_to 10752
  154.7263  135.5087  153.8895 H   0  0  0  0  0  0  0  0  0  0  0  0  # atno 10764 bound_to 10752
  153.0849  135.6690  154.0083 H   0  0  0  0  0  0  0  0  0  0  0  0  # atno 10765 bound_to 10752
  140.8129  134.2722  157.4933 H   0  0  0  0  0  0  0  0  0  0  0  0  # atno 11005 bound_to 11000
  145.5613  139.1479  143.3340 LP  0  0  0  0  0  0  0  0  0  0  0  0  # atno 17320 bound_to 7965
  146.2260  140.5749  142.8996 LP  0  0  0  0  0  0  0  0  0  0  0  0  # atno 17321 bound_to 7965
  140.7286  143.6930  150.7907 LP  0  0  0  0  0  0  0  0  0  0  0  0  # atno 17342 bound_to 10162
  140.0516  143.5244  152.2671 LP  0  0  0  0  0  0  0  0  0  0  0  0  # atno 17343 bound_to 10162
  157.7113  130.9443  150.1098 LP  0  0  0  0  0  0  0  0  0  0  0  0  # atno 17370 bound_to 10713
  156.2018  130.3661  149.8778 LP  0  0  0  0  0  0  0  0  0  0  0  0  # atno 17371 bound_to 10713
  139.8713  134.9493  156.4022 LP  0  0  0  0  0  0  0  0  0  0  0  0  # atno 17394 bound_to 11000
  140.9179  133.7666  155.9870 LP  0  0  0  0  0  0  0  0  0  0  0  0  # atno 17395 bound_to 11000

$$$$
