AV-unprocessed.smi:3186|AV-procd|sdf|12174|dock1
  -GOLD-   2272018 13D 1   1.00000     0.00000
 Structure written by MMmdl.
 37 38  0  0  0  0  0  0  0  0  2 V2000
  151.0287  145.2802  159.7497 C   0  0  0  0  0  0  0  0  0  0  0  0
  151.8334  144.0215  160.0222 C   0  0  0  0  0  0  0  0  0  0  0  0
  152.3364  143.7809  161.3197 C   0  0  0  0  0  0  0  0  0  0  0  0
  153.0613  142.6918  161.6499 N   0  0  0  0  0  0  0  0  0  0  0  0
  153.3182  141.7879  160.6825 C   0  0  0  0  0  0  0  0  0  0  0  0
  152.8663  141.9272  159.3558 C   0  0  0  0  0  0  0  0  0  0  0  0
  152.1083  143.0663  159.0120 C   0  0  0  0  0  0  0  0  0  0  0  0
  151.6088  143.2258  157.5847 C   0  0  0  0  0  0  0  0  0  0  0  0
  150.6506  142.0978  157.1775 C   0  0  0  0  0  0  0  0  0  0  0  0
  149.9377  142.4343  155.9273 N   0  3  0  0  0  0  0  0  0  0  0  0
  148.9853  141.4076  155.4478 C   0  0  1  0  0  0  0  0  0  0  0  0
  147.9019  142.0372  154.5434 C   0  0  0  0  0  0  0  0  0  0  0  0
  146.8573  141.0165  154.0625 C   0  0  0  0  0  0  0  0  0  0  0  0
  147.4779  139.8843  153.2331 C   0  0  0  0  0  0  0  0  0  0  0  0
  148.6725  138.9378  154.2138 S   0  0  0  0  0  0  0  0  0  0  0  0
  149.7595  140.3041  154.7039 C   0  0  0  0  0  0  0  0  0  0  0  0
  150.8307  145.8283  160.6716 H   0  0  0  0  0  0  0  0  0  0  0  0
  150.0682  145.0385  159.2953 H   0  0  0  0  0  0  0  0  0  0  0  0
  151.5753  145.9419  159.0775 H   0  0  0  0  0  0  0  0  0  0  0  0
  152.1525  144.4829  162.1200 H   0  0  0  0  0  0  0  0  0  0  0  0
  153.9003  140.9261  160.9738 H   0  0  0  0  0  0  0  0  0  0  0  0
  153.0996  141.1711  158.6204 H   0  0  0  0  0  0  0  0  0  0  0  0
  151.1263  144.1962  157.4664 H   0  0  0  0  0  0  0  0  0  0  0  0
  152.4683  143.2388  156.9128 H   0  0  0  0  0  0  0  0  0  0  0  0
  151.2077  141.1710  157.0332 H   0  0  0  0  0  0  0  0  0  0  0  0
  149.9335  141.9176  157.9774 H   0  0  0  0  0  0  0  0  0  0  0  0
  149.4418  143.3059  156.0476 H   0  0  0  0  0  0  0  0  0  0  0  0
  148.5099  140.9548  156.3195 H   0  0  0  0  0  0  0  0  0  0  0  0
  147.3787  142.8300  155.0770 H   0  0  0  0  0  0  0  0  0  0  0  0
  148.3705  142.5119  153.6802 H   0  0  0  0  0  0  0  0  0  0  0  0
  146.3273  140.5978  154.9190 H   0  0  0  0  0  0  0  0  0  0  0  0
  146.1058  141.5291  153.4612 H   0  0  0  0  0  0  0  0  0  0  0  0
  146.7014  139.2062  152.8780 H   0  0  0  0  0  0  0  0  0  0  0  0
  147.9786  140.2872  152.3519 H   0  0  0  0  0  0  0  0  0  0  0  0
  150.2446  140.7057  153.8132 H   0  0  0  0  0  0  0  0  0  0  0  0
  150.5467  139.8971  155.3394 H   0  0  0  0  0  0  0  0  0  0  0  0
  150.6382  142.5615  155.2106 H   0  0  0  0  0  0  0  0  0  0  0  0
  1  2  1  0  0  0  0
  1 17  1  0  0  0  0
  1 18  1  0  0  0  0
  1 19  1  0  0  0  0
  2  7  1  0  0  0  0
  2  3  2  0  0  0  0
  3  4  1  0  0  0  0
  3 20  1  0  0  0  0
  4  5  2  0  0  0  0
  5  6  1  0  0  0  0
  5 21  1  0  0  0  0
  6  7  2  0  0  0  0
  6 22  1  0  0  0  0
  7  8  1  0  0  0  0
  8  9  1  0  0  0  0
  8 23  1  0  0  0  0
  8 24  1  0  0  0  0
  9 10  1  0  0  0  0
  9 25  1  0  0  0  0
  9 26  1  0  0  0  0
 10 11  1  0  0  0  0
 10 27  1  0  0  0  0
 10 37  1  0  0  0  0
 11 16  1  0  0  0  0
 11 12  1  0  0  0  0
 11 28  1  0  0  0  0
 12 13  1  0  0  0  0
 12 29  1  0  0  0  0
 12 30  1  0  0  0  0
 13 14  1  0  0  0  0
 13 31  1  0  0  0  0
 13 32  1  0  0  0  0
 14 15  1  0  0  0  0
 14 33  1  0  0  0  0
 14 34  1  0  0  0  0
 15 16  1  0  0  0  0
 16 35  1  0  0  0  0
 16 36  1  0  0  0  0
M  CHG  1  10   1
M  END
> <s_m_source_file>
AV-unprocessed.smi

> <i_m_source_file_index>
3186

> <i_lp_mmshare_version>
43012

> <i_f3d_flags>
0

> <s_epik_input>
W0NIM11jMVtjSF1uW2NIXVtjSF1jMVtDSDJdW0NIMl1bTkhdW0NAQEhdMltDSDJdW0NIMl1bQ0gyXVNbQ0gyXTI=

> <s_epik_cmdline>
J2VwaWtfcHl0aG9uJywgJy1waCcsICc3LjAnLCAnLXRuJywgJzgnLCAnLW1hJywgJzIwMCcsICctbWV0YWxfYmluZGluZycsICctaW1hZScsICc8aW5maWxlLm1hZT4nLCAnLW9tYWUnLCAnPG91dGZpbGUubWFlPic=

> <r_epik_Ionization_Penalty>
0.00563987

> <r_epik_Ionization_Penalty_Charging>
0.00306352

> <r_epik_Ionization_Penalty_Neutral>
0.00257635

> <r_epik_State_Penalty>
0.00506628

> <r_epik_Charging_Adjusted_Penalty>
0.0081298

> <i_epik_Tot_Q>
1

> <i_epik_Tot_abs_Q>
1

> <r_epik_Metal_State_Penalty>
-0

> <b_epik_Metal_Only>
0

> <s_lp_Force_Field>
OPLS_2005

> <r_lp_Energy>
10.8164

> <b_lp_Chiralities_Consistent>
1

> <s_lp_Variant>
AV-unprocessed.smi:3186-2

> <Gold.Version>
5.8.1

> <Gold.Id.Protein>
6NUR|6NUR_protein|mol2

> <Gold.PLP.Fitness>
45.7110

> <Gold.PLP.PLP>
-40.2522

> <Gold.PLP.part.hbond>
-1.0000

> <Gold.PLP.part.metal>
0.0000

> <Gold.PLP.part.buried>
-2.6615

> <Gold.PLP.part.nonpolar>
-37.3359

> <Gold.PLP.part.repulsive>
0.1975

> <Gold.PLP.ligand.clash>
0.0000

> <Gold.PLP.ligand.torsion>
0.2780

> <Gold.PLP.Chemscore.Hbond>
2.0000

> <Gold.PLP.Chemscore.CHOScore>
0.0000

> <Gold.PLP.Chemscore.Metal>
0.0000

> <Gold.Chemscore.Hbonds>
donor molecule, donor type, donor heavy atom, donor atom, acceptor molecule, acceptor atom, score
      L1  H    10    27       P1  8028  2.00

> <Gold.PLP.Chemscore.Internal.Correction>
0.0148

> <Gold.Rescore>
     Score         DG    S(hbond)    S(metal)    S(lipo)     H(rot)  DE(clash)    DE(int)     intcor
     19.41     -19.78       0.99        0.00     122.44       1.30       0.02       0.35       ----

> <Gold.Chemscore.Fitness>
19.4084

> <Gold.Chemscore.DG>
-19.7787

> <Gold.Chemscore.ZeroCoef>
-5.4800

> <Gold.Chemscore.Hbond>
0.9908

> <Gold.Chemscore.Metal>
0.0000

> <Gold.Chemscore.Lipo>
122.4392

> <Gold.Chemscore.Internal_Hbond>
0.0000

> <Gold.Chemscore.DEClash>
0.0240

> <Gold.Chemscore.DEInternal>
0.3463

> <Gold.Chemscore.Rot>
1.3031

> <Gold.Chemscore.Internal.Correction>
   9.000000E+99

> <Gold.Chemscore.Hbonds>
donor molecule, donor type, donor heavy atom, donor atom, acceptor molecule, acceptor atom, score
      L1  H    10    27       P1  8028  0.96

> <Gold.Chemscore.Hbond.Weighted>
-3.3094

> <Gold.Chemscore.Metal.Weighted>
-0.0000

> <Gold.Chemscore.Lipo.Weighted>
-14.3254

> <Gold.Chemscore.Internal_Hbond.Weighted>
0.0000

> <Gold.Chemscore.DEClash.Weighted>
0.0240

> <Gold.Chemscore.DEInternal.Weighted>
0.3463

> <Gold.Chemscore.Rot.Weighted>
3.3361

> <Gold.Chemscore.Internal.Correction.Weighted>
   9.000000E+99

> <Gold.Protein.RotatedTorsions>
[ 6907 6896 6895 6894 ] final  -54.15 input  -60.11 | X-H torsion
[ 7974 7965 7964 7962 ] final  146.25 input  175.53 | X-H torsion
[ 8008 7997 7996 7995 ] final  141.46 input   59.86 | X-H torsion
[ 10167 10162 10161 10158 ] final  147.53 input  -65.29 | X-H torsion
[ 10718 10713 10712 10709 ] final -145.70 input   66.30 | X-H torsion
[ 10763 10752 10751 10750 ] final  138.10 input  -60.55 | X-H torsion
[ 11005 11000 10999 10996 ] final  -96.55 input  -57.11 | X-H torsion

> <Gold.Protein.ActiveResidues>
 VAL166  LYS551  ARG553  GLY616  TRP617  ASP618  TYR619  PRO620  LYS621  CYS622 
 ASP623  PHE694  ASN695  SER759  ASP760  ASP761  ALA762  ILE779  LEU786  VAL792 
 PHE793  MET794  SER795  GLU796  ALA797  LYS798  CYS799  TRP800  GLU811  SER814 

> <Gold.Protein.RotatedAtoms>
  150.8363  134.7637  159.6895 H   0  0  0  0  0  0  0  0  0  0  0  0  # atno 6907 bound_to 6896
  152.4459  134.5492  159.9871 H   0  0  0  0  0  0  0  0  0  0  0  0  # atno 6908 bound_to 6896
  151.5642  133.3361  159.3012 H   0  0  0  0  0  0  0  0  0  0  0  0  # atno 6909 bound_to 6896
  144.8686  139.5882  143.5897 H   0  0  0  0  0  0  0  0  0  0  0  0  # atno 7974 bound_to 7965
  156.2965  140.2314  156.4569 H   0  0  0  0  0  0  0  0  0  0  0  0  # atno 8008 bound_to 7997
  154.8053  140.0446  157.1323 H   0  0  0  0  0  0  0  0  0  0  0  0  # atno 8009 bound_to 7997
  154.9486  140.3039  155.5089 H   0  0  0  0  0  0  0  0  0  0  0  0  # atno 8010 bound_to 7997
  139.4889  144.5748  151.6985 H   0  0  0  0  0  0  0  0  0  0  0  0  # atno 10167 bound_to 10162
  156.3857  130.7860  151.2057 H   0  0  0  0  0  0  0  0  0  0  0  0  # atno 10718 bound_to 10713
  153.8840  135.3041  155.3446 H   0  0  0  0  0  0  0  0  0  0  0  0  # atno 10763 bound_to 10752
  154.7748  135.4867  153.9725 H   0  0  0  0  0  0  0  0  0  0  0  0  # atno 10764 bound_to 10752
  153.1335  135.6809  153.9237 H   0  0  0  0  0  0  0  0  0  0  0  0  # atno 10765 bound_to 10752
  141.1408  133.8106  157.0586 H   0  0  0  0  0  0  0  0  0  0  0  0  # atno 11005 bound_to 11000
  146.2914  139.7151  142.9158 LP  0  0  0  0  0  0  0  0  0  0  0  0  # atno 17320 bound_to 7965
  145.4173  141.0403  143.2984 LP  0  0  0  0  0  0  0  0  0  0  0  0  # atno 17321 bound_to 7965
  140.5343  144.0681  150.6064 LP  0  0  0  0  0  0  0  0  0  0  0  0  # atno 17342 bound_to 10162
  140.3682  143.2869  152.0308 LP  0  0  0  0  0  0  0  0  0  0  0  0  # atno 17343 bound_to 10162
  157.7495  131.0331  150.4255 LP  0  0  0  0  0  0  0  0  0  0  0  0  # atno 17370 bound_to 10713
  156.4507  130.4011  149.6638 LP  0  0  0  0  0  0  0  0  0  0  0  0  # atno 17371 bound_to 10713
  140.0585  134.9767  157.1264 LP  0  0  0  0  0  0  0  0  0  0  0  0  # atno 17394 bound_to 11000
  140.3883  134.2212  155.7167 LP  0  0  0  0  0  0  0  0  0  0  0  0  # atno 17395 bound_to 11000

$$$$
