AV-unprocessed.smi:2597|AV-procd|sdf|10177|dock9
  -GOLD-   2272014193D 1   1.00000     0.00000
 Structure written by MMmdl.
 30 31  0  0  0  0  0  0  0  0  1 V2000
  153.7030  141.4210  160.3118 N   0  0  0  0  0  0  0  0  0  0  0  0
  153.3449  142.8281  160.2716 C   0  0  2  0  0  0  0  0  0  0  0  0
  152.3006  143.1434  161.3618 C   0  0  0  0  0  0  0  0  0  0  0  0
  151.8944  144.6254  161.3255 C   0  0  0  0  0  0  0  0  0  0  0  0
  151.4003  145.0476  159.9326 C   0  0  0  0  0  0  0  0  0  0  0  0
  152.4502  144.7422  158.8480 C   0  0  0  0  0  0  0  0  0  0  0  0
  152.9146  143.2682  158.8441 C   0  0  2  0  0  0  0  0  0  0  0  0
  151.9449  142.3885  158.1863 N   0  0  0  0  0  0  0  0  0  0  0  0
  150.8054  142.7662  157.5038 C   0  0  0  0  0  0  0  0  0  0  0  0
  150.2503  141.5814  157.1132 C   0  0  0  0  0  0  0  0  0  0  0  0
  148.9998  141.3331  156.3275 C   0  0  0  0  0  0  0  0  0  0  0  0
  149.1461  142.0241  155.1057 O   0  0  0  0  0  0  0  0  0  0  0  0
  151.0530  140.5410  157.5750 N   0  0  0  0  0  0  0  0  0  0  0  0
  152.0610  141.0369  158.2202 N   0  0  0  0  0  0  0  0  0  0  0  0
  154.2502  143.3821  160.5229 H   0  0  0  0  0  0  0  0  0  0  0  0
  153.8109  143.2271  158.2233 H   0  0  0  0  0  0  0  0  0  0  0  0
  153.8874  141.1411  161.2645 H   0  0  0  0  0  0  0  0  0  0  0  0
  152.9270  140.8610  159.9891 H   0  0  0  0  0  0  0  0  0  0  0  0
  151.4164  142.5165  161.2521 H   0  0  0  0  0  0  0  0  0  0  0  0
  152.7109  142.9080  162.3446 H   0  0  0  0  0  0  0  0  0  0  0  0
  151.1188  144.8156  162.0680 H   0  0  0  0  0  0  0  0  0  0  0  0
  152.7488  145.2417  161.6082 H   0  0  0  0  0  0  0  0  0  0  0  0
  150.4612  144.5444  159.7049 H   0  0  0  0  0  0  0  0  0  0  0  0
  151.1750  146.1143  159.9323 H   0  0  0  0  0  0  0  0  0  0  0  0
  152.0643  145.0187  157.8660 H   0  0  0  0  0  0  0  0  0  0  0  0
  153.3177  145.3810  159.0187 H   0  0  0  0  0  0  0  0  0  0  0  0
  150.5056  143.7932  157.3589 H   0  0  0  0  0  0  0  0  0  0  0  0
  148.8488  140.2705  156.1335 H   0  0  0  0  0  0  0  0  0  0  0  0
  148.1205  141.7042  156.8548 H   0  0  0  0  0  0  0  0  0  0  0  0
  148.9646  142.9391  155.2552 H   0  0  0  0  0  0  0  0  0  0  0  0
  1  2  1  0  0  0  0
  1 17  1  0  0  0  0
  1 18  1  0  0  0  0
  2 15  1  0  0  0  0
  2  7  1  0  0  0  0
  2  3  1  0  0  0  0
  3  4  1  0  0  0  0
  3 19  1  0  0  0  0
  3 20  1  0  0  0  0
  4  5  1  0  0  0  0
  4 21  1  0  0  0  0
  4 22  1  0  0  0  0
  5  6  1  0  0  0  0
  5 23  1  0  0  0  0
  5 24  1  0  0  0  0
  6  7  1  0  0  0  0
  6 25  1  0  0  0  0
  6 26  1  0  0  0  0
  7 16  1  0  0  0  0
  7  8  1  0  0  0  0
  8 14  1  0  0  0  0
  8  9  1  0  0  0  0
  9 10  2  0  0  0  0
  9 27  1  0  0  0  0
 10 11  1  0  0  0  0
 10 13  1  0  0  0  0
 11 12  1  0  0  0  0
 11 28  1  0  0  0  0
 11 29  1  0  0  0  0
 12 30  1  0  0  0  0
 13 14  2  0  0  0  0
M  END
> <s_m_source_file>
AV-unprocessed.smi

> <i_m_source_file_index>
2597

> <i_lp_mmshare_version>
43012

> <i_f3d_flags>
0

> <s_epik_input>
W05IMl1bQ0BIXTFbQ0gyXVtDSDJdW0NIMl1bQ0gyXVtDQEhdMW4yW2NIXWMobm4yKVtDSDJdW09IXQ==

> <s_epik_cmdline>
J2VwaWtfcHl0aG9uJywgJy1waCcsICc3LjAnLCAnLXRuJywgJzgnLCAnLW1hJywgJzIwMCcsICctbWV0YWxfYmluZGluZycsICctaW1hZScsICc8aW5maWxlLm1hZT4nLCAnLW9tYWUnLCAnPG91dGZpbGUubWFlPic=

> <r_lp_tautomer_probability>
1

> <r_epik_Ionization_Penalty>
2.21303

> <r_epik_Ionization_Penalty_Charging>
0

> <r_epik_Ionization_Penalty_Neutral>
2.21303

> <r_epik_State_Penalty>
2.3573

> <r_epik_Charging_Adjusted_Penalty>
2.3573

> <i_epik_Tot_Q>
0

> <i_epik_Tot_abs_Q>
0

> <r_epik_Metal_State_Penalty>
2.35724

> <b_epik_Metal_Only>
0

> <s_lp_Force_Field>
OPLS_2005

> <r_lp_Energy>
16.7408

> <b_lp_Chiralities_Consistent>
1

> <s_lp_Variant>
AV-unprocessed.smi:2597-8

> <Gold.Version>
5.8.1

> <Gold.Id.Protein>
6NUR|6NUR_protein|mol2

> <Gold.PLP.Fitness>
38.6652

> <Gold.PLP.PLP>
-33.1613

> <Gold.PLP.part.hbond>
-1.0941

> <Gold.PLP.part.metal>
0.0000

> <Gold.PLP.part.buried>
-4.1997

> <Gold.PLP.part.nonpolar>
-28.4337

> <Gold.PLP.part.repulsive>
0.0000

> <Gold.PLP.ligand.clash>
0.0000

> <Gold.PLP.ligand.torsion>
0.2558

> <Gold.PLP.Chemscore.Hbond>
1.0000

> <Gold.PLP.Chemscore.CHOScore>
0.9848

> <Gold.PLP.Chemscore.Metal>
0.0000

> <Gold.Chemscore.Hbonds>
donor molecule, donor type, donor heavy atom, donor atom, acceptor molecule, acceptor atom, score
      L1  H    12    30       P1  8028  1.00
      L1  C     9    27       P1  8028  0.99

> <Gold.PLP.Chemscore.Internal.Correction>
0.0609

> <Gold.Rescore>
     Score         DG    S(hbond)    S(metal)    S(lipo)     H(rot)  DE(clash)    DE(int)     intcor
     13.69     -15.31       1.00        0.00      95.38       1.82       0.03       1.59       ----

> <Gold.Chemscore.Fitness>
13.6920

> <Gold.Chemscore.DG>
-15.3147

> <Gold.Chemscore.ZeroCoef>
-5.4800

> <Gold.Chemscore.Hbond>
1.0000

> <Gold.Chemscore.Metal>
0.0000

> <Gold.Chemscore.Lipo>
95.3821

> <Gold.Chemscore.Internal_Hbond>
0.0000

> <Gold.Chemscore.DEClash>
0.0312

> <Gold.Chemscore.DEInternal>
1.5915

> <Gold.Chemscore.Rot>
1.8222

> <Gold.Chemscore.Internal.Correction>
   9.000000E+99

> <Gold.Chemscore.Hbonds>
donor molecule, donor type, donor heavy atom, donor atom, acceptor molecule, acceptor atom, score
      L1  H    12    30       P1  8028  1.00

> <Gold.Chemscore.Hbond.Weighted>
-3.3399

> <Gold.Chemscore.Metal.Weighted>
-0.0000

> <Gold.Chemscore.Lipo.Weighted>
-11.1597

> <Gold.Chemscore.Internal_Hbond.Weighted>
0.0000

> <Gold.Chemscore.DEClash.Weighted>
0.0312

> <Gold.Chemscore.DEInternal.Weighted>
1.5915

> <Gold.Chemscore.Rot.Weighted>
4.6649

> <Gold.Chemscore.Internal.Correction.Weighted>
   9.000000E+99

> <Gold.Protein.RotatedTorsions>
[ 6907 6896 6895 6894 ] final  -78.27 input  -60.11 | X-H torsion
[ 7974 7965 7964 7962 ] final -131.90 input  175.53 | X-H torsion
[ 8008 7997 7996 7995 ] final -121.79 input   59.86 | X-H torsion
[ 10167 10162 10161 10158 ] final -120.71 input  -65.29 | X-H torsion
[ 10718 10713 10712 10709 ] final  -50.08 input   66.30 | X-H torsion
[ 10763 10752 10751 10750 ] final  103.70 input  -60.55 | X-H torsion
[ 11005 11000 10999 10996 ] final   69.48 input  -57.11 | X-H torsion

> <Gold.Protein.ActiveResidues>
 VAL166  LYS551  ARG553  GLY616  TRP617  ASP618  TYR619  PRO620  LYS621  CYS622 
 ASP623  PHE694  ASN695  SER759  ASP760  ASP761  ALA762  ILE779  LEU786  VAL792 
 PHE793  MET794  SER795  GLU796  ALA797  LYS798  CYS799  TRP800  GLU811  SER814 

> <Gold.Protein.RotatedAtoms>
  150.6977  134.4297  159.5242 H   0  0  0  0  0  0  0  0  0  0  0  0  # atno 6907 bound_to 6896
  152.2025  134.8572  160.0515 H   0  0  0  0  0  0  0  0  0  0  0  0  # atno 6908 bound_to 6896
  151.9486  133.3624  159.4028 H   0  0  0  0  0  0  0  0  0  0  0  0  # atno 6909 bound_to 6896
  144.9336  140.7157  143.4890 H   0  0  0  0  0  0  0  0  0  0  0  0  # atno 7974 bound_to 7965
  155.1537  140.0404  157.2827 H   0  0  0  0  0  0  0  0  0  0  0  0  # atno 8008 bound_to 7997
  154.6385  140.2541  155.7322 H   0  0  0  0  0  0  0  0  0  0  0  0  # atno 8009 bound_to 7997
  156.2521  140.2860  156.0769 H   0  0  0  0  0  0  0  0  0  0  0  0  # atno 8010 bound_to 7997
  140.0329  143.5230  152.2168 H   0  0  0  0  0  0  0  0  0  0  0  0  # atno 10167 bound_to 10162
  156.1834  130.4151  149.9474 H   0  0  0  0  0  0  0  0  0  0  0  0  # atno 10718 bound_to 10713
  153.3562  135.3968  155.1684 H   0  0  0  0  0  0  0  0  0  0  0  0  # atno 10763 bound_to 10752
  154.8671  135.3668  154.5158 H   0  0  0  0  0  0  0  0  0  0  0  0  # atno 10764 bound_to 10752
  153.5614  135.7081  153.5606 H   0  0  0  0  0  0  0  0  0  0  0  0  # atno 10765 bound_to 10752
  139.9651  134.6994  156.0563 H   0  0  0  0  0  0  0  0  0  0  0  0  # atno 11005 bound_to 11000
  145.3103  139.1821  143.4642 LP  0  0  0  0  0  0  0  0  0  0  0  0  # atno 17320 bound_to 7965
  146.3257  140.3106  142.8626 LP  0  0  0  0  0  0  0  0  0  0  0  0  # atno 17321 bound_to 7965
  139.6064  144.7597  151.3052 LP  0  0  0  0  0  0  0  0  0  0  0  0  # atno 17342 bound_to 10162
  140.7294  143.6908  150.7923 LP  0  0  0  0  0  0  0  0  0  0  0  0  # atno 17343 bound_to 10162
  156.7238  130.9017  151.3620 LP  0  0  0  0  0  0  0  0  0  0  0  0  # atno 17370 bound_to 10713
  157.6883  130.9207  150.0444 LP  0  0  0  0  0  0  0  0  0  0  0  0  # atno 17371 bound_to 10713
  141.1330  133.6582  156.3517 LP  0  0  0  0  0  0  0  0  0  0  0  0  # atno 17394 bound_to 11000
  140.5414  134.6116  157.5381 LP  0  0  0  0  0  0  0  0  0  0  0  0  # atno 17395 bound_to 11000

$$$$
