AV-unprocessed.smi:3228|AV-procd|sdf|12324|dock2
  -GOLD-   2272018173D 1   1.00000     0.00000
 Structure written by MMmdl.
 30 31  0  0  0  0  0  0  0  0  2 V2000
  149.7236  135.9462  158.6741 O   0  0  0  0  0  0  0  0  0  0  0  0
  148.9241  136.8830  158.6119 C   0  0  0  0  0  0  0  0  0  0  0  0
  148.7036  137.4936  157.4403 N   0  0  0  0  0  0  0  0  0  0  0  0
  149.3465  137.1464  156.1790 C   0  0  0  0  0  0  0  0  0  0  0  0
  150.5965  138.0139  155.9390 C   0  0  1  0  0  0  0  0  0  0  0  0
  151.7884  137.7070  156.8557 C   0  0  0  0  0  0  0  0  0  0  0  0
  153.0296  138.2264  156.1138 C   0  0  0  0  0  0  0  0  0  0  0  0
  152.5776  138.5639  154.6839 C   0  0  0  0  0  0  0  0  0  0  0  0
  151.1858  137.9432  154.5227 C   0  0  1  0  0  0  0  0  0  0  0  0
  151.3281  136.6048  154.0839 O   0  0  0  0  0  0  0  0  0  0  0  0
  148.2071  137.3959  159.6378 N   0  5  0  0  0  0  0  0  0  0  0  0
  147.8057  136.5990  160.6415 C   0  0  0  0  0  0  0  0  0  0  0  0
  147.8428  136.9696  161.9267 N   0  0  0  0  0  0  0  0  0  0  0  0
  147.3856  135.9833  162.8025 C   0  0  0  0  0  0  0  0  0  0  0  0
  146.9993  134.8316  162.1703 C   0  0  0  0  0  0  0  0  0  0  0  0
  147.2000  134.9518  160.4454 S   0  0  0  0  0  0  0  0  0  0  0  0
  148.0433  138.2569  157.4272 H   0  0  0  0  0  0  0  0  0  0  0  0
  149.6099  136.0878  156.1968 H   0  0  0  0  0  0  0  0  0  0  0  0
  148.6362  137.2884  155.3631 H   0  0  0  0  0  0  0  0  0  0  0  0
  150.3160  139.0547  156.1120 H   0  0  0  0  0  0  0  0  0  0  0  0
  151.6764  138.1610  157.8408 H   0  0  0  0  0  0  0  0  0  0  0  0
  151.8780  136.6296  157.0019 H   0  0  0  0  0  0  0  0  0  0  0  0
  153.4416  139.1098  156.6028 H   0  0  0  0  0  0  0  0  0  0  0  0
  153.8102  137.4651  156.1067 H   0  0  0  0  0  0  0  0  0  0  0  0
  152.4974  139.6472  154.5844 H   0  0  0  0  0  0  0  0  0  0  0  0
  153.2867  138.2251  153.9272 H   0  0  0  0  0  0  0  0  0  0  0  0
  150.5777  138.4884  153.8002 H   0  0  0  0  0  0  0  0  0  0  0  0
  151.0600  136.5570  153.1788 H   0  0  0  0  0  0  0  0  0  0  0  0
  147.3708  136.1870  163.8627 H   0  0  0  0  0  0  0  0  0  0  0  0
  146.6125  133.9247  162.6099 H   0  0  0  0  0  0  0  0  0  0  0  0
  1  2  2  0  0  0  0
  2  3  1  0  0  0  0
  2 11  1  0  0  0  0
  3  4  1  0  0  0  0
  3 17  1  0  0  0  0
  4  5  1  0  0  0  0
  4 18  1  0  0  0  0
  4 19  1  0  0  0  0
  5  9  1  0  0  0  0
  5  6  1  0  0  0  0
  5 20  1  0  0  0  0
  6  7  1  0  0  0  0
  6 21  1  0  0  0  0
  6 22  1  0  0  0  0
  7  8  1  0  0  0  0
  7 23  1  0  0  0  0
  7 24  1  0  0  0  0
  8  9  1  0  0  0  0
  8 25  1  0  0  0  0
  8 26  1  0  0  0  0
  9 10  1  0  0  0  0
  9 27  1  0  0  0  0
 10 28  1  0  0  0  0
 11 12  1  0  0  0  0
 12 16  1  0  0  0  0
 12 13  2  0  0  0  0
 13 14  1  0  0  0  0
 14 15  2  0  0  0  0
 14 29  1  0  0  0  0
 15 16  1  0  0  0  0
 15 30  1  0  0  0  0
M  CHG  1  11  -1
M  END
> <s_m_source_file>
AV-unprocessed.smi

> <i_m_source_file_index>
3228

> <i_lp_mmshare_version>
43012

> <i_f3d_flags>
0

> <s_epik_input>
czFbY0hdW2NIXW5jMVtOSF1DKD1PKVtOSF1bQ0gyXVtDQEBIXTJbQ0gyXVtDSDJdW0NIMl1bQ0BIXTJbT0hd

> <s_epik_cmdline>
J2VwaWtfcHl0aG9uJywgJy1waCcsICc3LjAnLCAnLXRuJywgJzgnLCAnLW1hJywgJzIwMCcsICctbWV0YWxfYmluZGluZycsICctaW1hZScsICc8aW5maWxlLm1hZT4nLCAnLW9tYWUnLCAnPG91dGZpbGUubWFlPic=

> <r_lp_tautomer_probability>
0.999

> <r_epik_Ionization_Penalty>
8.49756

> <r_epik_Ionization_Penalty_Charging>
6.79645

> <r_epik_Ionization_Penalty_Neutral>
1.70111

> <r_epik_State_Penalty>
6.79662

> <r_epik_Charging_Adjusted_Penalty>
13.5931

> <i_epik_Tot_Q>
-1

> <i_epik_Tot_abs_Q>
1

> <r_epik_Metal_State_Penalty>
2.71629

> <b_epik_Metal_Only>
1

> <s_lp_Force_Field>
OPLS_2005

> <r_lp_Energy>
20.5315

> <b_lp_Chiralities_Consistent>
1

> <s_lp_Variant>
AV-unprocessed.smi:3228-6

> <Gold.Version>
5.8.1

> <Gold.Id.Protein>
6NUR|6NUR_protein|mol2

> <Gold.PLP.Fitness>
41.7279

> <Gold.PLP.PLP>
-31.0354

> <Gold.PLP.part.hbond>
-6.8017

> <Gold.PLP.part.metal>
0.0000

> <Gold.PLP.part.buried>
-3.2917

> <Gold.PLP.part.nonpolar>
-21.4189

> <Gold.PLP.part.repulsive>
0.0344

> <Gold.PLP.ligand.clash>
0.0000

> <Gold.PLP.ligand.torsion>
0.7728

> <Gold.PLP.Chemscore.Hbond>
4.0725

> <Gold.PLP.Chemscore.CHOScore>
0.0000

> <Gold.PLP.Chemscore.Metal>
0.0000

> <Gold.Chemscore.Hbonds>
donor molecule, donor type, donor heavy atom, donor atom, acceptor molecule, acceptor atom, score
      L1  H    10    28       P1  7949  1.00
      P1  H  6896  6908       L1     1  1.00
      P1  H  6931  6943       L1    13  1.00
      P1  H  6934  6947       L1    11  0.05
      P1  H 10752 10764       L1    10  1.00

> <Gold.PLP.Chemscore.Internal.Correction>
0.0205

> <Gold.Rescore>
     Score         DG    S(hbond)    S(metal)    S(lipo)     H(rot)  DE(clash)    DE(int)     intcor
     19.06     -19.80       3.58        0.00      60.76       1.85       0.06       0.68       ----

> <Gold.Chemscore.Fitness>
19.0636

> <Gold.Chemscore.DG>
-19.8043

> <Gold.Chemscore.ZeroCoef>
-5.4800

> <Gold.Chemscore.Hbond>
3.5769

> <Gold.Chemscore.Metal>
0.0000

> <Gold.Chemscore.Lipo>
60.7580

> <Gold.Chemscore.Internal_Hbond>
0.0000

> <Gold.Chemscore.DEClash>
0.0613

> <Gold.Chemscore.DEInternal>
0.6793

> <Gold.Chemscore.Rot>
1.8481

> <Gold.Chemscore.Internal.Correction>
   9.000000E+99

> <Gold.Chemscore.Hbonds>
donor molecule, donor type, donor heavy atom, donor atom, acceptor molecule, acceptor atom, score
      L1  H    10    28       P1  7949  0.29
      P1  H  6896  6908       L1     1  0.97
      P1  H  6931  6943       L1    13  0.39
      P1  H 10752 10764       L1    10  0.39

> <Gold.Chemscore.Hbond.Weighted>
-11.9469

> <Gold.Chemscore.Metal.Weighted>
-0.0000

> <Gold.Chemscore.Lipo.Weighted>
-7.1087

> <Gold.Chemscore.Internal_Hbond.Weighted>
0.0000

> <Gold.Chemscore.DEClash.Weighted>
0.0613

> <Gold.Chemscore.DEInternal.Weighted>
0.6793

> <Gold.Chemscore.Rot.Weighted>
4.7313

> <Gold.Chemscore.Internal.Correction.Weighted>
   9.000000E+99

> <Gold.Protein.RotatedTorsions>
[ 6907 6896 6895 6894 ] final  167.40 input  -60.11 | X-H torsion
[ 7974 7965 7964 7962 ] final -179.11 input  175.53 | X-H torsion
[ 8008 7997 7996 7995 ] final -171.12 input   59.86 | X-H torsion
[ 10167 10162 10161 10158 ] final -139.76 input  -65.29 | X-H torsion
[ 10718 10713 10712 10709 ] final   89.77 input   66.30 | X-H torsion
[ 10763 10752 10751 10750 ] final  -88.96 input  -60.55 | X-H torsion
[ 11005 11000 10999 10996 ] final  -93.55 input  -57.11 | X-H torsion

> <Gold.Protein.ActiveResidues>
 VAL166  LYS551  ARG553  GLY616  TRP617  ASP618  TYR619  PRO620  LYS621  CYS622 
 ASP623  PHE694  ASN695  SER759  ASP760  ASP761  ALA762  ILE779  LEU786  VAL792 
 PHE793  MET794  SER795  GLU796  ALA797  LYS798  CYS799  TRP800  GLU811  SER814 

> <Gold.Protein.RotatedAtoms>
  151.8640  133.3462  159.3712 H   0  0  0  0  0  0  0  0  0  0  0  0  # atno 6907 bound_to 6896
  150.7171  134.5178  159.5648 H   0  0  0  0  0  0  0  0  0  0  0  0  # atno 6908 bound_to 6896
  152.2698  134.7946  160.0467 H   0  0  0  0  0  0  0  0  0  0  0  0  # atno 6909 bound_to 6896
  144.7134  140.0767  143.6427 H   0  0  0  0  0  0  0  0  0  0  0  0  # atno 7974 bound_to 7965
  155.9274  140.1085  157.1159 H   0  0  0  0  0  0  0  0  0  0  0  0  # atno 8008 bound_to 7997
  154.4064  140.1244  156.4823 H   0  0  0  0  0  0  0  0  0  0  0  0  # atno 8009 bound_to 7997
  155.7122  140.3471  155.4981 H   0  0  0  0  0  0  0  0  0  0  0  0  # atno 8010 bound_to 7997
  139.8348  143.7399  152.2665 H   0  0  0  0  0  0  0  0  0  0  0  0  # atno 10167 bound_to 10162
  157.6957  131.0345  150.3476 H   0  0  0  0  0  0  0  0  0  0  0  0  # atno 10718 bound_to 10713
  154.6501  135.5358  153.7892 H   0  0  0  0  0  0  0  0  0  0  0  0  # atno 10763 bound_to 10752
  153.0381  135.6480  154.1029 H   0  0  0  0  0  0  0  0  0  0  0  0  # atno 10764 bound_to 10752
  154.0947  135.2937  155.3244 H   0  0  0  0  0  0  0  0  0  0  0  0  # atno 10765 bound_to 10752
  141.1494  133.7895  157.0174 H   0  0  0  0  0  0  0  0  0  0  0  0  # atno 11005 bound_to 11000
  145.9737  139.2888  143.1083 LP  0  0  0  0  0  0  0  0  0  0  0  0  # atno 17320 bound_to 7965
  145.9088  140.9194  143.0464 LP  0  0  0  0  0  0  0  0  0  0  0  0  # atno 17321 bound_to 7965
  139.7618  144.7504  151.0353 LP  0  0  0  0  0  0  0  0  0  0  0  0  # atno 17342 bound_to 10162
  140.7803  143.4742  151.0105 LP  0  0  0  0  0  0  0  0  0  0  0  0  # atno 17343 bound_to 10162
  156.3928  130.3901  149.7017 LP  0  0  0  0  0  0  0  0  0  0  0  0  # atno 17370 bound_to 10713
  156.4361  130.7838  151.2859 LP  0  0  0  0  0  0  0  0  0  0  0  0  # atno 17371 bound_to 10713
  140.0838  134.9633  157.1666 LP  0  0  0  0  0  0  0  0  0  0  0  0  # atno 17394 bound_to 11000
  140.3540  134.2567  155.7195 LP  0  0  0  0  0  0  0  0  0  0  0  0  # atno 17395 bound_to 11000

$$$$
