AV-unprocessed.smi:3141|AV-procd|sdf|11966|dock9
  -GOLD-   2272017363D 1   1.00000     0.00000
 Structure written by MMmdl.
 35 37  0  0  0  0  0  0  0  0  1 V2000
  151.5305  141.9415  158.2705 O   0  0  0  0  0  0  0  0  0  0  0  0
  151.1179  142.5406  157.2770 C   0  0  0  0  0  0  0  0  0  0  0  0
  151.1672  143.8703  157.1236 N   0  0  0  0  0  0  0  0  0  0  0  0
  151.7017  144.7920  158.0727 C   0  0  0  0  0  0  0  0  0  0  0  0
  152.7761  144.2906  159.0137 C   0  0  0  0  0  0  0  0  0  0  0  0
  151.3899  144.5526  159.5343 C   0  0  0  0  0  0  0  0  0  0  0  0
  150.5589  141.9397  156.2174 N   0  0  0  0  0  0  0  0  0  0  0  0
  150.3433  140.5008  156.0919 C   0  0  2  0  0  0  0  0  0  0  0  0
  151.5893  139.7257  156.5613 C   0  0  0  0  0  0  0  0  0  0  0  0
  152.2044  139.1031  155.3064 C   0  0  0  0  0  0  0  0  0  0  0  0
  151.0127  138.8619  154.3859 C   0  0  0  0  0  0  0  0  0  0  0  0
  150.1201  140.0870  154.6172 C   0  0  1  0  0  0  0  0  0  0  0  0
  148.7231  139.8529  154.2858 N   0  0  0  0  0  0  0  0  0  0  0  0
  147.6997  140.7920  154.2970 C   0  0  0  0  0  0  0  0  0  0  0  0
  146.5511  140.1303  153.9263 C   0  0  0  0  0  0  0  0  0  0  0  0
  146.8400  138.7901  153.6829 N   0  0  0  0  0  0  0  0  0  0  0  0
  148.1425  138.7007  153.9179 C   0  0  0  0  0  0  0  0  0  0  0  0
  150.8005  144.2625  156.2688 H   0  0  0  0  0  0  0  0  0  0  0  0
  151.7816  145.8343  157.7670 H   0  0  0  0  0  0  0  0  0  0  0  0
  153.0903  143.2527  158.9224 H   0  0  0  0  0  0  0  0  0  0  0  0
  153.5596  144.9902  159.2984 H   0  0  0  0  0  0  0  0  0  0  0  0
  151.2478  145.4270  160.1662 H   0  0  0  0  0  0  0  0  0  0  0  0
  150.7796  143.6887  159.7912 H   0  0  0  0  0  0  0  0  0  0  0  0
  150.2506  142.5163  155.4482 H   0  0  0  0  0  0  0  0  0  0  0  0
  149.5017  140.2080  156.7228 H   0  0  0  0  0  0  0  0  0  0  0  0
  152.3068  140.3434  157.1035 H   0  0  0  0  0  0  0  0  0  0  0  0
  151.2794  138.9292  157.2393 H   0  0  0  0  0  0  0  0  0  0  0  0
  152.8897  139.8127  154.8411 H   0  0  0  0  0  0  0  0  0  0  0  0
  152.7623  138.1912  155.5202 H   0  0  0  0  0  0  0  0  0  0  0  0
  151.3062  138.7494  153.3417 H   0  0  0  0  0  0  0  0  0  0  0  0
  150.5048  137.9454  154.6892 H   0  0  0  0  0  0  0  0  0  0  0  0
  150.4888  140.8802  153.9635 H   0  0  0  0  0  0  0  0  0  0  0  0
  147.8673  141.8248  154.5644 H   0  0  0  0  0  0  0  0  0  0  0  0
  145.5470  140.5129  153.8182 H   0  0  0  0  0  0  0  0  0  0  0  0
  148.6876  137.7730  153.8218 H   0  0  0  0  0  0  0  0  0  0  0  0
  1  2  2  0  0  0  0
  2  3  1  0  0  0  0
  2  7  1  0  0  0  0
  3  4  1  0  0  0  0
  3 18  1  0  0  0  0
  4  6  1  0  0  0  0
  4  5  1  0  0  0  0
  4 19  1  0  0  0  0
  5  6  1  0  0  0  0
  5 20  1  0  0  0  0
  5 21  1  0  0  0  0
  6 22  1  0  0  0  0
  6 23  1  0  0  0  0
  7  8  1  0  0  0  0
  7 24  1  0  0  0  0
  8 12  1  0  0  0  0
  8  9  1  0  0  0  0
  8 25  1  0  0  0  0
  9 10  1  0  0  0  0
  9 26  1  0  0  0  0
  9 27  1  0  0  0  0
 10 11  1  0  0  0  0
 10 28  1  0  0  0  0
 10 29  1  0  0  0  0
 11 12  1  0  0  0  0
 11 30  1  0  0  0  0
 11 31  1  0  0  0  0
 12 13  1  0  0  0  0
 12 32  1  0  0  0  0
 13 17  1  0  0  0  0
 13 14  1  0  0  0  0
 14 15  2  0  0  0  0
 14 33  1  0  0  0  0
 15 16  1  0  0  0  0
 15 34  1  0  0  0  0
 16 17  2  0  0  0  0
 17 35  1  0  0  0  0
M  END
> <s_m_source_file>
AV-unprocessed.smi

> <i_m_source_file_index>
3141

> <i_lp_mmshare_version>
43012

> <i_f3d_flags>
0

> <s_epik_input>
W0NIMl0xW0NIMl1bQ0hdMVtOSF1DKD1PKVtOSF1bQ0BASF0yW0NIMl1bQ0gyXVtDSDJdW0NASF0ybjNbY0hdW2NIXW5bY0hdMw==

> <s_epik_cmdline>
J2VwaWtfcHl0aG9uJywgJy1waCcsICc3LjAnLCAnLXRuJywgJzgnLCAnLW1hJywgJzIwMCcsICctbWV0YWxfYmluZGluZycsICctaW1hZScsICc8aW5maWxlLm1hZT4nLCAnLW9tYWUnLCAnPG91dGZpbGUubWFlPic=

> <r_lp_tautomer_probability>
1

> <r_epik_Ionization_Penalty>
0.728419

> <r_epik_Ionization_Penalty_Charging>
0.728357

> <r_epik_Ionization_Penalty_Neutral>
6.27871e-05

> <r_epik_State_Penalty>
0.753408

> <r_epik_Charging_Adjusted_Penalty>
1.48176

> <i_epik_Tot_Q>
0

> <i_epik_Tot_abs_Q>
0

> <r_epik_Metal_State_Penalty>
0.332413

> <b_epik_Metal_Only>
0

> <s_lp_Force_Field>
OPLS_2005

> <r_lp_Energy>
34.1677

> <b_lp_Chiralities_Consistent>
1

> <s_lp_Variant>
AV-unprocessed.smi:3141-5

> <Gold.Version>
5.8.1

> <Gold.Id.Protein>
6NUR|6NUR_protein|mol2

> <Gold.PLP.Fitness>
41.2982

> <Gold.PLP.PLP>
-34.4233

> <Gold.PLP.part.hbond>
-1.1386

> <Gold.PLP.part.metal>
0.0000

> <Gold.PLP.part.buried>
-3.2392

> <Gold.PLP.part.nonpolar>
-30.7922

> <Gold.PLP.part.repulsive>
0.3133

> <Gold.PLP.ligand.clash>
0.0000

> <Gold.PLP.ligand.torsion>
0.5905

> <Gold.PLP.Chemscore.Hbond>
0.6720

> <Gold.PLP.Chemscore.CHOScore>
2.0000

> <Gold.PLP.Chemscore.Metal>
0.0000

> <Gold.Chemscore.Hbonds>
donor molecule, donor type, donor heavy atom, donor atom, acceptor molecule, acceptor atom, score
      L1  H     3    18       P1  8028  0.65
      L1  C    15    34       P1 10175  1.00
      L1  C    17    35       P1  7948  1.00

> <Gold.PLP.Chemscore.Internal.Correction>
0.0398

> <Gold.Rescore>
     Score         DG    S(hbond)    S(metal)    S(lipo)     H(rot)  DE(clash)    DE(int)     intcor
      9.53     -14.53       0.92        0.00      85.43       1.57       0.11       4.89       ----

> <Gold.Chemscore.Fitness>
9.5346

> <Gold.Chemscore.DG>
-14.5335

> <Gold.Chemscore.ZeroCoef>
-5.4800

> <Gold.Chemscore.Hbond>
0.9218

> <Gold.Chemscore.Metal>
0.0000

> <Gold.Chemscore.Lipo>
85.4298

> <Gold.Chemscore.Internal_Hbond>
0.0000

> <Gold.Chemscore.DEClash>
0.1062

> <Gold.Chemscore.DEInternal>
4.8927

> <Gold.Chemscore.Rot>
1.5705

> <Gold.Chemscore.Internal.Correction>
   9.000000E+99

> <Gold.Chemscore.Hbonds>
donor molecule, donor type, donor heavy atom, donor atom, acceptor molecule, acceptor atom, score
      L1  H     3    18       P1  8028  0.61

> <Gold.Chemscore.Hbond.Weighted>
-3.0788

> <Gold.Chemscore.Metal.Weighted>
-0.0000

> <Gold.Chemscore.Lipo.Weighted>
-9.9953

> <Gold.Chemscore.Internal_Hbond.Weighted>
0.0000

> <Gold.Chemscore.DEClash.Weighted>
0.1062

> <Gold.Chemscore.DEInternal.Weighted>
4.8927

> <Gold.Chemscore.Rot.Weighted>
4.0206

> <Gold.Chemscore.Internal.Correction.Weighted>
   9.000000E+99

> <Gold.Protein.RotatedTorsions>
[ 6907 6896 6895 6894 ] final -161.46 input  -60.11 | X-H torsion
[ 7974 7965 7964 7962 ] final   54.17 input  175.53 | X-H torsion
[ 8008 7997 7996 7995 ] final -118.78 input   59.86 | X-H torsion
[ 10167 10162 10161 10158 ] final  149.11 input  -65.29 | X-H torsion
[ 10718 10713 10712 10709 ] final   71.00 input   66.30 | X-H torsion
[ 10763 10752 10751 10750 ] final -111.00 input  -60.55 | X-H torsion
[ 11005 11000 10999 10996 ] final   50.40 input  -57.11 | X-H torsion

> <Gold.Protein.ActiveResidues>
 VAL166  LYS551  ARG553  GLY616  TRP617  ASP618  TYR619  PRO620  LYS621  CYS622 
 ASP623  PHE694  ASN695  SER759  ASP760  ASP761  ALA762  ILE779  LEU786  VAL792 
 PHE793  MET794  SER795  GLU796  ALA797  LYS798  CYS799  TRP800  GLU811  SER814 

> <Gold.Protein.RotatedAtoms>
  151.3651  133.3875  159.2693 H   0  0  0  0  0  0  0  0  0  0  0  0  # atno 6907 bound_to 6896
  150.9695  134.9071  159.7790 H   0  0  0  0  0  0  0  0  0  0  0  0  # atno 6908 bound_to 6896
  152.5179  134.3612  159.9337 H   0  0  0  0  0  0  0  0  0  0  0  0  # atno 6909 bound_to 6896
  145.9636  139.4082  143.0233 H   0  0  0  0  0  0  0  0  0  0  0  0  # atno 7974 bound_to 7965
  155.1051  140.0396  157.2708 H   0  0  0  0  0  0  0  0  0  0  0  0  # atno 8008 bound_to 7997
  154.6728  140.2616  155.6964 H   0  0  0  0  0  0  0  0  0  0  0  0  # atno 8009 bound_to 7997
  156.2665  140.2794  156.1243 H   0  0  0  0  0  0  0  0  0  0  0  0  # atno 8010 bound_to 7997
  139.4866  144.5627  151.7202 H   0  0  0  0  0  0  0  0  0  0  0  0  # atno 10167 bound_to 10162
  157.6429  130.9506  150.0729 H   0  0  0  0  0  0  0  0  0  0  0  0  # atno 10718 bound_to 10713
  154.8278  135.4543  154.0972 H   0  0  0  0  0  0  0  0  0  0  0  0  # atno 10763 bound_to 10752
  153.2272  135.6901  153.7938 H   0  0  0  0  0  0  0  0  0  0  0  0  # atno 10764 bound_to 10752
  153.7334  135.3323  155.3266 H   0  0  0  0  0  0  0  0  0  0  0  0  # atno 10765 bound_to 10752
  140.1020  134.5068  155.8754 H   0  0  0  0  0  0  0  0  0  0  0  0  # atno 11005 bound_to 11000
  145.8005  140.9773  143.1001 LP  0  0  0  0  0  0  0  0  0  0  0  0  # atno 17320 bound_to 7965
  144.6820  139.9796  143.7483 LP  0  0  0  0  0  0  0  0  0  0  0  0  # atno 17321 bound_to 7965
  140.5199  144.0894  150.6019 LP  0  0  0  0  0  0  0  0  0  0  0  0  # atno 17342 bound_to 10162
  140.3849  143.2783  152.0128 LP  0  0  0  0  0  0  0  0  0  0  0  0  # atno 17343 bound_to 10162
  156.1728  130.3647  149.9142 LP  0  0  0  0  0  0  0  0  0  0  0  0  # atno 17370 bound_to 10713
  156.7113  130.8971  151.3609 LP  0  0  0  0  0  0  0  0  0  0  0  0  # atno 17371 bound_to 10713
  141.2108  133.6699  156.6537 LP  0  0  0  0  0  0  0  0  0  0  0  0  # atno 17394 bound_to 11000
  140.3207  134.8010  157.4250 LP  0  0  0  0  0  0  0  0  0  0  0  0  # atno 17395 bound_to 11000

$$$$
