AV-unprocessed.smi:511|AV-procd|sdf|2766|dock10
  -GOLD-   2262023233D 1   1.00000     0.00000
 Structure written by MMmdl.
 45 47  0  0  0  0  0  0  0  0  3 V2000
  149.4760  131.0519  154.3728 C   0  0  0  0  0  0  0  0  0  0  0  0
  150.3529  131.9938  154.9650 O   0  0  0  0  0  0  0  0  0  0  0  0
  150.0233  133.3293  154.6232 C   0  0  0  0  0  0  0  0  0  0  0  0
  148.9938  133.8599  155.6288 C   0  0  0  0  0  0  0  0  0  0  0  0
  148.5255  135.1941  155.2603 N   0  0  0  0  0  0  0  0  0  0  0  0
  147.2704  135.5823  154.9086 C   0  0  0  0  0  0  0  0  0  0  0  0
  146.1904  134.6995  154.9184 N   0  0  0  0  0  0  0  0  0  0  0  0
  144.7861  135.1040  154.9306 C   0  0  0  0  0  0  0  0  0  0  0  0
  144.1557  134.9825  153.5306 C   0  0  0  0  0  0  0  0  0  0  0  0
  144.3016  133.6068  152.9974 N   0  3  0  0  0  0  0  0  0  0  0  0
  143.7013  133.4492  151.6557 C   0  0  0  0  0  0  0  0  0  0  0  0
  145.7074  133.1406  153.0531 C   0  0  0  0  0  0  0  0  0  0  0  0
  146.2793  133.3130  154.4710 C   0  0  0  0  0  0  0  0  0  0  0  0
  147.1629  136.8600  154.5397 N   0  0  0  0  0  0  0  0  0  0  0  0
  148.4548  137.3378  154.7000 C   0  0  0  0  0  0  0  0  0  0  0  0
  149.2920  136.3568  155.1319 C   0  0  0  0  0  0  0  0  0  0  0  0
  150.7377  136.5567  155.3743 C   0  0  0  0  0  0  0  0  0  0  0  0
  151.4519  135.6292  155.7493 O   0  0  0  0  0  0  0  0  0  0  0  0
  151.1286  137.8477  155.1313 N   0  5  0  0  0  0  0  0  0  0  0  0
  150.3153  138.8733  154.6992 C   0  0  0  0  0  0  0  0  0  0  0  0
  150.7484  140.0102  154.5072 O   0  0  0  0  0  0  0  0  0  0  0  0
  148.9844  138.6372  154.4729 N   0  0  0  0  0  0  0  0  0  0  0  0
  148.0966  139.7069  154.0081 C   0  0  0  0  0  0  0  0  0  0  0  0
  149.7725  130.0437  154.6617 H   0  0  0  0  0  0  0  0  0  0  0  0
  149.5073  131.1126  153.2840 H   0  0  0  0  0  0  0  0  0  0  0  0
  148.4483  131.2086  154.7028 H   0  0  0  0  0  0  0  0  0  0  0  0
  150.9204  133.9501  154.6329 H   0  0  0  0  0  0  0  0  0  0  0  0
  149.6110  133.3633  153.6133 H   0  0  0  0  0  0  0  0  0  0  0  0
  148.1606  133.1644  155.6821 H   0  0  0  0  0  0  0  0  0  0  0  0
  149.4113  133.8912  156.6345 H   0  0  0  0  0  0  0  0  0  0  0  0
  144.2400  134.4952  155.6522 H   0  0  0  0  0  0  0  0  0  0  0  0
  144.6990  136.1394  155.2597 H   0  0  0  0  0  0  0  0  0  0  0  0
  143.0990  135.2482  153.5767 H   0  0  0  0  0  0  0  0  0  0  0  0
  144.6339  135.6883  152.8490 H   0  0  0  0  0  0  0  0  0  0  0  0
  144.2109  134.0750  150.9219 H   0  0  0  0  0  0  0  0  0  0  0  0
  142.6473  133.7287  151.6712 H   0  0  0  0  0  0  0  0  0  0  0  0
  143.7661  132.4123  151.3248 H   0  0  0  0  0  0  0  0  0  0  0  0
  145.7582  132.0919  152.7588 H   0  0  0  0  0  0  0  0  0  0  0  0
  146.3089  133.7042  152.3378 H   0  0  0  0  0  0  0  0  0  0  0  0
  147.3210  132.9902  154.4934 H   0  0  0  0  0  0  0  0  0  0  0  0
  145.7443  132.6746  155.1754 H   0  0  0  0  0  0  0  0  0  0  0  0
  148.4663  140.1345  153.0750 H   0  0  0  0  0  0  0  0  0  0  0  0
  148.0410  140.5044  154.7502 H   0  0  0  0  0  0  0  0  0  0  0  0
  147.0800  139.3601  153.8235 H   0  0  0  0  0  0  0  0  0  0  0  0
  143.7801  133.0060  153.6197 H   0  0  0  0  0  0  0  0  0  0  0  0
  1  2  1  0  0  0  0
  1 24  1  0  0  0  0
  1 25  1  0  0  0  0
  1 26  1  0  0  0  0
  2  3  1  0  0  0  0
  3  4  1  0  0  0  0
  3 27  1  0  0  0  0
  3 28  1  0  0  0  0
  4  5  1  0  0  0  0
  4 29  1  0  0  0  0
  4 30  1  0  0  0  0
  5 16  1  0  0  0  0
  5  6  1  0  0  0  0
  6  7  1  0  0  0  0
  6 14  2  0  0  0  0
  7 13  1  0  0  0  0
  7  8  1  0  0  0  0
  8  9  1  0  0  0  0
  8 31  1  0  0  0  0
  8 32  1  0  0  0  0
  9 10  1  0  0  0  0
  9 33  1  0  0  0  0
  9 34  1  0  0  0  0
 10 11  1  0  0  0  0
 10 12  1  0  0  0  0
 10 45  1  0  0  0  0
 11 35  1  0  0  0  0
 11 36  1  0  0  0  0
 11 37  1  0  0  0  0
 12 13  1  0  0  0  0
 12 38  1  0  0  0  0
 12 39  1  0  0  0  0
 13 40  1  0  0  0  0
 13 41  1  0  0  0  0
 14 15  1  0  0  0  0
 15 22  1  0  0  0  0
 15 16  2  0  0  0  0
 16 17  1  0  0  0  0
 17 18  2  0  0  0  0
 17 19  1  0  0  0  0
 19 20  1  0  0  0  0
 20 21  2  0  0  0  0
 20 22  1  0  0  0  0
 22 23  1  0  0  0  0
 23 42  1  0  0  0  0
 23 43  1  0  0  0  0
 23 44  1  0  0  0  0
M  CHG  1  10   1
M  CHG  1  19  -1
M  END
> <s_m_source_file>
AV-unprocessed.smi

> <i_m_source_file_index>
511

> <i_lp_mmshare_version>
43012

> <i_f3d_flags>
0

> <s_epik_input>
W0NIM11uMWMoPU8pW25IXWMoPU8pYyhjMTIpbihbQ0gyXVtDSDJdT1tDSDNdKWMobjIpTjNbQ0gyXVtDSDJdTihbQ0gzXSlbQ0gyXVtDSDJdMw==

> <s_epik_cmdline>
J2VwaWtfcHl0aG9uJywgJy1waCcsICc3LjAnLCAnLXRuJywgJzgnLCAnLW1hJywgJzIwMCcsICctbWV0YWxfYmluZGluZycsICctaW1hZScsICc8aW5maWxlLm1hZT4nLCAnLW9tYWUnLCAnPG91dGZpbGUubWFlPic=

> <r_epik_Ionization_Penalty>
5.9833

> <r_epik_Ionization_Penalty_Charging>
0.125752

> <r_epik_Ionization_Penalty_Neutral>
5.85754

> <r_epik_State_Penalty>
5.9139

> <r_epik_Charging_Adjusted_Penalty>
6.03966

> <i_epik_Tot_Q>
0

> <i_epik_Tot_abs_Q>
2

> <r_epik_Metal_State_Penalty>
1.87741

> <b_epik_Metal_Only>
1

> <s_lp_Force_Field>
OPLS_2005

> <r_lp_Energy>
51.0512

> <b_lp_Chiralities_Consistent>
1

> <s_lp_Variant>
AV-unprocessed.smi:511-3

> <Gold.Version>
5.8.1

> <Gold.Id.Protein>
6NUR|6NUR_protein|mol2

> <Gold.PLP.Fitness>
35.1970

> <Gold.PLP.PLP>
-23.7835

> <Gold.PLP.part.hbond>
-2.9741

> <Gold.PLP.part.metal>
0.0000

> <Gold.PLP.part.buried>
-4.1200

> <Gold.PLP.part.nonpolar>
-17.0778

> <Gold.PLP.part.repulsive>
0.3261

> <Gold.PLP.ligand.clash>
0.0000

> <Gold.PLP.ligand.torsion>
0.5733

> <Gold.PLP.Chemscore.Hbond>
4.0000

> <Gold.PLP.Chemscore.CHOScore>
0.0000

> <Gold.PLP.Chemscore.Metal>
0.0000

> <Gold.Chemscore.Hbonds>
donor molecule, donor type, donor heavy atom, donor atom, acceptor molecule, acceptor atom, score
      L1  H    10    45       P1 10957  2.00
      P1  H  7989  7998       L1    21  1.00
      P1  H 10752 10764       L1    18  1.00

> <Gold.PLP.Chemscore.Internal.Correction>
0.5601

> <Gold.Rescore>
     Score         DG    S(hbond)    S(metal)    S(lipo)     H(rot)  DE(clash)    DE(int)     intcor
     15.32     -16.11       2.96        0.00      38.94       1.49       0.01       0.77       ----

> <Gold.Chemscore.Fitness>
15.3229

> <Gold.Chemscore.DG>
-16.1103

> <Gold.Chemscore.ZeroCoef>
-5.4800

> <Gold.Chemscore.Hbond>
2.9619

> <Gold.Chemscore.Metal>
0.0000

> <Gold.Chemscore.Lipo>
38.9382

> <Gold.Chemscore.Internal_Hbond>
0.0000

> <Gold.Chemscore.DEClash>
0.0137

> <Gold.Chemscore.DEInternal>
0.7738

> <Gold.Chemscore.Rot>
1.4915

> <Gold.Chemscore.Internal.Correction>
   9.000000E+99

> <Gold.Chemscore.Hbonds>
donor molecule, donor type, donor heavy atom, donor atom, acceptor molecule, acceptor atom, score
      L1  H    10    45       P1 10957  0.85
      P1  H  7989  7998       L1    21  0.98
      P1  H 10752 10764       L1    18  0.85

> <Gold.Chemscore.Hbond.Weighted>
-9.8929

> <Gold.Chemscore.Metal.Weighted>
-0.0000

> <Gold.Chemscore.Lipo.Weighted>
-4.5558

> <Gold.Chemscore.Internal_Hbond.Weighted>
0.0000

> <Gold.Chemscore.DEClash.Weighted>
0.0137

> <Gold.Chemscore.DEInternal.Weighted>
0.7738

> <Gold.Chemscore.Rot.Weighted>
3.8183

> <Gold.Chemscore.Internal.Correction.Weighted>
   9.000000E+99

> <Gold.Protein.RotatedTorsions>
[ 6907 6896 6895 6894 ] final   56.96 input  -60.11 | X-H torsion
[ 7974 7965 7964 7962 ] final  -61.08 input  175.53 | X-H torsion
[ 8008 7997 7996 7995 ] final  118.28 input   59.86 | X-H torsion
[ 10167 10162 10161 10158 ] final   -2.91 input  -65.29 | X-H torsion
[ 10718 10713 10712 10709 ] final  129.85 input   66.30 | X-H torsion
[ 10763 10752 10751 10750 ] final  -45.29 input  -60.55 | X-H torsion
[ 11005 11000 10999 10996 ] final   70.25 input  -57.11 | X-H torsion

> <Gold.Protein.ActiveResidues>
 VAL166  LYS551  ARG553  GLY616  TRP617  ASP618  TYR619  PRO620  LYS621  CYS622 
 ASP623  PHE694  ASN695  SER759  ASP760  ASP761  ALA762  ILE779  LEU786  VAL792 
 PHE793  MET794  SER795  GLU796  ALA797  LYS798  CYS799  TRP800  GLU811  SER814 

> <Gold.Protein.RotatedAtoms>
  152.3686  134.6767  160.0183 H   0  0  0  0  0  0  0  0  0  0  0  0  # atno 6907 bound_to 6896
  151.7067  133.3306  159.3288 H   0  0  0  0  0  0  0  0  0  0  0  0  # atno 6908 bound_to 6896
  150.7657  134.6503  159.6329 H   0  0  0  0  0  0  0  0  0  0  0  0  # atno 6909 bound_to 6896
  145.8078  140.8617  143.0198 H   0  0  0  0  0  0  0  0  0  0  0  0  # atno 7974 bound_to 7965
  156.2538  140.2878  156.0810 H   0  0  0  0  0  0  0  0  0  0  0  0  # atno 8008 bound_to 7997
  155.1567  140.0398  157.2850 H   0  0  0  0  0  0  0  0  0  0  0  0  # atno 8009 bound_to 7997
  154.6422  140.2525  155.7315 H   0  0  0  0  0  0  0  0  0  0  0  0  # atno 8010 bound_to 7997
  140.6869  143.6602  150.8274 H   0  0  0  0  0  0  0  0  0  0  0  0  # atno 10167 bound_to 10162
  157.5116  131.1097  150.9285 H   0  0  0  0  0  0  0  0  0  0  0  0  # atno 10718 bound_to 10713
  154.0262  135.6663  153.4776 H   0  0  0  0  0  0  0  0  0  0  0  0  # atno 10763 bound_to 10752
  153.0559  135.5056  154.7976 H   0  0  0  0  0  0  0  0  0  0  0  0  # atno 10764 bound_to 10752
  154.6907  135.3061  154.9449 H   0  0  0  0  0  0  0  0  0  0  0  0  # atno 10765 bound_to 10752
  139.9608  134.7064  156.0650 H   0  0  0  0  0  0  0  0  0  0  0  0  # atno 11005 bound_to 11000
  144.6761  140.0352  143.7482 LP  0  0  0  0  0  0  0  0  0  0  0  0  # atno 17320 bound_to 7965
  145.9810  139.2941  143.1042 LP  0  0  0  0  0  0  0  0  0  0  0  0  # atno 17321 bound_to 7965
  140.0310  143.5444  152.2760 LP  0  0  0  0  0  0  0  0  0  0  0  0  # atno 17342 bound_to 10162
  139.6236  144.7633  151.2686 LP  0  0  0  0  0  0  0  0  0  0  0  0  # atno 17343 bound_to 10162
  156.9923  130.5568  149.5304 LP  0  0  0  0  0  0  0  0  0  0  0  0  # atno 17370 bound_to 10713
  156.0293  130.5385  150.8491 LP  0  0  0  0  0  0  0  0  0  0  0  0  # atno 17371 bound_to 10713
  141.1285  133.6593  156.3401 LP  0  0  0  0  0  0  0  0  0  0  0  0  # atno 17394 bound_to 11000
  140.5504  134.6033  157.5406 LP  0  0  0  0  0  0  0  0  0  0  0  0  # atno 17395 bound_to 11000

$$$$
