AV-unprocessed.smi:1916|AV-procd|sdf|7765|dock8
  -GOLD-   22720 9513D 1   1.00000     0.00000
 Structure written by MMmdl.
 45 47  0  0  0  0  0  0  0  0  1 V2000
  152.8560  139.5314  155.0918 O   0  0  0  0  0  0  0  0  0  0  0  0
  151.6351  139.4867  155.2470 C   0  0  0  0  0  0  0  0  0  0  0  0
  150.9927  140.1324  156.2332 N   0  0  0  0  0  0  0  0  0  0  0  0
  151.6193  140.9969  157.2307 C   0  0  0  0  0  0  0  0  0  0  0  0
  150.6029  141.5665  158.2413 C   0  0  0  0  0  0  0  0  0  0  0  0
  151.0189  142.8978  158.8442 C   0  0  0  0  0  0  0  0  0  0  0  0
  152.1529  142.9897  159.6801 C   0  0  0  0  0  0  0  0  0  0  0  0
  152.4701  144.2401  160.2446 C   0  0  0  0  0  0  0  0  0  0  0  0
  151.6494  145.3454  159.9492 C   0  0  0  0  0  0  0  0  0  0  0  0
  150.5444  145.1508  159.0967 C   0  0  0  0  0  0  0  0  0  0  0  0
  150.2311  143.9565  158.5499 N   0  0  0  0  0  0  0  0  0  0  0  0
  150.7618  138.6776  154.2751 C   0  0  1  0  0  0  0  0  0  0  0  0
  149.9246  137.6267  155.0252 C   0  0  0  0  0  0  0  0  0  0  0  0
  148.5134  138.1880  154.9787 C   0  0  0  0  0  0  0  0  0  0  0  0
  147.5889  137.7053  155.6311 O   0  0  0  0  0  0  0  0  0  0  0  0
  148.4441  139.2654  154.1850 N   0  0  0  0  0  0  0  0  0  0  0  0
  147.2604  140.1273  154.0425 C   0  0  0  0  0  0  0  0  0  0  0  0
  147.3981  141.2795  153.0182 C   0  0  0  0  0  0  0  0  0  0  0  0
  146.8900  142.5346  153.7317 C   0  0  0  0  0  0  0  0  0  0  0  0
  147.1713  142.2772  155.2089 C   0  0  0  0  0  0  0  0  0  0  0  0
  146.8950  140.7850  155.3879 C   0  0  0  0  0  0  0  0  0  0  0  0
  149.7220  139.5488  153.5416 C   0  0  0  0  0  0  0  0  0  0  0  0
  149.9889  140.0358  156.2836 H   0  0  0  0  0  0  0  0  0  0  0  0
  152.3639  140.4053  157.7634 H   0  0  0  0  0  0  0  0  0  0  0  0
  152.1674  141.8079  156.7480 H   0  0  0  0  0  0  0  0  0  0  0  0
  149.6312  141.6802  157.7590 H   0  0  0  0  0  0  0  0  0  0  0  0
  150.4539  140.8500  159.0500 H   0  0  0  0  0  0  0  0  0  0  0  0
  152.7563  142.1209  159.8979 H   0  0  0  0  0  0  0  0  0  0  0  0
  153.3243  144.3481  160.8966 H   0  0  0  0  0  0  0  0  0  0  0  0
  151.8607  146.3187  160.3667 H   0  0  0  0  0  0  0  0  0  0  0  0
  149.8939  145.9763  158.8480 H   0  0  0  0  0  0  0  0  0  0  0  0
  151.4080  138.1889  153.5436 H   0  0  0  0  0  0  0  0  0  0  0  0
  149.9493  136.6647  154.5124 H   0  0  0  0  0  0  0  0  0  0  0  0
  150.2416  137.4679  156.0570 H   0  0  0  0  0  0  0  0  0  0  0  0
  146.4184  139.5068  153.7294 H   0  0  0  0  0  0  0  0  0  0  0  0
  148.4268  141.4513  152.7078 H   0  0  0  0  0  0  0  0  0  0  0  0
  146.8293  141.0806  152.1093 H   0  0  0  0  0  0  0  0  0  0  0  0
  147.3645  143.4459  153.3666 H   0  0  0  0  0  0  0  0  0  0  0  0
  145.8148  142.6349  153.5772 H   0  0  0  0  0  0  0  0  0  0  0  0
  148.2200  142.4851  155.4254 H   0  0  0  0  0  0  0  0  0  0  0  0
  146.5642  142.8986  155.8676 H   0  0  0  0  0  0  0  0  0  0  0  0
  145.8330  140.6343  155.5864 H   0  0  0  0  0  0  0  0  0  0  0  0
  147.4411  140.3712  156.2372 H   0  0  0  0  0  0  0  0  0  0  0  0
  149.9554  140.6142  153.5821 H   0  0  0  0  0  0  0  0  0  0  0  0
  149.6704  139.2600  152.4911 H   0  0  0  0  0  0  0  0  0  0  0  0
  1  2  2  0  0  0  0
  2  3  1  0  0  0  0
  2 12  1  0  0  0  0
  3  4  1  0  0  0  0
  3 23  1  0  0  0  0
  4  5  1  0  0  0  0
  4 24  1  0  0  0  0
  4 25  1  0  0  0  0
  5  6  1  0  0  0  0
  5 26  1  0  0  0  0
  5 27  1  0  0  0  0
  6 11  1  0  0  0  0
  6  7  2  0  0  0  0
  7  8  1  0  0  0  0
  7 28  1  0  0  0  0
  8  9  2  0  0  0  0
  8 29  1  0  0  0  0
  9 10  1  0  0  0  0
  9 30  1  0  0  0  0
 10 11  2  0  0  0  0
 10 31  1  0  0  0  0
 12 22  1  0  0  0  0
 12 13  1  0  0  0  0
 12 32  1  0  0  0  0
 13 14  1  0  0  0  0
 13 33  1  0  0  0  0
 13 34  1  0  0  0  0
 14 15  2  0  0  0  0
 14 16  1  0  0  0  0
 16 17  1  0  0  0  0
 16 22  1  0  0  0  0
 17 21  1  0  0  0  0
 17 18  1  0  0  0  0
 17 35  1  0  0  0  0
 18 19  1  0  0  0  0
 18 36  1  0  0  0  0
 18 37  1  0  0  0  0
 19 20  1  0  0  0  0
 19 38  1  0  0  0  0
 19 39  1  0  0  0  0
 20 21  1  0  0  0  0
 20 40  1  0  0  0  0
 20 41  1  0  0  0  0
 21 42  1  0  0  0  0
 21 43  1  0  0  0  0
 22 44  1  0  0  0  0
 22 45  1  0  0  0  0
M  END
> <s_m_source_file>
AV-unprocessed.smi

> <i_m_source_file_index>
1916

> <i_lp_mmshare_version>
43012

> <i_f3d_flags>
0

> <s_epik_input>
W0NIMl0xW0NIMl1bQ0gyXVtDSDJdW0NIXTFOKFtDSDJdMilDKD1PKVtDSDJdW0NASF0yQyg9TylbTkhdW0NIMl1bQ0gyXWMzW2NIXVtjSF1bY0hdW2NIXW4z

> <s_epik_cmdline>
J2VwaWtfcHl0aG9uJywgJy1waCcsICc3LjAnLCAnLXRuJywgJzgnLCAnLW1hJywgJzIwMCcsICctbWV0YWxfYmluZGluZycsICctaW1hZScsICc8aW5maWxlLm1hZT4nLCAnLW9tYWUnLCAnPG91dGZpbGUubWFlPic=

> <r_epik_Ionization_Penalty>
0.0252359

> <r_epik_Ionization_Penalty_Charging>
0

> <r_epik_Ionization_Penalty_Neutral>
0.0252359

> <r_epik_State_Penalty>
0.020532

> <r_epik_Charging_Adjusted_Penalty>
0.020532

> <i_epik_Tot_Q>
0

> <i_epik_Tot_abs_Q>
0

> <r_epik_Metal_State_Penalty>
0.0196901

> <b_epik_Metal_Only>
0

> <s_lp_Force_Field>
OPLS_2005

> <r_lp_Energy>
33.9945

> <b_lp_Chiralities_Consistent>
1

> <s_lp_Variant>
AV-unprocessed.smi:1916-2

> <Gold.Version>
5.8.1

> <Gold.Id.Protein>
6NUR|6NUR_protein|mol2

> <Gold.PLP.Fitness>
45.2274

> <Gold.PLP.PLP>
-39.6640

> <Gold.PLP.part.hbond>
-2.0000

> <Gold.PLP.part.metal>
0.0000

> <Gold.PLP.part.buried>
-3.1413

> <Gold.PLP.part.nonpolar>
-35.0810

> <Gold.PLP.part.repulsive>
0.3120

> <Gold.PLP.ligand.clash>
0.0000

> <Gold.PLP.ligand.torsion>
0.2455

> <Gold.PLP.Chemscore.Hbond>
1.0000

> <Gold.PLP.Chemscore.CHOScore>
1.0000

> <Gold.PLP.Chemscore.Metal>
0.0000

> <Gold.Chemscore.Hbonds>
donor molecule, donor type, donor heavy atom, donor atom, acceptor molecule, acceptor atom, score
      P1  H  7997  8010       L1     1  1.00
      L1  C    10    31       P1  8029  0.96

> <Gold.PLP.Chemscore.Internal.Correction>
0.0545

> <Gold.Rescore>
     Score         DG    S(hbond)    S(metal)    S(lipo)     H(rot)  DE(clash)    DE(int)     intcor
     16.06     -17.79       1.00        0.00     111.88       1.61       1.45       0.28       ----

> <Gold.Chemscore.Fitness>
16.0583

> <Gold.Chemscore.DG>
-17.7853

> <Gold.Chemscore.ZeroCoef>
-5.4800

> <Gold.Chemscore.Hbond>
1.0000

> <Gold.Chemscore.Metal>
0.0000

> <Gold.Chemscore.Lipo>
111.8766

> <Gold.Chemscore.Internal_Hbond>
0.0000

> <Gold.Chemscore.DEClash>
1.4504

> <Gold.Chemscore.DEInternal>
0.2766

> <Gold.Chemscore.Rot>
1.6110

> <Gold.Chemscore.Internal.Correction>
   9.000000E+99

> <Gold.Chemscore.Hbonds>
donor molecule, donor type, donor heavy atom, donor atom, acceptor molecule, acceptor atom, score
      P1  H  7997  8010       L1     1  0.95

> <Gold.Chemscore.Hbond.Weighted>
-3.3400

> <Gold.Chemscore.Metal.Weighted>
-0.0000

> <Gold.Chemscore.Lipo.Weighted>
-13.0896

> <Gold.Chemscore.Internal_Hbond.Weighted>
0.0000

> <Gold.Chemscore.DEClash.Weighted>
1.4504

> <Gold.Chemscore.DEInternal.Weighted>
0.2766

> <Gold.Chemscore.Rot.Weighted>
4.1243

> <Gold.Chemscore.Internal.Correction.Weighted>
   9.000000E+99

> <Gold.Protein.RotatedTorsions>
[ 6907 6896 6895 6894 ] final  -50.41 input  -60.11 | X-H torsion
[ 7974 7965 7964 7962 ] final  -14.73 input  175.53 | X-H torsion
[ 8008 7997 7996 7995 ] final  120.08 input   59.86 | X-H torsion
[ 10167 10162 10161 10158 ] final  -49.28 input  -65.29 | X-H torsion
[ 10718 10713 10712 10709 ] final  -49.87 input   66.30 | X-H torsion
[ 10763 10752 10751 10750 ] final  -55.63 input  -60.55 | X-H torsion
[ 11005 11000 10999 10996 ] final  167.73 input  -57.11 | X-H torsion

> <Gold.Protein.ActiveResidues>
 VAL166  LYS551  ARG553  GLY616  TRP617  ASP618  TYR619  PRO620  LYS621  CYS622 
 ASP623  PHE694  ASN695  SER759  ASP760  ASP761  ALA762  ILE779  LEU786  VAL792 
 PHE793  MET794  SER795  GLU796  ALA797  LYS798  CYS799  TRP800  GLU811  SER814 

> <Gold.Protein.RotatedAtoms>
  150.8710  134.8084  159.7154 H   0  0  0  0  0  0  0  0  0  0  0  0  # atno 6907 bound_to 6896
  152.4715  134.4946  159.9716 H   0  0  0  0  0  0  0  0  0  0  0  0  # atno 6908 bound_to 6896
  151.5035  133.3461  159.2908 H   0  0  0  0  0  0  0  0  0  0  0  0  # atno 6909 bound_to 6896
  146.2062  140.3391  142.8406 H   0  0  0  0  0  0  0  0  0  0  0  0  # atno 7974 bound_to 7965
  156.2626  140.2838  156.1093 H   0  0  0  0  0  0  0  0  0  0  0  0  # atno 8008 bound_to 7997
  155.1275  140.0393  157.2783 H   0  0  0  0  0  0  0  0  0  0  0  0  # atno 8009 bound_to 7997
  154.6625  140.2569  155.7100 H   0  0  0  0  0  0  0  0  0  0  0  0  # atno 8010 bound_to 7997
  140.6692  143.2704  151.4193 H   0  0  0  0  0  0  0  0  0  0  0  0  # atno 10167 bound_to 10162
  156.1853  130.4151  149.9448 H   0  0  0  0  0  0  0  0  0  0  0  0  # atno 10718 bound_to 10713
  154.1938  135.6423  153.5067 H   0  0  0  0  0  0  0  0  0  0  0  0  # atno 10763 bound_to 10752
  153.0028  135.5435  154.6387 H   0  0  0  0  0  0  0  0  0  0  0  0  # atno 10764 bound_to 10752
  154.5783  135.2923  155.0731 H   0  0  0  0  0  0  0  0  0  0  0  0  # atno 10765 bound_to 10752
  140.2798  134.7759  157.3748 H   0  0  0  0  0  0  0  0  0  0  0  0  # atno 11005 bound_to 11000
  144.8798  140.7385  143.5994 LP  0  0  0  0  0  0  0  0  0  0  0  0  # atno 17320 bound_to 7965
  145.3311  139.1759  143.4536 LP  0  0  0  0  0  0  0  0  0  0  0  0  # atno 17321 bound_to 7965
  139.5953  144.1410  152.2137 LP  0  0  0  0  0  0  0  0  0  0  0  0  # atno 17342 bound_to 10162
  140.0778  144.5726  150.7144 LP  0  0  0  0  0  0  0  0  0  0  0  0  # atno 17343 bound_to 10162
  156.7206  130.9005  151.3618 LP  0  0  0  0  0  0  0  0  0  0  0  0  # atno 17370 bound_to 10713
  157.6895  130.9219  150.0474 LP  0  0  0  0  0  0  0  0  0  0  0  0  # atno 17371 bound_to 10713
  140.1294  134.5115  155.8118 LP  0  0  0  0  0  0  0  0  0  0  0  0  # atno 17394 bound_to 11000
  141.2164  133.6784  156.7011 LP  0  0  0  0  0  0  0  0  0  0  0  0  # atno 17395 bound_to 11000

$$$$
