AV-unprocessed.smi:3046|AV-procd|sdf|11620|dock3
  -GOLD-   2272017 03D 1   1.00000     0.00000
 Structure written by MMmdl.
 37 37  0  0  0  0  0  0  0  0  1 V2000
  146.5215  137.6060  152.9191 C   0  0  0  0  0  0  0  0  0  0  0  0
  146.7681  138.6126  152.0675 C   0  0  0  0  0  0  0  0  0  0  0  0
  147.6474  139.8064  152.3833 C   0  0  0  0  0  0  0  0  0  0  0  0
  148.5662  139.5161  153.4763 N   0  0  0  0  0  0  0  0  0  0  0  0
  149.3688  140.4135  154.0716 C   0  0  0  0  0  0  0  0  0  0  0  0
  149.4180  141.5965  153.7314 O   0  0  0  0  0  0  0  0  0  0  0  0
  150.2391  139.8809  155.2210 C   0  0  1  0  0  0  0  0  0  0  0  0
  150.9736  138.5808  154.8353 C   0  0  0  0  0  0  0  0  0  0  0  0
  151.2030  140.9129  155.6382 N   0  0  0  0  0  0  0  0  0  0  0  0
  150.9237  141.5544  156.9214 C   0  0  1  0  0  0  0  0  0  0  0  0
  151.5195  140.7566  158.0977 C   0  0  0  0  0  0  0  0  0  0  0  0
  151.4342  143.0130  156.8624 C   0  0  0  0  0  0  0  0  0  0  0  0
  151.5460  143.6560  158.1628 N   0  0  0  0  0  0  0  0  0  0  0  0
  150.8579  144.7535  158.6377 C   0  0  0  0  0  0  0  0  0  0  0  0
  151.2983  144.9925  159.9077 C   0  0  0  0  0  0  0  0  0  0  0  0
  152.2726  143.9782  160.1236 C   0  0  0  0  0  0  0  0  0  0  0  0
  152.4205  143.1821  159.0773 N   0  0  0  0  0  0  0  0  0  0  0  0
  146.9538  137.5897  153.9088 H   0  0  0  0  0  0  0  0  0  0  0  0
  145.8828  136.7827  152.6347 H   0  0  0  0  0  0  0  0  0  0  0  0
  146.3170  138.5949  151.0860 H   0  0  0  0  0  0  0  0  0  0  0  0
  148.2332  140.0505  151.4972 H   0  0  0  0  0  0  0  0  0  0  0  0
  147.0400  140.6835  152.6136 H   0  0  0  0  0  0  0  0  0  0  0  0
  148.5829  138.5672  153.8207 H   0  0  0  0  0  0  0  0  0  0  0  0
  149.5535  139.6590  156.0406 H   0  0  0  0  0  0  0  0  0  0  0  0
  150.2715  137.8086  154.5185 H   0  0  0  0  0  0  0  0  0  0  0  0
  151.5387  138.1727  155.6722 H   0  0  0  0  0  0  0  0  0  0  0  0
  151.6775  138.7460  154.0184 H   0  0  0  0  0  0  0  0  0  0  0  0
  152.1595  140.5905  155.5912 H   0  0  0  0  0  0  0  0  0  0  0  0
  149.8404  141.6011  157.0430 H   0  0  0  0  0  0  0  0  0  0  0  0
  151.4034  141.3041  159.0333 H   0  0  0  0  0  0  0  0  0  0  0  0
  152.5833  140.5607  157.9580 H   0  0  0  0  0  0  0  0  0  0  0  0
  151.0174  139.7981  158.2276 H   0  0  0  0  0  0  0  0  0  0  0  0
  152.4001  143.0657  156.3572 H   0  0  0  0  0  0  0  0  0  0  0  0
  150.7480  143.6084  156.2589 H   0  0  0  0  0  0  0  0  0  0  0  0
  150.1180  145.2649  158.0396 H   0  0  0  0  0  0  0  0  0  0  0  0
  150.9746  145.7731  160.5799 H   0  0  0  0  0  0  0  0  0  0  0  0
  152.8734  143.7982  161.0029 H   0  0  0  0  0  0  0  0  0  0  0  0
  1  2  2  0  0  0  0
  1 18  1  0  0  0  0
  1 19  1  0  0  0  0
  2  3  1  0  0  0  0
  2 20  1  0  0  0  0
  3  4  1  0  0  0  0
  3 21  1  0  0  0  0
  3 22  1  0  0  0  0
  4  5  1  0  0  0  0
  4 23  1  0  0  0  0
  5  6  2  0  0  0  0
  5  7  1  0  0  0  0
  7  8  1  0  0  0  0
  7  9  1  0  0  0  0
  7 24  1  0  0  0  0
  8 25  1  0  0  0  0
  8 26  1  0  0  0  0
  8 27  1  0  0  0  0
  9 10  1  0  0  0  0
  9 28  1  0  0  0  0
 10 11  1  0  0  0  0
 10 12  1  0  0  0  0
 10 29  1  0  0  0  0
 11 30  1  0  0  0  0
 11 31  1  0  0  0  0
 11 32  1  0  0  0  0
 12 13  1  0  0  0  0
 12 33  1  0  0  0  0
 12 34  1  0  0  0  0
 13 17  1  0  0  0  0
 13 14  1  0  0  0  0
 14 15  2  0  0  0  0
 14 35  1  0  0  0  0
 15 16  1  0  0  0  0
 15 36  1  0  0  0  0
 16 17  2  0  0  0  0
 16 37  1  0  0  0  0
M  END
> <s_m_source_file>
AV-unprocessed.smi

> <i_m_source_file_index>
3046

> <i_lp_mmshare_version>
43012

> <i_f3d_flags>
0

> <s_epik_input>
W0NIMl09W0NIXVtDSDJdW05IXUMoPU8pW0NASF0oW0NIM10pW05IXVtDQEhdKFtDSDNdKVtDSDJdbjFbY0hdW2NIXVtjSF1uMQ==

> <s_epik_cmdline>
J2VwaWtfcHl0aG9uJywgJy1waCcsICc3LjAnLCAnLXRuJywgJzgnLCAnLW1hJywgJzIwMCcsICctbWV0YWxfYmluZGluZycsICctaW1hZScsICc8aW5maWxlLm1hZT4nLCAnLW9tYWUnLCAnPG91dGZpbGUubWFlPic=

> <r_lp_tautomer_probability>
1

> <r_epik_Ionization_Penalty>
0.950627

> <r_epik_Ionization_Penalty_Charging>
0

> <r_epik_Ionization_Penalty_Neutral>
0.950627

> <r_epik_State_Penalty>
0.994814

> <r_epik_Charging_Adjusted_Penalty>
0.994814

> <i_epik_Tot_Q>
0

> <i_epik_Tot_abs_Q>
0

> <r_epik_Metal_State_Penalty>
0.994788

> <b_epik_Metal_Only>
0

> <s_lp_Force_Field>
OPLS_2005

> <r_lp_Energy>
8.07161

> <b_lp_Chiralities_Consistent>
1

> <s_lp_Variant>
AV-unprocessed.smi:3046-8

> <Gold.Version>
5.8.1

> <Gold.Id.Protein>
6NUR|6NUR_protein|mol2

> <Gold.PLP.Fitness>
39.0173

> <Gold.PLP.PLP>
-36.9196

> <Gold.PLP.part.hbond>
-4.0000

> <Gold.PLP.part.metal>
0.0000

> <Gold.PLP.part.buried>
1.0211

> <Gold.PLP.part.nonpolar>
-33.4704

> <Gold.PLP.part.repulsive>
0.2918

> <Gold.PLP.ligand.clash>
0.0000

> <Gold.PLP.ligand.torsion>
1.5740

> <Gold.PLP.Chemscore.Hbond>
0.6240

> <Gold.PLP.Chemscore.CHOScore>
1.0345

> <Gold.PLP.Chemscore.Metal>
0.0000

> <Gold.Chemscore.Hbonds>
donor molecule, donor type, donor heavy atom, donor atom, acceptor molecule, acceptor atom, score
      P1  H  8011  8017       L1     6  0.72
      L1  C    14    35       P1  8028  0.14
      L1  C    14    35       P1  8029  0.80

> <Gold.PLP.Chemscore.Internal.Correction>
0.2703

> <Gold.Rescore>
     Score         DG    S(hbond)    S(metal)    S(lipo)     H(rot)  DE(clash)    DE(int)     intcor
      7.52     -12.90       0.66        0.00      92.15       2.17       2.13       3.25       ----

> <Gold.Chemscore.Fitness>
7.5240

> <Gold.Chemscore.DG>
-12.8997

> <Gold.Chemscore.ZeroCoef>
-5.4800

> <Gold.Chemscore.Hbond>
0.6595

> <Gold.Chemscore.Metal>
0.0000

> <Gold.Chemscore.Lipo>
92.1540

> <Gold.Chemscore.Internal_Hbond>
0.0000

> <Gold.Chemscore.DEClash>
2.1288

> <Gold.Chemscore.DEInternal>
3.2468

> <Gold.Chemscore.Rot>
2.1739

> <Gold.Chemscore.Internal.Correction>
   9.000000E+99

> <Gold.Chemscore.Hbonds>
donor molecule, donor type, donor heavy atom, donor atom, acceptor molecule, acceptor atom, score
      P1  H  8011  8017       L1     6  0.72

> <Gold.Chemscore.Hbond.Weighted>
-2.2028

> <Gold.Chemscore.Metal.Weighted>
-0.0000

> <Gold.Chemscore.Lipo.Weighted>
-10.7820

> <Gold.Chemscore.Internal_Hbond.Weighted>
0.0000

> <Gold.Chemscore.DEClash.Weighted>
2.1288

> <Gold.Chemscore.DEInternal.Weighted>
3.2468

> <Gold.Chemscore.Rot.Weighted>
5.5652

> <Gold.Chemscore.Internal.Correction.Weighted>
   9.000000E+99

> <Gold.Protein.RotatedTorsions>
[ 6907 6896 6895 6894 ] final   33.11 input  -60.11 | X-H torsion
[ 7974 7965 7964 7962 ] final -146.33 input  175.53 | X-H torsion
[ 8008 7997 7996 7995 ] final  -74.70 input   59.86 | X-H torsion
[ 10167 10162 10161 10158 ] final   57.24 input  -65.29 | X-H torsion
[ 10718 10713 10712 10709 ] final  115.64 input   66.30 | X-H torsion
[ 10763 10752 10751 10750 ] final   12.84 input  -60.55 | X-H torsion
[ 11005 11000 10999 10996 ] final  104.77 input  -57.11 | X-H torsion

> <Gold.Protein.ActiveResidues>
 VAL166  LYS551  ARG553  GLY616  TRP617  ASP618  TYR619  PRO620  LYS621  CYS622 
 ASP623  PHE694  ASN695  SER759  ASP760  ASP761  ALA762  ILE779  LEU786  VAL792 
 PHE793  MET794  SER795  GLU796  ALA797  LYS798  CYS799  TRP800  GLU811  SER814 

> <Gold.Protein.RotatedAtoms>
  152.0839  134.9452  160.0572 H   0  0  0  0  0  0  0  0  0  0  0  0  # atno 6907 bound_to 6896
  152.0730  133.4111  159.4476 H   0  0  0  0  0  0  0  0  0  0  0  0  # atno 6908 bound_to 6896
  150.6836  134.2989  159.4741 H   0  0  0  0  0  0  0  0  0  0  0  0  # atno 6909 bound_to 6896
  144.8167  140.5470  143.5606 H   0  0  0  0  0  0  0  0  0  0  0  0  # atno 7974 bound_to 7965
  154.5353  140.0757  156.8417 H   0  0  0  0  0  0  0  0  0  0  0  0  # atno 8008 bound_to 7997
  155.3290  140.3400  155.4221 H   0  0  0  0  0  0  0  0  0  0  0  0  # atno 8009 bound_to 7997
  156.1822  140.1656  156.8239 H   0  0  0  0  0  0  0  0  0  0  0  0  # atno 8010 bound_to 7997
  140.2001  144.3996  150.6532 H   0  0  0  0  0  0  0  0  0  0  0  0  # atno 10167 bound_to 10162
  157.6210  131.1015  150.7358 H   0  0  0  0  0  0  0  0  0  0  0  0  # atno 10718 bound_to 10713
  153.1781  135.6823  153.8515 H   0  0  0  0  0  0  0  0  0  0  0  0  # atno 10763 bound_to 10752
  153.7856  135.3176  155.3373 H   0  0  0  0  0  0  0  0  0  0  0  0  # atno 10764 bound_to 10752
  154.8042  135.4759  154.0445 H   0  0  0  0  0  0  0  0  0  0  0  0  # atno 10765 bound_to 10752
  139.8795  134.9312  156.5413 H   0  0  0  0  0  0  0  0  0  0  0  0  # atno 11005 bound_to 11000
  145.5199  139.1477  143.3558 LP  0  0  0  0  0  0  0  0  0  0  0  0  # atno 17320 bound_to 7965
  146.2470  140.5339  142.8909 LP  0  0  0  0  0  0  0  0  0  0  0  0  # atno 17321 bound_to 7965
  140.6396  143.2201  151.6319 LP  0  0  0  0  0  0  0  0  0  0  0  0  # atno 17342 bound_to 10162
  139.5220  144.3175  152.0940 LP  0  0  0  0  0  0  0  0  0  0  0  0  # atno 17343 bound_to 10162
  156.7716  130.4830  149.5417 LP  0  0  0  0  0  0  0  0  0  0  0  0  # atno 17370 bound_to 10713
  156.1355  130.6208  151.0394 LP  0  0  0  0  0  0  0  0  0  0  0  0  # atno 17371 bound_to 10713
  140.8309  133.8280  155.8983 LP  0  0  0  0  0  0  0  0  0  0  0  0  # atno 17394 bound_to 11000
  140.9330  134.1998  157.4851 LP  0  0  0  0  0  0  0  0  0  0  0  0  # atno 17395 bound_to 11000

$$$$
