AV-unprocessed.smi:1554|AV-procd|sdf|6251|dock4
  -GOLD-   22720 6433D 1   1.00000     0.00000
 Structure written by MMmdl.
 48 50  0  0  0  0  0  0  0  0  2 V2000
  152.7340  142.3654  161.1267 C   0  0  0  0  0  0  0  0  0  0  0  0
  152.4294  141.7290  159.7820 C   0  0  0  0  0  0  0  0  0  0  0  0
  151.4766  142.3372  158.9339 C   0  0  0  0  0  0  0  0  0  0  0  0
  151.1631  141.7759  157.6767 C   0  0  0  0  0  0  0  0  0  0  0  0
  150.2766  142.1957  156.6996 N   0  0  0  0  0  0  0  0  0  0  0  0
  150.4344  141.2556  155.7723 C   0  0  0  0  0  0  0  0  0  0  0  0
  151.3179  140.2731  156.0349 N   0  0  0  0  0  0  0  0  0  0  0  0
  151.6552  139.1418  155.1897 C   0  0  0  0  0  0  0  0  0  0  0  0
  150.4406  138.2330  154.9204 C   0  0  1  0  0  0  0  0  0  0  0  0
  149.9815  138.4476  153.5991 O   0  0  0  0  0  0  0  0  0  0  0  0
  150.7848  136.7406  155.0928 C   0  0  0  0  0  0  0  0  0  0  0  0
  149.7072  135.8469  154.5955 N   0  3  2  0  0  0  0  0  0  0  0  0
  148.4320  135.9751  155.3437 C   0  0  0  0  0  0  0  0  0  0  0  0
  147.3603  135.0564  154.7350 C   0  0  0  0  0  0  0  0  0  0  0  0
  147.8285  133.7134  154.7302 O   0  0  0  0  0  0  0  0  0  0  0  0
  149.0044  133.5532  153.9442 C   0  0  2  0  0  0  0  0  0  0  0  0
  149.3729  132.0653  153.9330 C   0  0  0  0  0  0  0  0  0  0  0  0
  150.1284  134.4270  154.5349 C   0  0  0  0  0  0  0  0  0  0  0  0
  151.8329  140.5788  157.2896 C   0  0  0  0  0  0  0  0  0  0  0  0
  152.7845  139.9652  158.1234 C   0  0  0  0  0  0  0  0  0  0  0  0
  153.0873  140.5403  159.3752 C   0  0  0  0  0  0  0  0  0  0  0  0
  154.1174  139.8711  160.2680 C   0  0  0  0  0  0  0  0  0  0  0  0
  152.1670  143.2858  161.2697 H   0  0  0  0  0  0  0  0  0  0  0  0
  153.7933  142.6112  161.2034 H   0  0  0  0  0  0  0  0  0  0  0  0
  152.4768  141.6837  161.9379 H   0  0  0  0  0  0  0  0  0  0  0  0
  150.9766  143.2434  159.2431 H   0  0  0  0  0  0  0  0  0  0  0  0
  149.8716  141.2797  154.8504 H   0  0  0  0  0  0  0  0  0  0  0  0
  152.0746  139.5135  154.2535 H   0  0  0  0  0  0  0  0  0  0  0  0
  152.4465  138.5768  155.6842 H   0  0  0  0  0  0  0  0  0  0  0  0
  149.6422  138.5149  155.6057 H   0  0  0  0  0  0  0  0  0  0  0  0
  149.7677  137.6118  153.2126 H   0  0  0  0  0  0  0  0  0  0  0  0
  151.7123  136.5341  154.5560 H   0  0  0  0  0  0  0  0  0  0  0  0
  150.9836  136.5115  156.1409 H   0  0  0  0  0  0  0  0  0  0  0  0
  148.5932  135.7146  156.3910 H   0  0  0  0  0  0  0  0  0  0  0  0
  148.0733  137.0035  155.3235 H   0  0  0  0  0  0  0  0  0  0  0  0
  146.4446  135.1079  155.3241 H   0  0  0  0  0  0  0  0  0  0  0  0
  147.1057  135.3712  153.7215 H   0  0  0  0  0  0  0  0  0  0  0  0
  148.7960  133.8662  152.9192 H   0  0  0  0  0  0  0  0  0  0  0  0
  150.2678  131.8863  153.3367 H   0  0  0  0  0  0  0  0  0  0  0  0
  148.5662  131.4676  153.5078 H   0  0  0  0  0  0  0  0  0  0  0  0
  149.5630  131.6968  154.9415 H   0  0  0  0  0  0  0  0  0  0  0  0
  151.0240  134.3355  153.9189 H   0  0  0  0  0  0  0  0  0  0  0  0
  150.3905  134.0822  155.5368 H   0  0  0  0  0  0  0  0  0  0  0  0
  153.2771  139.0597  157.8015 H   0  0  0  0  0  0  0  0  0  0  0  0
  154.5452  138.9892  159.7902 H   0  0  0  0  0  0  0  0  0  0  0  0
  153.6621  139.5563  161.2070 H   0  0  0  0  0  0  0  0  0  0  0  0
  154.9343  140.5576  160.4915 H   0  0  0  0  0  0  0  0  0  0  0  0
  149.5221  136.1279  153.6424 H   0  0  0  0  0  0  0  0  0  0  0  0
  1  2  1  0  0  0  0
  1 23  1  0  0  0  0
  1 24  1  0  0  0  0
  1 25  1  0  0  0  0
  2 21  1  0  0  0  0
  2  3  2  0  0  0  0
  3  4  1  0  0  0  0
  3 26  1  0  0  0  0
  4 19  2  0  0  0  0
  4  5  1  0  0  0  0
  5  6  2  0  0  0  0
  6  7  1  0  0  0  0
  6 27  1  0  0  0  0
  7  8  1  0  0  0  0
  7 19  1  0  0  0  0
  8  9  1  0  0  0  0
  8 28  1  0  0  0  0
  8 29  1  0  0  0  0
  9 10  1  0  0  0  0
  9 11  1  0  0  0  0
  9 30  1  0  0  0  0
 10 31  1  0  0  0  0
 11 12  1  0  0  0  0
 11 32  1  0  0  0  0
 11 33  1  0  0  0  0
 12 18  1  0  0  0  0
 12 13  1  0  0  0  0
 12 48  1  0  0  0  0
 13 14  1  0  0  0  0
 13 34  1  0  0  0  0
 13 35  1  0  0  0  0
 14 15  1  0  0  0  0
 14 36  1  0  0  0  0
 14 37  1  0  0  0  0
 15 16  1  0  0  0  0
 16 17  1  0  0  0  0
 16 18  1  0  0  0  0
 16 38  1  0  0  0  0
 17 39  1  0  0  0  0
 17 40  1  0  0  0  0
 17 41  1  0  0  0  0
 18 42  1  0  0  0  0
 18 43  1  0  0  0  0
 19 20  1  0  0  0  0
 20 21  2  0  0  0  0
 20 44  1  0  0  0  0
 21 22  1  0  0  0  0
 22 45  1  0  0  0  0
 22 46  1  0  0  0  0
 22 47  1  0  0  0  0
M  CHG  1  12   1
M  END
> <s_m_source_file>
AV-unprocessed.smi

> <i_m_source_file_index>
1554

> <i_lp_mmshare_version>
43012

> <i_f3d_flags>
0

> <s_epik_input>
W0NIM11jKFtjSF0xKWMoW0NIM10pW2NIXWMoYzEyKW4oW2NIXW4yKVtDSDJdW0NASF0oW09IXSlbQ0gyXU4zW0NIMl1bQ0gyXU9bQ0BASF0oW0NIM10pW0NIMl0z

> <s_epik_cmdline>
J2VwaWtfcHl0aG9uJywgJy1waCcsICc3LjAnLCAnLXRuJywgJzgnLCAnLW1hJywgJzIwMCcsICctbWV0YWxfYmluZGluZycsICctaW1hZScsICc8aW5maWxlLm1hZT4nLCAnLW9tYWUnLCAnPG91dGZpbGUubWFlPic=

> <r_epik_Ionization_Penalty>
0.695251

> <r_epik_Ionization_Penalty_Charging>
0.608065

> <r_epik_Ionization_Penalty_Neutral>
0.0871863

> <r_epik_State_Penalty>
0.731955

> <r_epik_Charging_Adjusted_Penalty>
1.34002

> <i_epik_Tot_Q>
1

> <i_epik_Tot_abs_Q>
1

> <r_epik_Metal_State_Penalty>
0.652186

> <b_epik_Metal_Only>
0

> <s_lp_Force_Field>
OPLS_2005

> <r_lp_Energy>
20.6032

> <b_lp_Chiralities_Consistent>
1

> <s_lp_Variant>
AV-unprocessed.smi:1554-12

> <Gold.Version>
5.8.1

> <Gold.Id.Protein>
6NUR|6NUR_protein|mol2

> <Gold.PLP.Fitness>
49.7521

> <Gold.PLP.PLP>
-42.2027

> <Gold.PLP.part.hbond>
-3.0000

> <Gold.PLP.part.metal>
0.0000

> <Gold.PLP.part.buried>
-4.4045

> <Gold.PLP.part.nonpolar>
-35.5646

> <Gold.PLP.part.repulsive>
1.6653

> <Gold.PLP.ligand.clash>
0.0000

> <Gold.PLP.ligand.torsion>
0.7407

> <Gold.PLP.Chemscore.Hbond>
3.0000

> <Gold.PLP.Chemscore.CHOScore>
0.0000

> <Gold.PLP.Chemscore.Metal>
0.0000

> <Gold.Chemscore.Hbonds>
donor molecule, donor type, donor heavy atom, donor atom, acceptor molecule, acceptor atom, score
      L1  H    10    31       P1  7948  0.94
      L1  H    12    48       P1  7948  2.00

> <Gold.PLP.Chemscore.Internal.Correction>
0.0307

> <Gold.Rescore>
     Score         DG    S(hbond)    S(metal)    S(lipo)     H(rot)  DE(clash)    DE(int)     intcor
     16.66     -17.78       1.66        0.00     102.72       2.05       0.32       0.80       ----

> <Gold.Chemscore.Fitness>
16.6630

> <Gold.Chemscore.DG>
-17.7794

> <Gold.Chemscore.ZeroCoef>
-5.4800

> <Gold.Chemscore.Hbond>
1.6589

> <Gold.Chemscore.Metal>
0.0000

> <Gold.Chemscore.Lipo>
102.7206

> <Gold.Chemscore.Internal_Hbond>
0.0000

> <Gold.Chemscore.DEClash>
0.3155

> <Gold.Chemscore.DEInternal>
0.8008

> <Gold.Chemscore.Rot>
2.0546

> <Gold.Chemscore.Internal.Correction>
   9.000000E+99

> <Gold.Chemscore.Hbonds>
donor molecule, donor type, donor heavy atom, donor atom, acceptor molecule, acceptor atom, score
      L1  H    10    31       P1  7948  0.54
      L1  H    12    48       P1  7948  0.55

> <Gold.Chemscore.Hbond.Weighted>
-5.5407

> <Gold.Chemscore.Metal.Weighted>
-0.0000

> <Gold.Chemscore.Lipo.Weighted>
-12.0183

> <Gold.Chemscore.Internal_Hbond.Weighted>
0.0000

> <Gold.Chemscore.DEClash.Weighted>
0.3155

> <Gold.Chemscore.DEInternal.Weighted>
0.8008

> <Gold.Chemscore.Rot.Weighted>
5.2597

> <Gold.Chemscore.Internal.Correction.Weighted>
   9.000000E+99

> <Gold.Protein.RotatedTorsions>
[ 6907 6896 6895 6894 ] final -121.20 input  -60.11 | X-H torsion
[ 7974 7965 7964 7962 ] final  -18.88 input  175.53 | X-H torsion
[ 8008 7997 7996 7995 ] final   -3.86 input   59.86 | X-H torsion
[ 10167 10162 10161 10158 ] final    3.42 input  -65.29 | X-H torsion
[ 10718 10713 10712 10709 ] final -165.08 input   66.30 | X-H torsion
[ 10763 10752 10751 10750 ] final  -28.53 input  -60.55 | X-H torsion
[ 11005 11000 10999 10996 ] final  -45.83 input  -57.11 | X-H torsion

> <Gold.Protein.ActiveResidues>
 VAL166  LYS551  ARG553  GLY616  TRP617  ASP618  TYR619  PRO620  LYS621  CYS622 
 ASP623  PHE694  ASN695  SER759  ASP760  ASP761  ALA762  ILE779  LEU786  VAL792 
 PHE793  MET794  SER795  GLU796  ALA797  LYS798  CYS799  TRP800  GLU811  SER814 

> <Gold.Protein.RotatedAtoms>
  150.8462  133.7858  159.3042 H   0  0  0  0  0  0  0  0  0  0  0  0  # atno 6907 bound_to 6896
  151.5545  135.1065  159.9967 H   0  0  0  0  0  0  0  0  0  0  0  0  # atno 6908 bound_to 6896
  152.4515  133.7596  159.6795 H   0  0  0  0  0  0  0  0  0  0  0  0  # atno 6909 bound_to 6896
  146.1870  140.3983  142.8472 H   0  0  0  0  0  0  0  0  0  0  0  0  # atno 7974 bound_to 7965
  154.6205  140.2498  155.7556 H   0  0  0  0  0  0  0  0  0  0  0  0  # atno 8008 bound_to 7997
  156.2424  140.2927  156.0429 H   0  0  0  0  0  0  0  0  0  0  0  0  # atno 8009 bound_to 7997
  155.1905  140.0391  157.2890 H   0  0  0  0  0  0  0  0  0  0  0  0  # atno 8010 bound_to 7997
  140.6587  143.7361  150.7699 H   0  0  0  0  0  0  0  0  0  0  0  0  # atno 10167 bound_to 10162
  156.6482  130.8996  151.3008 H   0  0  0  0  0  0  0  0  0  0  0  0  # atno 10718 bound_to 10713
  153.7499  135.6927  153.4948 H   0  0  0  0  0  0  0  0  0  0  0  0  # atno 10763 bound_to 10752
  153.2010  135.4436  155.0265 H   0  0  0  0  0  0  0  0  0  0  0  0  # atno 10764 bound_to 10752
  154.8191  135.3413  154.7020 H   0  0  0  0  0  0  0  0  0  0  0  0  # atno 10765 bound_to 10752
  141.0540  133.6732  156.3068 H   0  0  0  0  0  0  0  0  0  0  0  0  # atno 11005 bound_to 11000
  144.8415  140.6864  143.6226 LP  0  0  0  0  0  0  0  0  0  0  0  0  # atno 17320 bound_to 7965
  145.3909  139.1617  143.4229 LP  0  0  0  0  0  0  0  0  0  0  0  0  # atno 17321 bound_to 7965
  140.1026  143.4774  152.2417 LP  0  0  0  0  0  0  0  0  0  0  0  0  # atno 17342 bound_to 10162
  139.5815  144.7512  151.3628 LP  0  0  0  0  0  0  0  0  0  0  0  0  # atno 17343 bound_to 10162
  157.7149  130.9485  150.1220 LP  0  0  0  0  0  0  0  0  0  0  0  0  # atno 17370 bound_to 10713
  156.2105  130.3666  149.8676 LP  0  0  0  0  0  0  0  0  0  0  0  0  # atno 17371 bound_to 10713
  140.6000  134.5564  157.5515 LP  0  0  0  0  0  0  0  0  0  0  0  0  # atno 17394 bound_to 11000
  139.9374  134.7849  156.0766 LP  0  0  0  0  0  0  0  0  0  0  0  0  # atno 17395 bound_to 11000

$$$$
