AV-unprocessed.smi:3181|AV-procd|sdf|12142|dock3
  -GOLD-   2272017583D 1   1.00000     0.00000
 Structure written by MMmdl.
 42 43  0  0  0  0  0  0  0  0  2 V2000
  147.5332  141.4312  155.5480 C   0  0  0  0  0  0  0  0  0  0  0  0
  148.9480  140.8313  155.6028 C   0  0  1  0  0  0  0  0  0  0  0  0
  149.3082  140.0499  154.3203 C   0  0  0  0  0  0  0  0  0  0  0  0
  150.4161  139.1312  154.5085 N   0  0  0  0  0  0  0  0  0  0  0  0
  150.4640  137.8000  154.4337 C   0  0  0  0  0  0  0  0  0  0  0  0
  151.6680  137.2947  154.6612 N   0  0  0  0  0  0  0  0  0  0  0  0
  152.3644  138.4502  154.8765 C   0  0  0  0  0  0  0  0  0  0  0  0
  151.6610  139.5799  154.7928 N   0  0  0  0  0  0  0  0  0  0  0  0
  149.9333  141.9125  155.8325 N   0  3  0  0  0  0  0  0  0  0  0  0
  150.3856  142.1009  157.2302 C   0  0  1  0  0  0  0  0  0  0  0  0
  151.1690  140.8816  157.7512 C   0  0  0  0  0  0  0  0  0  0  0  0
  151.6770  141.1195  159.1802 C   0  0  0  0  0  0  0  0  0  0  0  0
  152.5471  142.3883  159.2873 C   0  0  2  0  0  0  0  0  0  0  0  0
  153.0346  142.5675  160.7363 C   0  0  0  0  0  0  0  0  0  0  0  0
  151.7764  143.6236  158.7519 C   0  0  1  0  0  0  0  0  0  0  0  0
  152.6177  144.9127  158.7752 C   0  0  0  0  0  0  0  0  0  0  0  0
  151.2590  143.3637  157.3220 C   0  0  0  0  0  0  0  0  0  0  0  0
  146.7720  140.6554  155.4623 H   0  0  0  0  0  0  0  0  0  0  0  0
  147.4193  142.1049  154.6980 H   0  0  0  0  0  0  0  0  0  0  0  0
  147.3131  141.9979  156.4533 H   0  0  0  0  0  0  0  0  0  0  0  0
  148.9717  140.1434  156.4496 H   0  0  0  0  0  0  0  0  0  0  0  0
  148.4459  139.4779  153.9746 H   0  0  0  0  0  0  0  0  0  0  0  0
  149.5703  140.7321  153.5112 H   0  0  0  0  0  0  0  0  0  0  0  0
  149.6022  137.1876  154.2121 H   0  0  0  0  0  0  0  0  0  0  0  0
  153.4208  138.4591  155.1007 H   0  0  0  0  0  0  0  0  0  0  0  0
  150.7372  141.7610  155.2399 H   0  0  0  0  0  0  0  0  0  0  0  0
  149.5032  142.2547  157.8541 H   0  0  0  0  0  0  0  0  0  0  0  0
  150.5402  139.9910  157.7454 H   0  0  0  0  0  0  0  0  0  0  0  0
  152.0132  140.6708  157.0932 H   0  0  0  0  0  0  0  0  0  0  0  0
  150.8249  141.1999  159.8568 H   0  0  0  0  0  0  0  0  0  0  0  0
  152.2466  140.2491  159.5087 H   0  0  0  0  0  0  0  0  0  0  0  0
  153.4283  142.2397  158.6611 H   0  0  0  0  0  0  0  0  0  0  0  0
  152.2060  142.7879  161.4099 H   0  0  0  0  0  0  0  0  0  0  0  0
  153.7617  143.3745  160.8226 H   0  0  0  0  0  0  0  0  0  0  0  0
  153.5238  141.6630  161.0990 H   0  0  0  0  0  0  0  0  0  0  0  0
  150.9091  143.7874  159.3935 H   0  0  0  0  0  0  0  0  0  0  0  0
  153.5439  144.7928  158.2121 H   0  0  0  0  0  0  0  0  0  0  0  0
  152.8782  145.2087  159.7909 H   0  0  0  0  0  0  0  0  0  0  0  0
  152.0691  145.7464  158.3358 H   0  0  0  0  0  0  0  0  0  0  0  0
  152.1069  143.2723  156.6410 H   0  0  0  0  0  0  0  0  0  0  0  0
  150.6846  144.2260  156.9803 H   0  0  0  0  0  0  0  0  0  0  0  0
  149.4926  142.7760  155.5495 H   0  0  0  0  0  0  0  0  0  0  0  0
  1  2  1  0  0  0  0
  1 18  1  0  0  0  0
  1 19  1  0  0  0  0
  1 20  1  0  0  0  0
  2  3  1  0  0  0  0
  2  9  1  0  0  0  0
  2 21  1  0  0  0  0
  3  4  1  0  0  0  0
  3 22  1  0  0  0  0
  3 23  1  0  0  0  0
  4  8  1  0  0  0  0
  4  5  1  0  0  0  0
  5  6  2  0  0  0  0
  5 24  1  0  0  0  0
  6  7  1  0  0  0  0
  7  8  2  0  0  0  0
  7 25  1  0  0  0  0
  9 10  1  0  0  0  0
  9 26  1  0  0  0  0
  9 42  1  0  0  0  0
 10 17  1  0  0  0  0
 10 11  1  0  0  0  0
 10 27  1  0  0  0  0
 11 12  1  0  0  0  0
 11 28  1  0  0  0  0
 11 29  1  0  0  0  0
 12 13  1  0  0  0  0
 12 30  1  0  0  0  0
 12 31  1  0  0  0  0
 13 14  1  0  0  0  0
 13 15  1  0  0  0  0
 13 32  1  0  0  0  0
 14 33  1  0  0  0  0
 14 34  1  0  0  0  0
 14 35  1  0  0  0  0
 15 16  1  0  0  0  0
 15 17  1  0  0  0  0
 15 36  1  0  0  0  0
 16 37  1  0  0  0  0
 16 38  1  0  0  0  0
 16 39  1  0  0  0  0
 17 40  1  0  0  0  0
 17 41  1  0  0  0  0
M  CHG  1   9   1
M  END
> <s_m_source_file>
AV-unprocessed.smi

> <i_m_source_file_index>
3181

> <i_lp_mmshare_version>
43012

> <i_f3d_flags>
0

> <s_epik_input>
bjFbY0hdbltjSF1uMVtDSDJdW0NAQEhdKFtDSDNdKVtOSF1bQ0BASF0yW0NIMl1bQ0gyXVtDQEBIXShbQ0gzXSlbQ0BASF0oW0NIM10pW0NIMl0y

> <s_epik_cmdline>
J2VwaWtfcHl0aG9uJywgJy1waCcsICc3LjAnLCAnLXRuJywgJzgnLCAnLW1hJywgJzIwMCcsICctbWV0YWxfYmluZGluZycsICctaW1hZScsICc8aW5maWxlLm1hZT4nLCAnLW9tYWUnLCAnPG91dGZpbGUubWFlPic=

> <r_lp_tautomer_probability>
1

> <r_epik_Ionization_Penalty>
0.000617007

> <r_epik_Ionization_Penalty_Charging>
0.000616215

> <r_epik_Ionization_Penalty_Neutral>
7.92544e-07

> <r_epik_State_Penalty>
0.000388807

> <r_epik_Charging_Adjusted_Penalty>
0.00100502

> <i_epik_Tot_Q>
1

> <i_epik_Tot_abs_Q>
1

> <r_epik_Metal_State_Penalty>
-0

> <b_epik_Metal_Only>
0

> <s_lp_Force_Field>
OPLS_2005

> <r_lp_Energy>
19.8676

> <b_lp_Chiralities_Consistent>
1

> <s_lp_Variant>
AV-unprocessed.smi:3181-8

> <Gold.Version>
5.8.1

> <Gold.Id.Protein>
6NUR|6NUR_protein|mol2

> <Gold.PLP.Fitness>
53.5810

> <Gold.PLP.PLP>
-41.4805

> <Gold.PLP.part.hbond>
-3.0000

> <Gold.PLP.part.metal>
0.0000

> <Gold.PLP.part.buried>
-3.7089

> <Gold.PLP.part.nonpolar>
-35.7613

> <Gold.PLP.part.repulsive>
0.3349

> <Gold.PLP.ligand.clash>
0.0000

> <Gold.PLP.ligand.torsion>
0.7551

> <Gold.PLP.Chemscore.Hbond>
3.5284

> <Gold.PLP.Chemscore.CHOScore>
0.9937

> <Gold.PLP.Chemscore.Metal>
0.0000

> <Gold.Chemscore.Hbonds>
donor molecule, donor type, donor heavy atom, donor atom, acceptor molecule, acceptor atom, score
      L1  H     9    42       P1  8028  1.98
      P1  H  7989  7998       L1     8  0.75
      P1  H 10752 10765       L1     6  0.77
      L1  C     5    24       P1  7948  0.76

> <Gold.PLP.Chemscore.Internal.Correction>
0.0445

> <Gold.Rescore>
     Score         DG    S(hbond)    S(metal)    S(lipo)     H(rot)  DE(clash)    DE(int)     intcor
     17.97     -19.07       2.37        0.00      94.62       2.11       0.32       0.78       ----

> <Gold.Chemscore.Fitness>
17.9744

> <Gold.Chemscore.DG>
-19.0694

> <Gold.Chemscore.ZeroCoef>
-5.4800

> <Gold.Chemscore.Hbond>
2.3710

> <Gold.Chemscore.Metal>
0.0000

> <Gold.Chemscore.Lipo>
94.6212

> <Gold.Chemscore.Internal_Hbond>
0.0000

> <Gold.Chemscore.DEClash>
0.3183

> <Gold.Chemscore.DEInternal>
0.7767

> <Gold.Chemscore.Rot>
2.1095

> <Gold.Chemscore.Internal.Correction>
   9.000000E+99

> <Gold.Chemscore.Hbonds>
donor molecule, donor type, donor heavy atom, donor atom, acceptor molecule, acceptor atom, score
      L1  H     9    42       P1  8028  0.92
      P1  H  7989  7998       L1     8  0.09
      P1  H 10752 10765       L1     6  0.58

> <Gold.Chemscore.Hbond.Weighted>
-7.9190

> <Gold.Chemscore.Metal.Weighted>
-0.0000

> <Gold.Chemscore.Lipo.Weighted>
-11.0707

> <Gold.Chemscore.Internal_Hbond.Weighted>
0.0000

> <Gold.Chemscore.DEClash.Weighted>
0.3183

> <Gold.Chemscore.DEInternal.Weighted>
0.7767

> <Gold.Chemscore.Rot.Weighted>
5.4003

> <Gold.Chemscore.Internal.Correction.Weighted>
   9.000000E+99

> <Gold.Protein.RotatedTorsions>
[ 6907 6896 6895 6894 ] final  140.33 input  -60.11 | X-H torsion
[ 7974 7965 7964 7962 ] final  -65.54 input  175.53 | X-H torsion
[ 8008 7997 7996 7995 ] final  161.18 input   59.86 | X-H torsion
[ 10167 10162 10161 10158 ] final  -21.65 input  -65.29 | X-H torsion
[ 10718 10713 10712 10709 ] final   37.89 input   66.30 | X-H torsion
[ 10763 10752 10751 10750 ] final  155.90 input  -60.55 | X-H torsion
[ 11005 11000 10999 10996 ] final   21.83 input  -57.11 | X-H torsion

> <Gold.Protein.ActiveResidues>
 VAL166  LYS551  ARG553  GLY616  TRP617  ASP618  TYR619  PRO620  LYS621  CYS622 
 ASP623  PHE694  ASN695  SER759  ASP760  ASP761  ALA762  ILE779  LEU786  VAL792 
 PHE793  MET794  SER795  GLU796  ALA797  LYS798  CYS799  TRP800  GLU811  SER814 

> <Gold.Protein.RotatedAtoms>
  152.2444  133.5162  159.5288 H   0  0  0  0  0  0  0  0  0  0  0  0  # atno 6907 bound_to 6896
  150.7074  134.1046  159.3987 H   0  0  0  0  0  0  0  0  0  0  0  0  # atno 6908 bound_to 6896
  151.8966  135.0395  160.0553 H   0  0  0  0  0  0  0  0  0  0  0  0  # atno 6909 bound_to 6896
  145.7530  140.8899  143.0470 H   0  0  0  0  0  0  0  0  0  0  0  0  # atno 7974 bound_to 7965
  156.2121  140.1784  156.7672 H   0  0  0  0  0  0  0  0  0  0  0  0  # atno 8008 bound_to 7997
  154.5737  140.0678  156.9032 H   0  0  0  0  0  0  0  0  0  0  0  0  # atno 8009 bound_to 7997
  155.2626  140.3337  155.4274 H   0  0  0  0  0  0  0  0  0  0  0  0  # atno 8010 bound_to 7997
  140.7283  143.4608  151.0382 H   0  0  0  0  0  0  0  0  0  0  0  0  # atno 10167 bound_to 10162
  157.3523  130.7605  149.6987 H   0  0  0  0  0  0  0  0  0  0  0  0  # atno 10718 bound_to 10713
  154.1758  135.2802  155.3067 H   0  0  0  0  0  0  0  0  0  0  0  0  # atno 10763 bound_to 10752
  154.6041  135.5520  153.7408 H   0  0  0  0  0  0  0  0  0  0  0  0  # atno 10764 bound_to 10752
  153.0152  135.6399  154.1897 H   0  0  0  0  0  0  0  0  0  0  0  0  # atno 10765 bound_to 10752
  140.3873  134.1857  155.7663 H   0  0  0  0  0  0  0  0  0  0  0  0  # atno 11005 bound_to 11000
  144.6846  139.9617  143.7480 LP  0  0  0  0  0  0  0  0  0  0  0  0  # atno 17320 bound_to 7965
  146.0338  139.3359  143.0739 LP  0  0  0  0  0  0  0  0  0  0  0  0  # atno 17321 bound_to 7965
  139.8292  143.7714  152.3179 LP  0  0  0  0  0  0  0  0  0  0  0  0  # atno 17342 bound_to 10162
  139.7823  144.7440  151.0070 LP  0  0  0  0  0  0  0  0  0  0  0  0  # atno 17343 bound_to 10162
  155.9723  130.4137  150.4096 LP  0  0  0  0  0  0  0  0  0  0  0  0  # atno 17370 bound_to 10713
  157.2160  131.0471  151.2573 LP  0  0  0  0  0  0  0  0  0  0  0  0  # atno 17371 bound_to 10713
  141.1903  133.8220  157.0924 LP  0  0  0  0  0  0  0  0  0  0  0  0  # atno 17394 bound_to 11000
  140.0433  134.9843  157.1002 LP  0  0  0  0  0  0  0  0  0  0  0  0  # atno 17395 bound_to 11000

$$$$
