AV-unprocessed.smi:3287|AV-procd|sdf|12605|dock8
  -GOLD-   2272018533D 1   1.00000     0.00000
 Structure written by MMmdl.
 43 44  0  0  0  0  0  0  0  0  2 V2000
  152.8802  143.8987  162.1424 C   0  0  0  0  0  0  0  0  0  0  0  0
  152.0532  143.4964  160.9083 C   0  0  1  0  0  0  0  0  0  0  0  0
  151.6478  144.7578  160.1190 C   0  0  0  0  0  0  0  0  0  0  0  0
  150.8164  144.4228  158.8730 C   0  0  0  0  0  0  0  0  0  0  0  0
  151.5711  143.4464  157.9519 C   0  0  2  0  0  0  0  0  0  0  0  0
  150.7697  143.0830  156.7623 N   0  3  0  0  0  0  0  0  0  0  0  0
  149.6616  142.1353  157.0115 C   0  0  0  0  0  0  0  0  0  0  0  0
  149.1531  141.5061  155.7030 C   0  0  1  0  0  0  0  0  0  0  0  0
  149.2438  142.4672  154.6691 O   0  0  0  0  0  0  0  0  0  0  0  0
  149.9271  140.2405  155.3688 C   0  0  0  0  0  0  0  0  0  0  0  0
  149.4160  139.2870  154.4613 C   0  0  0  0  0  0  0  0  0  0  0  0
  150.1862  138.1398  154.1841 C   0  0  0  0  0  0  0  0  0  0  0  0
  151.3934  137.9054  154.7413 N   0  0  0  0  0  0  0  0  0  0  0  0
  151.8785  138.8210  155.6066 C   0  0  0  0  0  0  0  0  0  0  0  0
  151.1891  140.0006  155.9521 C   0  0  0  0  0  0  0  0  0  0  0  0
  151.9476  142.1766  158.7344 C   0  0  0  0  0  0  0  0  0  0  0  0
  152.7917  142.4888  159.9878 C   0  0  2  0  0  0  0  0  0  0  0  0
  153.1629  141.1799  160.7078 C   0  0  0  0  0  0  0  0  0  0  0  0
  153.8474  144.3120  161.8545 H   0  0  0  0  0  0  0  0  0  0  0  0
  153.0599  143.0522  162.8044 H   0  0  0  0  0  0  0  0  0  0  0  0
  152.3606  144.6547  162.7319 H   0  0  0  0  0  0  0  0  0  0  0  0
  151.1380  143.0224  161.2663 H   0  0  0  0  0  0  0  0  0  0  0  0
  151.0778  145.4305  160.7609 H   0  0  0  0  0  0  0  0  0  0  0  0
  152.5419  145.3063  159.8188 H   0  0  0  0  0  0  0  0  0  0  0  0
  149.8622  143.9891  159.1757 H   0  0  0  0  0  0  0  0  0  0  0  0
  150.5837  145.3489  158.3477 H   0  0  0  0  0  0  0  0  0  0  0  0
  152.4937  143.9173  157.6086 H   0  0  0  0  0  0  0  0  0  0  0  0
  150.3612  143.9322  156.3990 H   0  0  0  0  0  0  0  0  0  0  0  0
  149.9813  141.3546  157.7020 H   0  0  0  0  0  0  0  0  0  0  0  0
  148.8459  142.6749  157.4948 H   0  0  0  0  0  0  0  0  0  0  0  0
  148.0992  141.2459  155.8136 H   0  0  0  0  0  0  0  0  0  0  0  0
  148.8936  143.2851  154.9892 H   0  0  0  0  0  0  0  0  0  0  0  0
  148.4573  139.4276  153.9839 H   0  0  0  0  0  0  0  0  0  0  0  0
  149.8238  137.3918  153.4947 H   0  0  0  0  0  0  0  0  0  0  0  0
  152.8467  138.6086  156.0352 H   0  0  0  0  0  0  0  0  0  0  0  0
  151.6250  140.7018  156.6486 H   0  0  0  0  0  0  0  0  0  0  0  0
  151.0414  141.6446  159.0295 H   0  0  0  0  0  0  0  0  0  0  0  0
  152.5005  141.5001  158.0813 H   0  0  0  0  0  0  0  0  0  0  0  0
  153.7212  142.9525  159.6534 H   0  0  0  0  0  0  0  0  0  0  0  0
  152.2823  140.6950  161.1301 H   0  0  0  0  0  0  0  0  0  0  0  0
  153.8728  141.3496  161.5168 H   0  0  0  0  0  0  0  0  0  0  0  0
  153.6316  140.4745  160.0211 H   0  0  0  0  0  0  0  0  0  0  0  0
  151.3809  142.6970  156.0565 H   0  0  0  0  0  0  0  0  0  0  0  0
  1  2  1  0  0  0  0
  1 19  1  0  0  0  0
  1 20  1  0  0  0  0
  1 21  1  0  0  0  0
  2 17  1  0  0  0  0
  2  3  1  0  0  0  0
  2 22  1  0  0  0  0
  3  4  1  0  0  0  0
  3 23  1  0  0  0  0
  3 24  1  0  0  0  0
  4  5  1  0  0  0  0
  4 25  1  0  0  0  0
  4 26  1  0  0  0  0
  5  6  1  0  0  0  0
  5 16  1  0  0  0  0
  5 27  1  0  0  0  0
  6  7  1  0  0  0  0
  6 28  1  0  0  0  0
  6 43  1  0  0  0  0
  7  8  1  0  0  0  0
  7 29  1  0  0  0  0
  7 30  1  0  0  0  0
  8  9  1  0  0  0  0
  8 10  1  0  0  0  0
  8 31  1  0  0  0  0
  9 32  1  0  0  0  0
 10 15  1  0  0  0  0
 10 11  2  0  0  0  0
 11 12  1  0  0  0  0
 11 33  1  0  0  0  0
 12 13  2  0  0  0  0
 12 34  1  0  0  0  0
 13 14  1  0  0  0  0
 14 15  2  0  0  0  0
 14 35  1  0  0  0  0
 15 36  1  0  0  0  0
 16 17  1  0  0  0  0
 16 37  1  0  0  0  0
 16 38  1  0  0  0  0
 17 18  1  0  0  0  0
 17 39  1  0  0  0  0
 18 40  1  0  0  0  0
 18 41  1  0  0  0  0
 18 42  1  0  0  0  0
M  CHG  1   6   1
M  END
> <s_m_source_file>
AV-unprocessed.smi

> <i_m_source_file_index>
3287

> <i_lp_mmshare_version>
43012

> <i_f3d_flags>
0

> <s_epik_input>
W0NIM11bQ0BASF0xW0NIMl1bQ0gyXVtDQEhdKFtDSDJdW0NASF0xW0NIM10pW05IXVtDSDJdW0NASF0oW09IXSljMltjSF1bY0hdbltjSF1bY0hdMg==

> <s_epik_cmdline>
J2VwaWtfcHl0aG9uJywgJy1waCcsICc3LjAnLCAnLXRuJywgJzgnLCAnLW1hJywgJzIwMCcsICctbWV0YWxfYmluZGluZycsICctaW1hZScsICc8aW5maWxlLm1hZT4nLCAnLW9tYWUnLCAnPG91dGZpbGUubWFlPic=

> <r_lp_tautomer_probability>
1

> <r_epik_Ionization_Penalty>
0.00537262

> <r_epik_Ionization_Penalty_Charging>
0.00321624

> <r_epik_Ionization_Penalty_Neutral>
0.00215638

> <r_epik_State_Penalty>
-0

> <r_epik_Charging_Adjusted_Penalty>
0.00321624

> <i_epik_Tot_Q>
1

> <i_epik_Tot_abs_Q>
1

> <r_epik_Metal_State_Penalty>
-0

> <b_epik_Metal_Only>
0

> <s_lp_Force_Field>
OPLS_2005

> <r_lp_Energy>
15.7065

> <b_lp_Chiralities_Consistent>
1

> <s_lp_Variant>
AV-unprocessed.smi:3287-16

> <Gold.Version>
5.8.1

> <Gold.Id.Protein>
6NUR|6NUR_protein|mol2

> <Gold.PLP.Fitness>
57.7987

> <Gold.PLP.PLP>
-47.1476

> <Gold.PLP.part.hbond>
-3.7117

> <Gold.PLP.part.metal>
0.0000

> <Gold.PLP.part.buried>
-3.0438

> <Gold.PLP.part.nonpolar>
-38.8796

> <Gold.PLP.part.repulsive>
0.1261

> <Gold.PLP.ligand.clash>
0.0000

> <Gold.PLP.ligand.torsion>
0.9709

> <Gold.PLP.Chemscore.Hbond>
3.0515

> <Gold.PLP.Chemscore.CHOScore>
1.1376

> <Gold.PLP.Chemscore.Metal>
0.0000

> <Gold.Chemscore.Hbonds>
donor molecule, donor type, donor heavy atom, donor atom, acceptor molecule, acceptor atom, score
      L1  H     6    28       P1  8028  1.92
      L1  H     9    32       P1  8028  1.00
      P1  H  8011  8017       L1     9  0.01
      L1  C    12    34       P1  7948  1.00

> <Gold.PLP.Chemscore.Internal.Correction>
0.0256

> <Gold.Rescore>
     Score         DG    S(hbond)    S(metal)    S(lipo)     H(rot)  DE(clash)    DE(int)     intcor
     21.26     -22.70       1.96        0.00     132.81       1.90       0.25       1.20       ----

> <Gold.Chemscore.Fitness>
21.2600

> <Gold.Chemscore.DG>
-22.7048

> <Gold.Chemscore.ZeroCoef>
-5.4800

> <Gold.Chemscore.Hbond>
1.9639

> <Gold.Chemscore.Metal>
0.0000

> <Gold.Chemscore.Lipo>
132.8052

> <Gold.Chemscore.Internal_Hbond>
0.0000

> <Gold.Chemscore.DEClash>
0.2484

> <Gold.Chemscore.DEInternal>
1.1963

> <Gold.Chemscore.Rot>
1.9035

> <Gold.Chemscore.Internal.Correction>
   9.000000E+99

> <Gold.Chemscore.Hbonds>
donor molecule, donor type, donor heavy atom, donor atom, acceptor molecule, acceptor atom, score
      L1  H     6    28       P1  8028  0.92
      L1  H     9    32       P1  8028  0.96
      P1  H  8011  8017       L1     9  0.02

> <Gold.Chemscore.Hbond.Weighted>
-6.5594

> <Gold.Chemscore.Metal.Weighted>
-0.0000

> <Gold.Chemscore.Lipo.Weighted>
-15.5382

> <Gold.Chemscore.Internal_Hbond.Weighted>
0.0000

> <Gold.Chemscore.DEClash.Weighted>
0.2484

> <Gold.Chemscore.DEInternal.Weighted>
1.1963

> <Gold.Chemscore.Rot.Weighted>
4.8729

> <Gold.Chemscore.Internal.Correction.Weighted>
   9.000000E+99

> <Gold.Protein.RotatedTorsions>
[ 6907 6896 6895 6894 ] final -141.89 input  -60.11 | X-H torsion
[ 7974 7965 7964 7962 ] final  109.16 input  175.53 | X-H torsion
[ 8008 7997 7996 7995 ] final  114.08 input   59.86 | X-H torsion
[ 10167 10162 10161 10158 ] final  -79.91 input  -65.29 | X-H torsion
[ 10718 10713 10712 10709 ] final  -60.80 input   66.30 | X-H torsion
[ 10763 10752 10751 10750 ] final   74.85 input  -60.55 | X-H torsion
[ 11005 11000 10999 10996 ] final  -77.52 input  -57.11 | X-H torsion

> <Gold.Protein.ActiveResidues>
 VAL166  LYS551  ARG553  GLY616  TRP617  ASP618  TYR619  PRO620  LYS621  CYS622 
 ASP623  PHE694  ASN695  SER759  ASP760  ASP761  ALA762  ILE779  LEU786  VAL792 
 PHE793  MET794  SER795  GLU796  ALA797  LYS798  CYS799  TRP800  GLU811  SER814 

> <Gold.Protein.RotatedAtoms>
  151.0798  133.5399  159.2621 H   0  0  0  0  0  0  0  0  0  0  0  0  # atno 6907 bound_to 6896
  151.2307  135.0553  159.8996 H   0  0  0  0  0  0  0  0  0  0  0  0  # atno 6908 bound_to 6896
  152.5422  134.0587  159.8196 H   0  0  0  0  0  0  0  0  0  0  0  0  # atno 6909 bound_to 6896
  145.2713  139.2665  143.3964 H   0  0  0  0  0  0  0  0  0  0  0  0  # atno 7974 bound_to 7965
  156.2299  140.2966  156.0161 H   0  0  0  0  0  0  0  0  0  0  0  0  # atno 8008 bound_to 7997
  155.2254  140.0417  157.2971 H   0  0  0  0  0  0  0  0  0  0  0  0  # atno 8009 bound_to 7997
  154.5977  140.2418  155.7841 H   0  0  0  0  0  0  0  0  0  0  0  0  # atno 8010 bound_to 7997
  140.4551  143.2471  151.8432 H   0  0  0  0  0  0  0  0  0  0  0  0  # atno 10167 bound_to 10162
  156.0965  130.4192  150.0905 H   0  0  0  0  0  0  0  0  0  0  0  0  # atno 10718 bound_to 10713
  153.0615  135.5010  154.8103 H   0  0  0  0  0  0  0  0  0  0  0  0  # atno 10763 bound_to 10752
  154.6889  135.2981  154.9510 H   0  0  0  0  0  0  0  0  0  0  0  0  # atno 10764 bound_to 10752
  154.0271  135.6734  153.4830 H   0  0  0  0  0  0  0  0  0  0  0  0  # atno 10765 bound_to 10752
  141.1660  133.7026  156.7832 H   0  0  0  0  0  0  0  0  0  0  0  0  # atno 11005 bound_to 11000
  146.3245  140.3157  142.8630 LP  0  0  0  0  0  0  0  0  0  0  0  0  # atno 17320 bound_to 7965
  144.9332  140.7998  143.5676 LP  0  0  0  0  0  0  0  0  0  0  0  0  # atno 17321 bound_to 7965
  139.4800  144.5075  151.8978 LP  0  0  0  0  0  0  0  0  0  0  0  0  # atno 17342 bound_to 10162
  140.4161  144.2305  150.5888 LP  0  0  0  0  0  0  0  0  0  0  0  0  # atno 17343 bound_to 10162
  156.8902  130.9586  151.3589 LP  0  0  0  0  0  0  0  0  0  0  0  0  # atno 17370 bound_to 10713
  157.6127  130.8595  149.8978 LP  0  0  0  0  0  0  0  0  0  0  0  0  # atno 17371 bound_to 10713
  140.2379  134.8636  157.3543 LP  0  0  0  0  0  0  0  0  0  0  0  0  # atno 17394 bound_to 11000
  140.1825  134.4472  155.7763 LP  0  0  0  0  0  0  0  0  0  0  0  0  # atno 17395 bound_to 11000

$$$$
