AV-unprocessed.smi:439|AV-procd|sdf|2580|dock3
  -GOLD-   2262022563D 1   1.00000     0.00000
 Structure written by MMmdl.
 45 46  0  0  0  0  0  0  0  0  2 V2000
  145.0158  131.4264  151.1973 C   0  0  0  0  0  0  0  0  0  0  0  0
  145.1159  132.5846  152.1992 C   0  0  0  0  0  0  0  0  0  0  0  0
  146.0961  132.3205  153.3534 C   0  0  0  0  0  0  0  0  0  0  0  0
  147.5760  132.3493  152.9266 C   0  0  0  0  0  0  0  0  0  0  0  0
  148.4505  132.7599  154.0460 N   0  0  0  0  0  0  0  0  0  0  0  0
  148.6385  134.1445  154.3038 C   0  0  0  0  0  0  0  0  0  0  0  0
  147.9964  135.0734  153.4968 N   0  0  0  0  0  0  0  0  0  0  0  0
  149.4176  134.5435  155.3453 C   0  0  0  0  0  0  0  0  0  0  0  0
  149.6488  135.9081  155.6308 N   0  0  0  0  0  0  0  0  0  0  0  0
  148.7370  136.5224  156.6122 C   0  0  0  0  0  0  0  0  0  0  0  0
  149.0078  136.0191  158.0389 C   0  0  0  0  0  0  0  0  0  0  0  0
  150.5868  136.6793  155.0004 C   0  0  0  0  0  0  0  0  0  0  0  0
  151.4530  136.1680  154.2864 O   0  0  0  0  0  0  0  0  0  0  0  0
  150.4972  138.1322  155.1815 C   0  0  0  0  0  0  0  0  0  0  0  0
  150.1422  138.8975  154.1237 C   0  0  0  0  0  0  0  0  0  0  0  0
  149.9746  140.2588  154.1852 O   0  0  0  0  0  0  0  0  0  0  0  0
  149.9683  140.8011  155.5007 C   0  0  0  0  0  0  0  0  0  0  0  0
  151.0191  140.1034  156.3751 C   0  0  0  0  0  0  0  0  0  0  0  0
  150.7665  138.7046  156.4044 O   0  0  0  0  0  0  0  0  0  0  0  0
  150.0878  133.5204  156.1601 C   0  0  0  0  0  0  0  0  0  0  0  0
  150.8205  133.8512  157.0926 O   0  0  0  0  0  0  0  0  0  0  0  0
  149.8731  132.2170  155.8417 N   0  5  0  0  0  0  0  0  0  0  0  0
  149.0831  131.8142  154.8062 C   0  0  0  0  0  0  0  0  0  0  0  0
  148.9293  130.6217  154.5384 O   0  0  0  0  0  0  0  0  0  0  0  0
  144.2586  131.6352  150.4414 H   0  0  0  0  0  0  0  0  0  0  0  0
  144.7395  130.4973  151.6963 H   0  0  0  0  0  0  0  0  0  0  0  0
  145.9594  131.2618  150.6773 H   0  0  0  0  0  0  0  0  0  0  0  0
  145.3948  133.5011  151.6782 H   0  0  0  0  0  0  0  0  0  0  0  0
  144.1254  132.7646  152.6181 H   0  0  0  0  0  0  0  0  0  0  0  0
  145.9381  133.0785  154.1216 H   0  0  0  0  0  0  0  0  0  0  0  0
  145.8588  131.3649  153.8224 H   0  0  0  0  0  0  0  0  0  0  0  0
  147.8832  131.3800  152.5357 H   0  0  0  0  0  0  0  0  0  0  0  0
  147.6932  133.0134  152.0688 H   0  0  0  0  0  0  0  0  0  0  0  0
  147.3998  134.7924  152.7322 H   0  0  0  0  0  0  0  0  0  0  0  0
  148.1476  136.0657  153.6078 H   0  0  0  0  0  0  0  0  0  0  0  0
  148.8453  137.6075  156.6052 H   0  0  0  0  0  0  0  0  0  0  0  0
  147.6967  136.3366  156.3399 H   0  0  0  0  0  0  0  0  0  0  0  0
  148.3312  136.4930  158.7500 H   0  0  0  0  0  0  0  0  0  0  0  0
  150.0276  136.2485  158.3497 H   0  0  0  0  0  0  0  0  0  0  0  0
  148.8695  134.9409  158.1191 H   0  0  0  0  0  0  0  0  0  0  0  0
  149.9265  138.5164  153.1357 H   0  0  0  0  0  0  0  0  0  0  0  0
  150.1665  141.8719  155.4471 H   0  0  0  0  0  0  0  0  0  0  0  0
  148.9742  140.6798  155.9329 H   0  0  0  0  0  0  0  0  0  0  0  0
  152.0235  140.2803  155.9872 H   0  0  0  0  0  0  0  0  0  0  0  0
  150.9932  140.4921  157.3931 H   0  0  0  0  0  0  0  0  0  0  0  0
  1  2  1  0  0  0  0
  1 25  1  0  0  0  0
  1 26  1  0  0  0  0
  1 27  1  0  0  0  0
  2  3  1  0  0  0  0
  2 28  1  0  0  0  0
  2 29  1  0  0  0  0
  3  4  1  0  0  0  0
  3 30  1  0  0  0  0
  3 31  1  0  0  0  0
  4  5  1  0  0  0  0
  4 32  1  0  0  0  0
  4 33  1  0  0  0  0
  5 23  1  0  0  0  0
  5  6  1  0  0  0  0
  6  7  1  0  0  0  0
  6  8  2  0  0  0  0
  7 34  1  0  0  0  0
  7 35  1  0  0  0  0
  8  9  1  0  0  0  0
  8 20  1  0  0  0  0
  9 10  1  0  0  0  0
  9 12  1  0  0  0  0
 10 11  1  0  0  0  0
 10 36  1  0  0  0  0
 10 37  1  0  0  0  0
 11 38  1  0  0  0  0
 11 39  1  0  0  0  0
 11 40  1  0  0  0  0
 12 13  2  0  0  0  0
 12 14  1  0  0  0  0
 14 19  1  0  0  0  0
 14 15  2  0  0  0  0
 15 16  1  0  0  0  0
 15 41  1  0  0  0  0
 16 17  1  0  0  0  0
 17 18  1  0  0  0  0
 17 42  1  0  0  0  0
 17 43  1  0  0  0  0
 18 19  1  0  0  0  0
 18 44  1  0  0  0  0
 18 45  1  0  0  0  0
 20 21  2  0  0  0  0
 20 22  1  0  0  0  0
 22 23  1  0  0  0  0
 23 24  2  0  0  0  0
M  CHG  1  22  -1
M  END
> <s_m_source_file>
AV-unprocessed.smi

> <i_m_source_file_index>
439

> <i_lp_mmshare_version>
43012

> <i_f3d_flags>
0

> <s_epik_input>
W0NIM11bQ0gyXVtDSDJdW0NIMl1uMWMoW05IMl0pYyhjKD1PKVtuSF1jMT1PKU4oW0NIMl1bQ0gzXSlDKD1PKUMyPVtDSF1PW0NIMl1bQ0gyXU8y

> <s_epik_cmdline>
J2VwaWtfcHl0aG9uJywgJy1waCcsICc3LjAnLCAnLXRuJywgJzgnLCAnLW1hJywgJzIwMCcsICctbWV0YWxfYmluZGluZycsICctaW1hZScsICc8aW5maWxlLm1hZT4nLCAnLW9tYWUnLCAnPG91dGZpbGUubWFlPic=

> <r_lp_tautomer_probability>
1

> <r_epik_Ionization_Penalty>
6.21372

> <r_epik_Ionization_Penalty_Charging>
0.188923

> <r_epik_Ionization_Penalty_Neutral>
6.0248

> <r_epik_State_Penalty>
6.02477

> <r_epik_Charging_Adjusted_Penalty>
6.2137

> <i_epik_Tot_Q>
-1

> <i_epik_Tot_abs_Q>
1

> <r_epik_Metal_State_Penalty>
1.95433

> <b_epik_Metal_Only>
1

> <s_epik_Chemistry_Notes>
This compound has an imine and may undergo hydrolysis.

> <s_lp_Force_Field>
OPLS_2005

> <r_lp_Energy>
37.3971

> <b_lp_Chiralities_Consistent>
1

> <s_lp_Variant>
AV-unprocessed.smi:439-2

> <Gold.Version>
5.8.1

> <Gold.Id.Protein>
6NUR|6NUR_protein|mol2

> <Gold.PLP.Fitness>
38.7410

> <Gold.PLP.PLP>
-29.8151

> <Gold.PLP.part.hbond>
-3.2162

> <Gold.PLP.part.metal>
0.0000

> <Gold.PLP.part.buried>
-4.1417

> <Gold.PLP.part.nonpolar>
-25.5337

> <Gold.PLP.part.repulsive>
2.7874

> <Gold.PLP.ligand.clash>
0.0000

> <Gold.PLP.ligand.torsion>
3.4656

> <Gold.PLP.Chemscore.Hbond>
2.5680

> <Gold.PLP.Chemscore.CHOScore>
1.5281

> <Gold.PLP.Chemscore.Metal>
0.0000

> <Gold.Chemscore.Hbonds>
donor molecule, donor type, donor heavy atom, donor atom, acceptor molecule, acceptor atom, score
      P1  H  6896  6908       L1    21  0.48
      P1  H  7989  7998       L1    16  0.88
      P1  H 10752 10765       L1    13  1.00
      L1  C    15    41       P1  7948  0.47
      L1  C    15    41       P1  7957  0.86

> <Gold.PLP.Chemscore.Internal.Correction>
3.5689

> <Gold.Rescore>
     Score         DG    S(hbond)    S(metal)    S(lipo)     H(rot)  DE(clash)    DE(int)     intcor
     13.11     -16.69       2.76        0.00      52.69       1.63       0.04       3.54       ----

> <Gold.Chemscore.Fitness>
13.1057

> <Gold.Chemscore.DG>
-16.6867

> <Gold.Chemscore.ZeroCoef>
-5.4800

> <Gold.Chemscore.Hbond>
2.7608

> <Gold.Chemscore.Metal>
0.0000

> <Gold.Chemscore.Lipo>
52.6928

> <Gold.Chemscore.Internal_Hbond>
0.0000

> <Gold.Chemscore.DEClash>
0.0402

> <Gold.Chemscore.DEInternal>
3.5408

> <Gold.Chemscore.Rot>
1.6325

> <Gold.Chemscore.Internal.Correction>
   9.000000E+99

> <Gold.Chemscore.Hbonds>
donor molecule, donor type, donor heavy atom, donor atom, acceptor molecule, acceptor atom, score
      L1  H     7    35       P1  7948  0.01
      P1  H  6896  6908       L1    21  0.48
      P1  H  7989  7998       L1    16  0.12
      P1  H 10752 10765       L1    13  0.97

> <Gold.Chemscore.Hbond.Weighted>
-9.2210

> <Gold.Chemscore.Metal.Weighted>
-0.0000

> <Gold.Chemscore.Lipo.Weighted>
-6.1651

> <Gold.Chemscore.Internal_Hbond.Weighted>
0.0000

> <Gold.Chemscore.DEClash.Weighted>
0.0402

> <Gold.Chemscore.DEInternal.Weighted>
3.5408

> <Gold.Chemscore.Rot.Weighted>
4.1793

> <Gold.Chemscore.Internal.Correction.Weighted>
   9.000000E+99

> <Gold.Protein.RotatedTorsions>
[ 6907 6896 6895 6894 ] final  111.65 input  -60.11 | X-H torsion
[ 7974 7965 7964 7962 ] final  165.06 input  175.53 | X-H torsion
[ 8008 7997 7996 7995 ] final -155.23 input   59.86 | X-H torsion
[ 10167 10162 10161 10158 ] final  -25.06 input  -65.29 | X-H torsion
[ 10718 10713 10712 10709 ] final  169.26 input   66.30 | X-H torsion
[ 10763 10752 10751 10750 ] final  158.77 input  -60.55 | X-H torsion
[ 11005 11000 10999 10996 ] final  -71.21 input  -57.11 | X-H torsion

> <Gold.Protein.ActiveResidues>
 VAL166  LYS551  ARG553  GLY616  TRP617  ASP618  TYR619  PRO620  LYS621  CYS622 
 ASP623  PHE694  ASN695  SER759  ASP760  ASP761  ALA762  ILE779  LEU786  VAL792 
 PHE793  MET794  SER795  GLU796  ALA797  LYS798  CYS799  TRP800  GLU811  SER814 

> <Gold.Protein.RotatedAtoms>
  152.4958  133.8627  159.7258 H   0  0  0  0  0  0  0  0  0  0  0  0  # atno 6907 bound_to 6896
  150.9134  133.6960  159.2856 H   0  0  0  0  0  0  0  0  0  0  0  0  # atno 6908 bound_to 6896
  151.4361  135.1019  159.9709 H   0  0  0  0  0  0  0  0  0  0  0  0  # atno 6909 bound_to 6896
  144.7518  139.8416  143.6363 H   0  0  0  0  0  0  0  0  0  0  0  0  # atno 7974 bound_to 7965
  155.6986  140.0764  157.2419 H   0  0  0  0  0  0  0  0  0  0  0  0  # atno 8008 bound_to 7997
  154.4077  140.1651  156.2218 H   0  0  0  0  0  0  0  0  0  0  0  0  # atno 8009 bound_to 7997
  155.9388  140.3386  155.6313 H   0  0  0  0  0  0  0  0  0  0  0  0  # atno 8010 bound_to 7997
  140.7287  143.4298  151.0820 H   0  0  0  0  0  0  0  0  0  0  0  0  # atno 10167 bound_to 10162
  157.0251  131.0243  151.2762 H   0  0  0  0  0  0  0  0  0  0  0  0  # atno 10718 bound_to 10713
  154.2213  135.2782  155.2923 H   0  0  0  0  0  0  0  0  0  0  0  0  # atno 10763 bound_to 10752
  154.5699  135.5621  153.7089 H   0  0  0  0  0  0  0  0  0  0  0  0  # atno 10764 bound_to 10752
  153.0041  135.6319  154.2353 H   0  0  0  0  0  0  0  0  0  0  0  0  # atno 10765 bound_to 10752
  141.1588  133.6811  156.6872 H   0  0  0  0  0  0  0  0  0  0  0  0  # atno 11005 bound_to 11000
  146.1479  139.4553  143.0067 LP  0  0  0  0  0  0  0  0  0  0  0  0  # atno 17320 bound_to 7965
  145.6916  141.0162  143.1552 LP  0  0  0  0  0  0  0  0  0  0  0  0  # atno 17321 bound_to 7965
  139.7953  143.8160  152.3157 LP  0  0  0  0  0  0  0  0  0  0  0  0  # atno 17342 bound_to 10162
  139.8158  144.7317  150.9637 LP  0  0  0  0  0  0  0  0  0  0  0  0  # atno 17343 bound_to 10162
  157.5220  130.8004  149.7819 LP  0  0  0  0  0  0  0  0  0  0  0  0  # atno 17370 bound_to 10713
  156.0088  130.3842  150.2335 LP  0  0  0  0  0  0  0  0  0  0  0  0  # atno 17371 bound_to 10713
  140.3058  134.8126  157.4136 LP  0  0  0  0  0  0  0  0  0  0  0  0  # atno 17394 bound_to 11000
  140.1222  134.5205  155.8174 LP  0  0  0  0  0  0  0  0  0  0  0  0  # atno 17395 bound_to 11000

$$$$
