AV-unprocessed.smi:2291|AV-procd|sdf|9212|dock7
  -GOLD-   2272012433D 1   1.00000     0.00000
 Structure written by MMmdl.
 44 46  0  0  0  0  0  0  0  0  1 V2000
  142.9937  136.4182  154.0033 O   0  0  0  0  0  0  0  0  0  0  0  0
  143.0275  137.4880  153.3940 C   0  0  0  0  0  0  0  0  0  0  0  0
  141.9571  138.2450  153.0957 N   0  0  0  0  0  0  0  0  0  0  0  0
  140.5902  137.9822  153.3781 C   0  0  0  0  0  0  0  0  0  0  0  0
  139.7101  139.0593  153.1276 C   0  0  0  0  0  0  0  0  0  0  0  0
  138.3320  138.8997  153.3707 C   0  0  0  0  0  0  0  0  0  0  0  0
  137.8707  137.6647  153.8603 C   0  0  0  0  0  0  0  0  0  0  0  0
  136.1940  137.4086  154.1757 Cl  0  0  0  0  0  0  0  0  0  0  0  0
  138.8126  136.6439  154.0855 C   0  0  0  0  0  0  0  0  0  0  0  0
  140.1336  136.7958  153.8525 N   0  0  0  0  0  0  0  0  0  0  0  0
  144.1597  138.0475  152.9322 N   0  0  0  0  0  0  0  0  0  0  0  0
  145.5225  137.5041  153.0188 C   0  0  0  0  0  0  0  0  0  0  0  0
  145.5786  136.1369  152.2834 C   0  0  0  0  0  0  0  0  0  0  0  0
  146.0916  135.1690  152.8476 O   0  0  0  0  0  0  0  0  0  0  0  0
  145.0948  136.0597  151.0331 N   0  0  0  0  0  0  0  0  0  0  0  0
  145.1001  134.8628  150.2032 C   0  0  0  0  0  0  0  0  0  0  0  0
  144.2915  133.7018  150.7499 C   0  0  0  0  0  0  0  0  0  0  0  0
  144.9522  132.3939  151.1209 C   0  0  0  0  0  0  0  0  0  0  0  0
  144.0598  132.4699  149.9061 C   0  0  0  0  0  0  0  0  0  0  0  0
  146.4972  138.5083  152.3331 C   0  0  0  0  0  0  0  0  0  0  0  0
  147.5017  138.9789  153.3909 C   0  0  0  0  0  0  0  0  0  0  0  0
  147.4792  137.8972  154.4614 C   0  0  0  0  0  0  0  0  0  0  0  0
  146.0147  137.4734  154.4974 C   0  0  0  0  0  0  0  0  0  0  0  0
  142.1392  139.0991  152.5899 H   0  0  0  0  0  0  0  0  0  0  0  0
  140.0822  140.0008  152.7499 H   0  0  0  0  0  0  0  0  0  0  0  0
  137.6440  139.7108  153.1833 H   0  0  0  0  0  0  0  0  0  0  0  0
  138.5000  135.6809  154.4615 H   0  0  0  0  0  0  0  0  0  0  0  0
  144.0720  138.9265  152.4443 H   0  0  0  0  0  0  0  0  0  0  0  0
  144.7074  136.8977  150.6238 H   0  0  0  0  0  0  0  0  0  0  0  0
  144.6869  135.1363  149.2321 H   0  0  0  0  0  0  0  0  0  0  0  0
  146.1270  134.5427  150.0181 H   0  0  0  0  0  0  0  0  0  0  0  0
  143.4483  134.0082  151.3662 H   0  0  0  0  0  0  0  0  0  0  0  0
  146.0233  132.2998  150.9523 H   0  0  0  0  0  0  0  0  0  0  0  0
  144.5715  131.8725  151.9966 H   0  0  0  0  0  0  0  0  0  0  0  0
  143.0834  131.9941  149.9691 H   0  0  0  0  0  0  0  0  0  0  0  0
  144.5380  132.4263  148.9293 H   0  0  0  0  0  0  0  0  0  0  0  0
  147.0541  138.0478  151.5151 H   0  0  0  0  0  0  0  0  0  0  0  0
  145.9807  139.3645  151.8964 H   0  0  0  0  0  0  0  0  0  0  0  0
  148.4988  139.1410  152.9803 H   0  0  0  0  0  0  0  0  0  0  0  0
  147.1641  139.9230  153.8208 H   0  0  0  0  0  0  0  0  0  0  0  0
  148.1044  137.0559  154.1586 H   0  0  0  0  0  0  0  0  0  0  0  0
  147.8379  138.2544  155.4271 H   0  0  0  0  0  0  0  0  0  0  0  0
  145.4666  138.2109  155.0866 H   0  0  0  0  0  0  0  0  0  0  0  0
  145.8782  136.5251  155.0166 H   0  0  0  0  0  0  0  0  0  0  0  0
  1  2  2  0  0  0  0
  2  3  1  0  0  0  0
  2 11  1  0  0  0  0
  3  4  1  0  0  0  0
  3 24  1  0  0  0  0
  4 10  1  0  0  0  0
  4  5  2  0  0  0  0
  5  6  1  0  0  0  0
  5 25  1  0  0  0  0
  6  7  2  0  0  0  0
  6 26  1  0  0  0  0
  7  8  1  0  0  0  0
  7  9  1  0  0  0  0
  9 10  2  0  0  0  0
  9 27  1  0  0  0  0
 11 12  1  0  0  0  0
 11 28  1  0  0  0  0
 12 23  1  0  0  0  0
 12 13  1  0  0  0  0
 12 20  1  0  0  0  0
 13 14  2  0  0  0  0
 13 15  1  0  0  0  0
 15 16  1  0  0  0  0
 15 29  1  0  0  0  0
 16 17  1  0  0  0  0
 16 30  1  0  0  0  0
 16 31  1  0  0  0  0
 17 19  1  0  0  0  0
 17 18  1  0  0  0  0
 17 32  1  0  0  0  0
 18 19  1  0  0  0  0
 18 33  1  0  0  0  0
 18 34  1  0  0  0  0
 19 35  1  0  0  0  0
 19 36  1  0  0  0  0
 20 21  1  0  0  0  0
 20 37  1  0  0  0  0
 20 38  1  0  0  0  0
 21 22  1  0  0  0  0
 21 39  1  0  0  0  0
 21 40  1  0  0  0  0
 22 23  1  0  0  0  0
 22 41  1  0  0  0  0
 22 42  1  0  0  0  0
 23 43  1  0  0  0  0
 23 44  1  0  0  0  0
M  END
> <s_m_source_file>
AV-unprocessed.smi

> <i_m_source_file_index>
2291

> <i_lp_mmshare_version>
43012

> <i_f3d_flags>
0

> <s_epik_input>
bjFbY0hdYyhDbClbY0hdW2NIXWMxW05IXUMoPU8pW05IXUMyKFtDSDJdW0NIMl1bQ0gyXVtDSDJdMilDKD1PKVtOSF1bQ0gyXVtDSF0zW0NIMl1bQ0gyXTM=

> <s_epik_cmdline>
J2VwaWtfcHl0aG9uJywgJy1waCcsICc3LjAnLCAnLXRuJywgJzgnLCAnLW1hJywgJzIwMCcsICctbWV0YWxfYmluZGluZycsICctaW1hZScsICc8aW5maWxlLm1hZT4nLCAnLW9tYWUnLCAnPG91dGZpbGUubWFlPic=

> <r_lp_tautomer_probability>
1

> <r_epik_Ionization_Penalty>
3.27384e-05

> <r_epik_Ionization_Penalty_Charging>
0

> <r_epik_Ionization_Penalty_Neutral>
3.27384e-05

> <r_epik_State_Penalty>
-0

> <r_epik_Charging_Adjusted_Penalty>
0

> <i_epik_Tot_Q>
0

> <i_epik_Tot_abs_Q>
0

> <r_epik_Metal_State_Penalty>
-0

> <b_epik_Metal_Only>
0

> <s_lp_Force_Field>
OPLS_2005

> <r_lp_Energy>
31.8647

> <b_lp_Chiralities_Consistent>
1

> <s_lp_Variant>
AV-unprocessed.smi:2291-1

> <Gold.Version>
5.8.1

> <Gold.Id.Protein>
6NUR|6NUR_protein|mol2

> <Gold.PLP.Fitness>
45.9176

> <Gold.PLP.PLP>
-38.1586

> <Gold.PLP.part.hbond>
-3.3081

> <Gold.PLP.part.metal>
0.0000

> <Gold.PLP.part.buried>
-1.8124

> <Gold.PLP.part.nonpolar>
-34.5019

> <Gold.PLP.part.repulsive>
0.2900

> <Gold.PLP.ligand.clash>
0.0000

> <Gold.PLP.ligand.torsion>
0.6439

> <Gold.PLP.Chemscore.Hbond>
2.8000

> <Gold.PLP.Chemscore.CHOScore>
0.0000

> <Gold.PLP.Chemscore.Metal>
0.0000

> <Gold.Chemscore.Hbonds>
donor molecule, donor type, donor heavy atom, donor atom, acceptor molecule, acceptor atom, score
      L1  H     3    24       P1 10175  0.77
      L1  H    11    28       P1 10175  0.99
      L1  H    15    29       P1 10171  0.96

> <Gold.PLP.Chemscore.Internal.Correction>
0.6467

> <Gold.Rescore>
     Score         DG    S(hbond)    S(metal)    S(lipo)     H(rot)  DE(clash)    DE(int)     intcor
     18.06     -21.35       2.83        0.00      92.31       1.71       1.43       1.86       ----

> <Gold.Chemscore.Fitness>
18.0585

> <Gold.Chemscore.DG>
-21.3521

> <Gold.Chemscore.ZeroCoef>
-5.4800

> <Gold.Chemscore.Hbond>
2.8262

> <Gold.Chemscore.Metal>
0.0000

> <Gold.Chemscore.Lipo>
92.3057

> <Gold.Chemscore.Internal_Hbond>
0.0000

> <Gold.Chemscore.DEClash>
1.4329

> <Gold.Chemscore.DEInternal>
1.8608

> <Gold.Chemscore.Rot>
1.7059

> <Gold.Chemscore.Internal.Correction>
   9.000000E+99

> <Gold.Chemscore.Hbonds>
donor molecule, donor type, donor heavy atom, donor atom, acceptor molecule, acceptor atom, score
      L1  H     3    24       P1 10175  0.65
      L1  H    11    28       P1 10175  0.91
      L1  H    15    29       P1 10171  0.91

> <Gold.Chemscore.Hbond.Weighted>
-9.4394

> <Gold.Chemscore.Metal.Weighted>
-0.0000

> <Gold.Chemscore.Lipo.Weighted>
-10.7998

> <Gold.Chemscore.Internal_Hbond.Weighted>
0.0000

> <Gold.Chemscore.DEClash.Weighted>
1.4329

> <Gold.Chemscore.DEInternal.Weighted>
1.8608

> <Gold.Chemscore.Rot.Weighted>
4.3671

> <Gold.Chemscore.Internal.Correction.Weighted>
   9.000000E+99

> <Gold.Protein.RotatedTorsions>
[ 6907 6896 6895 6894 ] final -115.89 input  -60.11 | X-H torsion
[ 7974 7965 7964 7962 ] final -173.11 input  175.53 | X-H torsion
[ 8008 7997 7996 7995 ] final   -5.30 input   59.86 | X-H torsion
[ 10167 10162 10161 10158 ] final  142.80 input  -65.29 | X-H torsion
[ 10718 10713 10712 10709 ] final -153.62 input   66.30 | X-H torsion
[ 10763 10752 10751 10750 ] final  152.82 input  -60.55 | X-H torsion
[ 11005 11000 10999 10996 ] final  -16.56 input  -57.11 | X-H torsion

> <Gold.Protein.ActiveResidues>
 VAL166  LYS551  ARG553  GLY616  TRP617  ASP618  TYR619  PRO620  LYS621  CYS622 
 ASP623  PHE694  ASN695  SER759  ASP760  ASP761  ALA762  ILE779  LEU786  VAL792 
 PHE793  MET794  SER795  GLU796  ALA797  LYS798  CYS799  TRP800  GLU811  SER814 

> <Gold.Protein.RotatedAtoms>
  150.8013  133.8593  159.3227 H   0  0  0  0  0  0  0  0  0  0  0  0  # atno 6907 bound_to 6896
  151.6405  135.1011  160.0150 H   0  0  0  0  0  0  0  0  0  0  0  0  # atno 6908 bound_to 6896
  152.4101  133.6910  159.6425 H   0  0  0  0  0  0  0  0  0  0  0  0  # atno 6909 bound_to 6896
  144.7140  140.1670  143.6371 H   0  0  0  0  0  0  0  0  0  0  0  0  # atno 7974 bound_to 7965
  154.6054  140.2462  155.7738 H   0  0  0  0  0  0  0  0  0  0  0  0  # atno 8008 bound_to 7997
  156.2337  140.2957  156.0207 H   0  0  0  0  0  0  0  0  0  0  0  0  # atno 8009 bound_to 7997
  155.2141  140.0398  157.2928 H   0  0  0  0  0  0  0  0  0  0  0  0  # atno 8010 bound_to 7997
  139.4985  144.6083  151.6330 H   0  0  0  0  0  0  0  0  0  0  0  0  # atno 10167 bound_to 10162
  156.4883  130.8335  151.2559 H   0  0  0  0  0  0  0  0  0  0  0  0  # atno 10718 bound_to 10713
  154.1263  135.2829  155.3196 H   0  0  0  0  0  0  0  0  0  0  0  0  # atno 10763 bound_to 10752
  154.6387  135.5410  153.7768 H   0  0  0  0  0  0  0  0  0  0  0  0  # atno 10764 bound_to 10752
  153.0296  135.6481  154.1415 H   0  0  0  0  0  0  0  0  0  0  0  0  # atno 10765 bound_to 10752
  140.8080  133.8162  155.9535 H   0  0  0  0  0  0  0  0  0  0  0  0  # atno 11005 bound_to 11000
  145.8978  139.2413  143.1511 LP  0  0  0  0  0  0  0  0  0  0  0  0  # atno 17320 bound_to 7965
  145.9840  140.8658  143.0100 LP  0  0  0  0  0  0  0  0  0  0  0  0  # atno 17321 bound_to 7965
  140.5750  144.0044  150.6237 LP  0  0  0  0  0  0  0  0  0  0  0  0  # atno 17342 bound_to 10162
  140.3174  143.3159  152.0819 LP  0  0  0  0  0  0  0  0  0  0  0  0  # atno 17343 bound_to 10162
  157.7476  131.0022  150.2992 LP  0  0  0  0  0  0  0  0  0  0  0  0  # atno 17370 bound_to 10713
  156.3452  130.3822  149.7375 LP  0  0  0  0  0  0  0  0  0  0  0  0  # atno 17371 bound_to 10713
  140.9227  134.2122  157.4916 LP  0  0  0  0  0  0  0  0  0  0  0  0  # atno 17394 bound_to 11000
  139.8716  134.9799  156.5055 LP  0  0  0  0  0  0  0  0  0  0  0  0  # atno 17395 bound_to 11000

$$$$
