AV-unprocessed.smi:3091|AV-procd|sdf|11780|dock7
  -GOLD-   2272017163D 1   1.00000     0.00000
 Structure written by MMmdl.
 28 29  0  0  0  0  0  0  0  0  1 V2000
  149.1557  141.2520  153.5747 N   0  0  0  0  0  0  0  0  0  0  0  0
  149.0873  140.1470  154.5089 C   0  0  0  0  0  0  0  0  0  0  0  0
  150.3495  140.0181  155.3352 C   0  0  0  0  0  0  0  0  0  0  0  0
  151.2610  138.9715  155.0929 C   0  0  0  0  0  0  0  0  0  0  0  0
  152.4151  138.8899  155.8957 C   0  0  0  0  0  0  0  0  0  0  0  0
  152.6908  139.7635  156.8873 N   0  0  0  0  0  0  0  0  0  0  0  0
  151.8099  140.7680  157.1234 C   0  0  0  0  0  0  0  0  0  0  0  0
  152.0744  141.6700  158.1350 O   0  0  0  0  0  0  0  0  0  0  0  0
  151.1901  142.7727  158.3471 C   0  0  2  0  0  0  0  0  0  0  0  0
  151.5209  143.9277  157.4107 C   0  0  0  0  0  0  0  0  0  0  0  0
  152.5822  144.6877  158.1916 C   0  0  0  0  0  0  0  0  0  0  0  0
  152.0972  144.6310  159.5222 O   0  0  0  0  0  0  0  0  0  0  0  0
  151.4901  143.3598  159.7346 C   0  0  0  0  0  0  0  0  0  0  0  0
  150.6280  140.9314  156.3723 C   0  0  0  0  0  0  0  0  0  0  0  0
  149.2729  140.8939  152.6376 H   0  0  0  0  0  0  0  0  0  0  0  0
  148.2840  141.7619  153.5846 H   0  0  0  0  0  0  0  0  0  0  0  0
  148.2278  140.2846  155.1656 H   0  0  0  0  0  0  0  0  0  0  0  0
  148.9197  139.2233  153.9542 H   0  0  0  0  0  0  0  0  0  0  0  0
  151.0811  138.2474  154.3120 H   0  0  0  0  0  0  0  0  0  0  0  0
  153.1358  138.1014  155.7378 H   0  0  0  0  0  0  0  0  0  0  0  0
  150.1442  142.4683  158.2827 H   0  0  0  0  0  0  0  0  0  0  0  0
  151.8624  143.6156  156.4238 H   0  0  0  0  0  0  0  0  0  0  0  0
  150.6418  144.5594  157.2782 H   0  0  0  0  0  0  0  0  0  0  0  0
  153.5473  144.1822  158.1308 H   0  0  0  0  0  0  0  0  0  0  0  0
  152.7061  145.7155  157.8506 H   0  0  0  0  0  0  0  0  0  0  0  0
  150.5793  143.4921  160.3187 H   0  0  0  0  0  0  0  0  0  0  0  0
  152.1604  142.7170  160.3067 H   0  0  0  0  0  0  0  0  0  0  0  0
  149.9491  141.7425  156.5914 H   0  0  0  0  0  0  0  0  0  0  0  0
  1  2  1  0  0  0  0
  1 15  1  0  0  0  0
  1 16  1  0  0  0  0
  2  3  1  0  0  0  0
  2 17  1  0  0  0  0
  2 18  1  0  0  0  0
  3 14  1  0  0  0  0
  3  4  2  0  0  0  0
  4  5  1  0  0  0  0
  4 19  1  0  0  0  0
  5  6  2  0  0  0  0
  5 20  1  0  0  0  0
  6  7  1  0  0  0  0
  7  8  1  0  0  0  0
  7 14  2  0  0  0  0
  8  9  1  0  0  0  0
  9 13  1  0  0  0  0
  9 10  1  0  0  0  0
  9 21  1  0  0  0  0
 10 11  1  0  0  0  0
 10 22  1  0  0  0  0
 10 23  1  0  0  0  0
 11 12  1  0  0  0  0
 11 24  1  0  0  0  0
 11 25  1  0  0  0  0
 12 13  1  0  0  0  0
 13 26  1  0  0  0  0
 13 27  1  0  0  0  0
 14 28  1  0  0  0  0
M  END
> <s_m_source_file>
AV-unprocessed.smi

> <i_m_source_file_index>
3091

> <i_lp_mmshare_version>
43012

> <i_f3d_flags>
0

> <s_epik_input>
W05IMl1bQ0gyXWMxW2NIXVtjSF1uYyhbY0hdMSlPW0NAQEhdMltDSDJdW0NIMl1PW0NIMl0y

> <s_epik_cmdline>
J2VwaWtfcHl0aG9uJywgJy1waCcsICc3LjAnLCAnLXRuJywgJzgnLCAnLW1hJywgJzIwMCcsICctbWV0YWxfYmluZGluZycsICctaW1hZScsICc8aW5maWxlLm1hZT4nLCAnLW9tYWUnLCAnPG91dGZpbGUubWFlPic=

> <r_lp_tautomer_probability>
1

> <r_epik_Ionization_Penalty>
1.24495

> <r_epik_Ionization_Penalty_Charging>
0

> <r_epik_Ionization_Penalty_Neutral>
1.24495

> <r_epik_State_Penalty>
1.3141

> <r_epik_Charging_Adjusted_Penalty>
1.3141

> <i_epik_Tot_Q>
0

> <i_epik_Tot_abs_Q>
0

> <r_epik_Metal_State_Penalty>
1.31398

> <b_epik_Metal_Only>
0

> <s_lp_Force_Field>
OPLS_2005

> <r_lp_Energy>
14.7712

> <b_lp_Chiralities_Consistent>
1

> <s_lp_Variant>
AV-unprocessed.smi:3091-3

> <Gold.Version>
5.8.1

> <Gold.Id.Protein>
6NUR|6NUR_protein|mol2

> <Gold.PLP.Fitness>
39.2856

> <Gold.PLP.PLP>
-33.9742

> <Gold.PLP.part.hbond>
-4.0000

> <Gold.PLP.part.metal>
0.0000

> <Gold.PLP.part.buried>
-2.9502

> <Gold.PLP.part.nonpolar>
-26.5361

> <Gold.PLP.part.repulsive>
0.0261

> <Gold.PLP.ligand.clash>
0.0000

> <Gold.PLP.ligand.torsion>
0.3530

> <Gold.PLP.Chemscore.Hbond>
2.0000

> <Gold.PLP.Chemscore.CHOScore>
0.0000

> <Gold.PLP.Chemscore.Metal>
0.0000

> <Gold.Chemscore.Hbonds>
donor molecule, donor type, donor heavy atom, donor atom, acceptor molecule, acceptor atom, score
      L1  H     1    15       P1  7957  1.00
      P1  H  7997  8009       L1     6  0.90

> <Gold.PLP.Chemscore.Internal.Correction>
0.0174

> <Gold.Rescore>
     Score         DG    S(hbond)    S(metal)    S(lipo)     H(rot)  DE(clash)    DE(int)     intcor
     17.04     -17.50       1.81        0.00      84.79       1.54       0.13       0.33       ----

> <Gold.Chemscore.Fitness>
17.0392

> <Gold.Chemscore.DG>
-17.5026

> <Gold.Chemscore.ZeroCoef>
-5.4800

> <Gold.Chemscore.Hbond>
1.8115

> <Gold.Chemscore.Metal>
0.0000

> <Gold.Chemscore.Lipo>
84.7931

> <Gold.Chemscore.Internal_Hbond>
0.0000

> <Gold.Chemscore.DEClash>
0.1321

> <Gold.Chemscore.DEInternal>
0.3312

> <Gold.Chemscore.Rot>
1.5424

> <Gold.Chemscore.Internal.Correction>
   9.000000E+99

> <Gold.Chemscore.Hbonds>
donor molecule, donor type, donor heavy atom, donor atom, acceptor molecule, acceptor atom, score
      L1  H     1    15       P1  7957  1.00
      P1  H  7997  8009       L1     6  0.18

> <Gold.Chemscore.Hbond.Weighted>
-6.0504

> <Gold.Chemscore.Metal.Weighted>
-0.0000

> <Gold.Chemscore.Lipo.Weighted>
-9.9208

> <Gold.Chemscore.Internal_Hbond.Weighted>
0.0000

> <Gold.Chemscore.DEClash.Weighted>
0.1321

> <Gold.Chemscore.DEInternal.Weighted>
0.3312

> <Gold.Chemscore.Rot.Weighted>
3.9487

> <Gold.Chemscore.Internal.Correction.Weighted>
   9.000000E+99

> <Gold.Protein.RotatedTorsions>
[ 6907 6896 6895 6894 ] final  144.74 input  -60.11 | X-H torsion
[ 7974 7965 7964 7962 ] final -168.51 input  175.53 | X-H torsion
[ 8008 7997 7996 7995 ] final -168.92 input   59.86 | X-H torsion
[ 10167 10162 10161 10158 ] final  -35.95 input  -65.29 | X-H torsion
[ 10718 10713 10712 10709 ] final  -55.47 input   66.30 | X-H torsion
[ 10763 10752 10751 10750 ] final  -54.64 input  -60.55 | X-H torsion
[ 11005 11000 10999 10996 ] final  147.56 input  -57.11 | X-H torsion

> <Gold.Protein.ActiveResidues>
 VAL166  LYS551  ARG553  GLY616  TRP617  ASP618  TYR619  PRO620  LYS621  CYS622 
 ASP623  PHE694  ASN695  SER759  ASP760  ASP761  ALA762  ILE779  LEU786  VAL792 
 PHE793  MET794  SER795  GLU796  ALA797  LYS798  CYS799  TRP800  GLU811  SER814 

> <Gold.Protein.RotatedAtoms>
  152.1898  133.4765  159.5001 H   0  0  0  0  0  0  0  0  0  0  0  0  # atno 6907 bound_to 6896
  150.6949  134.1727  159.4227 H   0  0  0  0  0  0  0  0  0  0  0  0  # atno 6908 bound_to 6896
  151.9642  135.0108  160.0600 H   0  0  0  0  0  0  0  0  0  0  0  0  # atno 6909 bound_to 6896
  144.7202  140.2360  143.6298 H   0  0  0  0  0  0  0  0  0  0  0  0  # atno 7974 bound_to 7965
  155.8979  140.1036  157.1371 H   0  0  0  0  0  0  0  0  0  0  0  0  # atno 8008 bound_to 7997
  154.4022  140.1298  156.4463 H   0  0  0  0  0  0  0  0  0  0  0  0  # atno 8009 bound_to 7997
  155.7457  140.3466  155.5128 H   0  0  0  0  0  0  0  0  0  0  0  0  # atno 8010 bound_to 7997
  140.7154  143.3442  151.2292 H   0  0  0  0  0  0  0  0  0  0  0  0  # atno 10167 bound_to 10162
  156.1366  130.4156  150.0175 H   0  0  0  0  0  0  0  0  0  0  0  0  # atno 10718 bound_to 10713
  154.1781  135.6448  153.5027 H   0  0  0  0  0  0  0  0  0  0  0  0  # atno 10763 bound_to 10752
  153.0066  135.5399  154.6543 H   0  0  0  0  0  0  0  0  0  0  0  0  # atno 10764 bound_to 10752
  154.5900  135.2933  155.0618 H   0  0  0  0  0  0  0  0  0  0  0  0  # atno 10765 bound_to 10752
  140.0886  134.9055  157.1614 H   0  0  0  0  0  0  0  0  0  0  0  0  # atno 11005 bound_to 11000
  145.8365  139.2110  143.1852 LP  0  0  0  0  0  0  0  0  0  0  0  0  # atno 17320 bound_to 7965
  146.0384  140.8189  142.9841 LP  0  0  0  0  0  0  0  0  0  0  0  0  # atno 17321 bound_to 7965
  139.6957  143.9616  152.2881 LP  0  0  0  0  0  0  0  0  0  0  0  0  # atno 17342 bound_to 10162
  139.9293  144.6751  150.8380 LP  0  0  0  0  0  0  0  0  0  0  0  0  # atno 17343 bound_to 10162
  156.8072  130.9312  151.3645 LP  0  0  0  0  0  0  0  0  0  0  0  0  # atno 17370 bound_to 10713
  157.6538  130.8907  149.9687 LP  0  0  0  0  0  0  0  0  0  0  0  0  # atno 17371 bound_to 10713
  140.3385  134.2730  155.7216 LP  0  0  0  0  0  0  0  0  0  0  0  0  # atno 17394 bound_to 11000
  141.2070  133.7816  157.0142 LP  0  0  0  0  0  0  0  0  0  0  0  0  # atno 17395 bound_to 11000

$$$$
