AV-unprocessed.smi:274|AV-procd|sdf|2058|dock5
  -GOLD-   2262021303D 1   1.00000     0.00000
 Structure written by MMmdl.
 50 53  0  0  0  0  0  0  0  0  1 V2000
  151.1718  139.5575  157.2325 C   0  0  0  0  0  0  0  0  0  0  0  0
  149.6701  139.2449  157.0749 C   0  0  0  0  0  0  0  0  0  0  0  0
  149.1980  138.4433  158.3040 C   0  0  0  0  0  0  0  0  0  0  0  0
  149.3254  138.5360  155.7259 C   0  0  2  0  0  0  0  0  0  0  0  0
  149.9678  139.2441  154.5090 C   0  0  0  0  0  0  0  0  0  0  0  0
  151.1490  139.0404  154.2360 O   0  0  0  0  0  0  0  0  0  0  0  0
  149.2101  140.0526  153.7460 N   0  0  0  0  0  0  0  0  0  0  0  0
  147.7838  140.3271  153.9245 C   0  0  0  0  0  0  0  0  0  0  0  0
  147.1834  139.6896  155.1937 C   0  0  0  0  0  0  0  0  0  0  0  0
  147.8671  138.4427  155.5436 N   0  0  0  0  0  0  0  0  0  0  0  0
  147.3951  137.2780  155.0172 C   0  0  0  0  0  0  0  0  0  0  0  0
  147.9799  136.0968  155.3545 N   0  0  0  0  0  0  0  0  0  0  0  0
  147.5221  134.9444  154.8582 C   0  0  0  0  0  0  0  0  0  0  0  0
  146.5078  134.7443  154.0160 N   0  0  0  0  0  0  0  0  0  0  0  0
  145.9215  135.9229  153.6614 C   0  0  0  0  0  0  0  0  0  0  0  0
  146.2972  137.2214  154.1104 C   0  0  0  0  0  0  0  0  0  0  0  0
  145.4734  138.1755  153.5248 N   0  0  0  0  0  0  0  0  0  0  0  0
  144.6532  137.4825  152.7839 C   0  0  0  0  0  0  0  0  0  0  0  0
  144.8547  136.1214  152.8022 N   0  0  0  0  0  0  0  0  0  0  0  0
  144.0930  135.1194  152.0727 C   0  0  0  0  0  0  0  0  0  0  0  0
  144.8533  134.5314  150.8616 C   0  0  1  0  0  0  0  0  0  0  0  0
  145.1145  135.5707  149.9337 O   0  0  0  0  0  0  0  0  0  0  0  0
  146.1746  133.8576  151.2209 C   0  0  0  0  0  0  0  0  0  0  0  0
  146.2867  132.7530  150.1799 C   0  0  0  0  0  0  0  0  0  0  0  0
  144.9508  132.2913  150.0745 O   0  0  0  0  0  0  0  0  0  0  0  0
  144.0767  133.4140  150.1365 C   0  0  0  0  0  0  0  0  0  0  0  0
  151.7761  138.6549  157.1354 H   0  0  0  0  0  0  0  0  0  0  0  0
  151.3811  139.9905  158.2110 H   0  0  0  0  0  0  0  0  0  0  0  0
  151.5216  140.2777  156.4938 H   0  0  0  0  0  0  0  0  0  0  0  0
  149.1507  140.2033  157.1043 H   0  0  0  0  0  0  0  0  0  0  0  0
  149.6973  137.4764  158.3600 H   0  0  0  0  0  0  0  0  0  0  0  0
  148.1227  138.2661  158.2926 H   0  0  0  0  0  0  0  0  0  0  0  0
  149.4191  138.9789  159.2275 H   0  0  0  0  0  0  0  0  0  0  0  0
  149.7666  137.5395  155.7574 H   0  0  0  0  0  0  0  0  0  0  0  0
  149.6571  140.4969  152.9573 H   0  0  0  0  0  0  0  0  0  0  0  0
  147.6124  141.4038  153.9213 H   0  0  0  0  0  0  0  0  0  0  0  0
  147.2738  139.9325  153.0455 H   0  0  0  0  0  0  0  0  0  0  0  0
  147.2955  140.3804  156.0287 H   0  0  0  0  0  0  0  0  0  0  0  0
  146.1065  139.5488  155.0882 H   0  0  0  0  0  0  0  0  0  0  0  0
  148.0423  134.0557  155.1833 H   0  0  0  0  0  0  0  0  0  0  0  0
  143.8773  137.9484  152.1941 H   0  0  0  0  0  0  0  0  0  0  0  0
  143.8242  134.3232  152.7681 H   0  0  0  0  0  0  0  0  0  0  0  0
  143.1540  135.5705  151.7487 H   0  0  0  0  0  0  0  0  0  0  0  0
  145.3994  135.1817  149.1207 H   0  0  0  0  0  0  0  0  0  0  0  0
  147.0297  134.5348  151.2272 H   0  0  0  0  0  0  0  0  0  0  0  0
  146.1081  133.3982  152.2075 H   0  0  0  0  0  0  0  0  0  0  0  0
  146.6186  133.1491  149.2191 H   0  0  0  0  0  0  0  0  0  0  0  0
  146.9661  131.9552  150.4812 H   0  0  0  0  0  0  0  0  0  0  0  0
  143.1690  133.1273  150.6687 H   0  0  0  0  0  0  0  0  0  0  0  0
  143.7830  133.7051  149.1267 H   0  0  0  0  0  0  0  0  0  0  0  0
  1  2  1  0  0  0  0
  1 27  1  0  0  0  0
  1 28  1  0  0  0  0
  1 29  1  0  0  0  0
  2  3  1  0  0  0  0
  2  4  1  0  0  0  0
  2 30  1  0  0  0  0
  3 31  1  0  0  0  0
  3 32  1  0  0  0  0
  3 33  1  0  0  0  0
  4 10  1  0  0  0  0
  4  5  1  0  0  0  0
  4 34  1  0  0  0  0
  5  6  2  0  0  0  0
  5  7  1  0  0  0  0
  7  8  1  0  0  0  0
  7 35  1  0  0  0  0
  8  9  1  0  0  0  0
  8 36  1  0  0  0  0
  8 37  1  0  0  0  0
  9 10  1  0  0  0  0
  9 38  1  0  0  0  0
  9 39  1  0  0  0  0
 10 11  1  0  0  0  0
 11 16  1  0  0  0  0
 11 12  2  0  0  0  0
 12 13  1  0  0  0  0
 13 14  2  0  0  0  0
 13 40  1  0  0  0  0
 14 15  1  0  0  0  0
 15 19  1  0  0  0  0
 15 16  2  0  0  0  0
 16 17  1  0  0  0  0
 17 18  2  0  0  0  0
 18 19  1  0  0  0  0
 18 41  1  0  0  0  0
 19 20  1  0  0  0  0
 20 21  1  0  0  0  0
 20 42  1  0  0  0  0
 20 43  1  0  0  0  0
 21 26  1  0  0  0  0
 21 22  1  0  0  0  0
 21 23  1  0  0  0  0
 22 44  1  0  0  0  0
 23 24  1  0  0  0  0
 23 45  1  0  0  0  0
 23 46  1  0  0  0  0
 24 25  1  0  0  0  0
 24 47  1  0  0  0  0
 24 48  1  0  0  0  0
 25 26  1  0  0  0  0
 26 49  1  0  0  0  0
 26 50  1  0  0  0  0
M  END
> <s_m_source_file>
AV-unprocessed.smi

> <i_m_source_file_index>
274

> <i_lp_mmshare_version>
43012

> <i_f3d_flags>
0

> <s_epik_input>
W0NIM11bQ0hdKFtDSDNdKVtDQEBIXTFDKD1PKVtOSF1bQ0gyXVtDSDJdTjFjKG5bY0hdbjIpYyhjMjMpbltjSF1uM1tDSDJdW0NAQF00KFtPSF0pW0NIMl1bQ0gyXU9bQ0gyXTQ=

> <s_epik_cmdline>
J2VwaWtfcHl0aG9uJywgJy1waCcsICc3LjAnLCAnLXRuJywgJzgnLCAnLW1hJywgJzIwMCcsICctbWV0YWxfYmluZGluZycsICctaW1hZScsICc8aW5maWxlLm1hZT4nLCAnLW9tYWUnLCAnPG91dGZpbGUubWFlPic=

> <r_lp_tautomer_probability>
1

> <r_epik_Ionization_Penalty>
0.000690079

> <r_epik_Ionization_Penalty_Charging>
0

> <r_epik_Ionization_Penalty_Neutral>
0.000690079

> <r_epik_State_Penalty>
0.000321372

> <r_epik_Charging_Adjusted_Penalty>
0.000321372

> <i_epik_Tot_Q>
0

> <i_epik_Tot_abs_Q>
0

> <r_epik_Metal_State_Penalty>
-0

> <b_epik_Metal_Only>
0

> <s_lp_Force_Field>
OPLS_2005

> <r_lp_Energy>
40.3696

> <b_lp_Chiralities_Consistent>
1

> <s_lp_Variant>
AV-unprocessed.smi:274-1

> <Gold.Version>
5.8.1

> <Gold.Id.Protein>
6NUR|6NUR_protein|mol2

> <Gold.PLP.Fitness>
39.3486

> <Gold.PLP.PLP>
-27.0537

> <Gold.PLP.part.hbond>
-3.1939

> <Gold.PLP.part.metal>
0.0000

> <Gold.PLP.part.buried>
-5.3993

> <Gold.PLP.part.nonpolar>
-20.1686

> <Gold.PLP.part.repulsive>
0.8048

> <Gold.PLP.ligand.clash>
0.0000

> <Gold.PLP.ligand.torsion>
0.5244

> <Gold.PLP.Chemscore.Hbond>
2.6080

> <Gold.PLP.Chemscore.CHOScore>
1.7327

> <Gold.PLP.Chemscore.Metal>
0.0000

> <Gold.Chemscore.Hbonds>
donor molecule, donor type, donor heavy atom, donor atom, acceptor molecule, acceptor atom, score
      L1  H     7    35       P1  7957  0.61
      L1  H    22    44       P1  7921  1.00
      P1  H  7989  7998       L1     6  1.00
      L1  C    18    41       P1 10171  1.00
      L1  C    18    41       P1 10175  0.73

> <Gold.PLP.Chemscore.Internal.Correction>
0.3216

> <Gold.Rescore>
     Score         DG    S(hbond)    S(metal)    S(lipo)     H(rot)  DE(clash)    DE(int)     intcor
     10.87     -14.82       2.52        0.00      54.75       2.14       0.19       3.75       ----

> <Gold.Chemscore.Fitness>
10.8731

> <Gold.Chemscore.DG>
-14.8196

> <Gold.Chemscore.ZeroCoef>
-5.4800

> <Gold.Chemscore.Hbond>
2.5209

> <Gold.Chemscore.Metal>
0.0000

> <Gold.Chemscore.Lipo>
54.7533

> <Gold.Chemscore.Internal_Hbond>
0.0000

> <Gold.Chemscore.DEClash>
0.1942

> <Gold.Chemscore.DEInternal>
3.7523

> <Gold.Chemscore.Rot>
2.1431

> <Gold.Chemscore.Internal.Correction>
   9.000000E+99

> <Gold.Chemscore.Hbonds>
donor molecule, donor type, donor heavy atom, donor atom, acceptor molecule, acceptor atom, score
      L1  H     7    35       P1  7957  0.60
      L1  H    22    44       P1  7921  1.00
      P1  H  7989  7998       L1     6  0.24

> <Gold.Chemscore.Hbond.Weighted>
-8.4197

> <Gold.Chemscore.Metal.Weighted>
-0.0000

> <Gold.Chemscore.Lipo.Weighted>
-6.4061

> <Gold.Chemscore.Internal_Hbond.Weighted>
0.0000

> <Gold.Chemscore.DEClash.Weighted>
0.1942

> <Gold.Chemscore.DEInternal.Weighted>
3.7523

> <Gold.Chemscore.Rot.Weighted>
5.4863

> <Gold.Chemscore.Internal.Correction.Weighted>
   9.000000E+99

> <Gold.Protein.RotatedTorsions>
[ 6907 6896 6895 6894 ] final  -18.88 input  -60.11 | X-H torsion
[ 7974 7965 7964 7962 ] final  158.84 input  175.53 | X-H torsion
[ 8008 7997 7996 7995 ] final  123.06 input   59.86 | X-H torsion
[ 10167 10162 10161 10158 ] final   53.07 input  -65.29 | X-H torsion
[ 10718 10713 10712 10709 ] final   74.75 input   66.30 | X-H torsion
[ 10763 10752 10751 10750 ] final  -32.76 input  -60.55 | X-H torsion
[ 11005 11000 10999 10996 ] final   24.13 input  -57.11 | X-H torsion

> <Gold.Protein.ActiveResidues>
 VAL166  LYS551  ARG553  GLY616  TRP617  ASP618  TYR619  PRO620  LYS621  CYS622 
 ASP623  PHE694  ASN695  SER759  ASP760  ASP761  ALA762  ILE779  LEU786  VAL792 
 PHE793  MET794  SER795  GLU796  ALA797  LYS798  CYS799  TRP800  GLU811  SER814 

> <Gold.Protein.RotatedAtoms>
  151.2715  135.0686  159.9135 H   0  0  0  0  0  0  0  0  0  0  0  0  # atno 6907 bound_to 6896
  152.5350  134.0126  159.7955 H   0  0  0  0  0  0  0  0  0  0  0  0  # atno 6908 bound_to 6896
  151.0365  133.5694  159.2686 H   0  0  0  0  0  0  0  0  0  0  0  0  # atno 6909 bound_to 6896
  144.7823  139.7534  143.6255 H   0  0  0  0  0  0  0  0  0  0  0  0  # atno 7974 bound_to 7965
  156.2751  140.2771  156.1566 H   0  0  0  0  0  0  0  0  0  0  0  0  # atno 8008 bound_to 7997
  155.0797  140.0387  157.2653 H   0  0  0  0  0  0  0  0  0  0  0  0  # atno 8009 bound_to 7997
  154.6974  140.2642  155.6758 H   0  0  0  0  0  0  0  0  0  0  0  0  # atno 8010 bound_to 7997
  140.2446  144.3546  150.6368 H   0  0  0  0  0  0  0  0  0  0  0  0  # atno 10167 bound_to 10162
  157.6605  130.9693  150.1255 H   0  0  0  0  0  0  0  0  0  0  0  0  # atno 10718 bound_to 10713
  153.8191  135.6876  153.4829 H   0  0  0  0  0  0  0  0  0  0  0  0  # atno 10763 bound_to 10752
  153.1580  135.4591  154.9730 H   0  0  0  0  0  0  0  0  0  0  0  0  # atno 10764 bound_to 10752
  154.7935  135.3310  154.7665 H   0  0  0  0  0  0  0  0  0  0  0  0  # atno 10765 bound_to 10752
  140.3621  134.2114  155.7671 H   0  0  0  0  0  0  0  0  0  0  0  0  # atno 11005 bound_to 11000
  146.2038  139.5349  142.9726 LP  0  0  0  0  0  0  0  0  0  0  0  0  # atno 17320 bound_to 7965
  145.6016  141.0354  143.2015 LP  0  0  0  0  0  0  0  0  0  0  0  0  # atno 17321 bound_to 7965
  140.6087  143.2168  151.6929 LP  0  0  0  0  0  0  0  0  0  0  0  0  # atno 17342 bound_to 10162
  139.5066  144.3676  152.0501 LP  0  0  0  0  0  0  0  0  0  0  0  0  # atno 17343 bound_to 10162
  156.2115  130.3667  149.8664 LP  0  0  0  0  0  0  0  0  0  0  0  0  # atno 17370 bound_to 10713
  156.6541  130.8755  151.3536 LP  0  0  0  0  0  0  0  0  0  0  0  0  # atno 17371 bound_to 10713
  141.1981  133.8044  157.0599 LP  0  0  0  0  0  0  0  0  0  0  0  0  # atno 17394 bound_to 11000
  140.0618  134.9750  157.1318 LP  0  0  0  0  0  0  0  0  0  0  0  0  # atno 17395 bound_to 11000

$$$$
