AV-unprocessed.smi:3134|AV-procd|sdf|11942|dock7
  -GOLD-   2272017333D 1   1.00000     0.00000
 Structure written by MMmdl.
 37 37  0  0  0  0  0  0  0  0  2 V2000
  149.7418  140.3397  154.5546 C   0  0  0  0  0  0  0  0  0  0  0  0
  149.6999  138.8031  154.5688 C   0  0  0  0  0  0  0  0  0  0  0  0
  151.0214  138.1949  154.0816 C   0  0  0  0  0  0  0  0  0  0  0  0
  148.6041  138.3154  153.7361 N   0  0  0  0  0  0  0  0  0  0  0  0
  147.2996  138.5182  153.9773 C   0  0  0  0  0  0  0  0  0  0  0  0
  146.8812  139.1363  154.9571 O   0  0  0  0  0  0  0  0  0  0  0  0
  146.3136  137.9295  152.9586 C   0  0  1  0  0  0  0  0  0  0  0  0
  146.5124  138.5953  151.5887 C   0  0  0  0  0  0  0  0  0  0  0  0
  146.4918  136.4659  152.8374 N   0  3  0  0  0  0  0  0  0  0  0  0
  145.5000  135.7857  151.9758 C   0  0  0  0  0  0  0  0  0  0  0  0
  146.1649  134.7022  151.1115 C   0  0  0  0  0  0  0  0  0  0  0  0
  145.3046  133.5463  150.9229 N   0  0  0  0  0  0  0  0  0  0  0  0
  145.6436  132.2098  150.9545 C   0  0  0  0  0  0  0  0  0  0  0  0
  144.5024  131.4956  150.7260 C   0  0  0  0  0  0  0  0  0  0  0  0
  143.5057  132.4958  150.5516 C   0  0  0  0  0  0  0  0  0  0  0  0
  143.9906  133.7218  150.6629 N   0  0  0  0  0  0  0  0  0  0  0  0
  150.5547  140.7136  155.1776 H   0  0  0  0  0  0  0  0  0  0  0  0
  148.8143  140.7665  154.9380 H   0  0  0  0  0  0  0  0  0  0  0  0
  149.8931  140.7242  153.5454 H   0  0  0  0  0  0  0  0  0  0  0  0
  149.5416  138.4702  155.5961 H   0  0  0  0  0  0  0  0  0  0  0  0
  151.8543  138.5177  154.7068 H   0  0  0  0  0  0  0  0  0  0  0  0
  151.2424  138.4911  153.0555 H   0  0  0  0  0  0  0  0  0  0  0  0
  150.9890  137.1053  154.1151 H   0  0  0  0  0  0  0  0  0  0  0  0
  148.8604  137.7907  152.9122 H   0  0  0  0  0  0  0  0  0  0  0  0
  145.2915  138.1255  153.2881 H   0  0  0  0  0  0  0  0  0  0  0  0
  146.3617  139.6742  151.6469 H   0  0  0  0  0  0  0  0  0  0  0  0
  145.8017  138.2072  150.8585 H   0  0  0  0  0  0  0  0  0  0  0  0
  147.5163  138.4203  151.1985 H   0  0  0  0  0  0  0  0  0  0  0  0
  147.4115  136.2765  152.4659 H   0  0  0  0  0  0  0  0  0  0  0  0
  144.7116  135.3367  152.5816 H   0  0  0  0  0  0  0  0  0  0  0  0
  145.0169  136.5307  151.3429 H   0  0  0  0  0  0  0  0  0  0  0  0
  146.4119  135.1061  150.1290 H   0  0  0  0  0  0  0  0  0  0  0  0
  147.1026  134.3756  151.5631 H   0  0  0  0  0  0  0  0  0  0  0  0
  146.6553  131.8799  151.1397 H   0  0  0  0  0  0  0  0  0  0  0  0
  144.3957  130.4217  150.6864 H   0  0  0  0  0  0  0  0  0  0  0  0
  142.4527  132.3687  150.3475 H   0  0  0  0  0  0  0  0  0  0  0  0
  146.4318  136.0769  153.7681 H   0  0  0  0  0  0  0  0  0  0  0  0
  1  2  1  0  0  0  0
  1 17  1  0  0  0  0
  1 18  1  0  0  0  0
  1 19  1  0  0  0  0
  2  3  1  0  0  0  0
  2  4  1  0  0  0  0
  2 20  1  0  0  0  0
  3 21  1  0  0  0  0
  3 22  1  0  0  0  0
  3 23  1  0  0  0  0
  4  5  1  0  0  0  0
  4 24  1  0  0  0  0
  5  6  2  0  0  0  0
  5  7  1  0  0  0  0
  7  8  1  0  0  0  0
  7  9  1  0  0  0  0
  7 25  1  0  0  0  0
  8 26  1  0  0  0  0
  8 27  1  0  0  0  0
  8 28  1  0  0  0  0
  9 10  1  0  0  0  0
  9 29  1  0  0  0  0
  9 37  1  0  0  0  0
 10 11  1  0  0  0  0
 10 30  1  0  0  0  0
 10 31  1  0  0  0  0
 11 12  1  0  0  0  0
 11 32  1  0  0  0  0
 11 33  1  0  0  0  0
 12 16  1  0  0  0  0
 12 13  1  0  0  0  0
 13 14  2  0  0  0  0
 13 34  1  0  0  0  0
 14 15  1  0  0  0  0
 14 35  1  0  0  0  0
 15 16  2  0  0  0  0
 15 36  1  0  0  0  0
M  CHG  1   9   1
M  END
> <s_m_source_file>
AV-unprocessed.smi

> <i_m_source_file_index>
3134

> <i_lp_mmshare_version>
43012

> <i_f3d_flags>
0

> <s_epik_input>
W0NIM11bQ0hdKFtDSDNdKVtOSF1DKD1PKVtDQEhdKFtDSDNdKVtOSF1bQ0gyXVtDSDJdbjFbY0hdW2NIXVtjSF1uMQ==

> <s_epik_cmdline>
J2VwaWtfcHl0aG9uJywgJy1waCcsICc3LjAnLCAnLXRuJywgJzgnLCAnLW1hJywgJzIwMCcsICctbWV0YWxfYmluZGluZycsICctaW1hZScsICc8aW5maWxlLm1hZT4nLCAnLW9tYWUnLCAnPG91dGZpbGUubWFlPic=

> <r_lp_tautomer_probability>
1

> <r_epik_Ionization_Penalty>
0.20398

> <r_epik_Ionization_Penalty_Charging>
0.203977

> <r_epik_Ionization_Penalty_Neutral>
3.23345e-06

> <r_epik_State_Penalty>
0.193898

> <r_epik_Charging_Adjusted_Penalty>
0.397875

> <i_epik_Tot_Q>
1

> <i_epik_Tot_abs_Q>
1

> <r_epik_Metal_State_Penalty>
0.194184

> <b_epik_Metal_Only>
0

> <s_lp_Force_Field>
OPLS_2005

> <r_lp_Energy>
4.47428

> <b_lp_Chiralities_Consistent>
1

> <s_lp_Variant>
AV-unprocessed.smi:3134-2

> <Gold.Version>
5.8.1

> <Gold.Id.Protein>
6NUR|6NUR_protein|mol2

> <Gold.PLP.Fitness>
44.6918

> <Gold.PLP.PLP>
-30.8201

> <Gold.PLP.part.hbond>
-2.1101

> <Gold.PLP.part.metal>
0.0000

> <Gold.PLP.part.buried>
-3.3284

> <Gold.PLP.part.nonpolar>
-26.1015

> <Gold.PLP.part.repulsive>
0.2665

> <Gold.PLP.ligand.clash>
0.0000

> <Gold.PLP.ligand.torsion>
0.8437

> <Gold.PLP.Chemscore.Hbond>
3.0000

> <Gold.PLP.Chemscore.CHOScore>
2.1436

> <Gold.PLP.Chemscore.Metal>
0.0000

> <Gold.Chemscore.Hbonds>
donor molecule, donor type, donor heavy atom, donor atom, acceptor molecule, acceptor atom, score
      L1  H     4    24       P1  7948  1.00
      L1  H     9    29       P1  7948  2.00
      L1  C    13    34       P1 10747  0.63
      L1  C    15    36       P1 10186  0.62
      L1  C    15    36       P1 10952  0.57

> <Gold.PLP.Chemscore.Internal.Correction>
0.1286

> <Gold.Rescore>
     Score         DG    S(hbond)    S(metal)    S(lipo)     H(rot)  DE(clash)    DE(int)     intcor
     15.01     -15.69       1.96        0.00      78.02       2.13       0.08       0.60       ----

> <Gold.Chemscore.Fitness>
15.0112

> <Gold.Chemscore.DG>
-15.6889

> <Gold.Chemscore.ZeroCoef>
-5.4800

> <Gold.Chemscore.Hbond>
1.9586

> <Gold.Chemscore.Metal>
0.0000

> <Gold.Chemscore.Lipo>
78.0235

> <Gold.Chemscore.Internal_Hbond>
0.0000

> <Gold.Chemscore.DEClash>
0.0776

> <Gold.Chemscore.DEInternal>
0.6000

> <Gold.Chemscore.Rot>
2.1334

> <Gold.Chemscore.Internal.Correction>
   9.000000E+99

> <Gold.Chemscore.Hbonds>
donor molecule, donor type, donor heavy atom, donor atom, acceptor molecule, acceptor atom, score
      L1  H     4    24       P1  7948  0.98
      L1  H     9    29       P1  7948  1.00

> <Gold.Chemscore.Hbond.Weighted>
-6.5417

> <Gold.Chemscore.Metal.Weighted>
-0.0000

> <Gold.Chemscore.Lipo.Weighted>
-9.1287

> <Gold.Chemscore.Internal_Hbond.Weighted>
0.0000

> <Gold.Chemscore.DEClash.Weighted>
0.0776

> <Gold.Chemscore.DEInternal.Weighted>
0.6000

> <Gold.Chemscore.Rot.Weighted>
5.4615

> <Gold.Chemscore.Internal.Correction.Weighted>
   9.000000E+99

> <Gold.Protein.RotatedTorsions>
[ 6907 6896 6895 6894 ] final   21.15 input  -60.11 | X-H torsion
[ 7974 7965 7964 7962 ] final -139.28 input  175.53 | X-H torsion
[ 8008 7997 7996 7995 ] final  168.42 input   59.86 | X-H torsion
[ 10167 10162 10161 10158 ] final  110.95 input  -65.29 | X-H torsion
[ 10718 10713 10712 10709 ] final  -48.10 input   66.30 | X-H torsion
[ 10763 10752 10751 10750 ] final  -76.49 input  -60.55 | X-H torsion
[ 11005 11000 10999 10996 ] final   59.93 input  -57.11 | X-H torsion

> <Gold.Protein.ActiveResidues>
 VAL166  LYS551  ARG553  GLY616  TRP617  ASP618  TYR619  PRO620  LYS621  CYS622 
 ASP623  PHE694  ASN695  SER759  ASP760  ASP761  ALA762  ILE779  LEU786  VAL792 
 PHE793  MET794  SER795  GLU796  ALA797  LYS798  CYS799  TRP800  GLU811  SER814 

> <Gold.Protein.RotatedAtoms>
  151.9074  135.0353  160.0511 H   0  0  0  0  0  0  0  0  0  0  0  0  # atno 6907 bound_to 6896
  152.2308  133.5052  159.5223 H   0  0  0  0  0  0  0  0  0  0  0  0  # atno 6908 bound_to 6896
  150.7025  134.1135  159.4051 H   0  0  0  0  0  0  0  0  0  0  0  0  # atno 6909 bound_to 6896
  144.8690  140.6337  143.5279 H   0  0  0  0  0  0  0  0  0  0  0  0  # atno 7974 bound_to 7965
  156.1548  140.1591  156.8711 H   0  0  0  0  0  0  0  0  0  0  0  0  # atno 8008 bound_to 7997
  154.5104  140.0802  156.8015 H   0  0  0  0  0  0  0  0  0  0  0  0  # atno 8009 bound_to 7997
  155.3825  140.3406  155.4249 H   0  0  0  0  0  0  0  0  0  0  0  0  # atno 8010 bound_to 7997
  139.6649  144.7128  151.1796 H   0  0  0  0  0  0  0  0  0  0  0  0  # atno 10167 bound_to 10162
  156.2020  130.4156  149.9228 H   0  0  0  0  0  0  0  0  0  0  0  0  # atno 10718 bound_to 10713
  154.5006  135.5796  153.6528 H   0  0  0  0  0  0  0  0  0  0  0  0  # atno 10763 bound_to 10752
  152.9878  135.6135  154.3008 H   0  0  0  0  0  0  0  0  0  0  0  0  # atno 10764 bound_to 10752
  154.2915  135.2848  155.2632 H   0  0  0  0  0  0  0  0  0  0  0  0  # atno 10765 bound_to 10752
  140.0268  134.6070  155.9561 H   0  0  0  0  0  0  0  0  0  0  0  0  # atno 11005 bound_to 11000
  145.4167  139.1571  143.4096 LP  0  0  0  0  0  0  0  0  0  0  0  0  # atno 17320 bound_to 7965
  146.2916  140.4274  142.8737 LP  0  0  0  0  0  0  0  0  0  0  0  0  # atno 17321 bound_to 7965
  140.7595  143.5936  150.8771 LP  0  0  0  0  0  0  0  0  0  0  0  0  # atno 17342 bound_to 10162
  139.9596  143.6178  152.3006 LP  0  0  0  0  0  0  0  0  0  0  0  0  # atno 17343 bound_to 10162
  156.6935  130.8905  151.3591 LP  0  0  0  0  0  0  0  0  0  0  0  0  # atno 17370 bound_to 10713
  157.6991  130.9313  150.0731 LP  0  0  0  0  0  0  0  0  0  0  0  0  # atno 17371 bound_to 10713
  141.1808  133.6546  156.5011 LP  0  0  0  0  0  0  0  0  0  0  0  0  # atno 17394 bound_to 11000
  140.4292  134.7117  157.4932 LP  0  0  0  0  0  0  0  0  0  0  0  0  # atno 17395 bound_to 11000

$$$$
