AV-unprocessed.smi:3346|AV-procd|sdf|12910|dock8
  -GOLD-   2272019323D 1   1.00000     0.00000
 Structure written by MMmdl.
 47 48  0  0  0  0  0  0  0  0  1 V2000
  151.2267  145.5291  159.7393 C   0  0  0  0  0  0  0  0  0  0  0  0
  151.5258  144.0619  159.3868 C   0  0  0  0  0  0  0  0  0  0  0  0
  152.9548  143.9268  158.8393 C   0  0  0  0  0  0  0  0  0  0  0  0
  150.5051  143.4723  158.3876 C   0  0  0  0  0  0  0  0  0  0  0  0
  150.7235  141.9905  158.0128 C   0  0  1  0  0  0  0  0  0  0  0  0
  150.6587  141.0822  159.2490 C   0  0  0  0  0  0  0  0  0  0  0  0
  149.6747  141.5535  157.1000 N   0  0  0  0  0  0  0  0  0  0  0  0
  150.2360  141.0878  155.8420 C   0  0  0  0  0  0  0  0  0  0  0  0
  149.1788  140.4921  154.9286 C   0  0  0  0  0  0  0  0  0  0  0  0
  148.7031  141.2439  153.8342 C   0  0  0  0  0  0  0  0  0  0  0  0
  147.7297  140.6812  152.9884 C   0  0  0  0  0  0  0  0  0  0  0  0
  147.2687  139.3826  153.2733 C   0  0  0  0  0  0  0  0  0  0  0  0
  147.7112  138.6532  154.3189 N   0  0  0  0  0  0  0  0  0  0  0  0
  148.6488  139.1926  155.1358 C   0  0  0  0  0  0  0  0  0  0  0  0
  149.0747  138.4233  156.2314 N   0  0  0  0  0  0  0  0  0  0  0  0
  148.2513  137.2420  156.4536 C   0  0  0  0  0  0  0  0  0  0  0  0
  148.6607  136.5563  157.7686 C   0  0  0  0  0  0  0  0  0  0  0  0
  150.0542  136.2585  157.7423 O   0  0  0  0  0  0  0  0  0  0  0  0
  150.8506  137.4314  157.5969 C   0  0  0  0  0  0  0  0  0  0  0  0
  150.5016  138.1265  156.2702 C   0  0  0  0  0  0  0  0  0  0  0  0
  151.2291  146.1586  158.8489 H   0  0  0  0  0  0  0  0  0  0  0  0
  151.9746  145.9255  160.4266 H   0  0  0  0  0  0  0  0  0  0  0  0
  150.2576  145.6403  160.2245 H   0  0  0  0  0  0  0  0  0  0  0  0
  151.4852  143.4798  160.3078 H   0  0  0  0  0  0  0  0  0  0  0  0
  153.0776  144.4855  157.9107 H   0  0  0  0  0  0  0  0  0  0  0  0
  153.2017  142.8846  158.6358 H   0  0  0  0  0  0  0  0  0  0  0  0
  153.6876  144.3028  159.5538 H   0  0  0  0  0  0  0  0  0  0  0  0
  149.5059  143.5879  158.8101 H   0  0  0  0  0  0  0  0  0  0  0  0
  150.5060  144.0695  157.4742 H   0  0  0  0  0  0  0  0  0  0  0  0
  151.7099  141.8610  157.5665 H   0  0  0  0  0  0  0  0  0  0  0  0
  151.4293  141.3513  159.9719 H   0  0  0  0  0  0  0  0  0  0  0  0
  150.8172  140.0377  158.9785 H   0  0  0  0  0  0  0  0  0  0  0  0
  149.6931  141.1545  159.7511 H   0  0  0  0  0  0  0  0  0  0  0  0
  149.1731  140.7893  157.5289 H   0  0  0  0  0  0  0  0  0  0  0  0
  150.7191  141.9188  155.3271 H   0  0  0  0  0  0  0  0  0  0  0  0
  151.0115  140.3457  156.0354 H   0  0  0  0  0  0  0  0  0  0  0  0
  149.0793  142.2385  153.6439 H   0  0  0  0  0  0  0  0  0  0  0  0
  147.3461  141.2315  152.1422 H   0  0  0  0  0  0  0  0  0  0  0  0
  146.5224  138.9173  152.6465 H   0  0  0  0  0  0  0  0  0  0  0  0
  147.1968  137.5178  156.4879 H   0  0  0  0  0  0  0  0  0  0  0  0
  148.3752  136.5508  155.6188 H   0  0  0  0  0  0  0  0  0  0  0  0
  148.4323  137.1913  158.6256 H   0  0  0  0  0  0  0  0  0  0  0  0
  148.1006  135.6305  157.8996 H   0  0  0  0  0  0  0  0  0  0  0  0
  150.6872  138.1018  158.4425 H   0  0  0  0  0  0  0  0  0  0  0  0
  151.9042  137.1522  157.6101 H   0  0  0  0  0  0  0  0  0  0  0  0
  150.7710  137.4796  155.4342 H   0  0  0  0  0  0  0  0  0  0  0  0
  151.0743  139.0487  156.1658 H   0  0  0  0  0  0  0  0  0  0  0  0
  1  2  1  0  0  0  0
  1 21  1  0  0  0  0
  1 22  1  0  0  0  0
  1 23  1  0  0  0  0
  2  3  1  0  0  0  0
  2  4  1  0  0  0  0
  2 24  1  0  0  0  0
  3 25  1  0  0  0  0
  3 26  1  0  0  0  0
  3 27  1  0  0  0  0
  4  5  1  0  0  0  0
  4 28  1  0  0  0  0
  4 29  1  0  0  0  0
  5  6  1  0  0  0  0
  5  7  1  0  0  0  0
  5 30  1  0  0  0  0
  6 31  1  0  0  0  0
  6 32  1  0  0  0  0
  6 33  1  0  0  0  0
  7  8  1  0  0  0  0
  7 34  1  0  0  0  0
  8  9  1  0  0  0  0
  8 35  1  0  0  0  0
  8 36  1  0  0  0  0
  9 14  1  0  0  0  0
  9 10  2  0  0  0  0
 10 11  1  0  0  0  0
 10 37  1  0  0  0  0
 11 12  2  0  0  0  0
 11 38  1  0  0  0  0
 12 13  1  0  0  0  0
 12 39  1  0  0  0  0
 13 14  2  0  0  0  0
 14 15  1  0  0  0  0
 15 20  1  0  0  0  0
 15 16  1  0  0  0  0
 16 17  1  0  0  0  0
 16 40  1  0  0  0  0
 16 41  1  0  0  0  0
 17 18  1  0  0  0  0
 17 42  1  0  0  0  0
 17 43  1  0  0  0  0
 18 19  1  0  0  0  0
 19 20  1  0  0  0  0
 19 44  1  0  0  0  0
 19 45  1  0  0  0  0
 20 46  1  0  0  0  0
 20 47  1  0  0  0  0
M  END
> <s_m_source_file>
AV-unprocessed.smi

> <i_m_source_file_index>
3346

> <i_lp_mmshare_version>
43012

> <i_f3d_flags>
0

> <s_epik_input>
W0NIM11bQ0hdKFtDSDNdKVtDSDJdW0NASF0oW0NIM10pW05IXVtDSDJdYzFbY0hdW2NIXVtjSF1uYzFOMltDSDJdW0NIMl1PW0NIMl1bQ0gyXTI=

> <s_epik_cmdline>
J2VwaWtfcHl0aG9uJywgJy1waCcsICc3LjAnLCAnLXRuJywgJzgnLCAnLW1hJywgJzIwMCcsICctbWV0YWxfYmluZGluZycsICctaW1hZScsICc8aW5maWxlLm1hZT4nLCAnLW9tYWUnLCAnPG91dGZpbGUubWFlPic=

> <r_lp_tautomer_probability>
1

> <r_epik_Ionization_Penalty>
2.09752

> <r_epik_Ionization_Penalty_Charging>
0

> <r_epik_Ionization_Penalty_Neutral>
2.09752

> <r_epik_State_Penalty>
2.22589

> <r_epik_Charging_Adjusted_Penalty>
2.22589

> <i_epik_Tot_Q>
0

> <i_epik_Tot_abs_Q>
0

> <r_epik_Metal_State_Penalty>
2.21996

> <b_epik_Metal_Only>
0

> <s_lp_Force_Field>
OPLS_2005

> <r_lp_Energy>
27.6792

> <b_lp_Chiralities_Consistent>
1

> <s_lp_Variant>
AV-unprocessed.smi:3346-4

> <Gold.Version>
5.8.1

> <Gold.Id.Protein>
6NUR|6NUR_protein|mol2

> <Gold.PLP.Fitness>
44.5425

> <Gold.PLP.PLP>
-43.6055

> <Gold.PLP.part.hbond>
-1.0000

> <Gold.PLP.part.metal>
0.0000

> <Gold.PLP.part.buried>
-4.3095

> <Gold.PLP.part.nonpolar>
-37.8597

> <Gold.PLP.part.repulsive>
0.3262

> <Gold.PLP.ligand.clash>
0.0000

> <Gold.PLP.ligand.torsion>
1.0977

> <Gold.PLP.Chemscore.Hbond>
0.9760

> <Gold.PLP.Chemscore.CHOScore>
0.0000

> <Gold.PLP.Chemscore.Metal>
0.0000

> <Gold.PLP.Chemscore.Internal.Correction>
0.2043

> <Gold.Rescore>
     Score         DG    S(hbond)    S(metal)    S(lipo)     H(rot)  DE(clash)    DE(int)     intcor
     17.40     -18.93       0.94        0.00     122.00       1.55       0.19       1.34       ----

> <Gold.Chemscore.Fitness>
17.3951

> <Gold.Chemscore.DG>
-18.9280

> <Gold.Chemscore.ZeroCoef>
-5.4800

> <Gold.Chemscore.Hbond>
0.9418

> <Gold.Chemscore.Metal>
0.0000

> <Gold.Chemscore.Lipo>
122.0000

> <Gold.Chemscore.Internal_Hbond>
0.0000

> <Gold.Chemscore.DEClash>
0.1919

> <Gold.Chemscore.DEInternal>
1.3411

> <Gold.Chemscore.Rot>
1.5514

> <Gold.Chemscore.Internal.Correction>
   9.000000E+99

> <Gold.Chemscore.Hbonds>
donor molecule, donor type, donor heavy atom, donor atom, acceptor molecule, acceptor atom, score
      P1  H  6896  6908       L1    18  0.01

> <Gold.Chemscore.Hbond.Weighted>
-3.1455

> <Gold.Chemscore.Metal.Weighted>
-0.0000

> <Gold.Chemscore.Lipo.Weighted>
-14.2740

> <Gold.Chemscore.Internal_Hbond.Weighted>
0.0000

> <Gold.Chemscore.DEClash.Weighted>
0.1919

> <Gold.Chemscore.DEInternal.Weighted>
1.3411

> <Gold.Chemscore.Rot.Weighted>
3.9715

> <Gold.Chemscore.Internal.Correction.Weighted>
   9.000000E+99

> <Gold.Protein.RotatedTorsions>
[ 6907 6896 6895 6894 ] final -172.17 input  -60.11 | X-H torsion
[ 7974 7965 7964 7962 ] final -106.52 input  175.53 | X-H torsion
[ 8008 7997 7996 7995 ] final  178.55 input   59.86 | X-H torsion
[ 10167 10162 10161 10158 ] final   76.09 input  -65.29 | X-H torsion
[ 10718 10713 10712 10709 ] final  -46.10 input   66.30 | X-H torsion
[ 10763 10752 10751 10750 ] final -160.90 input  -60.55 | X-H torsion
[ 11005 11000 10999 10996 ] final   33.79 input  -57.11 | X-H torsion

> <Gold.Protein.ActiveResidues>
 VAL166  LYS551  ARG553  GLY616  TRP617  ASP618  TYR619  PRO620  LYS621  CYS622 
 ASP623  PHE694  ASN695  SER759  ASP760  ASP761  ALA762  ILE779  LEU786  VAL792 
 PHE793  MET794  SER795  GLU796  ALA797  LYS798  CYS799  TRP800  GLU811  SER814 

> <Gold.Protein.RotatedAtoms>
  151.5357  133.3441  159.2926 H   0  0  0  0  0  0  0  0  0  0  0  0  # atno 6907 bound_to 6896
  150.8566  134.7909  159.7061 H   0  0  0  0  0  0  0  0  0  0  0  0  # atno 6908 bound_to 6896
  152.4598  134.5219  159.9837 H   0  0  0  0  0  0  0  0  0  0  0  0  # atno 6909 bound_to 6896
  145.2168  140.9118  143.3283 H   0  0  0  0  0  0  0  0  0  0  0  0  # atno 7974 bound_to 7965
  156.0534  140.1331  157.0024 H   0  0  0  0  0  0  0  0  0  0  0  0  # atno 8008 bound_to 7997
  154.4446  140.1006  156.6481 H   0  0  0  0  0  0  0  0  0  0  0  0  # atno 8009 bound_to 7997
  155.5488  140.3462  155.4466 H   0  0  0  0  0  0  0  0  0  0  0  0  # atno 8010 bound_to 7997
  139.9960  144.5722  150.7778 H   0  0  0  0  0  0  0  0  0  0  0  0  # atno 10167 bound_to 10162
  156.2216  130.4166  149.8985 H   0  0  0  0  0  0  0  0  0  0  0  0  # atno 10718 bound_to 10713
  154.7350  135.3055  154.8826 H   0  0  0  0  0  0  0  0  0  0  0  0  # atno 10763 bound_to 10752
  153.9657  135.6747  153.4750 H   0  0  0  0  0  0  0  0  0  0  0  0  # atno 10764 bound_to 10752
  153.0954  135.4938  154.8691 H   0  0  0  0  0  0  0  0  0  0  0  0  # atno 10765 bound_to 10752
  140.2595  134.3209  155.7862 H   0  0  0  0  0  0  0  0  0  0  0  0  # atno 11005 bound_to 11000
  144.9804  139.3789  143.6265 LP  0  0  0  0  0  0  0  0  0  0  0  0  # atno 17320 bound_to 7965
  146.3385  139.8942  142.8804 LP  0  0  0  0  0  0  0  0  0  0  0  0  # atno 17321 bound_to 7965
  140.7437  143.2850  151.3490 LP  0  0  0  0  0  0  0  0  0  0  0  0  # atno 17342 bound_to 10162
  139.6306  144.0728  152.2473 LP  0  0  0  0  0  0  0  0  0  0  0  0  # atno 17343 bound_to 10162
  156.6630  130.8789  151.3550 LP  0  0  0  0  0  0  0  0  0  0  0  0  # atno 17370 bound_to 10713
  157.7090  130.9418  150.1026 LP  0  0  0  0  0  0  0  0  0  0  0  0  # atno 17371 bound_to 10713
  141.2192  133.7401  156.9164 LP  0  0  0  0  0  0  0  0  0  0  0  0  # atno 17394 bound_to 11000
  140.1479  134.9250  157.2553 LP  0  0  0  0  0  0  0  0  0  0  0  0  # atno 17395 bound_to 11000

$$$$
