AV-unprocessed.smi:1527|AV-procd|sdf|6148|dock3
  -GOLD-   22720 6293D 1   1.00000     0.00000
 Structure written by MMmdl.
 30 30  0  0  0  0  0  0  0  0  2 V2000
  151.6790  144.6805  160.1074 C   0  0  0  0  0  0  0  0  0  0  0  0
  151.8462  143.8243  161.3712 C   0  0  0  0  0  0  0  0  0  0  0  0
  153.1457  142.9970  161.3920 C   0  0  1  0  0  0  0  0  0  0  0  0
  153.6363  142.7445  162.8245 C   0  0  0  0  0  0  0  0  0  0  0  0
  152.9447  141.7158  160.7174 N   0  0  0  0  0  0  0  0  0  0  0  0
  152.6186  141.5438  159.4265 C   0  0  0  0  0  0  0  0  0  0  0  0
  152.4471  142.4781  158.6417 O   0  0  0  0  0  0  0  0  0  0  0  0
  152.4650  140.0821  158.9765 C   0  0  0  0  0  0  0  0  0  0  0  0
  151.9596  139.9209  157.6052 N   0  0  0  0  0  0  0  0  0  0  0  0
  152.8193  139.1036  156.7535 N   0  5  0  0  0  0  0  0  0  0  0  0
  152.4444  138.8643  155.4690 C   0  0  0  0  0  0  0  0  0  0  0  0
  153.1075  138.1733  154.6992 O   0  0  0  0  0  0  0  0  0  0  0  0
  151.2059  139.4599  154.9952 C   0  0  0  0  0  0  0  0  0  0  0  0
  150.4442  140.2304  155.7966 C   0  0  0  0  0  0  0  0  0  0  0  0
  150.8052  140.5107  157.1810 C   0  0  0  0  0  0  0  0  0  0  0  0
  150.1197  141.2220  157.9160 O   0  0  0  0  0  0  0  0  0  0  0  0
  150.7726  145.2832  160.1654 H   0  0  0  0  0  0  0  0  0  0  0  0
  151.6067  144.0639  159.2111 H   0  0  0  0  0  0  0  0  0  0  0  0
  152.5222  145.3598  159.9789 H   0  0  0  0  0  0  0  0  0  0  0  0
  151.8292  144.4830  162.2402 H   0  0  0  0  0  0  0  0  0  0  0  0
  150.9848  143.1633  161.4751 H   0  0  0  0  0  0  0  0  0  0  0  0
  153.9152  143.5769  160.8796 H   0  0  0  0  0  0  0  0  0  0  0  0
  153.8189  143.6835  163.3476 H   0  0  0  0  0  0  0  0  0  0  0  0
  154.5700  142.1810  162.8255 H   0  0  0  0  0  0  0  0  0  0  0  0
  152.9044  142.1785  163.4020 H   0  0  0  0  0  0  0  0  0  0  0  0
  153.0574  140.8867  161.2821 H   0  0  0  0  0  0  0  0  0  0  0  0
  153.4300  139.5818  159.0741 H   0  0  0  0  0  0  0  0  0  0  0  0
  151.8029  139.5768  159.6822 H   0  0  0  0  0  0  0  0  0  0  0  0
  150.8911  139.2821  153.9773 H   0  0  0  0  0  0  0  0  0  0  0  0
  149.5324  140.6533  155.4020 H   0  0  0  0  0  0  0  0  0  0  0  0
  1  2  1  0  0  0  0
  1 17  1  0  0  0  0
  1 18  1  0  0  0  0
  1 19  1  0  0  0  0
  2  3  1  0  0  0  0
  2 20  1  0  0  0  0
  2 21  1  0  0  0  0
  3  4  1  0  0  0  0
  3  5  1  0  0  0  0
  3 22  1  0  0  0  0
  4 23  1  0  0  0  0
  4 24  1  0  0  0  0
  4 25  1  0  0  0  0
  5  6  1  0  0  0  0
  5 26  1  0  0  0  0
  6  7  2  0  0  0  0
  6  8  1  0  0  0  0
  8 27  1  0  0  0  0
  8 28  1  0  0  0  0
  8  9  1  0  0  0  0
  9 10  1  0  0  0  0
  9 15  1  0  0  0  0
 10 11  1  0  0  0  0
 11 12  2  0  0  0  0
 11 13  1  0  0  0  0
 13 29  1  0  0  0  0
 13 14  2  0  0  0  0
 14 30  1  0  0  0  0
 14 15  1  0  0  0  0
 15 16  2  0  0  0  0
M  CHG  1  10  -1
M  END
> <s_m_source_file>
AV-unprocessed.smi

> <i_m_source_file_index>
1527

> <i_lp_mmshare_version>
43012

> <i_f3d_flags>
0

> <s_epik_input>
W0NIM11bQ0gyXVtDQEhdKFtDSDNdKVtOSF1DKD1PKVtDSDJdbjFbbkhdYyg9TylbY0hdW2NIXWMxPU8=

> <s_epik_cmdline>
J2VwaWtfcHl0aG9uJywgJy1waCcsICc3LjAnLCAnLXRuJywgJzgnLCAnLW1hJywgJzIwMCcsICctbWV0YWxfYmluZGluZycsICctaW1hZScsICc8aW5maWxlLm1hZT4nLCAnLW9tYWUnLCAnPG91dGZpbGUubWFlPic=

> <r_lp_tautomer_probability>
1

> <r_epik_Ionization_Penalty>
0.0984334

> <r_epik_Ionization_Penalty_Charging>
0.0984334

> <r_epik_Ionization_Penalty_Neutral>
1.93017e-08

> <r_epik_State_Penalty>
0.0346952

> <r_epik_Charging_Adjusted_Penalty>
0.133129

> <i_epik_Tot_Q>
-1

> <i_epik_Tot_abs_Q>
1

> <r_epik_Metal_State_Penalty>
0.0346952

> <b_epik_Metal_Only>
0

> <s_lp_Force_Field>
OPLS_2005

> <r_lp_Energy>
18.954

> <b_lp_Chiralities_Consistent>
1

> <s_lp_Variant>
AV-unprocessed.smi:1527-2

> <Gold.Version>
5.8.1

> <Gold.Id.Protein>
6NUR|6NUR_protein|mol2

> <Gold.PLP.Fitness>
40.7367

> <Gold.PLP.PLP>
-35.4782

> <Gold.PLP.part.hbond>
-2.0000

> <Gold.PLP.part.metal>
0.0000

> <Gold.PLP.part.buried>
-3.2560

> <Gold.PLP.part.nonpolar>
-29.1305

> <Gold.PLP.part.repulsive>
0.1772

> <Gold.PLP.ligand.clash>
0.0000

> <Gold.PLP.ligand.torsion>
0.4232

> <Gold.PLP.Chemscore.Hbond>
2.0304

> <Gold.PLP.Chemscore.CHOScore>
0.0000

> <Gold.PLP.Chemscore.Metal>
0.0000

> <Gold.Chemscore.Hbonds>
donor molecule, donor type, donor heavy atom, donor atom, acceptor molecule, acceptor atom, score
      P1  H  7997  8009       L1    10  2.00

> <Gold.PLP.Chemscore.Internal.Correction>
0.0136

> <Gold.Rescore>
     Score         DG    S(hbond)    S(metal)    S(lipo)     H(rot)  DE(clash)    DE(int)     intcor
      8.83     -10.87       0.77        0.00      66.58       1.94       0.03       2.00       ----

> <Gold.Chemscore.Fitness>
8.8324

> <Gold.Chemscore.DG>
-10.8678

> <Gold.Chemscore.ZeroCoef>
-5.4800

> <Gold.Chemscore.Hbond>
0.7716

> <Gold.Chemscore.Metal>
0.0000

> <Gold.Chemscore.Lipo>
66.5772

> <Gold.Chemscore.Internal_Hbond>
0.0000

> <Gold.Chemscore.DEClash>
0.0339

> <Gold.Chemscore.DEInternal>
2.0015

> <Gold.Chemscore.Rot>
1.9449

> <Gold.Chemscore.Internal.Correction>
   9.000000E+99

> <Gold.Chemscore.Hbonds>
donor molecule, donor type, donor heavy atom, donor atom, acceptor molecule, acceptor atom, score
      P1  H  7997  8009       L1    10  0.25

> <Gold.Chemscore.Hbond.Weighted>
-2.5773

> <Gold.Chemscore.Metal.Weighted>
-0.0000

> <Gold.Chemscore.Lipo.Weighted>
-7.7895

> <Gold.Chemscore.Internal_Hbond.Weighted>
0.0000

> <Gold.Chemscore.DEClash.Weighted>
0.0339

> <Gold.Chemscore.DEInternal.Weighted>
2.0015

> <Gold.Chemscore.Rot.Weighted>
4.9791

> <Gold.Chemscore.Internal.Correction.Weighted>
   9.000000E+99

> <Gold.Protein.RotatedTorsions>
[ 6907 6896 6895 6894 ] final  -10.22 input  -60.11 | X-H torsion
[ 7974 7965 7964 7962 ] final -114.82 input  175.53 | X-H torsion
[ 8008 7997 7996 7995 ] final  179.15 input   59.86 | X-H torsion
[ 10167 10162 10161 10158 ] final  174.15 input  -65.29 | X-H torsion
[ 10718 10713 10712 10709 ] final -109.10 input   66.30 | X-H torsion
[ 10763 10752 10751 10750 ] final   44.24 input  -60.55 | X-H torsion
[ 11005 11000 10999 10996 ] final   45.92 input  -57.11 | X-H torsion

> <Gold.Protein.ActiveResidues>
 VAL166  LYS551  ARG553  GLY616  TRP617  ASP618  TYR619  PRO620  LYS621  CYS622 
 ASP623  PHE694  ASN695  SER759  ASP760  ASP761  ALA762  ILE779  LEU786  VAL792 
 PHE793  MET794  SER795  GLU796  ALA797  LYS798  CYS799  TRP800  GLU811  SER814 

> <Gold.Protein.RotatedAtoms>
  151.4054  135.0977  159.9568 H   0  0  0  0  0  0  0  0  0  0  0  0  # atno 6907 bound_to 6896
  152.5037  133.8848  159.7375 H   0  0  0  0  0  0  0  0  0  0  0  0  # atno 6908 bound_to 6896
  150.9331  133.6686  159.2835 H   0  0  0  0  0  0  0  0  0  0  0  0  # atno 6909 bound_to 6896
  145.1156  140.8638  143.3844 H   0  0  0  0  0  0  0  0  0  0  0  0  # atno 7974 bound_to 7965
  156.0466  140.1316  157.0096 H   0  0  0  0  0  0  0  0  0  0  0  0  # atno 8008 bound_to 7997
  154.4415  140.1019  156.6386 H   0  0  0  0  0  0  0  0  0  0  0  0  # atno 8009 bound_to 7997
  155.5586  140.3464  155.4488 H   0  0  0  0  0  0  0  0  0  0  0  0  # atno 8010 bound_to 7997
  139.5132  144.3179  152.0230 H   0  0  0  0  0  0  0  0  0  0  0  0  # atno 10167 bound_to 10162
  156.0519  130.5746  150.8053 H   0  0  0  0  0  0  0  0  0  0  0  0  # atno 10718 bound_to 10713
  152.9845  135.6077  154.3242 H   0  0  0  0  0  0  0  0  0  0  0  0  # atno 10763 bound_to 10752
  154.2950  135.2774  155.2639 H   0  0  0  0  0  0  0  0  0  0  0  0  # atno 10764 bound_to 10752
  154.4918  135.5890  153.6521 H   0  0  0  0  0  0  0  0  0  0  0  0  # atno 10765 bound_to 10752
  140.1416  134.4576  155.8446 H   0  0  0  0  0  0  0  0  0  0  0  0  # atno 11005 bound_to 11000
  145.0797  139.2969  143.5790 LP  0  0  0  0  0  0  0  0  0  0  0  0  # atno 17320 bound_to 7965
  146.3524  140.0300  142.8651 LP  0  0  0  0  0  0  0  0  0  0  0  0  # atno 17321 bound_to 7965
  140.2622  144.4055  150.6181 LP  0  0  0  0  0  0  0  0  0  0  0  0  # atno 17342 bound_to 10162
  140.6149  143.2171  151.6812 LP  0  0  0  0  0  0  0  0  0  0  0  0  # atno 17343 bound_to 10162
  157.5454  131.0942  150.9770 LP  0  0  0  0  0  0  0  0  0  0  0  0  # atno 17370 bound_to 10713
  157.0042  130.5612  149.5314 LP  0  0  0  0  0  0  0  0  0  0  0  0  # atno 17371 bound_to 10713
  141.2186  133.6835  156.7257 LP  0  0  0  0  0  0  0  0  0  0  0  0  # atno 17394 bound_to 11000
  140.2715  134.8388  157.3851 LP  0  0  0  0  0  0  0  0  0  0  0  0  # atno 17395 bound_to 11000

$$$$
