AV-unprocessed.smi:1295|AV-procd|sdf|5403|dock6
  -GOLD-   22720 4563D 1   1.00000     0.00000
 Structure written by MMmdl.
 43 44  0  0  0  0  0  0  0  0  1 V2000
  146.3623  138.3322  152.2935 C   0  0  0  0  0  0  0  0  0  0  0  0
  147.2119  139.3115  153.0752 C   0  0  0  0  0  0  0  0  0  0  0  0
  146.7628  140.4139  153.5783 N   0  0  0  0  0  0  0  0  0  0  0  0
  147.6456  141.2404  154.2869 C   0  0  0  0  0  0  0  0  0  0  0  0
  147.0385  142.5080  154.8626 C   0  0  0  0  0  0  0  0  0  0  0  0
  148.9601  140.9101  154.4506 C   0  0  0  0  0  0  0  0  0  0  0  0
  149.9425  141.7805  155.2362 C   0  0  0  0  0  0  0  0  0  0  0  0
  149.7281  141.8135  156.7510 C   0  0  0  0  0  0  0  0  0  0  0  0
  148.8402  141.1339  157.2641 O   0  0  0  0  0  0  0  0  0  0  0  0
  150.5570  142.6059  157.4468 N   0  0  0  0  0  0  0  0  0  0  0  0
  150.6160  142.7479  158.8996 C   0  0  2  0  0  0  0  0  0  0  0  0
  149.9439  144.0666  159.3323 C   0  0  0  0  0  0  0  0  0  0  0  0
  150.7533  145.3001  158.8948 C   0  0  0  0  0  0  0  0  0  0  0  0
  152.2016  145.2225  159.4010 C   0  0  0  0  0  0  0  0  0  0  0  0
  152.8838  143.9197  158.9534 C   0  0  0  0  0  0  0  0  0  0  0  0
  152.0820  142.6771  159.3952 C   0  0  2  0  0  0  0  0  0  0  0  0
  152.7886  141.3747  158.9781 C   0  0  0  0  0  0  0  0  0  0  0  0
  149.4610  139.6465  153.8754 C   0  0  0  0  0  0  0  0  0  0  0  0
  150.6176  139.2420  153.9830 O   0  0  0  0  0  0  0  0  0  0  0  0
  148.5410  138.9137  153.2093 N   0  0  0  0  0  0  0  0  0  0  0  0
  148.8343  138.0393  152.7983 H   0  0  0  0  0  0  0  0  0  0  0  0
  145.5316  137.9839  152.9076 H   0  0  0  0  0  0  0  0  0  0  0  0
  146.9390  137.4628  151.9749 H   0  0  0  0  0  0  0  0  0  0  0  0
  145.9536  138.8151  151.4055 H   0  0  0  0  0  0  0  0  0  0  0  0
  147.5193  143.3902  154.4398 H   0  0  0  0  0  0  0  0  0  0  0  0
  147.1565  142.5318  155.9461 H   0  0  0  0  0  0  0  0  0  0  0  0
  145.9719  142.5721  154.6433 H   0  0  0  0  0  0  0  0  0  0  0  0
  150.9702  141.4709  155.0432 H   0  0  0  0  0  0  0  0  0  0  0  0
  149.8855  142.8014  154.8578 H   0  0  0  0  0  0  0  0  0  0  0  0
  151.2388  143.1345  156.9224 H   0  0  0  0  0  0  0  0  0  0  0  0
  150.0692  141.9247  159.3627 H   0  0  0  0  0  0  0  0  0  0  0  0
  148.9309  144.1229  158.9318 H   0  0  0  0  0  0  0  0  0  0  0  0
  149.8408  144.0754  160.4181 H   0  0  0  0  0  0  0  0  0  0  0  0
  150.7492  145.3792  157.8068 H   0  0  0  0  0  0  0  0  0  0  0  0
  150.2778  146.2069  159.2697 H   0  0  0  0  0  0  0  0  0  0  0  0
  152.7672  146.0814  159.0387 H   0  0  0  0  0  0  0  0  0  0  0  0
  152.2113  145.2837  160.4899 H   0  0  0  0  0  0  0  0  0  0  0  0
  153.0000  143.9229  157.8687 H   0  0  0  0  0  0  0  0  0  0  0  0
  153.8916  143.8779  159.3676 H   0  0  0  0  0  0  0  0  0  0  0  0
  152.0515  142.6834  160.4859 H   0  0  0  0  0  0  0  0  0  0  0  0
  152.9209  141.3127  157.8972 H   0  0  0  0  0  0  0  0  0  0  0  0
  152.2182  140.5008  159.2938 H   0  0  0  0  0  0  0  0  0  0  0  0
  153.7767  141.3038  159.4335 H   0  0  0  0  0  0  0  0  0  0  0  0
  1  2  1  0  0  0  0
  1 22  1  0  0  0  0
  1 23  1  0  0  0  0
  1 24  1  0  0  0  0
  2 20  1  0  0  0  0
  2  3  2  0  0  0  0
  3  4  1  0  0  0  0
  4  5  1  0  0  0  0
  4  6  2  0  0  0  0
  5 25  1  0  0  0  0
  5 26  1  0  0  0  0
  5 27  1  0  0  0  0
  6  7  1  0  0  0  0
  6 18  1  0  0  0  0
  7  8  1  0  0  0  0
  7 28  1  0  0  0  0
  7 29  1  0  0  0  0
  8  9  2  0  0  0  0
  8 10  1  0  0  0  0
 10 11  1  0  0  0  0
 10 30  1  0  0  0  0
 11 16  1  0  0  0  0
 11 12  1  0  0  0  0
 11 31  1  0  0  0  0
 12 13  1  0  0  0  0
 12 32  1  0  0  0  0
 12 33  1  0  0  0  0
 13 14  1  0  0  0  0
 13 34  1  0  0  0  0
 13 35  1  0  0  0  0
 14 15  1  0  0  0  0
 14 36  1  0  0  0  0
 14 37  1  0  0  0  0
 15 16  1  0  0  0  0
 15 38  1  0  0  0  0
 15 39  1  0  0  0  0
 16 17  1  0  0  0  0
 16 40  1  0  0  0  0
 17 41  1  0  0  0  0
 17 42  1  0  0  0  0
 17 43  1  0  0  0  0
 18 19  2  0  0  0  0
 18 20  1  0  0  0  0
 20 21  1  0  0  0  0
M  END
> <s_m_source_file>
AV-unprocessed.smi

> <i_m_source_file_index>
1295

> <i_lp_mmshare_version>
43012

> <i_f3d_flags>
0

> <s_epik_input>
W0NIM11jMW5jKFtDSDNdKWMoYyg9TylbbkhdMSlbQ0gyXUMoPU8pW05IXVtDQEBIXTJbQ0gyXVtDSDJdW0NIMl1bQ0gyXVtDQEhdMltDSDNd

> <s_epik_cmdline>
J2VwaWtfcHl0aG9uJywgJy1waCcsICc3LjAnLCAnLXRuJywgJzgnLCAnLW1hJywgJzIwMCcsICctbWV0YWxfYmluZGluZycsICctaW1hZScsICc8aW5maWxlLm1hZT4nLCAnLW9tYWUnLCAnPG91dGZpbGUubWFlPic=

> <r_lp_tautomer_probability>
0.839158

> <r_epik_Ionization_Penalty>
0.00037085

> <r_epik_Ionization_Penalty_Charging>
0.000336002

> <r_epik_Ionization_Penalty_Neutral>
3.48485e-05

> <r_epik_State_Penalty>
0.09125

> <r_epik_Charging_Adjusted_Penalty>
0.091586

> <i_epik_Tot_Q>
0

> <i_epik_Tot_abs_Q>
0

> <r_epik_Metal_State_Penalty>
0.251445

> <b_epik_Metal_Only>
0

> <s_lp_Force_Field>
OPLS_2005

> <r_lp_Energy>
10.0645

> <b_lp_Chiralities_Consistent>
1

> <s_lp_Variant>
AV-unprocessed.smi:1295-3

> <Gold.Version>
5.8.1

> <Gold.Id.Protein>
6NUR|6NUR_protein|mol2

> <Gold.PLP.Fitness>
43.9467

> <Gold.PLP.PLP>
-38.8415

> <Gold.PLP.part.hbond>
-3.2094

> <Gold.PLP.part.metal>
0.0000

> <Gold.PLP.part.buried>
2.0697

> <Gold.PLP.part.nonpolar>
-36.9102

> <Gold.PLP.part.repulsive>
0.5068

> <Gold.PLP.ligand.clash>
0.0000

> <Gold.PLP.ligand.torsion>
0.3018

> <Gold.PLP.Chemscore.Hbond>
1.9000

> <Gold.PLP.Chemscore.CHOScore>
0.0000

> <Gold.PLP.Chemscore.Metal>
0.0000

> <Gold.Chemscore.Hbonds>
donor molecule, donor type, donor heavy atom, donor atom, acceptor molecule, acceptor atom, score
      L1  H    20    21       P1  7948  1.00
      P1  H  7989  7998       L1    19  1.00

> <Gold.PLP.Chemscore.Internal.Correction>
0.0088

> <Gold.Rescore>
     Score         DG    S(hbond)    S(metal)    S(lipo)     H(rot)  DE(clash)    DE(int)     intcor
     17.55     -18.08       1.20        0.00     105.69       1.48       0.24       0.30       ----

> <Gold.Chemscore.Fitness>
17.5477

> <Gold.Chemscore.DG>
-18.0807

> <Gold.Chemscore.ZeroCoef>
-5.4800

> <Gold.Chemscore.Hbond>
1.2048

> <Gold.Chemscore.Metal>
0.0000

> <Gold.Chemscore.Lipo>
105.6900

> <Gold.Chemscore.Internal_Hbond>
0.0000

> <Gold.Chemscore.DEClash>
0.2372

> <Gold.Chemscore.DEInternal>
0.2958

> <Gold.Chemscore.Rot>
1.4801

> <Gold.Chemscore.Internal.Correction>
   9.000000E+99

> <Gold.Chemscore.Hbonds>
donor molecule, donor type, donor heavy atom, donor atom, acceptor molecule, acceptor atom, score
      L1  H    20    21       P1  7948  0.95
      P1  H  7989  7998       L1    19  0.29

> <Gold.Chemscore.Hbond.Weighted>
-4.0241

> <Gold.Chemscore.Metal.Weighted>
-0.0000

> <Gold.Chemscore.Lipo.Weighted>
-12.3657

> <Gold.Chemscore.Internal_Hbond.Weighted>
0.0000

> <Gold.Chemscore.DEClash.Weighted>
0.2372

> <Gold.Chemscore.DEInternal.Weighted>
0.2958

> <Gold.Chemscore.Rot.Weighted>
3.7891

> <Gold.Chemscore.Internal.Correction.Weighted>
   9.000000E+99

> <Gold.Protein.RotatedTorsions>
[ 6907 6896 6895 6894 ] final  -86.19 input  -60.11 | X-H torsion
[ 7974 7965 7964 7962 ] final -153.93 input  175.53 | X-H torsion
[ 8008 7997 7996 7995 ] final -105.72 input   59.86 | X-H torsion
[ 10167 10162 10161 10158 ] final  -48.92 input  -65.29 | X-H torsion
[ 10718 10713 10712 10709 ] final  107.77 input   66.30 | X-H torsion
[ 10763 10752 10751 10750 ] final   99.20 input  -60.55 | X-H torsion
[ 11005 11000 10999 10996 ] final   71.75 input  -57.11 | X-H torsion

> <Gold.Protein.ActiveResidues>
 VAL166  LYS551  ARG553  GLY616  TRP617  ASP618  TYR619  PRO620  LYS621  CYS622 
 ASP623  PHE694  ASN695  SER759  ASP760  ASP761  ALA762  ILE779  LEU786  VAL792 
 PHE793  MET794  SER795  GLU796  ALA797  LYS798  CYS799  TRP800  GLU811  SER814 

> <Gold.Protein.RotatedAtoms>
  150.6867  134.3089  159.4737 H   0  0  0  0  0  0  0  0  0  0  0  0  # atno 6907 bound_to 6896
  152.0977  134.9361  160.0579 H   0  0  0  0  0  0  0  0  0  0  0  0  # atno 6908 bound_to 6896
  152.0652  133.4046  159.4472 H   0  0  0  0  0  0  0  0  0  0  0  0  # atno 6909 bound_to 6896
  144.7715  140.4458  143.5903 H   0  0  0  0  0  0  0  0  0  0  0  0  # atno 7974 bound_to 7965
  154.9040  140.0412  157.1909 H   0  0  0  0  0  0  0  0  0  0  0  0  # atno 8008 bound_to 7997
  154.8415  140.2915  155.5635 H   0  0  0  0  0  0  0  0  0  0  0  0  # atno 8009 bound_to 7997
  156.2992  140.2482  156.3358 H   0  0  0  0  0  0  0  0  0  0  0  0  # atno 8010 bound_to 7997
  140.6709  143.2719  151.4141 H   0  0  0  0  0  0  0  0  0  0  0  0  # atno 10167 bound_to 10162
  157.6614  131.0880  150.6206 H   0  0  0  0  0  0  0  0  0  0  0  0  # atno 10718 bound_to 10713
  153.2984  135.4122  155.1231 H   0  0  0  0  0  0  0  0  0  0  0  0  # atno 10763 bound_to 10752
  154.8542  135.3535  154.5885 H   0  0  0  0  0  0  0  0  0  0  0  0  # atno 10764 bound_to 10752
  153.6309  135.7061  153.5334 H   0  0  0  0  0  0  0  0  0  0  0  0  # atno 10765 bound_to 10752
  139.9527  134.7199  156.0825 H   0  0  0  0  0  0  0  0  0  0  0  0  # atno 11005 bound_to 11000
  145.6309  139.1536  143.2969 LP  0  0  0  0  0  0  0  0  0  0  0  0  # atno 17320 bound_to 7965
  146.1865  140.6413  142.9165 LP  0  0  0  0  0  0  0  0  0  0  0  0  # atno 17321 bound_to 7965
  139.5977  144.1362  152.2162 LP  0  0  0  0  0  0  0  0  0  0  0  0  # atno 17342 bound_to 10162
  140.0737  144.5758  150.7173 LP  0  0  0  0  0  0  0  0  0  0  0  0  # atno 17343 bound_to 10162
  156.6509  130.4485  149.5720 LP  0  0  0  0  0  0  0  0  0  0  0  0  # atno 17370 bound_to 10713
  156.2138  130.6695  151.1298 LP  0  0  0  0  0  0  0  0  0  0  0  0  # atno 17371 bound_to 10713
  141.1193  133.6618  156.3173 LP  0  0  0  0  0  0  0  0  0  0  0  0  # atno 17394 bound_to 11000
  140.5682  134.5867  157.5451 LP  0  0  0  0  0  0  0  0  0  0  0  0  # atno 17395 bound_to 11000

$$$$
