AV-unprocessed.smi:2290|AV-procd|sdf|9211|dock1
  -GOLD-   2272012433D 1   1.00000     0.00000
 Structure written by MMmdl.
 38 39  0  0  0  0  0  0  0  0  1 V2000
  151.9965  145.8802  160.2202 C   0  0  0  0  0  0  0  0  0  0  0  0
  151.9231  144.5502  159.4914 C   0  0  0  0  0  0  0  0  0  0  0  0
  151.6305  144.6247  158.1265 N   0  0  0  0  0  0  0  0  0  0  0  0
  151.5479  143.5419  157.4246 C   0  0  0  0  0  0  0  0  0  0  0  0
  151.7482  142.2751  157.9964 N   0  0  0  0  0  0  0  0  0  0  0  0
  151.6162  141.1228  157.0896 C   0  0  0  0  0  0  0  0  0  0  0  0
  150.3642  141.2326  156.1907 C   0  0  1  0  0  0  0  0  0  0  0  0
  150.1401  140.0173  155.5052 O   0  0  0  0  0  0  0  0  0  0  0  0
  149.0852  141.5637  156.9765 C   0  0  0  0  0  0  0  0  0  0  0  0
  148.0588  141.9589  156.0807 O   0  0  0  0  0  0  0  0  0  0  0  0
  147.0314  142.7031  156.7138 C   0  0  0  0  0  0  0  0  0  0  0  0
  146.2453  143.4080  155.6527 C   0  0  0  0  0  0  0  0  0  0  0  0
  145.1954  144.2683  155.8500 C   0  0  0  0  0  0  0  0  0  0  0  0
  144.6440  144.7750  154.6366 C   0  0  0  0  0  0  0  0  0  0  0  0
  145.2784  144.2932  153.5231 C   0  0  0  0  0  0  0  0  0  0  0  0
  146.5686  143.2016  153.9451 S   0  0  0  0  0  0  0  0  0  0  0  0
  152.0276  142.1117  159.3218 C   0  0  0  0  0  0  0  0  0  0  0  0
  152.1831  140.9936  159.8170 O   0  0  0  0  0  0  0  0  0  0  0  0
  152.1234  143.3529  160.1071 C   0  0  0  0  0  0  0  0  0  0  0  0
  152.4448  143.2102  161.5896 C   0  0  0  0  0  0  0  0  0  0  0  0
  152.9896  146.0283  160.6451 H   0  0  0  0  0  0  0  0  0  0  0  0
  151.2630  145.9148  161.0258 H   0  0  0  0  0  0  0  0  0  0  0  0
  151.7929  146.7144  159.5475 H   0  0  0  0  0  0  0  0  0  0  0  0
  151.3165  143.5450  156.3580 H   0  0  0  0  0  0  0  0  0  0  0  0
  152.5120  140.9724  156.4830 H   0  0  0  0  0  0  0  0  0  0  0  0
  151.5480  140.2155  157.6930 H   0  0  0  0  0  0  0  0  0  0  0  0
  150.5045  142.0103  155.4391 H   0  0  0  0  0  0  0  0  0  0  0  0
  150.7374  139.3688  155.8462 H   0  0  0  0  0  0  0  0  0  0  0  0
  148.7577  140.6746  157.5174 H   0  0  0  0  0  0  0  0  0  0  0  0
  149.2753  142.3401  157.7197 H   0  0  0  0  0  0  0  0  0  0  0  0
  146.3778  142.0410  157.2835 H   0  0  0  0  0  0  0  0  0  0  0  0
  147.4610  143.4286  157.4062 H   0  0  0  0  0  0  0  0  0  0  0  0
  144.8069  144.5497  156.8177 H   0  0  0  0  0  0  0  0  0  0  0  0
  143.8127  145.4645  154.6234 H   0  0  0  0  0  0  0  0  0  0  0  0
  145.0670  144.5100  152.4865 H   0  0  0  0  0  0  0  0  0  0  0  0
  151.6684  142.6294  162.0883 H   0  0  0  0  0  0  0  0  0  0  0  0
  152.5238  144.1652  162.1063 H   0  0  0  0  0  0  0  0  0  0  0  0
  153.3934  142.6886  161.7200 H   0  0  0  0  0  0  0  0  0  0  0  0
  1  2  1  0  0  0  0
  1 21  1  0  0  0  0
  1 22  1  0  0  0  0
  1 23  1  0  0  0  0
  2 19  2  0  0  0  0
  2  3  1  0  0  0  0
  3  4  2  0  0  0  0
  4  5  1  0  0  0  0
  4 24  1  0  0  0  0
  5  6  1  0  0  0  0
  5 17  1  0  0  0  0
  6  7  1  0  0  0  0
  6 25  1  0  0  0  0
  6 26  1  0  0  0  0
  7  8  1  0  0  0  0
  7  9  1  0  0  0  0
  7 27  1  0  0  0  0
  8 28  1  0  0  0  0
  9 10  1  0  0  0  0
  9 29  1  0  0  0  0
  9 30  1  0  0  0  0
 10 11  1  0  0  0  0
 11 12  1  0  0  0  0
 11 31  1  0  0  0  0
 11 32  1  0  0  0  0
 12 16  1  0  0  0  0
 12 13  2  0  0  0  0
 13 14  1  0  0  0  0
 13 33  1  0  0  0  0
 14 15  2  0  0  0  0
 14 34  1  0  0  0  0
 15 16  1  0  0  0  0
 15 35  1  0  0  0  0
 17 18  2  0  0  0  0
 17 19  1  0  0  0  0
 19 20  1  0  0  0  0
 20 36  1  0  0  0  0
 20 37  1  0  0  0  0
 20 38  1  0  0  0  0
M  END
> <s_m_source_file>
AV-unprocessed.smi

> <i_m_source_file_index>
2290

> <i_lp_mmshare_version>
43012

> <i_f3d_flags>
0

> <s_epik_input>
W0NIM11jMW5bY0hdbihjKD1PKWMxW0NIM10pW0NIMl1bQ0BIXShbT0hdKVtDSDJdT1tDSDJdYzJbY0hdW2NIXVtjSF1zMg==

> <s_epik_cmdline>
J2VwaWtfcHl0aG9uJywgJy1waCcsICc3LjAnLCAnLXRuJywgJzgnLCAnLW1hJywgJzIwMCcsICctbWV0YWxfYmluZGluZycsICctaW1hZScsICc8aW5maWxlLm1hZT4nLCAnLW9tYWUnLCAnPG91dGZpbGUubWFlPic=

> <r_lp_tautomer_probability>
1

> <r_epik_Ionization_Penalty>
4.77825e-05

> <r_epik_Ionization_Penalty_Charging>
1.20754e-07

> <r_epik_Ionization_Penalty_Neutral>
4.76618e-05

> <r_epik_State_Penalty>
-0

> <r_epik_Charging_Adjusted_Penalty>
1.20754e-07

> <i_epik_Tot_Q>
0

> <i_epik_Tot_abs_Q>
0

> <r_epik_Metal_State_Penalty>
-0

> <b_epik_Metal_Only>
0

> <s_lp_Force_Field>
OPLS_2005

> <r_lp_Energy>
16.3979

> <b_lp_Chiralities_Consistent>
1

> <s_lp_Variant>
AV-unprocessed.smi:2290-2

> <Gold.Version>
5.8.1

> <Gold.Id.Protein>
6NUR|6NUR_protein|mol2

> <Gold.PLP.Fitness>
43.4706

> <Gold.PLP.PLP>
-39.2634

> <Gold.PLP.part.hbond>
0.0000

> <Gold.PLP.part.metal>
0.0000

> <Gold.PLP.part.buried>
-6.5804

> <Gold.PLP.part.nonpolar>
-33.6385

> <Gold.PLP.part.repulsive>
0.2654

> <Gold.PLP.ligand.clash>
0.0000

> <Gold.PLP.ligand.torsion>
0.4777

> <Gold.PLP.Chemscore.Hbond>
0.0000

> <Gold.PLP.Chemscore.CHOScore>
1.6579

> <Gold.PLP.Chemscore.Metal>
0.0000

> <Gold.Chemscore.Hbonds>
donor molecule, donor type, donor heavy atom, donor atom, acceptor molecule, acceptor atom, score
      L1  C     4    24       P1  8028  0.28

> <Gold.PLP.Chemscore.Internal.Correction>
0.1889

> <Gold.Rescore>
     Score         DG    S(hbond)    S(metal)    S(lipo)     H(rot)  DE(clash)    DE(int)     intcor
      9.22      -9.62       0.00        0.00      91.20       2.55       0.06       0.34       ----

> <Gold.Chemscore.Fitness>
9.2217

> <Gold.Chemscore.DG>
-9.6211

> <Gold.Chemscore.ZeroCoef>
-5.4800

> <Gold.Chemscore.Hbond>
0.0000

> <Gold.Chemscore.Metal>
0.0000

> <Gold.Chemscore.Lipo>
91.2046

> <Gold.Chemscore.Internal_Hbond>
0.0000

> <Gold.Chemscore.DEClash>
0.0609

> <Gold.Chemscore.DEInternal>
0.3385

> <Gold.Chemscore.Rot>
2.5507

> <Gold.Chemscore.Internal.Correction>
   9.000000E+99

> <Gold.Chemscore.Hbond.Weighted>
-0.0000

> <Gold.Chemscore.Metal.Weighted>
-0.0000

> <Gold.Chemscore.Lipo.Weighted>
-10.6709

> <Gold.Chemscore.Internal_Hbond.Weighted>
0.0000

> <Gold.Chemscore.DEClash.Weighted>
0.0609

> <Gold.Chemscore.DEInternal.Weighted>
0.3385

> <Gold.Chemscore.Rot.Weighted>
6.5298

> <Gold.Chemscore.Internal.Correction.Weighted>
   9.000000E+99

> <Gold.Protein.RotatedTorsions>
[ 6907 6896 6895 6894 ] final   57.30 input  -60.11 | X-H torsion
[ 7974 7965 7964 7962 ] final -171.67 input  175.53 | X-H torsion
[ 8008 7997 7996 7995 ] final   74.56 input   59.86 | X-H torsion
[ 10167 10162 10161 10158 ] final  -30.26 input  -65.29 | X-H torsion
[ 10718 10713 10712 10709 ] final -135.37 input   66.30 | X-H torsion
[ 10763 10752 10751 10750 ] final -170.14 input  -60.55 | X-H torsion
[ 11005 11000 10999 10996 ] final -166.00 input  -57.11 | X-H torsion

> <Gold.Protein.ActiveResidues>
 VAL166  LYS551  ARG553  GLY616  TRP617  ASP618  TYR619  PRO620  LYS621  CYS622 
 ASP623  PHE694  ASN695  SER759  ASP760  ASP761  ALA762  ILE779  LEU786  VAL792 
 PHE793  MET794  SER795  GLU796  ALA797  LYS798  CYS799  TRP800  GLU811  SER814 

> <Gold.Protein.RotatedAtoms>
  152.3718  134.6722  160.0173 H   0  0  0  0  0  0  0  0  0  0  0  0  # atno 6907 bound_to 6896
  151.7012  133.3306  159.3275 H   0  0  0  0  0  0  0  0  0  0  0  0  # atno 6908 bound_to 6896
  150.7680  134.6549  159.6352 H   0  0  0  0  0  0  0  0  0  0  0  0  # atno 6909 bound_to 6896
  144.7154  140.1887  143.6351 H   0  0  0  0  0  0  0  0  0  0  0  0  # atno 7974 bound_to 7965
  155.8002  140.3476  155.5398 H   0  0  0  0  0  0  0  0  0  0  0  0  # atno 8008 bound_to 7997
  155.8546  140.0961  157.1673 H   0  0  0  0  0  0  0  0  0  0  0  0  # atno 8009 bound_to 7997
  154.4009  140.1370  156.3873 H   0  0  0  0  0  0  0  0  0  0  0  0  # atno 8010 bound_to 7997
  140.7251  143.3863  151.1510 H   0  0  0  0  0  0  0  0  0  0  0  0  # atno 10167 bound_to 10162
  156.2655  130.7235  151.1184 H   0  0  0  0  0  0  0  0  0  0  0  0  # atno 10718 bound_to 10713
  154.6448  135.2903  155.0060 H   0  0  0  0  0  0  0  0  0  0  0  0  # atno 10763 bound_to 10752
  154.1174  135.6553  153.4900 H   0  0  0  0  0  0  0  0  0  0  0  0  # atno 10764 bound_to 10752
  153.0345  135.5279  154.7330 H   0  0  0  0  0  0  0  0  0  0  0  0  # atno 10765 bound_to 10752
  140.5694  134.5253  157.5159 H   0  0  0  0  0  0  0  0  0  0  0  0  # atno 11005 bound_to 11000
  145.8789  139.2312  143.1617 LP  0  0  0  0  0  0  0  0  0  0  0  0  # atno 17320 bound_to 7965
  146.0014  140.8517  143.0017 LP  0  0  0  0  0  0  0  0  0  0  0  0  # atno 17321 bound_to 7965
  139.7460  143.8851  152.3063 LP  0  0  0  0  0  0  0  0  0  0  0  0  # atno 17342 bound_to 10162
  139.8688  144.7079  150.9011 LP  0  0  0  0  0  0  0  0  0  0  0  0  # atno 17343 bound_to 10162
  157.7266  131.0645  150.5904 LP  0  0  0  0  0  0  0  0  0  0  0  0  # atno 17370 bound_to 10713
  156.5995  130.4351  149.5903 LP  0  0  0  0  0  0  0  0  0  0  0  0  # atno 17371 bound_to 10713
  139.9369  134.7858  156.0779 LP  0  0  0  0  0  0  0  0  0  0  0  0  # atno 17394 bound_to 11000
  141.1065  133.6658  156.2877 LP  0  0  0  0  0  0  0  0  0  0  0  0  # atno 17395 bound_to 11000

$$$$
