AV-unprocessed.smi:1068|AV-procd|sdf|4674|dock5
  -GOLD-   22720 3183D 1   1.00000     0.00000
 Structure written by MMmdl.
 51 52  0  0  0  0  0  0  0  0  1 V2000
  163.6418  145.9805  158.1498 C   0  0  0  0  0  0  0  0  0  0  0  0
  163.9665  144.9250  159.2332 C   0  0  0  0  0  0  0  0  0  0  0  0
  165.3312  144.3131  158.8385 C   0  0  0  0  0  0  0  0  0  0  0  0
  164.0868  145.6143  160.6047 C   0  0  0  0  0  0  0  0  0  0  0  0
  162.8741  143.8437  159.2988 C   0  0  0  0  0  0  0  0  0  0  0  0
  162.6057  143.1775  158.1681 N   0  0  0  0  0  0  0  0  0  0  0  0
  161.5653  142.3186  158.1789 C   0  0  0  0  0  0  0  0  0  0  0  0
  160.7582  142.1366  159.3195 C   0  0  0  0  0  0  0  0  0  0  0  0
  159.6688  141.2272  159.2500 N   0  0  0  0  0  0  0  0  0  0  0  0
  158.7759  140.9134  160.2035 C   0  0  0  0  0  0  0  0  0  0  0  0
  158.7806  141.3443  161.3558 O   0  0  0  0  0  0  0  0  0  0  0  0
  157.8584  140.0511  159.7416 N   0  0  0  0  0  0  0  0  0  0  0  0
  156.7360  139.5166  160.5138 C   0  0  0  0  0  0  0  0  0  0  0  0
  155.3717  140.1520  160.1990 C   0  0  0  0  0  0  0  0  0  0  0  0
  154.8458  139.9250  159.1102 O   0  0  0  0  0  0  0  0  0  0  0  0
  154.8058  140.9386  161.1306 N   0  0  0  0  0  0  0  0  0  0  0  0
  153.5146  141.6074  161.0114 C   0  0  0  0  0  0  0  0  0  0  0  0
  153.4526  142.4438  159.7166 C   0  0  0  0  0  0  0  0  0  0  0  0
  152.1323  143.2246  159.6142 C   0  0  0  0  0  0  0  0  0  0  0  0
  151.9084  144.1076  160.8516 C   0  0  0  0  0  0  0  0  0  0  0  0
  151.9629  143.2765  162.1432 C   0  0  0  0  0  0  0  0  0  0  0  0
  153.2828  142.4957  162.2485 C   0  0  0  0  0  0  0  0  0  0  0  0
  161.0974  142.9269  160.4439 C   0  0  0  0  0  0  0  0  0  0  0  0
  162.1413  143.7828  160.4184 N   0  0  0  0  0  0  0  0  0  0  0  0
  164.4385  146.7204  158.0646 H   0  0  0  0  0  0  0  0  0  0  0  0
  162.7267  146.5293  158.3751 H   0  0  0  0  0  0  0  0  0  0  0  0
  163.5177  145.5190  157.1694 H   0  0  0  0  0  0  0  0  0  0  0  0
  165.2715  143.7929  157.8817 H   0  0  0  0  0  0  0  0  0  0  0  0
  165.6900  143.5996  159.5811 H   0  0  0  0  0  0  0  0  0  0  0  0
  166.0992  145.0818  158.7456 H   0  0  0  0  0  0  0  0  0  0  0  0
  164.8545  146.3888  160.5953 H   0  0  0  0  0  0  0  0  0  0  0  0
  164.3498  144.8996  161.3854 H   0  0  0  0  0  0  0  0  0  0  0  0
  163.1471  146.0858  160.8945 H   0  0  0  0  0  0  0  0  0  0  0  0
  161.3729  141.7770  157.2640 H   0  0  0  0  0  0  0  0  0  0  0  0
  159.5703  140.7392  158.3715 H   0  0  0  0  0  0  0  0  0  0  0  0
  157.9336  139.7459  158.7823 H   0  0  0  0  0  0  0  0  0  0  0  0
  156.6688  138.4474  160.3118 H   0  0  0  0  0  0  0  0  0  0  0  0
  156.9357  139.6149  161.5822 H   0  0  0  0  0  0  0  0  0  0  0  0
  155.3050  141.0699  161.9982 H   0  0  0  0  0  0  0  0  0  0  0  0
  152.7250  140.8537  160.9839 H   0  0  0  0  0  0  0  0  0  0  0  0
  154.2891  143.1436  159.6890 H   0  0  0  0  0  0  0  0  0  0  0  0
  153.5619  141.7981  158.8447 H   0  0  0  0  0  0  0  0  0  0  0  0
  152.1327  143.8394  158.7137 H   0  0  0  0  0  0  0  0  0  0  0  0
  151.3022  142.5246  159.5104 H   0  0  0  0  0  0  0  0  0  0  0  0
  152.6695  144.8881  160.8864 H   0  0  0  0  0  0  0  0  0  0  0  0
  150.9467  144.6162  160.7769 H   0  0  0  0  0  0  0  0  0  0  0  0
  151.8469  143.9282  163.0096 H   0  0  0  0  0  0  0  0  0  0  0  0
  151.1240  142.5797  162.1658 H   0  0  0  0  0  0  0  0  0  0  0  0
  153.2757  141.8840  163.1517 H   0  0  0  0  0  0  0  0  0  0  0  0
  154.1092  143.1993  162.3591 H   0  0  0  0  0  0  0  0  0  0  0  0
  160.5360  142.9117  161.3646 H   0  0  0  0  0  0  0  0  0  0  0  0
  1  2  1  0  0  0  0
  1 25  1  0  0  0  0
  1 26  1  0  0  0  0
  1 27  1  0  0  0  0
  2  3  1  0  0  0  0
  2  4  1  0  0  0  0
  2  5  1  0  0  0  0
  3 28  1  0  0  0  0
  3 29  1  0  0  0  0
  3 30  1  0  0  0  0
  4 31  1  0  0  0  0
  4 32  1  0  0  0  0
  4 33  1  0  0  0  0
  5 24  1  0  0  0  0
  5  6  2  0  0  0  0
  6  7  1  0  0  0  0
  7  8  2  0  0  0  0
  7 34  1  0  0  0  0
  8  9  1  0  0  0  0
  8 23  1  0  0  0  0
  9 10  1  0  0  0  0
  9 35  1  0  0  0  0
 10 11  2  0  0  0  0
 10 12  1  0  0  0  0
 12 13  1  0  0  0  0
 12 36  1  0  0  0  0
 13 14  1  0  0  0  0
 13 37  1  0  0  0  0
 13 38  1  0  0  0  0
 14 15  2  0  0  0  0
 14 16  1  0  0  0  0
 16 17  1  0  0  0  0
 16 39  1  0  0  0  0
 17 22  1  0  0  0  0
 17 18  1  0  0  0  0
 17 40  1  0  0  0  0
 18 19  1  0  0  0  0
 18 41  1  0  0  0  0
 18 42  1  0  0  0  0
 19 20  1  0  0  0  0
 19 43  1  0  0  0  0
 19 44  1  0  0  0  0
 20 21  1  0  0  0  0
 20 45  1  0  0  0  0
 20 46  1  0  0  0  0
 21 22  1  0  0  0  0
 21 47  1  0  0  0  0
 21 48  1  0  0  0  0
 22 49  1  0  0  0  0
 22 50  1  0  0  0  0
 23 24  2  0  0  0  0
 23 51  1  0  0  0  0
M  END
> <s_m_source_file>
AV-unprocessed.smi

> <i_m_source_file_index>
1068

> <i_lp_mmshare_version>
43012

> <i_f3d_flags>
0

> <s_epik_input>
W0NIM11DKFtDSDNdKShbQ0gzXSljMW5bY0hdYyhbY0hdbjEpW05IXUMoPU8pW05IXVtDSDJdQyg9TylbTkhdW0NIXTJbQ0gyXVtDSDJdW0NIMl1bQ0gyXVtDSDJdMg==

> <s_epik_cmdline>
J2VwaWtfcHl0aG9uJywgJy1waCcsICc3LjAnLCAnLXRuJywgJzgnLCAnLW1hJywgJzIwMCcsICctbWV0YWxfYmluZGluZycsICctaW1hZScsICc8aW5maWxlLm1hZT4nLCAnLW9tYWUnLCAnPG91dGZpbGUubWFlPic=

> <r_lp_tautomer_probability>
1

> <r_epik_Ionization_Penalty>
2.47974e-05

> <r_epik_Ionization_Penalty_Charging>
0

> <r_epik_Ionization_Penalty_Neutral>
2.47974e-05

> <r_epik_State_Penalty>
-0

> <r_epik_Charging_Adjusted_Penalty>
0

> <i_epik_Tot_Q>
0

> <i_epik_Tot_abs_Q>
0

> <r_epik_Metal_State_Penalty>
-0

> <b_epik_Metal_Only>
0

> <s_lp_Force_Field>
OPLS_2005

> <r_lp_Energy>
3.00881

> <b_lp_Chiralities_Consistent>
1

> <s_lp_Variant>
AV-unprocessed.smi:1068-1

> <Gold.Version>
5.8.1

> <Gold.Id.Protein>
6NUR|6NUR_protein|mol2

> <Gold.PLP.Fitness>
48.8021

> <Gold.PLP.PLP>
-43.8271

> <Gold.PLP.part.hbond>
-5.7680

> <Gold.PLP.part.metal>
0.0000

> <Gold.PLP.part.buried>
-1.7260

> <Gold.PLP.part.nonpolar>
-36.5823

> <Gold.PLP.part.repulsive>
0.2196

> <Gold.PLP.ligand.clash>
0.0000

> <Gold.PLP.ligand.torsion>
0.3179

> <Gold.PLP.Chemscore.Hbond>
1.0000

> <Gold.PLP.Chemscore.CHOScore>
0.8175

> <Gold.PLP.Chemscore.Metal>
0.0000

> <Gold.Chemscore.Hbonds>
donor molecule, donor type, donor heavy atom, donor atom, acceptor molecule, acceptor atom, score
      P1  H  7997  8008       L1    15  1.00
      L1  C     7    34       P1   811  0.91

> <Gold.PLP.Chemscore.Internal.Correction>
0.1584

> <Gold.Rescore>
     Score         DG    S(hbond)    S(metal)    S(lipo)     H(rot)  DE(clash)    DE(int)     intcor
     12.36     -17.14       0.99        0.00     107.39       1.64       2.08       2.70       ----

> <Gold.Chemscore.Fitness>
12.3650

> <Gold.Chemscore.DG>
-17.1398

> <Gold.Chemscore.ZeroCoef>
-5.4800

> <Gold.Chemscore.Hbond>
0.9884

> <Gold.Chemscore.Metal>
0.0000

> <Gold.Chemscore.Lipo>
107.3906

> <Gold.Chemscore.Internal_Hbond>
0.0000

> <Gold.Chemscore.DEClash>
2.0768

> <Gold.Chemscore.DEInternal>
2.6980

> <Gold.Chemscore.Rot>
1.6431

> <Gold.Chemscore.Internal.Correction>
   9.000000E+99

> <Gold.Chemscore.Hbonds>
donor molecule, donor type, donor heavy atom, donor atom, acceptor molecule, acceptor atom, score
      P1  H  7997  8008       L1    15  0.96

> <Gold.Chemscore.Hbond.Weighted>
-3.3014

> <Gold.Chemscore.Metal.Weighted>
-0.0000

> <Gold.Chemscore.Lipo.Weighted>
-12.5647

> <Gold.Chemscore.Internal_Hbond.Weighted>
0.0000

> <Gold.Chemscore.DEClash.Weighted>
2.0768

> <Gold.Chemscore.DEInternal.Weighted>
2.6980

> <Gold.Chemscore.Rot.Weighted>
4.2063

> <Gold.Chemscore.Internal.Correction.Weighted>
   9.000000E+99

> <Gold.Protein.RotatedTorsions>
[ 6907 6896 6895 6894 ] final  105.40 input  -60.11 | X-H torsion
[ 7974 7965 7964 7962 ] final  -25.25 input  175.53 | X-H torsion
[ 8008 7997 7996 7995 ] final -132.53 input   59.86 | X-H torsion
[ 10167 10162 10161 10158 ] final -165.83 input  -65.29 | X-H torsion
[ 10718 10713 10712 10709 ] final  -55.43 input   66.30 | X-H torsion
[ 10763 10752 10751 10750 ] final   48.07 input  -60.55 | X-H torsion
[ 11005 11000 10999 10996 ] final  -75.64 input  -57.11 | X-H torsion

> <Gold.Protein.ActiveResidues>
 VAL166  LYS551  ARG553  GLY616  TRP617  ASP618  TYR619  PRO620  LYS621  CYS622 
 ASP623  PHE694  ASN695  SER759  ASP760  ASP761  ALA762  ILE779  LEU786  VAL792 
 PHE793  MET794  SER795  GLU796  ALA797  LYS798  CYS799  TRP800  GLU811  SER814 

> <Gold.Protein.RotatedAtoms>
  152.5231  133.9534  159.7682 H   0  0  0  0  0  0  0  0  0  0  0  0  # atno 6907 bound_to 6896
  150.9839  133.6209  159.2725 H   0  0  0  0  0  0  0  0  0  0  0  0  # atno 6908 bound_to 6896
  151.3376  135.0862  159.9413 H   0  0  0  0  0  0  0  0  0  0  0  0  # atno 6909 bound_to 6896
  146.1503  140.4861  142.8614 H   0  0  0  0  0  0  0  0  0  0  0  0  # atno 7974 bound_to 7965
  155.3305  140.0467  157.3042 H   0  0  0  0  0  0  0  0  0  0  0  0  # atno 8008 bound_to 7997
  154.5331  140.2263  155.8736 H   0  0  0  0  0  0  0  0  0  0  0  0  # atno 8009 bound_to 7997
  156.1808  140.3074  155.9151 H   0  0  0  0  0  0  0  0  0  0  0  0  # atno 8010 bound_to 7997
  139.6156  144.0727  152.1884 H   0  0  0  0  0  0  0  0  0  0  0  0  # atno 10167 bound_to 10162
  156.1369  130.4156  150.0170 H   0  0  0  0  0  0  0  0  0  0  0  0  # atno 10718 bound_to 10713
  152.9794  135.5956  154.3866 H   0  0  0  0  0  0  0  0  0  0  0  0  # atno 10763 bound_to 10752
  154.3526  135.2767  155.2365 H   0  0  0  0  0  0  0  0  0  0  0  0  # atno 10764 bound_to 10752
  154.4398  135.6016  153.6177 H   0  0  0  0  0  0  0  0  0  0  0  0  # atno 10765 bound_to 10752
  141.1647  133.6954  156.7547 H   0  0  0  0  0  0  0  0  0  0  0  0  # atno 11005 bound_to 11000
  144.7896  140.6005  143.6550 LP  0  0  0  0  0  0  0  0  0  0  0  0  # atno 17320 bound_to 7965
  145.4839  139.1493  143.3747 LP  0  0  0  0  0  0  0  0  0  0  0  0  # atno 17321 bound_to 7965
  140.0356  144.6047  150.7452 LP  0  0  0  0  0  0  0  0  0  0  0  0  # atno 17342 bound_to 10162
  140.7348  143.2734  151.3818 LP  0  0  0  0  0  0  0  0  0  0  0  0  # atno 17343 bound_to 10162
  156.8066  130.9310  151.3645 LP  0  0  0  0  0  0  0  0  0  0  0  0  # atno 17370 bound_to 10713
  157.6541  130.8909  149.9692 LP  0  0  0  0  0  0  0  0  0  0  0  0  # atno 17371 bound_to 10713
  140.2578  134.8490  157.3729 LP  0  0  0  0  0  0  0  0  0  0  0  0  # atno 17394 bound_to 11000
  140.1640  134.4692  155.7875 LP  0  0  0  0  0  0  0  0  0  0  0  0  # atno 17395 bound_to 11000

$$$$
