AV-unprocessed.smi:1863|AV-procd|sdf|7551|dock3
  -GOLD-   22720 9263D 1   1.00000     0.00000
 Structure written by MMmdl.
 37 38  0  0  0  0  0  0  0  0  1 V2000
  152.4628  144.4589  158.1301 C   0  0  0  0  0  0  0  0  0  0  0  0
  152.0503  143.0031  157.8725 C   0  0  1  0  0  0  0  0  0  0  0  0
  151.5209  142.3396  159.1649 C   0  0  0  0  0  0  0  0  0  0  0  0
  152.5834  141.7202  159.9557 N   0  0  0  0  0  0  0  0  0  0  0  0
  152.9760  142.2792  161.2390 C   0  0  0  0  0  0  0  0  0  0  0  0
  153.8720  141.2082  161.8758 C   0  0  0  0  0  0  0  0  0  0  0  0
  154.2801  140.2791  160.7278 C   0  0  0  0  0  0  0  0  0  0  0  0
  153.3010  140.6402  159.6235 C   0  0  0  0  0  0  0  0  0  0  0  0
  153.2034  139.9960  158.5800 O   0  0  0  0  0  0  0  0  0  0  0  0
  151.0237  142.9925  156.8314 N   0  0  0  0  0  0  0  0  0  0  0  0
  150.4686  141.8962  156.2938 C   0  0  0  0  0  0  0  0  0  0  0  0
  150.7762  140.7492  156.6169 O   0  0  0  0  0  0  0  0  0  0  0  0
  149.5256  142.2231  155.3940 N   0  0  0  0  0  0  0  0  0  0  0  0
  148.6834  141.3596  154.6428 C   0  0  0  0  0  0  0  0  0  0  0  0
  148.8754  139.9616  154.5246 C   0  0  0  0  0  0  0  0  0  0  0  0
  147.9777  139.2169  153.7354 C   0  0  0  0  0  0  0  0  0  0  0  0
  146.9274  139.8962  153.0881 C   0  0  0  0  0  0  0  0  0  0  0  0
  146.7407  141.2297  153.1810 N   0  0  0  0  0  0  0  0  0  0  0  0
  147.6056  141.9370  153.9386 C   0  0  0  0  0  0  0  0  0  0  0  0
  153.2513  144.5155  158.8812 H   0  0  0  0  0  0  0  0  0  0  0  0
  151.6213  145.0549  158.4860 H   0  0  0  0  0  0  0  0  0  0  0  0
  152.8430  144.9268  157.2214 H   0  0  0  0  0  0  0  0  0  0  0  0
  152.9405  142.4767  157.5242 H   0  0  0  0  0  0  0  0  0  0  0  0
  151.0323  143.0882  159.7907 H   0  0  0  0  0  0  0  0  0  0  0  0
  150.7535  141.6010  158.9281 H   0  0  0  0  0  0  0  0  0  0  0  0
  153.5300  143.2037  161.0711 H   0  0  0  0  0  0  0  0  0  0  0  0
  152.1113  142.5071  161.8633 H   0  0  0  0  0  0  0  0  0  0  0  0
  154.7347  141.6461  162.3784 H   0  0  0  0  0  0  0  0  0  0  0  0
  153.3070  140.6456  162.6204 H   0  0  0  0  0  0  0  0  0  0  0  0
  155.2970  140.4829  160.3911 H   0  0  0  0  0  0  0  0  0  0  0  0
  154.2032  139.2267  161.0022 H   0  0  0  0  0  0  0  0  0  0  0  0
  150.7028  143.8924  156.5056 H   0  0  0  0  0  0  0  0  0  0  0  0
  149.3361  143.2092  155.2898 H   0  0  0  0  0  0  0  0  0  0  0  0
  149.6939  139.4505  155.0064 H   0  0  0  0  0  0  0  0  0  0  0  0
  148.0951  138.1490  153.6249 H   0  0  0  0  0  0  0  0  0  0  0  0
  146.2225  139.3552  152.4744 H   0  0  0  0  0  0  0  0  0  0  0  0
  147.4271  143.0015  153.9872 H   0  0  0  0  0  0  0  0  0  0  0  0
  1  2  1  0  0  0  0
  1 20  1  0  0  0  0
  1 21  1  0  0  0  0
  1 22  1  0  0  0  0
  2  3  1  0  0  0  0
  2 10  1  0  0  0  0
  2 23  1  0  0  0  0
  3  4  1  0  0  0  0
  3 24  1  0  0  0  0
  3 25  1  0  0  0  0
  4  8  1  0  0  0  0
  4  5  1  0  0  0  0
  5  6  1  0  0  0  0
  5 26  1  0  0  0  0
  5 27  1  0  0  0  0
  6  7  1  0  0  0  0
  6 28  1  0  0  0  0
  6 29  1  0  0  0  0
  7  8  1  0  0  0  0
  7 30  1  0  0  0  0
  7 31  1  0  0  0  0
  8  9  2  0  0  0  0
 10 11  1  0  0  0  0
 10 32  1  0  0  0  0
 11 12  2  0  0  0  0
 11 13  1  0  0  0  0
 13 14  1  0  0  0  0
 13 33  1  0  0  0  0
 14 19  1  0  0  0  0
 14 15  2  0  0  0  0
 15 16  1  0  0  0  0
 15 34  1  0  0  0  0
 16 17  2  0  0  0  0
 16 35  1  0  0  0  0
 17 18  1  0  0  0  0
 17 36  1  0  0  0  0
 18 19  2  0  0  0  0
 19 37  1  0  0  0  0
M  END
> <s_m_source_file>
AV-unprocessed.smi

> <i_m_source_file_index>
1863

> <i_lp_mmshare_version>
43012

> <i_f3d_flags>
0

> <s_epik_input>
Tz1DMVtDSDJdW0NIMl1bQ0gyXU4xW0NIMl1bQ0BASF0oW0NIM10pW05IXUMoPU8pW05IXWMyW2NIXVtjSF1bY0hdbltjSF0y

> <s_epik_cmdline>
J2VwaWtfcHl0aG9uJywgJy1waCcsICc3LjAnLCAnLXRuJywgJzgnLCAnLW1hJywgJzIwMCcsICctbWV0YWxfYmluZGluZycsICctaW1hZScsICc8aW5maWxlLm1hZT4nLCAnLW9tYWUnLCAnPG91dGZpbGUubWFlPic=

> <r_epik_Ionization_Penalty>
0.0047799

> <r_epik_Ionization_Penalty_Charging>
0

> <r_epik_Ionization_Penalty_Neutral>
0.0047799

> <r_epik_State_Penalty>
0.0034394

> <r_epik_Charging_Adjusted_Penalty>
0.0034394

> <i_epik_Tot_Q>
0

> <i_epik_Tot_abs_Q>
0

> <r_epik_Metal_State_Penalty>
-0

> <b_epik_Metal_Only>
0

> <s_lp_Force_Field>
OPLS_2005

> <r_lp_Energy>
21.1293

> <b_lp_Chiralities_Consistent>
1

> <s_lp_Variant>
AV-unprocessed.smi:1863-2

> <Gold.Version>
5.8.1

> <Gold.Id.Protein>
6NUR|6NUR_protein|mol2

> <Gold.PLP.Fitness>
53.0354

> <Gold.PLP.PLP>
-44.8640

> <Gold.PLP.part.hbond>
-2.9647

> <Gold.PLP.part.metal>
0.0000

> <Gold.PLP.part.buried>
-2.9827

> <Gold.PLP.part.nonpolar>
-38.2881

> <Gold.PLP.part.repulsive>
0.4251

> <Gold.PLP.ligand.clash>
0.0000

> <Gold.PLP.ligand.torsion>
0.4638

> <Gold.PLP.Chemscore.Hbond>
2.5923

> <Gold.PLP.Chemscore.CHOScore>
0.4320

> <Gold.PLP.Chemscore.Metal>
0.0000

> <Gold.Chemscore.Hbonds>
donor molecule, donor type, donor heavy atom, donor atom, acceptor molecule, acceptor atom, score
      L1  H    10    32       P1  8028  0.54
      L1  H    13    33       P1  8028  1.00
      P1  H  7997  8008       L1     9  0.88
      L1  C    17    36       P1 10175  0.27
      L1  C    19    37       P1  8028  0.39

> <Gold.PLP.Chemscore.Internal.Correction>
0.0263

> <Gold.Rescore>
     Score         DG    S(hbond)    S(metal)    S(lipo)     H(rot)  DE(clash)    DE(int)     intcor
     20.14     -22.08       2.82        0.00      95.30       1.54       0.12       1.81       ----

> <Gold.Chemscore.Fitness>
20.1449

> <Gold.Chemscore.DG>
-22.0841

> <Gold.Chemscore.ZeroCoef>
-5.4800

> <Gold.Chemscore.Hbond>
2.8153

> <Gold.Chemscore.Metal>
0.0000

> <Gold.Chemscore.Lipo>
95.3040

> <Gold.Chemscore.Internal_Hbond>
0.0000

> <Gold.Chemscore.DEClash>
0.1247

> <Gold.Chemscore.DEInternal>
1.8146

> <Gold.Chemscore.Rot>
1.5428

> <Gold.Chemscore.Internal.Correction>
   9.000000E+99

> <Gold.Chemscore.Hbonds>
donor molecule, donor type, donor heavy atom, donor atom, acceptor molecule, acceptor atom, score
      L1  H    10    32       P1  8028  0.54
      L1  H    13    33       P1  8028  0.99
      P1  H  7997  8008       L1     9  0.82

> <Gold.Chemscore.Hbond.Weighted>
-9.4033

> <Gold.Chemscore.Metal.Weighted>
-0.0000

> <Gold.Chemscore.Lipo.Weighted>
-11.1506

> <Gold.Chemscore.Internal_Hbond.Weighted>
0.0000

> <Gold.Chemscore.DEClash.Weighted>
0.1247

> <Gold.Chemscore.DEInternal.Weighted>
1.8146

> <Gold.Chemscore.Rot.Weighted>
3.9497

> <Gold.Chemscore.Internal.Correction.Weighted>
   9.000000E+99

> <Gold.Protein.RotatedTorsions>
[ 6907 6896 6895 6894 ] final  148.58 input  -60.11 | X-H torsion
[ 7974 7965 7964 7962 ] final   61.11 input  175.53 | X-H torsion
[ 8008 7997 7996 7995 ] final  -92.39 input   59.86 | X-H torsion
[ 10167 10162 10161 10158 ] final   53.22 input  -65.29 | X-H torsion
[ 10718 10713 10712 10709 ] final  173.30 input   66.30 | X-H torsion
[ 10763 10752 10751 10750 ] final  -19.42 input  -60.55 | X-H torsion
[ 11005 11000 10999 10996 ] final  -93.15 input  -57.11 | X-H torsion

> <Gold.Protein.ActiveResidues>
 VAL166  LYS551  ARG553  GLY616  TRP617  ASP618  TYR619  PRO620  LYS621  CYS622 
 ASP623  PHE694  ASN695  SER759  ASP760  ASP761  ALA762  ILE779  LEU786  VAL792 
 PHE793  MET794  SER795  GLU796  ALA797  LYS798  CYS799  TRP800  GLU811  SER814 

> <Gold.Protein.RotatedAtoms>
  152.1395  133.4455  159.4759 H   0  0  0  0  0  0  0  0  0  0  0  0  # atno 6907 bound_to 6896
  150.6885  134.2323  159.4448 H   0  0  0  0  0  0  0  0  0  0  0  0  # atno 6908 bound_to 6896
  152.0212  134.9821  160.0621 H   0  0  0  0  0  0  0  0  0  0  0  0  # atno 6909 bound_to 6896
  145.8884  139.3493  143.0664 H   0  0  0  0  0  0  0  0  0  0  0  0  # atno 7974 bound_to 7965
  154.7225  140.0509  157.0653 H   0  0  0  0  0  0  0  0  0  0  0  0  # atno 8008 bound_to 7997
  155.0408  140.3168  155.4706 H   0  0  0  0  0  0  0  0  0  0  0  0  # atno 8009 bound_to 7997
  156.2820  140.2133  156.5532 H   0  0  0  0  0  0  0  0  0  0  0  0  # atno 8010 bound_to 7997
  140.2430  144.3562  150.6373 H   0  0  0  0  0  0  0  0  0  0  0  0  # atno 10167 bound_to 10162
  156.9663  131.0076  151.2915 H   0  0  0  0  0  0  0  0  0  0  0  0  # atno 10718 bound_to 10713
  153.6046  135.6998  153.5371 H   0  0  0  0  0  0  0  0  0  0  0  0  # atno 10763 bound_to 10752
  153.3068  135.4113  155.1300 H   0  0  0  0  0  0  0  0  0  0  0  0  # atno 10764 bound_to 10752
  154.8576  135.3662  154.5582 H   0  0  0  0  0  0  0  0  0  0  0  0  # atno 10765 bound_to 10752
  141.1504  133.7868  157.0119 H   0  0  0  0  0  0  0  0  0  0  0  0  # atno 11005 bound_to 11000
  145.8938  140.9287  143.0538 LP  0  0  0  0  0  0  0  0  0  0  0  0  # atno 17320 bound_to 7965
  144.6729  140.0941  143.7464 LP  0  0  0  0  0  0  0  0  0  0  0  0  # atno 17321 bound_to 7965
  140.6099  143.2169  151.6907 LP  0  0  0  0  0  0  0  0  0  0  0  0  # atno 17342 bound_to 10162
  139.5071  144.3659  152.0518 LP  0  0  0  0  0  0  0  0  0  0  0  0  # atno 17343 bound_to 10162
  157.5623  130.8254  149.8282 LP  0  0  0  0  0  0  0  0  0  0  0  0  # atno 17370 bound_to 10713
  156.0301  130.3767  150.1712 LP  0  0  0  0  0  0  0  0  0  0  0  0  # atno 17371 bound_to 10713
  140.0872  134.9614  157.1718 LP  0  0  0  0  0  0  0  0  0  0  0  0  # atno 17394 bound_to 11000
  140.3495  134.2614  155.7200 LP  0  0  0  0  0  0  0  0  0  0  0  0  # atno 17395 bound_to 11000

$$$$
