AV-unprocessed.smi:1739|AV-procd|sdf|7005|dock9
  -GOLD-   22720 8213D 1   1.00000     0.00000
 Structure written by MMmdl.
 41 42  0  0  0  0  0  0  0  0  1 V2000
  146.1858  137.6013  151.0935 C   0  0  0  0  0  0  0  0  0  0  0  0
  146.7646  138.9670  151.4839 C   0  0  0  0  0  0  0  0  0  0  0  0
  146.9989  139.0697  152.9116 N   0  0  0  0  0  0  0  0  0  0  0  0
  147.9084  139.8721  153.5719 C   0  0  0  0  0  0  0  0  0  0  0  0
  147.7363  139.6095  154.9017 C   0  0  0  0  0  0  0  0  0  0  0  0
  148.4159  140.1523  156.0216 N   0  0  0  0  0  0  0  0  0  0  0  0
  149.6771  140.6121  156.0654 C   0  0  0  0  0  0  0  0  0  0  0  0
  150.4444  140.6656  155.1040 O   0  0  0  0  0  0  0  0  0  0  0  0
  150.0055  141.0176  157.3006 N   0  0  0  0  0  0  0  0  0  0  0  0
  151.2996  141.5703  157.6892 C   0  0  0  0  0  0  0  0  0  0  0  0
  152.0154  140.5953  158.6485 C   0  0  0  0  0  0  0  0  0  0  0  0
  153.2962  141.2224  159.2283 C   0  0  0  0  0  0  0  0  0  0  0  0
  152.9463  142.4853  159.8890 N   0  0  0  0  0  0  0  0  0  0  0  0
  152.9654  142.6371  161.2351 C   0  0  0  0  0  0  0  0  0  0  0  0
  152.4977  143.9599  161.8461 C   0  0  0  0  0  0  0  0  0  0  0  0
  153.3412  141.7483  161.9997 O   0  0  0  0  0  0  0  0  0  0  0  0
  152.4464  143.4767  158.9284 C   0  0  0  0  0  0  0  0  0  0  0  0
  151.1234  142.9660  158.3305 C   0  0  0  0  0  0  0  0  0  0  0  0
  146.7053  138.6371  154.9739 C   0  0  0  0  0  0  0  0  0  0  0  0
  146.2621  138.3180  153.7673 N   0  0  0  0  0  0  0  0  0  0  0  0
  146.0364  137.5385  150.0155 H   0  0  0  0  0  0  0  0  0  0  0  0
  145.2212  137.4280  151.5719 H   0  0  0  0  0  0  0  0  0  0  0  0
  146.8558  136.7922  151.3847 H   0  0  0  0  0  0  0  0  0  0  0  0
  147.7076  139.1362  150.9627 H   0  0  0  0  0  0  0  0  0  0  0  0
  146.0875  139.7670  151.1822 H   0  0  0  0  0  0  0  0  0  0  0  0
  148.5768  140.5362  153.0441 H   0  0  0  0  0  0  0  0  0  0  0  0
  147.8888  140.1856  156.8819 H   0  0  0  0  0  0  0  0  0  0  0  0
  149.3096  140.9379  158.0277 H   0  0  0  0  0  0  0  0  0  0  0  0
  151.9274  141.6767  156.8023 H   0  0  0  0  0  0  0  0  0  0  0  0
  151.3488  140.3255  159.4694 H   0  0  0  0  0  0  0  0  0  0  0  0
  152.2576  139.6676  158.1287 H   0  0  0  0  0  0  0  0  0  0  0  0
  153.7857  140.5150  159.8990 H   0  0  0  0  0  0  0  0  0  0  0  0
  154.0135  141.4178  158.4300 H   0  0  0  0  0  0  0  0  0  0  0  0
  151.4673  144.1755  161.5613 H   0  0  0  0  0  0  0  0  0  0  0  0
  153.1360  144.7824  161.5223 H   0  0  0  0  0  0  0  0  0  0  0  0
  152.5394  143.9157  162.9349 H   0  0  0  0  0  0  0  0  0  0  0  0
  152.3018  144.4671  159.3574 H   0  0  0  0  0  0  0  0  0  0  0  0
  153.1841  143.6099  158.1356 H   0  0  0  0  0  0  0  0  0  0  0  0
  150.7528  143.6761  157.5902 H   0  0  0  0  0  0  0  0  0  0  0  0
  150.3701  142.9197  159.1187 H   0  0  0  0  0  0  0  0  0  0  0  0
  146.2719  138.1625  155.8419 H   0  0  0  0  0  0  0  0  0  0  0  0
  1  2  1  0  0  0  0
  1 21  1  0  0  0  0
  1 22  1  0  0  0  0
  1 23  1  0  0  0  0
  2  3  1  0  0  0  0
  2 24  1  0  0  0  0
  2 25  1  0  0  0  0
  3 20  1  0  0  0  0
  3  4  1  0  0  0  0
  4  5  2  0  0  0  0
  4 26  1  0  0  0  0
  5  6  1  0  0  0  0
  5 19  1  0  0  0  0
  6  7  1  0  0  0  0
  6 27  1  0  0  0  0
  7  8  2  0  0  0  0
  7  9  1  0  0  0  0
  9 10  1  0  0  0  0
  9 28  1  0  0  0  0
 10 18  1  0  0  0  0
 10 11  1  0  0  0  0
 10 29  1  0  0  0  0
 11 12  1  0  0  0  0
 11 30  1  0  0  0  0
 11 31  1  0  0  0  0
 12 13  1  0  0  0  0
 12 32  1  0  0  0  0
 12 33  1  0  0  0  0
 13 14  1  0  0  0  0
 13 17  1  0  0  0  0
 14 15  1  0  0  0  0
 14 16  2  0  0  0  0
 15 34  1  0  0  0  0
 15 35  1  0  0  0  0
 15 36  1  0  0  0  0
 17 18  1  0  0  0  0
 17 37  1  0  0  0  0
 17 38  1  0  0  0  0
 18 39  1  0  0  0  0
 18 40  1  0  0  0  0
 19 20  2  0  0  0  0
 19 41  1  0  0  0  0
M  END
> <s_m_source_file>
AV-unprocessed.smi

> <i_m_source_file_index>
1739

> <i_lp_mmshare_version>
43012

> <i_f3d_flags>
0

> <s_epik_input>
W0NIM11bQ0gyXW4xW2NIXWMoW2NIXW4xKVtOSF1DKD1PKVtOSF1bQ0hdMltDSDJdW0NIMl1OKEMoPU8pW0NIM10pW0NIMl1bQ0gyXTI=

> <s_epik_cmdline>
J2VwaWtfcHl0aG9uJywgJy1waCcsICc3LjAnLCAnLXRuJywgJzgnLCAnLW1hJywgJzIwMCcsICctbWV0YWxfYmluZGluZycsICctaW1hZScsICc8aW5maWxlLm1hZT4nLCAnLW9tYWUnLCAnPG91dGZpbGUubWFlPic=

> <r_lp_tautomer_probability>
1

> <r_epik_Ionization_Penalty>
0.000185887

> <r_epik_Ionization_Penalty_Charging>
0

> <r_epik_Ionization_Penalty_Neutral>
0.000185887

> <r_epik_State_Penalty>
-0

> <r_epik_Charging_Adjusted_Penalty>
0

> <i_epik_Tot_Q>
0

> <i_epik_Tot_abs_Q>
0

> <r_epik_Metal_State_Penalty>
-0

> <b_epik_Metal_Only>
0

> <s_lp_Force_Field>
OPLS_2005

> <r_lp_Energy>
25.6807

> <b_lp_Chiralities_Consistent>
1

> <s_lp_Variant>
AV-unprocessed.smi:1739-1

> <Gold.Version>
5.8.1

> <Gold.Id.Protein>
6NUR|6NUR_protein|mol2

> <Gold.PLP.Fitness>
40.2610

> <Gold.PLP.PLP>
-36.0870

> <Gold.PLP.part.hbond>
-1.0000

> <Gold.PLP.part.metal>
0.0000

> <Gold.PLP.part.buried>
2.5740

> <Gold.PLP.part.nonpolar>
-36.3551

> <Gold.PLP.part.repulsive>
0.3213

> <Gold.PLP.ligand.clash>
0.0000

> <Gold.PLP.ligand.torsion>
0.5725

> <Gold.PLP.Chemscore.Hbond>
0.8960

> <Gold.PLP.Chemscore.CHOScore>
0.8708

> <Gold.PLP.Chemscore.Metal>
0.0000

> <Gold.Chemscore.Hbonds>
donor molecule, donor type, donor heavy atom, donor atom, acceptor molecule, acceptor atom, score
      P1  H  7989  7998       L1     8  0.91
      L1  C     4    26       P1  7957  0.90

> <Gold.PLP.Chemscore.Internal.Correction>
0.0185

> <Gold.Rescore>
     Score         DG    S(hbond)    S(metal)    S(lipo)     H(rot)  DE(clash)    DE(int)     intcor
     13.20     -16.02       0.89        0.00      91.29       1.22       2.17       0.65       ----

> <Gold.Chemscore.Fitness>
13.2017

> <Gold.Chemscore.DG>
-16.0228

> <Gold.Chemscore.ZeroCoef>
-5.4800

> <Gold.Chemscore.Hbond>
0.8913

> <Gold.Chemscore.Metal>
0.0000

> <Gold.Chemscore.Lipo>
91.2856

> <Gold.Chemscore.Internal_Hbond>
0.0000

> <Gold.Chemscore.DEClash>
2.1718

> <Gold.Chemscore.DEInternal>
0.6493

> <Gold.Chemscore.Rot>
1.2166

> <Gold.Chemscore.Internal.Correction>
   9.000000E+99

> <Gold.Chemscore.Hbonds>
donor molecule, donor type, donor heavy atom, donor atom, acceptor molecule, acceptor atom, score
      P1  H  7989  7998       L1     8  0.85

> <Gold.Chemscore.Hbond.Weighted>
-2.9769

> <Gold.Chemscore.Metal.Weighted>
-0.0000

> <Gold.Chemscore.Lipo.Weighted>
-10.6804

> <Gold.Chemscore.Internal_Hbond.Weighted>
0.0000

> <Gold.Chemscore.DEClash.Weighted>
2.1718

> <Gold.Chemscore.DEInternal.Weighted>
0.6493

> <Gold.Chemscore.Rot.Weighted>
3.1145

> <Gold.Chemscore.Internal.Correction.Weighted>
   9.000000E+99

> <Gold.Protein.RotatedTorsions>
[ 6907 6896 6895 6894 ] final  -27.02 input  -60.11 | X-H torsion
[ 7974 7965 7964 7962 ] final  -37.57 input  175.53 | X-H torsion
[ 8008 7997 7996 7995 ] final   77.22 input   59.86 | X-H torsion
[ 10167 10162 10161 10158 ] final   27.44 input  -65.29 | X-H torsion
[ 10718 10713 10712 10709 ] final    8.23 input   66.30 | X-H torsion
[ 10763 10752 10751 10750 ] final  -24.10 input  -60.55 | X-H torsion
[ 11005 11000 10999 10996 ] final   15.39 input  -57.11 | X-H torsion

> <Gold.Protein.ActiveResidues>
 VAL166  LYS551  ARG553  GLY616  TRP617  ASP618  TYR619  PRO620  LYS621  CYS622 
 ASP623  PHE694  ASN695  SER759  ASP760  ASP761  ALA762  ILE779  LEU786  VAL792 
 PHE793  MET794  SER795  GLU796  ALA797  LYS798  CYS799  TRP800  GLU811  SER814 

> <Gold.Protein.RotatedAtoms>
  151.1528  135.0235  159.8675 H   0  0  0  0  0  0  0  0  0  0  0  0  # atno 6907 bound_to 6896
  152.5452  134.1369  159.8473 H   0  0  0  0  0  0  0  0  0  0  0  0  # atno 6908 bound_to 6896
  151.1456  133.4896  159.2628 H   0  0  0  0  0  0  0  0  0  0  0  0  # atno 6909 bound_to 6896
  146.0563  140.6411  142.9018 H   0  0  0  0  0  0  0  0  0  0  0  0  # atno 7974 bound_to 7965
  155.8384  140.3463  155.5616 H   0  0  0  0  0  0  0  0  0  0  0  0  # atno 8008 bound_to 7997
  155.8166  140.0907  157.1893 H   0  0  0  0  0  0  0  0  0  0  0  0  # atno 8009 bound_to 7997
  154.4004  140.1438  156.3438 H   0  0  0  0  0  0  0  0  0  0  0  0  # atno 8010 bound_to 7997
  140.4938  144.0424  150.6307 H   0  0  0  0  0  0  0  0  0  0  0  0  # atno 10167 bound_to 10162
  156.9486  130.5888  149.5655 H   0  0  0  0  0  0  0  0  0  0  0  0  # atno 10718 bound_to 10713
  153.6784  135.6968  153.5125 H   0  0  0  0  0  0  0  0  0  0  0  0  # atno 10763 bound_to 10752
  153.2504  135.4277  155.0791 H   0  0  0  0  0  0  0  0  0  0  0  0  # atno 10764 bound_to 10752
  154.8407  135.3530  154.6327 H   0  0  0  0  0  0  0  0  0  0  0  0  # atno 10765 bound_to 10752
  140.4589  134.1148  155.7713 H   0  0  0  0  0  0  0  0  0  0  0  0  # atno 11005 bound_to 11000
  144.7150  140.4176  143.7051 LP  0  0  0  0  0  0  0  0  0  0  0  0  # atno 17320 bound_to 7965
  145.6638  139.1586  143.2793 LP  0  0  0  0  0  0  0  0  0  0  0  0  # atno 17321 bound_to 7965
  140.3701  143.2859  152.0288 LP  0  0  0  0  0  0  0  0  0  0  0  0  # atno 17342 bound_to 10162
  139.4857  144.6237  151.7206 LP  0  0  0  0  0  0  0  0  0  0  0  0  # atno 17343 bound_to 10162
  156.0373  130.5459  150.8684 LP  0  0  0  0  0  0  0  0  0  0  0  0  # atno 17370 bound_to 10713
  157.5737  131.0946  150.9378 LP  0  0  0  0  0  0  0  0  0  0  0  0  # atno 17371 bound_to 10713
  141.1630  133.8756  157.1794 LP  0  0  0  0  0  0  0  0  0  0  0  0  # atno 17394 bound_to 11000
  139.9958  135.0047  157.0079 LP  0  0  0  0  0  0  0  0  0  0  0  0  # atno 17395 bound_to 11000

$$$$
