AV-unprocessed.smi:223|AV-procd|sdf|1706|dock4
  -GOLD-   2262020163D 1   1.00000     0.00000
 Structure written by MMmdl.
 47 50  0  0  0  0  0  0  0  0  1 V2000
  151.3160  145.4350  159.5652 C   0  0  0  0  0  0  0  0  0  0  0  0
  152.2715  144.2364  159.5333 C   0  0  1  0  0  0  0  0  0  0  0  0
  152.0602  143.3798  160.7119 C   0  0  0  0  0  0  0  0  0  0  0  0
  151.8945  142.7079  161.6393 N   0  0  0  0  0  0  0  0  0  0  0  0
  152.1383  143.4584  158.2077 C   0  0  0  0  0  0  0  0  0  0  0  0
  151.5514  142.1266  158.3572 N   0  0  0  0  0  0  0  0  0  0  0  0
  150.3307  141.9181  157.7916 C   0  0  0  0  0  0  0  0  0  0  0  0
  149.2104  142.1581  158.5252 N   0  0  0  0  0  0  0  0  0  0  0  0
  147.9982  141.9437  158.0074 C   0  0  0  0  0  0  0  0  0  0  0  0
  147.6786  141.4997  156.7916 N   0  0  0  0  0  0  0  0  0  0  0  0
  148.7931  141.2661  156.0423 C   0  0  0  0  0  0  0  0  0  0  0  0
  150.1440  141.4420  156.4600 C   0  0  0  0  0  0  0  0  0  0  0  0
  151.0009  141.1005  155.4195 N   0  0  0  0  0  0  0  0  0  0  0  0
  150.2064  140.7372  154.4510 C   0  0  0  0  0  0  0  0  0  0  0  0
  148.8621  140.8178  154.7342 N   0  0  0  0  0  0  0  0  0  0  0  0
  147.7597  140.4860  153.8434 C   0  0  0  0  0  0  0  0  0  0  0  0
  147.6130  138.9684  153.5715 C   0  0  2  0  0  0  0  0  0  0  0  0
  148.8289  138.4772  153.0375 O   0  0  0  0  0  0  0  0  0  0  0  0
  146.4777  138.6569  152.5934 C   0  0  0  0  0  0  0  0  0  0  0  0
  145.4128  138.0107  153.4715 C   0  0  0  0  0  0  0  0  0  0  0  0
  146.1853  137.2927  154.4164 O   0  0  0  0  0  0  0  0  0  0  0  0
  147.2436  138.1477  154.8235 C   0  0  0  0  0  0  0  0  0  0  0  0
  152.4702  140.9941  158.4500 C   0  0  0  0  0  0  0  0  0  0  0  0
  152.0131  139.7308  159.1450 C   0  0  0  0  0  0  0  0  0  0  0  0
  153.0342  140.6283  159.8028 C   0  0  0  0  0  0  0  0  0  0  0  0
  151.4356  146.0054  160.4867 H   0  0  0  0  0  0  0  0  0  0  0  0
  150.2761  145.1124  159.5057 H   0  0  0  0  0  0  0  0  0  0  0  0
  151.5063  146.1106  158.7311 H   0  0  0  0  0  0  0  0  0  0  0  0
  153.2860  144.6252  159.6216 H   0  0  0  0  0  0  0  0  0  0  0  0
  151.5169  144.0345  157.5211 H   0  0  0  0  0  0  0  0  0  0  0  0
  153.1058  143.3783  157.7149 H   0  0  0  0  0  0  0  0  0  0  0  0
  147.1657  142.1570  158.6615 H   0  0  0  0  0  0  0  0  0  0  0  0
  150.5839  140.4036  153.4955 H   0  0  0  0  0  0  0  0  0  0  0  0
  146.8405  140.8777  154.2811 H   0  0  0  0  0  0  0  0  0  0  0  0
  147.9034  141.0254  152.9061 H   0  0  0  0  0  0  0  0  0  0  0  0
  149.1700  139.1174  152.4321 H   0  0  0  0  0  0  0  0  0  0  0  0
  146.1028  139.5356  152.0672 H   0  0  0  0  0  0  0  0  0  0  0  0
  146.7973  137.9366  151.8383 H   0  0  0  0  0  0  0  0  0  0  0  0
  144.8122  138.7659  153.9811 H   0  0  0  0  0  0  0  0  0  0  0  0
  144.7451  137.3546  152.9127 H   0  0  0  0  0  0  0  0  0  0  0  0
  148.0781  137.5805  155.2379 H   0  0  0  0  0  0  0  0  0  0  0  0
  146.8561  138.7896  155.6151 H   0  0  0  0  0  0  0  0  0  0  0  0
  153.1352  140.8507  157.6009 H   0  0  0  0  0  0  0  0  0  0  0  0
  151.0104  139.7169  159.5682 H   0  0  0  0  0  0  0  0  0  0  0  0
  152.3612  138.7833  158.7393 H   0  0  0  0  0  0  0  0  0  0  0  0
  154.0642  140.2797  159.8374 H   0  0  0  0  0  0  0  0  0  0  0  0
  152.7091  141.2091  160.6639 H   0  0  0  0  0  0  0  0  0  0  0  0
  1  2  1  0  0  0  0
  1 26  1  0  0  0  0
  1 27  1  0  0  0  0
  1 28  1  0  0  0  0
  2  3  1  0  0  0  0
  2  5  1  0  0  0  0
  2 29  1  0  0  0  0
  3  4  3  0  0  0  0
  5  6  1  0  0  0  0
  5 30  1  0  0  0  0
  5 31  1  0  0  0  0
  6  7  1  0  0  0  0
  6 23  1  0  0  0  0
  7 12  1  0  0  0  0
  7  8  2  0  0  0  0
  8  9  1  0  0  0  0
  9 10  2  0  0  0  0
  9 32  1  0  0  0  0
 10 11  1  0  0  0  0
 11 15  1  0  0  0  0
 11 12  2  0  0  0  0
 12 13  1  0  0  0  0
 13 14  2  0  0  0  0
 14 15  1  0  0  0  0
 14 33  1  0  0  0  0
 15 16  1  0  0  0  0
 16 17  1  0  0  0  0
 16 34  1  0  0  0  0
 16 35  1  0  0  0  0
 17 22  1  0  0  0  0
 17 18  1  0  0  0  0
 17 19  1  0  0  0  0
 18 36  1  0  0  0  0
 19 20  1  0  0  0  0
 19 37  1  0  0  0  0
 19 38  1  0  0  0  0
 20 21  1  0  0  0  0
 20 39  1  0  0  0  0
 20 40  1  0  0  0  0
 21 22  1  0  0  0  0
 22 41  1  0  0  0  0
 22 42  1  0  0  0  0
 23 25  1  0  0  0  0
 23 24  1  0  0  0  0
 23 43  1  0  0  0  0
 24 25  1  0  0  0  0
 24 44  1  0  0  0  0
 24 45  1  0  0  0  0
 25 46  1  0  0  0  0
 25 47  1  0  0  0  0
M  END
> <s_m_source_file>
AV-unprocessed.smi

> <i_m_source_file_index>
223

> <i_lp_mmshare_version>
43012

> <i_f3d_flags>
0

> <s_epik_input>
TiNDW0NAQEhdKFtDSDNdKVtDSDJdTihbQ0hdMVtDSDJdW0NIMl0xKWMobltjSF1uMiljKGMyMyluW2NIXW4zW0NIMl1bQ0BAXTQoW09IXSlbQ0gyXVtDSDJdT1tDSDJdNA==

> <s_epik_cmdline>
J2VwaWtfcHl0aG9uJywgJy1waCcsICc3LjAnLCAnLXRuJywgJzgnLCAnLW1hJywgJzIwMCcsICctbWV0YWxfYmluZGluZycsICctaW1hZScsICc8aW5maWxlLm1hZT4nLCAnLW9tYWUnLCAnPG91dGZpbGUubWFlPic=

> <r_lp_tautomer_probability>
1

> <r_epik_Ionization_Penalty>
0.000756152

> <r_epik_Ionization_Penalty_Charging>
0

> <r_epik_Ionization_Penalty_Neutral>
0.000756152

> <r_epik_State_Penalty>
0.00038036

> <r_epik_Charging_Adjusted_Penalty>
0.00038036

> <i_epik_Tot_Q>
0

> <i_epik_Tot_abs_Q>
0

> <r_epik_Metal_State_Penalty>
-0

> <b_epik_Metal_Only>
0

> <s_lp_Force_Field>
OPLS_2005

> <r_lp_Energy>
37.1983

> <b_lp_Chiralities_Consistent>
1

> <s_lp_Variant>
AV-unprocessed.smi:223-4

> <Gold.Version>
5.8.1

> <Gold.Id.Protein>
6NUR|6NUR_protein|mol2

> <Gold.PLP.Fitness>
45.7396

> <Gold.PLP.PLP>
-41.8063

> <Gold.PLP.part.hbond>
-4.0560

> <Gold.PLP.part.metal>
0.0000

> <Gold.PLP.part.buried>
-0.7276

> <Gold.PLP.part.nonpolar>
-37.3156

> <Gold.PLP.part.repulsive>
0.4520

> <Gold.PLP.ligand.clash>
0.0000

> <Gold.PLP.ligand.torsion>
2.6733

> <Gold.PLP.Chemscore.Hbond>
1.6201

> <Gold.PLP.Chemscore.CHOScore>
0.9983

> <Gold.PLP.Chemscore.Metal>
0.0000

> <Gold.Chemscore.Hbonds>
donor molecule, donor type, donor heavy atom, donor atom, acceptor molecule, acceptor atom, score
      L1  H    18    36       P1  7957  1.00
      P1  H  6933  6945       L1     4  0.48
      L1  C    14    33       P1  7957  0.97

> <Gold.PLP.Chemscore.Internal.Correction>
1.4248

> <Gold.Rescore>
     Score         DG    S(hbond)    S(metal)    S(lipo)     H(rot)  DE(clash)    DE(int)     intcor
      9.78     -14.48       1.81        0.00      84.86       2.72       1.94       2.76       ----

> <Gold.Chemscore.Fitness>
9.7765

> <Gold.Chemscore.DG>
-14.4839

> <Gold.Chemscore.ZeroCoef>
-5.4800

> <Gold.Chemscore.Hbond>
1.8057

> <Gold.Chemscore.Metal>
0.0000

> <Gold.Chemscore.Lipo>
84.8605

> <Gold.Chemscore.Internal_Hbond>
0.0000

> <Gold.Chemscore.DEClash>
1.9446

> <Gold.Chemscore.DEInternal>
2.7628

> <Gold.Chemscore.Rot>
2.7171

> <Gold.Chemscore.Internal.Correction>
   9.000000E+99

> <Gold.Chemscore.Hbonds>
donor molecule, donor type, donor heavy atom, donor atom, acceptor molecule, acceptor atom, score
      L1  H    18    36       P1  7957  0.98
      P1  H  6933  6945       L1     4  0.48

> <Gold.Chemscore.Hbond.Weighted>
-6.0310

> <Gold.Chemscore.Metal.Weighted>
-0.0000

> <Gold.Chemscore.Lipo.Weighted>
-9.9287

> <Gold.Chemscore.Internal_Hbond.Weighted>
0.0000

> <Gold.Chemscore.DEClash.Weighted>
1.9446

> <Gold.Chemscore.DEInternal.Weighted>
2.7628

> <Gold.Chemscore.Rot.Weighted>
6.9558

> <Gold.Chemscore.Internal.Correction.Weighted>
   9.000000E+99

> <Gold.Protein.RotatedTorsions>
[ 6907 6896 6895 6894 ] final  -27.26 input  -60.11 | X-H torsion
[ 7974 7965 7964 7962 ] final -155.17 input  175.53 | X-H torsion
[ 8008 7997 7996 7995 ] final -161.33 input   59.86 | X-H torsion
[ 10167 10162 10161 10158 ] final -151.62 input  -65.29 | X-H torsion
[ 10718 10713 10712 10709 ] final   38.82 input   66.30 | X-H torsion
[ 10763 10752 10751 10750 ] final -177.09 input  -60.55 | X-H torsion
[ 11005 11000 10999 10996 ] final -110.16 input  -57.11 | X-H torsion

> <Gold.Protein.ActiveResidues>
 VAL166  LYS551  ARG553  GLY616  TRP617  ASP618  TYR619  PRO620  LYS621  CYS622 
 ASP623  PHE694  ASN695  SER759  ASP760  ASP761  ALA762  ILE779  LEU786  VAL792 
 PHE793  MET794  SER795  GLU796  ALA797  LYS798  CYS799  TRP800  GLU811  SER814 

> <Gold.Protein.RotatedAtoms>
  151.1493  135.0219  159.8660 H   0  0  0  0  0  0  0  0  0  0  0  0  # atno 6907 bound_to 6896
  152.5453  134.1407  159.8488 H   0  0  0  0  0  0  0  0  0  0  0  0  # atno 6908 bound_to 6896
  151.1490  133.4874  159.2628 H   0  0  0  0  0  0  0  0  0  0  0  0  # atno 6909 bound_to 6896
  144.7653  140.4286  143.5946 H   0  0  0  0  0  0  0  0  0  0  0  0  # atno 7974 bound_to 7965
  155.7907  140.0878  157.2010 H   0  0  0  0  0  0  0  0  0  0  0  0  # atno 8008 bound_to 7997
  154.3985  140.1490  156.3217 H   0  0  0  0  0  0  0  0  0  0  0  0  # atno 8009 bound_to 7997
  155.8562  140.3432  155.5728 H   0  0  0  0  0  0  0  0  0  0  0  0  # atno 8010 bound_to 7997
  139.7251  143.8895  152.2516 H   0  0  0  0  0  0  0  0  0  0  0  0  # atno 10167 bound_to 10162
  157.3633  130.7661  149.7064 H   0  0  0  0  0  0  0  0  0  0  0  0  # atno 10718 bound_to 10713
  154.5644  135.2823  155.0888 H   0  0  0  0  0  0  0  0  0  0  0  0  # atno 10763 bound_to 10752
  154.2284  135.6378  153.5171 H   0  0  0  0  0  0  0  0  0  0  0  0  # atno 10764 bound_to 10752
  153.0038  135.5531  154.6248 H   0  0  0  0  0  0  0  0  0  0  0  0  # atno 10765 bound_to 10752
  141.0807  133.9224  157.2293 H   0  0  0  0  0  0  0  0  0  0  0  0  # atno 11005 bound_to 11000
  145.6490  139.1562  143.2873 LP  0  0  0  0  0  0  0  0  0  0  0  0  # atno 17320 bound_to 7965
  146.1754  140.6580  142.9213 LP  0  0  0  0  0  0  0  0  0  0  0  0  # atno 17321 bound_to 7965
  139.8803  144.7021  150.8886 LP  0  0  0  0  0  0  0  0  0  0  0  0  # atno 17342 bound_to 10162
  140.7761  143.3667  151.1726 LP  0  0  0  0  0  0  0  0  0  0  0  0  # atno 17343 bound_to 10162
  155.9741  130.4107  150.3946 LP  0  0  0  0  0  0  0  0  0  0  0  0  # atno 17370 bound_to 10713
  157.2027  131.0442  151.2642 LP  0  0  0  0  0  0  0  0  0  0  0  0  # atno 17371 bound_to 10713
  139.9621  135.0151  156.9290 LP  0  0  0  0  0  0  0  0  0  0  0  0  # atno 17394 bound_to 11000
  140.5474  134.0661  155.7359 LP  0  0  0  0  0  0  0  0  0  0  0  0  # atno 17395 bound_to 11000

$$$$
