AV-unprocessed.smi:2031|AV-procd|sdf|8228|dock2
  -GOLD-   2272010493D 1   1.00000     0.00000
 Structure written by MMmdl.
 42 43  0  0  0  0  0  0  0  0  2 V2000
  150.3556  142.4878  157.6152 C   0  0  0  0  0  0  0  0  0  0  0  0
  150.2076  141.5971  156.4297 C   0  0  0  0  0  0  0  0  0  0  0  0
  149.1591  141.3260  155.5968 C   0  0  0  0  0  0  0  0  0  0  0  0
  149.7138  140.3845  154.6814 C   0  0  0  0  0  0  0  0  0  0  0  0
  149.0386  139.7694  153.5955 N   0  0  0  0  0  0  0  0  0  0  0  0
  147.8163  139.2119  153.5818 C   0  0  0  0  0  0  0  0  0  0  0  0
  147.0524  139.1404  154.5446 O   0  0  0  0  0  0  0  0  0  0  0  0
  147.5102  138.7356  152.3662 N   0  0  0  0  0  0  0  0  0  0  0  0
  146.2524  138.0819  152.0227 C   0  0  0  0  0  0  0  0  0  0  0  0
  145.8465  137.0470  153.0915 C   0  0  0  0  0  0  0  0  0  0  0  0
  146.1217  135.6435  152.6828 N   0  3  0  0  0  0  0  0  0  0  0  0
  145.1990  135.1746  151.6149 C   0  0  0  0  0  0  0  0  0  0  0  0
  145.9501  134.3278  150.5732 C   0  0  0  0  0  0  0  0  0  0  0  0
  146.2223  132.8803  151.0050 C   0  0  0  0  0  0  0  0  0  0  0  0
  146.9970  132.7508  152.3254 C   0  0  0  0  0  0  0  0  0  0  0  0
  146.1704  133.2141  153.5350 C   0  0  0  0  0  0  0  0  0  0  0  0
  146.2577  134.7218  153.8479 C   0  0  0  0  0  0  0  0  0  0  0  0
  150.9793  140.1103  154.9381 N   0  0  0  0  0  0  0  0  0  0  0  0
  151.3048  140.8839  156.0583 O   0  0  0  0  0  0  0  0  0  0  0  0
  149.5221  143.1873  157.6824 H   0  0  0  0  0  0  0  0  0  0  0  0
  151.2778  143.0664  157.5539 H   0  0  0  0  0  0  0  0  0  0  0  0
  150.3819  141.9038  158.5351 H   0  0  0  0  0  0  0  0  0  0  0  0
  148.1650  141.7429  155.6509 H   0  0  0  0  0  0  0  0  0  0  0  0
  149.5479  139.7591  152.7241 H   0  0  0  0  0  0  0  0  0  0  0  0
  148.1934  138.8315  151.6287 H   0  0  0  0  0  0  0  0  0  0  0  0
  145.4825  138.8491  151.9346 H   0  0  0  0  0  0  0  0  0  0  0  0
  146.3523  137.6244  151.0377 H   0  0  0  0  0  0  0  0  0  0  0  0
  146.3474  137.2484  154.0399 H   0  0  0  0  0  0  0  0  0  0  0  0
  144.7776  137.1674  153.2737 H   0  0  0  0  0  0  0  0  0  0  0  0
  144.3343  134.6534  152.0276 H   0  0  0  0  0  0  0  0  0  0  0  0
  144.7892  136.0328  151.0812 H   0  0  0  0  0  0  0  0  0  0  0  0
  145.3587  134.2979  149.6572 H   0  0  0  0  0  0  0  0  0  0  0  0
  146.8863  134.8186  150.3037 H   0  0  0  0  0  0  0  0  0  0  0  0
  145.2780  132.3395  151.0814 H   0  0  0  0  0  0  0  0  0  0  0  0
  146.7848  132.3820  150.2148 H   0  0  0  0  0  0  0  0  0  0  0  0
  147.2468  131.6982  152.4630 H   0  0  0  0  0  0  0  0  0  0  0  0
  147.9487  133.2817  152.2770 H   0  0  0  0  0  0  0  0  0  0  0  0
  145.1298  132.9111  153.4125 H   0  0  0  0  0  0  0  0  0  0  0  0
  146.5162  132.6759  154.4182 H   0  0  0  0  0  0  0  0  0  0  0  0
  147.2211  134.9165  154.3192 H   0  0  0  0  0  0  0  0  0  0  0  0
  145.4965  134.9605  154.5924 H   0  0  0  0  0  0  0  0  0  0  0  0
  147.0291  135.6671  152.2399 H   0  0  0  0  0  0  0  0  0  0  0  0
  1  2  1  0  0  0  0
  1 20  1  0  0  0  0
  1 21  1  0  0  0  0
  1 22  1  0  0  0  0
  2 19  1  0  0  0  0
  2  3  2  0  0  0  0
  3  4  1  0  0  0  0
  3 23  1  0  0  0  0
  4  5  1  0  0  0  0
  4 18  2  0  0  0  0
  5  6  1  0  0  0  0
  5 24  1  0  0  0  0
  6  7  2  0  0  0  0
  6  8  1  0  0  0  0
  8  9  1  0  0  0  0
  8 25  1  0  0  0  0
  9 10  1  0  0  0  0
  9 26  1  0  0  0  0
  9 27  1  0  0  0  0
 10 11  1  0  0  0  0
 10 28  1  0  0  0  0
 10 29  1  0  0  0  0
 11 17  1  0  0  0  0
 11 12  1  0  0  0  0
 11 42  1  0  0  0  0
 12 13  1  0  0  0  0
 12 30  1  0  0  0  0
 12 31  1  0  0  0  0
 13 14  1  0  0  0  0
 13 32  1  0  0  0  0
 13 33  1  0  0  0  0
 14 15  1  0  0  0  0
 14 34  1  0  0  0  0
 14 35  1  0  0  0  0
 15 16  1  0  0  0  0
 15 36  1  0  0  0  0
 15 37  1  0  0  0  0
 16 17  1  0  0  0  0
 16 38  1  0  0  0  0
 16 39  1  0  0  0  0
 17 40  1  0  0  0  0
 17 41  1  0  0  0  0
 18 19  1  0  0  0  0
M  CHG  1  11   1
M  END
> <s_m_source_file>
AV-unprocessed.smi

> <i_m_source_file_index>
2031

> <i_lp_mmshare_version>
43012

> <i_f3d_flags>
0

> <s_epik_input>
W0NIM11jMVtjSF1jKG5vMSlbTkhdQyg9TylbTkhdW0NIMl1bQ0gyXU4yW0NIMl1bQ0gyXVtDSDJdW0NIMl1bQ0gyXVtDSDJdMg==

> <s_epik_cmdline>
J2VwaWtfcHl0aG9uJywgJy1waCcsICc3LjAnLCAnLXRuJywgJzgnLCAnLW1hJywgJzIwMCcsICctbWV0YWxfYmluZGluZycsICctaW1hZScsICc8aW5maWxlLm1hZT4nLCAnLW9tYWUnLCAnPG91dGZpbGUubWFlPic=

> <r_epik_Ionization_Penalty>
0.00265971

> <r_epik_Ionization_Penalty_Charging>
0.00262393

> <r_epik_Ionization_Penalty_Neutral>
3.57846e-05

> <r_epik_State_Penalty>
0.00182566

> <r_epik_Charging_Adjusted_Penalty>
0.00444959

> <i_epik_Tot_Q>
1

> <i_epik_Tot_abs_Q>
1

> <r_epik_Metal_State_Penalty>
0.0216344

> <b_epik_Metal_Only>
0

> <s_lp_Force_Field>
OPLS_2005

> <r_lp_Energy>
20.9695

> <b_lp_Chiralities_Consistent>
1

> <s_lp_Variant>
AV-unprocessed.smi:2031-1

> <Gold.Version>
5.8.1

> <Gold.Id.Protein>
6NUR|6NUR_protein|mol2

> <Gold.PLP.Fitness>
43.2677

> <Gold.PLP.PLP>
-30.6282

> <Gold.PLP.part.hbond>
-5.3719

> <Gold.PLP.part.metal>
0.0000

> <Gold.PLP.part.buried>
-3.0768

> <Gold.PLP.part.nonpolar>
-23.2963

> <Gold.PLP.part.repulsive>
0.3872

> <Gold.PLP.ligand.clash>
0.0000

> <Gold.PLP.ligand.torsion>
0.9306

> <Gold.PLP.Chemscore.Hbond>
4.8160

> <Gold.PLP.Chemscore.CHOScore>
0.0000

> <Gold.PLP.Chemscore.Metal>
0.0000

> <Gold.Chemscore.Hbonds>
donor molecule, donor type, donor heavy atom, donor atom, acceptor molecule, acceptor atom, score
      L1  H     5    24       P1  7957  1.00
      L1  H     8    25       P1  7957  0.78
      L1  H    11    42       P1  7948  2.00
      P1  H  7989  7998       L1    18  0.80

> <Gold.PLP.Chemscore.Internal.Correction>
0.0526

> <Gold.Rescore>
     Score         DG    S(hbond)    S(metal)    S(lipo)     H(rot)  DE(clash)    DE(int)     intcor
     16.71     -19.64       3.37        0.00      59.32       1.57       0.58       2.35       ----

> <Gold.Chemscore.Fitness>
16.7122

> <Gold.Chemscore.DG>
-19.6427

> <Gold.Chemscore.ZeroCoef>
-5.4800

> <Gold.Chemscore.Hbond>
3.3656

> <Gold.Chemscore.Metal>
0.0000

> <Gold.Chemscore.Lipo>
59.3179

> <Gold.Chemscore.Internal_Hbond>
0.0000

> <Gold.Chemscore.DEClash>
0.5780

> <Gold.Chemscore.DEInternal>
2.3525

> <Gold.Chemscore.Rot>
1.5697

> <Gold.Chemscore.Internal.Correction>
   9.000000E+99

> <Gold.Chemscore.Hbonds>
donor molecule, donor type, donor heavy atom, donor atom, acceptor molecule, acceptor atom, score
      L1  H     5    24       P1  7957  0.93
      L1  H     8    25       P1  7957  0.58
      L1  H    11    42       P1  7948  0.94
      P1  H  7989  7998       L1    18  0.08

> <Gold.Chemscore.Hbond.Weighted>
-11.2410

> <Gold.Chemscore.Metal.Weighted>
-0.0000

> <Gold.Chemscore.Lipo.Weighted>
-6.9402

> <Gold.Chemscore.Internal_Hbond.Weighted>
0.0000

> <Gold.Chemscore.DEClash.Weighted>
0.5780

> <Gold.Chemscore.DEInternal.Weighted>
2.3525

> <Gold.Chemscore.Rot.Weighted>
4.0185

> <Gold.Chemscore.Internal.Correction.Weighted>
   9.000000E+99

> <Gold.Protein.RotatedTorsions>
[ 6907 6896 6895 6894 ] final -111.10 input  -60.11 | X-H torsion
[ 7974 7965 7964 7962 ] final   -1.02 input  175.53 | X-H torsion
[ 8008 7997 7996 7995 ] final   28.15 input   59.86 | X-H torsion
[ 10167 10162 10161 10158 ] final -136.98 input  -65.29 | X-H torsion
[ 10718 10713 10712 10709 ] final  136.91 input   66.30 | X-H torsion
[ 10763 10752 10751 10750 ] final -159.65 input  -60.55 | X-H torsion
[ 11005 11000 10999 10996 ] final   79.44 input  -57.11 | X-H torsion

> <Gold.Protein.ActiveResidues>
 VAL166  LYS551  ARG553  GLY616  TRP617  ASP618  TYR619  PRO620  LYS621  CYS622 
 ASP623  PHE694  ASN695  SER759  ASP760  ASP761  ALA762  ILE779  LEU786  VAL792 
 PHE793  MET794  SER795  GLU796  ALA797  LYS798  CYS799  TRP800  GLU811  SER814 

> <Gold.Protein.RotatedAtoms>
  150.7668  133.9284  159.3419 H   0  0  0  0  0  0  0  0  0  0  0  0  # atno 6907 bound_to 6896
  151.7180  135.0898  160.0288 H   0  0  0  0  0  0  0  0  0  0  0  0  # atno 6908 bound_to 6896
  152.3668  133.6329  159.6092 H   0  0  0  0  0  0  0  0  0  0  0  0  # atno 6909 bound_to 6896
  146.2421  140.1357  142.8336 H   0  0  0  0  0  0  0  0  0  0  0  0  # atno 7974 bound_to 7965
  155.0541  140.3183  155.4682 H   0  0  0  0  0  0  0  0  0  0  0  0  # atno 8008 bound_to 7997
  156.2828  140.2140  156.5611 H   0  0  0  0  0  0  0  0  0  0  0  0  # atno 8009 bound_to 7997
  154.7186  140.0491  157.0606 H   0  0  0  0  0  0  0  0  0  0  0  0  # atno 8010 bound_to 7997
  139.8623  143.7061  152.2649 H   0  0  0  0  0  0  0  0  0  0  0  0  # atno 10167 bound_to 10162
  157.4417  131.1058  151.0135 H   0  0  0  0  0  0  0  0  0  0  0  0  # atno 10718 bound_to 10713
  154.7456  135.3079  154.8650 H   0  0  0  0  0  0  0  0  0  0  0  0  # atno 10763 bound_to 10752
  153.9451  135.6770  153.4748 H   0  0  0  0  0  0  0  0  0  0  0  0  # atno 10764 bound_to 10752
  153.1053  135.4892  154.8867 H   0  0  0  0  0  0  0  0  0  0  0  0  # atno 10765 bound_to 10752
  139.9172  134.7843  156.1779 H   0  0  0  0  0  0  0  0  0  0  0  0  # atno 11005 bound_to 11000
  145.0288  140.8854  143.5122 LP  0  0  0  0  0  0  0  0  0  0  0  0  # atno 17320 bound_to 7965
  145.1418  139.2567  143.5486 LP  0  0  0  0  0  0  0  0  0  0  0  0  # atno 17321 bound_to 7965
  139.7362  144.7571  151.0724 LP  0  0  0  0  0  0  0  0  0  0  0  0  # atno 17342 bound_to 10162
  140.7773  143.5028  150.9750 LP  0  0  0  0  0  0  0  0  0  0  0  0  # atno 17343 bound_to 10162
  157.0996  130.5976  149.5457 LP  0  0  0  0  0  0  0  0  0  0  0  0  # atno 17370 bound_to 10713
  155.9951  130.5017  150.7447 LP  0  0  0  0  0  0  0  0  0  0  0  0  # atno 17371 bound_to 10713
  141.0660  133.6819  156.2045 LP  0  0  0  0  0  0  0  0  0  0  0  0  # atno 17394 bound_to 11000
  140.6584  134.4993  157.5582 LP  0  0  0  0  0  0  0  0  0  0  0  0  # atno 17395 bound_to 11000

$$$$
