AV-unprocessed.smi:1840|AV-procd|sdf|7490|dock9
  -GOLD-   22720 9193D 1   1.00000     0.00000
 Structure written by MMmdl.
 43 44  0  0  0  0  0  0  0  0  1 V2000
  146.3556  139.6459  154.3734 C   0  0  0  0  0  0  0  0  0  0  0  0
  147.6811  138.8950  154.5593 C   0  0  2  0  0  0  0  0  0  0  0  0
  148.8709  139.7070  154.0037 C   0  0  0  0  0  0  0  0  0  0  0  0
  150.1556  139.1984  154.4513 N   0  0  0  0  0  0  0  0  0  0  0  0
  150.6333  137.9057  154.3947 C   0  0  0  0  0  0  0  0  0  0  0  0
  151.8782  137.9082  154.9550 C   0  0  0  0  0  0  0  0  0  0  0  0
  152.0789  139.2675  155.3255 C   0  0  0  0  0  0  0  0  0  0  0  0
  151.0478  140.0380  155.0193 N   0  0  0  0  0  0  0  0  0  0  0  0
  147.5882  137.5955  153.8951 N   0  0  0  0  0  0  0  0  0  0  0  0
  146.6728  136.6506  154.1541 C   0  0  0  0  0  0  0  0  0  0  0  0
  145.7483  136.7820  154.9562 O   0  0  0  0  0  0  0  0  0  0  0  0
  146.9072  135.5345  153.4515 N   0  0  0  0  0  0  0  0  0  0  0  0
  146.1434  134.2899  153.5474 C   0  0  1  0  0  0  0  0  0  0  0  0
  144.6878  134.5143  153.0897 C   0  0  0  0  0  0  0  0  0  0  0  0
  144.5876  134.7558  151.5736 C   0  0  0  0  0  0  0  0  0  0  0  0
  145.2480  133.6150  150.7850 C   0  0  0  0  0  0  0  0  0  0  0  0
  146.7078  133.4061  151.2188 C   0  0  0  0  0  0  0  0  0  0  0  0
  146.8196  133.1562  152.7373 C   0  0  1  0  0  0  0  0  0  0  0  0
  148.2767  132.9067  153.1652 C   0  0  0  0  0  0  0  0  0  0  0  0
  146.3770  140.6089  154.8844 H   0  0  0  0  0  0  0  0  0  0  0  0
  145.5207  139.0758  154.7822 H   0  0  0  0  0  0  0  0  0  0  0  0
  146.1483  139.8333  153.3193 H   0  0  0  0  0  0  0  0  0  0  0  0
  147.8234  138.7547  155.6326 H   0  0  0  0  0  0  0  0  0  0  0  0
  148.8575  139.7096  152.9129 H   0  0  0  0  0  0  0  0  0  0  0  0
  148.7927  140.7492  154.3168 H   0  0  0  0  0  0  0  0  0  0  0  0
  150.0500  137.0996  153.9743 H   0  0  0  0  0  0  0  0  0  0  0  0
  152.5431  137.0672  155.0836 H   0  0  0  0  0  0  0  0  0  0  0  0
  152.9375  139.7141  155.8049 H   0  0  0  0  0  0  0  0  0  0  0  0
  148.3023  137.3854  153.2135 H   0  0  0  0  0  0  0  0  0  0  0  0
  147.6921  135.5317  152.8171 H   0  0  0  0  0  0  0  0  0  0  0  0
  146.1195  133.9720  154.5915 H   0  0  0  0  0  0  0  0  0  0  0  0
  144.0933  133.6374  153.3494 H   0  0  0  0  0  0  0  0  0  0  0  0
  144.2447  135.3504  153.6321 H   0  0  0  0  0  0  0  0  0  0  0  0
  143.5412  134.8509  151.2822 H   0  0  0  0  0  0  0  0  0  0  0  0
  145.0643  135.7026  151.3174 H   0  0  0  0  0  0  0  0  0  0  0  0
  144.6862  132.6928  150.9384 H   0  0  0  0  0  0  0  0  0  0  0  0
  145.2047  133.8287  149.7167 H   0  0  0  0  0  0  0  0  0  0  0  0
  147.1311  132.5629  150.6719 H   0  0  0  0  0  0  0  0  0  0  0  0
  147.2994  134.2789  150.9397 H   0  0  0  0  0  0  0  0  0  0  0  0
  146.2692  132.2390  152.9530 H   0  0  0  0  0  0  0  0  0  0  0  0
  148.9188  133.7568  152.9338 H   0  0  0  0  0  0  0  0  0  0  0  0
  148.6889  132.0359  152.6552 H   0  0  0  0  0  0  0  0  0  0  0  0
  148.3440  132.7221  154.2377 H   0  0  0  0  0  0  0  0  0  0  0  0
  1  2  1  0  0  0  0
  1 20  1  0  0  0  0
  1 21  1  0  0  0  0
  1 22  1  0  0  0  0
  2  3  1  0  0  0  0
  2  9  1  0  0  0  0
  2 23  1  0  0  0  0
  3  4  1  0  0  0  0
  3 24  1  0  0  0  0
  3 25  1  0  0  0  0
  4  8  1  0  0  0  0
  4  5  1  0  0  0  0
  5  6  2  0  0  0  0
  5 26  1  0  0  0  0
  6  7  1  0  0  0  0
  6 27  1  0  0  0  0
  7  8  2  0  0  0  0
  7 28  1  0  0  0  0
  9 10  1  0  0  0  0
  9 29  1  0  0  0  0
 10 11  2  0  0  0  0
 10 12  1  0  0  0  0
 12 13  1  0  0  0  0
 12 30  1  0  0  0  0
 13 18  1  0  0  0  0
 13 14  1  0  0  0  0
 13 31  1  0  0  0  0
 14 15  1  0  0  0  0
 14 32  1  0  0  0  0
 14 33  1  0  0  0  0
 15 16  1  0  0  0  0
 15 34  1  0  0  0  0
 15 35  1  0  0  0  0
 16 17  1  0  0  0  0
 16 36  1  0  0  0  0
 16 37  1  0  0  0  0
 17 18  1  0  0  0  0
 17 38  1  0  0  0  0
 17 39  1  0  0  0  0
 18 19  1  0  0  0  0
 18 40  1  0  0  0  0
 19 41  1  0  0  0  0
 19 42  1  0  0  0  0
 19 43  1  0  0  0  0
M  END
> <s_m_source_file>
AV-unprocessed.smi

> <i_m_source_file_index>
1840

> <i_lp_mmshare_version>
43012

> <i_f3d_flags>
0

> <s_epik_input>
bjFbY0hdW2NIXVtjSF1uMVtDSDJdW0NAQEhdKFtDSDNdKVtOSF1DKD1PKVtOSF1bQ0BASF0yW0NIMl1bQ0gyXVtDSDJdW0NIMl1bQ0BIXTJbQ0gzXQ==

> <s_epik_cmdline>
J2VwaWtfcHl0aG9uJywgJy1waCcsICc3LjAnLCAnLXRuJywgJzgnLCAnLW1hJywgJzIwMCcsICctbWV0YWxfYmluZGluZycsICctaW1hZScsICc8aW5maWxlLm1hZT4nLCAnLW9tYWUnLCAnPG91dGZpbGUubWFlPic=

> <r_lp_tautomer_probability>
1

> <r_epik_Ionization_Penalty>
7.38659e-05

> <r_epik_Ionization_Penalty_Charging>
0

> <r_epik_Ionization_Penalty_Neutral>
7.38659e-05

> <r_epik_State_Penalty>
-0

> <r_epik_Charging_Adjusted_Penalty>
0

> <i_epik_Tot_Q>
0

> <i_epik_Tot_abs_Q>
0

> <r_epik_Metal_State_Penalty>
-0

> <b_epik_Metal_Only>
0

> <s_lp_Force_Field>
OPLS_2005

> <r_lp_Energy>
7.22709

> <b_lp_Chiralities_Consistent>
1

> <s_lp_Variant>
AV-unprocessed.smi:1840-3

> <Gold.Version>
5.8.1

> <Gold.Id.Protein>
6NUR|6NUR_protein|mol2

> <Gold.PLP.Fitness>
43.0348

> <Gold.PLP.PLP>
-31.4486

> <Gold.PLP.part.hbond>
-3.0000

> <Gold.PLP.part.metal>
0.0000

> <Gold.PLP.part.buried>
-2.6834

> <Gold.PLP.part.nonpolar>
-26.6821

> <Gold.PLP.part.repulsive>
0.0790

> <Gold.PLP.ligand.clash>
0.0000

> <Gold.PLP.ligand.torsion>
0.2038

> <Gold.PLP.Chemscore.Hbond>
2.9760

> <Gold.PLP.Chemscore.CHOScore>
1.0162

> <Gold.PLP.Chemscore.Metal>
0.0000

> <Gold.Chemscore.Hbonds>
donor molecule, donor type, donor heavy atom, donor atom, acceptor molecule, acceptor atom, score
      L1  H     9    29       P1  7948  0.99
      L1  H    12    30       P1  7948  1.00
      P1  H  7989  7998       L1     8  0.95
      L1  C     5    26       P1  7948  1.00

> <Gold.PLP.Chemscore.Internal.Correction>
0.0172

> <Gold.Rescore>
     Score         DG    S(hbond)    S(metal)    S(lipo)     H(rot)  DE(clash)    DE(int)     intcor
     15.68     -15.98       1.97        0.00      67.70       1.56       0.08       0.22       ----

> <Gold.Chemscore.Fitness>
15.6825

> <Gold.Chemscore.DG>
-15.9809

> <Gold.Chemscore.ZeroCoef>
-5.4800

> <Gold.Chemscore.Hbond>
1.9662

> <Gold.Chemscore.Metal>
0.0000

> <Gold.Chemscore.Lipo>
67.7018

> <Gold.Chemscore.Internal_Hbond>
0.0000

> <Gold.Chemscore.DEClash>
0.0787

> <Gold.Chemscore.DEInternal>
0.2196

> <Gold.Chemscore.Rot>
1.5576

> <Gold.Chemscore.Internal.Correction>
   9.000000E+99

> <Gold.Chemscore.Hbonds>
donor molecule, donor type, donor heavy atom, donor atom, acceptor molecule, acceptor atom, score
      L1  H     9    29       P1  7948  0.93
      L1  H    12    30       P1  7948  0.99
      P1  H  7989  7998       L1     8  0.07

> <Gold.Chemscore.Hbond.Weighted>
-6.5673

> <Gold.Chemscore.Metal.Weighted>
-0.0000

> <Gold.Chemscore.Lipo.Weighted>
-7.9211

> <Gold.Chemscore.Internal_Hbond.Weighted>
0.0000

> <Gold.Chemscore.DEClash.Weighted>
0.0787

> <Gold.Chemscore.DEInternal.Weighted>
0.2196

> <Gold.Chemscore.Rot.Weighted>
3.9875

> <Gold.Chemscore.Internal.Correction.Weighted>
   9.000000E+99

> <Gold.Protein.RotatedTorsions>
[ 6907 6896 6895 6894 ] final  126.13 input  -60.11 | X-H torsion
[ 7974 7965 7964 7962 ] final  141.70 input  175.53 | X-H torsion
[ 8008 7997 7996 7995 ] final -113.37 input   59.86 | X-H torsion
[ 10167 10162 10161 10158 ] final -168.06 input  -65.29 | X-H torsion
[ 10718 10713 10712 10709 ] final  132.96 input   66.30 | X-H torsion
[ 10763 10752 10751 10750 ] final  -98.40 input  -60.55 | X-H torsion
[ 11005 11000 10999 10996 ] final  152.03 input  -57.11 | X-H torsion

> <Gold.Protein.ActiveResidues>
 VAL166  LYS551  ARG553  GLY616  TRP617  ASP618  TYR619  PRO620  LYS621  CYS622 
 ASP623  PHE694  ASN695  SER759  ASP760  ASP761  ALA762  ILE779  LEU786  VAL792 
 PHE793  MET794  SER795  GLU796  ALA797  LYS798  CYS799  TRP800  GLU811  SER814 

> <Gold.Protein.RotatedAtoms>
  152.3930  133.6707  159.6253 H   0  0  0  0  0  0  0  0  0  0  0  0  # atno 6907 bound_to 6896
  150.7835  133.8921  159.3325 H   0  0  0  0  0  0  0  0  0  0  0  0  # atno 6908 bound_to 6896
  151.6703  135.0978  160.0248 H   0  0  0  0  0  0  0  0  0  0  0  0  # atno 6909 bound_to 6896
  144.9073  139.5341  143.5725 H   0  0  0  0  0  0  0  0  0  0  0  0  # atno 7974 bound_to 7965
  155.0196  140.0393  157.2432 H   0  0  0  0  0  0  0  0  0  0  0  0  # atno 8008 bound_to 7997
  154.7389  140.2745  155.6367 H   0  0  0  0  0  0  0  0  0  0  0  0  # atno 8009 bound_to 7997
  156.2859  140.2669  156.2111 H   0  0  0  0  0  0  0  0  0  0  0  0  # atno 8010 bound_to 7997
  139.6009  144.1012  152.1742 H   0  0  0  0  0  0  0  0  0  0  0  0  # atno 10167 bound_to 10162
  157.4820  131.1086  150.9669 H   0  0  0  0  0  0  0  0  0  0  0  0  # atno 10718 bound_to 10713
  154.7411  135.5011  153.9124 H   0  0  0  0  0  0  0  0  0  0  0  0  # atno 10763 bound_to 10752
  153.1044  135.6693  153.9622 H   0  0  0  0  0  0  0  0  0  0  0  0  # atno 10764 bound_to 10752
  153.9398  135.3069  155.3422 H   0  0  0  0  0  0  0  0  0  0  0  0  # atno 10765 bound_to 10752
  140.1271  134.8826  157.2153 H   0  0  0  0  0  0  0  0  0  0  0  0  # atno 11005 bound_to 11000
  146.3140  139.7850  142.8998 LP  0  0  0  0  0  0  0  0  0  0  0  0  # atno 17320 bound_to 7965
  145.3515  141.0308  143.3336 LP  0  0  0  0  0  0  0  0  0  0  0  0  # atno 17321 bound_to 7965
  140.0608  144.5858  150.7264 LP  0  0  0  0  0  0  0  0  0  0  0  0  # atno 17342 bound_to 10162
  140.7249  143.2626  151.4155 LP  0  0  0  0  0  0  0  0  0  0  0  0  # atno 17343 bound_to 10162
  157.0399  130.5745  149.5354 LP  0  0  0  0  0  0  0  0  0  0  0  0  # atno 17370 bound_to 10713
  156.0127  130.5219  150.8038 LP  0  0  0  0  0  0  0  0  0  0  0  0  # atno 17371 bound_to 10713
  140.2890  134.3263  155.7321 LP  0  0  0  0  0  0  0  0  0  0  0  0  # atno 17394 bound_to 11000
  141.2163  133.7523  156.9475 LP  0  0  0  0  0  0  0  0  0  0  0  0  # atno 17395 bound_to 11000

$$$$
