AV-unprocessed.smi:2217|AV-procd|sdf|8971|dock4
  -GOLD-   2272012183D 1   1.00000     0.00000
 Structure written by MMmdl.
 45 48  0  0  0  0  0  0  0  0  1 V2000
  142.4902  144.7003  161.9204 C   0  0  0  0  0  0  0  0  0  0  0  0
  143.7066  144.4691  161.0484 C   0  0  0  0  0  0  0  0  0  0  0  0
  144.8649  143.8533  161.5585 C   0  0  0  0  0  0  0  0  0  0  0  0
  145.9663  143.6645  160.7014 C   0  0  0  0  0  0  0  0  0  0  0  0
  145.8871  144.0899  159.3560 C   0  0  0  0  0  0  0  0  0  0  0  0
  147.0663  143.8503  158.5903 N   0  0  0  0  0  0  0  0  0  0  0  0
  147.9272  142.8103  158.5776 C   0  0  0  0  0  0  0  0  0  0  0  0
  147.7629  141.8408  159.3164 O   0  0  0  0  0  0  0  0  0  0  0  0
  148.9557  142.9014  157.7202 N   0  0  0  0  0  0  0  0  0  0  0  0
  150.0134  141.9080  157.5797 C   0  0  1  0  0  0  0  0  0  0  0  0
  150.4682  141.7390  156.1210 C   0  0  2  0  0  0  0  0  0  0  0  0
  150.2310  140.4350  155.4094 C   0  0  0  0  0  0  0  0  0  0  0  0
  151.5534  139.6897  155.6128 C   0  0  0  0  0  0  0  0  0  0  0  0
  152.1477  140.3110  156.7502 O   0  0  0  0  0  0  0  0  0  0  0  0
  151.8919  141.7104  156.6571 C   0  0  2  0  0  0  0  0  0  0  0  0
  151.4257  142.4220  157.9451 C   0  0  0  0  0  0  0  0  0  0  0  0
  152.0504  141.9703  159.2625 C   0  0  0  0  0  0  0  0  0  0  0  0
  153.2575  142.8762  159.5331 C   0  0  0  0  0  0  0  0  0  0  0  0
  153.0752  144.0993  158.6289 C   0  0  0  0  0  0  0  0  0  0  0  0
  151.6954  143.9288  157.9932 C   0  0  0  0  0  0  0  0  0  0  0  0
  144.7660  144.6878  158.8777 N   0  0  0  0  0  0  0  0  0  0  0  0
  143.7107  144.8697  159.6990 C   0  0  0  0  0  0  0  0  0  0  0  0
  142.5942  144.2018  162.8845 H   0  0  0  0  0  0  0  0  0  0  0  0
  141.5950  144.3139  161.4324 H   0  0  0  0  0  0  0  0  0  0  0  0
  142.3519  145.7668  162.0993 H   0  0  0  0  0  0  0  0  0  0  0  0
  144.9132  143.5299  162.5879 H   0  0  0  0  0  0  0  0  0  0  0  0
  146.8629  143.1941  161.0787 H   0  0  0  0  0  0  0  0  0  0  0  0
  147.2721  144.5678  157.9107 H   0  0  0  0  0  0  0  0  0  0  0  0
  149.0213  143.7296  157.1452 H   0  0  0  0  0  0  0  0  0  0  0  0
  149.7903  140.9475  158.0504 H   0  0  0  0  0  0  0  0  0  0  0  0
  150.2854  142.6298  155.5171 H   0  0  0  0  0  0  0  0  0  0  0  0
  149.4028  139.8892  155.8625 H   0  0  0  0  0  0  0  0  0  0  0  0
  150.0052  140.5703  154.3513 H   0  0  0  0  0  0  0  0  0  0  0  0
  151.4137  138.6197  155.7674 H   0  0  0  0  0  0  0  0  0  0  0  0
  152.2079  139.8283  154.7509 H   0  0  0  0  0  0  0  0  0  0  0  0
  152.6134  142.2481  156.0402 H   0  0  0  0  0  0  0  0  0  0  0  0
  151.3261  142.0848  160.0700 H   0  0  0  0  0  0  0  0  0  0  0  0
  152.3385  140.9191  159.2527 H   0  0  0  0  0  0  0  0  0  0  0  0
  153.3062  143.1564  160.5859 H   0  0  0  0  0  0  0  0  0  0  0  0
  154.1878  142.3632  159.2865 H   0  0  0  0  0  0  0  0  0  0  0  0
  153.1598  145.0385  159.1763 H   0  0  0  0  0  0  0  0  0  0  0  0
  153.8417  144.0984  157.8532 H   0  0  0  0  0  0  0  0  0  0  0  0
  151.6464  144.3971  157.0096 H   0  0  0  0  0  0  0  0  0  0  0  0
  150.9589  144.4318  158.6207 H   0  0  0  0  0  0  0  0  0  0  0  0
  142.8457  145.3495  159.2649 H   0  0  0  0  0  0  0  0  0  0  0  0
  1  2  1  0  0  0  0
  1 23  1  0  0  0  0
  1 24  1  0  0  0  0
  1 25  1  0  0  0  0
  2 22  1  0  0  0  0
  2  3  2  0  0  0  0
  3  4  1  0  0  0  0
  3 26  1  0  0  0  0
  4  5  2  0  0  0  0
  4 27  1  0  0  0  0
  5  6  1  0  0  0  0
  5 21  1  0  0  0  0
  6  7  1  0  0  0  0
  6 28  1  0  0  0  0
  7  8  2  0  0  0  0
  7  9  1  0  0  0  0
  9 10  1  0  0  0  0
  9 29  1  0  0  0  0
 10 16  1  0  0  0  0
 10 11  1  0  0  0  0
 10 30  1  0  0  0  0
 11 15  1  0  0  0  0
 11 12  1  0  0  0  0
 11 31  1  0  0  0  0
 12 13  1  0  0  0  0
 12 32  1  0  0  0  0
 12 33  1  0  0  0  0
 13 14  1  0  0  0  0
 13 34  1  0  0  0  0
 13 35  1  0  0  0  0
 14 15  1  0  0  0  0
 15 16  1  0  0  0  0
 15 36  1  0  0  0  0
 16 20  1  0  0  0  0
 16 17  1  0  0  0  0
 17 18  1  0  0  0  0
 17 37  1  0  0  0  0
 17 38  1  0  0  0  0
 18 19  1  0  0  0  0
 18 39  1  0  0  0  0
 18 40  1  0  0  0  0
 19 20  1  0  0  0  0
 19 41  1  0  0  0  0
 19 42  1  0  0  0  0
 20 43  1  0  0  0  0
 20 44  1  0  0  0  0
 21 22  2  0  0  0  0
 22 45  1  0  0  0  0
M  END
> <s_m_source_file>
AV-unprocessed.smi

> <i_m_source_file_index>
2217

> <i_lp_mmshare_version>
43012

> <i_f3d_flags>
0

> <s_epik_input>
W0NIM11jMVtjSF1bY0hdYyhuW2NIXTEpW05IXUMoPU8pW05IXVtDQEBIXTJbQ0BASF0oW0NIMl1bQ0gyXU8zKVtDQEhdM0MyNFtDSDJdW0NIMl1bQ0gyXVtDSDJdNA==

> <s_epik_cmdline>
J2VwaWtfcHl0aG9uJywgJy1waCcsICc3LjAnLCAnLXRuJywgJzgnLCAnLW1hJywgJzIwMCcsICctbWV0YWxfYmluZGluZycsICctaW1hZScsICc8aW5maWxlLm1hZT4nLCAnLW9tYWUnLCAnPG91dGZpbGUubWFlPic=

> <r_lp_tautomer_probability>
1

> <r_epik_Ionization_Penalty>
6.14796e-05

> <r_epik_Ionization_Penalty_Charging>
0

> <r_epik_Ionization_Penalty_Neutral>
6.14796e-05

> <r_epik_State_Penalty>
-0

> <r_epik_Charging_Adjusted_Penalty>
0

> <i_epik_Tot_Q>
0

> <i_epik_Tot_abs_Q>
0

> <r_epik_Metal_State_Penalty>
-0

> <b_epik_Metal_Only>
0

> <s_lp_Force_Field>
OPLS_2005

> <r_lp_Energy>
58.5604

> <b_lp_Chiralities_Consistent>
1

> <s_lp_Variant>
AV-unprocessed.smi:2217-4

> <Gold.Version>
5.8.1

> <Gold.Id.Protein>
6NUR|6NUR_protein|mol2

> <Gold.PLP.Fitness>
43.2438

> <Gold.PLP.PLP>
-35.2732

> <Gold.PLP.part.hbond>
-4.8233

> <Gold.PLP.part.metal>
0.0000

> <Gold.PLP.part.buried>
-0.0504

> <Gold.PLP.part.nonpolar>
-29.7927

> <Gold.PLP.part.repulsive>
0.2159

> <Gold.PLP.ligand.clash>
0.0000

> <Gold.PLP.ligand.torsion>
0.4603

> <Gold.PLP.Chemscore.Hbond>
2.9018

> <Gold.PLP.Chemscore.CHOScore>
0.0000

> <Gold.PLP.Chemscore.Metal>
0.0000

> <Gold.Chemscore.Hbonds>
donor molecule, donor type, donor heavy atom, donor atom, acceptor molecule, acceptor atom, score
      L1  H     6    28       P1  8029  1.00
      L1  H     9    29       P1  8028  1.00
      P1  H  6933  6944       L1     8  0.07
      P1  H  6934  6946       L1     8  0.27
      P1  H  7997  8009       L1    14  0.54

> <Gold.PLP.Chemscore.Internal.Correction>
0.1855

> <Gold.Rescore>
     Score         DG    S(hbond)    S(metal)    S(lipo)     H(rot)  DE(clash)    DE(int)     intcor
     17.96     -21.40       1.25        0.00     122.29       1.00       1.77       1.66       ----

> <Gold.Chemscore.Fitness>
17.9597

> <Gold.Chemscore.DG>
-21.3965

> <Gold.Chemscore.ZeroCoef>
-5.4800

> <Gold.Chemscore.Hbond>
1.2482

> <Gold.Chemscore.Metal>
0.0000

> <Gold.Chemscore.Lipo>
122.2857

> <Gold.Chemscore.Internal_Hbond>
0.0000

> <Gold.Chemscore.DEClash>
1.7731

> <Gold.Chemscore.DEInternal>
1.6636

> <Gold.Chemscore.Rot>
1.0000

> <Gold.Chemscore.Internal.Correction>
   9.000000E+99

> <Gold.Chemscore.Hbonds>
donor molecule, donor type, donor heavy atom, donor atom, acceptor molecule, acceptor atom, score
      L1  H     6    28       P1  8029  0.39
      L1  H     9    29       P1  8028  0.34
      P1  H  6933  6944       L1     8  0.06
      P1  H  6934  6946       L1     8  0.28
      P1  H  7997  8009       L1    14  0.12

> <Gold.Chemscore.Hbond.Weighted>
-4.1691

> <Gold.Chemscore.Metal.Weighted>
-0.0000

> <Gold.Chemscore.Lipo.Weighted>
-14.3074

> <Gold.Chemscore.Internal_Hbond.Weighted>
0.0000

> <Gold.Chemscore.DEClash.Weighted>
1.7731

> <Gold.Chemscore.DEInternal.Weighted>
1.6636

> <Gold.Chemscore.Rot.Weighted>
2.5600

> <Gold.Chemscore.Internal.Correction.Weighted>
   9.000000E+99

> <Gold.Protein.RotatedTorsions>
[ 6907 6896 6895 6894 ] final  163.45 input  -60.11 | X-H torsion
[ 7974 7965 7964 7962 ] final   59.95 input  175.53 | X-H torsion
[ 8008 7997 7996 7995 ] final -167.24 input   59.86 | X-H torsion
[ 10167 10162 10161 10158 ] final  -26.57 input  -65.29 | X-H torsion
[ 10718 10713 10712 10709 ] final   86.05 input   66.30 | X-H torsion
[ 10763 10752 10751 10750 ] final -158.20 input  -60.55 | X-H torsion
[ 11005 11000 10999 10996 ] final -114.66 input  -57.11 | X-H torsion

> <Gold.Protein.ActiveResidues>
 VAL166  LYS551  ARG553  GLY616  TRP617  ASP618  TYR619  PRO620  LYS621  CYS622 
 ASP623  PHE694  ASN695  SER759  ASP760  ASP761  ALA762  ILE779  LEU786  VAL792 
 PHE793  MET794  SER795  GLU796  ALA797  LYS798  CYS799  TRP800  GLU811  SER814 

> <Gold.Protein.RotatedAtoms>
  151.9250  133.3595  159.3910 H   0  0  0  0  0  0  0  0  0  0  0  0  # atno 6907 bound_to 6896
  150.7029  134.4596  159.5384 H   0  0  0  0  0  0  0  0  0  0  0  0  # atno 6908 bound_to 6896
  152.2226  134.8398  160.0535 H   0  0  0  0  0  0  0  0  0  0  0  0  # atno 6909 bound_to 6896
  145.9015  139.3585  143.0589 H   0  0  0  0  0  0  0  0  0  0  0  0  # atno 7974 bound_to 7965
  155.8750  140.0999  157.1524 H   0  0  0  0  0  0  0  0  0  0  0  0  # atno 8008 bound_to 7997
  154.4000  140.1340  156.4188 H   0  0  0  0  0  0  0  0  0  0  0  0  # atno 8009 bound_to 7997
  155.7708  140.3461  155.5248 H   0  0  0  0  0  0  0  0  0  0  0  0  # atno 8010 bound_to 7997
  140.7282  143.4167  151.1017 H   0  0  0  0  0  0  0  0  0  0  0  0  # atno 10167 bound_to 10162
  157.6923  131.0200  150.2915 H   0  0  0  0  0  0  0  0  0  0  0  0  # atno 10718 bound_to 10713
  154.7576  135.3109  154.8441 H   0  0  0  0  0  0  0  0  0  0  0  0  # atno 10763 bound_to 10752
  153.9211  135.6795  153.4752 H   0  0  0  0  0  0  0  0  0  0  0  0  # atno 10764 bound_to 10752
  153.1174  135.4838  154.9068 H   0  0  0  0  0  0  0  0  0  0  0  0  # atno 10765 bound_to 10752
  141.0538  133.9645  157.2790 H   0  0  0  0  0  0  0  0  0  0  0  0  # atno 11005 bound_to 11000
  145.8785  140.9377  143.0614 LP  0  0  0  0  0  0  0  0  0  0  0  0  # atno 17320 bound_to 7965
  144.6736  140.0748  143.7471 LP  0  0  0  0  0  0  0  0  0  0  0  0  # atno 17321 bound_to 7965
  139.7808  143.8358  152.3137 LP  0  0  0  0  0  0  0  0  0  0  0  0  # atno 17342 bound_to 10162
  139.8309  144.7254  150.9452 LP  0  0  0  0  0  0  0  0  0  0  0  0  # atno 17343 bound_to 10162
  156.3445  130.3821  149.7381 LP  0  0  0  0  0  0  0  0  0  0  0  0  # atno 17370 bound_to 10713
  156.4879  130.8071  151.3082 LP  0  0  0  0  0  0  0  0  0  0  0  0  # atno 17371 bound_to 10713
  139.9372  135.0195  156.8594 LP  0  0  0  0  0  0  0  0  0  0  0  0  # atno 17394 bound_to 11000
  140.6004  134.0177  155.7535 LP  0  0  0  0  0  0  0  0  0  0  0  0  # atno 17395 bound_to 11000

$$$$
