AV-unprocessed.smi:2926|AV-procd|sdf|11228|dock1
  -GOLD-   2272016123D 1   1.00000     0.00000
 Structure written by MMmdl.
 31 31  0  0  0  0  0  0  0  0  2 V2000
  150.6546  137.4133  154.8944 C   0  0  0  0  0  0  0  0  0  0  0  0
  151.3775  138.7697  154.7093 C   0  0  0  0  0  0  0  0  0  0  0  0
  152.7974  138.6570  155.3098 C   0  0  0  0  0  0  0  0  0  0  0  0
  150.5577  139.9766  155.2679 C   0  0  1  0  0  0  0  0  0  0  0  0
  149.2181  140.2418  154.5422 C   0  0  0  0  0  0  0  0  0  0  0  0
  149.3976  140.9198  153.3130 O   0  0  0  0  0  0  0  0  0  0  0  0
  150.2971  139.7827  156.6901 N   0  5  0  0  0  0  0  0  0  0  0  0
  151.1537  140.6170  157.7856 S   0  0  0  0  0  0  0  0  0  0  0  0
  150.6538  140.4278  159.1576 O   0  0  0  0  0  0  0  0  0  0  0  0
  152.6044  140.4809  157.5749 O   0  0  0  0  0  0  0  0  0  0  0  0
  150.7385  142.3514  157.3048 C   0  0  0  0  0  0  0  0  0  0  0  0
  151.2110  143.3226  158.3526 C   0  0  0  0  0  0  0  0  0  0  0  0
  152.1062  144.4184  158.2040 C   0  0  0  0  0  0  0  0  0  0  0  0
  152.1780  144.9460  159.4604 C   0  0  0  0  0  0  0  0  0  0  0  0
  151.4058  144.2339  160.3194 O   0  0  0  0  0  0  0  0  0  0  0  0
  150.7959  143.1969  159.6043 N   0  0  0  0  0  0  0  0  0  0  0  0
  151.1720  140.8640  155.1082 H   0  0  0  0  0  0  0  0  0  0  0  0
  150.4838  137.1788  155.9469 H   0  0  0  0  0  0  0  0  0  0  0  0
  151.2509  136.6006  154.4790 H   0  0  0  0  0  0  0  0  0  0  0  0
  149.6902  137.3757  154.3851 H   0  0  0  0  0  0  0  0  0  0  0  0
  151.5032  138.9191  153.6357 H   0  0  0  0  0  0  0  0  0  0  0  0
  152.7795  138.5339  156.3945 H   0  0  0  0  0  0  0  0  0  0  0  0
  153.4203  139.5218  155.0772 H   0  0  0  0  0  0  0  0  0  0  0  0
  153.3184  137.7912  154.9000 H   0  0  0  0  0  0  0  0  0  0  0  0
  148.7021  139.3014  154.3449 H   0  0  0  0  0  0  0  0  0  0  0  0
  148.5462  140.8255  155.1707 H   0  0  0  0  0  0  0  0  0  0  0  0
  149.2543  140.3058  152.6098 H   0  0  0  0  0  0  0  0  0  0  0  0
  151.2238  142.5504  156.3489 H   0  0  0  0  0  0  0  0  0  0  0  0
  149.6630  142.4225  157.1445 H   0  0  0  0  0  0  0  0  0  0  0  0
  152.6067  144.7657  157.3119 H   0  0  0  0  0  0  0  0  0  0  0  0
  152.7109  145.7844  159.8838 H   0  0  0  0  0  0  0  0  0  0  0  0
  1  2  1  0  0  0  0
  1 18  1  0  0  0  0
  1 19  1  0  0  0  0
  1 20  1  0  0  0  0
  2  3  1  0  0  0  0
  2  4  1  0  0  0  0
  2 21  1  0  0  0  0
  3 22  1  0  0  0  0
  3 23  1  0  0  0  0
  3 24  1  0  0  0  0
  4 17  1  0  0  0  0
  4  5  1  0  0  0  0
  4  7  1  0  0  0  0
  5  6  1  0  0  0  0
  5 25  1  0  0  0  0
  5 26  1  0  0  0  0
  6 27  1  0  0  0  0
  7  8  1  0  0  0  0
  8  9  2  0  0  0  0
  8 10  2  0  0  0  0
  8 11  1  0  0  0  0
 11 12  1  0  0  0  0
 11 28  1  0  0  0  0
 11 29  1  0  0  0  0
 12 16  2  0  0  0  0
 12 13  1  0  0  0  0
 13 14  2  0  0  0  0
 13 30  1  0  0  0  0
 14 15  1  0  0  0  0
 14 31  1  0  0  0  0
 15 16  1  0  0  0  0
M  CHG  1   7  -1
M  END
> <s_m_source_file>
AV-unprocessed.smi

> <i_m_source_file_index>
2926

> <i_lp_mmshare_version>
43012

> <i_f3d_flags>
0

> <s_epik_input>
W0NIM11bQ0hdKFtDSDNdKVtDQEBIXShbQ0gyXVtPSF0pW05IXVMoPU8pKD1PKVtDSDJdYzFbY0hdW2NIXW9uMQ==

> <s_epik_cmdline>
J2VwaWtfcHl0aG9uJywgJy1waCcsICc3LjAnLCAnLXRuJywgJzgnLCAnLW1hJywgJzIwMCcsICctbWV0YWxfYmluZGluZycsICctaW1hZScsICc8aW5maWxlLm1hZT4nLCAnLW9tYWUnLCAnPG91dGZpbGUubWFlPic=

> <r_lp_tautomer_probability>
1

> <r_epik_Ionization_Penalty>
4.75719

> <r_epik_Ionization_Penalty_Charging>
4.75718

> <r_epik_Ionization_Penalty_Neutral>
1.48962e-06

> <r_epik_State_Penalty>
4.75699

> <r_epik_Charging_Adjusted_Penalty>
9.51417

> <i_epik_Tot_Q>
-1

> <i_epik_Tot_abs_Q>
1

> <r_epik_Metal_State_Penalty>
0.961449

> <b_epik_Metal_Only>
1

> <s_lp_Force_Field>
OPLS_2005

> <r_lp_Energy>
4.17098

> <b_lp_Chiralities_Consistent>
1

> <s_lp_Variant>
AV-unprocessed.smi:2926-3

> <Gold.Version>
5.8.1

> <Gold.Id.Protein>
6NUR|6NUR_protein|mol2

> <Gold.PLP.Fitness>
41.5383

> <Gold.PLP.PLP>
-34.2800

> <Gold.PLP.part.hbond>
-4.4284

> <Gold.PLP.part.metal>
0.0000

> <Gold.PLP.part.buried>
-1.8090

> <Gold.PLP.part.nonpolar>
-28.1382

> <Gold.PLP.part.repulsive>
0.1319

> <Gold.PLP.ligand.clash>
0.0000

> <Gold.PLP.ligand.torsion>
1.0858

> <Gold.PLP.Chemscore.Hbond>
2.7508

> <Gold.PLP.Chemscore.CHOScore>
0.0000

> <Gold.PLP.Chemscore.Metal>
0.0000

> <Gold.Chemscore.Hbonds>
donor molecule, donor type, donor heavy atom, donor atom, acceptor molecule, acceptor atom, score
      L1  H     6    27       P1  7957  0.80
      P1  H  7989  7998       L1     6  0.09
      P1  H  7997  8010       L1    10  0.86
      P1  H  8011  8017       L1     6  0.95

> <Gold.PLP.Chemscore.Internal.Correction>
1.1775

> <Gold.Rescore>
     Score         DG    S(hbond)    S(metal)    S(lipo)     H(rot)  DE(clash)    DE(int)     intcor
     12.64     -15.06       1.96        0.00      82.39       2.58       0.04       2.38       ----

> <Gold.Chemscore.Fitness>
12.6433

> <Gold.Chemscore.DG>
-15.0639

> <Gold.Chemscore.ZeroCoef>
-5.4800

> <Gold.Chemscore.Hbond>
1.9591

> <Gold.Chemscore.Metal>
0.0000

> <Gold.Chemscore.Lipo>
82.3852

> <Gold.Chemscore.Internal_Hbond>
0.0000

> <Gold.Chemscore.DEClash>
0.0423

> <Gold.Chemscore.DEInternal>
2.3783

> <Gold.Chemscore.Rot>
2.5776

> <Gold.Chemscore.Internal.Correction>
   9.000000E+99

> <Gold.Chemscore.Hbonds>
donor molecule, donor type, donor heavy atom, donor atom, acceptor molecule, acceptor atom, score
      L1  H     6    27       P1  7957  0.76
      P1  H  7997  8010       L1    10  0.79
      P1  H  8011  8017       L1     6  0.21

> <Gold.Chemscore.Hbond.Weighted>
-6.5435

> <Gold.Chemscore.Metal.Weighted>
-0.0000

> <Gold.Chemscore.Lipo.Weighted>
-9.6391

> <Gold.Chemscore.Internal_Hbond.Weighted>
0.0000

> <Gold.Chemscore.DEClash.Weighted>
0.0423

> <Gold.Chemscore.DEInternal.Weighted>
2.3783

> <Gold.Chemscore.Rot.Weighted>
6.5987

> <Gold.Chemscore.Internal.Correction.Weighted>
   9.000000E+99

> <Gold.Protein.RotatedTorsions>
[ 6907 6896 6895 6894 ] final -119.89 input  -60.11 | X-H torsion
[ 7974 7965 7964 7962 ] final   62.38 input  175.53 | X-H torsion
[ 8008 7997 7996 7995 ] final   55.08 input   59.86 | X-H torsion
[ 10167 10162 10161 10158 ] final  -43.74 input  -65.29 | X-H torsion
[ 10718 10713 10712 10709 ] final  -89.03 input   66.30 | X-H torsion
[ 10763 10752 10751 10750 ] final   92.53 input  -60.55 | X-H torsion
[ 11005 11000 10999 10996 ] final  -31.45 input  -57.11 | X-H torsion

> <Gold.Protein.ActiveResidues>
 VAL166  LYS551  ARG553  GLY616  TRP617  ASP618  TYR619  PRO620  LYS621  CYS622 
 ASP623  PHE694  ASN695  SER759  ASP760  ASP761  ALA762  ILE779  LEU786  VAL792 
 PHE793  MET794  SER795  GLU796  ALA797  LYS798  CYS799  TRP800  GLU811  SER814 

> <Gold.Protein.RotatedAtoms>
  150.8345  133.8036  159.3084 H   0  0  0  0  0  0  0  0  0  0  0  0  # atno 6907 bound_to 6896
  151.5756  135.1059  160.0015 H   0  0  0  0  0  0  0  0  0  0  0  0  # atno 6908 bound_to 6896
  152.4420  133.7423  159.6704 H   0  0  0  0  0  0  0  0  0  0  0  0  # atno 6909 bound_to 6896
  145.8740  139.3397  143.0746 H   0  0  0  0  0  0  0  0  0  0  0  0  # atno 7974 bound_to 7965
  155.4953  140.3473  155.4362 H   0  0  0  0  0  0  0  0  0  0  0  0  # atno 8008 bound_to 7997
  156.0950  140.1420  156.9571 H   0  0  0  0  0  0  0  0  0  0  0  0  # atno 8009 bound_to 7997
  154.4658  140.0918  156.6993 H   0  0  0  0  0  0  0  0  0  0  0  0  # atno 8010 bound_to 7997
  140.6923  143.2967  151.3395 H   0  0  0  0  0  0  0  0  0  0  0  0  # atno 10167 bound_to 10162
  155.9984  130.4857  150.5109 H   0  0  0  0  0  0  0  0  0  0  0  0  # atno 10718 bound_to 10713
  153.2202  135.4358  155.0480 H   0  0  0  0  0  0  0  0  0  0  0  0  # atno 10763 bound_to 10752
  154.8246  135.3354  154.6939 H   0  0  0  0  0  0  0  0  0  0  0  0  # atno 10764 bound_to 10752
  153.7371  135.7007  153.5031 H   0  0  0  0  0  0  0  0  0  0  0  0  # atno 10765 bound_to 10752
  140.9469  133.7244  156.1160 H   0  0  0  0  0  0  0  0  0  0  0  0  # atno 11005 bound_to 11000
  145.9103  140.9184  143.0457 LP  0  0  0  0  0  0  0  0  0  0  0  0  # atno 17320 bound_to 7965
  144.6726  140.1151  143.7453 LP  0  0  0  0  0  0  0  0  0  0  0  0  # atno 17321 bound_to 7965
  139.6339  144.0669  152.2499 LP  0  0  0  0  0  0  0  0  0  0  0  0  # atno 17342 bound_to 10162
  140.0152  144.6194  150.7613 LP  0  0  0  0  0  0  0  0  0  0  0  0  # atno 17343 bound_to 10162
  157.3082  131.0658  151.2020 LP  0  0  0  0  0  0  0  0  0  0  0  0  # atno 17370 bound_to 10713
  157.2975  130.6826  149.6146 LP  0  0  0  0  0  0  0  0  0  0  0  0  # atno 17371 bound_to 10713
  140.7657  134.3889  157.5517 LP  0  0  0  0  0  0  0  0  0  0  0  0  # atno 17394 bound_to 11000
  139.8836  134.8990  156.2756 LP  0  0  0  0  0  0  0  0  0  0  0  0  # atno 17395 bound_to 11000

$$$$
