AV-unprocessed.smi:103|AV-procd|sdf|983|dock1
  -GOLD-   2262017553D 1   1.00000     0.00000
 Structure written by MMmdl.
 53 55  0  0  0  0  0  0  0  0  1 V2000
  145.8004  134.5570  161.6943 C   0  0  0  0  0  0  0  0  0  0  0  0
  146.1707  135.6457  160.6958 C   0  0  0  0  0  0  0  0  0  0  0  0
  145.8527  136.8211  160.8770 O   0  0  0  0  0  0  0  0  0  0  0  0
  146.8544  135.1645  159.6480 O   0  0  0  0  0  0  0  0  0  0  0  0
  147.3364  136.0507  158.6513 C   0  0  0  0  0  0  0  0  0  0  0  0
  148.8650  135.9569  158.5847 C   0  0  2  0  0  0  0  0  0  0  0  0
  149.4421  137.0349  159.3042 O   0  0  0  0  0  0  0  0  0  0  0  0
  150.7200  137.2931  158.8146 C   0  0  2  0  0  0  0  0  0  0  0  0
  150.8932  138.7834  158.7636 N   0  0  0  0  0  0  0  0  0  0  0  0
  151.7733  139.5977  159.4487 C   0  0  0  0  0  0  0  0  0  0  0  0
  153.0217  139.0720  160.6187 S   0  0  0  0  0  0  0  0  0  0  0  0
  152.8629  140.3351  161.9463 C   0  0  0  0  0  0  0  0  0  0  0  0
  152.5942  137.7662  161.1454 O   0  0  0  0  0  0  0  0  0  0  0  0
  154.3268  139.2189  159.9568 O   0  0  0  0  0  0  0  0  0  0  0  0
  151.7387  140.8710  159.1617 N   0  0  0  0  0  0  0  0  0  0  0  0
  150.7297  140.9533  158.2131 C   0  0  0  0  0  0  0  0  0  0  0  0
  150.1562  142.0189  157.4748 C   0  0  0  0  0  0  0  0  0  0  0  0
  150.5494  143.2938  157.6045 N   0  0  0  0  0  0  0  0  0  0  0  0
  149.1670  141.7372  156.5950 N   0  0  0  0  0  0  0  0  0  0  0  0
  148.7590  140.4730  156.4445 C   0  0  0  0  0  0  0  0  0  0  0  0
  149.1982  139.3744  157.0640 N   0  0  0  0  0  0  0  0  0  0  0  0
  150.1930  139.6594  157.9557 C   0  0  0  0  0  0  0  0  0  0  0  0
  150.8410  136.6335  157.4235 C   0  0  2  0  0  0  0  0  0  0  0  0
  151.2263  137.5608  156.4126 O   0  0  0  0  0  0  0  0  0  0  0  0
  152.5217  137.7575  156.1263 C   0  0  0  0  0  0  0  0  0  0  0  0
  152.7216  138.8417  155.0764 C   0  0  0  0  0  0  0  0  0  0  0  0
  153.4747  137.1603  156.6267 O   0  0  0  0  0  0  0  0  0  0  0  0
  149.4384  136.1001  157.1744 C   0  0  1  0  0  0  0  0  0  0  0  0
  149.5238  134.8380  156.5236 O   0  0  0  0  0  0  0  0  0  0  0  0
  150.1757  134.7133  155.3545 C   0  0  0  0  0  0  0  0  0  0  0  0
  150.2484  133.2672  154.8842 C   0  0  0  0  0  0  0  0  0  0  0  0
  150.6678  135.6280  154.6942 O   0  0  0  0  0  0  0  0  0  0  0  0
  146.6717  134.2750  162.2855 H   0  0  0  0  0  0  0  0  0  0  0  0
  145.4329  133.6723  161.1738 H   0  0  0  0  0  0  0  0  0  0  0  0
  145.0209  134.9076  162.3709 H   0  0  0  0  0  0  0  0  0  0  0  0
  146.9049  135.8161  157.6768 H   0  0  0  0  0  0  0  0  0  0  0  0
  147.0330  137.0664  158.9076 H   0  0  0  0  0  0  0  0  0  0  0  0
  149.2155  135.0321  159.0469 H   0  0  0  0  0  0  0  0  0  0  0  0
  151.4653  136.9255  159.5143 H   0  0  0  0  0  0  0  0  0  0  0  0
  153.5476  140.0936  162.7589 H   0  0  0  0  0  0  0  0  0  0  0  0
  151.8401  140.3400  162.3227 H   0  0  0  0  0  0  0  0  0  0  0  0
  153.1080  141.3194  161.5507 H   0  0  0  0  0  0  0  0  0  0  0  0
  151.2871  143.5295  158.2527 H   0  0  0  0  0  0  0  0  0  0  0  0
  150.1026  144.0170  157.0598 H   0  0  0  0  0  0  0  0  0  0  0  0
  147.9679  140.3194  155.7254 H   0  0  0  0  0  0  0  0  0  0  0  0
  151.5577  135.8159  157.5200 H   0  0  0  0  0  0  0  0  0  0  0  0
  152.2977  139.7848  155.4215 H   0  0  0  0  0  0  0  0  0  0  0  0
  152.2301  138.5606  154.1450 H   0  0  0  0  0  0  0  0  0  0  0  0
  153.7828  138.9913  154.8763 H   0  0  0  0  0  0  0  0  0  0  0  0
  148.8638  136.8396  156.6140 H   0  0  0  0  0  0  0  0  0  0  0  0
  150.4812  132.6058  155.7188 H   0  0  0  0  0  0  0  0  0  0  0  0
  151.0227  133.1505  154.1260 H   0  0  0  0  0  0  0  0  0  0  0  0
  149.2941  132.9625  154.4544 H   0  0  0  0  0  0  0  0  0  0  0  0
  1  2  1  0  0  0  0
  1 33  1  0  0  0  0
  1 34  1  0  0  0  0
  1 35  1  0  0  0  0
  2  3  2  0  0  0  0
  2  4  1  0  0  0  0
  4  5  1  0  0  0  0
  5  6  1  0  0  0  0
  5 36  1  0  0  0  0
  5 37  1  0  0  0  0
  6 28  1  0  0  0  0
  6  7  1  0  0  0  0
  6 38  1  0  0  0  0
  7  8  1  0  0  0  0
  8  9  1  0  0  0  0
  8 23  1  0  0  0  0
  8 39  1  0  0  0  0
  9 22  1  0  0  0  0
  9 10  1  0  0  0  0
 10 11  1  0  0  0  0
 10 15  2  0  0  0  0
 11 12  1  0  0  0  0
 11 13  2  0  0  0  0
 11 14  2  0  0  0  0
 12 40  1  0  0  0  0
 12 41  1  0  0  0  0
 12 42  1  0  0  0  0
 15 16  1  0  0  0  0
 16 22  2  0  0  0  0
 16 17  1  0  0  0  0
 17 18  1  0  0  0  0
 17 19  2  0  0  0  0
 18 43  1  0  0  0  0
 18 44  1  0  0  0  0
 19 20  1  0  0  0  0
 20 21  2  0  0  0  0
 20 45  1  0  0  0  0
 21 22  1  0  0  0  0
 23 24  1  0  0  0  0
 23 28  1  0  0  0  0
 23 46  1  0  0  0  0
 24 25  1  0  0  0  0
 25 26  1  0  0  0  0
 25 27  2  0  0  0  0
 26 47  1  0  0  0  0
 26 48  1  0  0  0  0
 26 49  1  0  0  0  0
 28 29  1  0  0  0  0
 28 50  1  0  0  0  0
 29 30  1  0  0  0  0
 30 31  1  0  0  0  0
 30 32  2  0  0  0  0
 31 51  1  0  0  0  0
 31 52  1  0  0  0  0
 31 53  1  0  0  0  0
M  END
> <s_m_source_file>
AV-unprocessed.smi

> <i_m_source_file_index>
103

> <i_lp_mmshare_version>
43012

> <i_f3d_flags>
0

> <s_epik_input>
W0NIM11DKD1PKU9bQ0gyXVtDQEBIXTFPW0NASF0oW0NAQEhdKE9DKD1PKVtDSDNdKVtDQEhdMU9DKD1PKVtDSDNdKW4oYyhuMilTKD1PKSg9TylbQ0gzXSljKGMyMyluW2NIXW5jM1tOSDJd

> <s_epik_cmdline>
J2VwaWtfcHl0aG9uJywgJy1waCcsICc3LjAnLCAnLXRuJywgJzgnLCAnLW1hJywgJzIwMCcsICctbWV0YWxfYmluZGluZycsICctaW1hZScsICc8aW5maWxlLm1hZT4nLCAnLW9tYWUnLCAnPG91dGZpbGUubWFlPic=

> <r_lp_tautomer_probability>
1

> <r_epik_Ionization_Penalty>
1.51338e-05

> <r_epik_Ionization_Penalty_Charging>
0

> <r_epik_Ionization_Penalty_Neutral>
1.51338e-05

> <r_epik_State_Penalty>
-0

> <r_epik_Charging_Adjusted_Penalty>
0

> <i_epik_Tot_Q>
0

> <i_epik_Tot_abs_Q>
0

> <r_epik_Metal_State_Penalty>
-0

> <b_epik_Metal_Only>
0

> <s_epik_Chemistry_Notes>
This compound has an ester and may undergo hydrolysis at high or low pH. This compound contains an acetal/aminal-like group ( X-CH(R)-Y where X, Y are N, S, or O) that may be acid/base labile, releasing an aldehyde.

> <s_lp_Force_Field>
OPLS_2005

> <r_lp_Energy>
14.5233

> <b_lp_Chiralities_Consistent>
1

> <s_lp_Variant>
AV-unprocessed.smi:103-7

> <Gold.Version>
5.8.1

> <Gold.Id.Protein>
6NUR|6NUR_protein|mol2

> <Gold.PLP.Fitness>
53.0548

> <Gold.PLP.PLP>
-44.3893

> <Gold.PLP.part.hbond>
-6.0000

> <Gold.PLP.part.metal>
0.0000

> <Gold.PLP.part.buried>
-7.0510

> <Gold.PLP.part.nonpolar>
-32.3240

> <Gold.PLP.part.repulsive>
1.1432

> <Gold.PLP.ligand.clash>
0.0000

> <Gold.PLP.ligand.torsion>
2.4900

> <Gold.PLP.Chemscore.Hbond>
3.7730

> <Gold.PLP.Chemscore.CHOScore>
0.0000

> <Gold.PLP.Chemscore.Metal>
0.0000

> <Gold.Chemscore.Hbonds>
donor molecule, donor type, donor heavy atom, donor atom, acceptor molecule, acceptor atom, score
      L1  H    18    44       P1  8028  1.00
      P1  H 10752 10765       L1    27  0.44

> <Gold.PLP.Chemscore.Internal.Correction>
2.3266

> <Gold.Rescore>
     Score         DG    S(hbond)    S(metal)    S(lipo)     H(rot)  DE(clash)    DE(int)     intcor
      1.96      -9.62       2.65        0.00      52.54       4.25       0.16       7.50       ----

> <Gold.Chemscore.Fitness>
1.9599

> <Gold.Chemscore.DG>
-9.6192

> <Gold.Chemscore.ZeroCoef>
-5.4800

> <Gold.Chemscore.Hbond>
2.6530

> <Gold.Chemscore.Metal>
0.0000

> <Gold.Chemscore.Lipo>
52.5375

> <Gold.Chemscore.Internal_Hbond>
0.0000

> <Gold.Chemscore.DEClash>
0.1629

> <Gold.Chemscore.DEInternal>
7.4964

> <Gold.Chemscore.Rot>
4.2456

> <Gold.Chemscore.Internal.Correction>
   9.000000E+99

> <Gold.Chemscore.Hbonds>
donor molecule, donor type, donor heavy atom, donor atom, acceptor molecule, acceptor atom, score
      L1  H    18    44       P1  8028  0.90
      P1  H 10752 10765       L1    27  0.16

> <Gold.Chemscore.Hbond.Weighted>
-8.8610

> <Gold.Chemscore.Metal.Weighted>
-0.0000

> <Gold.Chemscore.Lipo.Weighted>
-6.1469

> <Gold.Chemscore.Internal_Hbond.Weighted>
0.0000

> <Gold.Chemscore.DEClash.Weighted>
0.1629

> <Gold.Chemscore.DEInternal.Weighted>
7.4964

> <Gold.Chemscore.Rot.Weighted>
10.8687

> <Gold.Chemscore.Internal.Correction.Weighted>
   9.000000E+99

> <Gold.Protein.RotatedTorsions>
[ 6907 6896 6895 6894 ] final -173.70 input  -60.11 | X-H torsion
[ 7974 7965 7964 7962 ] final -164.10 input  175.53 | X-H torsion
[ 8008 7997 7996 7995 ] final -115.97 input   59.86 | X-H torsion
[ 10167 10162 10161 10158 ] final  169.51 input  -65.29 | X-H torsion
[ 10718 10713 10712 10709 ] final  -34.70 input   66.30 | X-H torsion
[ 10763 10752 10751 10750 ] final -118.03 input  -60.55 | X-H torsion
[ 11005 11000 10999 10996 ] final -166.62 input  -57.11 | X-H torsion

> <Gold.Protein.ActiveResidues>
 VAL166  LYS551  ARG553  GLY616  TRP617  ASP618  TYR619  PRO620  LYS621  CYS622 
 ASP623  PHE694  ASN695  SER759  ASP760  ASP761  ALA762  ILE779  LEU786  VAL792 
 PHE793  MET794  SER795  GLU796  ALA797  LYS798  CYS799  TRP800  GLU811  SER814 

> <Gold.Protein.RotatedAtoms>
  151.5604  133.3404  159.2969 H   0  0  0  0  0  0  0  0  0  0  0  0  # atno 6907 bound_to 6896
  150.8426  134.7726  159.6956 H   0  0  0  0  0  0  0  0  0  0  0  0  # atno 6908 bound_to 6896
  152.4490  134.5440  159.9899 H   0  0  0  0  0  0  0  0  0  0  0  0  # atno 6909 bound_to 6896
  144.7306  140.3011  143.6204 H   0  0  0  0  0  0  0  0  0  0  0  0  # atno 7974 bound_to 7965
  155.0605  140.0393  157.2575 H   0  0  0  0  0  0  0  0  0  0  0  0  # atno 8008 bound_to 7997
  154.7063  140.2683  155.6647 H   0  0  0  0  0  0  0  0  0  0  0  0  # atno 8009 bound_to 7997
  156.2776  140.2730  156.1691 H   0  0  0  0  0  0  0  0  0  0  0  0  # atno 8010 bound_to 7997
  139.4994  144.3698  151.9737 H   0  0  0  0  0  0  0  0  0  0  0  0  # atno 10167 bound_to 10162
  156.3474  130.4303  149.7734 H   0  0  0  0  0  0  0  0  0  0  0  0  # atno 10718 bound_to 10713
  154.8574  135.4288  154.2073 H   0  0  0  0  0  0  0  0  0  0  0  0  # atno 10763 bound_to 10752
  153.3107  135.6975  153.7124 H   0  0  0  0  0  0  0  0  0  0  0  0  # atno 10764 bound_to 10752
  153.6218  135.3500  155.2987 H   0  0  0  0  0  0  0  0  0  0  0  0  # atno 10765 bound_to 10752
  140.5625  134.5319  157.5146 H   0  0  0  0  0  0  0  0  0  0  0  0  # atno 11005 bound_to 11000
  145.7759  139.1874  143.2185 LP  0  0  0  0  0  0  0  0  0  0  0  0  # atno 17320 bound_to 7965
  146.0873  140.7696  142.9612 LP  0  0  0  0  0  0  0  0  0  0  0  0  # atno 17321 bound_to 7965
  140.3134  144.3512  150.6028 LP  0  0  0  0  0  0  0  0  0  0  0  0  # atno 17342 bound_to 10162
  140.5781  143.2175  151.7479 LP  0  0  0  0  0  0  0  0  0  0  0  0  # atno 17343 bound_to 10162
  156.4947  130.8101  151.3109 LP  0  0  0  0  0  0  0  0  0  0  0  0  # atno 17370 bound_to 10713
  157.7456  130.9964  150.2778 LP  0  0  0  0  0  0  0  0  0  0  0  0  # atno 17371 bound_to 10713
  139.9401  134.7803  156.0701 LP  0  0  0  0  0  0  0  0  0  0  0  0  # atno 17394 bound_to 11000
  141.1106  133.6644  156.2969 LP  0  0  0  0  0  0  0  0  0  0  0  0  # atno 17395 bound_to 11000

$$$$
