AV-unprocessed.smi:2119|AV-procd|sdf|8634|dock10
  -GOLD-   2272011383D 1   1.00000     0.00000
 Structure written by MMmdl.
 48 50  0  0  0  0  0  0  0  0  2 V2000
  145.0974  136.0469  153.9344 O   0  0  0  0  0  0  0  0  0  0  0  0
  146.1671  135.9034  153.3425 C   0  0  0  0  0  0  0  0  0  0  0  0
  147.2537  136.6456  153.5959 N   0  0  0  0  0  0  0  0  0  0  0  0
  147.3151  137.7210  154.5788 C   0  0  0  0  0  0  0  0  0  0  0  0
  148.4600  138.7424  154.3206 C   0  0  2  0  0  0  0  0  0  0  0  0
  149.8038  138.3710  155.0099 C   0  0  2  0  0  0  0  0  0  0  0  0
  150.9679  139.2727  154.6287 C   0  0  0  0  0  0  0  0  0  0  0  0
  152.1733  138.4479  155.0612 C   0  0  0  0  0  0  0  0  0  0  0  0
  151.7996  137.0943  154.8403 O   0  0  0  0  0  0  0  0  0  0  0  0
  150.3933  137.0042  154.6352 C   0  0  0  0  0  0  0  0  0  0  0  0
  148.0585  140.1297  154.7011 N   0  3  0  0  0  0  0  0  0  0  0  0
  147.1692  140.7953  153.7181 C   0  0  0  0  0  0  0  0  0  0  0  0
  146.9806  142.2738  154.0968 C   0  0  0  0  0  0  0  0  0  0  0  0
  146.4656  142.3685  155.4200 O   0  0  0  0  0  0  0  0  0  0  0  0
  147.3479  141.8009  156.3813 C   0  0  0  0  0  0  0  0  0  0  0  0
  147.5411  140.3052  156.0819 C   0  0  0  0  0  0  0  0  0  0  0  0
  146.4105  134.9972  152.3809 N   0  0  0  0  0  0  0  0  0  0  0  0
  145.5077  134.0694  151.7958 C   0  0  0  0  0  0  0  0  0  0  0  0
  145.8841  133.0777  150.8578 C   0  0  0  0  0  0  0  0  0  0  0  0
  144.8996  132.1998  150.3653 C   0  0  0  0  0  0  0  0  0  0  0  0
  143.5787  132.3399  150.8330 C   0  0  0  0  0  0  0  0  0  0  0  0
  143.2086  133.2710  151.7371 N   0  0  0  0  0  0  0  0  0  0  0  0
  144.1580  134.1088  152.2057 C   0  0  0  0  0  0  0  0  0  0  0  0
  148.0951  136.4563  153.0707 H   0  0  0  0  0  0  0  0  0  0  0  0
  146.3450  138.2183  154.6016 H   0  0  0  0  0  0  0  0  0  0  0  0
  147.4403  137.2518  155.5547 H   0  0  0  0  0  0  0  0  0  0  0  0
  148.6591  138.7683  153.2483 H   0  0  0  0  0  0  0  0  0  0  0  0
  149.6852  138.4038  156.0936 H   0  0  0  0  0  0  0  0  0  0  0  0
  150.9918  139.4302  153.5493 H   0  0  0  0  0  0  0  0  0  0  0  0
  150.9369  140.2478  155.1158 H   0  0  0  0  0  0  0  0  0  0  0  0
  153.0786  138.7093  154.5127 H   0  0  0  0  0  0  0  0  0  0  0  0
  152.3677  138.5870  156.1254 H   0  0  0  0  0  0  0  0  0  0  0  0
  149.9741  136.1904  155.2269 H   0  0  0  0  0  0  0  0  0  0  0  0
  150.2206  136.7805  153.5816 H   0  0  0  0  0  0  0  0  0  0  0  0
  147.5984  140.7284  152.7178 H   0  0  0  0  0  0  0  0  0  0  0  0
  146.2002  140.2965  153.6855 H   0  0  0  0  0  0  0  0  0  0  0  0
  147.9238  142.8174  154.0218 H   0  0  0  0  0  0  0  0  0  0  0  0
  146.2824  142.7521  153.4096 H   0  0  0  0  0  0  0  0  0  0  0  0
  148.3040  142.3270  156.3728 H   0  0  0  0  0  0  0  0  0  0  0  0
  146.9202  141.9331  157.3752 H   0  0  0  0  0  0  0  0  0  0  0  0
  146.5866  139.7908  156.1984 H   0  0  0  0  0  0  0  0  0  0  0  0
  148.2319  139.8757  156.8070 H   0  0  0  0  0  0  0  0  0  0  0  0
  147.3643  134.9356  152.0560 H   0  0  0  0  0  0  0  0  0  0  0  0
  146.9026  132.9635  150.5202 H   0  0  0  0  0  0  0  0  0  0  0  0
  145.1530  131.4327  149.6485 H   0  0  0  0  0  0  0  0  0  0  0  0
  142.8000  131.6820  150.4761 H   0  0  0  0  0  0  0  0  0  0  0  0
  143.8265  134.8385  152.9302 H   0  0  0  0  0  0  0  0  0  0  0  0
  148.9181  140.6593  154.6664 H   0  0  0  0  0  0  0  0  0  0  0  0
  1  2  2  0  0  0  0
  2  3  1  0  0  0  0
  2 17  1  0  0  0  0
  3  4  1  0  0  0  0
  3 24  1  0  0  0  0
  4  5  1  0  0  0  0
  4 25  1  0  0  0  0
  4 26  1  0  0  0  0
  5  6  1  0  0  0  0
  5 11  1  0  0  0  0
  5 27  1  0  0  0  0
  6 10  1  0  0  0  0
  6  7  1  0  0  0  0
  6 28  1  0  0  0  0
  7  8  1  0  0  0  0
  7 29  1  0  0  0  0
  7 30  1  0  0  0  0
  8  9  1  0  0  0  0
  8 31  1  0  0  0  0
  8 32  1  0  0  0  0
  9 10  1  0  0  0  0
 10 33  1  0  0  0  0
 10 34  1  0  0  0  0
 11 16  1  0  0  0  0
 11 12  1  0  0  0  0
 11 48  1  0  0  0  0
 12 13  1  0  0  0  0
 12 35  1  0  0  0  0
 12 36  1  0  0  0  0
 13 14  1  0  0  0  0
 13 37  1  0  0  0  0
 13 38  1  0  0  0  0
 14 15  1  0  0  0  0
 15 16  1  0  0  0  0
 15 39  1  0  0  0  0
 15 40  1  0  0  0  0
 16 41  1  0  0  0  0
 16 42  1  0  0  0  0
 17 18  1  0  0  0  0
 17 43  1  0  0  0  0
 18 23  1  0  0  0  0
 18 19  2  0  0  0  0
 19 20  1  0  0  0  0
 19 44  1  0  0  0  0
 20 21  2  0  0  0  0
 20 45  1  0  0  0  0
 21 22  1  0  0  0  0
 21 46  1  0  0  0  0
 22 23  2  0  0  0  0
 23 47  1  0  0  0  0
M  CHG  1  11   1
M  END
> <s_m_source_file>
AV-unprocessed.smi

> <i_m_source_file_index>
2119

> <i_lp_mmshare_version>
43012

> <i_f3d_flags>
0

> <s_epik_input>
W2NIXTFuW2NIXVtjSF1bY0hdYzFbTkhdQyg9TylbTkhdW0NIMl1bQ0BIXShbQ0BASF0yW0NIMl1bQ0gyXU9bQ0gyXTIpTjNbQ0gyXVtDSDJdT1tDSDJdW0NIMl0z

> <s_epik_cmdline>
J2VwaWtfcHl0aG9uJywgJy1waCcsICc3LjAnLCAnLXRuJywgJzgnLCAnLW1hJywgJzIwMCcsICctbWV0YWxfYmluZGluZycsICctaW1hZScsICc8aW5maWxlLm1hZT4nLCAnLW9tYWUnLCAnPG91dGZpbGUubWFlPic=

> <r_epik_Ionization_Penalty>
0.987463

> <r_epik_Ionization_Penalty_Charging>
0.98326

> <r_epik_Ionization_Penalty_Neutral>
0.00420251

> <r_epik_State_Penalty>
1.01721

> <r_epik_Charging_Adjusted_Penalty>
2.00047

> <i_epik_Tot_Q>
1

> <i_epik_Tot_abs_Q>
1

> <r_epik_Metal_State_Penalty>
1.01439

> <b_epik_Metal_Only>
0

> <s_lp_Force_Field>
OPLS_2005

> <r_lp_Energy>
39.8774

> <b_lp_Chiralities_Consistent>
1

> <s_lp_Variant>
AV-unprocessed.smi:2119-5

> <Gold.Version>
5.8.1

> <Gold.Id.Protein>
6NUR|6NUR_protein|mol2

> <Gold.PLP.Fitness>
44.1275

> <Gold.PLP.PLP>
-34.3418

> <Gold.PLP.part.hbond>
-2.8543

> <Gold.PLP.part.metal>
0.0000

> <Gold.PLP.part.buried>
-5.8310

> <Gold.PLP.part.nonpolar>
-27.2967

> <Gold.PLP.part.repulsive>
0.5908

> <Gold.PLP.ligand.clash>
0.0000

> <Gold.PLP.ligand.torsion>
0.8617

> <Gold.PLP.Chemscore.Hbond>
2.7593

> <Gold.PLP.Chemscore.CHOScore>
0.9988

> <Gold.PLP.Chemscore.Metal>
0.0000

> <Gold.Chemscore.Hbonds>
donor molecule, donor type, donor heavy atom, donor atom, acceptor molecule, acceptor atom, score
      L1  H     3    24       P1  7948  0.93
      L1  H    17    43       P1  7948  0.75
      P1  H 10752 10765       L1     9  1.00
      L1  C    21    46       P1 10952  0.95

> <Gold.PLP.Chemscore.Internal.Correction>
0.2349

> <Gold.Rescore>
     Score         DG    S(hbond)    S(metal)    S(lipo)     H(rot)  DE(clash)    DE(int)     intcor
     17.88     -20.04       2.75        0.00      83.27       1.70       0.03       2.13       ----

> <Gold.Chemscore.Fitness>
17.8808

> <Gold.Chemscore.DG>
-20.0371

> <Gold.Chemscore.ZeroCoef>
-5.4800

> <Gold.Chemscore.Hbond>
2.7460

> <Gold.Chemscore.Metal>
0.0000

> <Gold.Chemscore.Lipo>
83.2732

> <Gold.Chemscore.Internal_Hbond>
0.0000

> <Gold.Chemscore.DEClash>
0.0272

> <Gold.Chemscore.DEInternal>
2.1290

> <Gold.Chemscore.Rot>
1.7021

> <Gold.Chemscore.Internal.Correction>
   9.000000E+99

> <Gold.Chemscore.Hbonds>
donor molecule, donor type, donor heavy atom, donor atom, acceptor molecule, acceptor atom, score
      L1  H     3    24       P1  7948  0.88
      L1  H    17    43       P1  7948  0.66
      P1  H 10752 10765       L1     9  0.95

> <Gold.Chemscore.Hbond.Weighted>
-9.1716

> <Gold.Chemscore.Metal.Weighted>
-0.0000

> <Gold.Chemscore.Lipo.Weighted>
-9.7430

> <Gold.Chemscore.Internal_Hbond.Weighted>
0.0000

> <Gold.Chemscore.DEClash.Weighted>
0.0272

> <Gold.Chemscore.DEInternal.Weighted>
2.1290

> <Gold.Chemscore.Rot.Weighted>
4.3575

> <Gold.Chemscore.Internal.Correction.Weighted>
   9.000000E+99

> <Gold.Protein.RotatedTorsions>
[ 6907 6896 6895 6894 ] final  115.88 input  -60.11 | X-H torsion
[ 7974 7965 7964 7962 ] final   62.11 input  175.53 | X-H torsion
[ 8008 7997 7996 7995 ] final  -14.64 input   59.86 | X-H torsion
[ 10167 10162 10161 10158 ] final -104.34 input  -65.29 | X-H torsion
[ 10718 10713 10712 10709 ] final   54.65 input   66.30 | X-H torsion
[ 10763 10752 10751 10750 ] final  171.82 input  -60.55 | X-H torsion
[ 11005 11000 10999 10996 ] final   57.36 input  -57.11 | X-H torsion

> <Gold.Protein.ActiveResidues>
 VAL166  LYS551  ARG553  GLY616  TRP617  ASP618  TYR619  PRO620  LYS621  CYS622 
 ASP623  PHE694  ASN695  SER759  ASP760  ASP761  ALA762  ILE779  LEU786  VAL792 
 PHE793  MET794  SER795  GLU796  ALA797  LYS798  CYS799  TRP800  GLU811  SER814 

> <Gold.Protein.RotatedAtoms>
  152.4713  133.8037  159.6966 H   0  0  0  0  0  0  0  0  0  0  0  0  # atno 6907 bound_to 6896
  150.8704  133.7503  159.2969 H   0  0  0  0  0  0  0  0  0  0  0  0  # atno 6908 bound_to 6896
  151.5040  135.1066  159.9888 H   0  0  0  0  0  0  0  0  0  0  0  0  # atno 6909 bound_to 6896
  145.8771  139.3417  143.0728 H   0  0  0  0  0  0  0  0  0  0  0  0  # atno 7974 bound_to 7965
  154.5194  140.2217  155.9004 H   0  0  0  0  0  0  0  0  0  0  0  0  # atno 8008 bound_to 7997
  156.1645  140.3135  155.8829 H   0  0  0  0  0  0  0  0  0  0  0  0  # atno 8009 bound_to 7997
  155.3685  140.0465  157.3036 H   0  0  0  0  0  0  0  0  0  0  0  0  # atno 8010 bound_to 7997
  140.2103  143.3752  152.1056 H   0  0  0  0  0  0  0  0  0  0  0  0  # atno 10167 bound_to 10162
  157.5275  130.8607  149.8642 H   0  0  0  0  0  0  0  0  0  0  0  0  # atno 10718 bound_to 10713
  154.4173  135.2757  155.1998 H   0  0  0  0  0  0  0  0  0  0  0  0  # atno 10763 bound_to 10752
  154.3958  135.6055  153.5873 H   0  0  0  0  0  0  0  0  0  0  0  0  # atno 10764 bound_to 10752
  152.9832  135.5914  154.4464 H   0  0  0  0  0  0  0  0  0  0  0  0  # atno 10765 bound_to 10752
  140.0458  134.5807  155.9324 H   0  0  0  0  0  0  0  0  0  0  0  0  # atno 11005 bound_to 11000
  145.9068  140.9206  143.0474 LP  0  0  0  0  0  0  0  0  0  0  0  0  # atno 17320 bound_to 7965
  144.6726  140.1107  143.7455 LP  0  0  0  0  0  0  0  0  0  0  0  0  # atno 17321 bound_to 7965
  139.5182  144.7003  151.5512 LP  0  0  0  0  0  0  0  0  0  0  0  0  # atno 17342 bound_to 10162
  140.6328  143.9042  150.6621 LP  0  0  0  0  0  0  0  0  0  0  0  0  # atno 17343 bound_to 10162
  156.0398  130.3742  150.1465 LP  0  0  0  0  0  0  0  0  0  0  0  0  # atno 17370 bound_to 10713
  156.9651  130.9817  151.3471 LP  0  0  0  0  0  0  0  0  0  0  0  0  # atno 17371 bound_to 10713
  141.1906  133.6569  156.5420 LP  0  0  0  0  0  0  0  0  0  0  0  0  # atno 17394 bound_to 11000
  140.3995  134.7369  157.4771 LP  0  0  0  0  0  0  0  0  0  0  0  0  # atno 17395 bound_to 11000

$$$$
