AV-unprocessed.smi:1406|AV-procd|sdf|5724|dock6
  -GOLD-   22720 5353D 1   1.00000     0.00000
 Structure written by MMmdl.
 41 43  0  0  0  0  0  0  0  0  2 V2000
  151.2124  137.4971  159.4773 C   0  0  0  0  0  0  0  0  0  0  0  0
  152.7248  137.6716  159.2318 C   0  0  1  0  0  0  0  0  0  0  0  0
  153.0802  139.0799  158.7315 C   0  0  0  0  0  0  0  0  0  0  0  0
  154.2291  139.3502  158.3800 O   0  0  0  0  0  0  0  0  0  0  0  0
  152.0777  139.9725  158.7073 N   0  0  0  0  0  0  0  0  0  0  0  0
  152.1951  141.3612  158.2733 C   0  0  1  0  0  0  0  0  0  0  0  0
  151.3214  141.6856  157.0676 C   0  0  0  0  0  0  0  0  0  0  0  0
  151.2341  143.2111  157.1342 C   0  0  0  0  0  0  0  0  0  0  0  0
  151.2450  143.5561  158.5742 N   0  3  2  0  0  0  0  0  0  0  0  0
  151.9398  144.8258  158.8998 C   0  0  0  0  0  0  0  0  0  0  0  0
  151.8828  145.1036  160.4131 C   0  0  0  0  0  0  0  0  0  0  0  0
  152.3337  143.8992  161.2662 C   0  0  0  0  0  0  0  0  0  0  0  0
  152.7648  142.6997  160.4077 C   0  0  0  0  0  0  0  0  0  0  0  0
  151.7038  142.3596  159.3361 C   0  0  2  0  0  0  0  0  0  0  0  0
  153.5199  137.3397  160.4077 N   0  0  0  0  0  0  0  0  0  0  0  0
  154.1043  138.1411  161.3010 C   0  0  0  0  0  0  0  0  0  0  0  0
  154.7147  137.4970  162.2854 N   0  0  0  0  0  0  0  0  0  0  0  0
  154.4420  136.2097  161.9190 C   0  0  0  0  0  0  0  0  0  0  0  0
  153.7196  136.0593  160.8090 N   0  0  0  0  0  0  0  0  0  0  0  0
  150.6414  137.7081  158.5724 H   0  0  0  0  0  0  0  0  0  0  0  0
  150.8431  138.1595  160.2614 H   0  0  0  0  0  0  0  0  0  0  0  0
  150.9836  136.4737  159.7755 H   0  0  0  0  0  0  0  0  0  0  0  0
  153.0045  136.9646  158.4487 H   0  0  0  0  0  0  0  0  0  0  0  0
  151.1650  139.6645  159.0104 H   0  0  0  0  0  0  0  0  0  0  0  0
  153.2291  141.5872  158.0032 H   0  0  0  0  0  0  0  0  0  0  0  0
  151.7419  141.3266  156.1277 H   0  0  0  0  0  0  0  0  0  0  0  0
  150.3279  141.2491  157.1851 H   0  0  0  0  0  0  0  0  0  0  0  0
  152.1073  143.6424  156.6417 H   0  0  0  0  0  0  0  0  0  0  0  0
  150.3458  143.6015  156.6374 H   0  0  0  0  0  0  0  0  0  0  0  0
  152.9775  144.7743  158.5661 H   0  0  0  0  0  0  0  0  0  0  0  0
  151.4749  145.6460  158.3518 H   0  0  0  0  0  0  0  0  0  0  0  0
  152.4966  145.9743  160.6460 H   0  0  0  0  0  0  0  0  0  0  0  0
  150.8631  145.3739  160.6907 H   0  0  0  0  0  0  0  0  0  0  0  0
  153.1503  144.1918  161.9271 H   0  0  0  0  0  0  0  0  0  0  0  0
  151.5131  143.5955  161.9175 H   0  0  0  0  0  0  0  0  0  0  0  0
  153.7198  142.9246  159.9306 H   0  0  0  0  0  0  0  0  0  0  0  0
  152.9456  141.8356  161.0472 H   0  0  0  0  0  0  0  0  0  0  0  0
  150.8164  141.9585  159.8286 H   0  0  0  0  0  0  0  0  0  0  0  0
  154.0790  139.2187  161.2324 H   0  0  0  0  0  0  0  0  0  0  0  0
  154.7789  135.3580  162.4913 H   0  0  0  0  0  0  0  0  0  0  0  0
  150.2802  143.6883  158.8426 H   0  0  0  0  0  0  0  0  0  0  0  0
  1  2  1  0  0  0  0
  1 20  1  0  0  0  0
  1 21  1  0  0  0  0
  1 22  1  0  0  0  0
  2  3  1  0  0  0  0
  2 15  1  0  0  0  0
  2 23  1  0  0  0  0
  3  4  2  0  0  0  0
  3  5  1  0  0  0  0
  5  6  1  0  0  0  0
  5 24  1  0  0  0  0
  6 14  1  0  0  0  0
  6  7  1  0  0  0  0
  6 25  1  0  0  0  0
  7  8  1  0  0  0  0
  7 26  1  0  0  0  0
  7 27  1  0  0  0  0
  8  9  1  0  0  0  0
  8 28  1  0  0  0  0
  8 29  1  0  0  0  0
  9 14  1  0  0  0  0
  9 10  1  0  0  0  0
  9 41  1  0  0  0  0
 10 11  1  0  0  0  0
 10 30  1  0  0  0  0
 10 31  1  0  0  0  0
 11 12  1  0  0  0  0
 11 32  1  0  0  0  0
 11 33  1  0  0  0  0
 12 13  1  0  0  0  0
 12 34  1  0  0  0  0
 12 35  1  0  0  0  0
 13 14  1  0  0  0  0
 13 36  1  0  0  0  0
 13 37  1  0  0  0  0
 14 38  1  0  0  0  0
 15 19  1  0  0  0  0
 15 16  1  0  0  0  0
 16 17  2  0  0  0  0
 16 39  1  0  0  0  0
 17 18  1  0  0  0  0
 18 19  2  0  0  0  0
 18 40  1  0  0  0  0
M  CHG  1   9   1
M  END
> <s_m_source_file>
AV-unprocessed.smi

> <i_m_source_file_index>
1406

> <i_lp_mmshare_version>
43012

> <i_f3d_flags>
0

> <s_epik_input>
bjFbY0hdbltjSF1uMVtDQEhdKFtDSDNdKUMoPU8pW05IXVtDQEhdKFtDSDJdW0NIMl0yKVtDQEBIXShOMjMpW0NIMl1bQ0gyXVtDSDJdW0NIMl0z

> <s_epik_cmdline>
J2VwaWtfcHl0aG9uJywgJy1waCcsICc3LjAnLCAnLXRuJywgJzgnLCAnLW1hJywgJzIwMCcsICctbWV0YWxfYmluZGluZycsICctaW1hZScsICc8aW5maWxlLm1hZT4nLCAnLW9tYWUnLCAnPG91dGZpbGUubWFlPic=

> <r_lp_tautomer_probability>
1

> <r_epik_Ionization_Penalty>
0.00197066

> <r_epik_Ionization_Penalty_Charging>
0.00196223

> <r_epik_Ionization_Penalty_Neutral>
8.43107e-06

> <r_epik_State_Penalty>
0.00133866

> <r_epik_Charging_Adjusted_Penalty>
0.00330089

> <i_epik_Tot_Q>
1

> <i_epik_Tot_abs_Q>
1

> <r_epik_Metal_State_Penalty>
-0

> <b_epik_Metal_Only>
0

> <s_lp_Force_Field>
OPLS_2005

> <r_lp_Energy>
45.3415

> <b_lp_Chiralities_Consistent>
1

> <s_lp_Variant>
AV-unprocessed.smi:1406-16

> <Gold.Version>
5.8.1

> <Gold.Id.Protein>
6NUR|6NUR_protein|mol2

> <Gold.PLP.Fitness>
41.4043

> <Gold.PLP.PLP>
-37.1065

> <Gold.PLP.part.hbond>
-1.8032

> <Gold.PLP.part.metal>
0.0000

> <Gold.PLP.part.buried>
-4.1312

> <Gold.PLP.part.nonpolar>
-30.9052

> <Gold.PLP.part.repulsive>
0.1539

> <Gold.PLP.ligand.clash>
0.6182

> <Gold.PLP.ligand.torsion>
0.5802

> <Gold.PLP.Chemscore.Hbond>
1.9913

> <Gold.PLP.Chemscore.CHOScore>
0.0000

> <Gold.PLP.Chemscore.Metal>
0.0000

> <Gold.Chemscore.Hbonds>
donor molecule, donor type, donor heavy atom, donor atom, acceptor molecule, acceptor atom, score
      P1  H  6896  6907       L1    19  0.99
      P1  H  7997  8009       L1     4  1.00

> <Gold.PLP.Chemscore.Internal.Correction>
0.1026

> <Gold.Rescore>
     Score         DG    S(hbond)    S(metal)    S(lipo)     H(rot)  DE(clash)    DE(int)     intcor
     17.40     -17.77       1.78        0.00      95.53       1.89       0.09       0.28       ----

> <Gold.Chemscore.Fitness>
17.3998

> <Gold.Chemscore.DG>
-17.7749

> <Gold.Chemscore.ZeroCoef>
-5.4800

> <Gold.Chemscore.Hbond>
1.7807

> <Gold.Chemscore.Metal>
0.0000

> <Gold.Chemscore.Lipo>
95.5291

> <Gold.Chemscore.Internal_Hbond>
0.0000

> <Gold.Chemscore.DEClash>
0.0935

> <Gold.Chemscore.DEInternal>
0.2816

> <Gold.Chemscore.Rot>
1.8865

> <Gold.Chemscore.Internal.Correction>
   9.000000E+99

> <Gold.Chemscore.Hbonds>
donor molecule, donor type, donor heavy atom, donor atom, acceptor molecule, acceptor atom, score
      P1  H  6896  6907       L1    19  0.55
      P1  H  7997  8009       L1     4  0.89

> <Gold.Chemscore.Hbond.Weighted>
-5.9475

> <Gold.Chemscore.Metal.Weighted>
-0.0000

> <Gold.Chemscore.Lipo.Weighted>
-11.1769

> <Gold.Chemscore.Internal_Hbond.Weighted>
0.0000

> <Gold.Chemscore.DEClash.Weighted>
0.0935

> <Gold.Chemscore.DEInternal.Weighted>
0.2816

> <Gold.Chemscore.Rot.Weighted>
4.8295

> <Gold.Chemscore.Internal.Correction.Weighted>
   9.000000E+99

> <Gold.Protein.RotatedTorsions>
[ 6907 6896 6895 6894 ] final   35.01 input  -60.11 | X-H torsion
[ 7974 7965 7964 7962 ] final  121.27 input  175.53 | X-H torsion
[ 8008 7997 7996 7995 ] final  115.68 input   59.86 | X-H torsion
[ 10167 10162 10161 10158 ] final   82.79 input  -65.29 | X-H torsion
[ 10718 10713 10712 10709 ] final -134.26 input   66.30 | X-H torsion
[ 10763 10752 10751 10750 ] final   26.31 input  -60.55 | X-H torsion
[ 11005 11000 10999 10996 ] final  -40.63 input  -57.11 | X-H torsion

> <Gold.Protein.ActiveResidues>
 VAL166  LYS551  ARG553  GLY616  TRP617  ASP618  TYR619  PRO620  LYS621  CYS622 
 ASP623  PHE694  ASN695  SER759  ASP760  ASP761  ALA762  ILE779  LEU786  VAL792 
 PHE793  MET794  SER795  GLU796  ALA797  LYS798  CYS799  TRP800  GLU811  SER814 

> <Gold.Protein.RotatedAtoms>
  152.1103  134.9279  160.0566 H   0  0  0  0  0  0  0  0  0  0  0  0  # atno 6907 bound_to 6896
  152.0459  133.3993  159.4365 H   0  0  0  0  0  0  0  0  0  0  0  0  # atno 6908 bound_to 6896
  150.6843  134.3283  159.4859 H   0  0  0  0  0  0  0  0  0  0  0  0  # atno 6909 bound_to 6896
  145.1213  139.3387  143.4712 H   0  0  0  0  0  0  0  0  0  0  0  0  # atno 7974 bound_to 7965
  156.2395  140.2933  156.0406 H   0  0  0  0  0  0  0  0  0  0  0  0  # atno 8008 bound_to 7997
  155.1992  140.0409  157.2931 H   0  0  0  0  0  0  0  0  0  0  0  0  # atno 8009 bound_to 7997
  154.6142  140.2459  155.7638 H   0  0  0  0  0  0  0  0  0  0  0  0  # atno 8010 bound_to 7997
  139.9252  144.6187  150.8400 H   0  0  0  0  0  0  0  0  0  0  0  0  # atno 10167 bound_to 10162
  156.2535  130.7167  151.1075 H   0  0  0  0  0  0  0  0  0  0  0  0  # atno 10718 bound_to 10713
  153.0631  135.6563  154.0416 H   0  0  0  0  0  0  0  0  0  0  0  0  # atno 10763 bound_to 10752
  154.0079  135.2931  155.3397 H   0  0  0  0  0  0  0  0  0  0  0  0  # atno 10764 bound_to 10752
  154.6978  135.5257  153.8552 H   0  0  0  0  0  0  0  0  0  0  0  0  # atno 10765 bound_to 10752
  141.0188  133.6872  156.2347 H   0  0  0  0  0  0  0  0  0  0  0  0  # atno 11005 bound_to 11000
  146.3521  140.1174  142.8601 LP  0  0  0  0  0  0  0  0  0  0  0  0  # atno 17320 bound_to 7965
  145.0737  140.9173  143.4867 LP  0  0  0  0  0  0  0  0  0  0  0  0  # atno 17321 bound_to 7965
  140.7652  143.3269  151.2496 LP  0  0  0  0  0  0  0  0  0  0  0  0  # atno 17342 bound_to 10162
  139.6828  143.9824  152.2818 LP  0  0  0  0  0  0  0  0  0  0  0  0  # atno 17343 bound_to 10162
  157.7224  131.0673  150.6080 LP  0  0  0  0  0  0  0  0  0  0  0  0  # atno 17370 bound_to 10713
  156.6162  130.4393  149.5839 LP  0  0  0  0  0  0  0  0  0  0  0  0  # atno 17371 bound_to 10713
  140.6608  134.4970  157.5583 LP  0  0  0  0  0  0  0  0  0  0  0  0  # atno 17394 bound_to 11000
  139.9133  134.8298  156.1451 LP  0  0  0  0  0  0  0  0  0  0  0  0  # atno 17395 bound_to 11000

$$$$
