AV-unprocessed.smi:671|AV-procd|sdf|3273|dock10
  -GOLD-   22720 0233D 1   1.00000     0.00000
 Structure written by MMmdl.
 49 50  0  0  0  0  0  0  0  0  1 V2000
  150.6715  145.0268  159.7203 C   0  0  0  0  0  0  0  0  0  0  0  0
  151.6850  144.0924  160.3181 C   0  0  0  0  0  0  0  0  0  0  0  0
  151.9672  144.1835  161.6068 N   0  0  0  0  0  0  0  0  0  0  0  0
  152.9016  143.2361  161.8227 N   0  0  0  0  0  0  0  0  0  0  0  0
  153.4419  143.0631  163.1572 C   0  0  0  0  0  0  0  0  0  0  0  0
  153.2081  142.5419  160.6683 C   0  0  0  0  0  0  0  0  0  0  0  0
  154.2162  141.4384  160.6466 C   0  0  0  0  0  0  0  0  0  0  0  0
  152.4375  143.0706  159.6673 C   0  0  0  0  0  0  0  0  0  0  0  0
  152.3808  142.6877  158.2108 C   0  0  0  0  0  0  0  0  0  0  0  0
  151.3917  141.5307  157.9445 C   0  0  2  0  0  0  0  0  0  0  0  0
  151.9983  140.4288  157.0617 C   0  0  0  0  0  0  0  0  0  0  0  0
  150.1740  142.0321  157.3023 N   0  0  0  0  0  0  0  0  0  0  0  0
  149.1383  141.3234  156.8158 C   0  0  0  0  0  0  0  0  0  0  0  0
  149.1181  140.0947  156.8526 O   0  0  0  0  0  0  0  0  0  0  0  0
  148.1556  142.0662  156.2797 N   0  0  0  0  0  0  0  0  0  0  0  0
  146.9298  141.5514  155.6777 C   0  0  2  0  0  0  0  0  0  0  0  0
  146.9789  141.7241  154.1482 C   0  0  0  0  0  0  0  0  0  0  0  0
  145.9811  142.8330  153.8166 C   0  0  0  0  0  0  0  0  0  0  0  0
  144.9101  142.6949  154.8929 C   0  0  0  0  0  0  0  0  0  0  0  0
  145.6937  142.3439  156.1625 C   0  0  1  0  0  0  0  0  0  0  0  0
  144.8528  141.6009  157.2102 C   0  0  0  0  0  0  0  0  0  0  0  0
  150.0358  144.5123  159.0005 H   0  0  0  0  0  0  0  0  0  0  0  0
  151.1617  145.8493  159.2000 H   0  0  0  0  0  0  0  0  0  0  0  0
  150.0202  145.4565  160.4818 H   0  0  0  0  0  0  0  0  0  0  0  0
  153.0676  142.1328  163.5850 H   0  0  0  0  0  0  0  0  0  0  0  0
  153.1490  143.8933  163.8013 H   0  0  0  0  0  0  0  0  0  0  0  0
  154.5305  143.0232  163.1120 H   0  0  0  0  0  0  0  0  0  0  0  0
  154.1600  140.8684  159.7198 H   0  0  0  0  0  0  0  0  0  0  0  0
  154.0533  140.7438  161.4710 H   0  0  0  0  0  0  0  0  0  0  0  0
  155.2266  141.8380  160.7341 H   0  0  0  0  0  0  0  0  0  0  0  0
  152.0934  143.5594  157.6226 H   0  0  0  0  0  0  0  0  0  0  0  0
  153.3682  142.4129  157.8388 H   0  0  0  0  0  0  0  0  0  0  0  0
  151.1167  141.0673  158.8932 H   0  0  0  0  0  0  0  0  0  0  0  0
  152.8690  139.9739  157.5341 H   0  0  0  0  0  0  0  0  0  0  0  0
  152.3121  140.8221  156.0942 H   0  0  0  0  0  0  0  0  0  0  0  0
  151.2769  139.6318  156.8787 H   0  0  0  0  0  0  0  0  0  0  0  0
  150.1330  143.0320  157.1672 H   0  0  0  0  0  0  0  0  0  0  0  0
  148.2660  143.0694  156.2914 H   0  0  0  0  0  0  0  0  0  0  0  0
  146.8230  140.4876  155.8990 H   0  0  0  0  0  0  0  0  0  0  0  0
  147.9772  141.9418  153.7662 H   0  0  0  0  0  0  0  0  0  0  0  0
  146.6529  140.7976  153.6734 H   0  0  0  0  0  0  0  0  0  0  0  0
  146.4662  143.8061  153.9024 H   0  0  0  0  0  0  0  0  0  0  0  0
  145.5777  142.7473  152.8072 H   0  0  0  0  0  0  0  0  0  0  0  0
  144.3121  143.5996  155.0062 H   0  0  0  0  0  0  0  0  0  0  0  0
  144.2340  141.8803  154.6286 H   0  0  0  0  0  0  0  0  0  0  0  0
  146.0268  143.2865  156.6015 H   0  0  0  0  0  0  0  0  0  0  0  0
  144.4837  140.6507  156.8228 H   0  0  0  0  0  0  0  0  0  0  0  0
  143.9909  142.1960  157.5129 H   0  0  0  0  0  0  0  0  0  0  0  0
  145.4402  141.3906  158.1043 H   0  0  0  0  0  0  0  0  0  0  0  0
  1  2  1  0  0  0  0
  1 22  1  0  0  0  0
  1 23  1  0  0  0  0
  1 24  1  0  0  0  0
  2  8  1  0  0  0  0
  2  3  2  0  0  0  0
  3  4  1  0  0  0  0
  4  5  1  0  0  0  0
  4  6  1  0  0  0  0
  5 25  1  0  0  0  0
  5 26  1  0  0  0  0
  5 27  1  0  0  0  0
  6  7  1  0  0  0  0
  6  8  2  0  0  0  0
  7 28  1  0  0  0  0
  7 29  1  0  0  0  0
  7 30  1  0  0  0  0
  8  9  1  0  0  0  0
  9 10  1  0  0  0  0
  9 31  1  0  0  0  0
  9 32  1  0  0  0  0
 10 11  1  0  0  0  0
 10 12  1  0  0  0  0
 10 33  1  0  0  0  0
 11 34  1  0  0  0  0
 11 35  1  0  0  0  0
 11 36  1  0  0  0  0
 12 13  1  0  0  0  0
 12 37  1  0  0  0  0
 13 14  2  0  0  0  0
 13 15  1  0  0  0  0
 15 16  1  0  0  0  0
 15 38  1  0  0  0  0
 16 20  1  0  0  0  0
 16 17  1  0  0  0  0
 16 39  1  0  0  0  0
 17 18  1  0  0  0  0
 17 40  1  0  0  0  0
 17 41  1  0  0  0  0
 18 19  1  0  0  0  0
 18 42  1  0  0  0  0
 18 43  1  0  0  0  0
 19 20  1  0  0  0  0
 19 44  1  0  0  0  0
 19 45  1  0  0  0  0
 20 21  1  0  0  0  0
 20 46  1  0  0  0  0
 21 47  1  0  0  0  0
 21 48  1  0  0  0  0
 21 49  1  0  0  0  0
M  END
> <s_m_source_file>
AV-unprocessed.smi

> <i_m_source_file_index>
671

> <i_lp_mmshare_version>
43012

> <i_f3d_flags>
0

> <s_epik_input>
W0NIM11jMW5uKFtDSDNdKWMoW0NIM10pYzFbQ0gyXVtDQEhdKFtDSDNdKVtOSF1DKD1PKVtOSF1bQ0BASF0yW0NIMl1bQ0gyXVtDSDJdW0NASF0yW0NIM10=

> <s_epik_cmdline>
J2VwaWtfcHl0aG9uJywgJy1waCcsICc3LjAnLCAnLXRuJywgJzgnLCAnLW1hJywgJzIwMCcsICctbWV0YWxfYmluZGluZycsICctaW1hZScsICc8aW5maWxlLm1hZT4nLCAnLW9tYWUnLCAnPG91dGZpbGUubWFlPic=

> <r_lp_tautomer_probability>
1

> <r_epik_Ionization_Penalty>
0.0126855

> <r_epik_Ionization_Penalty_Charging>
0

> <r_epik_Ionization_Penalty_Neutral>
0.0126855

> <r_epik_State_Penalty>
0.00977547

> <r_epik_Charging_Adjusted_Penalty>
0.00977547

> <i_epik_Tot_Q>
0

> <i_epik_Tot_abs_Q>
0

> <r_epik_Metal_State_Penalty>
0.00957132

> <b_epik_Metal_Only>
0

> <s_lp_Force_Field>
OPLS_2005

> <r_lp_Energy>
21.9144

> <b_lp_Chiralities_Consistent>
1

> <s_lp_Variant>
AV-unprocessed.smi:671-1

> <Gold.Version>
5.8.1

> <Gold.Id.Protein>
6NUR|6NUR_protein|mol2

> <Gold.PLP.Fitness>
48.3175

> <Gold.PLP.PLP>
-47.7908

> <Gold.PLP.part.hbond>
-1.0000

> <Gold.PLP.part.metal>
0.0000

> <Gold.PLP.part.buried>
-8.1814

> <Gold.PLP.part.nonpolar>
-38.4952

> <Gold.PLP.part.repulsive>
0.2326

> <Gold.PLP.ligand.clash>
0.0000

> <Gold.PLP.ligand.torsion>
1.2475

> <Gold.PLP.Chemscore.Hbond>
1.0000

> <Gold.PLP.Chemscore.CHOScore>
0.0000

> <Gold.PLP.Chemscore.Metal>
0.0000

> <Gold.Chemscore.Hbonds>
donor molecule, donor type, donor heavy atom, donor atom, acceptor molecule, acceptor atom, score
      L1  H    15    38       P1  8028  1.00

> <Gold.PLP.Chemscore.Internal.Correction>
0.0216

> <Gold.Rescore>
     Score         DG    S(hbond)    S(metal)    S(lipo)     H(rot)  DE(clash)    DE(int)     intcor
     15.75     -17.57       0.93        0.00     108.59       1.45       0.02       1.80       ----

> <Gold.Chemscore.Fitness>
15.7465

> <Gold.Chemscore.DG>
-17.5673

> <Gold.Chemscore.ZeroCoef>
-5.4800

> <Gold.Chemscore.Hbond>
0.9265

> <Gold.Chemscore.Metal>
0.0000

> <Gold.Chemscore.Lipo>
108.5854

> <Gold.Chemscore.Internal_Hbond>
0.0000

> <Gold.Chemscore.DEClash>
0.0247

> <Gold.Chemscore.DEInternal>
1.7960

> <Gold.Chemscore.Rot>
1.4499

> <Gold.Chemscore.Internal.Correction>
   9.000000E+99

> <Gold.Chemscore.Hbonds>
donor molecule, donor type, donor heavy atom, donor atom, acceptor molecule, acceptor atom, score
      L1  H    15    38       P1  8028  0.69

> <Gold.Chemscore.Hbond.Weighted>
-3.0946

> <Gold.Chemscore.Metal.Weighted>
-0.0000

> <Gold.Chemscore.Lipo.Weighted>
-12.7045

> <Gold.Chemscore.Internal_Hbond.Weighted>
0.0000

> <Gold.Chemscore.DEClash.Weighted>
0.0247

> <Gold.Chemscore.DEInternal.Weighted>
1.7960

> <Gold.Chemscore.Rot.Weighted>
3.7118

> <Gold.Chemscore.Internal.Correction.Weighted>
   9.000000E+99

> <Gold.Protein.RotatedTorsions>
[ 6907 6896 6895 6894 ] final -173.86 input  -60.11 | X-H torsion
[ 7974 7965 7964 7962 ] final   69.73 input  175.53 | X-H torsion
[ 8008 7997 7996 7995 ] final   27.19 input   59.86 | X-H torsion
[ 10167 10162 10161 10158 ] final   94.23 input  -65.29 | X-H torsion
[ 10718 10713 10712 10709 ] final  173.25 input   66.30 | X-H torsion
[ 10763 10752 10751 10750 ] final  -71.57 input  -60.55 | X-H torsion
[ 11005 11000 10999 10996 ] final  -31.61 input  -57.11 | X-H torsion

> <Gold.Protein.ActiveResidues>
 VAL166  LYS551  ARG553  GLY616  TRP617  ASP618  TYR619  PRO620  LYS621  CYS622 
 ASP623  PHE694  ASN695  SER759  ASP760  ASP761  ALA762  ILE779  LEU786  VAL792 
 PHE793  MET794  SER795  GLU796  ALA797  LYS798  CYS799  TRP800  GLU811  SER814 

> <Gold.Protein.RotatedAtoms>
  151.5631  133.3400  159.2974 H   0  0  0  0  0  0  0  0  0  0  0  0  # atno 6907 bound_to 6896
  150.8411  134.7706  159.6944 H   0  0  0  0  0  0  0  0  0  0  0  0  # atno 6908 bound_to 6896
  152.4478  134.5464  159.9906 H   0  0  0  0  0  0  0  0  0  0  0  0  # atno 6909 bound_to 6896
  145.7868  139.2914  143.1234 H   0  0  0  0  0  0  0  0  0  0  0  0  # atno 7974 bound_to 7965
  155.0391  140.3167  155.4731 H   0  0  0  0  0  0  0  0  0  0  0  0  # atno 8008 bound_to 7997
  156.2858  140.2166  156.5457 H   0  0  0  0  0  0  0  0  0  0  0  0  # atno 8009 bound_to 7997
  154.7305  140.0482  157.0710 H   0  0  0  0  0  0  0  0  0  0  0  0  # atno 8010 bound_to 7997
  139.8103  144.6776  150.9649 H   0  0  0  0  0  0  0  0  0  0  0  0  # atno 10167 bound_to 10162
  156.9671  131.0078  151.2914 H   0  0  0  0  0  0  0  0  0  0  0  0  # atno 10718 bound_to 10713
  154.4336  135.5958  153.6084 H   0  0  0  0  0  0  0  0  0  0  0  0  # atno 10763 bound_to 10752
  152.9800  135.5981  154.3809 H   0  0  0  0  0  0  0  0  0  0  0  0  # atno 10764 bound_to 10752
  154.3650  135.2841  155.2277 H   0  0  0  0  0  0  0  0  0  0  0  0  # atno 10765 bound_to 10752
  140.9482  133.7237  156.1180 H   0  0  0  0  0  0  0  0  0  0  0  0  # atno 11005 bound_to 11000
  146.0018  140.8513  143.0015 LP  0  0  0  0  0  0  0  0  0  0  0  0  # atno 17320 bound_to 7965
  144.6788  140.2363  143.7349 LP  0  0  0  0  0  0  0  0  0  0  0  0  # atno 17321 bound_to 7965
  140.7818  143.4192  151.0869 LP  0  0  0  0  0  0  0  0  0  0  0  0  # atno 17342 bound_to 10162
  139.7859  143.8289  152.3145 LP  0  0  0  0  0  0  0  0  0  0  0  0  # atno 17343 bound_to 10162
  157.5618  130.8251  149.8276 LP  0  0  0  0  0  0  0  0  0  0  0  0  # atno 17370 bound_to 10713
  156.0298  130.3768  150.1720 LP  0  0  0  0  0  0  0  0  0  0  0  0  # atno 17371 bound_to 10713
  140.7639  134.3908  157.5520 LP  0  0  0  0  0  0  0  0  0  0  0  0  # atno 17394 bound_to 11000
  139.8840  134.8979  156.2733 LP  0  0  0  0  0  0  0  0  0  0  0  0  # atno 17395 bound_to 11000

$$$$
