AV-unprocessed.smi:341|AV-procd|sdf|2383|dock3
  -GOLD-   2262022303D 1   1.00000     0.00000
 Structure written by MMmdl.
 44 46  0  0  0  0  0  0  0  0  1 V2000
  154.0870  142.9650  164.3476 C   0  0  0  0  0  0  0  0  0  0  0  0
  152.9594  143.4612  163.4337 C   0  0  0  0  0  0  0  0  0  0  0  0
  153.0685  142.8812  162.0975 N   0  0  0  0  0  0  0  0  0  0  0  0
  153.5908  141.6726  161.7820 C   0  0  0  0  0  0  0  0  0  0  0  0
  154.0467  140.8513  162.5773 O   0  0  0  0  0  0  0  0  0  0  0  0
  153.5270  141.5248  160.4374 N   0  0  0  0  0  0  0  0  0  0  0  0
  153.9771  140.3661  159.6666 C   0  0  0  0  0  0  0  0  0  0  0  0
  152.8153  139.7053  158.8970 C   0  0  1  0  0  0  0  0  0  0  0  0
  153.3073  139.3022  157.6341 O   0  0  0  0  0  0  0  0  0  0  0  0
  152.3014  138.4430  159.6096 C   0  0  0  0  0  0  0  0  0  0  0  0
  153.3364  137.4683  159.6181 O   0  0  0  0  0  0  0  0  0  0  0  0
  153.6174  136.8227  160.8030 C   0  0  0  0  0  0  0  0  0  0  0  0
  154.3603  135.6272  160.7188 C   0  0  0  0  0  0  0  0  0  0  0  0
  154.6934  134.9003  161.8779 C   0  0  0  0  0  0  0  0  0  0  0  0
  154.2836  135.3650  163.1429 C   0  0  0  0  0  0  0  0  0  0  0  0
  154.6254  134.6173  164.3413 C   0  0  0  0  0  0  0  0  0  0  0  0
  154.8974  134.0219  165.2955 N   0  0  0  0  0  0  0  0  0  0  0  0
  153.5409  136.5581  163.2410 C   0  0  0  0  0  0  0  0  0  0  0  0
  153.2086  137.2838  162.0801 C   0  0  0  0  0  0  0  0  0  0  0  0
  152.9502  142.6734  159.8764 C   0  0  0  0  0  0  0  0  0  0  0  0
  152.6663  143.0095  158.5410 C   0  0  0  0  0  0  0  0  0  0  0  0
  152.0722  144.2711  158.3036 C   0  0  0  0  0  0  0  0  0  0  0  0
  151.7809  145.1512  159.3779 C   0  0  0  0  0  0  0  0  0  0  0  0
  152.0762  144.7877  160.7128 C   0  0  0  0  0  0  0  0  0  0  0  0
  152.6637  143.5276  160.9208 C   0  0  0  0  0  0  0  0  0  0  0  0
  153.9990  143.3995  165.3433 H   0  0  0  0  0  0  0  0  0  0  0  0
  155.0653  143.2385  163.9511 H   0  0  0  0  0  0  0  0  0  0  0  0
  154.0596  141.8802  164.4551 H   0  0  0  0  0  0  0  0  0  0  0  0
  151.9915  143.2100  163.8702 H   0  0  0  0  0  0  0  0  0  0  0  0
  152.9856  144.5490  163.3640 H   0  0  0  0  0  0  0  0  0  0  0  0
  154.7926  140.6357  158.9944 H   0  0  0  0  0  0  0  0  0  0  0  0
  154.4053  139.6507  160.3703 H   0  0  0  0  0  0  0  0  0  0  0  0
  151.9948  140.4133  158.7717 H   0  0  0  0  0  0  0  0  0  0  0  0
  153.5249  138.3837  157.6764 H   0  0  0  0  0  0  0  0  0  0  0  0
  151.9585  138.6793  160.6188 H   0  0  0  0  0  0  0  0  0  0  0  0
  151.4544  138.0328  159.0574 H   0  0  0  0  0  0  0  0  0  0  0  0
  154.6793  135.2630  159.7531 H   0  0  0  0  0  0  0  0  0  0  0  0
  155.2639  133.9868  161.7889 H   0  0  0  0  0  0  0  0  0  0  0  0
  153.2215  136.9242  164.2064 H   0  0  0  0  0  0  0  0  0  0  0  0
  152.6384  138.1926  162.1972 H   0  0  0  0  0  0  0  0  0  0  0  0
  152.8896  142.3367  157.7264 H   0  0  0  0  0  0  0  0  0  0  0  0
  151.8383  144.5679  157.2919 H   0  0  0  0  0  0  0  0  0  0  0  0
  151.3284  146.1104  159.1744 H   0  0  0  0  0  0  0  0  0  0  0  0
  151.8577  145.4540  161.5340 H   0  0  0  0  0  0  0  0  0  0  0  0
  1  2  1  0  0  0  0
  1 26  1  0  0  0  0
  1 27  1  0  0  0  0
  1 28  1  0  0  0  0
  2  3  1  0  0  0  0
  2 29  1  0  0  0  0
  2 30  1  0  0  0  0
  3 25  1  0  0  0  0
  3  4  1  0  0  0  0
  4  5  2  0  0  0  0
  4  6  1  0  0  0  0
  6  7  1  0  0  0  0
  6 20  1  0  0  0  0
  7  8  1  0  0  0  0
  7 31  1  0  0  0  0
  7 32  1  0  0  0  0
  8  9  1  0  0  0  0
  8 10  1  0  0  0  0
  8 33  1  0  0  0  0
  9 34  1  0  0  0  0
 10 11  1  0  0  0  0
 10 35  1  0  0  0  0
 10 36  1  0  0  0  0
 11 12  1  0  0  0  0
 12 19  1  0  0  0  0
 12 13  2  0  0  0  0
 13 14  1  0  0  0  0
 13 37  1  0  0  0  0
 14 15  2  0  0  0  0
 14 38  1  0  0  0  0
 15 16  1  0  0  0  0
 15 18  1  0  0  0  0
 16 17  3  0  0  0  0
 18 19  2  0  0  0  0
 18 39  1  0  0  0  0
 19 40  1  0  0  0  0
 20 25  2  0  0  0  0
 20 21  1  0  0  0  0
 21 22  2  0  0  0  0
 21 41  1  0  0  0  0
 22 23  1  0  0  0  0
 22 42  1  0  0  0  0
 23 24  2  0  0  0  0
 23 43  1  0  0  0  0
 24 25  1  0  0  0  0
 24 44  1  0  0  0  0
M  END
> <s_m_source_file>
AV-unprocessed.smi

> <i_m_source_file_index>
341

> <i_lp_mmshare_version>
43012

> <i_f3d_flags>
0

> <s_epik_input>
W2NIXTFbY0hdW2NIXVtjSF1jKGMxMiluKFtDSDJdW0NIM10pYyg9TyluMltDSDJdW0NASF0oW09IXSlbQ0gyXU9jM1tjSF1bY0hdYyhDI04pW2NIXVtjSF0z

> <s_epik_cmdline>
J2VwaWtfcHl0aG9uJywgJy1waCcsICc3LjAnLCAnLXRuJywgJzgnLCAnLW1hJywgJzIwMCcsICctbWV0YWxfYmluZGluZycsICctaW1hZScsICc8aW5maWxlLm1hZT4nLCAnLW9tYWUnLCAnPG91dGZpbGUubWFlPic=

> <r_lp_tautomer_probability>
1

> <r_epik_Ionization_Penalty>
2.40146e-06

> <r_epik_Ionization_Penalty_Charging>
2.16099e-09

> <r_epik_Ionization_Penalty_Neutral>
2.3993e-06

> <r_epik_State_Penalty>
-0

> <r_epik_Charging_Adjusted_Penalty>
2.16099e-09

> <i_epik_Tot_Q>
0

> <i_epik_Tot_abs_Q>
0

> <r_epik_Metal_State_Penalty>
-0

> <b_epik_Metal_Only>
0

> <s_lp_Force_Field>
OPLS_2005

> <r_lp_Energy>
47.9836

> <b_lp_Chiralities_Consistent>
1

> <s_lp_Variant>
AV-unprocessed.smi:341-2

> <Gold.Version>
5.8.1

> <Gold.Id.Protein>
6NUR|6NUR_protein|mol2

> <Gold.PLP.Fitness>
60.4071

> <Gold.PLP.PLP>
-60.3540

> <Gold.PLP.part.hbond>
-1.0918

> <Gold.PLP.part.metal>
0.0000

> <Gold.PLP.part.buried>
-5.2074

> <Gold.PLP.part.nonpolar>
-53.1846

> <Gold.PLP.part.repulsive>
0.0957

> <Gold.PLP.ligand.clash>
0.0000

> <Gold.PLP.ligand.torsion>
1.5222

> <Gold.PLP.Chemscore.Hbond>
1.0000

> <Gold.PLP.Chemscore.CHOScore>
0.0000

> <Gold.PLP.Chemscore.Metal>
0.0000

> <Gold.Chemscore.Hbonds>
donor molecule, donor type, donor heavy atom, donor atom, acceptor molecule, acceptor atom, score
      P1  H  7997  8009       L1     9  1.00

> <Gold.PLP.Chemscore.Internal.Correction>
0.0974

> <Gold.Rescore>
     Score         DG    S(hbond)    S(metal)    S(lipo)     H(rot)  DE(clash)    DE(int)     intcor
     17.15     -20.58       0.94        0.00     156.31       2.48       0.60       2.82       ----

> <Gold.Chemscore.Fitness>
17.1527

> <Gold.Chemscore.DG>
-20.5751

> <Gold.Chemscore.ZeroCoef>
-5.4800

> <Gold.Chemscore.Hbond>
0.9424

> <Gold.Chemscore.Metal>
0.0000

> <Gold.Chemscore.Lipo>
156.3094

> <Gold.Chemscore.Internal_Hbond>
0.0000

> <Gold.Chemscore.DEClash>
0.5979

> <Gold.Chemscore.DEInternal>
2.8245

> <Gold.Chemscore.Rot>
2.4768

> <Gold.Chemscore.Internal.Correction>
   9.000000E+99

> <Gold.Chemscore.Hbonds>
donor molecule, donor type, donor heavy atom, donor atom, acceptor molecule, acceptor atom, score
      P1  H  7997  8009       L1     9  0.58

> <Gold.Chemscore.Hbond.Weighted>
-3.1476

> <Gold.Chemscore.Metal.Weighted>
-0.0000

> <Gold.Chemscore.Lipo.Weighted>
-18.2882

> <Gold.Chemscore.Internal_Hbond.Weighted>
0.0000

> <Gold.Chemscore.DEClash.Weighted>
0.5979

> <Gold.Chemscore.DEInternal.Weighted>
2.8245

> <Gold.Chemscore.Rot.Weighted>
6.3407

> <Gold.Chemscore.Internal.Correction.Weighted>
   9.000000E+99

> <Gold.Protein.RotatedTorsions>
[ 6907 6896 6895 6894 ] final    0.99 input  -60.11 | X-H torsion
[ 7974 7965 7964 7962 ] final   17.82 input  175.53 | X-H torsion
[ 8008 7997 7996 7995 ] final  159.28 input   59.86 | X-H torsion
[ 10167 10162 10161 10158 ] final -120.30 input  -65.29 | X-H torsion
[ 10718 10713 10712 10709 ] final   80.87 input   66.30 | X-H torsion
[ 10763 10752 10751 10750 ] final  145.77 input  -60.55 | X-H torsion
[ 11005 11000 10999 10996 ] final   14.10 input  -57.11 | X-H torsion

> <Gold.Protein.ActiveResidues>
 VAL166  LYS551  ARG553  GLY616  TRP617  ASP618  TYR619  PRO620  LYS621  CYS622 
 ASP623  PHE694  ASN695  SER759  ASP760  ASP761  ALA762  ILE779  LEU786  VAL792 
 PHE793  MET794  SER795  GLU796  ALA797  LYS798  CYS799  TRP800  GLU811  SER814 

> <Gold.Protein.RotatedAtoms>
  151.5854  135.1056  160.0026 H   0  0  0  0  0  0  0  0  0  0  0  0  # atno 6907 bound_to 6896
  152.4333  133.7312  159.6599 H   0  0  0  0  0  0  0  0  0  0  0  0  # atno 6908 bound_to 6896
  150.8228  133.8153  159.3154 H   0  0  0  0  0  0  0  0  0  0  0  0  # atno 6909 bound_to 6896
  146.2206  139.8546  142.8616 H   0  0  0  0  0  0  0  0  0  0  0  0  # atno 7974 bound_to 7965
  156.2249  140.1835  156.7387 H   0  0  0  0  0  0  0  0  0  0  0  0  # atno 8008 bound_to 7997
  154.5925  140.0648  156.9286 H   0  0  0  0  0  0  0  0  0  0  0  0  # atno 8009 bound_to 7997
  155.2312  140.3315  155.4305 H   0  0  0  0  0  0  0  0  0  0  0  0  # atno 8010 bound_to 7997
  140.0373  143.5188  152.2147 H   0  0  0  0  0  0  0  0  0  0  0  0  # atno 10167 bound_to 10162
  157.6818  130.9979  150.2143 H   0  0  0  0  0  0  0  0  0  0  0  0  # atno 10718 bound_to 10713
  154.0109  135.2914  155.3392 H   0  0  0  0  0  0  0  0  0  0  0  0  # atno 10763 bound_to 10752
  154.7104  135.5152  153.8661 H   0  0  0  0  0  0  0  0  0  0  0  0  # atno 10764 bound_to 10752
  153.0723  135.6652  154.0340 H   0  0  0  0  0  0  0  0  0  0  0  0  # atno 10765 bound_to 10752
  140.4733  134.1009  155.7737 H   0  0  0  0  0  0  0  0  0  0  0  0  # atno 11005 bound_to 11000
  145.2766  141.0125  143.3741 LP  0  0  0  0  0  0  0  0  0  0  0  0  # atno 17320 bound_to 7965
  144.9182  139.4444  143.6554 LP  0  0  0  0  0  0  0  0  0  0  0  0  # atno 17321 bound_to 7965
  139.6036  144.7590  151.3113 LP  0  0  0  0  0  0  0  0  0  0  0  0  # atno 17342 bound_to 10162
  140.7275  143.6960  150.7883 LP  0  0  0  0  0  0  0  0  0  0  0  0  # atno 17343 bound_to 10162
  156.2808  130.3733  149.7938 LP  0  0  0  0  0  0  0  0  0  0  0  0  # atno 17370 bound_to 10713
  156.5627  130.8390  151.3333 LP  0  0  0  0  0  0  0  0  0  0  0  0  # atno 17371 bound_to 10713
  141.1566  133.8870  157.1960 LP  0  0  0  0  0  0  0  0  0  0  0  0  # atno 17394 bound_to 11000
  139.9871  135.0078  156.9889 LP  0  0  0  0  0  0  0  0  0  0  0  0  # atno 17395 bound_to 11000

$$$$
