AV-unprocessed.smi:2208|AV-procd|sdf|8946|dock2
  -GOLD-   2272012163D 1   1.00000     0.00000
 Structure written by MMmdl.
 35 36  0  0  0  0  0  0  0  0  1 V2000
  150.7148  141.7448  158.0377 C   0  0  0  0  0  0  0  0  0  0  0  0
  150.8301  140.7897  156.8840 C   0  0  0  0  0  0  0  0  0  0  0  0
  150.5541  141.2221  155.6654 N   0  0  0  0  0  0  0  0  0  0  0  0
  150.7621  140.1330  154.8144 O   0  0  0  0  0  0  0  0  0  0  0  0
  151.1595  139.0735  155.5628 C   0  0  0  0  0  0  0  0  0  0  0  0
  151.4496  137.8108  154.8241 C   0  0  0  0  0  0  0  0  0  0  0  0
  151.2197  139.4182  156.8861 C   0  0  0  0  0  0  0  0  0  0  0  0
  151.6191  138.5614  158.0612 C   0  0  0  0  0  0  0  0  0  0  0  0
  152.8951  139.1251  158.6841 C   0  0  0  0  0  0  0  0  0  0  0  0
  153.9913  138.8586  158.1920 O   0  0  0  0  0  0  0  0  0  0  0  0
  152.7376  139.8794  159.7823 N   0  0  0  0  0  0  0  0  0  0  0  0
  153.8216  140.4162  160.5946 C   0  0  0  0  0  0  0  0  0  0  0  0
  153.6572  141.9306  160.8006 C   0  0  1  0  0  0  0  0  0  0  0  0
  153.5155  142.7204  159.5032 C   0  0  0  0  0  0  0  0  0  0  0  0
  152.8557  143.9890  159.9962 C   0  0  0  0  0  0  0  0  0  0  0  0
  151.9250  143.4708  161.0919 C   0  0  0  0  0  0  0  0  0  0  0  0
  152.4552  142.2147  161.5096 O   0  0  0  0  0  0  0  0  0  0  0  0
  151.4660  142.5319  157.9684 H   0  0  0  0  0  0  0  0  0  0  0  0
  150.8548  141.2422  158.9940 H   0  0  0  0  0  0  0  0  0  0  0  0
  149.7339  142.2204  158.0570 H   0  0  0  0  0  0  0  0  0  0  0  0
  152.4398  137.8508  154.3705 H   0  0  0  0  0  0  0  0  0  0  0  0
  150.7199  137.6477  154.0310 H   0  0  0  0  0  0  0  0  0  0  0  0
  151.4190  136.9494  155.4914 H   0  0  0  0  0  0  0  0  0  0  0  0
  150.8406  138.5279  158.8232 H   0  0  0  0  0  0  0  0  0  0  0  0
  151.7831  137.5259  157.7596 H   0  0  0  0  0  0  0  0  0  0  0  0
  151.7979  140.0431  160.1135 H   0  0  0  0  0  0  0  0  0  0  0  0
  153.8589  139.9035  161.5572 H   0  0  0  0  0  0  0  0  0  0  0  0
  154.7662  140.2049  160.0927 H   0  0  0  0  0  0  0  0  0  0  0  0
  154.4952  142.3333  161.3726 H   0  0  0  0  0  0  0  0  0  0  0  0
  154.4697  142.8990  159.0069 H   0  0  0  0  0  0  0  0  0  0  0  0
  152.8559  142.2021  158.8057 H   0  0  0  0  0  0  0  0  0  0  0  0
  153.6061  144.6534  160.4271 H   0  0  0  0  0  0  0  0  0  0  0  0
  152.3297  144.5329  159.2112 H   0  0  0  0  0  0  0  0  0  0  0  0
  151.8571  144.1657  161.9290 H   0  0  0  0  0  0  0  0  0  0  0  0
  150.9192  143.3105  160.7029 H   0  0  0  0  0  0  0  0  0  0  0  0
  1  2  1  0  0  0  0
  1 18  1  0  0  0  0
  1 19  1  0  0  0  0
  1 20  1  0  0  0  0
  2  7  1  0  0  0  0
  2  3  2  0  0  0  0
  3  4  1  0  0  0  0
  4  5  1  0  0  0  0
  5  6  1  0  0  0  0
  5  7  2  0  0  0  0
  6 21  1  0  0  0  0
  6 22  1  0  0  0  0
  6 23  1  0  0  0  0
  7  8  1  0  0  0  0
  8  9  1  0  0  0  0
  8 24  1  0  0  0  0
  8 25  1  0  0  0  0
  9 10  2  0  0  0  0
  9 11  1  0  0  0  0
 11 12  1  0  0  0  0
 11 26  1  0  0  0  0
 12 13  1  0  0  0  0
 12 27  1  0  0  0  0
 12 28  1  0  0  0  0
 13 17  1  0  0  0  0
 13 14  1  0  0  0  0
 13 29  1  0  0  0  0
 14 15  1  0  0  0  0
 14 30  1  0  0  0  0
 14 31  1  0  0  0  0
 15 16  1  0  0  0  0
 15 32  1  0  0  0  0
 15 33  1  0  0  0  0
 16 17  1  0  0  0  0
 16 34  1  0  0  0  0
 16 35  1  0  0  0  0
M  END
> <s_m_source_file>
AV-unprocessed.smi

> <i_m_source_file_index>
2208

> <i_lp_mmshare_version>
43012

> <i_f3d_flags>
0

> <s_epik_input>
W0NIM11jMW5vYyhbQ0gzXSljMVtDSDJdQyg9TylbTkhdW0NIMl1bQ0BASF0yW0NIMl1bQ0gyXVtDSDJdTzI=

> <s_epik_cmdline>
J2VwaWtfcHl0aG9uJywgJy1waCcsICc3LjAnLCAnLXRuJywgJzgnLCAnLW1hJywgJzIwMCcsICctbWV0YWxfYmluZGluZycsICctaW1hZScsICc8aW5maWxlLm1hZT4nLCAnLW9tYWUnLCAnPG91dGZpbGUubWFlPic=

> <r_lp_tautomer_probability>
1

> <r_epik_Ionization_Penalty>
3.13901e-08

> <r_epik_Ionization_Penalty_Charging>
0

> <r_epik_Ionization_Penalty_Neutral>
3.13901e-08

> <r_epik_State_Penalty>
-0

> <r_epik_Charging_Adjusted_Penalty>
0

> <i_epik_Tot_Q>
0

> <i_epik_Tot_abs_Q>
0

> <r_epik_Metal_State_Penalty>
-0

> <b_epik_Metal_Only>
0

> <s_lp_Force_Field>
OPLS_2005

> <r_lp_Energy>
10.5641

> <b_lp_Chiralities_Consistent>
1

> <s_lp_Variant>
AV-unprocessed.smi:2208-2

> <Gold.Version>
5.8.1

> <Gold.Id.Protein>
6NUR|6NUR_protein|mol2

> <Gold.PLP.Fitness>
42.7261

> <Gold.PLP.PLP>
-37.4470

> <Gold.PLP.part.hbond>
-3.3594

> <Gold.PLP.part.metal>
0.0000

> <Gold.PLP.part.buried>
-3.9083

> <Gold.PLP.part.nonpolar>
-30.1621

> <Gold.PLP.part.repulsive>
0.4531

> <Gold.PLP.ligand.clash>
0.0000

> <Gold.PLP.ligand.torsion>
0.3526

> <Gold.PLP.Chemscore.Hbond>
1.9913

> <Gold.PLP.Chemscore.CHOScore>
0.0000

> <Gold.PLP.Chemscore.Metal>
0.0000

> <Gold.Chemscore.Hbonds>
donor molecule, donor type, donor heavy atom, donor atom, acceptor molecule, acceptor atom, score
      P1  H  7989  7998       L1     4  1.00
      P1  H  7997  8009       L1    10  1.00

> <Gold.PLP.Chemscore.Internal.Correction>
0.0106

> <Gold.Rescore>
     Score         DG    S(hbond)    S(metal)    S(lipo)     H(rot)  DE(clash)    DE(int)     intcor
     19.22     -19.71       2.27        0.00      90.98       1.56       0.11       0.38       ----

> <Gold.Chemscore.Fitness>
19.2208

> <Gold.Chemscore.DG>
-19.7107

> <Gold.Chemscore.ZeroCoef>
-5.4800

> <Gold.Chemscore.Hbond>
2.2655

> <Gold.Chemscore.Metal>
0.0000

> <Gold.Chemscore.Lipo>
90.9822

> <Gold.Chemscore.Internal_Hbond>
0.0000

> <Gold.Chemscore.DEClash>
0.1076

> <Gold.Chemscore.DEInternal>
0.3822

> <Gold.Chemscore.Rot>
1.5551

> <Gold.Chemscore.Internal.Correction>
   9.000000E+99

> <Gold.Chemscore.Hbonds>
donor molecule, donor type, donor heavy atom, donor atom, acceptor molecule, acceptor atom, score
      P1  H  7989  7998       L1     4  0.35
      P1  H  7997  8009       L1    10  0.98

> <Gold.Chemscore.Hbond.Weighted>
-7.5667

> <Gold.Chemscore.Metal.Weighted>
-0.0000

> <Gold.Chemscore.Lipo.Weighted>
-10.6449

> <Gold.Chemscore.Internal_Hbond.Weighted>
0.0000

> <Gold.Chemscore.DEClash.Weighted>
0.1076

> <Gold.Chemscore.DEInternal.Weighted>
0.3822

> <Gold.Chemscore.Rot.Weighted>
3.9809

> <Gold.Chemscore.Internal.Correction.Weighted>
   9.000000E+99

> <Gold.Protein.RotatedTorsions>
[ 6907 6896 6895 6894 ] final  134.87 input  -60.11 | X-H torsion
[ 7974 7965 7964 7962 ] final  -47.32 input  175.53 | X-H torsion
[ 8008 7997 7996 7995 ] final  137.16 input   59.86 | X-H torsion
[ 10167 10162 10161 10158 ] final  136.73 input  -65.29 | X-H torsion
[ 10718 10713 10712 10709 ] final  110.43 input   66.30 | X-H torsion
[ 10763 10752 10751 10750 ] final  -91.26 input  -60.55 | X-H torsion
[ 11005 11000 10999 10996 ] final  136.52 input  -57.11 | X-H torsion

> <Gold.Protein.ActiveResidues>
 VAL166  LYS551  ARG553  GLY616  TRP617  ASP618  TYR619  PRO620  LYS621  CYS622 
 ASP623  PHE694  ASN695  SER759  ASP760  ASP761  ALA762  ILE779  LEU786  VAL792 
 PHE793  MET794  SER795  GLU796  ALA797  LYS798  CYS799  TRP800  GLU811  SER814 

> <Gold.Protein.RotatedAtoms>
  152.3066  133.5710  159.5653 H   0  0  0  0  0  0  0  0  0  0  0  0  # atno 6907 bound_to 6896
  150.7303  134.0213  159.3711 H   0  0  0  0  0  0  0  0  0  0  0  0  # atno 6908 bound_to 6896
  151.8109  135.0681  160.0463 H   0  0  0  0  0  0  0  0  0  0  0  0  # atno 6909 bound_to 6896
  145.9628  140.7462  142.9449 H   0  0  0  0  0  0  0  0  0  0  0  0  # atno 7974 bound_to 7965
  156.3003  140.2426  156.3864 H   0  0  0  0  0  0  0  0  0  0  0  0  # atno 8008 bound_to 7997
  154.8654  140.0418  157.1711 H   0  0  0  0  0  0  0  0  0  0  0  0  # atno 8009 bound_to 7997
  154.8852  140.2955  155.5406 H   0  0  0  0  0  0  0  0  0  0  0  0  # atno 8010 bound_to 7997
  139.5169  144.6448  151.5469 H   0  0  0  0  0  0  0  0  0  0  0  0  # atno 10167 bound_to 10162
  157.6494  131.0932  150.6600 H   0  0  0  0  0  0  0  0  0  0  0  0  # atno 10718 bound_to 10713
  154.6743  135.5274  153.8179 H   0  0  0  0  0  0  0  0  0  0  0  0  # atno 10763 bound_to 10752
  153.0522  135.6536  154.0676 H   0  0  0  0  0  0  0  0  0  0  0  0  # atno 10764 bound_to 10752
  154.0571  135.2964  155.3311 H   0  0  0  0  0  0  0  0  0  0  0  0  # atno 10765 bound_to 10752
  140.0052  134.9462  157.0159 H   0  0  0  0  0  0  0  0  0  0  0  0  # atno 11005 bound_to 11000
  144.6819  140.2619  143.7318 LP  0  0  0  0  0  0  0  0  0  0  0  0  # atno 17320 bound_to 7965
  145.8016  139.1966  143.2045 LP  0  0  0  0  0  0  0  0  0  0  0  0  # atno 17321 bound_to 7965
  140.6229  143.9224  150.6541 LP  0  0  0  0  0  0  0  0  0  0  0  0  # atno 17342 bound_to 10162
  140.2503  143.3598  152.1411 LP  0  0  0  0  0  0  0  0  0  0  0  0  # atno 17343 bound_to 10162
  156.6913  130.4596  149.5599 LP  0  0  0  0  0  0  0  0  0  0  0  0  # atno 17370 bound_to 10713
  156.1859  130.6529  151.1006 LP  0  0  0  0  0  0  0  0  0  0  0  0  # atno 17371 bound_to 10713
  140.4654  134.1441  155.7196 LP  0  0  0  0  0  0  0  0  0  0  0  0  # atno 17394 bound_to 11000
  141.1671  133.8681  157.1681 LP  0  0  0  0  0  0  0  0  0  0  0  0  # atno 17395 bound_to 11000

$$$$
