AV-unprocessed.smi:2526|AV-procd|sdf|9937|dock7
  -GOLD-   2272013583D 1   1.00000     0.00000
 Structure written by MMmdl.
 29 30  0  0  0  0  0  0  0  0  2 V2000
  145.2501  142.8288  154.5550 C   0  0  0  0  0  0  0  0  0  0  0  0
  146.5070  142.1889  154.8793 N   0  0  0  0  0  0  0  0  0  0  0  0
  147.4098  141.5881  154.0295 C   0  0  0  0  0  0  0  0  0  0  0  0
  148.4459  141.1203  154.7911 C   0  0  0  0  0  0  0  0  0  0  0  0
  149.6970  140.3920  154.3610 C   0  0  1  0  0  0  0  0  0  0  0  0
  150.7782  140.6081  155.3261 N   0  0  0  0  0  0  0  0  0  0  0  0
  151.7382  139.7318  155.6725 C   0  0  0  0  0  0  0  0  0  0  0  0
  152.6387  140.0422  156.4478 O   0  0  0  0  0  0  0  0  0  0  0  0
  151.6834  138.3011  155.1146 C   0  0  0  0  0  0  0  0  0  0  0  0
  150.7409  138.1416  153.9101 C   0  0  0  0  0  0  0  0  0  0  0  0
  149.4212  138.8857  154.1443 C   0  0  2  0  0  0  0  0  0  0  0  0
  148.4769  138.6570  153.0353 N   0  3  0  0  0  0  0  0  0  0  0  0
  148.0686  141.4899  156.1146 C   0  0  0  0  0  0  0  0  0  0  0  0
  146.9130  142.1302  156.1637 N   0  0  0  0  0  0  0  0  0  0  0  0
  145.2136  143.0613  153.4903 H   0  0  0  0  0  0  0  0  0  0  0  0
  145.1442  143.7545  155.1221 H   0  0  0  0  0  0  0  0  0  0  0  0
  144.4245  142.1608  154.8023 H   0  0  0  0  0  0  0  0  0  0  0  0
  147.2431  141.5448  152.9628 H   0  0  0  0  0  0  0  0  0  0  0  0
  150.0577  140.8111  153.4202 H   0  0  0  0  0  0  0  0  0  0  0  0
  150.8332  141.5308  155.7337 H   0  0  0  0  0  0  0  0  0  0  0  0
  152.6897  137.9758  154.8479 H   0  0  0  0  0  0  0  0  0  0  0  0
  151.3505  137.6491  155.9227 H   0  0  0  0  0  0  0  0  0  0  0  0
  151.2284  138.5188  153.0095 H   0  0  0  0  0  0  0  0  0  0  0  0
  150.5516  137.0815  153.7375 H   0  0  0  0  0  0  0  0  0  0  0  0
  148.9554  138.4773  155.0430 H   0  0  0  0  0  0  0  0  0  0  0  0
  148.6158  137.7305  152.6578 H   0  0  0  0  0  0  0  0  0  0  0  0
  148.6372  139.3436  152.3120 H   0  0  0  0  0  0  0  0  0  0  0  0
  148.6013  141.3150  157.0377 H   0  0  0  0  0  0  0  0  0  0  0  0
  147.5299  138.7432  153.3759 H   0  0  0  0  0  0  0  0  0  0  0  0
  1  2  1  0  0  0  0
  1 15  1  0  0  0  0
  1 16  1  0  0  0  0
  1 17  1  0  0  0  0
  2 14  1  0  0  0  0
  2  3  1  0  0  0  0
  3  4  2  0  0  0  0
  3 18  1  0  0  0  0
  4  5  1  0  0  0  0
  4 13  1  0  0  0  0
  5 11  1  0  0  0  0
  5  6  1  0  0  0  0
  5 19  1  0  0  0  0
  6  7  1  0  0  0  0
  6 20  1  0  0  0  0
  7  8  2  0  0  0  0
  7  9  1  0  0  0  0
  9 10  1  0  0  0  0
  9 21  1  0  0  0  0
  9 22  1  0  0  0  0
 10 11  1  0  0  0  0
 10 23  1  0  0  0  0
 10 24  1  0  0  0  0
 11 12  1  0  0  0  0
 11 25  1  0  0  0  0
 12 26  1  0  0  0  0
 12 27  1  0  0  0  0
 12 29  1  0  0  0  0
 13 14  2  0  0  0  0
 13 28  1  0  0  0  0
M  CHG  1  12   1
M  END
> <s_m_source_file>
AV-unprocessed.smi

> <i_m_source_file_index>
2526

> <i_lp_mmshare_version>
43012

> <i_f3d_flags>
0

> <s_epik_input>
W0NIM11uMVtjSF1jKFtjSF1uMSlbQ0BASF0yW05IXUMoPU8pW0NIMl1bQ0gyXVtDQEhdMltOSDJd

> <s_epik_cmdline>
J2VwaWtfcHl0aG9uJywgJy1waCcsICc3LjAnLCAnLXRuJywgJzgnLCAnLW1hJywgJzIwMCcsICctbWV0YWxfYmluZGluZycsICctaW1hZScsICc8aW5maWxlLm1hZT4nLCAnLW9tYWUnLCAnPG91dGZpbGUubWFlPic=

> <r_lp_tautomer_probability>
1

> <r_epik_Ionization_Penalty>
0.00878543

> <r_epik_Ionization_Penalty_Charging>
0.00874185

> <r_epik_Ionization_Penalty_Neutral>
4.35793e-05

> <r_epik_State_Penalty>
0.00660351

> <r_epik_Charging_Adjusted_Penalty>
0.0153454

> <i_epik_Tot_Q>
1

> <i_epik_Tot_abs_Q>
1

> <r_epik_Metal_State_Penalty>
0.00660727

> <b_epik_Metal_Only>
0

> <s_lp_Force_Field>
OPLS_2005

> <r_lp_Energy>
10.7235

> <b_lp_Chiralities_Consistent>
1

> <s_lp_Variant>
AV-unprocessed.smi:2526-4

> <Gold.Version>
5.8.1

> <Gold.Id.Protein>
6NUR|6NUR_protein|mol2

> <Gold.PLP.Fitness>
39.5420

> <Gold.PLP.PLP>
-28.8341

> <Gold.PLP.part.hbond>
-2.9216

> <Gold.PLP.part.metal>
0.0000

> <Gold.PLP.part.buried>
-3.2661

> <Gold.PLP.part.nonpolar>
-24.2068

> <Gold.PLP.part.repulsive>
0.5775

> <Gold.PLP.ligand.clash>
0.0000

> <Gold.PLP.ligand.torsion>
0.6568

> <Gold.PLP.Chemscore.Hbond>
4.0000

> <Gold.PLP.Chemscore.CHOScore>
0.0000

> <Gold.PLP.Chemscore.Metal>
0.0000

> <Gold.Chemscore.Hbonds>
donor molecule, donor type, donor heavy atom, donor atom, acceptor molecule, acceptor atom, score
      L1  H    12    26       P1  7948  2.00
      L1  H    12    27       P1  7957  1.00
      P1  H  7997  8010       L1     8  1.00

> <Gold.PLP.Chemscore.Internal.Correction>
0.0215

> <Gold.Rescore>
     Score         DG    S(hbond)    S(metal)    S(lipo)     H(rot)  DE(clash)    DE(int)     intcor
     18.43     -18.71       2.96        0.00      50.46       1.00       0.02       0.25       ----

> <Gold.Chemscore.Fitness>
18.4315

> <Gold.Chemscore.DG>
-18.7060

> <Gold.Chemscore.ZeroCoef>
-5.4800

> <Gold.Chemscore.Hbond>
2.9587

> <Gold.Chemscore.Metal>
0.0000

> <Gold.Chemscore.Lipo>
50.4601

> <Gold.Chemscore.Internal_Hbond>
0.0000

> <Gold.Chemscore.DEClash>
0.0212

> <Gold.Chemscore.DEInternal>
0.2534

> <Gold.Chemscore.Rot>
1.0000

> <Gold.Chemscore.Internal.Correction>
   9.000000E+99

> <Gold.Chemscore.Hbonds>
donor molecule, donor type, donor heavy atom, donor atom, acceptor molecule, acceptor atom, score
      L1  H    12    26       P1  7948  1.00
      L1  H    12    27       P1  7957  0.95
      P1  H  7997  8010       L1     8  1.00

> <Gold.Chemscore.Hbond.Weighted>
-9.8822

> <Gold.Chemscore.Metal.Weighted>
-0.0000

> <Gold.Chemscore.Lipo.Weighted>
-5.9038

> <Gold.Chemscore.Internal_Hbond.Weighted>
0.0000

> <Gold.Chemscore.DEClash.Weighted>
0.0212

> <Gold.Chemscore.DEInternal.Weighted>
0.2534

> <Gold.Chemscore.Rot.Weighted>
2.5600

> <Gold.Chemscore.Internal.Correction.Weighted>
   9.000000E+99

> <Gold.Protein.RotatedTorsions>
[ 6907 6896 6895 6894 ] final  -17.89 input  -60.11 | X-H torsion
[ 7974 7965 7964 7962 ] final -138.84 input  175.53 | X-H torsion
[ 8008 7997 7996 7995 ] final   75.62 input   59.86 | X-H torsion
[ 10167 10162 10161 10158 ] final  -71.47 input  -65.29 | X-H torsion
[ 10718 10713 10712 10709 ] final -156.33 input   66.30 | X-H torsion
[ 10763 10752 10751 10750 ] final   56.75 input  -60.55 | X-H torsion
[ 11005 11000 10999 10996 ] final  167.86 input  -57.11 | X-H torsion

> <Gold.Protein.ActiveResidues>
 VAL166  LYS551  ARG553  GLY616  TRP617  ASP618  TYR619  PRO620  LYS621  CYS622 
 ASP623  PHE694  ASN695  SER759  ASP760  ASP761  ALA762  ILE779  LEU786  VAL792 
 PHE793  MET794  SER795  GLU796  ALA797  LYS798  CYS799  TRP800  GLU811  SER814 

> <Gold.Protein.RotatedAtoms>
  151.2864  135.0729  159.9187 H   0  0  0  0  0  0  0  0  0  0  0  0  # atno 6907 bound_to 6896
  152.5324  133.9977  159.7890 H   0  0  0  0  0  0  0  0  0  0  0  0  # atno 6908 bound_to 6896
  151.0240  133.5800  159.2699 H   0  0  0  0  0  0  0  0  0  0  0  0  # atno 6909 bound_to 6896
  144.8725  140.6388  143.5258 H   0  0  0  0  0  0  0  0  0  0  0  0  # atno 7974 bound_to 7965
  155.8156  140.3471  155.5483 H   0  0  0  0  0  0  0  0  0  0  0  0  # atno 8008 bound_to 7997
  155.8396  140.0939  157.1763 H   0  0  0  0  0  0  0  0  0  0  0  0  # atno 8009 bound_to 7997
  154.4005  140.1397  156.3699 H   0  0  0  0  0  0  0  0  0  0  0  0  # atno 8010 bound_to 7997
  140.5270  143.2325  151.7329 H   0  0  0  0  0  0  0  0  0  0  0  0  # atno 10167 bound_to 10162
  156.5251  130.8495  151.2696 H   0  0  0  0  0  0  0  0  0  0  0  0  # atno 10718 bound_to 10713
  152.9837  135.5665  154.5280 H   0  0  0  0  0  0  0  0  0  0  0  0  # atno 10763 bound_to 10752
  154.4756  135.2786  155.1611 H   0  0  0  0  0  0  0  0  0  0  0  0  # atno 10764 bound_to 10752
  154.3141  135.6282  153.5532 H   0  0  0  0  0  0  0  0  0  0  0  0  # atno 10765 bound_to 10752
  140.2812  134.7749  157.3760 H   0  0  0  0  0  0  0  0  0  0  0  0  # atno 11005 bound_to 11000
  145.4104  139.1581  143.4129 LP  0  0  0  0  0  0  0  0  0  0  0  0  # atno 17320 bound_to 7965
  146.2940  140.4207  142.8729 LP  0  0  0  0  0  0  0  0  0  0  0  0  # atno 17321 bound_to 7965
  139.4941  144.4170  152.0019 LP  0  0  0  0  0  0  0  0  0  0  0  0  # atno 17342 bound_to 10162
  140.3270  144.3361  150.5996 LP  0  0  0  0  0  0  0  0  0  0  0  0  # atno 17343 bound_to 10162
  157.7431  130.9904  150.2565 LP  0  0  0  0  0  0  0  0  0  0  0  0  # atno 17370 bound_to 10713
  156.3113  130.3772  149.7659 LP  0  0  0  0  0  0  0  0  0  0  0  0  # atno 17371 bound_to 10713
  140.1282  134.5130  155.8127 LP  0  0  0  0  0  0  0  0  0  0  0  0  # atno 17394 bound_to 11000
  141.2162  133.6780  156.6990 LP  0  0  0  0  0  0  0  0  0  0  0  0  # atno 17395 bound_to 11000

$$$$
