AV-unprocessed.smi:830|AV-procd|sdf|3870|dock2
  -GOLD-   22720 1323D 1   1.00000     0.00000
 Structure written by MMmdl.
 52 54  0  0  0  0  0  0  0  0  1 V2000
  152.7939  137.8698  154.1786 C   0  0  0  0  0  0  0  0  0  0  0  0
  151.3837  137.9614  154.7855 C   0  0  2  0  0  0  0  0  0  0  0  0
  150.5361  136.8896  154.2661 N   0  0  0  0  0  0  0  0  0  0  0  0
  150.4639  135.6424  154.7511 C   0  0  0  0  0  0  0  0  0  0  0  0
  151.1094  135.2475  155.7224 O   0  0  0  0  0  0  0  0  0  0  0  0
  149.6202  134.8901  154.0263 N   0  0  0  0  0  0  0  0  0  0  0  0
  149.3587  133.4994  154.1682 C   0  0  0  0  0  0  0  0  0  0  0  0
  150.2074  132.6709  154.9414 C   0  0  0  0  0  0  0  0  0  0  0  0
  149.8747  131.3169  155.1178 C   0  0  0  0  0  0  0  0  0  0  0  0
  148.6928  130.8412  154.5263 C   0  0  0  0  0  0  0  0  0  0  0  0
  147.8681  131.6204  153.7983 N   0  0  0  0  0  0  0  0  0  0  0  0
  148.1824  132.9254  153.6055 C   0  0  0  0  0  0  0  0  0  0  0  0
  147.2887  133.6870  152.8168 N   0  0  0  0  0  0  0  0  0  0  0  0
  146.0189  134.1468  153.3699 C   0  0  0  0  0  0  0  0  0  0  0  0
  145.1873  134.5643  152.1602 C   0  0  0  0  0  0  0  0  0  0  0  0
  145.6165  133.5505  151.1045 C   0  0  0  0  0  0  0  0  0  0  0  0
  147.0951  133.3044  151.4208 C   0  0  0  0  0  0  0  0  0  0  0  0
  150.7254  139.3336  154.5975 C   0  0  0  0  0  0  0  0  0  0  0  0
  151.3305  140.3669  154.8874 O   0  0  0  0  0  0  0  0  0  0  0  0
  149.4720  139.3278  154.1178 N   0  0  0  0  0  0  0  0  0  0  0  0
  148.6674  140.5176  153.8562 C   0  0  0  0  0  0  0  0  0  0  0  0
  148.6852  141.4598  155.0730 C   0  0  0  0  0  0  0  0  0  0  0  0
  147.3067  141.3319  155.7211 C   0  0  0  0  0  0  0  0  0  0  0  0
  146.3711  141.0531  154.5489 C   0  0  0  0  0  0  0  0  0  0  0  0
  147.1867  140.1569  153.6144 C   0  0  0  0  0  0  0  0  0  0  0  0
  153.4436  138.6559  154.5643 H   0  0  0  0  0  0  0  0  0  0  0  0
  152.7646  137.9663  153.0926 H   0  0  0  0  0  0  0  0  0  0  0  0
  153.2640  136.9146  154.4146 H   0  0  0  0  0  0  0  0  0  0  0  0
  151.4782  137.8199  155.8641 H   0  0  0  0  0  0  0  0  0  0  0  0
  149.9624  137.1220  153.4684 H   0  0  0  0  0  0  0  0  0  0  0  0
  149.2321  135.3231  153.2009 H   0  0  0  0  0  0  0  0  0  0  0  0
  151.0941  133.0600  155.4187 H   0  0  0  0  0  0  0  0  0  0  0  0
  150.5040  130.6628  155.7030 H   0  0  0  0  0  0  0  0  0  0  0  0
  148.3979  129.8090  154.6448 H   0  0  0  0  0  0  0  0  0  0  0  0
  145.5108  133.3377  153.8959 H   0  0  0  0  0  0  0  0  0  0  0  0
  146.1637  134.9726  154.0668 H   0  0  0  0  0  0  0  0  0  0  0  0
  144.1150  134.5511  152.3565 H   0  0  0  0  0  0  0  0  0  0  0  0
  145.4644  135.5711  151.8445 H   0  0  0  0  0  0  0  0  0  0  0  0
  145.0544  132.6250  151.2363 H   0  0  0  0  0  0  0  0  0  0  0  0
  145.4533  133.9004  150.0848 H   0  0  0  0  0  0  0  0  0  0  0  0
  147.7184  133.9419  150.7934 H   0  0  0  0  0  0  0  0  0  0  0  0
  147.3749  132.2668  151.2334 H   0  0  0  0  0  0  0  0  0  0  0  0
  149.0471  138.4353  153.9114 H   0  0  0  0  0  0  0  0  0  0  0  0
  149.0729  141.0513  152.9944 H   0  0  0  0  0  0  0  0  0  0  0  0
  149.4925  141.2476  155.7755 H   0  0  0  0  0  0  0  0  0  0  0  0
  148.8231  142.4857  154.7292 H   0  0  0  0  0  0  0  0  0  0  0  0
  147.2997  140.4847  156.4081 H   0  0  0  0  0  0  0  0  0  0  0  0
  147.0233  142.2216  156.2839 H   0  0  0  0  0  0  0  0  0  0  0  0
  145.4329  140.5923  154.8593 H   0  0  0  0  0  0  0  0  0  0  0  0
  146.1307  141.9888  154.0423 H   0  0  0  0  0  0  0  0  0  0  0  0
  146.8981  140.2896  152.5714 H   0  0  0  0  0  0  0  0  0  0  0  0
  146.9970  139.1126  153.8684 H   0  0  0  0  0  0  0  0  0  0  0  0
  1  2  1  0  0  0  0
  1 26  1  0  0  0  0
  1 27  1  0  0  0  0
  1 28  1  0  0  0  0
  2  3  1  0  0  0  0
  2 18  1  0  0  0  0
  2 29  1  0  0  0  0
  3  4  1  0  0  0  0
  3 30  1  0  0  0  0
  4  5  2  0  0  0  0
  4  6  1  0  0  0  0
  6  7  1  0  0  0  0
  6 31  1  0  0  0  0
  7 12  1  0  0  0  0
  7  8  2  0  0  0  0
  8  9  1  0  0  0  0
  8 32  1  0  0  0  0
  9 10  2  0  0  0  0
  9 33  1  0  0  0  0
 10 11  1  0  0  0  0
 10 34  1  0  0  0  0
 11 12  2  0  0  0  0
 12 13  1  0  0  0  0
 13 17  1  0  0  0  0
 13 14  1  0  0  0  0
 14 15  1  0  0  0  0
 14 35  1  0  0  0  0
 14 36  1  0  0  0  0
 15 16  1  0  0  0  0
 15 37  1  0  0  0  0
 15 38  1  0  0  0  0
 16 17  1  0  0  0  0
 16 39  1  0  0  0  0
 16 40  1  0  0  0  0
 17 41  1  0  0  0  0
 17 42  1  0  0  0  0
 18 19  2  0  0  0  0
 18 20  1  0  0  0  0
 20 21  1  0  0  0  0
 20 43  1  0  0  0  0
 21 25  1  0  0  0  0
 21 22  1  0  0  0  0
 21 44  1  0  0  0  0
 22 23  1  0  0  0  0
 22 45  1  0  0  0  0
 22 46  1  0  0  0  0
 23 24  1  0  0  0  0
 23 47  1  0  0  0  0
 23 48  1  0  0  0  0
 24 25  1  0  0  0  0
 24 49  1  0  0  0  0
 24 50  1  0  0  0  0
 25 51  1  0  0  0  0
 25 52  1  0  0  0  0
M  END
> <s_m_source_file>
AV-unprocessed.smi

> <i_m_source_file_index>
830

> <i_lp_mmshare_version>
43012

> <i_f3d_flags>
0

> <s_epik_input>
W0NIMl0xW0NIMl1bQ0gyXVtDSDJdW0NIXTFbTkhdQyg9TylbQ0BIXShbQ0gzXSlbTkhdQyg9TylbTkhdYzJbY0hdW2NIXVtjSF1uYzJOM1tDSDJdW0NIMl1bQ0gyXVtDSDJdMw==

> <s_epik_cmdline>
J2VwaWtfcHl0aG9uJywgJy1waCcsICc3LjAnLCAnLXRuJywgJzgnLCAnLW1hJywgJzIwMCcsICctbWV0YWxfYmluZGluZycsICctaW1hZScsICc8aW5maWxlLm1hZT4nLCAnLW9tYWUnLCAnPG91dGZpbGUubWFlPic=

> <r_lp_tautomer_probability>
1

> <r_epik_Ionization_Penalty>
0.0827694

> <r_epik_Ionization_Penalty_Charging>
0

> <r_epik_Ionization_Penalty_Neutral>
0.0827694

> <r_epik_State_Penalty>
0.0729202

> <r_epik_Charging_Adjusted_Penalty>
0.0729202

> <i_epik_Tot_Q>
0

> <i_epik_Tot_abs_Q>
0

> <r_epik_Metal_State_Penalty>
0.0639723

> <b_epik_Metal_Only>
0

> <s_lp_Force_Field>
OPLS_2005

> <r_lp_Energy>
46.0812

> <b_lp_Chiralities_Consistent>
1

> <s_lp_Variant>
AV-unprocessed.smi:830-1

> <Gold.Version>
5.8.1

> <Gold.Id.Protein>
6NUR|6NUR_protein|mol2

> <Gold.PLP.Fitness>
47.1672

> <Gold.PLP.PLP>
-37.6981

> <Gold.PLP.part.hbond>
-6.4119

> <Gold.PLP.part.metal>
0.0000

> <Gold.PLP.part.buried>
0.9262

> <Gold.PLP.part.nonpolar>
-32.2103

> <Gold.PLP.part.repulsive>
0.5518

> <Gold.PLP.ligand.clash>
0.0000

> <Gold.PLP.ligand.torsion>
0.8959

> <Gold.PLP.Chemscore.Hbond>
3.5941

> <Gold.PLP.Chemscore.CHOScore>
0.0000

> <Gold.PLP.Chemscore.Metal>
0.0000

> <Gold.Chemscore.Hbonds>
donor molecule, donor type, donor heavy atom, donor atom, acceptor molecule, acceptor atom, score
      L1  H     3    30       P1  7948  0.77
      L1  H     6    31       P1  7948  0.85
      P1  H  7989  7998       L1    19  0.93
      P1  H 10752 10763       L1     5  0.73

> <Gold.PLP.Chemscore.Internal.Correction>
0.4787

> <Gold.Rescore>
     Score         DG    S(hbond)    S(metal)    S(lipo)     H(rot)  DE(clash)    DE(int)     intcor
     15.01     -18.51       2.41        0.00      78.47       1.64       0.02       3.48       ----

> <Gold.Chemscore.Fitness>
15.0082

> <Gold.Chemscore.DG>
-18.5108

> <Gold.Chemscore.ZeroCoef>
-5.4800

> <Gold.Chemscore.Hbond>
2.4081

> <Gold.Chemscore.Metal>
0.0000

> <Gold.Chemscore.Lipo>
78.4744

> <Gold.Chemscore.Internal_Hbond>
0.0000

> <Gold.Chemscore.DEClash>
0.0214

> <Gold.Chemscore.DEInternal>
3.4812

> <Gold.Chemscore.Rot>
1.6382

> <Gold.Chemscore.Internal.Correction>
   9.000000E+99

> <Gold.Chemscore.Hbonds>
donor molecule, donor type, donor heavy atom, donor atom, acceptor molecule, acceptor atom, score
      L1  H     3    30       P1  7948  0.25
      L1  H     6    31       P1  7948  0.14
      P1  H  7989  7998       L1    19  0.22
      P1  H 10752 10763       L1     5  0.14

> <Gold.Chemscore.Hbond.Weighted>
-8.0429

> <Gold.Chemscore.Metal.Weighted>
-0.0000

> <Gold.Chemscore.Lipo.Weighted>
-9.1815

> <Gold.Chemscore.Internal_Hbond.Weighted>
0.0000

> <Gold.Chemscore.DEClash.Weighted>
0.0214

> <Gold.Chemscore.DEInternal.Weighted>
3.4812

> <Gold.Chemscore.Rot.Weighted>
4.1937

> <Gold.Chemscore.Internal.Correction.Weighted>
   9.000000E+99

> <Gold.Protein.RotatedTorsions>
[ 6907 6896 6895 6894 ] final -101.52 input  -60.11 | X-H torsion
[ 7974 7965 7964 7962 ] final  108.42 input  175.53 | X-H torsion
[ 8008 7997 7996 7995 ] final   96.70 input   59.86 | X-H torsion
[ 10167 10162 10161 10158 ] final -137.66 input  -65.29 | X-H torsion
[ 10718 10713 10712 10709 ] final   36.48 input   66.30 | X-H torsion
[ 10763 10752 10751 10750 ] final   80.29 input  -60.55 | X-H torsion
[ 11005 11000 10999 10996 ] final -154.32 input  -57.11 | X-H torsion

> <Gold.Protein.ActiveResidues>
 VAL166  LYS551  ARG553  GLY616  TRP617  ASP618  TYR619  PRO620  LYS621  CYS622 
 ASP623  PHE694  ASN695  SER759  ASP760  ASP761  ALA762  ILE779  LEU786  VAL792 
 PHE793  MET794  SER795  GLU796  ALA797  LYS798  CYS799  TRP800  GLU811  SER814 

> <Gold.Protein.RotatedAtoms>
  150.7158  134.0722  159.3868 H   0  0  0  0  0  0  0  0  0  0  0  0  # atno 6907 bound_to 6896
  151.8704  135.0489  160.0488 H   0  0  0  0  0  0  0  0  0  0  0  0  # atno 6908 bound_to 6896
  152.2647  133.5293  159.5439 H   0  0  0  0  0  0  0  0  0  0  0  0  # atno 6909 bound_to 6896
  145.2809  139.2633  143.3916 H   0  0  0  0  0  0  0  0  0  0  0  0  # atno 7974 bound_to 7965
  156.0824  140.3269  155.7711 H   0  0  0  0  0  0  0  0  0  0  0  0  # atno 8008 bound_to 7997
  155.5131  140.0578  157.2937 H   0  0  0  0  0  0  0  0  0  0  0  0  # atno 8009 bound_to 7997
  154.4590  140.1957  156.0315 H   0  0  0  0  0  0  0  0  0  0  0  0  # atno 8010 bound_to 7997
  139.8555  143.7143  152.2654 H   0  0  0  0  0  0  0  0  0  0  0  0  # atno 10167 bound_to 10162
  157.3354  130.7520  149.6875 H   0  0  0  0  0  0  0  0  0  0  0  0  # atno 10718 bound_to 10713
  153.1021  135.4808  154.8886 H   0  0  0  0  0  0  0  0  0  0  0  0  # atno 10763 bound_to 10752
  154.7390  135.3078  154.8763 H   0  0  0  0  0  0  0  0  0  0  0  0  # atno 10764 bound_to 10752
  153.9377  135.6837  153.4798 H   0  0  0  0  0  0  0  0  0  0  0  0  # atno 10765 bound_to 10752
  140.6985  134.3963  157.5212 H   0  0  0  0  0  0  0  0  0  0  0  0  # atno 11005 bound_to 11000
  146.3216  140.3276  142.8638 LP  0  0  0  0  0  0  0  0  0  0  0  0  # atno 17320 bound_to 7965
  144.9254  140.7915  143.5722 LP  0  0  0  0  0  0  0  0  0  0  0  0  # atno 17321 bound_to 7965
  139.7424  144.7556  151.0632 LP  0  0  0  0  0  0  0  0  0  0  0  0  # atno 17342 bound_to 10162
  140.7782  143.4957  150.9836 LP  0  0  0  0  0  0  0  0  0  0  0  0  # atno 17343 bound_to 10162
  155.9701  130.4183  150.4321 LP  0  0  0  0  0  0  0  0  0  0  0  0  # atno 17370 bound_to 10713
  157.2360  131.0514  151.2465 LP  0  0  0  0  0  0  0  0  0  0  0  0  # atno 17371 bound_to 10713
  139.8903  134.8808  156.2376 LP  0  0  0  0  0  0  0  0  0  0  0  0  # atno 17394 bound_to 11000
  141.0183  133.7056  156.1225 LP  0  0  0  0  0  0  0  0  0  0  0  0  # atno 17395 bound_to 11000

$$$$
