AV-unprocessed.smi:3234|AV-procd|sdf|12356|dock6
  -GOLD-   2272018213D 1   1.00000     0.00000
 Structure written by MMmdl.
 37 39  0  0  0  0  0  0  0  0  4 V2000
  145.2202  138.1381  153.6088 O   0  0  0  0  0  0  0  0  0  0  0  0
  146.1605  137.6745  152.9533 C   0  0  0  0  0  0  0  0  0  0  0  0
  147.3527  138.2969  152.9430 N   0  0  0  0  0  0  0  0  0  0  0  0
  147.7259  139.5170  153.5676 C   0  0  0  0  0  0  0  0  0  0  0  0
  146.7583  140.5432  153.6383 C   0  0  0  0  0  0  0  0  0  0  0  0
  147.0828  141.7608  154.2704 C   0  0  0  0  0  0  0  0  0  0  0  0
  148.3070  141.9309  154.8142 N   0  3  0  0  0  0  0  0  0  0  0  0
  149.2576  140.9720  154.7879 C   0  0  0  0  0  0  0  0  0  0  0  0
  148.9914  139.7340  154.1687 C   0  0  0  0  0  0  0  0  0  0  0  0
  146.1711  136.5340  152.2113 N   0  5  0  0  0  0  0  0  0  0  0  0
  145.0194  136.0037  151.4760 C   0  0  2  0  0  0  0  0  0  0  0  0
  143.8822  135.6151  152.4402 C   0  0  0  0  0  0  0  0  0  0  0  0
  143.4237  134.2352  151.9723 C   0  0  0  0  0  0  0  0  0  0  0  0
  144.6399  133.6164  151.4192 N   0  3  1  0  0  0  0  0  0  0  0  0
  144.3904  132.4294  150.5744 C   0  0  0  0  0  0  0  0  0  0  0  0
  145.4516  132.2026  149.5247 C   0  0  0  0  0  0  0  0  0  0  0  0
  144.1037  132.7671  149.1309 C   0  0  0  0  0  0  0  0  0  0  0  0
  145.3910  134.6969  150.7497 C   0  0  0  0  0  0  0  0  0  0  0  0
  148.0977  137.7972  152.4800 H   0  0  0  0  0  0  0  0  0  0  0  0
  145.7779  140.4035  153.2059 H   0  0  0  0  0  0  0  0  0  0  0  0
  146.4035  142.5959  154.3586 H   0  0  0  0  0  0  0  0  0  0  0  0
  150.1943  141.2186  155.2659 H   0  0  0  0  0  0  0  0  0  0  0  0
  149.7526  138.9684  154.1756 H   0  0  0  0  0  0  0  0  0  0  0  0
  144.6395  136.7086  150.7348 H   0  0  0  0  0  0  0  0  0  0  0  0
  144.2446  135.5363  153.4670 H   0  0  0  0  0  0  0  0  0  0  0  0
  143.0700  136.3428  152.4385 H   0  0  0  0  0  0  0  0  0  0  0  0
  143.0054  133.6395  152.7843 H   0  0  0  0  0  0  0  0  0  0  0  0
  142.6612  134.3240  151.1946 H   0  0  0  0  0  0  0  0  0  0  0  0
  143.8948  131.5866  151.0535 H   0  0  0  0  0  0  0  0  0  0  0  0
  146.3052  132.8779  149.5006 H   0  0  0  0  0  0  0  0  0  0  0  0
  145.6639  131.1744  149.2392 H   0  0  0  0  0  0  0  0  0  0  0  0
  143.4288  132.1103  148.5860 H   0  0  0  0  0  0  0  0  0  0  0  0
  144.0613  133.8171  148.8468 H   0  0  0  0  0  0  0  0  0  0  0  0
  145.0764  134.7648  149.7068 H   0  0  0  0  0  0  0  0  0  0  0  0
  146.4606  134.4808  150.7516 H   0  0  0  0  0  0  0  0  0  0  0  0
  145.2006  133.3301  152.2089 H   0  0  0  0  0  0  0  0  0  0  0  0
  148.5209  142.8187  155.2693 H   0  0  0  0  0  0  0  0  0  0  0  0
  1  2  2  0  0  0  0
  2  3  1  0  0  0  0
  2 10  1  0  0  0  0
  3  4  1  0  0  0  0
  3 19  1  0  0  0  0
  4  9  1  0  0  0  0
  4  5  2  0  0  0  0
  5  6  1  0  0  0  0
  5 20  1  0  0  0  0
  6  7  2  0  0  0  0
  6 21  1  0  0  0  0
  7  8  1  0  0  0  0
  7 37  1  0  0  0  0
  8  9  2  0  0  0  0
  8 22  1  0  0  0  0
  9 23  1  0  0  0  0
 10 11  1  0  0  0  0
 11 18  1  0  0  0  0
 11 12  1  0  0  0  0
 11 24  1  0  0  0  0
 12 13  1  0  0  0  0
 12 25  1  0  0  0  0
 12 26  1  0  0  0  0
 13 14  1  0  0  0  0
 13 27  1  0  0  0  0
 13 28  1  0  0  0  0
 14 15  1  0  0  0  0
 14 18  1  0  0  0  0
 14 36  1  0  0  0  0
 15 17  1  0  0  0  0
 15 16  1  0  0  0  0
 15 29  1  0  0  0  0
 16 17  1  0  0  0  0
 16 30  1  0  0  0  0
 16 31  1  0  0  0  0
 17 32  1  0  0  0  0
 17 33  1  0  0  0  0
 18 34  1  0  0  0  0
 18 35  1  0  0  0  0
M  CHG  1   7   1
M  CHG  1  10  -1
M  CHG  1  14   1
M  END
> <s_m_source_file>
AV-unprocessed.smi

> <i_m_source_file_index>
3234

> <i_lp_mmshare_version>
43012

> <i_f3d_flags>
0

> <s_epik_input>
W2NIXTFbY0hdbltjSF1bY0hdYzFbTkhdQyg9TylbTkhdW0NAQEhdMltDSDJdW0NIMl1OKFtDSDJdMilbQ0hdM1tDSDJdW0NIMl0z

> <s_epik_cmdline>
J2VwaWtfcHl0aG9uJywgJy1waCcsICc3LjAnLCAnLXRuJywgJzgnLCAnLW1hJywgJzIwMCcsICctbWV0YWxfYmluZGluZycsICctaW1hZScsICc8aW5maWxlLm1hZT4nLCAnLW9tYWUnLCAnPG91dGZpbGUubWFlPic=

> <r_epik_Ionization_Penalty>
8.3234

> <r_epik_Ionization_Penalty_Charging>
8.3234

> <r_epik_Ionization_Penalty_Neutral>
3.58513e-06

> <r_epik_State_Penalty>
7.99376

> <r_epik_Charging_Adjusted_Penalty>
16.3172

> <i_epik_Tot_Q>
1

> <i_epik_Tot_abs_Q>
3

> <r_epik_Metal_State_Penalty>
3.98956

> <b_epik_Metal_Only>
1

> <s_lp_Force_Field>
OPLS_2005

> <r_lp_Energy>
40.8871

> <b_lp_Chiralities_Consistent>
1

> <s_lp_Variant>
AV-unprocessed.smi:3234-9

> <Gold.Version>
5.8.1

> <Gold.Id.Protein>
6NUR|6NUR_protein|mol2

> <Gold.PLP.Fitness>
41.5277

> <Gold.PLP.PLP>
-33.5039

> <Gold.PLP.part.hbond>
-2.0629

> <Gold.PLP.part.metal>
0.0000

> <Gold.PLP.part.buried>
-3.8265

> <Gold.PLP.part.nonpolar>
-31.0004

> <Gold.PLP.part.repulsive>
3.7265

> <Gold.PLP.ligand.clash>
0.0000

> <Gold.PLP.ligand.torsion>
1.1217

> <Gold.PLP.Chemscore.Hbond>
3.0000

> <Gold.PLP.Chemscore.CHOScore>
0.0000

> <Gold.PLP.Chemscore.Metal>
0.0000

> <Gold.Chemscore.Hbonds>
donor molecule, donor type, donor heavy atom, donor atom, acceptor molecule, acceptor atom, score
      L1  H     3    19       P1  7948  1.00
      L1  H     7    37       P1  8028  2.00

> <Gold.PLP.Chemscore.Internal.Correction>
1.2671

> <Gold.Rescore>
     Score         DG    S(hbond)    S(metal)    S(lipo)     H(rot)  DE(clash)    DE(int)     intcor
     15.49     -18.51       1.96        0.00      81.82       1.21       0.55       2.46       ----

> <Gold.Chemscore.Fitness>
15.4936

> <Gold.Chemscore.DG>
-18.5093

> <Gold.Chemscore.ZeroCoef>
-5.4800

> <Gold.Chemscore.Hbond>
1.9629

> <Gold.Chemscore.Metal>
0.0000

> <Gold.Chemscore.Lipo>
81.8176

> <Gold.Chemscore.Internal_Hbond>
0.0000

> <Gold.Chemscore.DEClash>
0.5514

> <Gold.Chemscore.DEInternal>
2.4644

> <Gold.Chemscore.Rot>
1.2108

> <Gold.Chemscore.Internal.Correction>
   9.000000E+99

> <Gold.Chemscore.Hbonds>
donor molecule, donor type, donor heavy atom, donor atom, acceptor molecule, acceptor atom, score
      L1  H     3    19       P1  7948  0.98
      L1  H     7    37       P1  8028  0.99

> <Gold.Chemscore.Hbond.Weighted>
-6.5562

> <Gold.Chemscore.Metal.Weighted>
-0.0000

> <Gold.Chemscore.Lipo.Weighted>
-9.5727

> <Gold.Chemscore.Internal_Hbond.Weighted>
0.0000

> <Gold.Chemscore.DEClash.Weighted>
0.5514

> <Gold.Chemscore.DEInternal.Weighted>
2.4644

> <Gold.Chemscore.Rot.Weighted>
3.0996

> <Gold.Chemscore.Internal.Correction.Weighted>
   9.000000E+99

> <Gold.Protein.RotatedTorsions>
[ 6907 6896 6895 6894 ] final   96.93 input  -60.11 | X-H torsion
[ 7974 7965 7964 7962 ] final -132.46 input  175.53 | X-H torsion
[ 8008 7997 7996 7995 ] final -153.43 input   59.86 | X-H torsion
[ 10167 10162 10161 10158 ] final -126.68 input  -65.29 | X-H torsion
[ 10718 10713 10712 10709 ] final -146.89 input   66.30 | X-H torsion
[ 10763 10752 10751 10750 ] final   27.76 input  -60.55 | X-H torsion
[ 11005 11000 10999 10996 ] final  126.96 input  -57.11 | X-H torsion

> <Gold.Protein.ActiveResidues>
 VAL166  LYS551  ARG553  GLY616  TRP617  ASP618  TYR619  PRO620  LYS621  CYS622 
 ASP623  PHE694  ASN695  SER759  ASP760  ASP761  ALA762  ILE779  LEU786  VAL792 
 PHE793  MET794  SER795  GLU796  ALA797  LYS798  CYS799  TRP800  GLU811  SER814 

> <Gold.Protein.RotatedAtoms>
  152.5429  134.0811  159.8235 H   0  0  0  0  0  0  0  0  0  0  0  0  # atno 6907 bound_to 6896
  151.0912  133.5307  159.2622 H   0  0  0  0  0  0  0  0  0  0  0  0  # atno 6908 bound_to 6896
  151.2097  135.0485  159.8960 H   0  0  0  0  0  0  0  0  0  0  0  0  # atno 6909 bound_to 6896
  144.9284  140.7098  143.4921 H   0  0  0  0  0  0  0  0  0  0  0  0  # atno 7974 bound_to 7965
  155.6707  140.0733  157.2521 H   0  0  0  0  0  0  0  0  0  0  0  0  # atno 8008 bound_to 7997
  154.4124  140.1699  156.1927 H   0  0  0  0  0  0  0  0  0  0  0  0  # atno 8009 bound_to 7997
  155.9619  140.3369  155.6501 H   0  0  0  0  0  0  0  0  0  0  0  0  # atno 8010 bound_to 7997
  139.9689  143.5867  152.2419 H   0  0  0  0  0  0  0  0  0  0  0  0  # atno 10167 bound_to 10162
  156.4006  130.7932  151.2142 H   0  0  0  0  0  0  0  0  0  0  0  0  # atno 10718 bound_to 10713
  153.0535  135.6529  154.0635 H   0  0  0  0  0  0  0  0  0  0  0  0  # atno 10763 bound_to 10752
  154.0318  135.2911  155.3369 H   0  0  0  0  0  0  0  0  0  0  0  0  # atno 10764 bound_to 10752
  154.6837  135.5310  153.8364 H   0  0  0  0  0  0  0  0  0  0  0  0  # atno 10765 bound_to 10752
  139.9483  134.9626  156.8784 H   0  0  0  0  0  0  0  0  0  0  0  0  # atno 11005 bound_to 11000
  145.3182  139.1796  143.4602 LP  0  0  0  0  0  0  0  0  0  0  0  0  # atno 17320 bound_to 7965
  146.3236  140.3196  142.8632 LP  0  0  0  0  0  0  0  0  0  0  0  0  # atno 17321 bound_to 7965
  139.6496  144.7660  151.2174 LP  0  0  0  0  0  0  0  0  0  0  0  0  # atno 17342 bound_to 10162
  140.7528  143.6182  150.8539 LP  0  0  0  0  0  0  0  0  0  0  0  0  # atno 17343 bound_to 10162
  157.7503  131.0288  150.4065 LP  0  0  0  0  0  0  0  0  0  0  0  0  # atno 17370 bound_to 10713
  156.4343  130.3978  149.6739 LP  0  0  0  0  0  0  0  0  0  0  0  0  # atno 17371 bound_to 10713
  140.5781  134.0378  155.7454 LP  0  0  0  0  0  0  0  0  0  0  0  0  # atno 17394 bound_to 11000
  141.1139  133.9572  157.2859 LP  0  0  0  0  0  0  0  0  0  0  0  0  # atno 17395 bound_to 11000

$$$$
