AV-unprocessed.smi:3189|AV-procd|sdf|12193|dock2
  -GOLD-   2272018 33D 1   1.00000     0.00000
 Structure written by MMmdl.
 31 32  0  0  0  0  0  0  0  0  2 V2000
  146.9685  139.4673  152.6326 C   0  0  0  0  0  0  0  0  0  0  0  0
  148.2067  139.5612  153.5033 C   0  0  0  0  0  0  0  0  0  0  0  0
  148.9594  138.4481  153.6467 N   0  3  0  0  0  0  0  0  0  0  0  0
  150.0856  138.4126  154.3889 C   0  0  0  0  0  0  0  0  0  0  0  0
  150.5204  139.5709  155.0620 C   0  0  0  0  0  0  0  0  0  0  0  0
  149.7589  140.7623  154.9604 C   0  0  0  0  0  0  0  0  0  0  0  0
  150.1355  141.9797  155.5918 N   0  0  0  0  0  0  0  0  0  0  0  0
  151.0979  142.1914  156.5105 C   0  0  0  0  0  0  0  0  0  0  0  0
  151.8189  141.3138  156.9807 O   0  0  0  0  0  0  0  0  0  0  0  0
  151.1710  143.4615  156.9450 N   0  0  0  0  0  0  0  0  0  0  0  0
  152.0810  144.0000  157.9120 C   0  0  2  0  0  0  0  0  0  0  0  0
  152.2248  143.2477  159.2171 C   0  0  0  0  0  0  0  0  0  0  0  0
  151.5365  144.5880  159.1999 C   0  0  2  0  0  0  0  0  0  0  0  0
  150.0486  144.6978  159.4678 C   0  0  0  0  0  0  0  0  0  0  0  0
  148.5916  140.7556  154.1570 C   0  0  0  0  0  0  0  0  0  0  0  0
  147.6375  142.1903  153.9804 Cl  0  0  0  0  0  0  0  0  0  0  0  0
  146.0745  139.6699  153.2230 H   0  0  0  0  0  0  0  0  0  0  0  0
  146.8652  138.4754  152.1913 H   0  0  0  0  0  0  0  0  0  0  0  0
  147.0180  140.1939  151.8211 H   0  0  0  0  0  0  0  0  0  0  0  0
  150.6058  137.4663  154.4169 H   0  0  0  0  0  0  0  0  0  0  0  0
  151.4353  139.5270  155.6332 H   0  0  0  0  0  0  0  0  0  0  0  0
  149.5499  142.7747  155.3804 H   0  0  0  0  0  0  0  0  0  0  0  0
  150.4498  144.0915  156.6235 H   0  0  0  0  0  0  0  0  0  0  0  0
  153.0069  144.4298  157.5322 H   0  0  0  0  0  0  0  0  0  0  0  0
  151.6069  142.3639  159.3661 H   0  0  0  0  0  0  0  0  0  0  0  0
  153.2156  143.2008  159.6644 H   0  0  0  0  0  0  0  0  0  0  0  0
  152.1064  145.4220  159.6052 H   0  0  0  0  0  0  0  0  0  0  0  0
  149.5195  143.8080  159.1255 H   0  0  0  0  0  0  0  0  0  0  0  0
  149.6394  145.5666  158.9520 H   0  0  0  0  0  0  0  0  0  0  0  0
  149.8704  144.8127  160.5368 H   0  0  0  0  0  0  0  0  0  0  0  0
  148.6653  137.5967  153.1674 H   0  0  0  0  0  0  0  0  0  0  0  0
  1  2  1  0  0  0  0
  1 17  1  0  0  0  0
  1 18  1  0  0  0  0
  1 19  1  0  0  0  0
  2 15  1  0  0  0  0
  2  3  2  0  0  0  0
  3  4  1  0  0  0  0
  3 31  1  0  0  0  0
  4  5  2  0  0  0  0
  4 20  1  0  0  0  0
  5  6  1  0  0  0  0
  5 21  1  0  0  0  0
  6  7  1  0  0  0  0
  6 15  2  0  0  0  0
  7  8  1  0  0  0  0
  7 22  1  0  0  0  0
  8  9  2  0  0  0  0
  8 10  1  0  0  0  0
 10 11  1  0  0  0  0
 10 23  1  0  0  0  0
 11 13  1  0  0  0  0
 11 12  1  0  0  0  0
 11 24  1  0  0  0  0
 12 13  1  0  0  0  0
 12 25  1  0  0  0  0
 12 26  1  0  0  0  0
 13 14  1  0  0  0  0
 13 27  1  0  0  0  0
 14 28  1  0  0  0  0
 14 29  1  0  0  0  0
 14 30  1  0  0  0  0
 15 16  1  0  0  0  0
M  CHG  1   3   1
M  END
> <s_m_source_file>
AV-unprocessed.smi

> <i_m_source_file_index>
3189

> <i_lp_mmshare_version>
43012

> <i_f3d_flags>
0

> <s_epik_input>
W0NIM11jMW5bY0hdW2NIXWMoYzFDbClbTkhdQyg9TylbTkhdW0NAQEhdMltDSDJdW0NASF0yW0NIM10=

> <s_epik_cmdline>
J2VwaWtfcHl0aG9uJywgJy1waCcsICc3LjAnLCAnLXRuJywgJzgnLCAnLW1hJywgJzIwMCcsICctbWV0YWxfYmluZGluZycsICctaW1hZScsICc8aW5maWxlLm1hZT4nLCAnLW9tYWUnLCAnPG91dGZpbGUubWFlPic=

> <r_epik_Ionization_Penalty>
2.42914

> <r_epik_Ionization_Penalty_Charging>
2.42912

> <r_epik_Ionization_Penalty_Neutral>
2.15137e-05

> <r_epik_State_Penalty>
2.58904

> <r_epik_Charging_Adjusted_Penalty>
5.01816

> <i_epik_Tot_Q>
1

> <i_epik_Tot_abs_Q>
1

> <r_epik_Metal_State_Penalty>
2.59882

> <b_epik_Metal_Only>
0

> <s_lp_Force_Field>
OPLS_2005

> <r_lp_Energy>
38.4707

> <b_lp_Chiralities_Consistent>
1

> <s_lp_Variant>
AV-unprocessed.smi:3189-7

> <Gold.Version>
5.8.1

> <Gold.Id.Protein>
6NUR|6NUR_protein|mol2

> <Gold.PLP.Fitness>
49.7290

> <Gold.PLP.PLP>
-37.8671

> <Gold.PLP.part.hbond>
-4.0000

> <Gold.PLP.part.metal>
0.0000

> <Gold.PLP.part.buried>
-0.5267

> <Gold.PLP.part.nonpolar>
-33.6239

> <Gold.PLP.part.repulsive>
0.2416

> <Gold.PLP.ligand.clash>
0.0000

> <Gold.PLP.ligand.torsion>
0.0765

> <Gold.PLP.Chemscore.Hbond>
3.9920

> <Gold.PLP.Chemscore.CHOScore>
0.0000

> <Gold.PLP.Chemscore.Metal>
0.0000

> <Gold.Chemscore.Hbonds>
donor molecule, donor type, donor heavy atom, donor atom, acceptor molecule, acceptor atom, score
      L1  H     3    31       P1  7948  1.98
      L1  H     7    22       P1  8028  0.89
      L1  H    10    23       P1  8028  1.00

> <Gold.PLP.Chemscore.Internal.Correction>
0.0389

> <Gold.Rescore>
     Score         DG    S(hbond)    S(metal)    S(lipo)     H(rot)  DE(clash)    DE(int)     intcor
     20.37     -23.94       2.87        0.00      97.85       1.00       2.27       1.31       ----

> <Gold.Chemscore.Fitness>
20.3655

> <Gold.Chemscore.DG>
-23.9432

> <Gold.Chemscore.ZeroCoef>
-5.4800

> <Gold.Chemscore.Hbond>
2.8666

> <Gold.Chemscore.Metal>
0.0000

> <Gold.Chemscore.Lipo>
97.8536

> <Gold.Chemscore.Internal_Hbond>
0.0000

> <Gold.Chemscore.DEClash>
2.2722

> <Gold.Chemscore.DEInternal>
1.3056

> <Gold.Chemscore.Rot>
1.0000

> <Gold.Chemscore.Internal.Correction>
   9.000000E+99

> <Gold.Chemscore.Hbonds>
donor molecule, donor type, donor heavy atom, donor atom, acceptor molecule, acceptor atom, score
      L1  H     3    31       P1  7948  0.94
      L1  H     7    22       P1  8028  0.85
      L1  H    10    23       P1  8028  0.99

> <Gold.Chemscore.Hbond.Weighted>
-9.5744

> <Gold.Chemscore.Metal.Weighted>
-0.0000

> <Gold.Chemscore.Lipo.Weighted>
-11.4489

> <Gold.Chemscore.Internal_Hbond.Weighted>
0.0000

> <Gold.Chemscore.DEClash.Weighted>
2.2722

> <Gold.Chemscore.DEInternal.Weighted>
1.3056

> <Gold.Chemscore.Rot.Weighted>
2.5600

> <Gold.Chemscore.Internal.Correction.Weighted>
   9.000000E+99

> <Gold.Protein.RotatedTorsions>
[ 6907 6896 6895 6894 ] final  -95.53 input  -60.11 | X-H torsion
[ 7974 7965 7964 7962 ] final  141.06 input  175.53 | X-H torsion
[ 8008 7997 7996 7995 ] final  100.92 input   59.86 | X-H torsion
[ 10167 10162 10161 10158 ] final  -31.34 input  -65.29 | X-H torsion
[ 10718 10713 10712 10709 ] final -110.61 input   66.30 | X-H torsion
[ 10763 10752 10751 10750 ] final  149.21 input  -60.55 | X-H torsion
[ 11005 11000 10999 10996 ] final   89.37 input  -57.11 | X-H torsion

> <Gold.Protein.ActiveResidues>
 VAL166  LYS551  ARG553  GLY616  TRP617  ASP618  TYR619  PRO620  LYS621  CYS622 
 ASP623  PHE694  ASN695  SER759  ASP760  ASP761  ALA762  ILE779  LEU786  VAL792 
 PHE793  MET794  SER795  GLU796  ALA797  LYS798  CYS799  TRP800  GLU811  SER814 

> <Gold.Protein.RotatedAtoms>
  150.6966  134.1643  159.4187 H   0  0  0  0  0  0  0  0  0  0  0  0  # atno 6907 bound_to 6896
  151.9622  135.0115  160.0557 H   0  0  0  0  0  0  0  0  0  0  0  0  # atno 6908 bound_to 6896
  152.1916  133.4742  159.5048 H   0  0  0  0  0  0  0  0  0  0  0  0  # atno 6909 bound_to 6896
  144.9130  139.5267  143.5699 H   0  0  0  0  0  0  0  0  0  0  0  0  # atno 7974 bound_to 7965
  156.1250  140.3205  155.8263 H   0  0  0  0  0  0  0  0  0  0  0  0  # atno 8008 bound_to 7997
  155.4437  140.0527  157.3025 H   0  0  0  0  0  0  0  0  0  0  0  0  # atno 8009 bound_to 7997
  154.4855  140.2071  155.9678 H   0  0  0  0  0  0  0  0  0  0  0  0  # atno 8010 bound_to 7997
  140.7237  143.3778  151.1657 H   0  0  0  0  0  0  0  0  0  0  0  0  # atno 10167 bound_to 10162
  156.0600  130.5824  150.8261 H   0  0  0  0  0  0  0  0  0  0  0  0  # atno 10718 bound_to 10713
  154.0674  135.2869  155.3314 H   0  0  0  0  0  0  0  0  0  0  0  0  # atno 10763 bound_to 10752
  154.6769  135.5278  153.8214 H   0  0  0  0  0  0  0  0  0  0  0  0  # atno 10764 bound_to 10752
  153.0499  135.6572  154.0858 H   0  0  0  0  0  0  0  0  0  0  0  0  # atno 10765 bound_to 10752
  139.8877  134.8547  156.3132 H   0  0  0  0  0  0  0  0  0  0  0  0  # atno 11005 bound_to 11000
  146.3168  139.7952  142.8977 LP  0  0  0  0  0  0  0  0  0  0  0  0  # atno 17320 bound_to 7965
  145.3422  141.0290  143.3386 LP  0  0  0  0  0  0  0  0  0  0  0  0  # atno 17321 bound_to 7965
  139.7362  143.8996  152.3035 LP  0  0  0  0  0  0  0  0  0  0  0  0  # atno 17342 bound_to 10162
  139.8801  144.7022  150.8887 LP  0  0  0  0  0  0  0  0  0  0  0  0  # atno 17343 bound_to 10162
  157.5602  131.0945  150.9570 LP  0  0  0  0  0  0  0  0  0  0  0  0  # atno 17370 bound_to 10713
  156.9810  130.5527  149.5296 LP  0  0  0  0  0  0  0  0  0  0  0  0  # atno 17371 bound_to 10713
  140.9836  133.7252  156.0709 LP  0  0  0  0  0  0  0  0  0  0  0  0  # atno 17394 bound_to 11000
  140.7717  134.3825  157.5506 LP  0  0  0  0  0  0  0  0  0  0  0  0  # atno 17395 bound_to 11000

$$$$
