AV-unprocessed.smi:2768|AV-procd|sdf|10653|dock1
  -GOLD-   2272015103D 1   1.00000     0.00000
 Structure written by MMmdl.
 34 35  0  0  0  0  0  0  0  0  2 V2000
  152.3484  140.1334  156.0246 O   0  0  0  0  0  0  0  0  0  0  0  0
  151.4146  140.7688  156.5275 C   0  0  0  0  0  0  0  0  0  0  0  0
  150.4080  141.4653  155.9244 N   0  5  0  0  0  0  0  0  0  0  0  0
  149.1364  140.8774  155.4937 C   0  0  1  0  0  0  0  0  0  0  0  0
  148.3949  141.8317  154.5230 C   0  0  0  0  0  0  0  0  0  0  0  0
  147.0976  141.2179  153.9379 C   0  0  0  0  0  0  0  0  0  0  0  0
  147.3423  139.8686  153.2298 C   0  0  0  0  0  0  0  0  0  0  0  0
  148.0778  138.9013  154.1841 C   0  0  0  0  0  0  0  0  0  0  0  0
  149.3701  139.5053  154.7976 C   0  0  1  0  0  0  0  0  0  0  0  0
  150.3469  139.6179  153.7784 O   0  0  0  0  0  0  0  0  0  0  0  0
  151.3009  140.8109  158.0665 C   0  0  0  0  0  0  0  0  0  0  0  0
  150.1109  140.3234  158.4286 F   0  0  0  0  0  0  0  0  0  0  0  0
  152.2337  140.0227  158.6119 F   0  0  0  0  0  0  0  0  0  0  0  0
  151.4492  142.2430  158.5786 C   0  0  0  0  0  0  0  0  0  0  0  0
  152.5377  142.6116  159.4021 C   0  0  0  0  0  0  0  0  0  0  0  0
  152.6359  143.9469  159.8370 C   0  0  0  0  0  0  0  0  0  0  0  0
  151.6461  144.8648  159.4382 C   0  0  0  0  0  0  0  0  0  0  0  0
  150.6003  144.4041  158.6148 C   0  0  0  0  0  0  0  0  0  0  0  0
  150.4980  143.1269  158.1904 N   0  0  0  0  0  0  0  0  0  0  0  0
  148.4714  140.6941  156.3393 H   0  0  0  0  0  0  0  0  0  0  0  0
  149.7663  138.8049  155.5341 H   0  0  0  0  0  0  0  0  0  0  0  0
  148.1523  142.7623  155.0370 H   0  0  0  0  0  0  0  0  0  0  0  0
  149.0564  142.1065  153.7000 H   0  0  0  0  0  0  0  0  0  0  0  0
  146.3569  141.0832  154.7289 H   0  0  0  0  0  0  0  0  0  0  0  0
  146.6522  141.9196  153.2322 H   0  0  0  0  0  0  0  0  0  0  0  0
  146.3981  139.4337  152.9015 H   0  0  0  0  0  0  0  0  0  0  0  0
  147.9420  140.0282  152.3330 H   0  0  0  0  0  0  0  0  0  0  0  0
  147.3951  138.6098  154.9846 H   0  0  0  0  0  0  0  0  0  0  0  0
  148.3167  137.9778  153.6551 H   0  0  0  0  0  0  0  0  0  0  0  0
  149.8871  139.6550  152.9526 H   0  0  0  0  0  0  0  0  0  0  0  0
  153.2890  141.8888  159.6847 H   0  0  0  0  0  0  0  0  0  0  0  0
  153.4570  144.2618  160.4638 H   0  0  0  0  0  0  0  0  0  0  0  0
  151.6884  145.8969  159.7530 H   0  0  0  0  0  0  0  0  0  0  0  0
  149.8240  145.0804  158.2885 H   0  0  0  0  0  0  0  0  0  0  0  0
  1  2  2  0  0  0  0
  2  3  1  0  0  0  0
  2 11  1  0  0  0  0
  3  4  1  0  0  0  0
  4 20  1  0  0  0  0
  4  9  1  0  0  0  0
  4  5  1  0  0  0  0
  5  6  1  0  0  0  0
  5 22  1  0  0  0  0
  5 23  1  0  0  0  0
  6  7  1  0  0  0  0
  6 24  1  0  0  0  0
  6 25  1  0  0  0  0
  7  8  1  0  0  0  0
  7 26  1  0  0  0  0
  7 27  1  0  0  0  0
  8  9  1  0  0  0  0
  8 28  1  0  0  0  0
  8 29  1  0  0  0  0
  9 21  1  0  0  0  0
  9 10  1  0  0  0  0
 10 30  1  0  0  0  0
 11 12  1  0  0  0  0
 11 13  1  0  0  0  0
 11 14  1  0  0  0  0
 14 19  1  0  0  0  0
 14 15  2  0  0  0  0
 15 16  1  0  0  0  0
 15 31  1  0  0  0  0
 16 17  2  0  0  0  0
 16 32  1  0  0  0  0
 17 18  1  0  0  0  0
 17 33  1  0  0  0  0
 18 19  2  0  0  0  0
 18 34  1  0  0  0  0
M  CHG  1   3  -1
M  END
> <s_m_source_file>
AV-unprocessed.smi

> <i_m_source_file_index>
2768

> <i_lp_mmshare_version>
43012

> <i_f3d_flags>
0

> <s_epik_input>
bjFbY0hdW2NIXVtjSF1bY0hdYzFDKEYpKEYpQyg9TylbTkhdW0NAQEhdMltDSDJdW0NIMl1bQ0gyXVtDSDJdW0NASF0yW09IXQ==

> <s_epik_cmdline>
J2VwaWtfcHl0aG9uJywgJy1waCcsICc3LjAnLCAnLXRuJywgJzgnLCAnLW1hJywgJzIwMCcsICctbWV0YWxfYmluZGluZycsICctaW1hZScsICc8aW5maWxlLm1hZT4nLCAnLW9tYWUnLCAnPG91dGZpbGUubWFlPic=

> <r_lp_tautomer_probability>
1

> <r_epik_Ionization_Penalty>
5.70553

> <r_epik_Ionization_Penalty_Charging>
5.70553

> <r_epik_Ionization_Penalty_Neutral>
5.5493e-06

> <r_epik_State_Penalty>
5.70549

> <r_epik_Charging_Adjusted_Penalty>
11.411

> <i_epik_Tot_Q>
-1

> <i_epik_Tot_abs_Q>
1

> <r_epik_Metal_State_Penalty>
1.6859

> <b_epik_Metal_Only>
1

> <s_lp_Force_Field>
OPLS_2005

> <r_lp_Energy>
27.4562

> <b_lp_Chiralities_Consistent>
1

> <s_lp_Variant>
AV-unprocessed.smi:2768-6

> <Gold.Version>
5.8.1

> <Gold.Id.Protein>
6NUR|6NUR_protein|mol2

> <Gold.PLP.Fitness>
47.7767

> <Gold.PLP.PLP>
-39.2752

> <Gold.PLP.part.hbond>
-3.2480

> <Gold.PLP.part.metal>
0.0000

> <Gold.PLP.part.buried>
-2.6026

> <Gold.PLP.part.nonpolar>
-33.7993

> <Gold.PLP.part.repulsive>
0.1991

> <Gold.PLP.ligand.clash>
0.9488

> <Gold.PLP.ligand.torsion>
1.0567

> <Gold.PLP.Chemscore.Hbond>
2.9280

> <Gold.PLP.Chemscore.CHOScore>
0.9135

> <Gold.PLP.Chemscore.Metal>
0.0000

> <Gold.Chemscore.Hbonds>
donor molecule, donor type, donor heavy atom, donor atom, acceptor molecule, acceptor atom, score
      L1  H    10    30       P1  7957  1.00
      P1  H  7989  7998       L1    10  0.93
      P1  H  7997  8010       L1     1  0.93
      L1  C    18    34       P1  8028  0.03
      L1  C    18    34       P1  8029  1.00

> <Gold.PLP.Chemscore.Internal.Correction>
0.0392

> <Gold.Rescore>
     Score         DG    S(hbond)    S(metal)    S(lipo)     H(rot)  DE(clash)    DE(int)     intcor
     16.61     -19.66       2.29        0.00      98.47       1.95       0.74       2.31       ----

> <Gold.Chemscore.Fitness>
16.6052

> <Gold.Chemscore.DG>
-19.6576

> <Gold.Chemscore.ZeroCoef>
-5.4800

> <Gold.Chemscore.Hbond>
2.2902

> <Gold.Chemscore.Metal>
0.0000

> <Gold.Chemscore.Lipo>
98.4710

> <Gold.Chemscore.Internal_Hbond>
0.0000

> <Gold.Chemscore.DEClash>
0.7381

> <Gold.Chemscore.DEInternal>
2.3144

> <Gold.Chemscore.Rot>
1.9503

> <Gold.Chemscore.Internal.Correction>
   9.000000E+99

> <Gold.Chemscore.Hbonds>
donor molecule, donor type, donor heavy atom, donor atom, acceptor molecule, acceptor atom, score
      L1  H    10    30       P1  7957  0.99
      P1  H  7989  7998       L1    10  0.20
      P1  H  7997  8010       L1     1  0.85

> <Gold.Chemscore.Hbond.Weighted>
-7.6493

> <Gold.Chemscore.Metal.Weighted>
-0.0000

> <Gold.Chemscore.Lipo.Weighted>
-11.5211

> <Gold.Chemscore.Internal_Hbond.Weighted>
0.0000

> <Gold.Chemscore.DEClash.Weighted>
0.7381

> <Gold.Chemscore.DEInternal.Weighted>
2.3144

> <Gold.Chemscore.Rot.Weighted>
4.9928

> <Gold.Chemscore.Internal.Correction.Weighted>
   9.000000E+99

> <Gold.Protein.RotatedTorsions>
[ 6907 6896 6895 6894 ] final  165.46 input  -60.11 | X-H torsion
[ 7974 7965 7964 7962 ] final -142.73 input  175.53 | X-H torsion
[ 8008 7997 7996 7995 ] final   98.26 input   59.86 | X-H torsion
[ 10167 10162 10161 10158 ] final  -88.66 input  -65.29 | X-H torsion
[ 10718 10713 10712 10709 ] final -102.42 input   66.30 | X-H torsion
[ 10763 10752 10751 10750 ] final  -46.17 input  -60.55 | X-H torsion
[ 11005 11000 10999 10996 ] final  149.33 input  -57.11 | X-H torsion

> <Gold.Protein.ActiveResidues>
 VAL166  LYS551  ARG553  GLY616  TRP617  ASP618  TYR619  PRO620  LYS621  CYS622 
 ASP623  PHE694  ASN695  SER759  ASP760  ASP761  ALA762  ILE779  LEU786  VAL792 
 PHE793  MET794  SER795  GLU796  ALA797  LYS798  CYS799  TRP800  GLU811  SER814 

> <Gold.Protein.RotatedAtoms>
  151.8941  133.3523  159.3808 H   0  0  0  0  0  0  0  0  0  0  0  0  # atno 6907 bound_to 6896
  150.7096  134.4894  159.5517 H   0  0  0  0  0  0  0  0  0  0  0  0  # atno 6908 bound_to 6896
  152.2470  134.8172  160.0503 H   0  0  0  0  0  0  0  0  0  0  0  0  # atno 6909 bound_to 6896
  144.8421  140.5922  143.5445 H   0  0  0  0  0  0  0  0  0  0  0  0  # atno 7974 bound_to 7965
  156.0986  140.3246  155.7912 H   0  0  0  0  0  0  0  0  0  0  0  0  # atno 8008 bound_to 7997
  155.4875  140.0559  157.2976 H   0  0  0  0  0  0  0  0  0  0  0  0  # atno 8009 bound_to 7997
  154.4682  140.1999  156.0077 H   0  0  0  0  0  0  0  0  0  0  0  0  # atno 8010 bound_to 7997
  140.3725  143.2787  151.9483 H   0  0  0  0  0  0  0  0  0  0  0  0  # atno 10167 bound_to 10162
  156.0228  130.5419  150.7105 H   0  0  0  0  0  0  0  0  0  0  0  0  # atno 10718 bound_to 10713
  154.0406  135.6644  153.4789 H   0  0  0  0  0  0  0  0  0  0  0  0  # atno 10763 bound_to 10752
  153.0503  135.5088  154.7846 H   0  0  0  0  0  0  0  0  0  0  0  0  # atno 10764 bound_to 10752
  154.6821  135.3046  154.9565 H   0  0  0  0  0  0  0  0  0  0  0  0  # atno 10765 bound_to 10752
  140.1036  134.8968  157.1832 H   0  0  0  0  0  0  0  0  0  0  0  0  # atno 11005 bound_to 11000
  145.4671  139.1507  143.3834 LP  0  0  0  0  0  0  0  0  0  0  0  0  # atno 17320 bound_to 7965
  146.2712  140.4803  142.8813 LP  0  0  0  0  0  0  0  0  0  0  0  0  # atno 17321 bound_to 7965
  139.4802  144.5894  151.7798 LP  0  0  0  0  0  0  0  0  0  0  0  0  # atno 17342 bound_to 10162
  140.5019  144.1156  150.5973 LP  0  0  0  0  0  0  0  0  0  0  0  0  # atno 17343 bound_to 10162
  157.4744  131.0896  151.0606 LP  0  0  0  0  0  0  0  0  0  0  0  0  # atno 17370 bound_to 10713
  157.1057  130.6000  149.5470 LP  0  0  0  0  0  0  0  0  0  0  0  0  # atno 17371 bound_to 10713
  140.3186  134.2941  155.7251 LP  0  0  0  0  0  0  0  0  0  0  0  0  # atno 17394 bound_to 11000
  141.2112  133.7696  156.9879 LP  0  0  0  0  0  0  0  0  0  0  0  0  # atno 17395 bound_to 11000

$$$$
