AV-unprocessed.smi:2061|AV-procd|sdf|8380|dock8
  -GOLD-   2272011 63D 1   1.00000     0.00000
 Structure written by MMmdl.
 45 46  0  0  0  0  0  0  0  0  3 V2000
  152.4720  140.4632  158.6632 C   0  0  0  0  0  0  0  0  0  0  0  0
  152.1153  140.0345  157.2807 C   0  0  0  0  0  0  0  0  0  0  0  0
  151.0280  140.2700  156.4881 C   0  0  0  0  0  0  0  0  0  0  0  0
  151.3416  139.5709  155.2906 C   0  0  0  0  0  0  0  0  0  0  0  0
  150.5666  139.4956  154.1974 N   0  5  0  0  0  0  0  0  0  0  0  0
  149.2203  139.5535  154.3130 C   0  0  0  0  0  0  0  0  0  0  0  0
  148.5757  140.3779  154.9655 O   0  0  0  0  0  0  0  0  0  0  0  0
  148.5792  138.5896  153.6368 N   0  0  0  0  0  0  0  0  0  0  0  0
  147.1330  138.3905  153.6043 C   0  0  0  0  0  0  0  0  0  0  0  0
  146.6976  137.0006  154.1437 C   0  0  2  0  0  0  0  0  0  0  0  0
  147.5926  136.5927  155.3399 C   0  0  0  0  0  0  0  0  0  0  0  0
  146.6850  135.9846  153.0399 N   0  3  1  0  0  0  0  0  0  0  0  0
  146.7251  134.5640  153.4856 C   0  0  0  0  0  0  0  0  0  0  0  0
  146.7383  133.5982  152.2850 C   0  0  1  0  0  0  0  0  0  0  0  0
  146.6853  132.1308  152.7252 C   0  0  0  0  0  0  0  0  0  0  0  0
  145.6080  133.8503  151.4617 O   0  0  0  0  0  0  0  0  0  0  0  0
  145.6147  135.1691  150.9333 C   0  0  1  0  0  0  0  0  0  0  0  0
  144.4213  135.3054  149.9808 C   0  0  0  0  0  0  0  0  0  0  0  0
  145.5464  136.1725  152.0991 C   0  0  0  0  0  0  0  0  0  0  0  0
  152.5070  138.9490  155.3580 N   0  0  0  0  0  0  0  0  0  0  0  0
  153.0131  139.2472  156.6289 O   0  0  0  0  0  0  0  0  0  0  0  0
  151.9234  139.8781  159.4011 H   0  0  0  0  0  0  0  0  0  0  0  0
  152.2295  141.5149  158.8157 H   0  0  0  0  0  0  0  0  0  0  0  0
  153.5378  140.3329  158.8521 H   0  0  0  0  0  0  0  0  0  0  0  0
  150.1506  140.8534  156.7239 H   0  0  0  0  0  0  0  0  0  0  0  0
  149.1444  137.9387  153.1109 H   0  0  0  0  0  0  0  0  0  0  0  0
  146.6774  139.2115  154.1557 H   0  0  0  0  0  0  0  0  0  0  0  0
  146.8048  138.5037  152.5708 H   0  0  0  0  0  0  0  0  0  0  0  0
  145.6782  137.0735  154.5258 H   0  0  0  0  0  0  0  0  0  0  0  0
  147.6180  137.3642  156.1092 H   0  0  0  0  0  0  0  0  0  0  0  0
  148.6211  136.4126  155.0254 H   0  0  0  0  0  0  0  0  0  0  0  0
  147.2242  135.6975  155.8405 H   0  0  0  0  0  0  0  0  0  0  0  0
  147.6241  134.3670  154.0684 H   0  0  0  0  0  0  0  0  0  0  0  0
  145.8658  134.3612  154.1273 H   0  0  0  0  0  0  0  0  0  0  0  0
  147.6482  133.7508  151.7015 H   0  0  0  0  0  0  0  0  0  0  0  0
  147.5411  131.8769  153.3512 H   0  0  0  0  0  0  0  0  0  0  0  0
  146.6959  131.4646  151.8622 H   0  0  0  0  0  0  0  0  0  0  0  0
  145.7797  131.9216  153.2957 H   0  0  0  0  0  0  0  0  0  0  0  0
  146.5318  135.3269  150.3628 H   0  0  0  0  0  0  0  0  0  0  0  0
  144.3850  136.2999  149.5355 H   0  0  0  0  0  0  0  0  0  0  0  0
  143.4785  135.1373  150.5022 H   0  0  0  0  0  0  0  0  0  0  0  0
  144.4861  134.5810  149.1686 H   0  0  0  0  0  0  0  0  0  0  0  0
  144.6065  136.0520  152.6406 H   0  0  0  0  0  0  0  0  0  0  0  0
  145.5411  137.1775  151.6825 H   0  0  0  0  0  0  0  0  0  0  0  0
  147.5323  136.1333  152.5110 H   0  0  0  0  0  0  0  0  0  0  0  0
  1  2  1  0  0  0  0
  1 22  1  0  0  0  0
  1 23  1  0  0  0  0
  1 24  1  0  0  0  0
  2 21  1  0  0  0  0
  2  3  2  0  0  0  0
  3  4  1  0  0  0  0
  3 25  1  0  0  0  0
  4  5  1  0  0  0  0
  4 20  2  0  0  0  0
  5  6  1  0  0  0  0
  6  7  2  0  0  0  0
  6  8  1  0  0  0  0
  8  9  1  0  0  0  0
  8 26  1  0  0  0  0
  9 10  1  0  0  0  0
  9 27  1  0  0  0  0
  9 28  1  0  0  0  0
 10 11  1  0  0  0  0
 10 12  1  0  0  0  0
 10 29  1  0  0  0  0
 11 30  1  0  0  0  0
 11 31  1  0  0  0  0
 11 32  1  0  0  0  0
 12 19  1  0  0  0  0
 12 13  1  0  0  0  0
 12 45  1  0  0  0  0
 13 14  1  0  0  0  0
 13 33  1  0  0  0  0
 13 34  1  0  0  0  0
 14 15  1  0  0  0  0
 14 16  1  0  0  0  0
 14 35  1  0  0  0  0
 15 36  1  0  0  0  0
 15 37  1  0  0  0  0
 15 38  1  0  0  0  0
 16 17  1  0  0  0  0
 17 18  1  0  0  0  0
 17 19  1  0  0  0  0
 17 39  1  0  0  0  0
 18 40  1  0  0  0  0
 18 41  1  0  0  0  0
 18 42  1  0  0  0  0
 19 43  1  0  0  0  0
 19 44  1  0  0  0  0
 20 21  1  0  0  0  0
M  CHG  1   5  -1
M  CHG  1  12   1
M  END
> <s_m_source_file>
AV-unprocessed.smi

> <i_m_source_file_index>
2061

> <i_lp_mmshare_version>
43012

> <i_f3d_flags>
0

> <s_epik_input>
W0NIM11jMVtjSF1jKG5vMSlbTkhdQyg9TylbTkhdW0NIMl1bQ0BIXShbQ0gzXSlOMltDSDJdW0NAQEhdKFtDSDNdKU9bQ0BASF0oW0NIM10pW0NIMl0y

> <s_epik_cmdline>
J2VwaWtfcHl0aG9uJywgJy1waCcsICc3LjAnLCAnLXRuJywgJzgnLCAnLW1hJywgJzIwMCcsICctbWV0YWxfYmluZGluZycsICctaW1hZScsICc8aW5maWxlLm1hZT4nLCAnLW9tYWUnLCAnPG91dGZpbGUubWFlPic=

> <r_epik_Ionization_Penalty>
6.73511

> <r_epik_Ionization_Penalty_Charging>
6.73502

> <r_epik_Ionization_Penalty_Neutral>
9.50841e-05

> <r_epik_State_Penalty>
6.93549

> <r_epik_Charging_Adjusted_Penalty>
13.6705

> <i_epik_Tot_Q>
0

> <i_epik_Tot_abs_Q>
2

> <r_epik_Metal_State_Penalty>
2.87211

> <b_epik_Metal_Only>
1

> <s_lp_Force_Field>
OPLS_2005

> <r_lp_Energy>
7.84015

> <b_lp_Chiralities_Consistent>
1

> <s_lp_Variant>
AV-unprocessed.smi:2061-21

> <Gold.Version>
5.8.1

> <Gold.Id.Protein>
6NUR|6NUR_protein|mol2

> <Gold.PLP.Fitness>
38.9740

> <Gold.PLP.PLP>
-28.9521

> <Gold.PLP.part.hbond>
-5.0000

> <Gold.PLP.part.metal>
0.0000

> <Gold.PLP.part.buried>
-0.7622

> <Gold.PLP.part.nonpolar>
-22.9652

> <Gold.PLP.part.repulsive>
0.4188

> <Gold.PLP.ligand.clash>
0.0000

> <Gold.PLP.ligand.torsion>
1.2193

> <Gold.PLP.Chemscore.Hbond>
4.1217

> <Gold.PLP.Chemscore.CHOScore>
0.0000

> <Gold.PLP.Chemscore.Metal>
0.0000

> <Gold.Chemscore.Hbonds>
donor molecule, donor type, donor heavy atom, donor atom, acceptor molecule, acceptor atom, score
      L1  H     8    26       P1  7948  0.70
      L1  H    12    45       P1  7948  2.00
      P1  H  7989  7998       L1     5  0.35
      P1  H  7997  8010       L1    21  1.00

> <Gold.PLP.Chemscore.Internal.Correction>
0.0954

> <Gold.Rescore>
     Score         DG    S(hbond)    S(metal)    S(lipo)     H(rot)  DE(clash)    DE(int)     intcor
     14.69     -17.21       2.84        0.00      53.38       1.56       0.04       2.49       ----

> <Gold.Chemscore.Fitness>
14.6876

> <Gold.Chemscore.DG>
-17.2145

> <Gold.Chemscore.ZeroCoef>
-5.4800

> <Gold.Chemscore.Hbond>
2.8353

> <Gold.Chemscore.Metal>
0.0000

> <Gold.Chemscore.Lipo>
53.3795

> <Gold.Chemscore.Internal_Hbond>
0.0000

> <Gold.Chemscore.DEClash>
0.0374

> <Gold.Chemscore.DEInternal>
2.4895

> <Gold.Chemscore.Rot>
1.5550

> <Gold.Chemscore.Internal.Correction>
   9.000000E+99

> <Gold.Chemscore.Hbonds>
donor molecule, donor type, donor heavy atom, donor atom, acceptor molecule, acceptor atom, score
      L1  H     8    26       P1  7948  0.68
      L1  H    12    45       P1  7948  0.96
      P1  H  7989  7998       L1     5  0.01
      P1  H  7997  8010       L1    21  0.42

> <Gold.Chemscore.Hbond.Weighted>
-9.4700

> <Gold.Chemscore.Metal.Weighted>
-0.0000

> <Gold.Chemscore.Lipo.Weighted>
-6.2454

> <Gold.Chemscore.Internal_Hbond.Weighted>
0.0000

> <Gold.Chemscore.DEClash.Weighted>
0.0374

> <Gold.Chemscore.DEInternal.Weighted>
2.4895

> <Gold.Chemscore.Rot.Weighted>
3.9809

> <Gold.Chemscore.Internal.Correction.Weighted>
   9.000000E+99

> <Gold.Protein.RotatedTorsions>
[ 6907 6896 6895 6894 ] final -102.80 input  -60.11 | X-H torsion
[ 7974 7965 7964 7962 ] final -133.14 input  175.53 | X-H torsion
[ 8008 7997 7996 7995 ] final   71.43 input   59.86 | X-H torsion
[ 10167 10162 10161 10158 ] final -116.23 input  -65.29 | X-H torsion
[ 10718 10713 10712 10709 ] final   83.23 input   66.30 | X-H torsion
[ 10763 10752 10751 10750 ] final  -38.63 input  -60.55 | X-H torsion
[ 11005 11000 10999 10996 ] final  -39.20 input  -57.11 | X-H torsion

> <Gold.Protein.ActiveResidues>
 VAL166  LYS551  ARG553  GLY616  TRP617  ASP618  TYR619  PRO620  LYS621  CYS622 
 ASP623  PHE694  ASN695  SER759  ASP760  ASP761  ALA762  ILE779  LEU786  VAL792 
 PHE793  MET794  SER795  GLU796  ALA797  LYS798  CYS799  TRP800  GLU811  SER814 

> <Gold.Protein.RotatedAtoms>
  150.7212  134.0526  159.3803 H   0  0  0  0  0  0  0  0  0  0  0  0  # atno 6907 bound_to 6896
  151.8503  135.0558  160.0467 H   0  0  0  0  0  0  0  0  0  0  0  0  # atno 6908 bound_to 6896
  152.2795  133.5421  159.5525 H   0  0  0  0  0  0  0  0  0  0  0  0  # atno 6909 bound_to 6896
  144.9220  140.7026  143.4959 H   0  0  0  0  0  0  0  0  0  0  0  0  # atno 7974 bound_to 7965
  155.7537  140.3488  155.5163 H   0  0  0  0  0  0  0  0  0  0  0  0  # atno 8008 bound_to 7997
  155.8980  140.1029  157.1392 H   0  0  0  0  0  0  0  0  0  0  0  0  # atno 8009 bound_to 7997
  154.4040  140.1291  156.4387 H   0  0  0  0  0  0  0  0  0  0  0  0  # atno 8010 bound_to 7997
  140.0815  143.4783  152.1923 H   0  0  0  0  0  0  0  0  0  0  0  0  # atno 10167 bound_to 10162
  157.6874  131.0082  150.2493 H   0  0  0  0  0  0  0  0  0  0  0  0  # atno 10718 bound_to 10713
  153.9160  135.6787  153.4749 H   0  0  0  0  0  0  0  0  0  0  0  0  # atno 10763 bound_to 10752
  153.1054  135.4808  154.8938 H   0  0  0  0  0  0  0  0  0  0  0  0  # atno 10764 bound_to 10752
  154.7503  135.3183  154.8526 H   0  0  0  0  0  0  0  0  0  0  0  0  # atno 10765 bound_to 10752
  141.0085  133.6920  156.2155 H   0  0  0  0  0  0  0  0  0  0  0  0  # atno 11005 bound_to 11000
  145.3280  139.1768  143.4552 LP  0  0  0  0  0  0  0  0  0  0  0  0  # atno 17320 bound_to 7965
  146.3209  140.3306  142.8640 LP  0  0  0  0  0  0  0  0  0  0  0  0  # atno 17321 bound_to 7965
  139.5777  144.7495  151.3722 LP  0  0  0  0  0  0  0  0  0  0  0  0  # atno 17342 bound_to 10162
  140.7075  143.7475  150.7508 LP  0  0  0  0  0  0  0  0  0  0  0  0  # atno 17343 bound_to 10162
  156.3092  130.3769  149.7677 LP  0  0  0  0  0  0  0  0  0  0  0  0  # atno 17370 bound_to 10713
  156.5282  130.8246  151.3228 LP  0  0  0  0  0  0  0  0  0  0  0  0  # atno 17371 bound_to 10713
  140.6773  134.4804  157.5588 LP  0  0  0  0  0  0  0  0  0  0  0  0  # atno 17394 bound_to 11000
  139.9076  134.8414  156.1646 LP  0  0  0  0  0  0  0  0  0  0  0  0  # atno 17395 bound_to 11000

$$$$
