AV-unprocessed.smi:1645|AV-procd|sdf|6602|dock2
  -GOLD-   22720 7303D 1   1.00000     0.00000
 Structure written by MMmdl.
 55 58  0  0  0  0  0  0  0  0  2 V2000
  147.1033  136.5322  155.8554 O   0  0  0  0  0  0  0  0  0  0  0  0
  147.6131  136.6286  154.7396 C   0  0  0  0  0  0  0  0  0  0  0  0
  148.5460  137.5287  154.3863 N   0  0  0  0  0  0  0  0  0  0  0  0
  149.1980  138.4900  155.2044 C   0  0  0  0  0  0  0  0  0  0  0  0
  149.1644  138.4852  156.6181 C   0  0  0  0  0  0  0  0  0  0  0  0
  149.8773  139.4759  157.3203 C   0  0  0  0  0  0  0  0  0  0  0  0
  150.6136  140.4438  156.5976 C   0  0  0  0  0  0  0  0  0  0  0  0
  151.3420  141.4393  157.2852 N   0  0  0  0  0  0  0  0  0  0  0  0
  151.7280  141.1637  158.6718 C   0  0  0  0  0  0  0  0  0  0  0  0
  152.8117  142.1435  159.1536 C   0  0  0  0  0  0  0  0  0  0  0  0
  152.3731  143.5997  158.9422 C   0  0  0  0  0  0  0  0  0  0  0  0
  151.9888  143.8246  157.4725 C   0  0  0  0  0  0  0  0  0  0  0  0
  150.9194  142.8161  157.0191 C   0  0  0  0  0  0  0  0  0  0  0  0
  150.6458  140.4427  155.2424 N   0  0  0  0  0  0  0  0  0  0  0  0
  149.9638  139.4900  154.5733 C   0  0  0  0  0  0  0  0  0  0  0  0
  147.2763  135.8463  153.7046 N   0  0  0  0  0  0  0  0  0  0  0  0
  146.2848  134.7753  153.7502 C   0  0  2  0  0  0  0  0  0  0  0  0
  146.7022  133.5980  154.6380 C   0  0  0  0  0  0  0  0  0  0  0  0
  146.0249  132.4023  153.9711 C   0  0  0  0  0  0  0  0  0  0  0  0
  146.1612  132.6973  152.5376 N   0  3  1  0  0  0  0  0  0  0  0  0
  145.4815  131.7828  151.5838 C   0  0  0  0  0  0  0  0  0  0  0  0
  144.0579  132.2245  151.2261 C   0  0  0  0  0  0  0  0  0  0  0  0
  144.0684  133.6720  150.7335 C   0  0  0  0  0  0  0  0  0  0  0  0
  144.5871  134.5661  151.8598 C   0  0  0  0  0  0  0  0  0  0  0  0
  146.0016  134.1664  152.3512 C   0  0  1  0  0  0  0  0  0  0  0  0
  148.7952  137.5547  153.4084 H   0  0  0  0  0  0  0  0  0  0  0  0
  148.6217  137.7381  157.1760 H   0  0  0  0  0  0  0  0  0  0  0  0
  149.8457  139.4863  158.3997 H   0  0  0  0  0  0  0  0  0  0  0  0
  150.8468  141.2394  159.3103 H   0  0  0  0  0  0  0  0  0  0  0  0
  152.1052  140.1441  158.7616 H   0  0  0  0  0  0  0  0  0  0  0  0
  153.0314  141.9678  160.2067 H   0  0  0  0  0  0  0  0  0  0  0  0
  153.7380  141.9588  158.6082 H   0  0  0  0  0  0  0  0  0  0  0  0
  151.5210  143.8242  159.5849 H   0  0  0  0  0  0  0  0  0  0  0  0
  153.1735  144.2810  159.2322 H   0  0  0  0  0  0  0  0  0  0  0  0
  151.6244  144.8426  157.3334 H   0  0  0  0  0  0  0  0  0  0  0  0
  152.8742  143.7237  156.8434 H   0  0  0  0  0  0  0  0  0  0  0  0
  150.7106  142.9775  155.9624 H   0  0  0  0  0  0  0  0  0  0  0  0
  149.9861  143.0008  157.5528 H   0  0  0  0  0  0  0  0  0  0  0  0
  150.0309  139.5316  153.4959 H   0  0  0  0  0  0  0  0  0  0  0  0
  147.7450  135.9980  152.8235 H   0  0  0  0  0  0  0  0  0  0  0  0
  145.3657  135.1777  154.1805 H   0  0  0  0  0  0  0  0  0  0  0  0
  147.7852  133.4652  154.6129 H   0  0  0  0  0  0  0  0  0  0  0  0
  146.4043  133.7255  155.6791 H   0  0  0  0  0  0  0  0  0  0  0  0
  146.4927  131.4544  154.2387 H   0  0  0  0  0  0  0  0  0  0  0  0
  144.9683  132.3573  154.2402 H   0  0  0  0  0  0  0  0  0  0  0  0
  146.0805  131.7609  150.6724 H   0  0  0  0  0  0  0  0  0  0  0  0
  145.4846  130.7646  151.9749 H   0  0  0  0  0  0  0  0  0  0  0  0
  143.6506  131.5706  150.4541 H   0  0  0  0  0  0  0  0  0  0  0  0
  143.4040  132.1262  152.0936 H   0  0  0  0  0  0  0  0  0  0  0  0
  144.6968  133.7708  149.8473 H   0  0  0  0  0  0  0  0  0  0  0  0
  143.0625  133.9787  150.4449 H   0  0  0  0  0  0  0  0  0  0  0  0
  144.5900  135.6072  151.5362 H   0  0  0  0  0  0  0  0  0  0  0  0
  143.8729  134.5084  152.6824 H   0  0  0  0  0  0  0  0  0  0  0  0
  146.7431  134.4787  151.6141 H   0  0  0  0  0  0  0  0  0  0  0  0
  147.1448  132.5369  152.3736 H   0  0  0  0  0  0  0  0  0  0  0  0
  1  2  2  0  0  0  0
  2  3  1  0  0  0  0
  2 16  1  0  0  0  0
  3  4  1  0  0  0  0
  3 26  1  0  0  0  0
  4 15  1  0  0  0  0
  4  5  2  0  0  0  0
  5  6  1  0  0  0  0
  5 27  1  0  0  0  0
  6  7  2  0  0  0  0
  6 28  1  0  0  0  0
  7  8  1  0  0  0  0
  7 14  1  0  0  0  0
  8 13  1  0  0  0  0
  8  9  1  0  0  0  0
  9 10  1  0  0  0  0
  9 29  1  0  0  0  0
  9 30  1  0  0  0  0
 10 11  1  0  0  0  0
 10 31  1  0  0  0  0
 10 32  1  0  0  0  0
 11 12  1  0  0  0  0
 11 33  1  0  0  0  0
 11 34  1  0  0  0  0
 12 13  1  0  0  0  0
 12 35  1  0  0  0  0
 12 36  1  0  0  0  0
 13 37  1  0  0  0  0
 13 38  1  0  0  0  0
 14 15  2  0  0  0  0
 15 39  1  0  0  0  0
 16 17  1  0  0  0  0
 16 40  1  0  0  0  0
 17 25  1  0  0  0  0
 17 18  1  0  0  0  0
 17 41  1  0  0  0  0
 18 19  1  0  0  0  0
 18 42  1  0  0  0  0
 18 43  1  0  0  0  0
 19 20  1  0  0  0  0
 19 44  1  0  0  0  0
 19 45  1  0  0  0  0
 20 25  1  0  0  0  0
 20 21  1  0  0  0  0
 20 55  1  0  0  0  0
 21 22  1  0  0  0  0
 21 46  1  0  0  0  0
 21 47  1  0  0  0  0
 22 23  1  0  0  0  0
 22 48  1  0  0  0  0
 22 49  1  0  0  0  0
 23 24  1  0  0  0  0
 23 50  1  0  0  0  0
 23 51  1  0  0  0  0
 24 25  1  0  0  0  0
 24 52  1  0  0  0  0
 24 53  1  0  0  0  0
 25 54  1  0  0  0  0
M  CHG  1  20   1
M  END
> <s_m_source_file>
AV-unprocessed.smi

> <i_m_source_file_index>
1645

> <i_lp_mmshare_version>
43012

> <i_f3d_flags>
0

> <s_epik_input>
W0NIMl0xW0NIMl1bQ0gyXVtDSDJdW0NASF0oTjEyKVtDQEBIXShbQ0gyXVtDSDJdMilbTkhdQyg9TylbTkhdYzNbY0hdW2NIXWMobltjSF0zKU40W0NIMl1bQ0gyXVtDSDJdW0NIMl1bQ0gyXTQ=

> <s_epik_cmdline>
J2VwaWtfcHl0aG9uJywgJy1waCcsICc3LjAnLCAnLXRuJywgJzgnLCAnLW1hJywgJzIwMCcsICctbWV0YWxfYmluZGluZycsICctaW1hZScsICc8aW5maWxlLm1hZT4nLCAnLW9tYWUnLCAnPG91dGZpbGUubWFlPic=

> <r_lp_tautomer_probability>
1

> <r_epik_Ionization_Penalty>
0.0808019

> <r_epik_Ionization_Penalty_Charging>
0.000974069

> <r_epik_Ionization_Penalty_Neutral>
0.0798278

> <r_epik_State_Penalty>
0.0653665

> <r_epik_Charging_Adjusted_Penalty>
0.0663406

> <i_epik_Tot_Q>
1

> <i_epik_Tot_abs_Q>
1

> <r_epik_Metal_State_Penalty>
0.0585673

> <b_epik_Metal_Only>
0

> <s_lp_Force_Field>
OPLS_2005

> <r_lp_Energy>
57.6774

> <b_lp_Chiralities_Consistent>
1

> <s_lp_Variant>
AV-unprocessed.smi:1645-3

> <Gold.Version>
5.8.1

> <Gold.Id.Protein>
6NUR|6NUR_protein|mol2

> <Gold.PLP.Fitness>
45.2813

> <Gold.PLP.PLP>
-36.1811

> <Gold.PLP.part.hbond>
-2.8396

> <Gold.PLP.part.metal>
0.0000

> <Gold.PLP.part.buried>
-5.5576

> <Gold.PLP.part.nonpolar>
-28.6960

> <Gold.PLP.part.repulsive>
0.1106

> <Gold.PLP.ligand.clash>
0.0000

> <Gold.PLP.ligand.torsion>
0.4046

> <Gold.PLP.Chemscore.Hbond>
2.1674

> <Gold.PLP.Chemscore.CHOScore>
1.0000

> <Gold.PLP.Chemscore.Metal>
0.0000

> <Gold.Chemscore.Hbonds>
donor molecule, donor type, donor heavy atom, donor atom, acceptor molecule, acceptor atom, score
      L1  H     3    26       P1  7948  0.77
      L1  H    16    40       P1  7948  1.00
      P1  H  7989  7998       L1    14  0.43
      L1  C    15    39       P1  7957  1.00

> <Gold.PLP.Chemscore.Internal.Correction>
0.4074

> <Gold.Rescore>
     Score         DG    S(hbond)    S(metal)    S(lipo)     H(rot)  DE(clash)    DE(int)     intcor
     18.51     -20.53       1.81        0.00     102.57       1.17       0.56       1.46       ----

> <Gold.Chemscore.Fitness>
18.5059

> <Gold.Chemscore.DG>
-20.5329

> <Gold.Chemscore.ZeroCoef>
-5.4800

> <Gold.Chemscore.Hbond>
1.8130

> <Gold.Chemscore.Metal>
0.0000

> <Gold.Chemscore.Lipo>
102.5716

> <Gold.Chemscore.Internal_Hbond>
0.0000

> <Gold.Chemscore.DEClash>
0.5639

> <Gold.Chemscore.DEInternal>
1.4630

> <Gold.Chemscore.Rot>
1.1731

> <Gold.Chemscore.Internal.Correction>
   9.000000E+99

> <Gold.Chemscore.Hbonds>
donor molecule, donor type, donor heavy atom, donor atom, acceptor molecule, acceptor atom, score
      L1  H     3    26       P1  7948  0.71
      L1  H    16    40       P1  7948  0.95
      P1  H  7989  7998       L1    14  0.01

> <Gold.Chemscore.Hbond.Weighted>
-6.0553

> <Gold.Chemscore.Metal.Weighted>
-0.0000

> <Gold.Chemscore.Lipo.Weighted>
-12.0009

> <Gold.Chemscore.Internal_Hbond.Weighted>
0.0000

> <Gold.Chemscore.DEClash.Weighted>
0.5639

> <Gold.Chemscore.DEInternal.Weighted>
1.4630

> <Gold.Chemscore.Rot.Weighted>
3.0032

> <Gold.Chemscore.Internal.Correction.Weighted>
   9.000000E+99

> <Gold.Protein.RotatedTorsions>
[ 6907 6896 6895 6894 ] final -106.43 input  -60.11 | X-H torsion
[ 7974 7965 7964 7962 ] final  158.76 input  175.53 | X-H torsion
[ 8008 7997 7996 7995 ] final   89.97 input   59.86 | X-H torsion
[ 10167 10162 10161 10158 ] final  -70.29 input  -65.29 | X-H torsion
[ 10718 10713 10712 10709 ] final -122.13 input   66.30 | X-H torsion
[ 10763 10752 10751 10750 ] final  127.43 input  -60.55 | X-H torsion
[ 11005 11000 10999 10996 ] final  -49.16 input  -57.11 | X-H torsion

> <Gold.Protein.ActiveResidues>
 VAL166  LYS551  ARG553  GLY616  TRP617  ASP618  TYR619  PRO620  LYS621  CYS622 
 ASP623  PHE694  ASN695  SER759  ASP760  ASP761  ALA762  ILE779  LEU786  VAL792 
 PHE793  MET794  SER795  GLU796  ALA797  LYS798  CYS799  TRP800  GLU811  SER814 

> <Gold.Protein.RotatedAtoms>
  150.7389  133.9978  159.3627 H   0  0  0  0  0  0  0  0  0  0  0  0  # atno 6907 bound_to 6896
  151.7930  135.0728  160.0399 H   0  0  0  0  0  0  0  0  0  0  0  0  # atno 6908 bound_to 6896
  152.3195  133.5801  159.5771 H   0  0  0  0  0  0  0  0  0  0  0  0  # atno 6909 bound_to 6896
  144.7828  139.7523  143.6253 H   0  0  0  0  0  0  0  0  0  0  0  0  # atno 7974 bound_to 7965
  156.0064  140.3354  155.6897 H   0  0  0  0  0  0  0  0  0  0  0  0  # atno 8008 bound_to 7997
  155.6219  140.0676  157.2693 H   0  0  0  0  0  0  0  0  0  0  0  0  # atno 8009 bound_to 7997
  154.4266  140.1775  156.1368 H   0  0  0  0  0  0  0  0  0  0  0  0  # atno 8010 bound_to 7997
  140.5364  143.2317  151.7169 H   0  0  0  0  0  0  0  0  0  0  0  0  # atno 10167 bound_to 10162
  156.1394  130.6454  150.9747 H   0  0  0  0  0  0  0  0  0  0  0  0  # atno 10718 bound_to 10713
  153.7092  135.3271  155.3242 H   0  0  0  0  0  0  0  0  0  0  0  0  # atno 10763 bound_to 10752
  154.8390  135.4473  154.1331 H   0  0  0  0  0  0  0  0  0  0  0  0  # atno 10764 bound_to 10752
  153.2420  135.6972  153.7851 H   0  0  0  0  0  0  0  0  0  0  0  0  # atno 10765 bound_to 10752
  141.0743  133.6670  156.3545 H   0  0  0  0  0  0  0  0  0  0  0  0  # atno 11005 bound_to 11000
  146.2044  139.5360  142.9722 LP  0  0  0  0  0  0  0  0  0  0  0  0  # atno 17320 bound_to 7965
  145.6004  141.0356  143.2021 LP  0  0  0  0  0  0  0  0  0  0  0  0  # atno 17321 bound_to 7965
  139.4972  144.4036  152.0155 LP  0  0  0  0  0  0  0  0  0  0  0  0  # atno 17342 bound_to 10162
  140.3142  144.3503  150.6026 LP  0  0  0  0  0  0  0  0  0  0  0  0  # atno 17343 bound_to 10162
  157.6561  131.0889  150.7943 LP  0  0  0  0  0  0  0  0  0  0  0  0  # atno 17370 bound_to 10713
  156.8020  130.4924  149.5368 LP  0  0  0  0  0  0  0  0  0  0  0  0  # atno 17371 bound_to 10713
  140.5607  134.5937  157.5433 LP  0  0  0  0  0  0  0  0  0  0  0  0  # atno 17394 bound_to 11000
  139.9555  134.7542  156.0351 LP  0  0  0  0  0  0  0  0  0  0  0  0  # atno 17395 bound_to 11000

$$$$
