AV-unprocessed.smi:1161|AV-procd|sdf|4917|dock6
  -GOLD-   22720 3493D 1   1.00000     0.00000
 Structure written by MMmdl.
 46 47  0  0  0  0  0  0  0  0  1 V2000
  142.4077  135.6789  153.3939 C   0  0  0  0  0  0  0  0  0  0  0  0
  143.3125  135.5251  152.1602 C   0  0  0  0  0  0  0  0  0  0  0  0
  144.6670  136.2800  152.2261 C   0  0  1  0  0  0  0  0  0  0  0  0
  145.5239  136.0417  150.9675 C   0  0  0  0  0  0  0  0  0  0  0  0
  144.4188  137.6724  152.2851 O   0  0  0  0  0  0  0  0  0  0  0  0
  145.5041  135.9160  153.4788 C   0  0  0  0  0  0  0  0  0  0  0  0
  146.7871  136.6149  153.5416 N   0  0  0  0  0  0  0  0  0  0  0  0
  147.1781  137.4471  154.5175 C   0  0  0  0  0  0  0  0  0  0  0  0
  146.4898  137.7103  155.5031 O   0  0  0  0  0  0  0  0  0  0  0  0
  148.4069  137.9339  154.2738 N   0  0  0  0  0  0  0  0  0  0  0  0
  149.1782  138.8325  155.0601 C   0  0  0  0  0  0  0  0  0  0  0  0
  149.0805  138.7322  156.4624 C   0  0  0  0  0  0  0  0  0  0  0  0
  149.8367  139.6028  157.2694 C   0  0  0  0  0  0  0  0  0  0  0  0
  150.6793  140.5480  156.6415 C   0  0  0  0  0  0  0  0  0  0  0  0
  151.4505  141.4526  157.3830 N   0  0  0  0  0  0  0  0  0  0  0  0
  151.0385  142.8405  157.2180 C   0  0  0  0  0  0  0  0  0  0  0  0
  152.0173  143.7693  157.9565 C   0  0  0  0  0  0  0  0  0  0  0  0
  152.0957  143.3857  159.3268 O   0  0  0  0  0  0  0  0  0  0  0  0
  152.5707  142.0512  159.4823 C   0  0  0  0  0  0  0  0  0  0  0  0
  151.6092  141.0753  158.7817 C   0  0  0  0  0  0  0  0  0  0  0  0
  150.7943  140.6389  155.2995 N   0  0  0  0  0  0  0  0  0  0  0  0
  150.0659  139.8012  154.5308 C   0  0  0  0  0  0  0  0  0  0  0  0
  141.5169  135.0587  153.2931 H   0  0  0  0  0  0  0  0  0  0  0  0
  142.0706  136.7071  153.5230 H   0  0  0  0  0  0  0  0  0  0  0  0
  142.9188  135.3721  154.3065 H   0  0  0  0  0  0  0  0  0  0  0  0
  143.4901  134.4590  152.0159 H   0  0  0  0  0  0  0  0  0  0  0  0
  142.7602  135.8568  151.2800 H   0  0  0  0  0  0  0  0  0  0  0  0
  145.7162  134.9787  150.8188 H   0  0  0  0  0  0  0  0  0  0  0  0
  146.4904  136.5412  151.0456 H   0  0  0  0  0  0  0  0  0  0  0  0
  145.0434  136.4203  150.0652 H   0  0  0  0  0  0  0  0  0  0  0  0
  144.2066  137.9761  151.4160 H   0  0  0  0  0  0  0  0  0  0  0  0
  144.9211  136.1270  154.3771 H   0  0  0  0  0  0  0  0  0  0  0  0
  145.7001  134.8432  153.5067 H   0  0  0  0  0  0  0  0  0  0  0  0
  147.4188  136.4624  152.7690 H   0  0  0  0  0  0  0  0  0  0  0  0
  148.8699  137.5722  153.4530 H   0  0  0  0  0  0  0  0  0  0  0  0
  148.4283  138.0012  156.9180 H   0  0  0  0  0  0  0  0  0  0  0  0
  149.7662  139.5443  158.3457 H   0  0  0  0  0  0  0  0  0  0  0  0
  151.0088  143.0935  156.1575 H   0  0  0  0  0  0  0  0  0  0  0  0
  150.0309  142.9784  157.6124 H   0  0  0  0  0  0  0  0  0  0  0  0
  153.0076  143.7327  157.4997 H   0  0  0  0  0  0  0  0  0  0  0  0
  151.6752  144.8023  157.8946 H   0  0  0  0  0  0  0  0  0  0  0  0
  153.5791  141.9635  159.0746 H   0  0  0  0  0  0  0  0  0  0  0  0
  152.6353  141.8184  160.5450 H   0  0  0  0  0  0  0  0  0  0  0  0
  150.6401  141.0882  159.2816 H   0  0  0  0  0  0  0  0  0  0  0  0
  151.9946  140.0570  158.8481 H   0  0  0  0  0  0  0  0  0  0  0  0
  150.2266  139.9151  153.4705 H   0  0  0  0  0  0  0  0  0  0  0  0
  1  2  1  0  0  0  0
  1 23  1  0  0  0  0
  1 24  1  0  0  0  0
  1 25  1  0  0  0  0
  2  3  1  0  0  0  0
  2 26  1  0  0  0  0
  2 27  1  0  0  0  0
  3  4  1  0  0  0  0
  3  5  1  0  0  0  0
  3  6  1  0  0  0  0
  4 28  1  0  0  0  0
  4 29  1  0  0  0  0
  4 30  1  0  0  0  0
  5 31  1  0  0  0  0
  6  7  1  0  0  0  0
  6 32  1  0  0  0  0
  6 33  1  0  0  0  0
  7  8  1  0  0  0  0
  7 34  1  0  0  0  0
  8  9  2  0  0  0  0
  8 10  1  0  0  0  0
 10 11  1  0  0  0  0
 10 35  1  0  0  0  0
 11 22  1  0  0  0  0
 11 12  2  0  0  0  0
 12 13  1  0  0  0  0
 12 36  1  0  0  0  0
 13 14  2  0  0  0  0
 13 37  1  0  0  0  0
 14 15  1  0  0  0  0
 14 21  1  0  0  0  0
 15 20  1  0  0  0  0
 15 16  1  0  0  0  0
 16 17  1  0  0  0  0
 16 38  1  0  0  0  0
 16 39  1  0  0  0  0
 17 18  1  0  0  0  0
 17 40  1  0  0  0  0
 17 41  1  0  0  0  0
 18 19  1  0  0  0  0
 19 20  1  0  0  0  0
 19 42  1  0  0  0  0
 19 43  1  0  0  0  0
 20 44  1  0  0  0  0
 20 45  1  0  0  0  0
 21 22  2  0  0  0  0
 22 46  1  0  0  0  0
M  END
> <s_m_source_file>
AV-unprocessed.smi

> <i_m_source_file_index>
1161

> <i_lp_mmshare_version>
43012

> <i_f3d_flags>
0

> <s_epik_input>
W0NIM11bQ0gyXVtDQEBdKFtDSDNdKShbT0hdKVtDSDJdW05IXUMoPU8pW05IXWMxW2NIXVtjSF1jKG5bY0hdMSlOMltDSDJdW0NIMl1PW0NIMl1bQ0gyXTI=

> <s_epik_cmdline>
J2VwaWtfcHl0aG9uJywgJy1waCcsICc3LjAnLCAnLXRuJywgJzgnLCAnLW1hJywgJzIwMCcsICctbWV0YWxfYmluZGluZycsICctaW1hZScsICc8aW5maWxlLm1hZT4nLCAnLW9tYWUnLCAnPG91dGZpbGUubWFlPic=

> <r_lp_tautomer_probability>
1

> <r_epik_Ionization_Penalty>
0.00208949

> <r_epik_Ionization_Penalty_Charging>
0

> <r_epik_Ionization_Penalty_Neutral>
0.00208949

> <r_epik_State_Penalty>
0.00140033

> <r_epik_Charging_Adjusted_Penalty>
0.00140033

> <i_epik_Tot_Q>
0

> <i_epik_Tot_abs_Q>
0

> <r_epik_Metal_State_Penalty>
-0

> <b_epik_Metal_Only>
0

> <s_lp_Force_Field>
OPLS_2005

> <r_lp_Energy>
26.851

> <b_lp_Chiralities_Consistent>
1

> <s_lp_Variant>
AV-unprocessed.smi:1161-1

> <Gold.Version>
5.8.1

> <Gold.Id.Protein>
6NUR|6NUR_protein|mol2

> <Gold.PLP.Fitness>
45.1548

> <Gold.PLP.PLP>
-34.0884

> <Gold.PLP.part.hbond>
-5.0000

> <Gold.PLP.part.metal>
0.0000

> <Gold.PLP.part.buried>
-5.7507

> <Gold.PLP.part.nonpolar>
-24.2681

> <Gold.PLP.part.repulsive>
0.0998

> <Gold.PLP.ligand.clash>
0.0000

> <Gold.PLP.ligand.torsion>
0.5336

> <Gold.PLP.Chemscore.Hbond>
2.9920

> <Gold.PLP.Chemscore.CHOScore>
1.0000

> <Gold.PLP.Chemscore.Metal>
0.0000

> <Gold.Chemscore.Hbonds>
donor molecule, donor type, donor heavy atom, donor atom, acceptor molecule, acceptor atom, score
      L1  H     5    31       P1 10171  1.00
      L1  H     7    34       P1  7948  1.00
      L1  H    10    35       P1  7948  0.91
      L1  C    22    46       P1  7957  1.00

> <Gold.PLP.Chemscore.Internal.Correction>
0.1576

> <Gold.Rescore>
     Score         DG    S(hbond)    S(metal)    S(lipo)     H(rot)  DE(clash)    DE(int)     intcor
     17.00     -18.73       2.94        0.00      76.64       2.16       0.01       1.72       ----

> <Gold.Chemscore.Fitness>
16.9994

> <Gold.Chemscore.DG>
-18.7286

> <Gold.Chemscore.ZeroCoef>
-5.4800

> <Gold.Chemscore.Hbond>
2.9401

> <Gold.Chemscore.Metal>
0.0000

> <Gold.Chemscore.Lipo>
76.6372

> <Gold.Chemscore.Internal_Hbond>
0.0000

> <Gold.Chemscore.DEClash>
0.0128

> <Gold.Chemscore.DEInternal>
1.7165

> <Gold.Chemscore.Rot>
2.1633

> <Gold.Chemscore.Internal.Correction>
   9.000000E+99

> <Gold.Chemscore.Hbonds>
donor molecule, donor type, donor heavy atom, donor atom, acceptor molecule, acceptor atom, score
      L1  H     5    31       P1 10171  1.00
      L1  H     7    34       P1  7948  1.00
      L1  H    10    35       P1  7948  0.84

> <Gold.Chemscore.Hbond.Weighted>
-9.8200

> <Gold.Chemscore.Metal.Weighted>
-0.0000

> <Gold.Chemscore.Lipo.Weighted>
-8.9666

> <Gold.Chemscore.Internal_Hbond.Weighted>
0.0000

> <Gold.Chemscore.DEClash.Weighted>
0.0128

> <Gold.Chemscore.DEInternal.Weighted>
1.7165

> <Gold.Chemscore.Rot.Weighted>
5.5379

> <Gold.Chemscore.Internal.Correction.Weighted>
   9.000000E+99

> <Gold.Protein.RotatedTorsions>
[ 6907 6896 6895 6894 ] final -125.74 input  -60.11 | X-H torsion
[ 7974 7965 7964 7962 ] final   88.30 input  175.53 | X-H torsion
[ 8008 7997 7996 7995 ] final   97.69 input   59.86 | X-H torsion
[ 10167 10162 10161 10158 ] final   10.24 input  -65.29 | X-H torsion
[ 10718 10713 10712 10709 ] final  -20.83 input   66.30 | X-H torsion
[ 10763 10752 10751 10750 ] final  -22.30 input  -60.55 | X-H torsion
[ 11005 11000 10999 10996 ] final  -33.79 input  -57.11 | X-H torsion

> <Gold.Protein.ActiveResidues>
 VAL166  LYS551  ARG553  GLY616  TRP617  ASP618  TYR619  PRO620  LYS621  CYS622 
 ASP623  PHE694  ASN695  SER759  ASP760  ASP761  ALA762  ILE779  LEU786  VAL792 
 PHE793  MET794  SER795  GLU796  ALA797  LYS798  CYS799  TRP800  GLU811  SER814 

> <Gold.Protein.RotatedAtoms>
  150.8898  133.7259  159.2907 H   0  0  0  0  0  0  0  0  0  0  0  0  # atno 6907 bound_to 6896
  151.4812  135.1051  159.9788 H   0  0  0  0  0  0  0  0  0  0  0  0  # atno 6908 bound_to 6896
  152.4813  133.8214  159.7111 H   0  0  0  0  0  0  0  0  0  0  0  0  # atno 6909 bound_to 6896
  145.5474  139.2293  143.2531 H   0  0  0  0  0  0  0  0  0  0  0  0  # atno 7974 bound_to 7965
  156.0927  140.3254  155.7837 H   0  0  0  0  0  0  0  0  0  0  0  0  # atno 8008 bound_to 7997
  155.4969  140.0566  157.2962 H   0  0  0  0  0  0  0  0  0  0  0  0  # atno 8009 bound_to 7997
  154.4648  140.1984  156.0164 H   0  0  0  0  0  0  0  0  0  0  0  0  # atno 8010 bound_to 7997
  140.6206  143.8212  150.7170 H   0  0  0  0  0  0  0  0  0  0  0  0  # atno 10167 bound_to 10162
  156.5265  130.4645  149.6569 H   0  0  0  0  0  0  0  0  0  0  0  0  # atno 10718 bound_to 10713
  153.6497  135.6981  153.5213 H   0  0  0  0  0  0  0  0  0  0  0  0  # atno 10763 bound_to 10752
  153.2716  135.4213  155.0992 H   0  0  0  0  0  0  0  0  0  0  0  0  # atno 10764 bound_to 10752
  154.8479  135.3580  154.6042 H   0  0  0  0  0  0  0  0  0  0  0  0  # atno 10765 bound_to 10752
  140.9663  133.7135  156.1451 H   0  0  0  0  0  0  0  0  0  0  0  0  # atno 11005 bound_to 11000
  146.1940  140.6296  142.9133 LP  0  0  0  0  0  0  0  0  0  0  0  0  # atno 17320 bound_to 7965
  144.7546  140.5276  143.6778 LP  0  0  0  0  0  0  0  0  0  0  0  0  # atno 17321 bound_to 7965
  140.1802  143.4121  152.1938 LP  0  0  0  0  0  0  0  0  0  0  0  0  # atno 17342 bound_to 10162
  139.5435  144.7278  151.4656 LP  0  0  0  0  0  0  0  0  0  0  0  0  # atno 17343 bound_to 10162
  156.3100  130.7224  151.2114 LP  0  0  0  0  0  0  0  0  0  0  0  0  # atno 17370 bound_to 10713
  157.7429  131.0483  150.4991 LP  0  0  0  0  0  0  0  0  0  0  0  0  # atno 17371 bound_to 10713
  140.7394  134.4167  157.5556 LP  0  0  0  0  0  0  0  0  0  0  0  0  # atno 17394 bound_to 11000
  139.8896  134.8827  156.2414 LP  0  0  0  0  0  0  0  0  0  0  0  0  # atno 17395 bound_to 11000

$$$$
