AV-unprocessed.smi:1733|AV-procd|sdf|6979|dock5
  -GOLD-   22720 8193D 1   1.00000     0.00000
 Structure written by MMmdl.
 53 55  0  0  0  0  0  0  0  0  2 V2000
  146.3927  135.5605  155.3596 O   0  0  0  0  0  0  0  0  0  0  0  0
  147.2081  135.8314  154.4781 C   0  0  0  0  0  0  0  0  0  0  0  0
  146.9722  135.7603  153.1566 N   0  0  0  0  0  0  0  0  0  0  0  0
  145.7596  135.4265  152.4946 C   0  0  0  0  0  0  0  0  0  0  0  0
  144.7268  134.8506  153.2674 C   0  0  0  0  0  0  0  0  0  0  0  0
  143.5141  134.4872  152.6468 C   0  0  0  0  0  0  0  0  0  0  0  0
  143.3529  134.6812  151.3202 N   0  3  0  0  0  0  0  0  0  0  0  0
  144.3163  135.2134  150.5378 C   0  0  0  0  0  0  0  0  0  0  0  0
  145.5500  135.5969  151.1022 C   0  0  0  0  0  0  0  0  0  0  0  0
  148.4674  136.2185  154.7267 N   0  0  0  0  0  0  0  0  0  0  0  0
  149.0523  136.3881  156.0537 C   0  0  0  0  0  0  0  0  0  0  0  0
  148.6212  137.7515  156.6364 C   0  0  0  0  0  0  0  0  0  0  0  0
  149.3738  138.0620  157.9419 C   0  0  0  0  0  0  0  0  0  0  0  0
  150.8205  138.0182  157.6719 N   0  0  0  0  0  0  0  0  0  0  0  0
  151.6520  139.0855  157.5625 C   0  0  0  0  0  0  0  0  0  0  0  0
  152.7485  139.0326  157.0033 O   0  0  0  0  0  0  0  0  0  0  0  0
  151.1832  140.2203  158.1098 N   0  0  0  0  0  0  0  0  0  0  0  0
  151.8627  141.5120  158.1083 C   0  0  0  0  0  0  0  0  0  0  0  0
  152.1764  141.9273  159.5584 C   0  0  0  0  0  0  0  0  0  0  0  0
  152.8353  143.3149  159.6182 C   0  0  0  0  0  0  0  0  0  0  0  0
  151.9675  144.3742  158.9210 C   0  0  0  0  0  0  0  0  0  0  0  0
  151.6571  143.9688  157.4720 C   0  0  0  0  0  0  0  0  0  0  0  0
  150.9977  142.5818  157.4090 C   0  0  0  0  0  0  0  0  0  0  0  0
  151.2483  136.6582  157.3230 C   0  0  0  0  0  0  0  0  0  0  0  0
  150.5921  136.2589  155.9880 C   0  0  0  0  0  0  0  0  0  0  0  0
  147.7681  135.9154  152.5551 H   0  0  0  0  0  0  0  0  0  0  0  0
  144.8566  134.6927  154.3286 H   0  0  0  0  0  0  0  0  0  0  0  0
  142.6755  134.0482  153.1676 H   0  0  0  0  0  0  0  0  0  0  0  0
  144.0762  135.3101  149.4890 H   0  0  0  0  0  0  0  0  0  0  0  0
  146.3145  136.0014  150.4563 H   0  0  0  0  0  0  0  0  0  0  0  0
  149.0702  136.4127  153.9405 H   0  0  0  0  0  0  0  0  0  0  0  0
  148.6712  135.6122  156.7205 H   0  0  0  0  0  0  0  0  0  0  0  0
  148.8193  138.5452  155.9141 H   0  0  0  0  0  0  0  0  0  0  0  0
  147.5454  137.7578  156.8165 H   0  0  0  0  0  0  0  0  0  0  0  0
  149.0282  139.0091  158.3560 H   0  0  0  0  0  0  0  0  0  0  0  0
  149.1277  137.3145  158.6975 H   0  0  0  0  0  0  0  0  0  0  0  0
  150.2765  140.1861  158.5525 H   0  0  0  0  0  0  0  0  0  0  0  0
  152.8082  141.4138  157.5709 H   0  0  0  0  0  0  0  0  0  0  0  0
  151.2575  141.9408  160.1466 H   0  0  0  0  0  0  0  0  0  0  0  0
  152.8310  141.1906  160.0254 H   0  0  0  0  0  0  0  0  0  0  0  0
  153.0071  143.5997  160.6565 H   0  0  0  0  0  0  0  0  0  0  0  0
  153.8160  143.2744  159.1423 H   0  0  0  0  0  0  0  0  0  0  0  0
  151.0351  144.5046  159.4719 H   0  0  0  0  0  0  0  0  0  0  0  0
  152.4736  145.3397  158.9363 H   0  0  0  0  0  0  0  0  0  0  0  0
  151.0057  144.7106  157.0094 H   0  0  0  0  0  0  0  0  0  0  0  0
  152.5792  143.9606  156.8893 H   0  0  0  0  0  0  0  0  0  0  0  0
  150.8269  142.3091  156.3669 H   0  0  0  0  0  0  0  0  0  0  0  0
  150.0149  142.6277  157.8803 H   0  0  0  0  0  0  0  0  0  0  0  0
  152.3324  136.5625  157.2476 H   0  0  0  0  0  0  0  0  0  0  0  0
  150.9460  135.9673  158.1113 H   0  0  0  0  0  0  0  0  0  0  0  0
  150.8734  135.2380  155.7275 H   0  0  0  0  0  0  0  0  0  0  0  0
  150.9835  136.8983  155.1950 H   0  0  0  0  0  0  0  0  0  0  0  0
  142.4682  134.4100  150.8898 H   0  0  0  0  0  0  0  0  0  0  0  0
  1  2  2  0  0  0  0
  2  3  1  0  0  0  0
  2 10  1  0  0  0  0
  3  4  1  0  0  0  0
  3 26  1  0  0  0  0
  4  9  1  0  0  0  0
  4  5  2  0  0  0  0
  5  6  1  0  0  0  0
  5 27  1  0  0  0  0
  6  7  2  0  0  0  0
  6 28  1  0  0  0  0
  7  8  1  0  0  0  0
  7 53  1  0  0  0  0
  8  9  2  0  0  0  0
  8 29  1  0  0  0  0
  9 30  1  0  0  0  0
 10 11  1  0  0  0  0
 10 31  1  0  0  0  0
 11 25  1  0  0  0  0
 11 12  1  0  0  0  0
 11 32  1  0  0  0  0
 12 13  1  0  0  0  0
 12 33  1  0  0  0  0
 12 34  1  0  0  0  0
 13 14  1  0  0  0  0
 13 35  1  0  0  0  0
 13 36  1  0  0  0  0
 14 15  1  0  0  0  0
 14 24  1  0  0  0  0
 15 16  2  0  0  0  0
 15 17  1  0  0  0  0
 17 18  1  0  0  0  0
 17 37  1  0  0  0  0
 18 23  1  0  0  0  0
 18 19  1  0  0  0  0
 18 38  1  0  0  0  0
 19 20  1  0  0  0  0
 19 39  1  0  0  0  0
 19 40  1  0  0  0  0
 20 21  1  0  0  0  0
 20 41  1  0  0  0  0
 20 42  1  0  0  0  0
 21 22  1  0  0  0  0
 21 43  1  0  0  0  0
 21 44  1  0  0  0  0
 22 23  1  0  0  0  0
 22 45  1  0  0  0  0
 22 46  1  0  0  0  0
 23 47  1  0  0  0  0
 23 48  1  0  0  0  0
 24 25  1  0  0  0  0
 24 49  1  0  0  0  0
 24 50  1  0  0  0  0
 25 51  1  0  0  0  0
 25 52  1  0  0  0  0
M  CHG  1   7   1
M  END
> <s_m_source_file>
AV-unprocessed.smi

> <i_m_source_file_index>
1733

> <i_lp_mmshare_version>
43012

> <i_f3d_flags>
0

> <s_epik_input>
W2NIXTFbY0hdbltjSF1bY0hdYzFbTkhdQyg9TylbTkhdW0NIXTJbQ0gyXVtDSDJdTihbQ0gyXVtDSDJdMilDKD1PKVtOSF1bQ0hdM1tDSDJdW0NIMl1bQ0gyXVtDSDJdW0NIMl0z

> <s_epik_cmdline>
J2VwaWtfcHl0aG9uJywgJy1waCcsICc3LjAnLCAnLXRuJywgJzgnLCAnLW1hJywgJzIwMCcsICctbWV0YWxfYmluZGluZycsICctaW1hZScsICc8aW5maWxlLm1hZT4nLCAnLW9tYWUnLCAnPG91dGZpbGUubWFlPic=

> <r_epik_Ionization_Penalty>
1.02331

> <r_epik_Ionization_Penalty_Charging>
1.02322

> <r_epik_Ionization_Penalty_Neutral>
8.7708e-05

> <r_epik_State_Penalty>
1.0737

> <r_epik_Charging_Adjusted_Penalty>
2.09692

> <i_epik_Tot_Q>
1

> <i_epik_Tot_abs_Q>
1

> <r_epik_Metal_State_Penalty>
1.17214

> <b_epik_Metal_Only>
0

> <s_lp_Force_Field>
OPLS_2005

> <r_lp_Energy>
47.1401

> <b_lp_Chiralities_Consistent>
1

> <s_lp_Variant>
AV-unprocessed.smi:1733-2

> <Gold.Version>
5.8.1

> <Gold.Id.Protein>
6NUR|6NUR_protein|mol2

> <Gold.PLP.Fitness>
50.2374

> <Gold.PLP.PLP>
-38.0145

> <Gold.PLP.part.hbond>
-3.4957

> <Gold.PLP.part.metal>
0.0000

> <Gold.PLP.part.buried>
-5.3369

> <Gold.PLP.part.nonpolar>
-30.2632

> <Gold.PLP.part.repulsive>
0.1358

> <Gold.PLP.ligand.clash>
0.0000

> <Gold.PLP.ligand.torsion>
0.4529

> <Gold.PLP.Chemscore.Hbond>
4.3629

> <Gold.PLP.Chemscore.CHOScore>
0.0000

> <Gold.PLP.Chemscore.Metal>
0.0000

> <Gold.Chemscore.Hbonds>
donor molecule, donor type, donor heavy atom, donor atom, acceptor molecule, acceptor atom, score
      L1  H     3    26       P1  7948  0.67
      L1  H     7    53       P1 10186  1.70
      L1  H    10    31       P1  7948  0.67
      P1  H  7997  8008       L1    16  1.00

> <Gold.PLP.Chemscore.Internal.Correction>
0.0399

> <Gold.Rescore>
     Score         DG    S(hbond)    S(metal)    S(lipo)     H(rot)  DE(clash)    DE(int)     intcor
     22.51     -24.50       3.17        0.00      99.12       1.24       0.03       1.96       ----

> <Gold.Chemscore.Fitness>
22.5126

> <Gold.Chemscore.DG>
-24.5000

> <Gold.Chemscore.ZeroCoef>
-5.4800

> <Gold.Chemscore.Hbond>
3.1749

> <Gold.Chemscore.Metal>
0.0000

> <Gold.Chemscore.Lipo>
99.1201

> <Gold.Chemscore.Internal_Hbond>
0.0000

> <Gold.Chemscore.DEClash>
0.0282

> <Gold.Chemscore.DEInternal>
1.9592

> <Gold.Chemscore.Rot>
1.2426

> <Gold.Chemscore.Internal.Correction>
   9.000000E+99

> <Gold.Chemscore.Hbonds>
donor molecule, donor type, donor heavy atom, donor atom, acceptor molecule, acceptor atom, score
      L1  H     3    26       P1  7948  0.67
      L1  H     7    53       P1 10186  0.14
      L1  H    10    31       P1  7948  0.64
      P1  H  7997  8008       L1    16  0.97

> <Gold.Chemscore.Hbond.Weighted>
-10.6042

> <Gold.Chemscore.Metal.Weighted>
-0.0000

> <Gold.Chemscore.Lipo.Weighted>
-11.5971

> <Gold.Chemscore.Internal_Hbond.Weighted>
0.0000

> <Gold.Chemscore.DEClash.Weighted>
0.0282

> <Gold.Chemscore.DEInternal.Weighted>
1.9592

> <Gold.Chemscore.Rot.Weighted>
3.1812

> <Gold.Chemscore.Internal.Correction.Weighted>
   9.000000E+99

> <Gold.Protein.RotatedTorsions>
[ 6907 6896 6895 6894 ] final  -77.08 input  -60.11 | X-H torsion
[ 7974 7965 7964 7962 ] final   12.83 input  175.53 | X-H torsion
[ 8008 7997 7996 7995 ] final  -71.56 input   59.86 | X-H torsion
[ 10167 10162 10161 10158 ] final   79.32 input  -65.29 | X-H torsion
[ 10718 10713 10712 10709 ] final  -61.61 input   66.30 | X-H torsion
[ 10763 10752 10751 10750 ] final  104.21 input  -60.55 | X-H torsion
[ 11005 11000 10999 10996 ] final  -15.09 input  -57.11 | X-H torsion

> <Gold.Protein.ActiveResidues>
 VAL166  LYS551  ARG553  GLY616  TRP617  ASP618  TYR619  PRO620  LYS621  CYS622 
 ASP623  PHE694  ASN695  SER759  ASP760  ASP761  ALA762  ILE779  LEU786  VAL792 
 PHE793  MET794  SER795  GLU796  ALA797  LYS798  CYS799  TRP800  GLU811  SER814 

> <Gold.Protein.RotatedAtoms>
  150.7009  134.4475  159.5320 H   0  0  0  0  0  0  0  0  0  0  0  0  # atno 6907 bound_to 6896
  152.2174  134.8442  160.0499 H   0  0  0  0  0  0  0  0  0  0  0  0  # atno 6908 bound_to 6896
  151.9305  133.3575  159.3966 H   0  0  0  0  0  0  0  0  0  0  0  0  # atno 6909 bound_to 6896
  146.2343  139.9279  142.8500 H   0  0  0  0  0  0  0  0  0  0  0  0  # atno 7974 bound_to 7965
  154.5098  140.0813  156.7966 H   0  0  0  0  0  0  0  0  0  0  0  0  # atno 8008 bound_to 7997
  155.3812  140.3428  155.4229 H   0  0  0  0  0  0  0  0  0  0  0  0  # atno 8009 bound_to 7997
  156.1559  140.1573  156.8681 H   0  0  0  0  0  0  0  0  0  0  0  0  # atno 8010 bound_to 7997
  139.9616  144.5957  150.8067 H   0  0  0  0  0  0  0  0  0  0  0  0  # atno 10167 bound_to 10162
  156.0910  130.4200  150.1018 H   0  0  0  0  0  0  0  0  0  0  0  0  # atno 10718 bound_to 10713
  153.3630  135.3950  155.1732 H   0  0  0  0  0  0  0  0  0  0  0  0  # atno 10763 bound_to 10752
  154.8682  135.3684  154.5076 H   0  0  0  0  0  0  0  0  0  0  0  0  # atno 10764 bound_to 10752
  153.5536  135.7082  153.5640 H   0  0  0  0  0  0  0  0  0  0  0  0  # atno 10765 bound_to 10752
  140.7930  133.8273  155.9398 H   0  0  0  0  0  0  0  0  0  0  0  0  # atno 11005 bound_to 11000
  145.2073  140.9880  143.4121 LP  0  0  0  0  0  0  0  0  0  0  0  0  # atno 17320 bound_to 7965
  144.9722  139.3869  143.6303 LP  0  0  0  0  0  0  0  0  0  0  0  0  # atno 17321 bound_to 7965
  140.7551  143.3040  151.3008 LP  0  0  0  0  0  0  0  0  0  0  0  0  # atno 17342 bound_to 10162
  139.6550  144.0293  152.2653 LP  0  0  0  0  0  0  0  0  0  0  0  0  # atno 17343 bound_to 10162
  156.9028  130.9626  151.3574 LP  0  0  0  0  0  0  0  0  0  0  0  0  # atno 17370 bound_to 10713
  157.6059  130.8547  149.8875 LP  0  0  0  0  0  0  0  0  0  0  0  0  # atno 17371 bound_to 10713
  140.9370  134.1949  157.4824 LP  0  0  0  0  0  0  0  0  0  0  0  0  # atno 17394 bound_to 11000
  139.8729  134.9856  156.5290 LP  0  0  0  0  0  0  0  0  0  0  0  0  # atno 17395 bound_to 11000

$$$$
