AV-unprocessed.smi:2528|AV-procd|sdf|9948|dock7
  -GOLD-   2272013593D 1   1.00000     0.00000
 Structure written by MMmdl.
 44 46  0  0  0  0  0  0  0  0  2 V2000
  150.4341  140.2156  156.1576 O   0  0  0  0  0  0  0  0  0  0  0  0
  150.0874  141.3939  156.0737 C   0  0  0  0  0  0  0  0  0  0  0  0
  149.2477  141.8507  155.1334 N   0  0  0  0  0  0  0  0  0  0  0  0
  148.6277  141.0352  154.0918 C   0  0  0  0  0  0  0  0  0  0  0  0
  147.0927  140.9468  154.2204 C   0  0  2  0  0  0  0  0  0  0  0  0
  146.4151  142.2973  154.5323 C   0  0  0  0  0  0  0  0  0  0  0  0
  144.9498  142.1258  154.6628 N   0  3  2  0  0  0  0  0  0  0  0  0
  144.2525  143.4098  154.9266 C   0  0  0  0  0  0  0  0  0  0  0  0
  142.7288  143.2138  154.9652 C   0  0  0  0  0  0  0  0  0  0  0  0
  142.3429  142.1580  156.0086 C   0  0  0  0  0  0  0  0  0  0  0  0
  143.0945  140.8491  155.7323 C   0  0  0  0  0  0  0  0  0  0  0  0
  144.6182  141.0777  155.6666 C   0  0  1  0  0  0  0  0  0  0  0  0
  145.3618  139.7714  155.3257 C   0  0  0  0  0  0  0  0  0  0  0  0
  146.7598  140.0126  155.2410 O   0  0  0  0  0  0  0  0  0  0  0  0
  150.4872  142.3827  156.8925 N   0  0  0  0  0  0  0  0  0  0  0  0
  151.3470  142.2936  158.0197 C   0  0  0  0  0  0  0  0  0  0  0  0
  151.8359  143.5300  158.4994 C   0  0  0  0  0  0  0  0  0  0  0  0
  152.6953  143.5490  159.6152 C   0  0  0  0  0  0  0  0  0  0  0  0
  153.0433  142.3299  160.2238 C   0  0  0  0  0  0  0  0  0  0  0  0
  152.5112  141.1441  159.6850 C   0  0  0  0  0  0  0  0  0  0  0  0
  151.6871  141.1235  158.6161 N   0  0  0  0  0  0  0  0  0  0  0  0
  149.0232  142.8350  155.1345 H   0  0  0  0  0  0  0  0  0  0  0  0
  148.8819  141.4868  153.1325 H   0  0  0  0  0  0  0  0  0  0  0  0
  149.0656  140.0357  154.0800 H   0  0  0  0  0  0  0  0  0  0  0  0
  146.7074  140.5669  153.2723 H   0  0  0  0  0  0  0  0  0  0  0  0
  146.8060  142.7203  155.4590 H   0  0  0  0  0  0  0  0  0  0  0  0
  146.6298  143.0123  153.7370 H   0  0  0  0  0  0  0  0  0  0  0  0
  144.6001  143.8275  155.8729 H   0  0  0  0  0  0  0  0  0  0  0  0
  144.5082  144.1302  154.1487 H   0  0  0  0  0  0  0  0  0  0  0  0
  142.2358  144.1597  155.1915 H   0  0  0  0  0  0  0  0  0  0  0  0
  142.3727  142.9062  153.9811 H   0  0  0  0  0  0  0  0  0  0  0  0
  142.5858  142.5201  157.0085 H   0  0  0  0  0  0  0  0  0  0  0  0
  141.2663  141.9857  155.9909 H   0  0  0  0  0  0  0  0  0  0  0  0
  142.8591  140.1202  156.5087 H   0  0  0  0  0  0  0  0  0  0  0  0
  142.7432  140.4221  154.7918 H   0  0  0  0  0  0  0  0  0  0  0  0
  144.9619  141.4240  156.6433 H   0  0  0  0  0  0  0  0  0  0  0  0
  145.1856  139.0248  156.1004 H   0  0  0  0  0  0  0  0  0  0  0  0
  145.0006  139.3460  154.3878 H   0  0  0  0  0  0  0  0  0  0  0  0
  150.1349  143.3059  156.6887 H   0  0  0  0  0  0  0  0  0  0  0  0
  151.5600  144.4579  158.0198 H   0  0  0  0  0  0  0  0  0  0  0  0
  153.0805  144.4833  159.9960 H   0  0  0  0  0  0  0  0  0  0  0  0
  153.7000  142.3040  161.0808 H   0  0  0  0  0  0  0  0  0  0  0  0
  152.7529  140.1870  160.1229 H   0  0  0  0  0  0  0  0  0  0  0  0
  144.6149  141.7896  153.7712 H   0  0  0  0  0  0  0  0  0  0  0  0
  1  2  2  0  0  0  0
  2  3  1  0  0  0  0
  2 15  1  0  0  0  0
  3  4  1  0  0  0  0
  3 22  1  0  0  0  0
  4  5  1  0  0  0  0
  4 23  1  0  0  0  0
  4 24  1  0  0  0  0
  5 14  1  0  0  0  0
  5  6  1  0  0  0  0
  5 25  1  0  0  0  0
  6  7  1  0  0  0  0
  6 26  1  0  0  0  0
  6 27  1  0  0  0  0
  7 12  1  0  0  0  0
  7  8  1  0  0  0  0
  7 44  1  0  0  0  0
  8  9  1  0  0  0  0
  8 28  1  0  0  0  0
  8 29  1  0  0  0  0
  9 10  1  0  0  0  0
  9 30  1  0  0  0  0
  9 31  1  0  0  0  0
 10 11  1  0  0  0  0
 10 32  1  0  0  0  0
 10 33  1  0  0  0  0
 11 12  1  0  0  0  0
 11 34  1  0  0  0  0
 11 35  1  0  0  0  0
 12 13  1  0  0  0  0
 12 36  1  0  0  0  0
 13 14  1  0  0  0  0
 13 37  1  0  0  0  0
 13 38  1  0  0  0  0
 15 16  1  0  0  0  0
 15 39  1  0  0  0  0
 16 21  1  0  0  0  0
 16 17  2  0  0  0  0
 17 18  1  0  0  0  0
 17 40  1  0  0  0  0
 18 19  2  0  0  0  0
 18 41  1  0  0  0  0
 19 20  1  0  0  0  0
 19 42  1  0  0  0  0
 20 21  2  0  0  0  0
 20 43  1  0  0  0  0
M  CHG  1   7   1
M  END
> <s_m_source_file>
AV-unprocessed.smi

> <i_m_source_file_index>
2528

> <i_lp_mmshare_version>
43012

> <i_f3d_flags>
0

> <s_epik_input>
bjFbY0hdW2NIXVtjSF1bY0hdYzFbTkhdQyg9TylbTkhdW0NIMl1bQ0BIXShbQ0gyXTIpT1tDSDJdW0NAQEhdKE4yMylbQ0gyXVtDSDJdW0NIMl1bQ0gyXTM=

> <s_epik_cmdline>
J2VwaWtfcHl0aG9uJywgJy1waCcsICc3LjAnLCAnLXRuJywgJzgnLCAnLW1hJywgJzIwMCcsICctbWV0YWxfYmluZGluZycsICctaW1hZScsICc8aW5maWxlLm1hZT4nLCAnLW9tYWUnLCAnPG91dGZpbGUubWFlPic=

> <r_epik_Ionization_Penalty>
0.0932337

> <r_epik_Ionization_Penalty_Charging>
0.0931942

> <r_epik_Ionization_Penalty_Neutral>
3.9565e-05

> <r_epik_State_Penalty>
0.0834605

> <r_epik_Charging_Adjusted_Penalty>
0.176655

> <i_epik_Tot_Q>
1

> <i_epik_Tot_abs_Q>
1

> <r_epik_Metal_State_Penalty>
0.0834607

> <b_epik_Metal_Only>
0

> <s_lp_Force_Field>
OPLS_2005

> <r_lp_Energy>
24.6959

> <b_lp_Chiralities_Consistent>
1

> <s_lp_Variant>
AV-unprocessed.smi:2528-1

> <Gold.Version>
5.8.1

> <Gold.Id.Protein>
6NUR|6NUR_protein|mol2

> <Gold.PLP.Fitness>
47.5835

> <Gold.PLP.PLP>
-35.9810

> <Gold.PLP.part.hbond>
-3.0000

> <Gold.PLP.part.metal>
0.0000

> <Gold.PLP.part.buried>
-5.4243

> <Gold.PLP.part.nonpolar>
-28.5672

> <Gold.PLP.part.repulsive>
0.3245

> <Gold.PLP.ligand.clash>
0.0000

> <Gold.PLP.ligand.torsion>
0.1998

> <Gold.PLP.Chemscore.Hbond>
4.0000

> <Gold.PLP.Chemscore.CHOScore>
0.0000

> <Gold.PLP.Chemscore.Metal>
0.0000

> <Gold.Chemscore.Hbonds>
donor molecule, donor type, donor heavy atom, donor atom, acceptor molecule, acceptor atom, score
      L1  H     3    22       P1  8028  1.00
      L1  H     7    44       P1 10175  1.00
      L1  H    15    39       P1  8028  0.71

> <Gold.PLP.Chemscore.Internal.Correction>
0.0020

> <Gold.Rescore>
     Score         DG    S(hbond)    S(metal)    S(lipo)     H(rot)  DE(clash)    DE(int)     intcor
     18.92     -20.37       2.89        0.00      72.96       1.29       0.00       1.44       ----

> <Gold.Chemscore.Fitness>
18.9232

> <Gold.Chemscore.DG>
-20.3668

> <Gold.Chemscore.ZeroCoef>
-5.4800

> <Gold.Chemscore.Hbond>
2.8879

> <Gold.Chemscore.Metal>
0.0000

> <Gold.Chemscore.Lipo>
72.9578

> <Gold.Chemscore.Internal_Hbond>
0.0000

> <Gold.Chemscore.DEClash>
0.0045

> <Gold.Chemscore.DEInternal>
1.4391

> <Gold.Chemscore.Rot>
1.2870

> <Gold.Chemscore.Internal.Correction>
   9.000000E+99

> <Gold.Chemscore.Hbonds>
donor molecule, donor type, donor heavy atom, donor atom, acceptor molecule, acceptor atom, score
      L1  H     3    22       P1  8028  0.99
      L1  H     7    44       P1 10175  0.02
      L1  H    15    39       P1  8028  0.69

> <Gold.Chemscore.Hbond.Weighted>
-9.6456

> <Gold.Chemscore.Metal.Weighted>
-0.0000

> <Gold.Chemscore.Lipo.Weighted>
-8.5361

> <Gold.Chemscore.Internal_Hbond.Weighted>
0.0000

> <Gold.Chemscore.DEClash.Weighted>
0.0045

> <Gold.Chemscore.DEInternal.Weighted>
1.4391

> <Gold.Chemscore.Rot.Weighted>
3.2948

> <Gold.Chemscore.Internal.Correction.Weighted>
   9.000000E+99

> <Gold.Protein.RotatedTorsions>
[ 6907 6896 6895 6894 ] final   28.21 input  -60.11 | X-H torsion
[ 7974 7965 7964 7962 ] final  -34.42 input  175.53 | X-H torsion
[ 8008 7997 7996 7995 ] final   -7.72 input   59.86 | X-H torsion
[ 10167 10162 10161 10158 ] final  162.84 input  -65.29 | X-H torsion
[ 10718 10713 10712 10709 ] final  167.82 input   66.30 | X-H torsion
[ 10763 10752 10751 10750 ] final -151.54 input  -60.55 | X-H torsion
[ 11005 11000 10999 10996 ] final -120.59 input  -57.11 | X-H torsion

> <Gold.Protein.ActiveResidues>
 VAL166  LYS551  ARG553  GLY616  TRP617  ASP618  TYR619  PRO620  LYS621  CYS622 
 ASP623  PHE694  ASN695  SER759  ASP760  ASP761  ALA762  ILE779  LEU786  VAL792 
 PHE793  MET794  SER795  GLU796  ALA797  LYS798  CYS799  TRP800  GLU811  SER814 

> <Gold.Protein.RotatedAtoms>
  152.0136  134.9862  160.0568 H   0  0  0  0  0  0  0  0  0  0  0  0  # atno 6907 bound_to 6896
  152.1405  133.4456  159.4773 H   0  0  0  0  0  0  0  0  0  0  0  0  # atno 6908 bound_to 6896
  150.6864  134.2229  159.4447 H   0  0  0  0  0  0  0  0  0  0  0  0  # atno 6909 bound_to 6896
  146.0831  140.6036  142.8899 H   0  0  0  0  0  0  0  0  0  0  0  0  # atno 7974 bound_to 7965
  154.5811  140.2400  155.8052 H   0  0  0  0  0  0  0  0  0  0  0  0  # atno 8008 bound_to 7997
  156.2180  140.3006  155.9840 H   0  0  0  0  0  0  0  0  0  0  0  0  # atno 8009 bound_to 7997
  155.2539  140.0412  157.2980 H   0  0  0  0  0  0  0  0  0  0  0  0  # atno 8010 bound_to 7997
  139.4866  144.4397  151.8967 H   0  0  0  0  0  0  0  0  0  0  0  0  # atno 10167 bound_to 10162
  157.0460  131.0300  151.2697 H   0  0  0  0  0  0  0  0  0  0  0  0  # atno 10718 bound_to 10713
  154.8051  135.3257  154.7452 H   0  0  0  0  0  0  0  0  0  0  0  0  # atno 10763 bound_to 10752
  153.8112  135.6895  153.4845 H   0  0  0  0  0  0  0  0  0  0  0  0  # atno 10764 bound_to 10752
  153.1791  135.4593  154.9949 H   0  0  0  0  0  0  0  0  0  0  0  0  # atno 10765 bound_to 10752
  141.0132  134.0234  157.3385 H   0  0  0  0  0  0  0  0  0  0  0  0  # atno 11005 bound_to 11000
  144.7307  140.4661  143.6940 LP  0  0  0  0  0  0  0  0  0  0  0  0  # atno 17320 bound_to 7965
  145.6181  139.1521  143.3038 LP  0  0  0  0  0  0  0  0  0  0  0  0  # atno 17321 bound_to 7965
  140.3849  144.2690  150.5905 LP  0  0  0  0  0  0  0  0  0  0  0  0  # atno 17342 bound_to 10162
  140.5200  143.2268  151.8404 LP  0  0  0  0  0  0  0  0  0  0  0  0  # atno 17343 bound_to 10162
  157.5068  130.7913  149.7662 LP  0  0  0  0  0  0  0  0  0  0  0  0  # atno 17370 bound_to 10713
  156.0023  130.3874  150.2560 LP  0  0  0  0  0  0  0  0  0  0  0  0  # atno 17371 bound_to 10713
  139.9102  135.0188  156.7658 LP  0  0  0  0  0  0  0  0  0  0  0  0  # atno 17394 bound_to 11000
  140.6699  133.9569  155.7850 LP  0  0  0  0  0  0  0  0  0  0  0  0  # atno 17395 bound_to 11000

$$$$
