AV-unprocessed.smi:2421|AV-procd|sdf|9555|dock6
  -GOLD-   2272013183D 1   1.00000     0.00000
 Structure written by MMmdl.
 44 46  0  0  0  0  0  0  0  0  1 V2000
  154.8741  136.2399  164.3114 C   0  0  0  0  0  0  0  0  0  0  0  0
  155.9226  137.2588  164.6527 C   0  0  0  0  0  0  0  0  0  0  0  0
  156.7007  137.0870  165.7109 N   0  0  0  0  0  0  0  0  0  0  0  0
  157.5702  138.1909  165.7498 O   0  0  0  0  0  0  0  0  0  0  0  0
  157.2925  139.0111  164.7006 C   0  0  0  0  0  0  0  0  0  0  0  0
  158.1168  140.2452  164.5582 C   0  0  0  0  0  0  0  0  0  0  0  0
  156.2606  138.4692  163.9948 C   0  0  0  0  0  0  0  0  0  0  0  0
  155.6780  138.9845  162.8189 N   0  0  0  0  0  0  0  0  0  0  0  0
  155.1881  140.2302  162.7079 C   0  0  0  0  0  0  0  0  0  0  0  0
  155.2727  141.0742  163.5984 O   0  0  0  0  0  0  0  0  0  0  0  0
  154.5982  140.4992  161.5291 N   0  0  0  0  0  0  0  0  0  0  0  0
  153.9714  141.7497  161.0956 C   0  0  2  0  0  0  0  0  0  0  0  0
  153.2391  142.3995  162.2759 C   0  0  0  0  0  0  0  0  0  0  0  0
  152.5022  143.6666  161.8197 C   0  0  0  0  0  0  0  0  0  0  0  0
  151.6104  143.3717  160.7461 O   0  0  0  0  0  0  0  0  0  0  0  0
  152.2004  142.7858  159.5795 C   0  0  0  0  0  0  0  0  0  0  0  0
  153.0397  143.8068  158.7902 C   0  0  0  0  0  0  0  0  0  0  0  0
  152.0191  144.7009  158.0801 C   0  0  0  0  0  0  0  0  0  0  0  0
  150.7474  143.8540  157.9306 C   0  0  0  0  0  0  0  0  0  0  0  0
  151.0467  142.5108  158.6075 C   0  0  0  0  0  0  0  0  0  0  0  0
  152.9599  141.4976  159.9637 C   0  0  0  0  0  0  0  0  0  0  0  0
  154.2968  136.5412  163.4372 H   0  0  0  0  0  0  0  0  0  0  0  0
  154.1759  136.1049  165.1376 H   0  0  0  0  0  0  0  0  0  0  0  0
  155.3251  135.2717  164.0924 H   0  0  0  0  0  0  0  0  0  0  0  0
  157.7700  140.8527  163.7220 H   0  0  0  0  0  0  0  0  0  0  0  0
  159.1623  139.9925  164.3826 H   0  0  0  0  0  0  0  0  0  0  0  0
  158.0612  140.8522  165.4617 H   0  0  0  0  0  0  0  0  0  0  0  0
  155.5839  138.3564  162.0340 H   0  0  0  0  0  0  0  0  0  0  0  0
  154.6099  139.7568  160.8445 H   0  0  0  0  0  0  0  0  0  0  0  0
  154.7409  142.4437  160.7530 H   0  0  0  0  0  0  0  0  0  0  0  0
  152.5191  141.6983  162.7007 H   0  0  0  0  0  0  0  0  0  0  0  0
  153.9432  142.6455  163.0717 H   0  0  0  0  0  0  0  0  0  0  0  0
  151.9198  144.0730  162.6467 H   0  0  0  0  0  0  0  0  0  0  0  0
  153.2097  144.4445  161.5348 H   0  0  0  0  0  0  0  0  0  0  0  0
  153.7438  144.3767  159.3946 H   0  0  0  0  0  0  0  0  0  0  0  0
  153.6293  143.2826  158.0366 H   0  0  0  0  0  0  0  0  0  0  0  0
  151.8056  145.5792  158.6906 H   0  0  0  0  0  0  0  0  0  0  0  0
  152.3944  145.0539  157.1190 H   0  0  0  0  0  0  0  0  0  0  0  0
  149.9127  144.3497  158.4282 H   0  0  0  0  0  0  0  0  0  0  0  0
  150.4694  143.7169  156.8851 H   0  0  0  0  0  0  0  0  0  0  0  0
  151.3681  141.7959  157.8483 H   0  0  0  0  0  0  0  0  0  0  0  0
  150.1709  142.0868  159.1004 H   0  0  0  0  0  0  0  0  0  0  0  0
  153.4577  141.0796  159.0879 H   0  0  0  0  0  0  0  0  0  0  0  0
  152.2398  140.7455  160.2904 H   0  0  0  0  0  0  0  0  0  0  0  0
  1  2  1  0  0  0  0
  1 22  1  0  0  0  0
  1 23  1  0  0  0  0
  1 24  1  0  0  0  0
  2  7  1  0  0  0  0
  2  3  2  0  0  0  0
  3  4  1  0  0  0  0
  4  5  1  0  0  0  0
  5  6  1  0  0  0  0
  5  7  2  0  0  0  0
  6 25  1  0  0  0  0
  6 26  1  0  0  0  0
  6 27  1  0  0  0  0
  7  8  1  0  0  0  0
  8  9  1  0  0  0  0
  8 28  1  0  0  0  0
  9 10  2  0  0  0  0
  9 11  1  0  0  0  0
 11 12  1  0  0  0  0
 11 29  1  0  0  0  0
 12 21  1  0  0  0  0
 12 13  1  0  0  0  0
 12 30  1  0  0  0  0
 13 14  1  0  0  0  0
 13 31  1  0  0  0  0
 13 32  1  0  0  0  0
 14 15  1  0  0  0  0
 14 33  1  0  0  0  0
 14 34  1  0  0  0  0
 15 16  1  0  0  0  0
 16 20  1  0  0  0  0
 16 17  1  0  0  0  0
 16 21  1  0  0  0  0
 17 18  1  0  0  0  0
 17 35  1  0  0  0  0
 17 36  1  0  0  0  0
 18 19  1  0  0  0  0
 18 37  1  0  0  0  0
 18 38  1  0  0  0  0
 19 20  1  0  0  0  0
 19 39  1  0  0  0  0
 19 40  1  0  0  0  0
 20 41  1  0  0  0  0
 20 42  1  0  0  0  0
 21 43  1  0  0  0  0
 21 44  1  0  0  0  0
M  END
> <s_m_source_file>
AV-unprocessed.smi

> <i_m_source_file_index>
2421

> <i_lp_mmshare_version>
43012

> <i_f3d_flags>
0

> <s_epik_input>
W0NIM11jMW5vYyhbQ0gzXSljMVtOSF1DKD1PKVtOSF1bQ0BASF0oW0NIMl0yKVtDSDJdW0NIMl1PQzIzW0NIMl1bQ0gyXVtDSDJdW0NIMl0z

> <s_epik_cmdline>
J2VwaWtfcHl0aG9uJywgJy1waCcsICc3LjAnLCAnLXRuJywgJzgnLCAnLW1hJywgJzIwMCcsICctbWV0YWxfYmluZGluZycsICctaW1hZScsICc8aW5maWxlLm1hZT4nLCAnLW9tYWUnLCAnPG91dGZpbGUubWFlPic=

> <r_lp_tautomer_probability>
1

> <r_epik_Ionization_Penalty>
3.59808e-05

> <r_epik_Ionization_Penalty_Charging>
0

> <r_epik_Ionization_Penalty_Neutral>
3.59808e-05

> <r_epik_State_Penalty>
-0

> <r_epik_Charging_Adjusted_Penalty>
0

> <i_epik_Tot_Q>
0

> <i_epik_Tot_abs_Q>
0

> <r_epik_Metal_State_Penalty>
-0

> <b_epik_Metal_Only>
0

> <s_lp_Force_Field>
OPLS_2005

> <r_lp_Energy>
43.4187

> <b_lp_Chiralities_Consistent>
1

> <s_lp_Variant>
AV-unprocessed.smi:2421-1

> <Gold.Version>
5.8.1

> <Gold.Id.Protein>
6NUR|6NUR_protein|mol2

> <Gold.PLP.Fitness>
40.8250

> <Gold.PLP.PLP>
-41.9297

> <Gold.PLP.part.hbond>
-1.4208

> <Gold.PLP.part.metal>
0.0000

> <Gold.PLP.part.buried>
-3.9032

> <Gold.PLP.part.nonpolar>
-35.1984

> <Gold.PLP.part.repulsive>
0.2169

> <Gold.PLP.ligand.clash>
0.0000

> <Gold.PLP.ligand.torsion>
0.8036

> <Gold.PLP.Chemscore.Hbond>
0.0000

> <Gold.PLP.Chemscore.CHOScore>
0.0000

> <Gold.PLP.Chemscore.Metal>
0.0000

> <Gold.PLP.Chemscore.Internal.Correction>
0.5025

> <Gold.Rescore>
     Score         DG    S(hbond)    S(metal)    S(lipo)     H(rot)  DE(clash)    DE(int)     intcor
     15.14     -17.64       0.00        0.00     125.81       1.00       0.15       2.35       ----

> <Gold.Chemscore.Fitness>
15.1417

> <Gold.Chemscore.DG>
-17.6396

> <Gold.Chemscore.ZeroCoef>
-5.4800

> <Gold.Chemscore.Hbond>
0.0000

> <Gold.Chemscore.Metal>
0.0000

> <Gold.Chemscore.Lipo>
125.8082

> <Gold.Chemscore.Internal_Hbond>
0.0000

> <Gold.Chemscore.DEClash>
0.1514

> <Gold.Chemscore.DEInternal>
2.3464

> <Gold.Chemscore.Rot>
1.0000

> <Gold.Chemscore.Internal.Correction>
   9.000000E+99

> <Gold.Chemscore.Hbond.Weighted>
-0.0000

> <Gold.Chemscore.Metal.Weighted>
-0.0000

> <Gold.Chemscore.Lipo.Weighted>
-14.7196

> <Gold.Chemscore.Internal_Hbond.Weighted>
0.0000

> <Gold.Chemscore.DEClash.Weighted>
0.1514

> <Gold.Chemscore.DEInternal.Weighted>
2.3464

> <Gold.Chemscore.Rot.Weighted>
2.5600

> <Gold.Chemscore.Internal.Correction.Weighted>
   9.000000E+99

> <Gold.Protein.RotatedTorsions>
[ 6907 6896 6895 6894 ] final -119.83 input  -60.11 | X-H torsion
[ 7974 7965 7964 7962 ] final -139.44 input  175.53 | X-H torsion
[ 8008 7997 7996 7995 ] final    3.98 input   59.86 | X-H torsion
[ 10167 10162 10161 10158 ] final   48.54 input  -65.29 | X-H torsion
[ 10718 10713 10712 10709 ] final  163.19 input   66.30 | X-H torsion
[ 10763 10752 10751 10750 ] final   21.59 input  -60.55 | X-H torsion
[ 11005 11000 10999 10996 ] final -141.34 input  -57.11 | X-H torsion

> <Gold.Protein.ActiveResidues>
 VAL166  LYS551  ARG553  GLY616  TRP617  ASP618  TYR619  PRO620  LYS621  CYS622 
 ASP623  PHE694  ASN695  SER759  ASP760  ASP761  ALA762  ILE779  LEU786  VAL792 
 PHE793  MET794  SER795  GLU796  ALA797  LYS798  CYS799  TRP800  GLU811  SER814 

> <Gold.Protein.RotatedAtoms>
  150.8340  133.8044  159.3086 H   0  0  0  0  0  0  0  0  0  0  0  0  # atno 6907 bound_to 6896
  151.5766  135.1058  160.0017 H   0  0  0  0  0  0  0  0  0  0  0  0  # atno 6908 bound_to 6896
  152.4415  133.7415  159.6700 H   0  0  0  0  0  0  0  0  0  0  0  0  # atno 6909 bound_to 6896
  144.8677  140.6319  143.5287 H   0  0  0  0  0  0  0  0  0  0  0  0  # atno 7974 bound_to 7965
  154.7103  140.2691  155.6635 H   0  0  0  0  0  0  0  0  0  0  0  0  # atno 8008 bound_to 7997
  156.2793  140.2754  156.1667 H   0  0  0  0  0  0  0  0  0  0  0  0  # atno 8009 bound_to 7997
  155.0643  140.0371  157.2577 H   0  0  0  0  0  0  0  0  0  0  0  0  # atno 8010 bound_to 7997
  140.2922  144.3033  150.6238 H   0  0  0  0  0  0  0  0  0  0  0  0  # atno 10167 bound_to 10162
  157.1120  131.0470  151.2453 H   0  0  0  0  0  0  0  0  0  0  0  0  # atno 10718 bound_to 10713
  153.0983  135.6665  153.9721 H   0  0  0  0  0  0  0  0  0  0  0  0  # atno 10763 bound_to 10752
  153.9299  135.3005  155.3447 H   0  0  0  0  0  0  0  0  0  0  0  0  # atno 10764 bound_to 10752
  154.7402  135.5083  153.9185 H   0  0  0  0  0  0  0  0  0  0  0  0  # atno 10765 bound_to 10752
  140.8334  134.2489  157.4846 H   0  0  0  0  0  0  0  0  0  0  0  0  # atno 11005 bound_to 11000
  145.4190  139.1567  143.4084 LP  0  0  0  0  0  0  0  0  0  0  0  0  # atno 17320 bound_to 7965
  146.2908  140.4299  142.8740 LP  0  0  0  0  0  0  0  0  0  0  0  0  # atno 17321 bound_to 7965
  140.5723  143.2179  151.7577 LP  0  0  0  0  0  0  0  0  0  0  0  0  # atno 17342 bound_to 10162
  139.4935  144.4199  151.9989 LP  0  0  0  0  0  0  0  0  0  0  0  0  # atno 17343 bound_to 10162
  157.4551  130.7620  149.7185 LP  0  0  0  0  0  0  0  0  0  0  0  0  # atno 17370 bound_to 10713
  155.9848  130.3988  150.3293 LP  0  0  0  0  0  0  0  0  0  0  0  0  # atno 17371 bound_to 10713
  139.8704  134.9598  156.4343 LP  0  0  0  0  0  0  0  0  0  0  0  0  # atno 17394 bound_to 11000
  140.8973  133.7804  155.9640 LP  0  0  0  0  0  0  0  0  0  0  0  0  # atno 17395 bound_to 11000

$$$$
