AV-unprocessed.smi:1703|AV-procd|sdf|6862|dock2
  -GOLD-   22720 8 53D 1   1.00000     0.00000
 Structure written by MMmdl.
 49 51  0  0  0  0  0  0  0  0  2 V2000
  148.8795  140.9638  154.8309 C   0  0  0  0  0  0  0  0  0  0  0  0
  149.7618  139.7155  154.9425 C   0  0  1  0  0  0  0  0  0  0  0  0
  149.2526  138.5666  154.0448 C   0  0  0  0  0  0  0  0  0  0  0  0
  150.1822  137.4078  154.0521 N   0  3  2  0  0  0  0  0  0  0  0  0
  150.0869  136.5374  155.2551 C   0  0  0  0  0  0  0  0  0  0  0  0
  149.5430  135.1337  154.9256 C   0  0  1  0  0  0  0  0  0  0  0  0
  148.3576  135.2720  154.1655 O   0  0  0  0  0  0  0  0  0  0  0  0
  150.5725  134.3002  154.1365 C   0  0  0  0  0  0  0  0  0  0  0  0
  150.2140  132.8910  154.0450 N   0  0  0  0  0  0  0  0  0  0  0  0
  150.7267  131.8469  154.7443 C   0  0  0  0  0  0  0  0  0  0  0  0
  151.8051  132.0202  155.7700 C   0  0  0  0  0  0  0  0  0  0  0  0
  151.4147  132.8566  156.8379 O   0  0  0  0  0  0  0  0  0  0  0  0
  150.2143  130.6496  154.4585 N   0  0  0  0  0  0  0  0  0  0  0  0
  149.2863  130.9417  153.4782 C   0  0  0  0  0  0  0  0  0  0  0  0
  148.4112  130.0951  152.7607 C   0  0  0  0  0  0  0  0  0  0  0  0
  147.5384  130.6285  151.7898 C   0  0  0  0  0  0  0  0  0  0  0  0
  147.5277  132.0130  151.5233 C   0  0  0  0  0  0  0  0  0  0  0  0
  148.3916  132.8741  152.2266 C   0  0  0  0  0  0  0  0  0  0  0  0
  149.2614  132.3367  153.1947 C   0  0  0  0  0  0  0  0  0  0  0  0
  151.5641  137.8493  153.7443 C   0  0  0  0  0  0  0  0  0  0  0  0
  152.0063  138.9946  154.6770 C   0  0  1  0  0  0  0  0  0  0  0  0
  153.4026  139.5179  154.3240 C   0  0  0  0  0  0  0  0  0  0  0  0
  151.0833  140.0709  154.5497 O   0  0  0  0  0  0  0  0  0  0  0  0
  147.8540  140.7478  155.1320 H   0  0  0  0  0  0  0  0  0  0  0  0
  148.8558  141.3417  153.8083 H   0  0  0  0  0  0  0  0  0  0  0  0
  149.2516  141.7630  155.4723 H   0  0  0  0  0  0  0  0  0  0  0  0
  149.7729  139.4030  155.9873 H   0  0  0  0  0  0  0  0  0  0  0  0
  148.2481  138.2659  154.3402 H   0  0  0  0  0  0  0  0  0  0  0  0
  149.1715  138.9219  153.0164 H   0  0  0  0  0  0  0  0  0  0  0  0
  151.0733  136.4249  155.7078 H   0  0  0  0  0  0  0  0  0  0  0  0
  149.4651  137.0152  156.0118 H   0  0  0  0  0  0  0  0  0  0  0  0
  149.2905  134.6021  155.8418 H   0  0  0  0  0  0  0  0  0  0  0  0
  148.5742  135.6613  153.3318 H   0  0  0  0  0  0  0  0  0  0  0  0
  150.6822  134.6945  153.1255 H   0  0  0  0  0  0  0  0  0  0  0  0
  151.5573  134.3837  154.5961 H   0  0  0  0  0  0  0  0  0  0  0  0
  152.1057  131.0488  156.1613 H   0  0  0  0  0  0  0  0  0  0  0  0
  152.6865  132.4531  155.2956 H   0  0  0  0  0  0  0  0  0  0  0  0
  151.2416  132.3172  157.5941 H   0  0  0  0  0  0  0  0  0  0  0  0
  148.4116  129.0332  152.9574 H   0  0  0  0  0  0  0  0  0  0  0  0
  146.8740  129.9721  151.2471 H   0  0  0  0  0  0  0  0  0  0  0  0
  146.8558  132.4132  150.7782 H   0  0  0  0  0  0  0  0  0  0  0  0
  148.3836  133.9344  152.0235 H   0  0  0  0  0  0  0  0  0  0  0  0
  152.2561  137.0082  153.8017 H   0  0  0  0  0  0  0  0  0  0  0  0
  151.5887  138.1929  152.7092 H   0  0  0  0  0  0  0  0  0  0  0  0
  152.0201  138.6511  155.7128 H   0  0  0  0  0  0  0  0  0  0  0  0
  154.1512  138.7302  154.4130 H   0  0  0  0  0  0  0  0  0  0  0  0
  153.6944  140.3296  154.9907 H   0  0  0  0  0  0  0  0  0  0  0  0
  153.4363  139.8977  153.3024 H   0  0  0  0  0  0  0  0  0  0  0  0
  149.9074  136.8125  153.2830 H   0  0  0  0  0  0  0  0  0  0  0  0
  1  2  1  0  0  0  0
  1 24  1  0  0  0  0
  1 25  1  0  0  0  0
  1 26  1  0  0  0  0
  2 23  1  0  0  0  0
  2  3  1  0  0  0  0
  2 27  1  0  0  0  0
  3  4  1  0  0  0  0
  3 28  1  0  0  0  0
  3 29  1  0  0  0  0
  4  5  1  0  0  0  0
  4 20  1  0  0  0  0
  4 49  1  0  0  0  0
  5  6  1  0  0  0  0
  5 30  1  0  0  0  0
  5 31  1  0  0  0  0
  6  7  1  0  0  0  0
  6  8  1  0  0  0  0
  6 32  1  0  0  0  0
  7 33  1  0  0  0  0
  8  9  1  0  0  0  0
  8 34  1  0  0  0  0
  8 35  1  0  0  0  0
  9 19  1  0  0  0  0
  9 10  1  0  0  0  0
 10 11  1  0  0  0  0
 10 13  2  0  0  0  0
 11 12  1  0  0  0  0
 11 36  1  0  0  0  0
 11 37  1  0  0  0  0
 12 38  1  0  0  0  0
 13 14  1  0  0  0  0
 14 19  2  0  0  0  0
 14 15  1  0  0  0  0
 15 16  2  0  0  0  0
 15 39  1  0  0  0  0
 16 17  1  0  0  0  0
 16 40  1  0  0  0  0
 17 18  2  0  0  0  0
 17 41  1  0  0  0  0
 18 19  1  0  0  0  0
 18 42  1  0  0  0  0
 20 21  1  0  0  0  0
 20 43  1  0  0  0  0
 20 44  1  0  0  0  0
 21 22  1  0  0  0  0
 21 23  1  0  0  0  0
 21 45  1  0  0  0  0
 22 46  1  0  0  0  0
 22 47  1  0  0  0  0
 22 48  1  0  0  0  0
M  CHG  1   4   1
M  END
> <s_m_source_file>
AV-unprocessed.smi

> <i_m_source_file_index>
1703

> <i_lp_mmshare_version>
43012

> <i_f3d_flags>
0

> <s_epik_input>
W0NIM11bQ0BASF0xW0NIMl1OKFtDSDJdW0NASF0oTzEpW0NIM10pW0NIMl1bQ0BIXShbT0hdKVtDSDJdbihjKG4yKVtDSDJdW09IXSljKGMyMylbY0hdW2NIXVtjSF1bY0hdMw==

> <s_epik_cmdline>
J2VwaWtfcHl0aG9uJywgJy1waCcsICc3LjAnLCAnLXRuJywgJzgnLCAnLW1hJywgJzIwMCcsICctbWV0YWxfYmluZGluZycsICctaW1hZScsICc8aW5maWxlLm1hZT4nLCAnLW9tYWUnLCAnPG91dGZpbGUubWFlPic=

> <r_epik_Ionization_Penalty>
0.655661

> <r_epik_Ionization_Penalty_Charging>
0.608065

> <r_epik_Ionization_Penalty_Neutral>
0.0475963

> <r_epik_State_Penalty>
0.695267

> <r_epik_Charging_Adjusted_Penalty>
1.30333

> <i_epik_Tot_Q>
1

> <i_epik_Tot_abs_Q>
1

> <r_epik_Metal_State_Penalty>
0.653591

> <b_epik_Metal_Only>
0

> <s_lp_Force_Field>
OPLS_2005

> <r_lp_Energy>
23.9002

> <b_lp_Chiralities_Consistent>
1

> <s_lp_Variant>
AV-unprocessed.smi:1703-10

> <Gold.Version>
5.8.1

> <Gold.Id.Protein>
6NUR|6NUR_protein|mol2

> <Gold.PLP.Fitness>
51.4619

> <Gold.PLP.PLP>
-41.5527

> <Gold.PLP.part.hbond>
-3.5230

> <Gold.PLP.part.metal>
0.0000

> <Gold.PLP.part.buried>
1.5598

> <Gold.PLP.part.nonpolar>
-38.4249

> <Gold.PLP.part.repulsive>
0.1542

> <Gold.PLP.ligand.clash>
0.0000

> <Gold.PLP.ligand.torsion>
1.0919

> <Gold.PLP.Chemscore.Hbond>
4.0000

> <Gold.PLP.Chemscore.CHOScore>
0.0000

> <Gold.PLP.Chemscore.Metal>
0.0000

> <Gold.Chemscore.Hbonds>
donor molecule, donor type, donor heavy atom, donor atom, acceptor molecule, acceptor atom, score
      L1  H     4    49       P1  7948  1.90
      L1  H     7    33       P1  7948  1.00
      P1  H  7989  7998       L1    23  0.75

> <Gold.PLP.Chemscore.Internal.Correction>
0.0930

> <Gold.Rescore>
     Score         DG    S(hbond)    S(metal)    S(lipo)     H(rot)  DE(clash)    DE(int)     intcor
     15.76     -19.47       2.74        0.00     106.21       2.96       2.39       1.33       ----

> <Gold.Chemscore.Fitness>
15.7586

> <Gold.Chemscore.DG>
-19.4741

> <Gold.Chemscore.ZeroCoef>
-5.4800

> <Gold.Chemscore.Hbond>
2.7389

> <Gold.Chemscore.Metal>
0.0000

> <Gold.Chemscore.Lipo>
106.2093

> <Gold.Chemscore.Internal_Hbond>
0.0000

> <Gold.Chemscore.DEClash>
2.3873

> <Gold.Chemscore.DEInternal>
1.3282

> <Gold.Chemscore.Rot>
2.9611

> <Gold.Chemscore.Internal.Correction>
   9.000000E+99

> <Gold.Chemscore.Hbonds>
donor molecule, donor type, donor heavy atom, donor atom, acceptor molecule, acceptor atom, score
      L1  H     4    49       P1  7948  0.21
      L1  H     7    33       P1  7948  0.98
      P1  H  7989  7998       L1    23  0.33

> <Gold.Chemscore.Hbond.Weighted>
-9.1480

> <Gold.Chemscore.Metal.Weighted>
-0.0000

> <Gold.Chemscore.Lipo.Weighted>
-12.4265

> <Gold.Chemscore.Internal_Hbond.Weighted>
0.0000

> <Gold.Chemscore.DEClash.Weighted>
2.3873

> <Gold.Chemscore.DEInternal.Weighted>
1.3282

> <Gold.Chemscore.Rot.Weighted>
7.5803

> <Gold.Chemscore.Internal.Correction.Weighted>
   9.000000E+99

> <Gold.Protein.RotatedTorsions>
[ 6907 6896 6895 6894 ] final  -57.23 input  -60.11 | X-H torsion
[ 7974 7965 7964 7962 ] final   87.23 input  175.53 | X-H torsion
[ 8008 7997 7996 7995 ] final -128.52 input   59.86 | X-H torsion
[ 10167 10162 10161 10158 ] final  -91.27 input  -65.29 | X-H torsion
[ 10718 10713 10712 10709 ] final -120.05 input   66.30 | X-H torsion
[ 10763 10752 10751 10750 ] final   -9.60 input  -60.55 | X-H torsion
[ 11005 11000 10999 10996 ] final   96.03 input  -57.11 | X-H torsion

> <Gold.Protein.ActiveResidues>
 VAL166  LYS551  ARG553  GLY616  TRP617  ASP618  TYR619  PRO620  LYS621  CYS622 
 ASP623  PHE694  ASN695  SER759  ASP760  ASP761  ALA762  ILE779  LEU786  VAL792 
 PHE793  MET794  SER795  GLU796  ALA797  LYS798  CYS799  TRP800  GLU811  SER814 

> <Gold.Protein.RotatedAtoms>
  150.8102  134.7253  159.6680 H   0  0  0  0  0  0  0  0  0  0  0  0  # atno 6907 bound_to 6896
  152.4222  134.5930  159.9989 H   0  0  0  0  0  0  0  0  0  0  0  0  # atno 6908 bound_to 6896
  151.6142  133.3307  159.3110 H   0  0  0  0  0  0  0  0  0  0  0  0  # atno 6909 bound_to 6896
  145.5617  139.2304  143.2455 H   0  0  0  0  0  0  0  0  0  0  0  0  # atno 7974 bound_to 7965
  155.2641  140.0437  157.3000 H   0  0  0  0  0  0  0  0  0  0  0  0  # atno 8008 bound_to 7997
  154.5693  140.2369  155.8185 H   0  0  0  0  0  0  0  0  0  0  0  0  # atno 8009 bound_to 7997
  156.2110  140.2999  155.9739 H   0  0  0  0  0  0  0  0  0  0  0  0  # atno 8010 bound_to 7997
  140.3466  143.2914  151.9775 H   0  0  0  0  0  0  0  0  0  0  0  0  # atno 10167 bound_to 10162
  156.1228  130.6336  150.9492 H   0  0  0  0  0  0  0  0  0  0  0  0  # atno 10718 bound_to 10713
  153.4571  135.7015  153.6073 H   0  0  0  0  0  0  0  0  0  0  0  0  # atno 10763 bound_to 10752
  153.4383  135.3786  155.2213 H   0  0  0  0  0  0  0  0  0  0  0  0  # atno 10764 bound_to 10752
  154.8728  135.3967  154.3991 H   0  0  0  0  0  0  0  0  0  0  0  0  # atno 10765 bound_to 10752
  139.8784  134.8930  156.4099 H   0  0  0  0  0  0  0  0  0  0  0  0  # atno 11005 bound_to 11000
  146.1846  140.6442  142.9173 LP  0  0  0  0  0  0  0  0  0  0  0  0  # atno 17320 bound_to 7965
  144.7479  140.5117  143.6822 LP  0  0  0  0  0  0  0  0  0  0  0  0  # atno 17321 bound_to 7965
  139.4832  144.6112  151.7430 LP  0  0  0  0  0  0  0  0  0  0  0  0  # atno 17342 bound_to 10162
  140.5259  144.0806  150.6037 LP  0  0  0  0  0  0  0  0  0  0  0  0  # atno 17343 bound_to 10162
  157.6410  131.0910  150.8250 LP  0  0  0  0  0  0  0  0  0  0  0  0  # atno 17370 bound_to 10713
  156.8345  130.5027  149.5328 LP  0  0  0  0  0  0  0  0  0  0  0  0  # atno 17371 bound_to 10713
  140.9208  133.7646  155.9904 LP  0  0  0  0  0  0  0  0  0  0  0  0  # atno 17394 bound_to 11000
  140.8442  134.3031  157.5301 LP  0  0  0  0  0  0  0  0  0  0  0  0  # atno 17395 bound_to 11000

$$$$
