AV-unprocessed.smi:3340|AV-procd|sdf|12881|dock7
  -GOLD-   2272019283D 1   1.00000     0.00000
 Structure written by MMmdl.
 41 42  0  0  0  0  0  0  0  0  1 V2000
  146.6618  140.9278  153.9149 C   0  0  0  0  0  0  0  0  0  0  0  0
  146.8499  141.1019  155.4238 C   0  0  0  0  0  0  0  0  0  0  0  0
  145.8416  141.1503  156.1286 O   0  0  0  0  0  0  0  0  0  0  0  0
  148.1029  141.1940  155.9307 N   0  0  0  0  0  0  0  0  0  0  0  0
  148.3717  141.3056  157.3727 C   0  0  0  0  0  0  0  0  0  0  0  0
  149.1606  140.0640  157.8356 C   0  0  0  0  0  0  0  0  0  0  0  0
  150.4117  139.9767  157.0582 N   0  0  0  0  0  0  0  0  0  0  0  0
  151.6646  140.1941  157.5310 C   0  0  0  0  0  0  0  0  0  0  0  0
  152.6811  139.8111  156.9496 O   0  0  0  0  0  0  0  0  0  0  0  0
  151.7148  140.8204  158.7194 N   0  0  0  0  0  0  0  0  0  0  0  0
  152.9309  141.1470  159.4583 C   0  0  2  0  0  0  0  0  0  0  0  0
  153.6000  139.8449  159.9278 C   0  0  0  0  0  0  0  0  0  0  0  0
  152.6038  142.1129  160.6174 C   0  0  0  0  0  0  0  0  0  0  0  0
  152.2177  143.4323  160.1546 N   0  0  0  0  0  0  0  0  0  0  0  0
  152.2540  143.9027  158.8485 C   0  0  0  0  0  0  0  0  0  0  0  0
  151.7946  145.1998  158.8848 C   0  0  0  0  0  0  0  0  0  0  0  0
  151.4667  145.5446  160.1941 N   0  0  0  0  0  0  0  0  0  0  0  0
  151.7404  144.4473  160.8882 C   0  0  0  0  0  0  0  0  0  0  0  0
  150.1319  139.8540  155.6195 C   0  0  0  0  0  0  0  0  0  0  0  0
  149.3479  141.0964  155.1522 C   0  0  0  0  0  0  0  0  0  0  0  0
  147.1376  140.0095  153.5693 H   0  0  0  0  0  0  0  0  0  0  0  0
  147.0843  141.7737  153.3721 H   0  0  0  0  0  0  0  0  0  0  0  0
  145.6023  140.8683  153.6636 H   0  0  0  0  0  0  0  0  0  0  0  0
  148.9481  142.2125  157.5619 H   0  0  0  0  0  0  0  0  0  0  0  0
  147.4619  141.3999  157.9665 H   0  0  0  0  0  0  0  0  0  0  0  0
  149.3105  140.1161  158.9138 H   0  0  0  0  0  0  0  0  0  0  0  0
  148.5715  139.1616  157.6658 H   0  0  0  0  0  0  0  0  0  0  0  0
  150.8394  141.0871  159.1460 H   0  0  0  0  0  0  0  0  0  0  0  0
  153.6269  141.6414  158.7778 H   0  0  0  0  0  0  0  0  0  0  0  0
  154.5605  140.0388  160.4058 H   0  0  0  0  0  0  0  0  0  0  0  0
  153.7874  139.1758  159.0873 H   0  0  0  0  0  0  0  0  0  0  0  0
  152.9728  139.3127  160.6439 H   0  0  0  0  0  0  0  0  0  0  0  0
  151.7876  141.7192  161.2248 H   0  0  0  0  0  0  0  0  0  0  0  0
  153.4645  142.2142  161.2803 H   0  0  0  0  0  0  0  0  0  0  0  0
  152.5970  143.2927  158.0257 H   0  0  0  0  0  0  0  0  0  0  0  0
  151.6746  145.9051  158.0758 H   0  0  0  0  0  0  0  0  0  0  0  0
  151.5938  144.3820  161.9565 H   0  0  0  0  0  0  0  0  0  0  0  0
  151.0377  139.7422  155.0221 H   0  0  0  0  0  0  0  0  0  0  0  0
  149.5471  138.9504  155.4419 H   0  0  0  0  0  0  0  0  0  0  0  0
  149.1893  141.0384  154.0767 H   0  0  0  0  0  0  0  0  0  0  0  0
  149.9410  141.9977  155.3143 H   0  0  0  0  0  0  0  0  0  0  0  0
  1  2  1  0  0  0  0
  1 21  1  0  0  0  0
  1 22  1  0  0  0  0
  1 23  1  0  0  0  0
  2  3  2  0  0  0  0
  2  4  1  0  0  0  0
  4 20  1  0  0  0  0
  4  5  1  0  0  0  0
  5  6  1  0  0  0  0
  5 24  1  0  0  0  0
  5 25  1  0  0  0  0
  6  7  1  0  0  0  0
  6 26  1  0  0  0  0
  6 27  1  0  0  0  0
  7  8  1  0  0  0  0
  7 19  1  0  0  0  0
  8  9  2  0  0  0  0
  8 10  1  0  0  0  0
 10 11  1  0  0  0  0
 10 28  1  0  0  0  0
 11 12  1  0  0  0  0
 11 13  1  0  0  0  0
 11 29  1  0  0  0  0
 12 30  1  0  0  0  0
 12 31  1  0  0  0  0
 12 32  1  0  0  0  0
 13 14  1  0  0  0  0
 13 33  1  0  0  0  0
 13 34  1  0  0  0  0
 14 18  1  0  0  0  0
 14 15  1  0  0  0  0
 15 16  2  0  0  0  0
 15 35  1  0  0  0  0
 16 17  1  0  0  0  0
 16 36  1  0  0  0  0
 17 18  2  0  0  0  0
 18 37  1  0  0  0  0
 19 20  1  0  0  0  0
 19 38  1  0  0  0  0
 19 39  1  0  0  0  0
 20 40  1  0  0  0  0
 20 41  1  0  0  0  0
M  END
> <s_m_source_file>
AV-unprocessed.smi

> <i_m_source_file_index>
3340

> <i_lp_mmshare_version>
43012

> <i_f3d_flags>
0

> <s_epik_input>
W0NIM11DKD1PKU4xW0NIMl1bQ0gyXU4oW0NIMl1bQ0gyXTEpQyg9TylbTkhdW0NASF0oW0NIM10pW0NIMl1uMltjSF1bY0hdbltjSF0y

> <s_epik_cmdline>
J2VwaWtfcHl0aG9uJywgJy1waCcsICc3LjAnLCAnLXRuJywgJzgnLCAnLW1hJywgJzIwMCcsICctbWV0YWxfYmluZGluZycsICctaW1hZScsICc8aW5maWxlLm1hZT4nLCAnLW9tYWUnLCAnPG91dGZpbGUubWFlPic=

> <r_lp_tautomer_probability>
1

> <r_epik_Ionization_Penalty>
0.622948

> <r_epik_Ionization_Penalty_Charging>
0.622904

> <r_epik_Ionization_Penalty_Neutral>
4.39259e-05

> <r_epik_State_Penalty>
0.639086

> <r_epik_Charging_Adjusted_Penalty>
1.26199

> <i_epik_Tot_Q>
0

> <i_epik_Tot_abs_Q>
0

> <r_epik_Metal_State_Penalty>
0.307185

> <b_epik_Metal_Only>
0

> <s_lp_Force_Field>
OPLS_2005

> <r_lp_Energy>
49.2595

> <b_lp_Chiralities_Consistent>
1

> <s_lp_Variant>
AV-unprocessed.smi:3340-3

> <Gold.Version>
5.8.1

> <Gold.Id.Protein>
6NUR|6NUR_protein|mol2

> <Gold.PLP.Fitness>
44.8436

> <Gold.PLP.PLP>
-42.6290

> <Gold.PLP.part.hbond>
-1.2404

> <Gold.PLP.part.metal>
0.0000

> <Gold.PLP.part.buried>
-5.9148

> <Gold.PLP.part.nonpolar>
-35.6588

> <Gold.PLP.part.repulsive>
0.3819

> <Gold.PLP.ligand.clash>
0.0000

> <Gold.PLP.ligand.torsion>
0.4178

> <Gold.PLP.Chemscore.Hbond>
1.0000

> <Gold.PLP.Chemscore.CHOScore>
0.0000

> <Gold.PLP.Chemscore.Metal>
0.0000

> <Gold.Chemscore.Hbonds>
donor molecule, donor type, donor heavy atom, donor atom, acceptor molecule, acceptor atom, score
      P1  H  7997  8009       L1     9  1.00

> <Gold.PLP.Chemscore.Internal.Correction>
0.0502

> <Gold.Rescore>
     Score         DG    S(hbond)    S(metal)    S(lipo)     H(rot)  DE(clash)    DE(int)     intcor
     13.77     -14.18       1.00        0.00      81.95       1.65       0.11       0.30       ----

> <Gold.Chemscore.Fitness>
13.7742

> <Gold.Chemscore.DG>
-14.1848

> <Gold.Chemscore.ZeroCoef>
-5.4800

> <Gold.Chemscore.Hbond>
0.9978

> <Gold.Chemscore.Metal>
0.0000

> <Gold.Chemscore.Lipo>
81.9543

> <Gold.Chemscore.Internal_Hbond>
0.0000

> <Gold.Chemscore.DEClash>
0.1133

> <Gold.Chemscore.DEInternal>
0.2972

> <Gold.Chemscore.Rot>
1.6471

> <Gold.Chemscore.Internal.Correction>
   9.000000E+99

> <Gold.Chemscore.Hbonds>
donor molecule, donor type, donor heavy atom, donor atom, acceptor molecule, acceptor atom, score
      P1  H  7997  8009       L1     9  1.00

> <Gold.Chemscore.Hbond.Weighted>
-3.3327

> <Gold.Chemscore.Metal.Weighted>
-0.0000

> <Gold.Chemscore.Lipo.Weighted>
-9.5886

> <Gold.Chemscore.Internal_Hbond.Weighted>
0.0000

> <Gold.Chemscore.DEClash.Weighted>
0.1133

> <Gold.Chemscore.DEInternal.Weighted>
0.2972

> <Gold.Chemscore.Rot.Weighted>
4.2166

> <Gold.Chemscore.Internal.Correction.Weighted>
   9.000000E+99

> <Gold.Protein.RotatedTorsions>
[ 6907 6896 6895 6894 ] final  158.22 input  -60.11 | X-H torsion
[ 7974 7965 7964 7962 ] final -106.82 input  175.53 | X-H torsion
[ 8008 7997 7996 7995 ] final -178.01 input   59.86 | X-H torsion
[ 10167 10162 10161 10158 ] final  168.42 input  -65.29 | X-H torsion
[ 10718 10713 10712 10709 ] final   23.09 input   66.30 | X-H torsion
[ 10763 10752 10751 10750 ] final  170.80 input  -60.55 | X-H torsion
[ 11005 11000 10999 10996 ] final   74.67 input  -57.11 | X-H torsion

> <Gold.Protein.ActiveResidues>
 VAL166  LYS551  ARG553  GLY616  TRP617  ASP618  TYR619  PRO620  LYS621  CYS622 
 ASP623  PHE694  ASN695  SER759  ASP760  ASP761  ALA762  ILE779  LEU786  VAL792 
 PHE793  MET794  SER795  GLU796  ALA797  LYS798  CYS799  TRP800  GLU811  SER814 

> <Gold.Protein.RotatedAtoms>
  152.0036  133.3835  159.4191 H   0  0  0  0  0  0  0  0  0  0  0  0  # atno 6907 bound_to 6896
  150.6907  134.3807  159.5042 H   0  0  0  0  0  0  0  0  0  0  0  0  # atno 6908 bound_to 6896
  152.1558  134.8952  160.0596 H   0  0  0  0  0  0  0  0  0  0  0  0  # atno 6909 bound_to 6896
  145.2130  140.9104  143.3303 H   0  0  0  0  0  0  0  0  0  0  0  0  # atno 7974 bound_to 7965
  156.0137  140.1246  157.0428 H   0  0  0  0  0  0  0  0  0  0  0  0  # atno 8008 bound_to 7997
  154.4285  140.1082  156.5935 H   0  0  0  0  0  0  0  0  0  0  0  0  # atno 8009 bound_to 7997
  155.6043  140.3471  155.4605 H   0  0  0  0  0  0  0  0  0  0  0  0  # atno 8010 bound_to 7997
  139.4967  144.3816  151.9616 H   0  0  0  0  0  0  0  0  0  0  0  0  # atno 10167 bound_to 10162
  157.1614  130.6718  149.6045 H   0  0  0  0  0  0  0  0  0  0  0  0  # atno 10718 bound_to 10713
  154.4028  135.2755  155.2086 H   0  0  0  0  0  0  0  0  0  0  0  0  # atno 10763 bound_to 10752
  154.4105  135.6023  153.5953 H   0  0  0  0  0  0  0  0  0  0  0  0  # atno 10764 bound_to 10752
  152.9831  135.5948  154.4298 H   0  0  0  0  0  0  0  0  0  0  0  0  # atno 10765 bound_to 10752
  139.9380  134.7453  156.1177 H   0  0  0  0  0  0  0  0  0  0  0  0  # atno 11005 bound_to 11000
  144.9837  139.3757  143.6249 LP  0  0  0  0  0  0  0  0  0  0  0  0  # atno 17320 bound_to 7965
  146.3393  139.8990  142.8797 LP  0  0  0  0  0  0  0  0  0  0  0  0  # atno 17321 bound_to 7965
  140.3253  144.3380  150.6000 LP  0  0  0  0  0  0  0  0  0  0  0  0  # atno 17342 bound_to 10162
  140.5690  143.2183  151.7633 LP  0  0  0  0  0  0  0  0  0  0  0  0  # atno 17343 bound_to 10162
  155.9753  130.4710  150.6451 LP  0  0  0  0  0  0  0  0  0  0  0  0  # atno 17370 bound_to 10713
  157.4129  131.0826  151.1204 LP  0  0  0  0  0  0  0  0  0  0  0  0  # atno 17371 bound_to 10713
  141.1002  133.6680  156.2737 LP  0  0  0  0  0  0  0  0  0  0  0  0  # atno 17394 bound_to 11000
  140.6026  134.5539  157.5520 LP  0  0  0  0  0  0  0  0  0  0  0  0  # atno 17395 bound_to 11000

$$$$
