AV-unprocessed.smi:1262|AV-procd|sdf|5309|dock5
  -GOLD-   22720 4433D 1   1.00000     0.00000
 Structure written by MMmdl.
 34 35  0  0  0  0  0  0  0  0  1 V2000
  141.9108  144.0083  161.1596 C   0  0  0  0  0  0  0  0  0  0  0  0
  143.1259  144.2908  160.3263 C   0  0  0  0  0  0  0  0  0  0  0  0
  144.4949  144.2044  160.7131 C   0  0  0  0  0  0  0  0  0  0  0  0
  145.1542  144.5678  159.5707 C   0  0  0  0  0  0  0  0  0  0  0  0
  146.4920  144.6668  159.3493 N   0  0  0  0  0  0  0  0  0  0  0  0
  147.5025  144.5107  160.2225 C   0  0  0  0  0  0  0  0  0  0  0  0
  147.3791  144.2427  161.4179 O   0  0  0  0  0  0  0  0  0  0  0  0
  148.6894  144.6869  159.6246 N   0  0  0  0  0  0  0  0  0  0  0  0
  149.9842  144.5972  160.2896 C   0  0  0  0  0  0  0  0  0  0  0  0
  151.1320  144.8400  159.3126 C   0  0  0  0  0  0  0  0  0  0  0  0
  151.3762  143.8566  158.1576 C   0  0  0  0  0  0  0  0  0  0  0  0
  152.8777  144.1059  158.3240 C   0  0  0  0  0  0  0  0  0  0  0  0
  152.5758  144.5602  159.7547 C   0  0  0  0  0  0  0  0  0  0  0  0
  144.2269  144.8452  158.5910 N   0  0  0  0  0  0  0  0  0  0  0  0
  144.4341  145.2694  157.2202 C   0  0  0  0  0  0  0  0  0  0  0  0
  142.9733  144.6724  159.0631 N   0  0  0  0  0  0  0  0  0  0  0  0
  142.1853  143.7620  162.1854 H   0  0  0  0  0  0  0  0  0  0  0  0
  141.3461  143.1674  160.7565 H   0  0  0  0  0  0  0  0  0  0  0  0
  141.2469  144.8723  161.1930 H   0  0  0  0  0  0  0  0  0  0  0  0
  144.9016  143.9217  161.6724 H   0  0  0  0  0  0  0  0  0  0  0  0
  146.7553  144.8854  158.3997 H   0  0  0  0  0  0  0  0  0  0  0  0
  148.6998  144.9048  158.6390 H   0  0  0  0  0  0  0  0  0  0  0  0
  150.0280  145.3038  161.1198 H   0  0  0  0  0  0  0  0  0  0  0  0
  150.0658  143.6040  160.7317 H   0  0  0  0  0  0  0  0  0  0  0  0
  151.0885  145.8528  158.9058 H   0  0  0  0  0  0  0  0  0  0  0  0
  151.0896  142.8328  158.4041 H   0  0  0  0  0  0  0  0  0  0  0  0
  150.9633  144.1696  157.1982 H   0  0  0  0  0  0  0  0  0  0  0  0
  153.5010  143.2145  158.2486 H   0  0  0  0  0  0  0  0  0  0  0  0
  153.2453  144.9153  157.6910 H   0  0  0  0  0  0  0  0  0  0  0  0
  153.1308  145.4399  160.0819 H   0  0  0  0  0  0  0  0  0  0  0  0
  152.6490  143.7465  160.4783 H   0  0  0  0  0  0  0  0  0  0  0  0
  145.0664  144.5461  156.7046 H   0  0  0  0  0  0  0  0  0  0  0  0
  144.9230  146.2437  157.2095 H   0  0  0  0  0  0  0  0  0  0  0  0
  143.4825  145.3451  156.6925 H   0  0  0  0  0  0  0  0  0  0  0  0
  1  2  1  0  0  0  0
  1 17  1  0  0  0  0
  1 18  1  0  0  0  0
  1 19  1  0  0  0  0
  2 16  2  0  0  0  0
  2  3  1  0  0  0  0
  3  4  2  0  0  0  0
  3 20  1  0  0  0  0
  4  5  1  0  0  0  0
  4 14  1  0  0  0  0
  5  6  1  0  0  0  0
  5 21  1  0  0  0  0
  6  7  2  0  0  0  0
  6  8  1  0  0  0  0
  8  9  1  0  0  0  0
  8 22  1  0  0  0  0
  9 10  1  0  0  0  0
  9 23  1  0  0  0  0
  9 24  1  0  0  0  0
 10 13  1  0  0  0  0
 10 11  1  0  0  0  0
 10 25  1  0  0  0  0
 11 12  1  0  0  0  0
 11 26  1  0  0  0  0
 11 27  1  0  0  0  0
 12 13  1  0  0  0  0
 12 28  1  0  0  0  0
 12 29  1  0  0  0  0
 13 30  1  0  0  0  0
 13 31  1  0  0  0  0
 14 15  1  0  0  0  0
 14 16  1  0  0  0  0
 15 32  1  0  0  0  0
 15 33  1  0  0  0  0
 15 34  1  0  0  0  0
M  END
> <s_m_source_file>
AV-unprocessed.smi

> <i_m_source_file_index>
1262

> <i_lp_mmshare_version>
43012

> <i_f3d_flags>
0

> <s_epik_input>
W0NIM11jMVtjSF1jKG4objEpW0NIM10pW05IXUMoPU8pW05IXVtDSDJdW0NIXTJbQ0gyXVtDSDJdW0NIMl0y

> <s_epik_cmdline>
J2VwaWtfcHl0aG9uJywgJy1waCcsICc3LjAnLCAnLXRuJywgJzgnLCAnLW1hJywgJzIwMCcsICctbWV0YWxfYmluZGluZycsICctaW1hZScsICc8aW5maWxlLm1hZT4nLCAnLW9tYWUnLCAnPG91dGZpbGUubWFlPic=

> <r_lp_tautomer_probability>
1

> <r_epik_Ionization_Penalty>
9.92667e-05

> <r_epik_Ionization_Penalty_Charging>
0

> <r_epik_Ionization_Penalty_Neutral>
9.92667e-05

> <r_epik_State_Penalty>
-0

> <r_epik_Charging_Adjusted_Penalty>
0

> <i_epik_Tot_Q>
0

> <i_epik_Tot_abs_Q>
0

> <r_epik_Metal_State_Penalty>
-0

> <b_epik_Metal_Only>
0

> <s_lp_Force_Field>
OPLS_2005

> <r_lp_Energy>
13.5599

> <b_lp_Chiralities_Consistent>
1

> <s_lp_Variant>
AV-unprocessed.smi:1262-1

> <Gold.Version>
5.8.1

> <Gold.Id.Protein>
6NUR|6NUR_protein|mol2

> <Gold.PLP.Fitness>
38.7297

> <Gold.PLP.PLP>
-29.7691

> <Gold.PLP.part.hbond>
-3.0000

> <Gold.PLP.part.metal>
0.0000

> <Gold.PLP.part.buried>
-6.0424

> <Gold.PLP.part.nonpolar>
-21.2585

> <Gold.PLP.part.repulsive>
0.4196

> <Gold.PLP.ligand.clash>
0.0000

> <Gold.PLP.ligand.torsion>
0.0363

> <Gold.PLP.Chemscore.Hbond>
2.9920

> <Gold.PLP.Chemscore.CHOScore>
0.0000

> <Gold.PLP.Chemscore.Metal>
0.0000

> <Gold.Chemscore.Hbonds>
donor molecule, donor type, donor heavy atom, donor atom, acceptor molecule, acceptor atom, score
      L1  H     5    21       P1  8029  0.93
      L1  H     8    22       P1  8029  0.90
      P1  H  6933  6944       L1     7  0.59

> <Gold.PLP.Chemscore.Internal.Correction>
0.0572

> <Gold.Rescore>
     Score         DG    S(hbond)    S(metal)    S(lipo)     H(rot)  DE(clash)    DE(int)     intcor
     19.78     -21.11       2.84        0.00      79.02       1.21       0.01       1.32       ----

> <Gold.Chemscore.Fitness>
19.7816

> <Gold.Chemscore.DG>
-21.1147

> <Gold.Chemscore.ZeroCoef>
-5.4800

> <Gold.Chemscore.Hbond>
2.8407

> <Gold.Chemscore.Metal>
0.0000

> <Gold.Chemscore.Lipo>
79.0186

> <Gold.Chemscore.Internal_Hbond>
0.0000

> <Gold.Chemscore.DEClash>
0.0089

> <Gold.Chemscore.DEInternal>
1.3242

> <Gold.Chemscore.Rot>
1.2103

> <Gold.Chemscore.Internal.Correction>
   9.000000E+99

> <Gold.Chemscore.Hbonds>
donor molecule, donor type, donor heavy atom, donor atom, acceptor molecule, acceptor atom, score
      L1  H     5    21       P1  8029  0.89
      L1  H     8    22       P1  8029  0.85
      P1  H  6933  6944       L1     7  0.13

> <Gold.Chemscore.Hbond.Weighted>
-9.4879

> <Gold.Chemscore.Metal.Weighted>
-0.0000

> <Gold.Chemscore.Lipo.Weighted>
-9.2452

> <Gold.Chemscore.Internal_Hbond.Weighted>
0.0000

> <Gold.Chemscore.DEClash.Weighted>
0.0089

> <Gold.Chemscore.DEInternal.Weighted>
1.3242

> <Gold.Chemscore.Rot.Weighted>
3.0984

> <Gold.Chemscore.Internal.Correction.Weighted>
   9.000000E+99

> <Gold.Protein.RotatedTorsions>
[ 6907 6896 6895 6894 ] final  151.71 input  -60.11 | X-H torsion
[ 7974 7965 7964 7962 ] final   23.63 input  175.53 | X-H torsion
[ 8008 7997 7996 7995 ] final   88.89 input   59.86 | X-H torsion
[ 10167 10162 10161 10158 ] final   32.50 input  -65.29 | X-H torsion
[ 10718 10713 10712 10709 ] final   68.69 input   66.30 | X-H torsion
[ 10763 10752 10751 10750 ] final  -82.51 input  -60.55 | X-H torsion
[ 11005 11000 10999 10996 ] final  -21.89 input  -57.11 | X-H torsion

> <Gold.Protein.ActiveResidues>
 VAL166  LYS551  ARG553  GLY616  TRP617  ASP618  TYR619  PRO620  LYS621  CYS622 
 ASP623  PHE694  ASN695  SER759  ASP760  ASP761  ALA762  ILE779  LEU786  VAL792 
 PHE793  MET794  SER795  GLU796  ALA797  LYS798  CYS799  TRP800  GLU811  SER814 

> <Gold.Protein.RotatedAtoms>
  152.0968  133.4229  159.4568 H   0  0  0  0  0  0  0  0  0  0  0  0  # atno 6907 bound_to 6896
  150.6863  134.2807  159.4635 H   0  0  0  0  0  0  0  0  0  0  0  0  # atno 6908 bound_to 6896
  152.0663  134.9561  160.0625 H   0  0  0  0  0  0  0  0  0  0  0  0  # atno 6909 bound_to 6896
  146.1975  139.7717  142.8786 H   0  0  0  0  0  0  0  0  0  0  0  0  # atno 7974 bound_to 7965
  155.9933  140.3366  155.6774 H   0  0  0  0  0  0  0  0  0  0  0  0  # atno 8008 bound_to 7997
  155.6391  140.0693  157.2642 H   0  0  0  0  0  0  0  0  0  0  0  0  # atno 8009 bound_to 7997
  154.4226  140.1746  156.1541 H   0  0  0  0  0  0  0  0  0  0  0  0  # atno 8010 bound_to 7997
  140.4492  144.1073  150.6188 H   0  0  0  0  0  0  0  0  0  0  0  0  # atno 10167 bound_to 10162
  157.6304  130.9387  150.0412 H   0  0  0  0  0  0  0  0  0  0  0  0  # atno 10718 bound_to 10713
  154.5766  135.5589  153.7145 H   0  0  0  0  0  0  0  0  0  0  0  0  # atno 10763 bound_to 10752
  153.0067  135.6310  154.2040 H   0  0  0  0  0  0  0  0  0  0  0  0  # atno 10764 bound_to 10752
  154.1981  135.2879  155.2980 H   0  0  0  0  0  0  0  0  0  0  0  0  # atno 10765 bound_to 10752
  140.8604  133.7792  156.0068 H   0  0  0  0  0  0  0  0  0  0  0  0  # atno 11005 bound_to 11000
  145.3594  141.0323  143.3293 LP  0  0  0  0  0  0  0  0  0  0  0  0  # atno 17320 bound_to 7965
  144.8612  139.5175  143.6811 LP  0  0  0  0  0  0  0  0  0  0  0  0  # atno 17321 bound_to 7965
  140.4227  143.2604  151.9695 LP  0  0  0  0  0  0  0  0  0  0  0  0  # atno 17342 bound_to 10162
  139.4795  144.5816  151.7922 LP  0  0  0  0  0  0  0  0  0  0  0  0  # atno 17343 bound_to 10162
  156.1503  130.3642  149.9448 LP  0  0  0  0  0  0  0  0  0  0  0  0  # atno 17370 bound_to 10713
  156.7470  130.9101  151.3635 LP  0  0  0  0  0  0  0  0  0  0  0  0  # atno 17371 bound_to 10713
  140.8689  134.2751  157.5200 LP  0  0  0  0  0  0  0  0  0  0  0  0  # atno 17394 bound_to 11000
  139.8707  134.9557  156.4214 LP  0  0  0  0  0  0  0  0  0  0  0  0  # atno 17395 bound_to 11000

$$$$
