AV-unprocessed.smi:193|AV-procd|sdf|1505|dock6
  -GOLD-   2262019333D 1   1.00000     0.00000
 Structure written by MMmdl.
 62 66  0  0  0  0  0  0  0  0  2 V2000
  148.7060  128.7088  155.2912 C   0  0  0  0  0  0  0  0  0  0  0  0
  148.6358  130.1572  154.7828 C   0  0  1  0  0  0  0  0  0  0  0  0
  149.9520  130.8833  155.1444 C   0  0  0  0  0  0  0  0  0  0  0  0
  149.9045  132.3318  154.9492 N   0  0  0  0  0  0  0  0  0  0  0  0
  149.5637  133.1200  156.0045 C   0  0  0  0  0  0  0  0  0  0  0  0
  148.4749  132.8008  156.7541 N   0  0  0  0  0  0  0  0  0  0  0  0
  148.1063  133.5745  157.7788 C   0  0  0  0  0  0  0  0  0  0  0  0
  148.6739  134.6972  158.2210 N   0  0  0  0  0  0  0  0  0  0  0  0
  149.7716  135.0215  157.4804 C   0  0  0  0  0  0  0  0  0  0  0  0
  150.2850  134.2931  156.3697 C   0  0  0  0  0  0  0  0  0  0  0  0
  151.4290  134.9184  155.8866 N   0  0  0  0  0  0  0  0  0  0  0  0
  151.5752  135.9608  156.6574 C   0  0  0  0  0  0  0  0  0  0  0  0
  150.6156  136.1076  157.6328 N   0  0  0  0  0  0  0  0  0  0  0  0
  150.5305  137.1753  158.6175 C   0  0  0  0  0  0  0  0  0  0  0  0
  150.6556  138.5980  158.0169 C   0  0  0  0  0  0  0  0  0  0  0  0
  150.1415  139.5171  158.9654 O   0  0  0  0  0  0  0  0  0  0  0  0
  152.1368  138.9410  157.7588 C   0  0  0  0  0  0  0  0  0  0  0  0
  152.3024  140.2722  157.0046 C   0  0  0  0  0  0  0  0  0  0  0  0
  151.5613  140.2384  155.7910 O   0  0  0  0  0  0  0  0  0  0  0  0
  150.1620  140.1005  156.0057 C   0  0  0  0  0  0  0  0  0  0  0  0
  149.8612  138.7616  156.7026 C   0  0  0  0  0  0  0  0  0  0  0  0
  149.5523  132.8316  153.6218 C   0  0  0  0  0  0  0  0  0  0  0  0
  148.0460  132.6804  153.3402 C   0  0  0  0  0  0  0  0  0  0  0  0
  147.6593  131.3740  152.7444 N   0  3  2  0  0  0  0  0  0  0  0  0
  146.1874  131.1909  152.7558 C   0  0  2  0  0  0  0  0  0  0  0  0
  145.6521  130.4291  151.5634 C   0  0  0  0  0  0  0  0  0  0  0  0
  145.4261  131.9211  151.6619 C   0  0  2  0  0  0  0  0  0  0  0  0
  146.0734  132.8520  150.6528 C   0  0  0  0  0  0  0  0  0  0  0  0
  148.3818  130.1744  153.2561 C   0  0  0  0  0  0  0  0  0  0  0  0
  149.5189  128.1592  154.8150 H   0  0  0  0  0  0  0  0  0  0  0  0
  147.7779  128.1731  155.0899 H   0  0  0  0  0  0  0  0  0  0  0  0
  148.8704  128.6780  156.3689 H   0  0  0  0  0  0  0  0  0  0  0  0
  147.7969  130.6255  155.2992 H   0  0  0  0  0  0  0  0  0  0  0  0
  150.2268  130.6678  156.1781 H   0  0  0  0  0  0  0  0  0  0  0  0
  150.7711  130.4854  154.5443 H   0  0  0  0  0  0  0  0  0  0  0  0
  147.2301  133.2493  158.3202 H   0  0  0  0  0  0  0  0  0  0  0  0
  152.3882  136.6610  156.5298 H   0  0  0  0  0  0  0  0  0  0  0  0
  149.5867  137.0718  159.1547 H   0  0  0  0  0  0  0  0  0  0  0  0
  151.3173  137.0120  159.3552 H   0  0  0  0  0  0  0  0  0  0  0  0
  150.6050  140.3353  158.8736 H   0  0  0  0  0  0  0  0  0  0  0  0
  152.6928  138.9700  158.6968 H   0  0  0  0  0  0  0  0  0  0  0  0
  152.5908  138.1497  157.1606 H   0  0  0  0  0  0  0  0  0  0  0  0
  151.9815  141.1158  157.6177 H   0  0  0  0  0  0  0  0  0  0  0  0
  153.3538  140.4369  156.7684 H   0  0  0  0  0  0  0  0  0  0  0  0
  149.7879  140.9415  156.5913 H   0  0  0  0  0  0  0  0  0  0  0  0
  149.6550  140.1391  155.0416 H   0  0  0  0  0  0  0  0  0  0  0  0
  150.1227  137.9503  156.0222 H   0  0  0  0  0  0  0  0  0  0  0  0
  148.7887  138.6785  156.8821 H   0  0  0  0  0  0  0  0  0  0  0  0
  149.8194  133.8833  153.5386 H   0  0  0  0  0  0  0  0  0  0  0  0
  150.1463  132.3252  152.8604 H   0  0  0  0  0  0  0  0  0  0  0  0
  147.4654  132.8724  154.2440 H   0  0  0  0  0  0  0  0  0  0  0  0
  147.7506  133.4561  152.6347 H   0  0  0  0  0  0  0  0  0  0  0  0
  145.7380  131.0397  153.7359 H   0  0  0  0  0  0  0  0  0  0  0  0
  146.3608  130.0744  150.8172 H   0  0  0  0  0  0  0  0  0  0  0  0
  144.7893  129.7857  151.7236 H   0  0  0  0  0  0  0  0  0  0  0  0
  144.4167  132.2267  151.9307 H   0  0  0  0  0  0  0  0  0  0  0  0
  147.0604  132.4963  150.3567 H   0  0  0  0  0  0  0  0  0  0  0  0
  146.1711  133.8527  151.0734 H   0  0  0  0  0  0  0  0  0  0  0  0
  145.4532  132.9162  149.7585 H   0  0  0  0  0  0  0  0  0  0  0  0
  149.3307  130.0907  152.7253 H   0  0  0  0  0  0  0  0  0  0  0  0
  147.8243  129.2846  152.9611 H   0  0  0  0  0  0  0  0  0  0  0  0
  147.9137  131.4310  151.7687 H   0  0  0  0  0  0  0  0  0  0  0  0
  1  2  1  0  0  0  0
  1 30  1  0  0  0  0
  1 31  1  0  0  0  0
  1 32  1  0  0  0  0
  2 29  1  0  0  0  0
  2  3  1  0  0  0  0
  2 33  1  0  0  0  0
  3  4  1  0  0  0  0
  3 34  1  0  0  0  0
  3 35  1  0  0  0  0
  4  5  1  0  0  0  0
  4 22  1  0  0  0  0
  5 10  1  0  0  0  0
  5  6  2  0  0  0  0
  6  7  1  0  0  0  0
  7  8  2  0  0  0  0
  7 36  1  0  0  0  0
  8  9  1  0  0  0  0
  9 13  1  0  0  0  0
  9 10  2  0  0  0  0
 10 11  1  0  0  0  0
 11 12  2  0  0  0  0
 12 13  1  0  0  0  0
 12 37  1  0  0  0  0
 13 14  1  0  0  0  0
 14 15  1  0  0  0  0
 14 38  1  0  0  0  0
 14 39  1  0  0  0  0
 15 21  1  0  0  0  0
 15 16  1  0  0  0  0
 15 17  1  0  0  0  0
 16 40  1  0  0  0  0
 17 18  1  0  0  0  0
 17 41  1  0  0  0  0
 17 42  1  0  0  0  0
 18 19  1  0  0  0  0
 18 43  1  0  0  0  0
 18 44  1  0  0  0  0
 19 20  1  0  0  0  0
 20 21  1  0  0  0  0
 20 45  1  0  0  0  0
 20 46  1  0  0  0  0
 21 47  1  0  0  0  0
 21 48  1  0  0  0  0
 22 23  1  0  0  0  0
 22 49  1  0  0  0  0
 22 50  1  0  0  0  0
 23 24  1  0  0  0  0
 23 51  1  0  0  0  0
 23 52  1  0  0  0  0
 24 25  1  0  0  0  0
 24 29  1  0  0  0  0
 24 62  1  0  0  0  0
 25 27  1  0  0  0  0
 25 26  1  0  0  0  0
 25 53  1  0  0  0  0
 26 27  1  0  0  0  0
 26 54  1  0  0  0  0
 26 55  1  0  0  0  0
 27 28  1  0  0  0  0
 27 56  1  0  0  0  0
 28 57  1  0  0  0  0
 28 58  1  0  0  0  0
 28 59  1  0  0  0  0
 29 60  1  0  0  0  0
 29 61  1  0  0  0  0
M  CHG  1  24   1
M  END
> <s_m_source_file>
AV-unprocessed.smi

> <i_m_source_file_index>
193

> <i_lp_mmshare_version>
43012

> <i_f3d_flags>
0

> <s_epik_input>
W0NIM11bQ0BASF0xW0NIMl1bQ0BIXTFOKFtDSDJdMilbQ0gyXVtDSDJdTihbQ0gyXVtDQEhdMltDSDNdKWMobltjSF1uMyljKGMzNCluW2NIXW40W0NIMl1DNShbT0hdKVtDSDJdW0NIMl1PW0NIMl1bQ0gyXTU=

> <s_epik_cmdline>
J2VwaWtfcHl0aG9uJywgJy1waCcsICc3LjAnLCAnLXRuJywgJzgnLCAnLW1hJywgJzIwMCcsICctbWV0YWxfYmluZGluZycsICctaW1hZScsICc8aW5maWxlLm1hZT4nLCAnLW9tYWUnLCAnPG91dGZpbGUubWFlPic=

> <r_lp_tautomer_probability>
1

> <r_epik_Ionization_Penalty>
0.0540825

> <r_epik_Ionization_Penalty_Charging>
0.0538476

> <r_epik_Ionization_Penalty_Neutral>
0.000234891

> <r_epik_State_Penalty>
0.0200719

> <r_epik_Charging_Adjusted_Penalty>
0.0739194

> <i_epik_Tot_Q>
1

> <i_epik_Tot_abs_Q>
1

> <r_epik_Metal_State_Penalty>
0.0199414

> <b_epik_Metal_Only>
0

> <s_lp_Force_Field>
OPLS_2005

> <r_lp_Energy>
56.796

> <b_lp_Chiralities_Consistent>
1

> <s_lp_Variant>
AV-unprocessed.smi:193-10

> <Gold.Version>
5.8.1

> <Gold.Id.Protein>
6NUR|6NUR_protein|mol2

> <Gold.PLP.Fitness>
43.8535

> <Gold.PLP.PLP>
-38.0706

> <Gold.PLP.part.hbond>
-3.3564

> <Gold.PLP.part.metal>
0.0000

> <Gold.PLP.part.buried>
-6.1694

> <Gold.PLP.part.nonpolar>
-28.7934

> <Gold.PLP.part.repulsive>
0.1771

> <Gold.PLP.ligand.clash>
0.0000

> <Gold.PLP.ligand.torsion>
2.1097

> <Gold.PLP.Chemscore.Hbond>
2.8480

> <Gold.PLP.Chemscore.CHOScore>
0.0000

> <Gold.PLP.Chemscore.Metal>
0.0000

> <Gold.Chemscore.Hbonds>
donor molecule, donor type, donor heavy atom, donor atom, acceptor molecule, acceptor atom, score
      L1  H    24    62       P1 10747  1.00
      P1  H  7989  7998       L1    19  0.13
      P1  H 10752 10763       L1    11  0.42

> <Gold.PLP.Chemscore.Internal.Correction>
1.4584

> <Gold.Rescore>
     Score         DG    S(hbond)    S(metal)    S(lipo)     H(rot)  DE(clash)    DE(int)     intcor
     15.64     -17.96       2.02        0.00      91.36       1.93       0.31       2.01       ----

> <Gold.Chemscore.Fitness>
15.6433

> <Gold.Chemscore.DG>
-17.9611

> <Gold.Chemscore.ZeroCoef>
-5.4800

> <Gold.Chemscore.Hbond>
2.0151

> <Gold.Chemscore.Metal>
0.0000

> <Gold.Chemscore.Lipo>
91.3583

> <Gold.Chemscore.Internal_Hbond>
0.0000

> <Gold.Chemscore.DEClash>
0.3105

> <Gold.Chemscore.DEInternal>
2.0074

> <Gold.Chemscore.Rot>
1.9290

> <Gold.Chemscore.Internal.Correction>
   9.000000E+99

> <Gold.Chemscore.Hbonds>
donor molecule, donor type, donor heavy atom, donor atom, acceptor molecule, acceptor atom, score
      L1  H    24    62       P1 10747  0.94
      P1  H  7989  7998       L1    19  0.05
      P1  H 10752 10763       L1    11  0.03

> <Gold.Chemscore.Hbond.Weighted>
-6.7305

> <Gold.Chemscore.Metal.Weighted>
-0.0000

> <Gold.Chemscore.Lipo.Weighted>
-10.6889

> <Gold.Chemscore.Internal_Hbond.Weighted>
0.0000

> <Gold.Chemscore.DEClash.Weighted>
0.3105

> <Gold.Chemscore.DEInternal.Weighted>
2.0074

> <Gold.Chemscore.Rot.Weighted>
4.9383

> <Gold.Chemscore.Internal.Correction.Weighted>
   9.000000E+99

> <Gold.Protein.RotatedTorsions>
[ 6907 6896 6895 6894 ] final  156.89 input  -60.11 | X-H torsion
[ 7974 7965 7964 7962 ] final  140.98 input  175.53 | X-H torsion
[ 8008 7997 7996 7995 ] final -155.28 input   59.86 | X-H torsion
[ 10167 10162 10161 10158 ] final  -62.59 input  -65.29 | X-H torsion
[ 10718 10713 10712 10709 ] final  -36.34 input   66.30 | X-H torsion
[ 10763 10752 10751 10750 ] final   63.12 input  -60.55 | X-H torsion
[ 11005 11000 10999 10996 ] final -114.77 input  -57.11 | X-H torsion

> <Gold.Protein.ActiveResidues>
 VAL166  LYS551  ARG553  GLY616  TRP617  ASP618  TYR619  PRO620  LYS621  CYS622 
 ASP623  PHE694  ASN695  SER759  ASP760  ASP761  ALA762  ILE779  LEU786  VAL792 
 PHE793  MET794  SER795  GLU796  ALA797  LYS798  CYS799  TRP800  GLU811  SER814 

> <Gold.Protein.RotatedAtoms>
  152.0231  133.3906  159.4266 H   0  0  0  0  0  0  0  0  0  0  0  0  # atno 6907 bound_to 6896
  150.6888  134.3604  159.4957 H   0  0  0  0  0  0  0  0  0  0  0  0  # atno 6908 bound_to 6896
  152.1380  134.9084  160.0606 H   0  0  0  0  0  0  0  0  0  0  0  0  # atno 6909 bound_to 6896
  144.9138  139.5258  143.5696 H   0  0  0  0  0  0  0  0  0  0  0  0  # atno 7974 bound_to 7965
  155.6995  140.0765  157.2416 H   0  0  0  0  0  0  0  0  0  0  0  0  # atno 8008 bound_to 7997
  154.4075  140.1650  156.2228 H   0  0  0  0  0  0  0  0  0  0  0  0  # atno 8009 bound_to 7997
  155.9381  140.3386  155.6307 H   0  0  0  0  0  0  0  0  0  0  0  0  # atno 8010 bound_to 7997
  140.5929  143.2345  151.6101 H   0  0  0  0  0  0  0  0  0  0  0  0  # atno 10167 bound_to 10162
  156.3280  130.4275  149.7899 H   0  0  0  0  0  0  0  0  0  0  0  0  # atno 10718 bound_to 10713
  153.0006  135.5440  154.6301 H   0  0  0  0  0  0  0  0  0  0  0  0  # atno 10763 bound_to 10752
  154.5580  135.2831  155.0948 H   0  0  0  0  0  0  0  0  0  0  0  0  # atno 10764 bound_to 10752
  154.2161  135.6459  153.5183 H   0  0  0  0  0  0  0  0  0  0  0  0  # atno 10765 bound_to 10752
  141.0530  133.9657  157.2803 H   0  0  0  0  0  0  0  0  0  0  0  0  # atno 11005 bound_to 11000
  146.3171  139.7964  142.8974 LP  0  0  0  0  0  0  0  0  0  0  0  0  # atno 17320 bound_to 7965
  145.3410  141.0287  143.3392 LP  0  0  0  0  0  0  0  0  0  0  0  0  # atno 17321 bound_to 7965
  139.5239  144.3120  152.0985 LP  0  0  0  0  0  0  0  0  0  0  0  0  # atno 17342 bound_to 10162
  140.2287  144.4391  150.6309 LP  0  0  0  0  0  0  0  0  0  0  0  0  # atno 17343 bound_to 10162
  156.5182  130.8203  151.3194 LP  0  0  0  0  0  0  0  0  0  0  0  0  # atno 17370 bound_to 10713
  157.7425  130.9891  150.2520 LP  0  0  0  0  0  0  0  0  0  0  0  0  # atno 17371 bound_to 10713
  139.9366  135.0196  156.8576 LP  0  0  0  0  0  0  0  0  0  0  0  0  # atno 17394 bound_to 11000
  140.6018  134.0165  155.7540 LP  0  0  0  0  0  0  0  0  0  0  0  0  # atno 17395 bound_to 11000

$$$$
