AV-unprocessed.smi:107|AV-procd|sdf|1022|dock10
  -GOLD-   2262018 23D 1   1.00000     0.00000
 Structure written by MMmdl.
 30 31  0  0  0  0  0  0  0  0  2 V2000
  153.1182  142.5851  161.0456 C   0  0  0  0  0  0  0  0  0  0  0  0
  152.9280  141.6074  159.8993 C   0  0  0  0  0  0  0  0  0  0  0  0
  151.8136  141.6005  159.1343 C   0  0  0  0  0  0  0  0  0  0  0  0
  151.6453  140.7054  158.0926 N   0  0  0  0  0  0  0  0  0  0  0  0
  150.3780  140.7078  157.2723 C   0  0  1  0  0  0  0  0  0  0  0  0
  150.6179  141.3130  155.8952 C   0  0  0  0  0  0  0  0  0  0  0  0
  149.5932  140.5772  155.0399 C   0  0  1  0  0  0  0  0  0  0  0  0
  150.1826  140.1738  153.8173 O   0  0  0  0  0  0  0  0  0  0  0  0
  149.0906  139.4113  155.9273 C   0  0  1  0  0  0  0  0  0  0  0  0
  149.0638  138.0177  155.2716 C   0  0  0  0  0  0  0  0  0  0  0  0
  148.3964  138.0776  154.0288 O   0  0  0  0  0  0  0  0  0  0  0  0
  149.9794  139.3986  157.0380 O   0  0  0  0  0  0  0  0  0  0  0  0
  152.6482  139.7377  157.8275 C   0  0  0  0  0  0  0  0  0  0  0  0
  152.4481  138.9270  156.9227 O   0  0  0  0  0  0  0  0  0  0  0  0
  153.7803  139.7430  158.5879 N   0  5  0  0  0  0  0  0  0  0  0  0
  153.9812  140.6268  159.6076 C   0  0  0  0  0  0  0  0  0  0  0  0
  155.0095  140.6219  160.2842 O   0  0  0  0  0  0  0  0  0  0  0  0
  152.2588  143.2481  161.1484 H   0  0  0  0  0  0  0  0  0  0  0  0
  154.0020  143.2011  160.8783 H   0  0  0  0  0  0  0  0  0  0  0  0
  153.2446  142.0480  161.9861 H   0  0  0  0  0  0  0  0  0  0  0  0
  151.0307  142.3122  159.3508 H   0  0  0  0  0  0  0  0  0  0  0  0
  149.6060  141.2160  157.8532 H   0  0  0  0  0  0  0  0  0  0  0  0
  150.4851  142.3951  155.9152 H   0  0  0  0  0  0  0  0  0  0  0  0
  151.6369  141.0846  155.5770 H   0  0  0  0  0  0  0  0  0  0  0  0
  148.7575  141.2382  154.8072 H   0  0  0  0  0  0  0  0  0  0  0  0
  149.5719  140.3467  153.1175 H   0  0  0  0  0  0  0  0  0  0  0  0
  148.0948  139.6716  156.2916 H   0  0  0  0  0  0  0  0  0  0  0  0
  150.0767  137.6704  155.0670 H   0  0  0  0  0  0  0  0  0  0  0  0
  148.5895  137.2832  155.9234 H   0  0  0  0  0  0  0  0  0  0  0  0
  148.6603  137.3330  153.5101 H   0  0  0  0  0  0  0  0  0  0  0  0
  1  2  1  0  0  0  0
  1 18  1  0  0  0  0
  1 19  1  0  0  0  0
  1 20  1  0  0  0  0
  2 16  1  0  0  0  0
  2  3  2  0  0  0  0
  3  4  1  0  0  0  0
  3 21  1  0  0  0  0
  4  5  1  0  0  0  0
  4 13  1  0  0  0  0
  5 12  1  0  0  0  0
  5  6  1  0  0  0  0
  5 22  1  0  0  0  0
  6  7  1  0  0  0  0
  6 23  1  0  0  0  0
  6 24  1  0  0  0  0
  7  8  1  0  0  0  0
  7  9  1  0  0  0  0
  7 25  1  0  0  0  0
  8 26  1  0  0  0  0
  9 10  1  0  0  0  0
  9 12  1  0  0  0  0
  9 27  1  0  0  0  0
 10 11  1  0  0  0  0
 10 28  1  0  0  0  0
 10 29  1  0  0  0  0
 11 30  1  0  0  0  0
 13 14  2  0  0  0  0
 13 15  1  0  0  0  0
 15 16  1  0  0  0  0
 16 17  2  0  0  0  0
M  CHG  1  15  -1
M  END
> <s_m_source_file>
AV-unprocessed.smi

> <i_m_source_file_index>
107

> <i_lp_mmshare_version>
43012

> <i_f3d_flags>
0

> <s_epik_input>
Tz1jMVtuSF1jKD1PKW4oW2NIXWMxW0NIM10pW0NAQEhdMltDSDJdW0NAQEhdKFtPSF0pW0NASF0oTzIpW0NIMl1bT0hd

> <s_epik_cmdline>
J2VwaWtfcHl0aG9uJywgJy1waCcsICc3LjAnLCAnLXRuJywgJzgnLCAnLW1hJywgJzIwMCcsICctbWV0YWxfYmluZGluZycsICctaW1hZScsICc8aW5maWxlLm1hZT4nLCAnLW9tYWUnLCAnPG91dGZpbGUubWFlPic=

> <r_lp_tautomer_probability>
0.999537

> <r_epik_Ionization_Penalty>
3.66603

> <r_epik_Ionization_Penalty_Charging>
1.09773e-07

> <r_epik_Ionization_Penalty_Neutral>
3.66603

> <r_epik_State_Penalty>
3.66562

> <r_epik_Charging_Adjusted_Penalty>
3.66562

> <i_epik_Tot_Q>
-1

> <i_epik_Tot_abs_Q>
1

> <r_epik_Metal_State_Penalty>
0.234536

> <b_epik_Metal_Only>
1

> <s_epik_Chemistry_Notes>
This compound contains an acetal/aminal-like group ( X-CH(R)-Y where X, Y are N, S, or O) that may be acid/base labile, releasing an aldehyde.

> <s_lp_Force_Field>
OPLS_2005

> <r_lp_Energy>
40.7451

> <b_lp_Chiralities_Consistent>
1

> <s_lp_Variant>
AV-unprocessed.smi:107-10

> <Gold.Version>
5.8.1

> <Gold.Id.Protein>
6NUR|6NUR_protein|mol2

> <Gold.PLP.Fitness>
39.8274

> <Gold.PLP.PLP>
-27.3215

> <Gold.PLP.part.hbond>
-4.0478

> <Gold.PLP.part.metal>
0.0000

> <Gold.PLP.part.buried>
-2.2678

> <Gold.PLP.part.nonpolar>
-19.7385

> <Gold.PLP.part.repulsive>
0.0000

> <Gold.PLP.ligand.clash>
0.0000

> <Gold.PLP.ligand.torsion>
0.5151

> <Gold.PLP.Chemscore.Hbond>
4.5040

> <Gold.PLP.Chemscore.CHOScore>
0.0000

> <Gold.PLP.Chemscore.Metal>
0.0000

> <Gold.Chemscore.Hbonds>
donor molecule, donor type, donor heavy atom, donor atom, acceptor molecule, acceptor atom, score
      L1  H     8    26       P1  7957  0.67
      L1  H    11    30       P1  7948  1.00
      P1  H  7989  7998       L1     8  0.83
      P1  H  7997  8008       L1    15  1.90

> <Gold.PLP.Chemscore.Internal.Correction>
0.0242

> <Gold.Rescore>
     Score         DG    S(hbond)    S(metal)    S(lipo)     H(rot)  DE(clash)    DE(int)     intcor
     10.97     -13.30       2.68        0.00      49.06       2.69       0.25       2.08       ----

> <Gold.Chemscore.Fitness>
10.9731

> <Gold.Chemscore.DG>
-13.2981

> <Gold.Chemscore.ZeroCoef>
-5.4800

> <Gold.Chemscore.Hbond>
2.6820

> <Gold.Chemscore.Metal>
0.0000

> <Gold.Chemscore.Lipo>
49.0551

> <Gold.Chemscore.Internal_Hbond>
0.0000

> <Gold.Chemscore.DEClash>
0.2467

> <Gold.Chemscore.DEInternal>
2.0784

> <Gold.Chemscore.Rot>
2.6871

> <Gold.Chemscore.Internal.Correction>
   9.000000E+99

> <Gold.Chemscore.Hbonds>
donor molecule, donor type, donor heavy atom, donor atom, acceptor molecule, acceptor atom, score
      L1  H     8    26       P1  7957  0.67
      L1  H    11    30       P1  7948  0.96
      P1  H  7989  7998       L1     8  0.51
      P1  H  7997  8008       L1    15  0.15

> <Gold.Chemscore.Hbond.Weighted>
-8.9577

> <Gold.Chemscore.Metal.Weighted>
-0.0000

> <Gold.Chemscore.Lipo.Weighted>
-5.7395

> <Gold.Chemscore.Internal_Hbond.Weighted>
0.0000

> <Gold.Chemscore.DEClash.Weighted>
0.2467

> <Gold.Chemscore.DEInternal.Weighted>
2.0784

> <Gold.Chemscore.Rot.Weighted>
6.8791

> <Gold.Chemscore.Internal.Correction.Weighted>
   9.000000E+99

> <Gold.Protein.RotatedTorsions>
[ 6907 6896 6895 6894 ] final   83.38 input  -60.11 | X-H torsion
[ 7974 7965 7964 7962 ] final -161.54 input  175.53 | X-H torsion
[ 8008 7997 7996 7995 ] final -114.72 input   59.86 | X-H torsion
[ 10167 10162 10161 10158 ] final  176.98 input  -65.29 | X-H torsion
[ 10718 10713 10712 10709 ] final -157.59 input   66.30 | X-H torsion
[ 10763 10752 10751 10750 ] final  162.04 input  -60.55 | X-H torsion
[ 11005 11000 10999 10996 ] final   10.68 input  -57.11 | X-H torsion

> <Gold.Protein.ActiveResidues>
 VAL166  LYS551  ARG553  GLY616  TRP617  ASP618  TYR619  PRO620  LYS621  CYS622 
 ASP623  PHE694  ASN695  SER759  ASP760  ASP761  ALA762  ILE779  LEU786  VAL792 
 PHE793  MET794  SER795  GLU796  ALA797  LYS798  CYS799  TRP800  GLU811  SER814 

> <Gold.Protein.RotatedAtoms>
  152.5325  134.2904  159.9040 H   0  0  0  0  0  0  0  0  0  0  0  0  # atno 6907 bound_to 6896
  151.2856  133.4182  159.2637 H   0  0  0  0  0  0  0  0  0  0  0  0  # atno 6908 bound_to 6896
  151.0245  134.9509  159.8134 H   0  0  0  0  0  0  0  0  0  0  0  0  # atno 6909 bound_to 6896
  144.7387  140.3383  143.6140 H   0  0  0  0  0  0  0  0  0  0  0  0  # atno 7974 bound_to 7965
  155.0408  140.0392  157.2508 H   0  0  0  0  0  0  0  0  0  0  0  0  # atno 8008 bound_to 7997
  154.7218  140.2713  155.6510 H   0  0  0  0  0  0  0  0  0  0  0  0  # atno 8009 bound_to 7997
  156.2818  140.2701  156.1892 H   0  0  0  0  0  0  0  0  0  0  0  0  # atno 8010 bound_to 7997
  139.5235  144.2852  152.0512 H   0  0  0  0  0  0  0  0  0  0  0  0  # atno 10167 bound_to 10162
  156.5424  130.8569  151.2753 H   0  0  0  0  0  0  0  0  0  0  0  0  # atno 10718 bound_to 10713
  154.2723  135.2765  155.2733 H   0  0  0  0  0  0  0  0  0  0  0  0  # atno 10763 bound_to 10752
  154.5291  135.5735  153.6747 H   0  0  0  0  0  0  0  0  0  0  0  0  # atno 10764 bound_to 10752
  152.9943  135.6223  154.2878 H   0  0  0  0  0  0  0  0  0  0  0  0  # atno 10765 bound_to 10752
  140.5117  134.0646  155.7820 H   0  0  0  0  0  0  0  0  0  0  0  0  # atno 11005 bound_to 11000
  145.7401  139.1761  143.2381 LP  0  0  0  0  0  0  0  0  0  0  0  0  # atno 17320 bound_to 7965
  146.1141  140.7392  142.9489 LP  0  0  0  0  0  0  0  0  0  0  0  0  # atno 17321 bound_to 7965
  140.2306  144.4372  150.6302 LP  0  0  0  0  0  0  0  0  0  0  0  0  # atno 17342 bound_to 10162
  140.6358  143.2194  151.6398 LP  0  0  0  0  0  0  0  0  0  0  0  0  # atno 17343 bound_to 10162
  157.7403  130.9847  150.2368 LP  0  0  0  0  0  0  0  0  0  0  0  0  # atno 17370 bound_to 10713
  156.2960  130.3752  149.7796 LP  0  0  0  0  0  0  0  0  0  0  0  0  # atno 17371 bound_to 10713
  141.1382  133.9185  157.2386 LP  0  0  0  0  0  0  0  0  0  0  0  0  # atno 17394 bound_to 11000
  139.9655  135.0143  156.9376 LP  0  0  0  0  0  0  0  0  0  0  0  0  # atno 17395 bound_to 11000

$$$$
