AV-unprocessed.smi:1393|AV-procd|sdf|5664|dock3
  -GOLD-   22720 5283D 1   1.00000     0.00000
 Structure written by MMmdl.
 39 40  0  0  0  0  0  0  0  0  1 V2000
  149.8318  141.0113  157.9364 O   0  0  0  0  0  0  0  0  0  0  0  0
  150.3313  141.7439  157.0808 C   0  0  0  0  0  0  0  0  0  0  0  0
  151.3932  142.7895  157.4515 C   0  0  0  0  0  0  0  0  0  0  0  0
  152.0504  142.5283  158.7439 N   0  0  0  0  0  0  0  0  0  0  0  0
  151.8875  143.5033  159.7441 C   0  0  0  0  0  0  0  0  0  0  0  0
  152.4309  143.3641  160.9607 C   0  0  0  0  0  0  0  0  0  0  0  0
  153.1991  142.1737  161.2319 C   0  0  0  0  0  0  0  0  0  0  0  0
  153.3708  141.2163  160.2911 C   0  0  0  0  0  0  0  0  0  0  0  0
  154.1780  139.9491  160.5638 C   0  0  0  0  0  0  0  0  0  0  0  0
  155.2548  139.9010  159.7785 F   0  0  0  0  0  0  0  0  0  0  0  0
  154.5945  139.8900  161.8297 F   0  0  0  0  0  0  0  0  0  0  0  0
  153.4403  138.8637  160.3267 F   0  0  0  0  0  0  0  0  0  0  0  0
  152.7673  141.3805  158.9526 C   0  0  0  0  0  0  0  0  0  0  0  0
  152.8940  140.5360  158.0644 O   0  0  0  0  0  0  0  0  0  0  0  0
  149.9922  141.6912  155.7829 N   0  0  0  0  0  0  0  0  0  0  0  0
  149.0169  140.7674  155.1987 C   0  0  1  0  0  0  0  0  0  0  0  0
  148.1605  141.5653  154.1892 C   0  0  0  0  0  0  0  0  0  0  0  0
  146.7896  140.9279  153.9030 C   0  0  0  0  0  0  0  0  0  0  0  0
  146.8420  139.5622  153.2005 C   0  0  0  0  0  0  0  0  0  0  0  0
  147.5480  138.4693  154.0214 C   0  0  0  0  0  0  0  0  0  0  0  0
  148.9986  138.5992  153.9752 N   0  0  0  0  0  0  0  0  0  0  0  0
  149.7321  139.6146  154.4560 C   0  0  0  0  0  0  0  0  0  0  0  0
  150.9533  139.6274  154.3015 O   0  0  0  0  0  0  0  0  0  0  0  0
  152.1314  142.8417  156.6491 H   0  0  0  0  0  0  0  0  0  0  0  0
  150.9190  143.7720  157.4632 H   0  0  0  0  0  0  0  0  0  0  0  0
  151.2912  144.3591  159.4620 H   0  0  0  0  0  0  0  0  0  0  0  0
  152.2930  144.1199  161.7198 H   0  0  0  0  0  0  0  0  0  0  0  0
  153.6371  142.0591  162.2122 H   0  0  0  0  0  0  0  0  0  0  0  0
  150.4568  142.3224  155.1465 H   0  0  0  0  0  0  0  0  0  0  0  0
  148.3840  140.3663  155.9925 H   0  0  0  0  0  0  0  0  0  0  0  0
  147.9704  142.5611  154.5933 H   0  0  0  0  0  0  0  0  0  0  0  0
  148.7037  141.7289  153.2566 H   0  0  0  0  0  0  0  0  0  0  0  0
  146.2332  140.8338  154.8365 H   0  0  0  0  0  0  0  0  0  0  0  0
  146.2112  141.6134  153.2827 H   0  0  0  0  0  0  0  0  0  0  0  0
  145.8175  139.2416  153.0089 H   0  0  0  0  0  0  0  0  0  0  0  0
  147.3117  139.6597  152.2208 H   0  0  0  0  0  0  0  0  0  0  0  0
  147.1964  138.4598  155.0542 H   0  0  0  0  0  0  0  0  0  0  0  0
  147.3005  137.4926  153.6050 H   0  0  0  0  0  0  0  0  0  0  0  0
  149.4973  137.8574  153.5054 H   0  0  0  0  0  0  0  0  0  0  0  0
  1  2  2  0  0  0  0
  2  3  1  0  0  0  0
  2 15  1  0  0  0  0
  3  4  1  0  0  0  0
  3 24  1  0  0  0  0
  3 25  1  0  0  0  0
  4 13  1  0  0  0  0
  4  5  1  0  0  0  0
  5  6  2  0  0  0  0
  5 26  1  0  0  0  0
  6  7  1  0  0  0  0
  6 27  1  0  0  0  0
  7  8  2  0  0  0  0
  7 28  1  0  0  0  0
  8  9  1  0  0  0  0
  8 13  1  0  0  0  0
  9 10  1  0  0  0  0
  9 11  1  0  0  0  0
  9 12  1  0  0  0  0
 13 14  2  0  0  0  0
 15 16  1  0  0  0  0
 15 29  1  0  0  0  0
 16 22  1  0  0  0  0
 16 17  1  0  0  0  0
 16 30  1  0  0  0  0
 17 18  1  0  0  0  0
 17 31  1  0  0  0  0
 17 32  1  0  0  0  0
 18 19  1  0  0  0  0
 18 33  1  0  0  0  0
 18 34  1  0  0  0  0
 19 20  1  0  0  0  0
 19 35  1  0  0  0  0
 19 36  1  0  0  0  0
 20 21  1  0  0  0  0
 20 37  1  0  0  0  0
 20 38  1  0  0  0  0
 21 22  1  0  0  0  0
 21 39  1  0  0  0  0
 22 23  2  0  0  0  0
M  END
> <s_m_source_file>
AV-unprocessed.smi

> <i_m_source_file_index>
1393

> <i_lp_mmshare_version>
43012

> <i_f3d_flags>
0

> <s_epik_input>
RkMoRikoRiljKGMxPU8pW2NIXVtjSF1bY0hdbjFbQ0gyXUMoPU8pW05IXVtDQEBIXTJbQ0gyXVtDSDJdW0NIMl1bQ0gyXVtOSF1DMj1P

> <s_epik_cmdline>
J2VwaWtfcHl0aG9uJywgJy1waCcsICc3LjAnLCAnLXRuJywgJzgnLCAnLW1hJywgJzIwMCcsICctbWV0YWxfYmluZGluZycsICctaW1hZScsICc8aW5maWxlLm1hZT4nLCAnLW9tYWUnLCAnPG91dGZpbGUubWFlPic=

> <r_lp_tautomer_probability>
1

> <r_epik_Ionization_Penalty>
5.5009e-08

> <r_epik_Ionization_Penalty_Charging>
1.68727e-09

> <r_epik_Ionization_Penalty_Neutral>
5.33217e-08

> <r_epik_State_Penalty>
-0

> <r_epik_Charging_Adjusted_Penalty>
1.68727e-09

> <i_epik_Tot_Q>
0

> <i_epik_Tot_abs_Q>
0

> <r_epik_Metal_State_Penalty>
-0

> <b_epik_Metal_Only>
0

> <s_lp_Force_Field>
OPLS_2005

> <r_lp_Energy>
21.4226

> <b_lp_Chiralities_Consistent>
1

> <s_lp_Variant>
AV-unprocessed.smi:1393-2

> <Gold.Version>
5.8.1

> <Gold.Id.Protein>
6NUR|6NUR_protein|mol2

> <Gold.PLP.Fitness>
50.4665

> <Gold.PLP.PLP>
-45.0531

> <Gold.PLP.part.hbond>
-3.3539

> <Gold.PLP.part.metal>
0.0000

> <Gold.PLP.part.buried>
-4.0088

> <Gold.PLP.part.nonpolar>
-38.6091

> <Gold.PLP.part.repulsive>
0.3449

> <Gold.PLP.ligand.clash>
0.2817

> <Gold.PLP.ligand.torsion>
0.5454

> <Gold.PLP.Chemscore.Hbond>
2.1500

> <Gold.PLP.Chemscore.CHOScore>
0.0000

> <Gold.PLP.Chemscore.Metal>
0.0000

> <Gold.Chemscore.Hbonds>
donor molecule, donor type, donor heavy atom, donor atom, acceptor molecule, acceptor atom, score
      L1  H    21    39       P1  7948  0.15
      P1  H  7989  7998       L1    23  1.00
      P1  H  7997  8008       L1    14  0.80

> <Gold.PLP.Chemscore.Internal.Correction>
0.3359

> <Gold.Rescore>
     Score         DG    S(hbond)    S(metal)    S(lipo)     H(rot)  DE(clash)    DE(int)     intcor
     16.81     -20.14       2.60        0.00      88.88       1.72       0.33       3.00       ----

> <Gold.Chemscore.Fitness>
16.8086

> <Gold.Chemscore.DG>
-20.1417

> <Gold.Chemscore.ZeroCoef>
-5.4800

> <Gold.Chemscore.Hbond>
2.5955

> <Gold.Chemscore.Metal>
0.0000

> <Gold.Chemscore.Lipo>
88.8794

> <Gold.Chemscore.Internal_Hbond>
0.0000

> <Gold.Chemscore.DEClash>
0.3298

> <Gold.Chemscore.DEInternal>
3.0032

> <Gold.Chemscore.Rot>
1.7212

> <Gold.Chemscore.Internal.Correction>
   9.000000E+99

> <Gold.Chemscore.Hbonds>
donor molecule, donor type, donor heavy atom, donor atom, acceptor molecule, acceptor atom, score
      L1  H    21    39       P1  7948  0.16
      P1  H  7989  7998       L1    23  0.96
      P1  H  7997  8008       L1    14  0.74

> <Gold.Chemscore.Hbond.Weighted>
-8.6690

> <Gold.Chemscore.Metal.Weighted>
-0.0000

> <Gold.Chemscore.Lipo.Weighted>
-10.3989

> <Gold.Chemscore.Internal_Hbond.Weighted>
0.0000

> <Gold.Chemscore.DEClash.Weighted>
0.3298

> <Gold.Chemscore.DEInternal.Weighted>
3.0032

> <Gold.Chemscore.Rot.Weighted>
4.4062

> <Gold.Chemscore.Internal.Correction.Weighted>
   9.000000E+99

> <Gold.Protein.RotatedTorsions>
[ 6907 6896 6895 6894 ] final   37.19 input  -60.11 | X-H torsion
[ 7974 7965 7964 7962 ] final  148.23 input  175.53 | X-H torsion
[ 8008 7997 7996 7995 ] final  -77.45 input   59.86 | X-H torsion
[ 10167 10162 10161 10158 ] final -120.95 input  -65.29 | X-H torsion
[ 10718 10713 10712 10709 ] final   -9.60 input   66.30 | X-H torsion
[ 10763 10752 10751 10750 ] final -177.87 input  -60.55 | X-H torsion
[ 11005 11000 10999 10996 ] final -160.52 input  -57.11 | X-H torsion

> <Gold.Protein.ActiveResidues>
 VAL166  LYS551  ARG553  GLY616  TRP617  ASP618  TYR619  PRO620  LYS621  CYS622 
 ASP623  PHE694  ASN695  SER759  ASP760  ASP761  ALA762  ILE779  LEU786  VAL792 
 PHE793  MET794  SER795  GLU796  ALA797  LYS798  CYS799  TRP800  GLU811  SER814 

> <Gold.Protein.RotatedAtoms>
  152.1398  134.9071  160.0554 H   0  0  0  0  0  0  0  0  0  0  0  0  # atno 6907 bound_to 6896
  152.0143  133.3868  159.4240 H   0  0  0  0  0  0  0  0  0  0  0  0  # atno 6908 bound_to 6896
  150.6864  134.3618  159.4997 H   0  0  0  0  0  0  0  0  0  0  0  0  # atno 6909 bound_to 6896
  144.8529  139.6128  143.5965 H   0  0  0  0  0  0  0  0  0  0  0  0  # atno 7974 bound_to 7965
  154.5597  140.0710  156.8799 H   0  0  0  0  0  0  0  0  0  0  0  0  # atno 8008 bound_to 7997
  155.2834  140.3373  155.4238 H   0  0  0  0  0  0  0  0  0  0  0  0  # atno 8009 bound_to 7997
  156.2032  140.1730  156.7841 H   0  0  0  0  0  0  0  0  0  0  0  0  # atno 8010 bound_to 7997
  140.0303  143.5255  152.2179 H   0  0  0  0  0  0  0  0  0  0  0  0  # atno 10167 bound_to 10162
  156.6857  130.5050  149.5958 H   0  0  0  0  0  0  0  0  0  0  0  0  # atno 10718 bound_to 10713
  154.5548  135.2815  155.0975 H   0  0  0  0  0  0  0  0  0  0  0  0  # atno 10763 bound_to 10752
  154.2407  135.6357  153.5210 H   0  0  0  0  0  0  0  0  0  0  0  0  # atno 10764 bound_to 10752
  153.0012  135.5559  154.6124 H   0  0  0  0  0  0  0  0  0  0  0  0  # atno 10765 bound_to 10752
  140.6306  134.4655  157.5229 H   0  0  0  0  0  0  0  0  0  0  0  0  # atno 11005 bound_to 11000
  146.2800  139.6852  142.9236 LP  0  0  0  0  0  0  0  0  0  0  0  0  # atno 17320 bound_to 7965
  145.4463  141.0425  143.2829 LP  0  0  0  0  0  0  0  0  0  0  0  0  # atno 17321 bound_to 7965
  139.6080  144.7601  151.3016 LP  0  0  0  0  0  0  0  0  0  0  0  0  # atno 17342 bound_to 10162
  140.7305  143.6879  150.7947 LP  0  0  0  0  0  0  0  0  0  0  0  0  # atno 17343 bound_to 10162
  156.1835  130.6514  151.0979 LP  0  0  0  0  0  0  0  0  0  0  0  0  # atno 17370 bound_to 10713
  157.7027  131.0769  150.6767 LP  0  0  0  0  0  0  0  0  0  0  0  0  # atno 17371 bound_to 10713
  139.9117  134.8330  156.1504 LP  0  0  0  0  0  0  0  0  0  0  0  0  # atno 17394 bound_to 11000
  141.0678  133.6811  156.2079 LP  0  0  0  0  0  0  0  0  0  0  0  0  # atno 17395 bound_to 11000

$$$$
