AV-unprocessed.smi:207|AV-procd|sdf|1603|dock7
  -GOLD-   2262019513D 1   1.00000     0.00000
 Structure written by MMmdl.
 56 59  0  0  0  0  0  0  0  0  2 V2000
  146.3490  133.6983  151.6393 C   0  0  0  0  0  0  0  0  0  0  0  0
  145.4477  133.2148  152.7998 C   0  0  0  0  0  0  0  0  0  0  0  0
  145.9870  131.8661  153.3303 C   0  0  0  0  0  0  0  0  0  0  0  0
  145.5550  134.2102  153.9841 C   0  0  0  0  0  0  0  0  0  0  0  0
  144.8535  135.4645  153.7313 N   0  0  0  0  0  0  0  0  0  0  0  0
  145.2296  136.5207  154.4972 C   0  0  0  0  0  0  0  0  0  0  0  0
  144.2623  137.4118  154.8364 N   0  0  0  0  0  0  0  0  0  0  0  0
  144.5545  138.4775  155.5862 C   0  0  0  0  0  0  0  0  0  0  0  0
  145.7325  138.8399  156.0944 N   0  0  0  0  0  0  0  0  0  0  0  0
  146.7114  137.9515  155.7628 C   0  0  0  0  0  0  0  0  0  0  0  0
  146.5513  136.7747  154.9743 C   0  0  0  0  0  0  0  0  0  0  0  0
  147.7803  136.1377  154.8377 N   0  0  0  0  0  0  0  0  0  0  0  0
  148.6122  136.8896  155.5041 C   0  0  0  0  0  0  0  0  0  0  0  0
  148.0534  137.9967  156.1008 N   0  0  0  0  0  0  0  0  0  0  0  0
  148.7495  139.0051  156.8877 C   0  0  0  0  0  0  0  0  0  0  0  0
  149.6255  139.9651  156.0597 C   0  0  0  0  0  0  0  0  0  0  0  0
  149.4890  141.3880  156.6390 C   0  0  0  0  0  0  0  0  0  0  0  0
  150.2372  142.3435  155.9134 O   0  0  0  0  0  0  0  0  0  0  0  0
  151.0566  139.4717  155.7990 C   0  0  0  0  0  0  0  0  0  0  0  0
  150.9402  139.7194  154.3806 O   0  0  0  0  0  0  0  0  0  0  0  0
  149.5101  139.8532  154.5326 C   0  0  0  0  0  0  0  0  0  0  0  0
  143.4542  135.3111  153.3690 C   0  0  0  0  0  0  0  0  0  0  0  0
  143.3205  134.3822  152.1578 C   0  0  0  0  0  0  0  0  0  0  0  0
  144.0126  133.0786  152.3679 N   0  3  1  0  0  0  0  0  0  0  0  0
  143.7666  132.1415  151.2343 C   0  0  0  0  0  0  0  0  0  0  0  0
  143.8712  132.8477  149.8727 C   0  0  0  0  0  0  0  0  0  0  0  0
  142.9595  132.2711  148.9620 O   0  0  0  0  0  0  0  0  0  0  0  0
  147.3838  133.8014  151.9680 H   0  0  0  0  0  0  0  0  0  0  0  0
  146.0400  134.6707  151.2564 H   0  0  0  0  0  0  0  0  0  0  0  0
  146.3496  132.9998  150.8024 H   0  0  0  0  0  0  0  0  0  0  0  0
  146.9622  131.9943  153.8022 H   0  0  0  0  0  0  0  0  0  0  0  0
  146.1269  131.1209  152.5487 H   0  0  0  0  0  0  0  0  0  0  0  0
  145.3192  131.4389  154.0794 H   0  0  0  0  0  0  0  0  0  0  0  0
  145.1135  133.7674  154.8785 H   0  0  0  0  0  0  0  0  0  0  0  0
  146.6057  134.3827  154.2208 H   0  0  0  0  0  0  0  0  0  0  0  0
  143.7263  139.1335  155.8112 H   0  0  0  0  0  0  0  0  0  0  0  0
  149.6638  136.6539  155.5816 H   0  0  0  0  0  0  0  0  0  0  0  0
  148.0048  139.5659  157.4540 H   0  0  0  0  0  0  0  0  0  0  0  0
  149.3518  138.4855  157.6340 H   0  0  0  0  0  0  0  0  0  0  0  0
  148.4502  141.7176  156.6263 H   0  0  0  0  0  0  0  0  0  0  0  0
  149.8203  141.4201  157.6775 H   0  0  0  0  0  0  0  0  0  0  0  0
  149.8015  143.1798  155.9792 H   0  0  0  0  0  0  0  0  0  0  0  0
  151.8362  140.0703  156.2713 H   0  0  0  0  0  0  0  0  0  0  0  0
  151.2055  138.4115  156.0107 H   0  0  0  0  0  0  0  0  0  0  0  0
  148.9909  138.9593  154.1863 H   0  0  0  0  0  0  0  0  0  0  0  0
  149.1146  140.7456  154.0464 H   0  0  0  0  0  0  0  0  0  0  0  0
  142.9055  134.8974  154.2161 H   0  0  0  0  0  0  0  0  0  0  0  0
  143.0138  136.2806  153.1328 H   0  0  0  0  0  0  0  0  0  0  0  0
  142.2619  134.2198  151.9584 H   0  0  0  0  0  0  0  0  0  0  0  0
  143.7259  134.8747  151.2731 H   0  0  0  0  0  0  0  0  0  0  0  0
  144.4806  131.3179  151.2834 H   0  0  0  0  0  0  0  0  0  0  0  0
  142.7864  131.6739  151.2899 H   0  0  0  0  0  0  0  0  0  0  0  0
  143.6865  133.9188  149.9481 H   0  0  0  0  0  0  0  0  0  0  0  0
  144.8776  132.7279  149.4709 H   0  0  0  0  0  0  0  0  0  0  0  0
  142.2141  132.8464  148.8758 H   0  0  0  0  0  0  0  0  0  0  0  0
  143.5541  132.6538  153.1615 H   0  0  0  0  0  0  0  0  0  0  0  0
  1  2  1  0  0  0  0
  1 28  1  0  0  0  0
  1 29  1  0  0  0  0
  1 30  1  0  0  0  0
  2 24  1  0  0  0  0
  2  3  1  0  0  0  0
  2  4  1  0  0  0  0
  3 31  1  0  0  0  0
  3 32  1  0  0  0  0
  3 33  1  0  0  0  0
  4  5  1  0  0  0  0
  4 34  1  0  0  0  0
  4 35  1  0  0  0  0
  5  6  1  0  0  0  0
  5 22  1  0  0  0  0
  6 11  1  0  0  0  0
  6  7  2  0  0  0  0
  7  8  1  0  0  0  0
  8  9  2  0  0  0  0
  8 36  1  0  0  0  0
  9 10  1  0  0  0  0
 10 14  1  0  0  0  0
 10 11  2  0  0  0  0
 11 12  1  0  0  0  0
 12 13  2  0  0  0  0
 13 14  1  0  0  0  0
 13 37  1  0  0  0  0
 14 15  1  0  0  0  0
 15 16  1  0  0  0  0
 15 38  1  0  0  0  0
 15 39  1  0  0  0  0
 16 21  1  0  0  0  0
 16 17  1  0  0  0  0
 16 19  1  0  0  0  0
 17 18  1  0  0  0  0
 17 40  1  0  0  0  0
 17 41  1  0  0  0  0
 18 42  1  0  0  0  0
 19 20  1  0  0  0  0
 19 43  1  0  0  0  0
 19 44  1  0  0  0  0
 20 21  1  0  0  0  0
 21 45  1  0  0  0  0
 21 46  1  0  0  0  0
 22 23  1  0  0  0  0
 22 47  1  0  0  0  0
 22 48  1  0  0  0  0
 23 24  1  0  0  0  0
 23 49  1  0  0  0  0
 23 50  1  0  0  0  0
 24 25  1  0  0  0  0
 24 56  1  0  0  0  0
 25 26  1  0  0  0  0
 25 51  1  0  0  0  0
 25 52  1  0  0  0  0
 26 27  1  0  0  0  0
 26 53  1  0  0  0  0
 26 54  1  0  0  0  0
 27 55  1  0  0  0  0
M  CHG  1  24   1
M  END
> <s_m_source_file>
AV-unprocessed.smi

> <i_m_source_file_index>
207

> <i_lp_mmshare_version>
43012

> <i_f3d_flags>
0

> <s_epik_input>
W09IXVtDSDJdW0NIMl1OMVtDSDJdW0NIMl1OKFtDSDJdQzEoW0NIM10pW0NIM10pYyhuW2NIXW4yKWMoYzIzKW5bY0hdbjNbQ0gyXUM0KFtDSDJdW09IXSlbQ0gyXU9bQ0gyXTQ=

> <s_epik_cmdline>
J2VwaWtfcHl0aG9uJywgJy1waCcsICc3LjAnLCAnLXRuJywgJzgnLCAnLW1hJywgJzIwMCcsICctbWV0YWxfYmluZGluZycsICctaW1hZScsICc8aW5maWxlLm1hZT4nLCAnLW9tYWUnLCAnPG91dGZpbGUubWFlPic=

> <r_lp_tautomer_probability>
1

> <r_epik_Ionization_Penalty>
0.416568

> <r_epik_Ionization_Penalty_Charging>
0.416506

> <r_epik_Ionization_Penalty_Neutral>
6.2219e-05

> <r_epik_State_Penalty>
0.419386

> <r_epik_Charging_Adjusted_Penalty>
0.835892

> <i_epik_Tot_Q>
1

> <i_epik_Tot_abs_Q>
1

> <r_epik_Metal_State_Penalty>
0.420232

> <b_epik_Metal_Only>
0

> <s_lp_Force_Field>
OPLS_2005

> <r_lp_Energy>
56.8459

> <b_lp_Chiralities_Consistent>
1

> <s_lp_Variant>
AV-unprocessed.smi:207-2

> <Gold.Version>
5.8.1

> <Gold.Id.Protein>
6NUR|6NUR_protein|mol2

> <Gold.PLP.Fitness>
43.6818

> <Gold.PLP.PLP>
-29.7295

> <Gold.PLP.part.hbond>
-5.7567

> <Gold.PLP.part.metal>
0.0000

> <Gold.PLP.part.buried>
-6.8856

> <Gold.PLP.part.nonpolar>
-19.1944

> <Gold.PLP.part.repulsive>
0.3631

> <Gold.PLP.ligand.clash>
0.0000

> <Gold.PLP.ligand.torsion>
1.8833

> <Gold.PLP.Chemscore.Hbond>
5.6088

> <Gold.PLP.Chemscore.CHOScore>
0.0000

> <Gold.PLP.Chemscore.Metal>
0.0000

> <Gold.Chemscore.Hbonds>
donor molecule, donor type, donor heavy atom, donor atom, acceptor molecule, acceptor atom, score
      L1  H    18    42       P1  8028  1.00
      L1  H    24    56       P1 10957  1.98
      L1  H    27    55       P1 10186  0.88
      P1  H  7989  7998       L1    20  1.00
      P1  H 10785 10796       L1    27  0.70

> <Gold.PLP.Chemscore.Internal.Correction>
0.8926

> <Gold.Rescore>
     Score         DG    S(hbond)    S(metal)    S(lipo)     H(rot)  DE(clash)    DE(int)     intcor
     15.41     -17.29       4.34        0.00      60.32       3.80       0.03       1.86       ----

> <Gold.Chemscore.Fitness>
15.4075

> <Gold.Chemscore.DG>
-17.2908

> <Gold.Chemscore.ZeroCoef>
-5.4800

> <Gold.Chemscore.Hbond>
4.3357

> <Gold.Chemscore.Metal>
0.0000

> <Gold.Chemscore.Lipo>
60.3152

> <Gold.Chemscore.Internal_Hbond>
0.0000

> <Gold.Chemscore.DEClash>
0.0280

> <Gold.Chemscore.DEInternal>
1.8553

> <Gold.Chemscore.Rot>
3.7997

> <Gold.Chemscore.Internal.Correction>
   9.000000E+99

> <Gold.Chemscore.Hbonds>
donor molecule, donor type, donor heavy atom, donor atom, acceptor molecule, acceptor atom, score
      L1  H    18    42       P1  8028  1.00
      L1  H    24    56       P1 10957  0.24
      L1  H    27    55       P1 10186  0.83
      P1  H  7989  7998       L1    20  0.89
      P1  H 10785 10796       L1    27  0.59

> <Gold.Chemscore.Hbond.Weighted>
-14.4812

> <Gold.Chemscore.Metal.Weighted>
-0.0000

> <Gold.Chemscore.Lipo.Weighted>
-7.0569

> <Gold.Chemscore.Internal_Hbond.Weighted>
0.0000

> <Gold.Chemscore.DEClash.Weighted>
0.0280

> <Gold.Chemscore.DEInternal.Weighted>
1.8553

> <Gold.Chemscore.Rot.Weighted>
9.7273

> <Gold.Chemscore.Internal.Correction.Weighted>
   9.000000E+99

> <Gold.Protein.RotatedTorsions>
[ 6907 6896 6895 6894 ] final  -84.21 input  -60.11 | X-H torsion
[ 7974 7965 7964 7962 ] final   20.27 input  175.53 | X-H torsion
[ 8008 7997 7996 7995 ] final   51.01 input   59.86 | X-H torsion
[ 10167 10162 10161 10158 ] final  -29.37 input  -65.29 | X-H torsion
[ 10718 10713 10712 10709 ] final  133.16 input   66.30 | X-H torsion
[ 10763 10752 10751 10750 ] final -152.98 input  -60.55 | X-H torsion
[ 11005 11000 10999 10996 ] final -146.74 input  -57.11 | X-H torsion

> <Gold.Protein.ActiveResidues>
 VAL166  LYS551  ARG553  GLY616  TRP617  ASP618  TYR619  PRO620  LYS621  CYS622 
 ASP623  PHE694  ASN695  SER759  ASP760  ASP761  ALA762  ILE779  LEU786  VAL792 
 PHE793  MET794  SER795  GLU796  ALA797  LYS798  CYS799  TRP800  GLU811  SER814 

> <Gold.Protein.RotatedAtoms>
  150.6878  134.3393  159.4860 H   0  0  0  0  0  0  0  0  0  0  0  0  # atno 6907 bound_to 6896
  152.1248  134.9176  160.0570 H   0  0  0  0  0  0  0  0  0  0  0  0  # atno 6908 bound_to 6896
  152.0368  133.3926  159.4357 H   0  0  0  0  0  0  0  0  0  0  0  0  # atno 6909 bound_to 6896
  146.2118  139.8194  142.8683 H   0  0  0  0  0  0  0  0  0  0  0  0  # atno 7974 bound_to 7965
  155.4283  140.3449  155.4277 H   0  0  0  0  0  0  0  0  0  0  0  0  # atno 8008 bound_to 7997
  156.1352  140.1526  156.9036 H   0  0  0  0  0  0  0  0  0  0  0  0  # atno 8009 bound_to 7997
  154.4926  140.0837  156.7607 H   0  0  0  0  0  0  0  0  0  0  0  0  # atno 8010 bound_to 7997
  140.7261  143.3934  151.1390 H   0  0  0  0  0  0  0  0  0  0  0  0  # atno 10167 bound_to 10162
  157.4800  131.1085  150.9694 H   0  0  0  0  0  0  0  0  0  0  0  0  # atno 10718 bound_to 10713
  154.7958  135.3223  154.7670 H   0  0  0  0  0  0  0  0  0  0  0  0  # atno 10763 bound_to 10752
  153.8348  135.6876  153.4814 H   0  0  0  0  0  0  0  0  0  0  0  0  # atno 10764 bound_to 10752
  153.1649  135.4646  154.9765 H   0  0  0  0  0  0  0  0  0  0  0  0  # atno 10765 bound_to 10752
  140.7789  134.3102  157.5052 H   0  0  0  0  0  0  0  0  0  0  0  0  # atno 11005 bound_to 11000
  145.3112  141.0220  143.3553 LP  0  0  0  0  0  0  0  0  0  0  0  0  # atno 17320 bound_to 7965
  144.8934  139.4744  143.6667 LP  0  0  0  0  0  0  0  0  0  0  0  0  # atno 17321 bound_to 7965
  139.7542  143.8732  152.3084 LP  0  0  0  0  0  0  0  0  0  0  0  0  # atno 17342 bound_to 10162
  139.8596  144.7124  150.9115 LP  0  0  0  0  0  0  0  0  0  0  0  0  # atno 17343 bound_to 10162
  157.0430  130.5756  149.5359 LP  0  0  0  0  0  0  0  0  0  0  0  0  # atno 17370 bound_to 10713
  156.0117  130.5208  150.8008 LP  0  0  0  0  0  0  0  0  0  0  0  0  # atno 17371 bound_to 10713
  139.8745  134.9306  156.3507 LP  0  0  0  0  0  0  0  0  0  0  0  0  # atno 17394 bound_to 11000
  140.9502  133.7456  156.0261 LP  0  0  0  0  0  0  0  0  0  0  0  0  # atno 17395 bound_to 11000

$$$$
