AV-unprocessed.smi:3226|AV-procd|sdf|12315|dock2
  -GOLD-   2272018163D 1   1.00000     0.00000
 Structure written by MMmdl.
 41 43  0  0  0  0  0  0  0  0  2 V2000
  152.4114  131.0466  156.0425 C   0  0  0  0  0  0  0  0  0  0  0  0
  150.9065  131.1405  155.7666 C   0  0  0  0  0  0  0  0  0  0  0  0
  150.3630  132.5164  156.0010 C   0  0  0  0  0  0  0  0  0  0  0  0
  150.4390  133.1452  157.1800 N   0  0  0  0  0  0  0  0  0  0  0  0
  149.8618  134.3832  156.9812 N   0  0  0  0  0  0  0  0  0  0  0  0
  149.5032  134.3830  155.6988 C   0  0  0  0  0  0  0  0  0  0  0  0
  149.7803  133.2523  155.0307 N   0  0  0  0  0  0  0  0  0  0  0  0
  149.5156  132.9426  153.6356 C   0  0  0  0  0  0  0  0  0  0  0  0
  148.0135  132.9572  153.3082 C   0  0  0  0  0  0  0  0  0  0  0  0
  147.4878  134.3342  153.2130 N   0  3  0  0  0  0  0  0  0  0  0  0
  146.1120  134.4168  152.6860 C   0  0  0  0  0  0  0  0  0  0  0  0
  146.0592  134.0218  151.1981 C   0  0  2  0  0  0  0  0  0  0  0  0
  144.7415  134.4473  150.4803 C   0  0  0  0  0  0  0  0  0  0  0  0
  144.2544  133.1287  149.8361 C   0  0  2  0  0  0  0  0  0  0  0  0
  143.8324  132.1989  150.9534 C   0  0  0  0  0  0  0  0  0  0  0  0
  144.9397  131.8187  151.5924 C   0  0  0  0  0  0  0  0  0  0  0  0
  146.1107  132.4964  150.9089 C   0  0  1  0  0  0  0  0  0  0  0  0
  145.6012  132.5010  149.4625 C   0  0  0  0  0  0  0  0  0  0  0  0
  152.7767  130.0351  155.8642 H   0  0  0  0  0  0  0  0  0  0  0  0
  152.6387  131.3052  157.0773 H   0  0  0  0  0  0  0  0  0  0  0  0
  152.9737  131.7221  155.3974 H   0  0  0  0  0  0  0  0  0  0  0  0
  150.6928  130.8281  154.7449 H   0  0  0  0  0  0  0  0  0  0  0  0
  150.3738  130.4426  156.4138 H   0  0  0  0  0  0  0  0  0  0  0  0
  149.0208  135.2307  155.2346 H   0  0  0  0  0  0  0  0  0  0  0  0
  150.0497  133.6590  153.0097 H   0  0  0  0  0  0  0  0  0  0  0  0
  149.9389  131.9634  153.4106 H   0  0  0  0  0  0  0  0  0  0  0  0
  147.8477  132.4513  152.3561 H   0  0  0  0  0  0  0  0  0  0  0  0
  147.4527  132.4051  154.0633 H   0  0  0  0  0  0  0  0  0  0  0  0
  147.5043  134.7503  154.1333 H   0  0  0  0  0  0  0  0  0  0  0  0
  145.4535  133.7840  153.2821 H   0  0  0  0  0  0  0  0  0  0  0  0
  145.7541  135.4406  152.8028 H   0  0  0  0  0  0  0  0  0  0  0  0
  146.8971  134.5003  150.6876 H   0  0  0  0  0  0  0  0  0  0  0  0
  143.9983  134.8574  151.1659 H   0  0  0  0  0  0  0  0  0  0  0  0
  144.9435  135.2036  149.7206 H   0  0  0  0  0  0  0  0  0  0  0  0
  143.5358  133.2230  149.0217 H   0  0  0  0  0  0  0  0  0  0  0  0
  142.8108  131.9360  151.1850 H   0  0  0  0  0  0  0  0  0  0  0  0
  145.0166  131.1784  152.4589 H   0  0  0  0  0  0  0  0  0  0  0  0
  147.0741  132.0077  151.0568 H   0  0  0  0  0  0  0  0  0  0  0  0
  145.5016  131.4983  149.0414 H   0  0  0  0  0  0  0  0  0  0  0  0
  146.1990  133.1103  148.7814 H   0  0  0  0  0  0  0  0  0  0  0  0
  148.0930  134.8683  152.6057 H   0  0  0  0  0  0  0  0  0  0  0  0
  1  2  1  0  0  0  0
  1 19  1  0  0  0  0
  1 20  1  0  0  0  0
  1 21  1  0  0  0  0
  2  3  1  0  0  0  0
  2 22  1  0  0  0  0
  2 23  1  0  0  0  0
  3  7  1  0  0  0  0
  3  4  2  0  0  0  0
  4  5  1  0  0  0  0
  5  6  2  0  0  0  0
  6  7  1  0  0  0  0
  6 24  1  0  0  0  0
  7  8  1  0  0  0  0
  8  9  1  0  0  0  0
  8 25  1  0  0  0  0
  8 26  1  0  0  0  0
  9 10  1  0  0  0  0
  9 27  1  0  0  0  0
  9 28  1  0  0  0  0
 10 11  1  0  0  0  0
 10 29  1  0  0  0  0
 10 41  1  0  0  0  0
 11 12  1  0  0  0  0
 11 30  1  0  0  0  0
 11 31  1  0  0  0  0
 12 17  1  0  0  0  0
 12 13  1  0  0  0  0
 12 32  1  0  0  0  0
 13 14  1  0  0  0  0
 13 33  1  0  0  0  0
 13 34  1  0  0  0  0
 14 18  1  0  0  0  0
 14 15  1  0  0  0  0
 14 35  1  0  0  0  0
 15 16  2  0  0  0  0
 15 36  1  0  0  0  0
 16 17  1  0  0  0  0
 16 37  1  0  0  0  0
 17 18  1  0  0  0  0
 17 38  1  0  0  0  0
 18 39  1  0  0  0  0
 18 40  1  0  0  0  0
M  CHG  1  10   1
M  END
> <s_m_source_file>
AV-unprocessed.smi

> <i_m_source_file_index>
3226

> <i_lp_mmshare_version>
43012

> <i_f3d_flags>
0

> <s_epik_input>
W0NIM11bQ0gyXWMxbm5bY0hdbjFbQ0gyXVtDSDJdW05IXVtDSDJdW0NASF0oW0NIMl1bQ0BASF0yMylbQ0BASF0oW0NIMl0zKVtDSF09W0NIXTI=

> <s_epik_cmdline>
J2VwaWtfcHl0aG9uJywgJy1waCcsICc3LjAnLCAnLXRuJywgJzgnLCAnLW1hJywgJzIwMCcsICctbWV0YWxfYmluZGluZycsICctaW1hZScsICc8aW5maWxlLm1hZT4nLCAnLW9tYWUnLCAnPG91dGZpbGUubWFlPic=

> <r_lp_tautomer_probability>
1

> <r_epik_Ionization_Penalty>
0.00175008

> <r_epik_Ionization_Penalty_Charging>
0.00173932

> <r_epik_Ionization_Penalty_Neutral>
1.07546e-05

> <r_epik_State_Penalty>
-0

> <r_epik_Charging_Adjusted_Penalty>
0.00173932

> <i_epik_Tot_Q>
1

> <i_epik_Tot_abs_Q>
1

> <r_epik_Metal_State_Penalty>
-0

> <b_epik_Metal_Only>
0

> <s_lp_Force_Field>
OPLS_2005

> <r_lp_Energy>
64.9624

> <b_lp_Chiralities_Consistent>
1

> <s_lp_Variant>
AV-unprocessed.smi:3226-3

> <Gold.Version>
5.8.1

> <Gold.Id.Protein>
6NUR|6NUR_protein|mol2

> <Gold.PLP.Fitness>
45.6085

> <Gold.PLP.PLP>
-37.0587

> <Gold.PLP.part.hbond>
-2.0000

> <Gold.PLP.part.metal>
0.0000

> <Gold.PLP.part.buried>
-4.5064

> <Gold.PLP.part.nonpolar>
-29.6591

> <Gold.PLP.part.repulsive>
0.0000

> <Gold.PLP.ligand.clash>
0.0000

> <Gold.PLP.ligand.torsion>
0.2407

> <Gold.PLP.Chemscore.Hbond>
2.9913

> <Gold.PLP.Chemscore.CHOScore>
0.0000

> <Gold.PLP.Chemscore.Metal>
0.0000

> <Gold.Chemscore.Hbonds>
donor molecule, donor type, donor heavy atom, donor atom, acceptor molecule, acceptor atom, score
      L1  H    10    41       P1  7948  2.00
      P1  H  6896  6908       L1     4  0.46

> <Gold.PLP.Chemscore.Internal.Correction>
0.0576

> <Gold.Rescore>
     Score         DG    S(hbond)    S(metal)    S(lipo)     H(rot)  DE(clash)    DE(int)     intcor
     16.46     -16.76       1.93        0.00      86.35       2.06       0.02       0.27       ----

> <Gold.Chemscore.Fitness>
16.4616

> <Gold.Chemscore.DG>
-16.7581

> <Gold.Chemscore.ZeroCoef>
-5.4800

> <Gold.Chemscore.Hbond>
1.9326

> <Gold.Chemscore.Metal>
0.0000

> <Gold.Chemscore.Lipo>
86.3478

> <Gold.Chemscore.Internal_Hbond>
0.0000

> <Gold.Chemscore.DEClash>
0.0234

> <Gold.Chemscore.DEInternal>
0.2730

> <Gold.Chemscore.Rot>
2.0623

> <Gold.Chemscore.Internal.Correction>
   9.000000E+99

> <Gold.Chemscore.Hbonds>
donor molecule, donor type, donor heavy atom, donor atom, acceptor molecule, acceptor atom, score
      L1  H    10    41       P1  7948  0.74
      P1  H  6896  6908       L1     4  0.04

> <Gold.Chemscore.Hbond.Weighted>
-6.4550

> <Gold.Chemscore.Metal.Weighted>
-0.0000

> <Gold.Chemscore.Lipo.Weighted>
-10.1027

> <Gold.Chemscore.Internal_Hbond.Weighted>
0.0000

> <Gold.Chemscore.DEClash.Weighted>
0.0234

> <Gold.Chemscore.DEInternal.Weighted>
0.2730

> <Gold.Chemscore.Rot.Weighted>
5.2796

> <Gold.Chemscore.Internal.Correction.Weighted>
   9.000000E+99

> <Gold.Protein.RotatedTorsions>
[ 6907 6896 6895 6894 ] final  104.36 input  -60.11 | X-H torsion
[ 7974 7965 7964 7962 ] final  132.39 input  175.53 | X-H torsion
[ 8008 7997 7996 7995 ] final  143.85 input   59.86 | X-H torsion
[ 10167 10162 10161 10158 ] final   30.11 input  -65.29 | X-H torsion
[ 10718 10713 10712 10709 ] final -176.36 input   66.30 | X-H torsion
[ 10763 10752 10751 10750 ] final  158.50 input  -60.55 | X-H torsion
[ 11005 11000 10999 10996 ] final  -49.49 input  -57.11 | X-H torsion

> <Gold.Protein.ActiveResidues>
 VAL166  LYS551  ARG553  GLY616  TRP617  ASP618  TYR619  PRO620  LYS621  CYS622 
 ASP623  PHE694  ASN695  SER759  ASP760  ASP761  ALA762  ILE779  LEU786  VAL792 
 PHE793  MET794  SER795  GLU796  ALA797  LYS798  CYS799  TRP800  GLU811  SER814 

> <Gold.Protein.RotatedAtoms>
  152.5267  133.9688  159.7751 H   0  0  0  0  0  0  0  0  0  0  0  0  # atno 6907 bound_to 6896
  150.9964  133.6090  159.2708 H   0  0  0  0  0  0  0  0  0  0  0  0  # atno 6908 bound_to 6896
  151.3215  135.0826  159.9360 H   0  0  0  0  0  0  0  0  0  0  0  0  # atno 6909 bound_to 6896
  144.9974  139.4346  143.5309 H   0  0  0  0  0  0  0  0  0  0  0  0  # atno 7974 bound_to 7965
  156.2921  140.2251  156.4958 H   0  0  0  0  0  0  0  0  0  0  0  0  # atno 8008 bound_to 7997
  154.7732  140.0465  157.1089 H   0  0  0  0  0  0  0  0  0  0  0  0  # atno 8009 bound_to 7997
  154.9849  140.3083  155.4934 H   0  0  0  0  0  0  0  0  0  0  0  0  # atno 8010 bound_to 7997
  140.4707  144.0767  150.6236 H   0  0  0  0  0  0  0  0  0  0  0  0  # atno 10167 bound_to 10162
  156.8135  130.9594  151.3115 H   0  0  0  0  0  0  0  0  0  0  0  0  # atno 10718 bound_to 10713
  154.2171  135.2783  155.2938 H   0  0  0  0  0  0  0  0  0  0  0  0  # atno 10763 bound_to 10752
  154.5732  135.5612  153.7118 H   0  0  0  0  0  0  0  0  0  0  0  0  # atno 10764 bound_to 10752
  153.0050  135.6326  154.2311 H   0  0  0  0  0  0  0  0  0  0  0  0  # atno 10765 bound_to 10752
  141.0762  133.6665  156.3593 H   0  0  0  0  0  0  0  0  0  0  0  0  # atno 11005 bound_to 11000
  146.3445  139.9342  142.8749 LP  0  0  0  0  0  0  0  0  0  0  0  0  # atno 17320 bound_to 7965
  145.2201  140.9931  143.4051 LP  0  0  0  0  0  0  0  0  0  0  0  0  # atno 17321 bound_to 7965
  140.3981  143.2718  151.9980 LP  0  0  0  0  0  0  0  0  0  0  0  0  # atno 17342 bound_to 10162
  139.4818  144.6021  151.7587 LP  0  0  0  0  0  0  0  0  0  0  0  0  # atno 17343 bound_to 10162
  157.6494  130.8871  149.9602 LP  0  0  0  0  0  0  0  0  0  0  0  0  # atno 17370 bound_to 10713
  156.1030  130.3654  150.0183 LP  0  0  0  0  0  0  0  0  0  0  0  0  # atno 17371 bound_to 10713
  140.5568  134.5973  157.5423 LP  0  0  0  0  0  0  0  0  0  0  0  0  # atno 17394 bound_to 11000
  139.9574  134.7511  156.0311 LP  0  0  0  0  0  0  0  0  0  0  0  0  # atno 17395 bound_to 11000

$$$$
