AV-unprocessed.smi:420|AV-procd|sdf|2533|dock6
  -GOLD-   2262022493D 1   1.00000     0.00000
 Structure written by MMmdl.
 36 38  0  0  0  0  0  0  0  0  1 V2000
  154.0213  137.0443  160.9175 C   0  0  0  0  0  0  0  0  0  0  0  0
  153.2852  138.0886  160.2150 N   0  0  0  0  0  0  0  0  0  0  0  0
  152.2524  137.9226  159.3561 C   0  0  0  0  0  0  0  0  0  0  0  0
  151.7534  136.8486  159.0202 O   0  0  0  0  0  0  0  0  0  0  0  0
  151.8568  139.1473  158.9341 N   0  0  0  0  0  0  0  0  0  0  0  0
  150.7690  139.4351  158.0003 C   0  0  0  0  0  0  0  0  0  0  0  0
  151.2674  140.1930  156.7537 C   0  0  1  0  0  0  0  0  0  0  0  0
  152.3992  139.5195  156.2385 O   0  0  0  0  0  0  0  0  0  0  0  0
  150.1647  140.3116  155.7123 C   0  0  0  0  0  0  0  0  0  0  0  0
  149.6635  141.5758  155.3293 C   0  0  0  0  0  0  0  0  0  0  0  0
  148.6495  141.6727  154.3565 C   0  0  0  0  0  0  0  0  0  0  0  0
  148.1338  140.5074  153.7574 C   0  0  0  0  0  0  0  0  0  0  0  0
  147.1608  140.6009  152.8205 F   0  0  0  0  0  0  0  0  0  0  0  0
  148.6325  139.2450  154.1319 C   0  0  0  0  0  0  0  0  0  0  0  0
  149.6455  139.1476  155.1059 C   0  0  0  0  0  0  0  0  0  0  0  0
  152.6542  140.1244  159.5480 C   0  0  0  0  0  0  0  0  0  0  0  0
  152.6401  141.5274  159.4553 C   0  0  0  0  0  0  0  0  0  0  0  0
  153.5954  142.2357  160.2216 C   0  0  0  0  0  0  0  0  0  0  0  0
  154.5222  141.5466  161.0464 C   0  0  0  0  0  0  0  0  0  0  0  0
  154.5121  140.1340  161.1243 C   0  0  0  0  0  0  0  0  0  0  0  0
  153.5533  139.4562  160.3523 C   0  0  0  0  0  0  0  0  0  0  0  0
  153.6682  136.0460  160.6564 H   0  0  0  0  0  0  0  0  0  0  0  0
  153.9134  137.1685  161.9953 H   0  0  0  0  0  0  0  0  0  0  0  0
  155.0818  137.1013  160.6714 H   0  0  0  0  0  0  0  0  0  0  0  0
  150.2326  138.5271  157.7222 H   0  0  0  0  0  0  0  0  0  0  0  0
  150.0422  140.0526  158.5315 H   0  0  0  0  0  0  0  0  0  0  0  0
  151.5821  141.2002  157.0305 H   0  0  0  0  0  0  0  0  0  0  0  0
  152.1512  138.6303  156.0368 H   0  0  0  0  0  0  0  0  0  0  0  0
  150.0564  142.4766  155.7779 H   0  0  0  0  0  0  0  0  0  0  0  0
  148.2687  142.6414  154.0686 H   0  0  0  0  0  0  0  0  0  0  0  0
  148.2393  138.3507  153.6713 H   0  0  0  0  0  0  0  0  0  0  0  0
  150.0240  138.1746  155.3835 H   0  0  0  0  0  0  0  0  0  0  0  0
  151.9305  142.0484  158.8300 H   0  0  0  0  0  0  0  0  0  0  0  0
  153.6188  143.3147  160.1788 H   0  0  0  0  0  0  0  0  0  0  0  0
  155.2430  142.1073  161.6232 H   0  0  0  0  0  0  0  0  0  0  0  0
  155.2119  139.6017  161.7512 H   0  0  0  0  0  0  0  0  0  0  0  0
  1  2  1  0  0  0  0
  1 22  1  0  0  0  0
  1 23  1  0  0  0  0
  1 24  1  0  0  0  0
  2 21  1  0  0  0  0
  2  3  1  0  0  0  0
  3  4  2  0  0  0  0
  3  5  1  0  0  0  0
  5  6  1  0  0  0  0
  5 16  1  0  0  0  0
  6  7  1  0  0  0  0
  6 25  1  0  0  0  0
  6 26  1  0  0  0  0
  7  8  1  0  0  0  0
  7  9  1  0  0  0  0
  7 27  1  0  0  0  0
  8 28  1  0  0  0  0
  9 15  1  0  0  0  0
  9 10  2  0  0  0  0
 10 11  1  0  0  0  0
 10 29  1  0  0  0  0
 11 12  2  0  0  0  0
 11 30  1  0  0  0  0
 12 13  1  0  0  0  0
 12 14  1  0  0  0  0
 14 15  2  0  0  0  0
 14 31  1  0  0  0  0
 15 32  1  0  0  0  0
 16 21  2  0  0  0  0
 16 17  1  0  0  0  0
 17 18  2  0  0  0  0
 17 33  1  0  0  0  0
 18 19  1  0  0  0  0
 18 34  1  0  0  0  0
 19 20  2  0  0  0  0
 19 35  1  0  0  0  0
 20 21  1  0  0  0  0
 20 36  1  0  0  0  0
M  END
> <s_m_source_file>
AV-unprocessed.smi

> <i_m_source_file_index>
420

> <i_lp_mmshare_version>
43012

> <i_f3d_flags>
0

> <s_epik_input>
W2NIXTFbY0hdW2NIXVtjSF1jKGMxMiluKFtDSDNdKWMoPU8pbjJbQ0gyXVtDQEhdKFtPSF0pYzNbY0hdW2NIXWMoRilbY0hdW2NIXTM=

> <s_epik_cmdline>
J2VwaWtfcHl0aG9uJywgJy1waCcsICc3LjAnLCAnLXRuJywgJzgnLCAnLW1hJywgJzIwMCcsICctbWV0YWxfYmluZGluZycsICctaW1hZScsICc8aW5maWxlLm1hZT4nLCAnLW9tYWUnLCAnPG91dGZpbGUubWFlPic=

> <r_lp_tautomer_probability>
1

> <r_epik_Ionization_Penalty>
1.79795e-06

> <r_epik_Ionization_Penalty_Charging>
2.57375e-09

> <r_epik_Ionization_Penalty_Neutral>
1.79538e-06

> <r_epik_State_Penalty>
-0

> <r_epik_Charging_Adjusted_Penalty>
2.57375e-09

> <i_epik_Tot_Q>
0

> <i_epik_Tot_abs_Q>
0

> <r_epik_Metal_State_Penalty>
-0

> <b_epik_Metal_Only>
0

> <s_lp_Force_Field>
OPLS_2005

> <r_lp_Energy>
43.03

> <b_lp_Chiralities_Consistent>
1

> <s_lp_Variant>
AV-unprocessed.smi:420-2

> <Gold.Version>
5.8.1

> <Gold.Id.Protein>
6NUR|6NUR_protein|mol2

> <Gold.PLP.Fitness>
44.8489

> <Gold.PLP.PLP>
-39.2714

> <Gold.PLP.part.hbond>
-2.0000

> <Gold.PLP.part.metal>
0.0000

> <Gold.PLP.part.buried>
1.3918

> <Gold.PLP.part.nonpolar>
-36.7048

> <Gold.PLP.part.repulsive>
0.0000

> <Gold.PLP.ligand.clash>
0.0000

> <Gold.PLP.ligand.torsion>
0.0658

> <Gold.PLP.Chemscore.Hbond>
1.8960

> <Gold.PLP.Chemscore.CHOScore>
0.0000

> <Gold.PLP.Chemscore.Metal>
0.0000

> <Gold.Chemscore.Hbonds>
donor molecule, donor type, donor heavy atom, donor atom, acceptor molecule, acceptor atom, score
      P1  H  6896  6908       L1     4  0.98
      P1  H  7997  8008       L1     8  1.00

> <Gold.PLP.Chemscore.Internal.Correction>
0.0212

> <Gold.Rescore>
     Score         DG    S(hbond)    S(metal)    S(lipo)     H(rot)  DE(clash)    DE(int)     intcor
     18.63     -18.88       1.73        0.00     105.45       1.85       0.17       0.08       ----

> <Gold.Chemscore.Fitness>
18.6253

> <Gold.Chemscore.DG>
-18.8798

> <Gold.Chemscore.ZeroCoef>
-5.4800

> <Gold.Chemscore.Hbond>
1.7333

> <Gold.Chemscore.Metal>
0.0000

> <Gold.Chemscore.Lipo>
105.4484

> <Gold.Chemscore.Internal_Hbond>
0.0000

> <Gold.Chemscore.DEClash>
0.1746

> <Gold.Chemscore.DEInternal>
0.0799

> <Gold.Chemscore.Rot>
1.8465

> <Gold.Chemscore.Internal.Correction>
   9.000000E+99

> <Gold.Chemscore.Hbonds>
donor molecule, donor type, donor heavy atom, donor atom, acceptor molecule, acceptor atom, score
      P1  H  6896  6908       L1     4  0.93
      P1  H  7997  8008       L1     8  0.93

> <Gold.Chemscore.Hbond.Weighted>
-5.7894

> <Gold.Chemscore.Metal.Weighted>
-0.0000

> <Gold.Chemscore.Lipo.Weighted>
-12.3375

> <Gold.Chemscore.Internal_Hbond.Weighted>
0.0000

> <Gold.Chemscore.DEClash.Weighted>
0.1746

> <Gold.Chemscore.DEInternal.Weighted>
0.0799

> <Gold.Chemscore.Rot.Weighted>
4.7270

> <Gold.Chemscore.Internal.Correction.Weighted>
   9.000000E+99

> <Gold.Protein.RotatedTorsions>
[ 6907 6896 6895 6894 ] final -124.09 input  -60.11 | X-H torsion
[ 7974 7965 7964 7962 ] final  -62.91 input  175.53 | X-H torsion
[ 8008 7997 7996 7995 ] final  -42.25 input   59.86 | X-H torsion
[ 10167 10162 10161 10158 ] final   -1.50 input  -65.29 | X-H torsion
[ 10718 10713 10712 10709 ] final   71.19 input   66.30 | X-H torsion
[ 10763 10752 10751 10750 ] final   71.25 input  -60.55 | X-H torsion
[ 11005 11000 10999 10996 ] final  128.89 input  -57.11 | X-H torsion

> <Gold.Protein.ActiveResidues>
 VAL166  LYS551  ARG553  GLY616  TRP617  ASP618  TYR619  PRO620  LYS621  CYS622 
 ASP623  PHE694  ASN695  SER759  ASP760  ASP761  ALA762  ILE779  LEU786  VAL792 
 PHE793  MET794  SER795  GLU796  ALA797  LYS798  CYS799  TRP800  GLU811  SER814 

> <Gold.Protein.RotatedAtoms>
  150.8734  133.7473  159.2954 H   0  0  0  0  0  0  0  0  0  0  0  0  # atno 6907 bound_to 6896
  151.5078  135.1062  159.9855 H   0  0  0  0  0  0  0  0  0  0  0  0  # atno 6908 bound_to 6896
  152.4711  133.7986  159.6996 H   0  0  0  0  0  0  0  0  0  0  0  0  # atno 6909 bound_to 6896
  145.7856  140.8738  143.0307 H   0  0  0  0  0  0  0  0  0  0  0  0  # atno 7974 bound_to 7965
  154.4000  140.1478  156.3324 H   0  0  0  0  0  0  0  0  0  0  0  0  # atno 8008 bound_to 7997
  155.8431  140.3461  155.5624 H   0  0  0  0  0  0  0  0  0  0  0  0  # atno 8009 bound_to 7997
  155.8065  140.0878  157.1918 H   0  0  0  0  0  0  0  0  0  0  0  0  # atno 8010 bound_to 7997
  140.6812  143.6768  150.8139 H   0  0  0  0  0  0  0  0  0  0  0  0  # atno 10167 bound_to 10162
  157.6439  130.9515  150.0755 H   0  0  0  0  0  0  0  0  0  0  0  0  # atno 10718 bound_to 10713
  153.0388  135.5143  154.7565 H   0  0  0  0  0  0  0  0  0  0  0  0  # atno 10763 bound_to 10752
  154.6519  135.2926  154.9978 H   0  0  0  0  0  0  0  0  0  0  0  0  # atno 10764 bound_to 10752
  154.0859  135.6657  153.4897 H   0  0  0  0  0  0  0  0  0  0  0  0  # atno 10765 bound_to 10752
  139.9585  134.9608  156.9067 H   0  0  0  0  0  0  0  0  0  0  0  0  # atno 11005 bound_to 11000
  144.6789  140.0050  143.7484 LP  0  0  0  0  0  0  0  0  0  0  0  0  # atno 17320 bound_to 7965
  146.0030  139.3106  143.0916 LP  0  0  0  0  0  0  0  0  0  0  0  0  # atno 17321 bound_to 7965
  140.0469  143.5289  152.2692 LP  0  0  0  0  0  0  0  0  0  0  0  0  # atno 17342 bound_to 10162
  139.6137  144.7614  151.2894 LP  0  0  0  0  0  0  0  0  0  0  0  0  # atno 17343 bound_to 10162
  156.1746  130.3647  149.9118 LP  0  0  0  0  0  0  0  0  0  0  0  0  # atno 17370 bound_to 10713
  156.7085  130.8961  151.3607 LP  0  0  0  0  0  0  0  0  0  0  0  0  # atno 17371 bound_to 10713
  140.5554  134.0586  155.7382 LP  0  0  0  0  0  0  0  0  0  0  0  0  # atno 17394 bound_to 11000
  141.1259  133.9383  157.2635 LP  0  0  0  0  0  0  0  0  0  0  0  0  # atno 17395 bound_to 11000

$$$$
