AV-unprocessed.smi:102|AV-procd|sdf|966|dock4
  -GOLD-   2262017513D 1   1.00000     0.00000
 Structure written by MMmdl.
 43 44  0  0  0  0  0  0  0  0  2 V2000
  148.6755  132.3781  153.2948 C   0  0  0  0  0  0  0  0  0  0  0  0
  147.6008  133.2823  153.8839 C   0  0  0  0  0  0  0  0  0  0  0  0
  146.6723  133.7101  153.1979 O   0  0  0  0  0  0  0  0  0  0  0  0
  147.8019  133.5327  155.1838 O   0  0  0  0  0  0  0  0  0  0  0  0
  146.9619  134.4481  155.8702 C   0  0  0  0  0  0  0  0  0  0  0  0
  147.7400  135.1507  156.9947 C   0  0  1  0  0  0  0  0  0  0  0  0
  149.0417  135.5138  156.5699 O   0  0  0  0  0  0  0  0  0  0  0  0
  149.5332  136.4812  157.4411 C   0  0  1  0  0  0  0  0  0  0  0  0
  150.4732  137.3811  156.6731 N   0  0  0  0  0  0  0  0  0  0  0  0
  150.2057  138.7367  156.6136 C   0  0  0  0  0  0  0  0  0  0  0  0
  151.0344  139.5876  155.9747 C   0  0  0  0  0  0  0  0  0  0  0  0
  150.7436  140.8993  155.9311 F   0  0  0  0  0  0  0  0  0  0  0  0
  152.2460  139.0747  155.3383 C   0  0  0  0  0  0  0  0  0  0  0  0
  152.9919  139.8525  154.7454 O   0  0  0  0  0  0  0  0  0  0  0  0
  152.4997  137.7377  155.4348 N   0  5  0  0  0  0  0  0  0  0  0  0
  151.6702  136.8740  156.0908 C   0  0  0  0  0  0  0  0  0  0  0  0
  151.9142  135.6737  156.2062 O   0  0  0  0  0  0  0  0  0  0  0  0
  148.3383  137.2391  158.0520 C   0  0  2  0  0  0  0  0  0  0  0  0
  148.4510  137.2627  159.4691 O   0  0  0  0  0  0  0  0  0  0  0  0
  148.5035  136.1109  160.1612 C   0  0  0  0  0  0  0  0  0  0  0  0
  147.9852  136.2653  161.5847 C   0  0  0  0  0  0  0  0  0  0  0  0
  148.9227  135.0315  159.7434 O   0  0  0  0  0  0  0  0  0  0  0  0
  147.1263  136.4209  157.6097 C   0  0  1  0  0  0  0  0  0  0  0  0
  146.3626  137.2109  156.7047 O   0  0  0  0  0  0  0  0  0  0  0  0
  145.9239  138.4327  157.0519 C   0  0  0  0  0  0  0  0  0  0  0  0
  145.1086  139.0897  155.9464 C   0  0  0  0  0  0  0  0  0  0  0  0
  146.1188  138.9977  158.1281 O   0  0  0  0  0  0  0  0  0  0  0  0
  149.6340  132.5533  153.7846 H   0  0  0  0  0  0  0  0  0  0  0  0
  148.7932  132.5712  152.2286 H   0  0  0  0  0  0  0  0  0  0  0  0
  148.4035  131.3314  153.4307 H   0  0  0  0  0  0  0  0  0  0  0  0
  146.5630  135.1927  155.1800 H   0  0  0  0  0  0  0  0  0  0  0  0
  146.1140  133.9038  156.2872 H   0  0  0  0  0  0  0  0  0  0  0  0
  147.8731  134.4346  157.8070 H   0  0  0  0  0  0  0  0  0  0  0  0
  150.1397  135.9853  158.2009 H   0  0  0  0  0  0  0  0  0  0  0  0
  149.3161  139.1290  157.0837 H   0  0  0  0  0  0  0  0  0  0  0  0
  148.3021  138.2561  157.6588 H   0  0  0  0  0  0  0  0  0  0  0  0
  147.0273  136.7858  161.5872 H   0  0  0  0  0  0  0  0  0  0  0  0
  148.6935  136.8377  162.1839 H   0  0  0  0  0  0  0  0  0  0  0  0
  147.8485  135.2889  162.0498 H   0  0  0  0  0  0  0  0  0  0  0  0
  146.5191  136.1510  158.4753 H   0  0  0  0  0  0  0  0  0  0  0  0
  144.5576  138.3389  155.3792 H   0  0  0  0  0  0  0  0  0  0  0  0
  145.7657  139.6274  155.2630 H   0  0  0  0  0  0  0  0  0  0  0  0
  144.3933  139.7956  156.3687 H   0  0  0  0  0  0  0  0  0  0  0  0
  1  2  1  0  0  0  0
  1 28  1  0  0  0  0
  1 29  1  0  0  0  0
  1 30  1  0  0  0  0
  2  3  2  0  0  0  0
  2  4  1  0  0  0  0
  4  5  1  0  0  0  0
  5  6  1  0  0  0  0
  5 31  1  0  0  0  0
  5 32  1  0  0  0  0
  6 23  1  0  0  0  0
  6  7  1  0  0  0  0
  6 33  1  0  0  0  0
  7  8  1  0  0  0  0
  8  9  1  0  0  0  0
  8 18  1  0  0  0  0
  8 34  1  0  0  0  0
  9 16  1  0  0  0  0
  9 10  1  0  0  0  0
 10 11  2  0  0  0  0
 10 35  1  0  0  0  0
 11 12  1  0  0  0  0
 11 13  1  0  0  0  0
 13 14  2  0  0  0  0
 13 15  1  0  0  0  0
 15 16  1  0  0  0  0
 16 17  2  0  0  0  0
 18 19  1  0  0  0  0
 18 23  1  0  0  0  0
 18 36  1  0  0  0  0
 19 20  1  0  0  0  0
 20 21  1  0  0  0  0
 20 22  2  0  0  0  0
 21 37  1  0  0  0  0
 21 38  1  0  0  0  0
 21 39  1  0  0  0  0
 23 24  1  0  0  0  0
 23 40  1  0  0  0  0
 24 25  1  0  0  0  0
 25 26  1  0  0  0  0
 25 27  2  0  0  0  0
 26 41  1  0  0  0  0
 26 42  1  0  0  0  0
 26 43  1  0  0  0  0
M  CHG  1  15  -1
M  END
> <s_m_source_file>
AV-unprocessed.smi

> <i_m_source_file_index>
102

> <i_lp_mmshare_version>
43012

> <i_f3d_flags>
0

> <s_epik_input>
W0NIM11DKD1PKU9bQ0gyXVtDQEBIXTFPW0NASF0oW0NAQEhdKE9DKD1PKVtDSDNdKVtDQEhdMU9DKD1PKVtDSDNdKW4yW2NIXWMoRiljKD1PKVtuSF1jMj1P

> <s_epik_cmdline>
J2VwaWtfcHl0aG9uJywgJy1waCcsICc3LjAnLCAnLXRuJywgJzgnLCAnLW1hJywgJzIwMCcsICctbWV0YWxfYmluZGluZycsICctaW1hZScsICc8aW5maWxlLm1hZT4nLCAnLW9tYWUnLCAnPG91dGZpbGUubWFlPic=

> <r_epik_Ionization_Penalty>
1.40304

> <r_epik_Ionization_Penalty_Charging>
1.43915e-08

> <r_epik_Ionization_Penalty_Neutral>
1.40304

> <r_epik_State_Penalty>
1.48536

> <r_epik_Charging_Adjusted_Penalty>
1.48536

> <i_epik_Tot_Q>
-1

> <i_epik_Tot_abs_Q>
1

> <r_epik_Metal_State_Penalty>
0.00663881

> <b_epik_Metal_Only>
0

> <s_epik_Chemistry_Notes>
This compound has an ester and may undergo hydrolysis at high or low pH. This compound contains an acetal/aminal-like group ( X-CH(R)-Y where X, Y are N, S, or O) that may be acid/base labile, releasing an aldehyde.

> <s_lp_Force_Field>
OPLS_2005

> <r_lp_Energy>
16.3749

> <b_lp_Chiralities_Consistent>
1

> <s_lp_Variant>
AV-unprocessed.smi:102-22

> <Gold.Version>
5.8.1

> <Gold.Id.Protein>
6NUR|6NUR_protein|mol2

> <Gold.PLP.Fitness>
35.0424

> <Gold.PLP.PLP>
-26.7151

> <Gold.PLP.part.hbond>
-6.6635

> <Gold.PLP.part.metal>
0.0000

> <Gold.PLP.part.buried>
-2.1889

> <Gold.PLP.part.nonpolar>
-17.9096

> <Gold.PLP.part.repulsive>
0.2583

> <Gold.PLP.ligand.clash>
0.0000

> <Gold.PLP.ligand.torsion>
0.7665

> <Gold.PLP.Chemscore.Hbond>
3.2223

> <Gold.PLP.Chemscore.CHOScore>
0.0000

> <Gold.PLP.Chemscore.Metal>
0.0000

> <Gold.Chemscore.Hbonds>
donor molecule, donor type, donor heavy atom, donor atom, acceptor molecule, acceptor atom, score
      P1  H  6896  6909       L1    22  0.96
      P1  H  7989  7998       L1    14  0.31
      P1  H  7997  8008       L1    14  1.00
      P1  H 10752 10764       L1    17  1.00

> <Gold.PLP.Chemscore.Internal.Correction>
0.1935

> <Gold.Rescore>
     Score         DG    S(hbond)    S(metal)    S(lipo)     H(rot)  DE(clash)    DE(int)     intcor
      1.84      -6.43       2.41        0.00      26.76       4.00       0.05       4.55       ----

> <Gold.Chemscore.Fitness>
1.8363

> <Gold.Chemscore.DG>
-6.4319

> <Gold.Chemscore.ZeroCoef>
-5.4800

> <Gold.Chemscore.Hbond>
2.4098

> <Gold.Chemscore.Metal>
0.0000

> <Gold.Chemscore.Lipo>
26.7579

> <Gold.Chemscore.Internal_Hbond>
0.0000

> <Gold.Chemscore.DEClash>
0.0471

> <Gold.Chemscore.DEInternal>
4.5484

> <Gold.Chemscore.Rot>
3.9951

> <Gold.Chemscore.Internal.Correction>
   9.000000E+99

> <Gold.Chemscore.Hbonds>
donor molecule, donor type, donor heavy atom, donor atom, acceptor molecule, acceptor atom, score
      P1  H  6896  6909       L1    22  0.92
      P1  H  7989  7998       L1    14  0.12
      P1  H  7997  8008       L1    14  0.88
      P1  H 10752 10764       L1    17  0.35

> <Gold.Chemscore.Hbond.Weighted>
-8.0486

> <Gold.Chemscore.Metal.Weighted>
-0.0000

> <Gold.Chemscore.Lipo.Weighted>
-3.1307

> <Gold.Chemscore.Internal_Hbond.Weighted>
0.0000

> <Gold.Chemscore.DEClash.Weighted>
0.0471

> <Gold.Chemscore.DEInternal.Weighted>
4.5484

> <Gold.Chemscore.Rot.Weighted>
10.2274

> <Gold.Chemscore.Internal.Correction.Weighted>
   9.000000E+99

> <Gold.Protein.RotatedTorsions>
[ 6907 6896 6895 6894 ] final   41.87 input  -60.11 | X-H torsion
[ 7974 7965 7964 7962 ] final  -62.87 input  175.53 | X-H torsion
[ 8008 7997 7996 7995 ] final    0.69 input   59.86 | X-H torsion
[ 10167 10162 10161 10158 ] final   15.55 input  -65.29 | X-H torsion
[ 10718 10713 10712 10709 ] final  -71.16 input   66.30 | X-H torsion
[ 10763 10752 10751 10750 ] final  -29.15 input  -60.55 | X-H torsion
[ 11005 11000 10999 10996 ] final  -82.04 input  -57.11 | X-H torsion

> <Gold.Protein.ActiveResidues>
 VAL166  LYS551  ARG553  GLY616  TRP617  ASP618  TYR619  PRO620  LYS621  CYS622 
 ASP623  PHE694  ASN695  SER759  ASP760  ASP761  ALA762  ILE779  LEU786  VAL792 
 PHE793  MET794  SER795  GLU796  ALA797  LYS798  CYS799  TRP800  GLU811  SER814 

> <Gold.Protein.RotatedAtoms>
  152.2007  134.8590  160.0507 H   0  0  0  0  0  0  0  0  0  0  0  0  # atno 6907 bound_to 6896
  151.9444  133.3642  159.3985 H   0  0  0  0  0  0  0  0  0  0  0  0  # atno 6908 bound_to 6896
  150.6954  134.4329  159.5301 H   0  0  0  0  0  0  0  0  0  0  0  0  # atno 6909 bound_to 6896
  145.7860  140.8736  143.0306 H   0  0  0  0  0  0  0  0  0  0  0  0  # atno 7974 bound_to 7965
  154.6711  140.2612  155.7006 H   0  0  0  0  0  0  0  0  0  0  0  0  # atno 8008 bound_to 7997
  156.2659  140.2829  156.1142 H   0  0  0  0  0  0  0  0  0  0  0  0  # atno 8009 bound_to 7997
  155.1168  140.0376  157.2729 H   0  0  0  0  0  0  0  0  0  0  0  0  # atno 8010 bound_to 7997
  140.5859  143.8889  150.6830 H   0  0  0  0  0  0  0  0  0  0  0  0  # atno 10167 bound_to 10162
  156.0375  130.4346  150.2403 H   0  0  0  0  0  0  0  0  0  0  0  0  # atno 10718 bound_to 10713
  153.7599  135.6920  153.4928 H   0  0  0  0  0  0  0  0  0  0  0  0  # atno 10763 bound_to 10752
  153.1945  135.4459  155.0190 H   0  0  0  0  0  0  0  0  0  0  0  0  # atno 10764 bound_to 10752
  154.8157  135.3397  154.7115 H   0  0  0  0  0  0  0  0  0  0  0  0  # atno 10765 bound_to 10752
  141.1664  133.7225  156.8513 H   0  0  0  0  0  0  0  0  0  0  0  0  # atno 11005 bound_to 11000
  144.6789  140.0055  143.7484 LP  0  0  0  0  0  0  0  0  0  0  0  0  # atno 17320 bound_to 7965
  146.0026  139.3103  143.0918 LP  0  0  0  0  0  0  0  0  0  0  0  0  # atno 17321 bound_to 7965
  140.2400  143.3670  152.1494 LP  0  0  0  0  0  0  0  0  0  0  0  0  # atno 17342 bound_to 10162
  139.5198  144.7024  151.5455 LP  0  0  0  0  0  0  0  0  0  0  0  0  # atno 17343 bound_to 10162
  157.0501  131.0060  151.3256 LP  0  0  0  0  0  0  0  0  0  0  0  0  # atno 17370 bound_to 10713
  157.5146  130.7960  149.7742 LP  0  0  0  0  0  0  0  0  0  0  0  0  # atno 17371 bound_to 10713
  140.1914  134.8963  157.3064 LP  0  0  0  0  0  0  0  0  0  0  0  0  # atno 17394 bound_to 11000
  140.2286  134.3936  155.7532 LP  0  0  0  0  0  0  0  0  0  0  0  0  # atno 17395 bound_to 11000

$$$$
