AV-unprocessed.smi:2908|AV-procd|sdf|11169|dock8
  -GOLD-   2272016 63D 1   1.00000     0.00000
 Structure written by MMmdl.
 44 45  0  0  0  0  0  0  0  0  2 V2000
  148.6605  139.1836  156.4967 O   0  0  0  0  0  0  0  0  0  0  0  0
  149.5018  138.6252  157.2028 C   0  0  0  0  0  0  0  0  0  0  0  0
  150.6948  139.1850  157.4706 N   0  0  0  0  0  0  0  0  0  0  0  0
  151.1510  140.4931  157.0057 C   0  0  0  0  0  0  0  0  0  0  0  0
  150.2073  141.6352  157.4314 C   0  0  0  0  0  0  0  0  0  0  0  0
  150.8960  142.7371  158.2170 C   0  0  0  0  0  0  0  0  0  0  0  0
  152.0284  142.4918  159.0244 C   0  0  0  0  0  0  0  0  0  0  0  0
  152.6349  143.5678  159.7049 C   0  0  0  0  0  0  0  0  0  0  0  0
  152.0963  144.8638  159.5666 C   0  0  0  0  0  0  0  0  0  0  0  0
  150.9622  145.0511  158.7505 C   0  0  0  0  0  0  0  0  0  0  0  0
  150.4093  143.9951  158.1150 N   0  3  0  0  0  0  0  0  0  0  0  0
  149.3317  137.3817  157.7174 N   0  0  0  0  0  0  0  0  0  0  0  0
  149.9571  136.8534  158.9390 C   0  0  0  0  0  0  0  0  0  0  0  0
  148.9048  136.8343  160.0611 C   0  0  0  0  0  0  0  0  0  0  0  0
  147.6572  135.9984  159.6734 C   0  0  0  0  0  0  0  0  0  0  0  0
  146.5661  136.0660  160.7767 C   0  0  2  0  0  0  0  0  0  0  0  0
  146.3494  137.4249  161.1106 O   0  0  0  0  0  0  0  0  0  0  0  0
  146.8897  135.3143  162.0892 C   0  0  0  0  0  0  0  0  0  0  0  0
  145.7586  135.0403  162.7411 F   0  0  0  0  0  0  0  0  0  0  0  0
  147.4827  134.1493  161.8310 F   0  0  0  0  0  0  0  0  0  0  0  0
  147.6853  136.0413  162.8744 F   0  0  0  0  0  0  0  0  0  0  0  0
  147.1461  136.4300  158.2764 C   0  0  0  0  0  0  0  0  0  0  0  0
  148.2813  136.4788  157.2374 C   0  0  0  0  0  0  0  0  0  0  0  0
  151.3378  138.6597  158.0456 H   0  0  0  0  0  0  0  0  0  0  0  0
  152.1659  140.6916  157.3541 H   0  0  0  0  0  0  0  0  0  0  0  0
  151.2082  140.4587  155.9176 H   0  0  0  0  0  0  0  0  0  0  0  0
  149.7444  142.0743  156.5469 H   0  0  0  0  0  0  0  0  0  0  0  0
  149.3900  141.2307  158.0296 H   0  0  0  0  0  0  0  0  0  0  0  0
  152.4345  141.4948  159.1140 H   0  0  0  0  0  0  0  0  0  0  0  0
  153.5049  143.4018  160.3233 H   0  0  0  0  0  0  0  0  0  0  0  0
  152.5477  145.7019  160.0771 H   0  0  0  0  0  0  0  0  0  0  0  0
  150.4868  146.0067  158.5849 H   0  0  0  0  0  0  0  0  0  0  0  0
  150.3178  135.8414  158.7506 H   0  0  0  0  0  0  0  0  0  0  0  0
  150.8324  137.4141  159.2662 H   0  0  0  0  0  0  0  0  0  0  0  0
  149.3612  136.4375  160.9680 H   0  0  0  0  0  0  0  0  0  0  0  0
  148.6060  137.8580  160.2908 H   0  0  0  0  0  0  0  0  0  0  0  0
  147.9793  134.9595  159.5860 H   0  0  0  0  0  0  0  0  0  0  0  0
  145.6276  135.6785  160.3783 H   0  0  0  0  0  0  0  0  0  0  0  0
  146.0591  137.4686  162.0091 H   0  0  0  0  0  0  0  0  0  0  0  0
  146.3874  135.7347  157.9192 H   0  0  0  0  0  0  0  0  0  0  0  0
  146.6700  137.4095  158.3416 H   0  0  0  0  0  0  0  0  0  0  0  0
  147.8858  136.7749  156.2648 H   0  0  0  0  0  0  0  0  0  0  0  0
  148.6989  135.4814  157.0919 H   0  0  0  0  0  0  0  0  0  0  0  0
  149.5941  144.1558  157.5228 H   0  0  0  0  0  0  0  0  0  0  0  0
  1  2  2  0  0  0  0
  2  3  1  0  0  0  0
  2 12  1  0  0  0  0
  3  4  1  0  0  0  0
  3 24  1  0  0  0  0
  4  5  1  0  0  0  0
  4 25  1  0  0  0  0
  4 26  1  0  0  0  0
  5  6  1  0  0  0  0
  5 27  1  0  0  0  0
  5 28  1  0  0  0  0
  6 11  1  0  0  0  0
  6  7  2  0  0  0  0
  7  8  1  0  0  0  0
  7 29  1  0  0  0  0
  8  9  2  0  0  0  0
  8 30  1  0  0  0  0
  9 10  1  0  0  0  0
  9 31  1  0  0  0  0
 10 11  2  0  0  0  0
 10 32  1  0  0  0  0
 11 44  1  0  0  0  0
 12 23  1  0  0  0  0
 12 13  1  0  0  0  0
 13 14  1  0  0  0  0
 13 33  1  0  0  0  0
 13 34  1  0  0  0  0
 14 15  1  0  0  0  0
 14 35  1  0  0  0  0
 14 36  1  0  0  0  0
 15 16  1  0  0  0  0
 15 22  1  0  0  0  0
 15 37  1  0  0  0  0
 16 17  1  0  0  0  0
 16 18  1  0  0  0  0
 16 38  1  0  0  0  0
 17 39  1  0  0  0  0
 18 19  1  0  0  0  0
 18 20  1  0  0  0  0
 18 21  1  0  0  0  0
 22 23  1  0  0  0  0
 22 40  1  0  0  0  0
 22 41  1  0  0  0  0
 23 42  1  0  0  0  0
 23 43  1  0  0  0  0
M  CHG  1  11   1
M  END
> <s_m_source_file>
AV-unprocessed.smi

> <i_m_source_file_index>
2908

> <i_lp_mmshare_version>
43012

> <i_f3d_flags>
0

> <s_epik_input>
RkMoRikoRilbQ0BASF0oW09IXSlbQ0hdKFtDSDJdW0NIMl0xKVtDSDJdW0NIMl1OMUMoPU8pW05IXVtDSDJdW0NIMl1jMltjSF1bY0hdW2NIXVtjSF1uMg==

> <s_epik_cmdline>
J2VwaWtfcHl0aG9uJywgJy1waCcsICc3LjAnLCAnLXRuJywgJzgnLCAnLW1hJywgJzIwMCcsICctbWV0YWxfYmluZGluZycsICctaW1hZScsICc8aW5maWxlLm1hZT4nLCAnLW9tYWUnLCAnPG91dGZpbGUubWFlPic=

> <r_epik_Ionization_Penalty>
1.55054

> <r_epik_Ionization_Penalty_Charging>
1.55036

> <r_epik_Ionization_Penalty_Neutral>
0.00017404

> <r_epik_State_Penalty>
1.64453

> <r_epik_Charging_Adjusted_Penalty>
3.19489

> <i_epik_Tot_Q>
1

> <i_epik_Tot_abs_Q>
1

> <r_epik_Metal_State_Penalty>
1.68672

> <b_epik_Metal_Only>
0

> <s_lp_Force_Field>
OPLS_2005

> <r_lp_Energy>
42.7125

> <b_lp_Chiralities_Consistent>
1

> <s_lp_Variant>
AV-unprocessed.smi:2908-3

> <Gold.Version>
5.8.1

> <Gold.Id.Protein>
6NUR|6NUR_protein|mol2

> <Gold.PLP.Fitness>
49.0733

> <Gold.PLP.PLP>
-42.9464

> <Gold.PLP.part.hbond>
-2.0828

> <Gold.PLP.part.metal>
0.0000

> <Gold.PLP.part.buried>
-4.7227

> <Gold.PLP.part.nonpolar>
-36.8033

> <Gold.PLP.part.repulsive>
0.0591

> <Gold.PLP.ligand.clash>
0.0000

> <Gold.PLP.ligand.torsion>
1.7020

> <Gold.PLP.Chemscore.Hbond>
3.0000

> <Gold.PLP.Chemscore.CHOScore>
0.0000

> <Gold.PLP.Chemscore.Metal>
0.0000

> <Gold.Chemscore.Hbonds>
donor molecule, donor type, donor heavy atom, donor atom, acceptor molecule, acceptor atom, score
      L1  H    11    44       P1  8028  1.75
      P1  H  6934  6947       L1    17  1.00

> <Gold.PLP.Chemscore.Internal.Correction>
0.5309

> <Gold.Rescore>
     Score         DG    S(hbond)    S(metal)    S(lipo)     H(rot)  DE(clash)    DE(int)     intcor
     13.87     -16.34       1.60        0.00      99.62       2.40       0.07       2.40       ----

> <Gold.Chemscore.Fitness>
13.8719

> <Gold.Chemscore.DG>
-16.3379

> <Gold.Chemscore.ZeroCoef>
-5.4800

> <Gold.Chemscore.Hbond>
1.6028

> <Gold.Chemscore.Metal>
0.0000

> <Gold.Chemscore.Lipo>
99.6176

> <Gold.Chemscore.Internal_Hbond>
0.0000

> <Gold.Chemscore.DEClash>
0.0658

> <Gold.Chemscore.DEInternal>
2.4003

> <Gold.Chemscore.Rot>
2.4026

> <Gold.Chemscore.Internal.Correction>
   9.000000E+99

> <Gold.Chemscore.Hbonds>
donor molecule, donor type, donor heavy atom, donor atom, acceptor molecule, acceptor atom, score
      L1  H    11    44       P1  8028  0.18
      P1  H  6934  6947       L1    17  0.30

> <Gold.Chemscore.Hbond.Weighted>
-5.3534

> <Gold.Chemscore.Metal.Weighted>
-0.0000

> <Gold.Chemscore.Lipo.Weighted>
-11.6553

> <Gold.Chemscore.Internal_Hbond.Weighted>
0.0000

> <Gold.Chemscore.DEClash.Weighted>
0.0658

> <Gold.Chemscore.DEInternal.Weighted>
2.4003

> <Gold.Chemscore.Rot.Weighted>
6.1508

> <Gold.Chemscore.Internal.Correction.Weighted>
   9.000000E+99

> <Gold.Protein.RotatedTorsions>
[ 6907 6896 6895 6894 ] final  -37.80 input  -60.11 | X-H torsion
[ 7974 7965 7964 7962 ] final  -71.67 input  175.53 | X-H torsion
[ 8008 7997 7996 7995 ] final -118.92 input   59.86 | X-H torsion
[ 10167 10162 10161 10158 ] final   42.21 input  -65.29 | X-H torsion
[ 10718 10713 10712 10709 ] final -174.38 input   66.30 | X-H torsion
[ 10763 10752 10751 10750 ] final  -49.27 input  -60.55 | X-H torsion
[ 11005 11000 10999 10996 ] final   -9.62 input  -57.11 | X-H torsion

> <Gold.Protein.ActiveResidues>
 VAL166  LYS551  ARG553  GLY616  TRP617  ASP618  TYR619  PRO620  LYS621  CYS622 
 ASP623  PHE694  ASN695  SER759  ASP760  ASP761  ALA762  ILE779  LEU786  VAL792 
 PHE793  MET794  SER795  GLU796  ALA797  LYS798  CYS799  TRP800  GLU811  SER814 

> <Gold.Protein.RotatedAtoms>
  151.0103  134.9391  159.8003 H   0  0  0  0  0  0  0  0  0  0  0  0  # atno 6907 bound_to 6896
  152.5301  134.3037  159.9098 H   0  0  0  0  0  0  0  0  0  0  0  0  # atno 6908 bound_to 6896
  151.3043  133.4067  159.2676 H   0  0  0  0  0  0  0  0  0  0  0  0  # atno 6909 bound_to 6896
  145.6751  140.9208  143.0862 H   0  0  0  0  0  0  0  0  0  0  0  0  # atno 7974 bound_to 7965
  155.1074  140.0397  157.2714 H   0  0  0  0  0  0  0  0  0  0  0  0  # atno 8008 bound_to 7997
  154.6711  140.2612  155.6980 H   0  0  0  0  0  0  0  0  0  0  0  0  # atno 8009 bound_to 7997
  156.2658  140.2797  156.1220 H   0  0  0  0  0  0  0  0  0  0  0  0  # atno 8010 bound_to 7997
  140.3566  144.2281  150.6141 H   0  0  0  0  0  0  0  0  0  0  0  0  # atno 10167 bound_to 10162
  156.7842  130.9494  151.3120 H   0  0  0  0  0  0  0  0  0  0  0  0  # atno 10718 bound_to 10713
  154.0913  135.6577  153.4853 H   0  0  0  0  0  0  0  0  0  0  0  0  # atno 10763 bound_to 10752
  153.0321  135.5203  154.7378 H   0  0  0  0  0  0  0  0  0  0  0  0  # atno 10764 bound_to 10752
  154.6502  135.3000  154.9965 H   0  0  0  0  0  0  0  0  0  0  0  0  # atno 10765 bound_to 10752
  140.7360  133.8709  155.8930 H   0  0  0  0  0  0  0  0  0  0  0  0  # atno 11005 bound_to 11000
  144.7044  139.8622  143.7434 LP  0  0  0  0  0  0  0  0  0  0  0  0  # atno 17320 bound_to 7965
  146.1013  139.4008  143.0345 LP  0  0  0  0  0  0  0  0  0  0  0  0  # atno 17321 bound_to 7965
  140.5167  143.2276  151.8452 LP  0  0  0  0  0  0  0  0  0  0  0  0  # atno 17342 bound_to 10162
  139.4819  144.4885  151.9215 LP  0  0  0  0  0  0  0  0  0  0  0  0  # atno 17343 bound_to 10162
  157.6631  130.8984  149.9874 LP  0  0  0  0  0  0  0  0  0  0  0  0  # atno 17370 bound_to 10713
  156.1199  130.3646  149.9905 LP  0  0  0  0  0  0  0  0  0  0  0  0  # atno 17371 bound_to 10713
  140.9879  134.1318  157.4435 LP  0  0  0  0  0  0  0  0  0  0  0  0  # atno 17394 bound_to 11000
  139.8816  135.0031  156.6167 LP  0  0  0  0  0  0  0  0  0  0  0  0  # atno 17395 bound_to 11000

$$$$
