AV-unprocessed.smi:38|AV-procd|sdf|338|dock2
  -GOLD-   2262016173D 1   1.00000     0.00000
 Structure written by MMmdl.
 28 29  0  0  0  0  0  0  0  0  1 V2000
  146.8155  139.6117  152.5327 O   0  0  0  0  0  0  0  0  0  0  0  0
  147.7656  139.8409  153.2786 C   0  0  0  0  0  0  0  0  0  0  0  0
  148.8100  138.9183  153.3905 N   0  0  0  0  0  0  0  0  0  0  0  0
  149.9394  139.0649  154.1985 C   0  0  0  0  0  0  0  0  0  0  0  0
  150.7891  138.1758  154.2297 O   0  0  0  0  0  0  0  0  0  0  0  0
  150.0380  140.2518  154.9585 N   0  0  0  0  0  0  0  0  0  0  0  0
  151.2398  140.4723  155.8481 C   0  0  2  0  0  0  0  0  0  0  0  0
  151.3312  139.3838  156.9226 C   0  0  0  0  0  0  0  0  0  0  0  0
  151.7708  140.1719  158.1405 C   0  0  1  0  0  0  0  0  0  0  0  0
  153.1817  140.2717  158.1867 O   0  0  0  0  0  0  0  0  0  0  0  0
  151.0958  141.5310  157.9052 C   0  0  1  0  0  0  0  0  0  0  0  0
  151.7121  142.7479  158.6168 C   0  0  0  0  0  0  0  0  0  0  0  0
  151.5794  142.6164  160.0161 O   0  0  0  0  0  0  0  0  0  0  0  0
  151.1076  141.7071  156.4904 O   0  0  0  0  0  0  0  0  0  0  0  0
  149.0166  141.1897  154.8894 C   0  0  0  0  0  0  0  0  0  0  0  0
  147.9242  141.0338  154.1050 C   0  0  0  0  0  0  0  0  0  0  0  0
  146.9750  141.9851  154.0926 F   0  0  0  0  0  0  0  0  0  0  0  0
  148.7392  138.0725  152.8437 H   0  0  0  0  0  0  0  0  0  0  0  0
  152.1266  140.5289  155.2151 H   0  0  0  0  0  0  0  0  0  0  0  0
  151.4305  139.7077  159.0669 H   0  0  0  0  0  0  0  0  0  0  0  0
  150.0494  141.4452  158.2012 H   0  0  0  0  0  0  0  0  0  0  0  0
  150.3434  138.9542  157.0962 H   0  0  0  0  0  0  0  0  0  0  0  0
  152.0136  138.5861  156.6265 H   0  0  0  0  0  0  0  0  0  0  0  0
  153.4760  139.9588  159.0288 H   0  0  0  0  0  0  0  0  0  0  0  0
  152.7625  142.8775  158.3554 H   0  0  0  0  0  0  0  0  0  0  0  0
  151.1952  143.6572  158.3092 H   0  0  0  0  0  0  0  0  0  0  0  0
  152.2433  143.1456  160.4315 H   0  0  0  0  0  0  0  0  0  0  0  0
  149.0808  142.0868  155.4862 H   0  0  0  0  0  0  0  0  0  0  0  0
  1  2  2  0  0  0  0
  2 16  1  0  0  0  0
  2  3  1  0  0  0  0
  3 18  1  0  0  0  0
  3  4  1  0  0  0  0
  4  5  2  0  0  0  0
  4  6  1  0  0  0  0
  6  7  1  0  0  0  0
  6 15  1  0  0  0  0
  7 19  1  0  0  0  0
  7 14  1  0  0  0  0
  7  8  1  0  0  0  0
  8  9  1  0  0  0  0
  8 22  1  0  0  0  0
  8 23  1  0  0  0  0
  9 20  1  0  0  0  0
  9 10  1  0  0  0  0
  9 11  1  0  0  0  0
 10 24  1  0  0  0  0
 11 21  1  0  0  0  0
 11 12  1  0  0  0  0
 11 14  1  0  0  0  0
 12 13  1  0  0  0  0
 12 25  1  0  0  0  0
 12 26  1  0  0  0  0
 13 27  1  0  0  0  0
 15 16  2  0  0  0  0
 15 28  1  0  0  0  0
 16 17  1  0  0  0  0
M  END
> <s_m_source_file>
AV-unprocessed.smi

> <i_m_source_file_index>
38

> <i_lp_mmshare_version>
43012

> <i_f3d_flags>
0

> <s_epik_input>
Tz1jMVtuSF1jKD1PKW4oW2NIXWMxRilbQ0BIXTJbQ0gyXVtDQEhdKFtPSF0pW0NASF0oTzIpW0NIMl1bT0hd

> <s_epik_cmdline>
J2VwaWtfcHl0aG9uJywgJy1waCcsICc3LjAnLCAnLXRuJywgJzgnLCAnLW1hJywgJzIwMCcsICctbWV0YWxfYmluZGluZycsICctaW1hZScsICc8aW5maWxlLm1hZT4nLCAnLW9tYWUnLCAnPG91dGZpbGUubWFlPic=

> <r_lp_tautomer_probability>
0.999537

> <r_epik_Ionization_Penalty>
0.0357432

> <r_epik_Ionization_Penalty_Charging>
0.0357431

> <r_epik_Ionization_Penalty_Neutral>
1.19946e-07

> <r_epik_State_Penalty>
0.0298169

> <r_epik_Charging_Adjusted_Penalty>
0.06556

> <i_epik_Tot_Q>
0

> <i_epik_Tot_abs_Q>
0

> <r_epik_Metal_State_Penalty>
2.348

> <b_epik_Metal_Only>
0

> <s_epik_Chemistry_Notes>
This compound contains an acetal/aminal-like group ( X-CH(R)-Y where X, Y are N, S, or O) that may be acid/base labile, releasing an aldehyde.

> <s_lp_Force_Field>
OPLS_2005

> <r_lp_Energy>
29.3981

> <b_lp_Chiralities_Consistent>
1

> <s_lp_Variant>
AV-unprocessed.smi:38-4

> <Gold.Version>
5.8.1

> <Gold.Id.Protein>
6NUR|6NUR_protein|mol2

> <Gold.PLP.Fitness>
37.9357

> <Gold.PLP.PLP>
-30.0585

> <Gold.PLP.part.hbond>
-3.4671

> <Gold.PLP.part.metal>
0.0000

> <Gold.PLP.part.buried>
-1.9307

> <Gold.PLP.part.nonpolar>
-24.9231

> <Gold.PLP.part.repulsive>
1.0936

> <Gold.PLP.ligand.clash>
0.0000

> <Gold.PLP.ligand.torsion>
0.0182

> <Gold.PLP.Chemscore.Hbond>
1.8860

> <Gold.PLP.Chemscore.CHOScore>
0.7511

> <Gold.PLP.Chemscore.Metal>
0.0000

> <Gold.Chemscore.Hbonds>
donor molecule, donor type, donor heavy atom, donor atom, acceptor molecule, acceptor atom, score
      L1  H     3    18       P1  7948  0.89
      P1  H  7997  8009       L1    10  0.91
      L1  C    15    28       P1  8028  0.72

> <Gold.PLP.Chemscore.Internal.Correction>
0.0023

> <Gold.Rescore>
     Score         DG    S(hbond)    S(metal)    S(lipo)     H(rot)  DE(clash)    DE(int)     intcor
      7.20      -8.02       1.67        0.00      37.77       2.91       0.01       0.81       ----

> <Gold.Chemscore.Fitness>
7.1964

> <Gold.Chemscore.DG>
-8.0177

> <Gold.Chemscore.ZeroCoef>
-5.4800

> <Gold.Chemscore.Hbond>
1.6701

> <Gold.Chemscore.Metal>
0.0000

> <Gold.Chemscore.Lipo>
37.7733

> <Gold.Chemscore.Internal_Hbond>
0.0000

> <Gold.Chemscore.DEClash>
0.0095

> <Gold.Chemscore.DEInternal>
0.8118

> <Gold.Chemscore.Rot>
2.9141

> <Gold.Chemscore.Internal.Correction>
   9.000000E+99

> <Gold.Chemscore.Hbonds>
donor molecule, donor type, donor heavy atom, donor atom, acceptor molecule, acceptor atom, score
      L1  H     3    18       P1  7948  0.87
      P1  H  7997  8009       L1    10  0.54

> <Gold.Chemscore.Hbond.Weighted>
-5.5783

> <Gold.Chemscore.Metal.Weighted>
-0.0000

> <Gold.Chemscore.Lipo.Weighted>
-4.4195

> <Gold.Chemscore.Internal_Hbond.Weighted>
0.0000

> <Gold.Chemscore.DEClash.Weighted>
0.0095

> <Gold.Chemscore.DEInternal.Weighted>
0.8118

> <Gold.Chemscore.Rot.Weighted>
7.4601

> <Gold.Chemscore.Internal.Correction.Weighted>
   9.000000E+99

> <Gold.Protein.RotatedTorsions>
[ 6907 6896 6895 6894 ] final  -53.00 input  -60.11 | X-H torsion
[ 7974 7965 7964 7962 ] final  115.13 input  175.53 | X-H torsion
[ 8008 7997 7996 7995 ] final  154.45 input   59.86 | X-H torsion
[ 10167 10162 10161 10158 ] final   23.00 input  -65.29 | X-H torsion
[ 10718 10713 10712 10709 ] final  -75.63 input   66.30 | X-H torsion
[ 10763 10752 10751 10750 ] final  -37.80 input  -60.55 | X-H torsion
[ 11005 11000 10999 10996 ] final   10.74 input  -57.11 | X-H torsion

> <Gold.Protein.ActiveResidues>
 VAL166  LYS551  ARG553  GLY616  TRP617  ASP618  TYR619  PRO620  LYS621  CYS622 
 ASP623  PHE694  ASN695  SER759  ASP760  ASP761  ALA762  ILE779  LEU786  VAL792 
 PHE793  MET794  SER795  GLU796  ALA797  LYS798  CYS799  TRP800  GLU811  SER814 

> <Gold.Protein.RotatedAtoms>
  150.8467  134.7778  159.6975 H   0  0  0  0  0  0  0  0  0  0  0  0  # atno 6907 bound_to 6896
  152.4542  134.5325  159.9825 H   0  0  0  0  0  0  0  0  0  0  0  0  # atno 6908 bound_to 6896
  151.5454  133.3388  159.2979 H   0  0  0  0  0  0  0  0  0  0  0  0  # atno 6909 bound_to 6896
  145.1958  139.2977  143.4344 H   0  0  0  0  0  0  0  0  0  0  0  0  # atno 7974 bound_to 7965
  156.2530  140.1966  156.6648 H   0  0  0  0  0  0  0  0  0  0  0  0  # atno 8008 bound_to 7997
  154.6437  140.0580  156.9901 H   0  0  0  0  0  0  0  0  0  0  0  0  # atno 8009 bound_to 7997
  155.1524  140.3252  155.4431 H   0  0  0  0  0  0  0  0  0  0  0  0  # atno 8010 bound_to 7997
  140.5303  143.9852  150.6462 H   0  0  0  0  0  0  0  0  0  0  0  0  # atno 10167 bound_to 10162
  156.0201  130.4445  150.3071 H   0  0  0  0  0  0  0  0  0  0  0  0  # atno 10718 bound_to 10713
  153.9022  135.6801  153.4755 H   0  0  0  0  0  0  0  0  0  0  0  0  # atno 10763 bound_to 10752
  153.1123  135.4777  154.9054 H   0  0  0  0  0  0  0  0  0  0  0  0  # atno 10764 bound_to 10752
  154.7569  135.3200  154.8407 H   0  0  0  0  0  0  0  0  0  0  0  0  # atno 10765 bound_to 10752
  140.5111  134.0651  155.7818 H   0  0  0  0  0  0  0  0  0  0  0  0  # atno 11005 bound_to 11000
  146.3427  140.2186  142.8591 LP  0  0  0  0  0  0  0  0  0  0  0  0  # atno 17320 bound_to 7965
  144.9996  140.8620  143.5290 LP  0  0  0  0  0  0  0  0  0  0  0  0  # atno 17321 bound_to 7965
  140.3225  143.3128  152.0769 LP  0  0  0  0  0  0  0  0  0  0  0  0  # atno 17342 bound_to 10162
  139.4952  144.6564  151.6563 LP  0  0  0  0  0  0  0  0  0  0  0  0  # atno 17343 bound_to 10162
  157.1173  131.0237  151.3023 LP  0  0  0  0  0  0  0  0  0  0  0  0  # atno 17370 bound_to 10713
  157.4656  130.7679  149.7276 LP  0  0  0  0  0  0  0  0  0  0  0  0  # atno 17371 bound_to 10713
  141.1385  133.9180  157.2380 LP  0  0  0  0  0  0  0  0  0  0  0  0  # atno 17394 bound_to 11000
  139.9658  135.0142  156.9384 LP  0  0  0  0  0  0  0  0  0  0  0  0  # atno 17395 bound_to 11000

$$$$
