AV-unprocessed.smi:104|AV-procd|sdf|998|dock8
  -GOLD-   2262017583D 1   1.00000     0.00000
 Structure written by MMmdl.
 47 49  0  0  0  0  0  0  0  0  1 V2000
  146.0536  135.1137  161.9395 C   0  0  0  0  0  0  0  0  0  0  0  0
  147.2380  135.9764  161.5244 C   0  0  0  0  0  0  0  0  0  0  0  0
  147.8370  136.6753  162.3410 O   0  0  0  0  0  0  0  0  0  0  0  0
  147.5152  135.8686  160.2128 O   0  0  0  0  0  0  0  0  0  0  0  0
  148.8434  136.0297  159.7321 C   0  0  0  0  0  0  0  0  0  0  0  0
  148.8613  136.9010  158.4633 C   0  0  1  0  0  0  0  0  0  0  0  0
  148.9944  138.2753  158.7817 O   0  0  0  0  0  0  0  0  0  0  0  0
  149.3016  138.9436  157.6019 C   0  0  1  0  0  0  0  0  0  0  0  0
  150.0987  140.1588  157.9405 N   0  0  0  0  0  0  0  0  0  0  0  0
  149.8083  141.4853  157.7155 C   0  0  0  0  0  0  0  0  0  0  0  0
  148.2076  142.0485  156.8507 Br  0  0  0  0  0  0  0  0  0  0  0  0
  150.6896  142.3615  158.1102 N   0  0  0  0  0  0  0  0  0  0  0  0
  151.6882  141.5659  158.6589 C   0  0  0  0  0  0  0  0  0  0  0  0
  152.9390  141.8346  159.2694 C   0  0  0  0  0  0  0  0  0  0  0  0
  153.4190  143.0742  159.4378 N   0  0  0  0  0  0  0  0  0  0  0  0
  153.6857  140.7913  159.7020 N   0  0  0  0  0  0  0  0  0  0  0  0
  153.2299  139.5440  159.5458 C   0  0  0  0  0  0  0  0  0  0  0  0
  152.0826  139.1367  158.9971 N   0  0  0  0  0  0  0  0  0  0  0  0
  151.3307  140.1897  158.5606 C   0  0  0  0  0  0  0  0  0  0  0  0
  150.1269  137.9836  156.7297 C   0  0  2  0  0  0  0  0  0  0  0  0
  149.5814  137.8861  155.4213 O   0  0  0  0  0  0  0  0  0  0  0  0
  149.8173  138.8554  154.5198 C   0  0  0  0  0  0  0  0  0  0  0  0
  148.6724  139.0179  153.5293 C   0  0  0  0  0  0  0  0  0  0  0  0
  150.8218  139.5648  154.4639 O   0  0  0  0  0  0  0  0  0  0  0  0
  149.9903  136.6465  157.4561 C   0  0  1  0  0  0  0  0  0  0  0  0
  151.2115  136.3288  158.1139 O   0  0  0  0  0  0  0  0  0  0  0  0
  152.2703  135.8896  157.4123 C   0  0  0  0  0  0  0  0  0  0  0  0
  153.4635  135.5757  158.3041 C   0  0  0  0  0  0  0  0  0  0  0  0
  152.3209  135.7453  156.1909 O   0  0  0  0  0  0  0  0  0  0  0  0
  146.3843  134.0970  162.1508 H   0  0  0  0  0  0  0  0  0  0  0  0
  145.3074  135.0785  161.1455 H   0  0  0  0  0  0  0  0  0  0  0  0
  145.5828  135.5185  162.8357 H   0  0  0  0  0  0  0  0  0  0  0  0
  149.3949  136.5479  160.5166 H   0  0  0  0  0  0  0  0  0  0  0  0
  149.3567  135.0787  159.5838 H   0  0  0  0  0  0  0  0  0  0  0  0
  147.9023  136.7969  157.9515 H   0  0  0  0  0  0  0  0  0  0  0  0
  148.3888  139.2980  157.1232 H   0  0  0  0  0  0  0  0  0  0  0  0
  152.8811  143.8687  159.1225 H   0  0  0  0  0  0  0  0  0  0  0  0
  154.3175  143.2118  159.8776 H   0  0  0  0  0  0  0  0  0  0  0  0
  153.8763  138.7603  159.9123 H   0  0  0  0  0  0  0  0  0  0  0  0
  151.1719  138.2978  156.6964 H   0  0  0  0  0  0  0  0  0  0  0  0
  147.7796  139.3782  154.0404 H   0  0  0  0  0  0  0  0  0  0  0  0
  148.4413  138.0637  153.0559 H   0  0  0  0  0  0  0  0  0  0  0  0
  148.9380  139.7340  152.7514 H   0  0  0  0  0  0  0  0  0  0  0  0
  149.7151  135.8342  156.7810 H   0  0  0  0  0  0  0  0  0  0  0  0
  153.2258  134.7503  158.9752 H   0  0  0  0  0  0  0  0  0  0  0  0
  153.7262  136.4470  158.9045 H   0  0  0  0  0  0  0  0  0  0  0  0
  154.3290  135.2956  157.7032 H   0  0  0  0  0  0  0  0  0  0  0  0
  1  2  1  0  0  0  0
  1 30  1  0  0  0  0
  1 31  1  0  0  0  0
  1 32  1  0  0  0  0
  2  3  2  0  0  0  0
  2  4  1  0  0  0  0
  4  5  1  0  0  0  0
  5  6  1  0  0  0  0
  5 33  1  0  0  0  0
  5 34  1  0  0  0  0
  6 25  1  0  0  0  0
  6  7  1  0  0  0  0
  6 35  1  0  0  0  0
  7  8  1  0  0  0  0
  8  9  1  0  0  0  0
  8 20  1  0  0  0  0
  8 36  1  0  0  0  0
  9 19  1  0  0  0  0
  9 10  1  0  0  0  0
 10 11  1  0  0  0  0
 10 12  2  0  0  0  0
 12 13  1  0  0  0  0
 13 19  2  0  0  0  0
 13 14  1  0  0  0  0
 14 15  1  0  0  0  0
 14 16  2  0  0  0  0
 15 37  1  0  0  0  0
 15 38  1  0  0  0  0
 16 17  1  0  0  0  0
 17 18  2  0  0  0  0
 17 39  1  0  0  0  0
 18 19  1  0  0  0  0
 20 21  1  0  0  0  0
 20 25  1  0  0  0  0
 20 40  1  0  0  0  0
 21 22  1  0  0  0  0
 22 23  1  0  0  0  0
 22 24  2  0  0  0  0
 23 41  1  0  0  0  0
 23 42  1  0  0  0  0
 23 43  1  0  0  0  0
 25 26  1  0  0  0  0
 25 44  1  0  0  0  0
 26 27  1  0  0  0  0
 27 28  1  0  0  0  0
 27 29  2  0  0  0  0
 28 45  1  0  0  0  0
 28 46  1  0  0  0  0
 28 47  1  0  0  0  0
M  END
> <s_m_source_file>
AV-unprocessed.smi

> <i_m_source_file_index>
104

> <i_lp_mmshare_version>
43012

> <i_f3d_flags>
0

> <s_epik_input>
W0NIM11DKD1PKU9bQ0gyXVtDQEBIXTFPW0NASF0oW0NAQEhdKE9DKD1PKVtDSDNdKVtDQEhdMU9DKD1PKVtDSDNdKW4oYyhCciluMiljKGMyMyluW2NIXW5jM1tOSDJd

> <s_epik_cmdline>
J2VwaWtfcHl0aG9uJywgJy1waCcsICc3LjAnLCAnLXRuJywgJzgnLCAnLW1hJywgJzIwMCcsICctbWV0YWxfYmluZGluZycsICctaW1hZScsICc8aW5maWxlLm1hZT4nLCAnLW9tYWUnLCAnPG91dGZpbGUubWFlPic=

> <r_lp_tautomer_probability>
1

> <r_epik_Ionization_Penalty>
7.36622e-05

> <r_epik_Ionization_Penalty_Charging>
0

> <r_epik_Ionization_Penalty_Neutral>
7.36622e-05

> <r_epik_State_Penalty>
-0

> <r_epik_Charging_Adjusted_Penalty>
0

> <i_epik_Tot_Q>
0

> <i_epik_Tot_abs_Q>
0

> <r_epik_Metal_State_Penalty>
-0

> <b_epik_Metal_Only>
0

> <s_epik_Chemistry_Notes>
This compound has an ester and may undergo hydrolysis at high or low pH. This compound contains an acetal/aminal-like group ( X-CH(R)-Y where X, Y are N, S, or O) that may be acid/base labile, releasing an aldehyde.

> <s_lp_Force_Field>
OPLS_2005

> <r_lp_Energy>
14.1863

> <b_lp_Chiralities_Consistent>
1

> <s_lp_Variant>
AV-unprocessed.smi:104-6

> <Gold.Version>
5.8.1

> <Gold.Id.Protein>
6NUR|6NUR_protein|mol2

> <Gold.PLP.Fitness>
41.7765

> <Gold.PLP.PLP>
-35.9131

> <Gold.PLP.part.hbond>
-4.6320

> <Gold.PLP.part.metal>
0.0000

> <Gold.PLP.part.buried>
-6.7622

> <Gold.PLP.part.nonpolar>
-24.3083

> <Gold.PLP.part.repulsive>
0.3340

> <Gold.PLP.ligand.clash>
0.0000

> <Gold.PLP.ligand.torsion>
1.6427

> <Gold.PLP.Chemscore.Hbond>
3.0000

> <Gold.PLP.Chemscore.CHOScore>
0.0000

> <Gold.PLP.Chemscore.Metal>
0.0000

> <Gold.Chemscore.Hbonds>
donor molecule, donor type, donor heavy atom, donor atom, acceptor molecule, acceptor atom, score
      P1  H  6931  6943       L1     3  1.00
      P1  H  7989  7998       L1    24  1.00
      P1  H 10752 10764       L1    29  0.71

> <Gold.PLP.Chemscore.Internal.Correction>
0.1488

> <Gold.Rescore>
     Score         DG    S(hbond)    S(metal)    S(lipo)     H(rot)  DE(clash)    DE(int)     intcor
      6.83      -8.92       2.92        0.00      40.18       4.31       0.33       1.76       ----

> <Gold.Chemscore.Fitness>
6.8287

> <Gold.Chemscore.DG>
-8.9183

> <Gold.Chemscore.ZeroCoef>
-5.4800

> <Gold.Chemscore.Hbond>
2.9230

> <Gold.Chemscore.Metal>
0.0000

> <Gold.Chemscore.Lipo>
40.1820

> <Gold.Chemscore.Internal_Hbond>
0.0000

> <Gold.Chemscore.DEClash>
0.3300

> <Gold.Chemscore.DEInternal>
1.7596

> <Gold.Chemscore.Rot>
4.3070

> <Gold.Chemscore.Internal.Correction>
   9.000000E+99

> <Gold.Chemscore.Hbonds>
donor molecule, donor type, donor heavy atom, donor atom, acceptor molecule, acceptor atom, score
      P1  H  6931  6943       L1     3  0.93
      P1  H  7989  7998       L1    24  1.00
      P1  H 10752 10764       L1    29  0.71

> <Gold.Chemscore.Hbond.Weighted>
-9.7629

> <Gold.Chemscore.Metal.Weighted>
-0.0000

> <Gold.Chemscore.Lipo.Weighted>
-4.7013

> <Gold.Chemscore.Internal_Hbond.Weighted>
0.0000

> <Gold.Chemscore.DEClash.Weighted>
0.3300

> <Gold.Chemscore.DEInternal.Weighted>
1.7596

> <Gold.Chemscore.Rot.Weighted>
11.0259

> <Gold.Chemscore.Internal.Correction.Weighted>
   9.000000E+99

> <Gold.Protein.RotatedTorsions>
[ 6907 6896 6895 6894 ] final   44.60 input  -60.11 | X-H torsion
[ 7974 7965 7964 7962 ] final   -6.76 input  175.53 | X-H torsion
[ 8008 7997 7996 7995 ] final -167.03 input   59.86 | X-H torsion
[ 10167 10162 10161 10158 ] final  -29.35 input  -65.29 | X-H torsion
[ 10718 10713 10712 10709 ] final -170.59 input   66.30 | X-H torsion
[ 10763 10752 10751 10750 ] final  -21.34 input  -60.55 | X-H torsion
[ 11005 11000 10999 10996 ] final -175.51 input  -57.11 | X-H torsion

> <Gold.Protein.ActiveResidues>
 VAL166  LYS551  ARG553  GLY616  TRP617  ASP618  TYR619  PRO620  LYS621  CYS622 
 ASP623  PHE694  ASN695  SER759  ASP760  ASP761  ALA762  ILE779  LEU786  VAL792 
 PHE793  MET794  SER795  GLU796  ALA797  LYS798  CYS799  TRP800  GLU811  SER814 

> <Gold.Protein.RotatedAtoms>
  152.2345  134.8289  160.0468 H   0  0  0  0  0  0  0  0  0  0  0  0  # atno 6907 bound_to 6896
  151.9026  133.3536  159.3844 H   0  0  0  0  0  0  0  0  0  0  0  0  # atno 6908 bound_to 6896
  150.7035  134.4738  159.5482 H   0  0  0  0  0  0  0  0  0  0  0  0  # atno 6909 bound_to 6896
  146.2323  140.2218  142.8337 H   0  0  0  0  0  0  0  0  0  0  0  0  # atno 7974 bound_to 7965
  155.8721  140.0995  157.1543 H   0  0  0  0  0  0  0  0  0  0  0  0  # atno 8008 bound_to 7997
  154.3998  140.1345  156.4154 H   0  0  0  0  0  0  0  0  0  0  0  0  # atno 8009 bound_to 7997
  155.7738  140.3460  155.5263 H   0  0  0  0  0  0  0  0  0  0  0  0  # atno 8010 bound_to 7997
  140.7261  143.3936  151.1387 H   0  0  0  0  0  0  0  0  0  0  0  0  # atno 10167 bound_to 10162
  156.7285  130.9297  151.3103 H   0  0  0  0  0  0  0  0  0  0  0  0  # atno 10718 bound_to 10713
  153.6346  135.6987  153.5263 H   0  0  0  0  0  0  0  0  0  0  0  0  # atno 10763 bound_to 10752
  153.2831  135.4179  155.1097 H   0  0  0  0  0  0  0  0  0  0  0  0  # atno 10764 bound_to 10752
  154.8514  135.3607  154.5890 H   0  0  0  0  0  0  0  0  0  0  0  0  # atno 10765 bound_to 10752
  140.4624  134.6242  157.4848 H   0  0  0  0  0  0  0  0  0  0  0  0  # atno 11005 bound_to 11000
  144.9626  140.8290  143.5504 LP  0  0  0  0  0  0  0  0  0  0  0  0  # atno 17320 bound_to 7965
  145.2191  139.2168  143.5102 LP  0  0  0  0  0  0  0  0  0  0  0  0  # atno 17321 bound_to 7965
  139.7544  143.8729  152.3085 LP  0  0  0  0  0  0  0  0  0  0  0  0  # atno 17342 bound_to 10162
  139.8594  144.7125  150.9118 LP  0  0  0  0  0  0  0  0  0  0  0  0  # atno 17343 bound_to 10162
  157.6869  130.9194  150.0409 LP  0  0  0  0  0  0  0  0  0  0  0  0  # atno 17370 bound_to 10713
  156.1545  130.3643  149.9389 LP  0  0  0  0  0  0  0  0  0  0  0  0  # atno 17371 bound_to 10713
  139.9937  134.6945  155.9646 LP  0  0  0  0  0  0  0  0  0  0  0  0  # atno 17394 bound_to 11000
  141.1615  133.6538  156.4334 LP  0  0  0  0  0  0  0  0  0  0  0  0  # atno 17395 bound_to 11000

$$$$
