AV-unprocessed.smi:2072|AV-procd|sdf|8443|dock1
  -GOLD-   2272011143D 1   1.00000     0.00000
 Structure written by MMmdl.
 40 42  0  0  0  0  0  0  0  0  2 V2000
  145.3621  137.8850  154.2139 O   0  0  0  0  0  0  0  0  0  0  0  0
  146.3165  137.3141  153.6875 C   0  0  0  0  0  0  0  0  0  0  0  0
  147.5216  137.8587  153.4471 N   0  0  0  0  0  0  0  0  0  0  0  0
  147.9966  139.1630  153.7568 C   0  0  0  0  0  0  0  0  0  0  0  0
  147.2172  140.3443  153.6905 C   0  0  0  0  0  0  0  0  0  0  0  0
  147.8117  141.5720  154.0401 C   0  0  0  0  0  0  0  0  0  0  0  0
  149.1593  141.5759  154.4482 C   0  0  0  0  0  0  0  0  0  0  0  0
  149.9118  140.4583  154.5248 N   0  0  0  0  0  0  0  0  0  0  0  0
  149.3353  139.2853  154.1876 C   0  0  0  0  0  0  0  0  0  0  0  0
  146.2692  136.0407  153.2714 N   0  0  0  0  0  0  0  0  0  0  0  0
  145.1007  135.1718  153.3886 C   0  0  1  0  0  0  0  0  0  0  0  0
  143.8476  135.7508  152.7445 C   0  0  0  0  0  0  0  0  0  0  0  0
  142.9471  134.5223  152.5784 C   0  0  0  0  0  0  0  0  0  0  0  0
  143.8428  133.3439  152.4715 N   0  3  1  0  0  0  0  0  0  0  0  0
  143.6288  132.5309  151.2446 C   0  0  0  0  0  0  0  0  0  0  0  0
  144.8169  131.5909  150.9938 C   0  0  0  0  0  0  0  0  0  0  0  0
  146.1198  132.3792  150.7624 C   0  0  0  0  0  0  0  0  0  0  0  0
  146.0815  133.7816  151.3995 C   0  0  0  0  0  0  0  0  0  0  0  0
  145.2435  133.7997  152.7017 C   0  0  1  0  0  0  0  0  0  0  0  0
  148.1791  137.2724  152.9538 H   0  0  0  0  0  0  0  0  0  0  0  0
  146.1808  140.3406  153.3932 H   0  0  0  0  0  0  0  0  0  0  0  0
  147.2452  142.4904  153.9999 H   0  0  0  0  0  0  0  0  0  0  0  0
  149.6439  142.5007  154.7242 H   0  0  0  0  0  0  0  0  0  0  0  0
  149.9674  138.4124  154.2643 H   0  0  0  0  0  0  0  0  0  0  0  0
  147.0945  135.6465  152.8436 H   0  0  0  0  0  0  0  0  0  0  0  0
  144.8850  135.0127  154.4475 H   0  0  0  0  0  0  0  0  0  0  0  0
  143.3843  136.5348  153.3442 H   0  0  0  0  0  0  0  0  0  0  0  0
  144.0834  136.1708  151.7654 H   0  0  0  0  0  0  0  0  0  0  0  0
  142.3268  134.3911  153.4658 H   0  0  0  0  0  0  0  0  0  0  0  0
  142.2747  134.6309  151.7262 H   0  0  0  0  0  0  0  0  0  0  0  0
  142.7046  131.9624  151.3526 H   0  0  0  0  0  0  0  0  0  0  0  0
  143.4997  133.1822  150.3783 H   0  0  0  0  0  0  0  0  0  0  0  0
  144.9367  130.9335  151.8563 H   0  0  0  0  0  0  0  0  0  0  0  0
  144.6186  130.9407  150.1412 H   0  0  0  0  0  0  0  0  0  0  0  0
  146.9562  131.8072  151.1659 H   0  0  0  0  0  0  0  0  0  0  0  0
  146.3111  132.4816  149.6935 H   0  0  0  0  0  0  0  0  0  0  0  0
  147.1036  134.1140  151.5822 H   0  0  0  0  0  0  0  0  0  0  0  0
  145.6558  134.4898  150.6872 H   0  0  0  0  0  0  0  0  0  0  0  0
  145.7115  133.1053  153.4012 H   0  0  0  0  0  0  0  0  0  0  0  0
  143.6180  132.7471  153.2548 H   0  0  0  0  0  0  0  0  0  0  0  0
  1  2  2  0  0  0  0
  2  3  1  0  0  0  0
  2 10  1  0  0  0  0
  3  4  1  0  0  0  0
  3 20  1  0  0  0  0
  4  9  1  0  0  0  0
  4  5  2  0  0  0  0
  5  6  1  0  0  0  0
  5 21  1  0  0  0  0
  6  7  2  0  0  0  0
  6 22  1  0  0  0  0
  7  8  1  0  0  0  0
  7 23  1  0  0  0  0
  8  9  2  0  0  0  0
  9 24  1  0  0  0  0
 10 11  1  0  0  0  0
 10 25  1  0  0  0  0
 11 19  1  0  0  0  0
 11 12  1  0  0  0  0
 11 26  1  0  0  0  0
 12 13  1  0  0  0  0
 12 27  1  0  0  0  0
 12 28  1  0  0  0  0
 13 14  1  0  0  0  0
 13 29  1  0  0  0  0
 13 30  1  0  0  0  0
 14 19  1  0  0  0  0
 14 15  1  0  0  0  0
 14 40  1  0  0  0  0
 15 16  1  0  0  0  0
 15 31  1  0  0  0  0
 15 32  1  0  0  0  0
 16 17  1  0  0  0  0
 16 33  1  0  0  0  0
 16 34  1  0  0  0  0
 17 18  1  0  0  0  0
 17 35  1  0  0  0  0
 17 36  1  0  0  0  0
 18 19  1  0  0  0  0
 18 37  1  0  0  0  0
 18 38  1  0  0  0  0
 19 39  1  0  0  0  0
M  CHG  1  14   1
M  END
> <s_m_source_file>
AV-unprocessed.smi

> <i_m_source_file_index>
2072

> <i_lp_mmshare_version>
43012

> <i_f3d_flags>
0

> <s_epik_input>
W0NIMl0xW0NIMl1bQ0gyXVtDSDJdW0NASF0oTjEyKVtDQEBIXShbQ0gyXVtDSDJdMilbTkhdQyg9TylbTkhdYzNbY0hdW2NIXVtjSF1uW2NIXTM=

> <s_epik_cmdline>
J2VwaWtfcHl0aG9uJywgJy1waCcsICc3LjAnLCAnLXRuJywgJzgnLCAnLW1hJywgJzIwMCcsICctbWV0YWxfYmluZGluZycsICctaW1hZScsICc8aW5maWxlLm1hZT4nLCAnLW9tYWUnLCAnPG91dGZpbGUubWFlPic=

> <r_lp_tautomer_probability>
1

> <r_epik_Ionization_Penalty>
0.00482425

> <r_epik_Ionization_Penalty_Charging>
0.000974069

> <r_epik_Ionization_Penalty_Neutral>
0.00385018

> <r_epik_State_Penalty>
-0

> <r_epik_Charging_Adjusted_Penalty>
0.000974069

> <i_epik_Tot_Q>
1

> <i_epik_Tot_abs_Q>
1

> <r_epik_Metal_State_Penalty>
-0

> <b_epik_Metal_Only>
0

> <s_lp_Force_Field>
OPLS_2005

> <r_lp_Energy>
44.3816

> <b_lp_Chiralities_Consistent>
1

> <s_lp_Variant>
AV-unprocessed.smi:2072-2

> <Gold.Version>
5.8.1

> <Gold.Id.Protein>
6NUR|6NUR_protein|mol2

> <Gold.PLP.Fitness>
47.9291

> <Gold.PLP.PLP>
-32.2195

> <Gold.PLP.part.hbond>
-4.0000

> <Gold.PLP.part.metal>
0.0000

> <Gold.PLP.part.buried>
-3.9188

> <Gold.PLP.part.nonpolar>
-25.5922

> <Gold.PLP.part.repulsive>
0.2302

> <Gold.PLP.ligand.clash>
0.0000

> <Gold.PLP.ligand.torsion>
0.3114

> <Gold.PLP.Chemscore.Hbond>
4.4435

> <Gold.PLP.Chemscore.CHOScore>
1.0000

> <Gold.PLP.Chemscore.Metal>
0.0000

> <Gold.Chemscore.Hbonds>
donor molecule, donor type, donor heavy atom, donor atom, acceptor molecule, acceptor atom, score
      L1  H     3    20       P1  7948  1.00
      L1  H    10    25       P1  7948  0.55
      L1  H    14    40       P1 10957  1.95
      P1  H  7989  7998       L1     8  0.86
      L1  C     7    23       P1  8028  1.00

> <Gold.PLP.Chemscore.Internal.Correction>
0.0020

> <Gold.Rescore>
     Score         DG    S(hbond)    S(metal)    S(lipo)     H(rot)  DE(clash)    DE(int)     intcor
     21.04     -21.45       2.80        0.00      78.39       1.00       0.16       0.25       ----

> <Gold.Chemscore.Fitness>
21.0422

> <Gold.Chemscore.DG>
-21.4545

> <Gold.Chemscore.ZeroCoef>
-5.4800

> <Gold.Chemscore.Hbond>
2.8033

> <Gold.Chemscore.Metal>
0.0000

> <Gold.Chemscore.Lipo>
78.3877

> <Gold.Chemscore.Internal_Hbond>
0.0000

> <Gold.Chemscore.DEClash>
0.1617

> <Gold.Chemscore.DEInternal>
0.2506

> <Gold.Chemscore.Rot>
1.0000

> <Gold.Chemscore.Internal.Correction>
   9.000000E+99

> <Gold.Chemscore.Hbonds>
donor molecule, donor type, donor heavy atom, donor atom, acceptor molecule, acceptor atom, score
      L1  H     3    20       P1  7948  1.00
      L1  H    10    25       P1  7948  0.54
      L1  H    14    40       P1 10957  0.41
      P1  H  7989  7998       L1     8  0.35

> <Gold.Chemscore.Hbond.Weighted>
-9.3631

> <Gold.Chemscore.Metal.Weighted>
-0.0000

> <Gold.Chemscore.Lipo.Weighted>
-9.1714

> <Gold.Chemscore.Internal_Hbond.Weighted>
0.0000

> <Gold.Chemscore.DEClash.Weighted>
0.1617

> <Gold.Chemscore.DEInternal.Weighted>
0.2506

> <Gold.Chemscore.Rot.Weighted>
2.5600

> <Gold.Chemscore.Internal.Correction.Weighted>
   9.000000E+99

> <Gold.Protein.RotatedTorsions>
[ 6907 6896 6895 6894 ] final    3.67 input  -60.11 | X-H torsion
[ 7974 7965 7964 7962 ] final  -31.63 input  175.53 | X-H torsion
[ 8008 7997 7996 7995 ] final   91.88 input   59.86 | X-H torsion
[ 10167 10162 10161 10158 ] final  106.55 input  -65.29 | X-H torsion
[ 10718 10713 10712 10709 ] final -174.68 input   66.30 | X-H torsion
[ 10763 10752 10751 10750 ] final  116.04 input  -60.55 | X-H torsion
[ 11005 11000 10999 10996 ] final  136.11 input  -57.11 | X-H torsion

> <Gold.Protein.ActiveResidues>
 VAL166  LYS551  ARG553  GLY616  TRP617  ASP618  TYR619  PRO620  LYS621  CYS622 
 ASP623  PHE694  ASN695  SER759  ASP760  ASP761  ALA762  ILE779  LEU786  VAL792 
 PHE793  MET794  SER795  GLU796  ALA797  LYS798  CYS799  TRP800  GLU811  SER814 

> <Gold.Protein.RotatedAtoms>
  151.6288  135.1025  160.0117 H   0  0  0  0  0  0  0  0  0  0  0  0  # atno 6907 bound_to 6896
  152.4117  133.6970  159.6412 H   0  0  0  0  0  0  0  0  0  0  0  0  # atno 6908 bound_to 6896
  150.8007  133.8529  159.3251 H   0  0  0  0  0  0  0  0  0  0  0  0  # atno 6909 bound_to 6896
  146.1052  140.5692  142.8803 H   0  0  0  0  0  0  0  0  0  0  0  0  # atno 7974 bound_to 7965
  156.0289  140.3332  155.7118 H   0  0  0  0  0  0  0  0  0  0  0  0  # atno 8008 bound_to 7997
  155.5913  140.0646  157.2775 H   0  0  0  0  0  0  0  0  0  0  0  0  # atno 8009 bound_to 7997
  154.4345  140.1826  156.1066 H   0  0  0  0  0  0  0  0  0  0  0  0  # atno 8010 bound_to 7997
  139.7000  144.7095  151.1201 H   0  0  0  0  0  0  0  0  0  0  0  0  # atno 10167 bound_to 10162
  156.7887  130.9510  151.3120 H   0  0  0  0  0  0  0  0  0  0  0  0  # atno 10718 bound_to 10713
  153.5312  135.3578  155.2677 H   0  0  0  0  0  0  0  0  0  0  0  0  # atno 10763 bound_to 10752
  154.8726  135.4069  154.3149 H   0  0  0  0  0  0  0  0  0  0  0  0  # atno 10764 bound_to 10752
  153.3838  135.7069  153.6613 H   0  0  0  0  0  0  0  0  0  0  0  0  # atno 10765 bound_to 10752
  140.0024  134.9473  157.0102 H   0  0  0  0  0  0  0  0  0  0  0  0  # atno 11005 bound_to 11000
  144.7465  140.5081  143.6832 LP  0  0  0  0  0  0  0  0  0  0  0  0  # atno 17320 bound_to 7965
  145.5774  139.1487  143.3254 LP  0  0  0  0  0  0  0  0  0  0  0  0  # atno 17321 bound_to 7965
  140.7707  143.5437  150.9283 LP  0  0  0  0  0  0  0  0  0  0  0  0  # atno 17342 bound_to 10162
  139.9118  143.6710  152.3113 LP  0  0  0  0  0  0  0  0  0  0  0  0  # atno 17343 bound_to 10162
  157.6611  130.8967  149.9832 LP  0  0  0  0  0  0  0  0  0  0  0  0  # atno 17370 bound_to 10713
  156.1173  130.3647  149.9947 LP  0  0  0  0  0  0  0  0  0  0  0  0  # atno 17371 bound_to 10713
  140.4703  134.1393  155.7202 LP  0  0  0  0  0  0  0  0  0  0  0  0  # atno 17394 bound_to 11000
  141.1652  133.8717  157.1735 LP  0  0  0  0  0  0  0  0  0  0  0  0  # atno 17395 bound_to 11000

$$$$
