AV-unprocessed.smi:1055|AV-procd|sdf|4626|dock6
  -GOLD-   22720 3133D 1   1.00000     0.00000
 Structure written by MMmdl.
 51 52  0  0  0  0  0  0  0  0  2 V2000
  146.5566  133.8992  151.1534 C   0  0  0  0  0  0  0  0  0  0  0  0
  145.3874  134.3997  151.5863 C   0  0  0  0  0  0  0  0  0  0  0  0
  144.3810  133.5521  152.3415 C   0  0  0  0  0  0  0  0  0  0  0  0
  144.9895  135.8473  151.3437 C   0  0  0  0  0  0  0  0  0  0  0  0
  146.0088  136.7958  151.8584 N   0  3  2  0  0  0  0  0  0  0  0  0
  145.9798  136.8969  153.3400 C   0  0  0  0  0  0  0  0  0  0  0  0
  147.1277  137.7765  153.8626 C   0  0  0  0  0  0  0  0  0  0  0  0
  147.0874  139.1769  153.2242 C   0  0  1  0  0  0  0  0  0  0  0  0
  148.2258  139.9842  153.6536 N   0  0  0  0  0  0  0  0  0  0  0  0
  148.6697  140.0814  154.9152 C   0  0  0  0  0  0  0  0  0  0  0  0
  148.1630  139.4761  155.8594 O   0  0  0  0  0  0  0  0  0  0  0  0
  149.7087  140.9296  155.0018 N   0  0  0  0  0  0  0  0  0  0  0  0
  150.4530  141.2966  156.1553 C   0  0  0  0  0  0  0  0  0  0  0  0
  150.7179  140.3043  157.1180 C   0  0  0  0  0  0  0  0  0  0  0  0
  151.4380  140.6432  158.2791 C   0  0  0  0  0  0  0  0  0  0  0  0
  151.8725  141.9802  158.4585 C   0  0  0  0  0  0  0  0  0  0  0  0
  152.6011  142.3722  159.6048 N   0  0  0  0  0  0  0  0  0  0  0  0
  152.7092  143.7819  159.9595 C   0  0  0  0  0  0  0  0  0  0  0  0
  153.2711  141.3635  160.4197 C   0  0  0  0  0  0  0  0  0  0  0  0
  151.6015  142.9362  157.5366 N   0  0  0  0  0  0  0  0  0  0  0  0
  150.9127  142.6070  156.4237 C   0  0  0  0  0  0  0  0  0  0  0  0
  147.0899  139.0402  151.6935 C   0  0  0  0  0  0  0  0  0  0  0  0
  145.9424  138.1350  151.2145 C   0  0  0  0  0  0  0  0  0  0  0  0
  146.8252  132.8678  151.3306 H   0  0  0  0  0  0  0  0  0  0  0  0
  147.2647  134.5123  150.6150 H   0  0  0  0  0  0  0  0  0  0  0  0
  143.4300  133.5304  151.8088 H   0  0  0  0  0  0  0  0  0  0  0  0
  144.2078  133.9573  153.3386 H   0  0  0  0  0  0  0  0  0  0  0  0
  144.7302  132.5249  152.4514 H   0  0  0  0  0  0  0  0  0  0  0  0
  144.8215  136.0285  150.2806 H   0  0  0  0  0  0  0  0  0  0  0  0
  144.0353  136.0159  151.8448 H   0  0  0  0  0  0  0  0  0  0  0  0
  145.0191  137.3034  153.6596 H   0  0  0  0  0  0  0  0  0  0  0  0
  146.0642  135.9017  153.7779 H   0  0  0  0  0  0  0  0  0  0  0  0
  147.0616  137.8533  154.9486 H   0  0  0  0  0  0  0  0  0  0  0  0
  148.0823  137.2954  153.6446 H   0  0  0  0  0  0  0  0  0  0  0  0
  146.1643  139.6787  153.5217 H   0  0  0  0  0  0  0  0  0  0  0  0
  148.7005  140.5205  152.9419 H   0  0  0  0  0  0  0  0  0  0  0  0
  149.9583  141.4165  154.1535 H   0  0  0  0  0  0  0  0  0  0  0  0
  150.3788  139.2895  156.9696 H   0  0  0  0  0  0  0  0  0  0  0  0
  151.6415  139.8722  159.0065 H   0  0  0  0  0  0  0  0  0  0  0  0
  153.1892  144.3434  159.1573 H   0  0  0  0  0  0  0  0  0  0  0  0
  153.3036  143.9200  160.8630 H   0  0  0  0  0  0  0  0  0  0  0  0
  151.7223  144.2070  160.1441 H   0  0  0  0  0  0  0  0  0  0  0  0
  154.0124  140.8244  159.8288 H   0  0  0  0  0  0  0  0  0  0  0  0
  152.5494  140.6448  160.8096 H   0  0  0  0  0  0  0  0  0  0  0  0
  153.7847  141.8135  161.2695 H   0  0  0  0  0  0  0  0  0  0  0  0
  150.7167  143.4306  155.7549 H   0  0  0  0  0  0  0  0  0  0  0  0
  147.0001  140.0233  151.2296 H   0  0  0  0  0  0  0  0  0  0  0  0
  148.0417  138.6259  151.3578 H   0  0  0  0  0  0  0  0  0  0  0  0
  146.0012  138.0365  150.1303 H   0  0  0  0  0  0  0  0  0  0  0  0
  144.9805  138.5996  151.4371 H   0  0  0  0  0  0  0  0  0  0  0  0
  146.9074  136.4011  151.6198 H   0  0  0  0  0  0  0  0  0  0  0  0
  1  2  2  0  0  0  0
  1 24  1  0  0  0  0
  1 25  1  0  0  0  0
  2  3  1  0  0  0  0
  2  4  1  0  0  0  0
  3 26  1  0  0  0  0
  3 27  1  0  0  0  0
  3 28  1  0  0  0  0
  4  5  1  0  0  0  0
  4 29  1  0  0  0  0
  4 30  1  0  0  0  0
  5 23  1  0  0  0  0
  5  6  1  0  0  0  0
  5 51  1  0  0  0  0
  6  7  1  0  0  0  0
  6 31  1  0  0  0  0
  6 32  1  0  0  0  0
  7  8  1  0  0  0  0
  7 33  1  0  0  0  0
  7 34  1  0  0  0  0
  8  9  1  0  0  0  0
  8 22  1  0  0  0  0
  8 35  1  0  0  0  0
  9 10  1  0  0  0  0
  9 36  1  0  0  0  0
 10 11  2  0  0  0  0
 10 12  1  0  0  0  0
 12 13  1  0  0  0  0
 12 37  1  0  0  0  0
 13 21  1  0  0  0  0
 13 14  2  0  0  0  0
 14 15  1  0  0  0  0
 14 38  1  0  0  0  0
 15 16  2  0  0  0  0
 15 39  1  0  0  0  0
 16 17  1  0  0  0  0
 16 20  1  0  0  0  0
 17 18  1  0  0  0  0
 17 19  1  0  0  0  0
 18 40  1  0  0  0  0
 18 41  1  0  0  0  0
 18 42  1  0  0  0  0
 19 43  1  0  0  0  0
 19 44  1  0  0  0  0
 19 45  1  0  0  0  0
 20 21  2  0  0  0  0
 21 46  1  0  0  0  0
 22 23  1  0  0  0  0
 22 47  1  0  0  0  0
 22 48  1  0  0  0  0
 23 49  1  0  0  0  0
 23 50  1  0  0  0  0
M  CHG  1   5   1
M  END
> <s_m_source_file>
AV-unprocessed.smi

> <i_m_source_file_index>
1055

> <i_lp_mmshare_version>
43012

> <i_f3d_flags>
0

> <s_epik_input>
W0NIMl09QyhbQ0gzXSlbQ0gyXU4xW0NIMl1bQ0gyXVtDSF0oW0NIMl1bQ0gyXTEpW05IXUMoPU8pW05IXWMyW2NIXVtjSF1jKE4oW0NIM10pW0NIM10pbltjSF0y

> <s_epik_cmdline>
J2VwaWtfcHl0aG9uJywgJy1waCcsICc3LjAnLCAnLXRuJywgJzgnLCAnLW1hJywgJzIwMCcsICctbWV0YWxfYmluZGluZycsICctaW1hZScsICc8aW5maWxlLm1hZT4nLCAnLW9tYWUnLCAnPG91dGZpbGUubWFlPic=

> <r_lp_tautomer_probability>
1

> <r_epik_Ionization_Penalty>
0.534133

> <r_epik_Ionization_Penalty_Charging>
0.0193505

> <r_epik_Ionization_Penalty_Neutral>
0.514782

> <r_epik_State_Penalty>
0.557749

> <r_epik_Charging_Adjusted_Penalty>
0.5771

> <i_epik_Tot_Q>
1

> <i_epik_Tot_abs_Q>
1

> <r_epik_Metal_State_Penalty>
0.306227

> <b_epik_Metal_Only>
0

> <s_lp_Force_Field>
OPLS_2005

> <r_lp_Energy>
20.3338

> <b_lp_Chiralities_Consistent>
1

> <s_lp_Variant>
AV-unprocessed.smi:1055-3

> <Gold.Version>
5.8.1

> <Gold.Id.Protein>
6NUR|6NUR_protein|mol2

> <Gold.PLP.Fitness>
46.5187

> <Gold.PLP.PLP>
-37.1227

> <Gold.PLP.part.hbond>
-2.0000

> <Gold.PLP.part.metal>
0.0000

> <Gold.PLP.part.buried>
4.3354

> <Gold.PLP.part.nonpolar>
-40.2209

> <Gold.PLP.part.repulsive>
0.3745

> <Gold.PLP.ligand.clash>
0.0000

> <Gold.PLP.ligand.torsion>
0.7948

> <Gold.PLP.Chemscore.Hbond>
2.6708

> <Gold.PLP.Chemscore.CHOScore>
0.9823

> <Gold.PLP.Chemscore.Metal>
0.0000

> <Gold.Chemscore.Hbonds>
donor molecule, donor type, donor heavy atom, donor atom, acceptor molecule, acceptor atom, score
      L1  H     5    51       P1  7948  1.98
      L1  H     9    36       P1  7957  0.65
      L1  C    21    46       P1  8028  0.98

> <Gold.PLP.Chemscore.Internal.Correction>
0.0263

> <Gold.Rescore>
     Score         DG    S(hbond)    S(metal)    S(lipo)     H(rot)  DE(clash)    DE(int)     intcor
     12.69     -19.63       1.67        0.00     102.25       1.33       3.64       3.31       ----

> <Gold.Chemscore.Fitness>
12.6881

> <Gold.Chemscore.DG>
-19.6323

> <Gold.Chemscore.ZeroCoef>
-5.4800

> <Gold.Chemscore.Hbond>
1.6722

> <Gold.Chemscore.Metal>
0.0000

> <Gold.Chemscore.Lipo>
102.2504

> <Gold.Chemscore.Internal_Hbond>
0.0000

> <Gold.Chemscore.DEClash>
3.6390

> <Gold.Chemscore.DEInternal>
3.3051

> <Gold.Chemscore.Rot>
1.3266

> <Gold.Chemscore.Internal.Correction>
   9.000000E+99

> <Gold.Chemscore.Hbonds>
donor molecule, donor type, donor heavy atom, donor atom, acceptor molecule, acceptor atom, score
      L1  H     5    51       P1  7948  0.90
      L1  H     9    36       P1  7957  0.61

> <Gold.Chemscore.Hbond.Weighted>
-5.5852

> <Gold.Chemscore.Metal.Weighted>
-0.0000

> <Gold.Chemscore.Lipo.Weighted>
-11.9633

> <Gold.Chemscore.Internal_Hbond.Weighted>
0.0000

> <Gold.Chemscore.DEClash.Weighted>
3.6390

> <Gold.Chemscore.DEInternal.Weighted>
3.3051

> <Gold.Chemscore.Rot.Weighted>
3.3962

> <Gold.Chemscore.Internal.Correction.Weighted>
   9.000000E+99

> <Gold.Protein.RotatedTorsions>
[ 6907 6896 6895 6894 ] final   59.42 input  -60.11 | X-H torsion
[ 7974 7965 7964 7962 ] final   61.70 input  175.53 | X-H torsion
[ 8008 7997 7996 7995 ] final  150.17 input   59.86 | X-H torsion
[ 10167 10162 10161 10158 ] final   -4.33 input  -65.29 | X-H torsion
[ 10718 10713 10712 10709 ] final  -49.23 input   66.30 | X-H torsion
[ 10763 10752 10751 10750 ] final -151.55 input  -60.55 | X-H torsion
[ 11005 11000 10999 10996 ] final   39.94 input  -57.11 | X-H torsion

> <Gold.Protein.ActiveResidues>
 VAL166  LYS551  ARG553  GLY616  TRP617  ASP618  TYR619  PRO620  LYS621  CYS622 
 ASP623  PHE694  ASN695  SER759  ASP760  ASP761  ALA762  ILE779  LEU786  VAL792 
 PHE793  MET794  SER795  GLU796  ALA797  LYS798  CYS799  TRP800  GLU811  SER814 

> <Gold.Protein.RotatedAtoms>
  152.3913  134.6437  160.0106 H   0  0  0  0  0  0  0  0  0  0  0  0  # atno 6907 bound_to 6896
  151.6670  133.3309  159.3195 H   0  0  0  0  0  0  0  0  0  0  0  0  # atno 6908 bound_to 6896
  150.7828  134.6832  159.6500 H   0  0  0  0  0  0  0  0  0  0  0  0  # atno 6909 bound_to 6896
  145.8818  139.3448  143.0701 H   0  0  0  0  0  0  0  0  0  0  0  0  # atno 7974 bound_to 7965
  156.2726  140.2082  156.5975 H   0  0  0  0  0  0  0  0  0  0  0  0  # atno 8008 bound_to 7997
  154.6933  140.0528  157.0408 H   0  0  0  0  0  0  0  0  0  0  0  0  # atno 8009 bound_to 7997
  155.0836  140.3189  155.4597 H   0  0  0  0  0  0  0  0  0  0  0  0  # atno 8010 bound_to 7997
  140.6923  143.6436  150.8413 H   0  0  0  0  0  0  0  0  0  0  0  0  # atno 10167 bound_to 10162
  156.1913  130.4153  149.9368 H   0  0  0  0  0  0  0  0  0  0  0  0  # atno 10718 bound_to 10713
  154.8050  135.3257  154.7453 H   0  0  0  0  0  0  0  0  0  0  0  0  # atno 10763 bound_to 10752
  153.8113  135.6895  153.4845 H   0  0  0  0  0  0  0  0  0  0  0  0  # atno 10764 bound_to 10752
  153.1790  135.4594  154.9948 H   0  0  0  0  0  0  0  0  0  0  0  0  # atno 10765 bound_to 10752
  140.1978  134.3907  155.8112 H   0  0  0  0  0  0  0  0  0  0  0  0  # atno 11005 bound_to 11000
  145.9014  140.9240  143.0501 LP  0  0  0  0  0  0  0  0  0  0  0  0  # atno 17320 bound_to 7965
  144.6727  140.1038  143.7459 LP  0  0  0  0  0  0  0  0  0  0  0  0  # atno 17321 bound_to 7965
  140.0150  143.5602  152.2823 LP  0  0  0  0  0  0  0  0  0  0  0  0  # atno 17342 bound_to 10162
  139.6340  144.7648  151.2477 LP  0  0  0  0  0  0  0  0  0  0  0  0  # atno 17343 bound_to 10162
  156.7108  130.8969  151.3609 LP  0  0  0  0  0  0  0  0  0  0  0  0  # atno 17370 bound_to 10713
  157.6930  130.9253  150.0567 LP  0  0  0  0  0  0  0  0  0  0  0  0  # atno 17371 bound_to 10713
  141.2227  133.7079  156.8207 LP  0  0  0  0  0  0  0  0  0  0  0  0  # atno 17394 bound_to 11000
  140.2087  134.8843  157.3250 LP  0  0  0  0  0  0  0  0  0  0  0  0  # atno 17395 bound_to 11000

$$$$
