AV-unprocessed.smi:2054|AV-procd|sdf|8332|dock5
  -GOLD-   2272011 03D 1   1.00000     0.00000
 Structure written by MMmdl.
 42 43  0  0  0  0  0  0  0  0  1 V2000
  150.0554  132.7082  154.9912 C   0  0  0  0  0  0  0  0  0  0  0  0
  149.4976  133.5174  156.5476 S   0  0  0  0  0  0  0  0  0  0  0  0
  148.0267  133.5242  156.5422 O   0  0  0  0  0  0  0  0  0  0  0  0
  150.2252  132.9315  157.6836 O   0  0  0  0  0  0  0  0  0  0  0  0
  150.0404  135.1545  156.3591 N   0  0  0  0  0  0  0  0  0  0  0  0
  149.4250  135.9549  155.2815 C   0  0  0  0  0  0  0  0  0  0  0  0
  149.6752  137.4584  155.4811 C   0  0  0  0  0  0  0  0  0  0  0  0
  151.1772  137.7601  155.6066 C   0  0  0  0  0  0  0  0  0  0  0  0
  151.4304  139.2593  155.8131 C   0  0  0  0  0  0  0  0  0  0  0  0
  152.0774  139.9009  154.9849 O   0  0  0  0  0  0  0  0  0  0  0  0
  150.9142  139.8052  156.9250 N   0  0  0  0  0  0  0  0  0  0  0  0
  151.0357  141.2078  157.3055 C   0  0  0  0  0  0  0  0  0  0  0  0
  151.8976  141.3820  158.5669 C   0  0  0  0  0  0  0  0  0  0  0  0
  151.8639  142.8053  159.0909 C   0  0  0  0  0  0  0  0  0  0  0  0
  152.1533  143.8933  158.2396 C   0  0  0  0  0  0  0  0  0  0  0  0
  152.1182  145.1943  158.7780 C   0  0  0  0  0  0  0  0  0  0  0  0
  151.7978  145.3566  160.1396 C   0  0  0  0  0  0  0  0  0  0  0  0
  151.5257  144.2055  160.9056 C   0  0  0  0  0  0  0  0  0  0  0  0
  151.5572  142.9537  160.3994 N   0  0  0  0  0  0  0  0  0  0  0  0
  151.7371  136.9335  156.7751 C   0  0  0  0  0  0  0  0  0  0  0  0
  151.4750  135.4311  156.5764 C   0  0  0  0  0  0  0  0  0  0  0  0
  149.6948  131.6800  154.9729 H   0  0  0  0  0  0  0  0  0  0  0  0
  151.1431  132.7037  154.9380 H   0  0  0  0  0  0  0  0  0  0  0  0
  149.6501  133.2473  154.1355 H   0  0  0  0  0  0  0  0  0  0  0  0
  149.8307  135.6281  154.3231 H   0  0  0  0  0  0  0  0  0  0  0  0
  148.3529  135.7683  155.2473 H   0  0  0  0  0  0  0  0  0  0  0  0
  149.2488  138.0114  154.6432 H   0  0  0  0  0  0  0  0  0  0  0  0
  149.1445  137.7942  156.3737 H   0  0  0  0  0  0  0  0  0  0  0  0
  151.6740  137.4450  154.6870 H   0  0  0  0  0  0  0  0  0  0  0  0
  150.3965  139.2058  157.5515 H   0  0  0  0  0  0  0  0  0  0  0  0
  151.4456  141.7878  156.4767 H   0  0  0  0  0  0  0  0  0  0  0  0
  150.0325  141.5942  157.4875 H   0  0  0  0  0  0  0  0  0  0  0  0
  151.5538  140.7042  159.3495 H   0  0  0  0  0  0  0  0  0  0  0  0
  152.9333  141.1087  158.3587 H   0  0  0  0  0  0  0  0  0  0  0  0
  152.3991  143.7368  157.1996 H   0  0  0  0  0  0  0  0  0  0  0  0
  152.3343  146.0517  158.1579 H   0  0  0  0  0  0  0  0  0  0  0  0
  151.7621  146.3391  160.5863 H   0  0  0  0  0  0  0  0  0  0  0  0
  151.2774  144.2927  161.9530 H   0  0  0  0  0  0  0  0  0  0  0  0
  152.8096  137.1040  156.8768 H   0  0  0  0  0  0  0  0  0  0  0  0
  151.2844  137.2534  157.7152 H   0  0  0  0  0  0  0  0  0  0  0  0
  151.8287  134.8911  157.4543 H   0  0  0  0  0  0  0  0  0  0  0  0
  152.0411  135.0545  155.7235 H   0  0  0  0  0  0  0  0  0  0  0  0
  1  2  1  0  0  0  0
  1 22  1  0  0  0  0
  1 23  1  0  0  0  0
  1 24  1  0  0  0  0
  2  3  2  0  0  0  0
  2  4  2  0  0  0  0
  2  5  1  0  0  0  0
  5 21  1  0  0  0  0
  5  6  1  0  0  0  0
  6  7  1  0  0  0  0
  6 25  1  0  0  0  0
  6 26  1  0  0  0  0
  7  8  1  0  0  0  0
  7 27  1  0  0  0  0
  7 28  1  0  0  0  0
  8  9  1  0  0  0  0
  8 20  1  0  0  0  0
  8 29  1  0  0  0  0
  9 10  2  0  0  0  0
  9 11  1  0  0  0  0
 11 12  1  0  0  0  0
 11 30  1  0  0  0  0
 12 13  1  0  0  0  0
 12 31  1  0  0  0  0
 12 32  1  0  0  0  0
 13 14  1  0  0  0  0
 13 33  1  0  0  0  0
 13 34  1  0  0  0  0
 14 19  1  0  0  0  0
 14 15  2  0  0  0  0
 15 16  1  0  0  0  0
 15 35  1  0  0  0  0
 16 17  2  0  0  0  0
 16 36  1  0  0  0  0
 17 18  1  0  0  0  0
 17 37  1  0  0  0  0
 18 19  2  0  0  0  0
 18 38  1  0  0  0  0
 20 21  1  0  0  0  0
 20 39  1  0  0  0  0
 20 40  1  0  0  0  0
 21 41  1  0  0  0  0
 21 42  1  0  0  0  0
M  END
> <s_m_source_file>
AV-unprocessed.smi

> <i_m_source_file_index>
2054

> <i_lp_mmshare_version>
43012

> <i_f3d_flags>
0

> <s_epik_input>
W0NIM11TKD1PKSg9TylOMVtDSDJdW0NIMl1bQ0hdKFtDSDJdW0NIMl0xKUMoPU8pW05IXVtDSDJdW0NIMl1jMltjSF1bY0hdW2NIXVtjSF1uMg==

> <s_epik_cmdline>
J2VwaWtfcHl0aG9uJywgJy1waCcsICc3LjAnLCAnLXRuJywgJzgnLCAnLW1hJywgJzIwMCcsICctbWV0YWxfYmluZGluZycsICctaW1hZScsICc8aW5maWxlLm1hZT4nLCAnLW9tYWUnLCAnPG91dGZpbGUubWFlPic=

> <r_epik_Ionization_Penalty>
0.0277532

> <r_epik_Ionization_Penalty_Charging>
0

> <r_epik_Ionization_Penalty_Neutral>
0.0277532

> <r_epik_State_Penalty>
0.022734

> <r_epik_Charging_Adjusted_Penalty>
0.022734

> <i_epik_Tot_Q>
0

> <i_epik_Tot_abs_Q>
0

> <r_epik_Metal_State_Penalty>
0.021713

> <b_epik_Metal_Only>
0

> <s_lp_Force_Field>
OPLS_2005

> <r_lp_Energy>
2.16831

> <b_lp_Chiralities_Consistent>
1

> <s_lp_Variant>
AV-unprocessed.smi:2054-1

> <Gold.Version>
5.8.1

> <Gold.Id.Protein>
6NUR|6NUR_protein|mol2

> <Gold.PLP.Fitness>
43.4000

> <Gold.PLP.PLP>
-38.1398

> <Gold.PLP.part.hbond>
-2.6605

> <Gold.PLP.part.metal>
0.0000

> <Gold.PLP.part.buried>
-5.9185

> <Gold.PLP.part.nonpolar>
-30.0526

> <Gold.PLP.part.repulsive>
0.1477

> <Gold.PLP.ligand.clash>
0.0000

> <Gold.PLP.ligand.torsion>
0.5045

> <Gold.PLP.Chemscore.Hbond>
1.8320

> <Gold.PLP.Chemscore.CHOScore>
0.0000

> <Gold.PLP.Chemscore.Metal>
0.0000

> <Gold.Chemscore.Hbonds>
donor molecule, donor type, donor heavy atom, donor atom, acceptor molecule, acceptor atom, score
      P1  H  6896  6909       L1     4  1.00
      P1  H  7989  7998       L1    10  0.82

> <Gold.PLP.Chemscore.Internal.Correction>
0.7732

> <Gold.Rescore>
     Score         DG    S(hbond)    S(metal)    S(lipo)     H(rot)  DE(clash)    DE(int)     intcor
     18.48     -19.05       1.97        0.00     100.03       1.84       0.09       0.48       ----

> <Gold.Chemscore.Fitness>
18.4762

> <Gold.Chemscore.DG>
-19.0454

> <Gold.Chemscore.ZeroCoef>
-5.4800

> <Gold.Chemscore.Hbond>
1.9693

> <Gold.Chemscore.Metal>
0.0000

> <Gold.Chemscore.Lipo>
100.0290

> <Gold.Chemscore.Internal_Hbond>
0.0000

> <Gold.Chemscore.DEClash>
0.0939

> <Gold.Chemscore.DEInternal>
0.4753

> <Gold.Chemscore.Rot>
1.8419

> <Gold.Chemscore.Internal.Correction>
   9.000000E+99

> <Gold.Chemscore.Hbonds>
donor molecule, donor type, donor heavy atom, donor atom, acceptor molecule, acceptor atom, score
      P1  H  6896  6909       L1     4  0.99
      P1  H  7989  7998       L1    10  0.81

> <Gold.Chemscore.Hbond.Weighted>
-6.5773

> <Gold.Chemscore.Metal.Weighted>
-0.0000

> <Gold.Chemscore.Lipo.Weighted>
-11.7034

> <Gold.Chemscore.Internal_Hbond.Weighted>
0.0000

> <Gold.Chemscore.DEClash.Weighted>
0.0939

> <Gold.Chemscore.DEInternal.Weighted>
0.4753

> <Gold.Chemscore.Rot.Weighted>
4.7153

> <Gold.Chemscore.Internal.Correction.Weighted>
   9.000000E+99

> <Gold.Protein.RotatedTorsions>
[ 6907 6896 6895 6894 ] final   -4.42 input  -60.11 | X-H torsion
[ 7974 7965 7964 7962 ] final   60.82 input  175.53 | X-H torsion
[ 8008 7997 7996 7995 ] final   96.50 input   59.86 | X-H torsion
[ 10167 10162 10161 10158 ] final -126.06 input  -65.29 | X-H torsion
[ 10718 10713 10712 10709 ] final  178.98 input   66.30 | X-H torsion
[ 10763 10752 10751 10750 ] final   53.18 input  -60.55 | X-H torsion
[ 11005 11000 10999 10996 ] final  -49.54 input  -57.11 | X-H torsion

> <Gold.Protein.ActiveResidues>
 VAL166  LYS551  ARG553  GLY616  TRP617  ASP618  TYR619  PRO620  LYS621  CYS622 
 ASP623  PHE694  ASN695  SER759  ASP760  ASP761  ALA762  ILE779  LEU786  VAL792 
 PHE793  MET794  SER795  GLU796  ALA797  LYS798  CYS799  TRP800  GLU811  SER814 

> <Gold.Protein.RotatedAtoms>
  151.4979  135.1060  159.9820 H   0  0  0  0  0  0  0  0  0  0  0  0  # atno 6907 bound_to 6896
  152.4714  133.8034  159.6975 H   0  0  0  0  0  0  0  0  0  0  0  0  # atno 6908 bound_to 6896
  150.8725  133.7422  159.2983 H   0  0  0  0  0  0  0  0  0  0  0  0  # atno 6909 bound_to 6896
  145.8918  139.3516  143.0645 H   0  0  0  0  0  0  0  0  0  0  0  0  # atno 7974 bound_to 7965
  156.0803  140.3271  155.7686 H   0  0  0  0  0  0  0  0  0  0  0  0  # atno 8008 bound_to 7997
  155.5163  140.0581  157.2932 H   0  0  0  0  0  0  0  0  0  0  0  0  # atno 8009 bound_to 7997
  154.4578  140.1951  156.0346 H   0  0  0  0  0  0  0  0  0  0  0  0  # atno 8010 bound_to 7997
  139.9754  143.5800  152.2397 H   0  0  0  0  0  0  0  0  0  0  0  0  # atno 10167 bound_to 10162
  156.8825  130.9820  151.3060 H   0  0  0  0  0  0  0  0  0  0  0  0  # atno 10718 bound_to 10713
  152.9793  135.5787  154.4699 H   0  0  0  0  0  0  0  0  0  0  0  0  # atno 10763 bound_to 10752
  154.4263  135.2772  155.1944 H   0  0  0  0  0  0  0  0  0  0  0  0  # atno 10764 bound_to 10752
  154.3672  135.6176  153.5775 H   0  0  0  0  0  0  0  0  0  0  0  0  # atno 10765 bound_to 10752
  141.0765  133.6664  156.3600 H   0  0  0  0  0  0  0  0  0  0  0  0  # atno 11005 bound_to 11000
  145.8899  140.9310  143.0557 LP  0  0  0  0  0  0  0  0  0  0  0  0  # atno 17320 bound_to 7965
  144.6731  140.0892  143.7466 LP  0  0  0  0  0  0  0  0  0  0  0  0  # atno 17321 bound_to 7965
  139.6449  144.7657  151.2263 LP  0  0  0  0  0  0  0  0  0  0  0  0  # atno 17342 bound_to 10162
  140.7507  143.6255  150.8472 LP  0  0  0  0  0  0  0  0  0  0  0  0  # atno 17343 bound_to 10162
  157.6131  130.8598  149.8985 LP  0  0  0  0  0  0  0  0  0  0  0  0  # atno 17370 bound_to 10713
  156.0670  130.3691  150.0858 LP  0  0  0  0  0  0  0  0  0  0  0  0  # atno 17371 bound_to 10713
  140.5562  134.5979  157.5421 LP  0  0  0  0  0  0  0  0  0  0  0  0  # atno 17394 bound_to 11000
  139.9577  134.7506  156.0304 LP  0  0  0  0  0  0  0  0  0  0  0  0  # atno 17395 bound_to 11000

$$$$
