AV-unprocessed.smi:180|AV-procd|sdf|1451|dock10
  -GOLD-   2262019253D 1   1.00000     0.00000
 Structure written by MMmdl.
 54 57  0  0  0  0  0  0  0  0  1 V2000
  158.2474  140.6676  159.5922 C   0  0  0  0  0  0  0  0  0  0  0  0
  156.9945  139.9291  160.0519 C   0  0  0  0  0  0  0  0  0  0  0  0
  156.7681  138.7926  159.6384 O   0  0  0  0  0  0  0  0  0  0  0  0
  156.1910  140.5844  160.9036 N   0  0  0  0  0  0  0  0  0  0  0  0
  154.9578  140.0538  161.4786 C   0  0  0  0  0  0  0  0  0  0  0  0
  153.6909  140.6381  160.8238 C   0  0  2  0  0  0  0  0  0  0  0  0
  153.5817  140.3349  159.3149 C   0  0  0  0  0  0  0  0  0  0  0  0
  152.3882  140.9671  158.7584 N   0  0  0  0  0  0  0  0  0  0  0  0
  151.9976  140.6038  157.5096 C   0  0  0  0  0  0  0  0  0  0  0  0
  152.7792  139.7720  156.7694 N   0  0  0  0  0  0  0  0  0  0  0  0
  152.4069  139.4099  155.5385 C   0  0  0  0  0  0  0  0  0  0  0  0
  151.3071  139.7518  154.8655 N   0  0  0  0  0  0  0  0  0  0  0  0
  150.5121  140.5770  155.6046 C   0  0  0  0  0  0  0  0  0  0  0  0
  150.7803  141.0507  156.9205 C   0  0  0  0  0  0  0  0  0  0  0  0
  149.7379  141.8647  157.3486 N   0  0  0  0  0  0  0  0  0  0  0  0
  148.9093  141.8809  156.3409 C   0  0  0  0  0  0  0  0  0  0  0  0
  149.2879  141.1215  155.2570 N   0  0  0  0  0  0  0  0  0  0  0  0
  148.5569  140.9552  154.0102 C   0  0  0  0  0  0  0  0  0  0  0  0
  147.9590  139.5406  153.7986 C   0  0  0  0  0  0  0  0  0  0  0  0
  149.0465  138.7332  153.3847 O   0  0  0  0  0  0  0  0  0  0  0  0
  147.3666  138.9340  155.0894 C   0  0  0  0  0  0  0  0  0  0  0  0
  146.6982  137.5719  154.8296 C   0  0  0  0  0  0  0  0  0  0  0  0
  145.7052  137.7012  153.8185 O   0  0  0  0  0  0  0  0  0  0  0  0
  146.2402  138.1096  152.5648 C   0  0  0  0  0  0  0  0  0  0  0  0
  146.8809  139.5033  152.6939 C   0  0  0  0  0  0  0  0  0  0  0  0
  152.3137  142.3967  159.0421 C   0  0  0  0  0  0  0  0  0  0  0  0
  152.4580  142.6433  160.5526 C   0  0  0  0  0  0  0  0  0  0  0  0
  153.6626  142.0493  161.0248 O   0  0  0  0  0  0  0  0  0  0  0  0
  158.4597  141.5286  160.2272 H   0  0  0  0  0  0  0  0  0  0  0  0
  158.1212  141.0185  158.5679 H   0  0  0  0  0  0  0  0  0  0  0  0
  159.1108  140.0024  159.6231 H   0  0  0  0  0  0  0  0  0  0  0  0
  156.4590  141.5166  161.1843 H   0  0  0  0  0  0  0  0  0  0  0  0
  154.9699  138.9733  161.3341 H   0  0  0  0  0  0  0  0  0  0  0  0
  154.9355  140.2139  162.5579 H   0  0  0  0  0  0  0  0  0  0  0  0
  152.8282  140.2059  161.3342 H   0  0  0  0  0  0  0  0  0  0  0  0
  154.4594  140.7077  158.7852 H   0  0  0  0  0  0  0  0  0  0  0  0
  153.5400  139.2556  159.1609 H   0  0  0  0  0  0  0  0  0  0  0  0
  153.0872  138.7510  155.0194 H   0  0  0  0  0  0  0  0  0  0  0  0
  147.9871  142.4434  156.3645 H   0  0  0  0  0  0  0  0  0  0  0  0
  147.7644  141.7046  153.9839 H   0  0  0  0  0  0  0  0  0  0  0  0
  149.2321  141.2025  153.1896 H   0  0  0  0  0  0  0  0  0  0  0  0
  148.7044  137.9219  153.0418 H   0  0  0  0  0  0  0  0  0  0  0  0
  148.1363  138.8364  155.8560 H   0  0  0  0  0  0  0  0  0  0  0  0
  146.6088  139.6019  155.4989 H   0  0  0  0  0  0  0  0  0  0  0  0
  147.4329  136.8191  154.5401 H   0  0  0  0  0  0  0  0  0  0  0  0
  146.2222  137.2119  155.7418 H   0  0  0  0  0  0  0  0  0  0  0  0
  146.9622  137.3738  152.2074 H   0  0  0  0  0  0  0  0  0  0  0  0
  145.4327  138.1380  151.8332 H   0  0  0  0  0  0  0  0  0  0  0  0
  146.0871  140.2131  152.9255 H   0  0  0  0  0  0  0  0  0  0  0  0
  147.3018  139.8140  151.7368 H   0  0  0  0  0  0  0  0  0  0  0  0
  153.1151  142.9054  158.5047 H   0  0  0  0  0  0  0  0  0  0  0  0
  151.3766  142.8287  158.6941 H   0  0  0  0  0  0  0  0  0  0  0  0
  152.4874  143.7137  160.7567 H   0  0  0  0  0  0  0  0  0  0  0  0
  151.6024  142.2389  161.0959 H   0  0  0  0  0  0  0  0  0  0  0  0
  1  2  1  0  0  0  0
  1 29  1  0  0  0  0
  1 30  1  0  0  0  0
  1 31  1  0  0  0  0
  2  3  2  0  0  0  0
  2  4  1  0  0  0  0
  4  5  1  0  0  0  0
  4 32  1  0  0  0  0
  5  6  1  0  0  0  0
  5 33  1  0  0  0  0
  5 34  1  0  0  0  0
  6 28  1  0  0  0  0
  6  7  1  0  0  0  0
  6 35  1  0  0  0  0
  7  8  1  0  0  0  0
  7 36  1  0  0  0  0
  7 37  1  0  0  0  0
  8  9  1  0  0  0  0
  8 26  1  0  0  0  0
  9 14  1  0  0  0  0
  9 10  2  0  0  0  0
 10 11  1  0  0  0  0
 11 12  2  0  0  0  0
 11 38  1  0  0  0  0
 12 13  1  0  0  0  0
 13 17  1  0  0  0  0
 13 14  2  0  0  0  0
 14 15  1  0  0  0  0
 15 16  2  0  0  0  0
 16 17  1  0  0  0  0
 16 39  1  0  0  0  0
 17 18  1  0  0  0  0
 18 19  1  0  0  0  0
 18 40  1  0  0  0  0
 18 41  1  0  0  0  0
 19 25  1  0  0  0  0
 19 20  1  0  0  0  0
 19 21  1  0  0  0  0
 20 42  1  0  0  0  0
 21 22  1  0  0  0  0
 21 43  1  0  0  0  0
 21 44  1  0  0  0  0
 22 23  1  0  0  0  0
 22 45  1  0  0  0  0
 22 46  1  0  0  0  0
 23 24  1  0  0  0  0
 24 25  1  0  0  0  0
 24 47  1  0  0  0  0
 24 48  1  0  0  0  0
 25 49  1  0  0  0  0
 25 50  1  0  0  0  0
 26 27  1  0  0  0  0
 26 51  1  0  0  0  0
 26 52  1  0  0  0  0
 27 28  1  0  0  0  0
 27 53  1  0  0  0  0
 27 54  1  0  0  0  0
M  END
> <s_m_source_file>
AV-unprocessed.smi

> <i_m_source_file_index>
180

> <i_lp_mmshare_version>
43012

> <i_f3d_flags>
0

> <s_epik_input>
W0NIM11DKD1PKVtOSF1bQ0gyXVtDQEBIXTFbQ0gyXU4oW0NIMl1bQ0gyXU8xKWMobltjSF1uMiljKGMyMyluW2NIXW4zW0NIMl1DNChbT0hdKVtDSDJdW0NIMl1PW0NIMl1bQ0gyXTQ=

> <s_epik_cmdline>
J2VwaWtfcHl0aG9uJywgJy1waCcsICc3LjAnLCAnLXRuJywgJzgnLCAnLW1hJywgJzIwMCcsICctbWV0YWxfYmluZGluZycsICctaW1hZScsICc8aW5maWxlLm1hZT4nLCAnLW9tYWUnLCAnPG91dGZpbGUubWFlPic=

> <r_lp_tautomer_probability>
1

> <r_epik_Ionization_Penalty>
7.38871e-05

> <r_epik_Ionization_Penalty_Charging>
0

> <r_epik_Ionization_Penalty_Neutral>
7.38871e-05

> <r_epik_State_Penalty>
-0

> <r_epik_Charging_Adjusted_Penalty>
0

> <i_epik_Tot_Q>
0

> <i_epik_Tot_abs_Q>
0

> <r_epik_Metal_State_Penalty>
-0

> <b_epik_Metal_Only>
0

> <s_lp_Force_Field>
OPLS_2005

> <r_lp_Energy>
31.1245

> <b_lp_Chiralities_Consistent>
1

> <s_lp_Variant>
AV-unprocessed.smi:180-1

> <Gold.Version>
5.8.1

> <Gold.Id.Protein>
6NUR|6NUR_protein|mol2

> <Gold.PLP.Fitness>
53.5564

> <Gold.PLP.PLP>
-44.7211

> <Gold.PLP.part.hbond>
-5.0000

> <Gold.PLP.part.metal>
0.0000

> <Gold.PLP.part.buried>
-1.4150

> <Gold.PLP.part.nonpolar>
-38.0045

> <Gold.PLP.part.repulsive>
0.3818

> <Gold.PLP.ligand.clash>
0.0000

> <Gold.PLP.ligand.torsion>
0.5944

> <Gold.PLP.Chemscore.Hbond>
2.9280

> <Gold.PLP.Chemscore.CHOScore>
0.2933

> <Gold.PLP.Chemscore.Metal>
0.0000

> <Gold.Chemscore.Hbonds>
donor molecule, donor type, donor heavy atom, donor atom, acceptor molecule, acceptor atom, score
      L1  H    20    42       P1  7948  0.90
      P1  H  7989  7998       L1    12  0.95
      P1  H  7997  8008       L1    10  0.94
      L1  C    16    39       P1  8028  0.40

> <Gold.PLP.Chemscore.Internal.Correction>
0.3603

> <Gold.Rescore>
     Score         DG    S(hbond)    S(metal)    S(lipo)     H(rot)  DE(clash)    DE(int)     intcor
     12.50     -13.64       1.82        0.00      83.17       2.99       0.42       0.72       ----

> <Gold.Chemscore.Fitness>
12.5018

> <Gold.Chemscore.DG>
-13.6416

> <Gold.Chemscore.ZeroCoef>
-5.4800

> <Gold.Chemscore.Hbond>
1.8209

> <Gold.Chemscore.Metal>
0.0000

> <Gold.Chemscore.Lipo>
83.1663

> <Gold.Chemscore.Internal_Hbond>
0.0000

> <Gold.Chemscore.DEClash>
0.4172

> <Gold.Chemscore.DEInternal>
0.7225

> <Gold.Chemscore.Rot>
2.9885

> <Gold.Chemscore.Internal.Correction>
   9.000000E+99

> <Gold.Chemscore.Hbonds>
donor molecule, donor type, donor heavy atom, donor atom, acceptor molecule, acceptor atom, score
      L1  H    20    42       P1  7948  0.83
      P1  H  7989  7998       L1    12  0.18
      P1  H  7997  8008       L1    10  0.66

> <Gold.Chemscore.Hbond.Weighted>
-6.0817

> <Gold.Chemscore.Metal.Weighted>
-0.0000

> <Gold.Chemscore.Lipo.Weighted>
-9.7305

> <Gold.Chemscore.Internal_Hbond.Weighted>
0.0000

> <Gold.Chemscore.DEClash.Weighted>
0.4172

> <Gold.Chemscore.DEInternal.Weighted>
0.7225

> <Gold.Chemscore.Rot.Weighted>
7.6506

> <Gold.Chemscore.Internal.Correction.Weighted>
   9.000000E+99

> <Gold.Protein.RotatedTorsions>
[ 6907 6896 6895 6894 ] final  106.61 input  -60.11 | X-H torsion
[ 7974 7965 7964 7962 ] final   42.86 input  175.53 | X-H torsion
[ 8008 7997 7996 7995 ] final  -74.19 input   59.86 | X-H torsion
[ 10167 10162 10161 10158 ] final  -59.88 input  -65.29 | X-H torsion
[ 10718 10713 10712 10709 ] final  -23.94 input   66.30 | X-H torsion
[ 10763 10752 10751 10750 ] final -171.56 input  -60.55 | X-H torsion
[ 11005 11000 10999 10996 ] final -120.06 input  -57.11 | X-H torsion

> <Gold.Protein.ActiveResidues>
 VAL166  LYS551  ARG553  GLY616  TRP617  ASP618  TYR619  PRO620  LYS621  CYS622 
 ASP623  PHE694  ASN695  SER759  ASP760  ASP761  ALA762  ILE779  LEU786  VAL792 
 PHE793  MET794  SER795  GLU796  ALA797  LYS798  CYS799  TRP800  GLU811  SER814 

> <Gold.Protein.RotatedAtoms>
  152.5187  133.9356  159.7601 H   0  0  0  0  0  0  0  0  0  0  0  0  # atno 6907 bound_to 6896
  150.9697  133.6349  159.2747 H   0  0  0  0  0  0  0  0  0  0  0  0  # atno 6908 bound_to 6896
  151.3565  135.0901  159.9473 H   0  0  0  0  0  0  0  0  0  0  0  0  # atno 6909 bound_to 6896
  146.0704  139.5252  142.9601 H   0  0  0  0  0  0  0  0  0  0  0  0  # atno 7974 bound_to 7965
  154.5310  140.0766  156.8345 H   0  0  0  0  0  0  0  0  0  0  0  0  # atno 8008 bound_to 7997
  155.3375  140.3405  155.4221 H   0  0  0  0  0  0  0  0  0  0  0  0  # atno 8009 bound_to 7997
  156.1781  140.1642  156.8312 H   0  0  0  0  0  0  0  0  0  0  0  0  # atno 8010 bound_to 7997
  140.6107  143.2386  151.5717 H   0  0  0  0  0  0  0  0  0  0  0  0  # atno 10167 bound_to 10162
  156.4843  130.4552  149.6793 H   0  0  0  0  0  0  0  0  0  0  0  0  # atno 10718 bound_to 10713
  154.6291  135.2884  155.0237 H   0  0  0  0  0  0  0  0  0  0  0  0  # atno 10763 bound_to 10752
  154.1404  135.6519  153.4945 H   0  0  0  0  0  0  0  0  0  0  0  0  # atno 10764 bound_to 10752
  153.0271  135.5331  154.7111 H   0  0  0  0  0  0  0  0  0  0  0  0  # atno 10765 bound_to 10752
  141.0171  134.0179  157.3335 H   0  0  0  0  0  0  0  0  0  0  0  0  # atno 11005 bound_to 11000
  145.6401  141.0286  143.1816 LP  0  0  0  0  0  0  0  0  0  0  0  0  # atno 17320 bound_to 7965
  144.7228  139.7972  143.7375 LP  0  0  0  0  0  0  0  0  0  0  0  0  # atno 17321 bound_to 7965
  139.5359  144.2784  152.1249 LP  0  0  0  0  0  0  0  0  0  0  0  0  # atno 17342 bound_to 10162
  140.1982  144.4684  150.6444 LP  0  0  0  0  0  0  0  0  0  0  0  0  # atno 17343 bound_to 10162
  156.3490  130.7422  151.2378 LP  0  0  0  0  0  0  0  0  0  0  0  0  # atno 17370 bound_to 10713
  157.7480  131.0382  150.4494 LP  0  0  0  0  0  0  0  0  0  0  0  0  # atno 17371 bound_to 10713
  139.9123  135.0192  156.7743 LP  0  0  0  0  0  0  0  0  0  0  0  0  # atno 17394 bound_to 11000
  140.6636  133.9622  155.7818 LP  0  0  0  0  0  0  0  0  0  0  0  0  # atno 17395 bound_to 11000

$$$$
