AV-unprocessed.smi:2784|AV-procd|sdf|10734|dock6
  -GOLD-   2272015173D 1   1.00000     0.00000
 Structure written by MMmdl.
 31 32  0  0  0  0  0  0  0  0  1 V2000
  150.9314  137.9160  154.4123 C   0  0  0  0  0  0  0  0  0  0  0  0
  150.8217  139.3247  154.2825 O   0  0  0  0  0  0  0  0  0  0  0  0
  149.6273  139.8557  154.8401 C   0  0  2  0  0  0  0  0  0  0  0  0
  148.4193  139.3059  154.0768 C   0  0  0  0  0  0  0  0  0  0  0  0
  147.3517  140.3828  154.2315 C   0  0  0  0  0  0  0  0  0  0  0  0
  148.1344  141.6918  154.1339 C   0  0  0  0  0  0  0  0  0  0  0  0
  149.5322  141.3937  154.7123 C   0  0  1  0  0  0  0  0  0  0  0  0
  149.7071  142.0281  156.0167 N   0  0  0  0  0  0  0  0  0  0  0  0
  150.6423  141.7051  156.9219 C   0  0  0  0  0  0  0  0  0  0  0  0
  151.4692  140.8126  156.7101 O   0  0  0  0  0  0  0  0  0  0  0  0
  150.4914  142.4791  158.0626 N   0  0  0  0  0  0  0  0  0  0  0  0
  151.4096  142.4527  158.9795 C   0  0  0  0  0  0  0  0  0  0  0  0
  152.6052  141.7497  159.1029 N   0  0  0  0  0  0  0  0  0  0  0  0
  153.1841  142.0990  160.2907 C   0  0  0  0  0  0  0  0  0  0  0  0
  152.3912  142.9812  160.8915 C   0  0  0  0  0  0  0  0  0  0  0  0
  151.2977  143.2170  160.1134 O   0  0  0  0  0  0  0  0  0  0  0  0
  151.8554  137.5783  153.9433 H   0  0  0  0  0  0  0  0  0  0  0  0
  150.1012  137.4086  153.9197 H   0  0  0  0  0  0  0  0  0  0  0  0
  150.9572  137.6082  155.4580 H   0  0  0  0  0  0  0  0  0  0  0  0
  149.5297  139.5470  155.8833 H   0  0  0  0  0  0  0  0  0  0  0  0
  148.6658  139.1933  153.0199 H   0  0  0  0  0  0  0  0  0  0  0  0
  148.0964  138.3328  154.4478 H   0  0  0  0  0  0  0  0  0  0  0  0
  146.5647  140.3066  153.4807 H   0  0  0  0  0  0  0  0  0  0  0  0
  146.8865  140.3024  155.2149 H   0  0  0  0  0  0  0  0  0  0  0  0
  148.2346  141.9717  153.0843 H   0  0  0  0  0  0  0  0  0  0  0  0
  147.6207  142.5136  154.6350 H   0  0  0  0  0  0  0  0  0  0  0  0
  150.2905  141.7559  154.0154 H   0  0  0  0  0  0  0  0  0  0  0  0
  149.0560  142.7619  156.2552 H   0  0  0  0  0  0  0  0  0  0  0  0
  153.0113  141.0894  158.4552 H   0  0  0  0  0  0  0  0  0  0  0  0
  154.1281  141.6662  160.5874 H   0  0  0  0  0  0  0  0  0  0  0  0
  152.4608  143.5093  161.8311 H   0  0  0  0  0  0  0  0  0  0  0  0
  1  2  1  0  0  0  0
  1 17  1  0  0  0  0
  1 18  1  0  0  0  0
  1 19  1  0  0  0  0
  2  3  1  0  0  0  0
  3  7  1  0  0  0  0
  3  4  1  0  0  0  0
  3 20  1  0  0  0  0
  4  5  1  0  0  0  0
  4 21  1  0  0  0  0
  4 22  1  0  0  0  0
  5  6  1  0  0  0  0
  5 23  1  0  0  0  0
  5 24  1  0  0  0  0
  6  7  1  0  0  0  0
  6 25  1  0  0  0  0
  6 26  1  0  0  0  0
  7  8  1  0  0  0  0
  7 27  1  0  0  0  0
  8 28  1  0  0  0  0
  8  9  1  0  0  0  0
  9 11  1  0  0  0  0
  9 10  2  0  0  0  0
 11 12  2  0  0  0  0
 12 16  1  0  0  0  0
 12 13  1  0  0  0  0
 13 29  1  0  0  0  0
 13 14  1  0  0  0  0
 14 30  1  0  0  0  0
 14 15  2  0  0  0  0
 15 31  1  0  0  0  0
 15 16  1  0  0  0  0
M  END
> <s_m_source_file>
AV-unprocessed.smi

> <i_m_source_file_index>
2784

> <i_lp_mmshare_version>
43012

> <i_f3d_flags>
0

> <s_epik_input>
W0NIM11PW0NAQEhdMVtDSDJdW0NIMl1bQ0gyXVtDQEhdMVtOSF1DKD1PKVtOSF1jMm5bY0hdW2NIXW8y

> <s_epik_cmdline>
J2VwaWtfcHl0aG9uJywgJy1waCcsICc3LjAnLCAnLXRuJywgJzgnLCAnLW1hJywgJzIwMCcsICctbWV0YWxfYmluZGluZycsICctaW1hZScsICc8aW5maWxlLm1hZT4nLCAnLW9tYWUnLCAnPG91dGZpbGUubWFlPic=

> <r_lp_tautomer_probability>
0.107061

> <r_epik_Ionization_Penalty>
1.29244

> <r_epik_Ionization_Penalty_Charging>
1.29208

> <r_epik_Ionization_Penalty_Neutral>
0.000359742

> <r_epik_State_Penalty>
2.59896

> <r_epik_Charging_Adjusted_Penalty>
3.89105

> <i_epik_Tot_Q>
0

> <i_epik_Tot_abs_Q>
0

> <r_epik_Metal_State_Penalty>
3.62496

> <b_epik_Metal_Only>
0

> <s_lp_Force_Field>
OPLS_2005

> <r_lp_Energy>
42.7812

> <b_lp_Chiralities_Consistent>
1

> <s_lp_Variant>
AV-unprocessed.smi:2784-9

> <Gold.Version>
5.8.1

> <Gold.Id.Protein>
6NUR|6NUR_protein|mol2

> <Gold.PLP.Fitness>
36.0632

> <Gold.PLP.PLP>
-31.4846

> <Gold.PLP.part.hbond>
-2.3310

> <Gold.PLP.part.metal>
0.0000

> <Gold.PLP.part.buried>
-3.7263

> <Gold.PLP.part.nonpolar>
-24.7611

> <Gold.PLP.part.repulsive>
0.5101

> <Gold.PLP.ligand.clash>
0.0000

> <Gold.PLP.ligand.torsion>
0.2461

> <Gold.PLP.Chemscore.Hbond>
1.6880

> <Gold.PLP.Chemscore.CHOScore>
0.0000

> <Gold.PLP.Chemscore.Metal>
0.0000

> <Gold.Chemscore.Hbonds>
donor molecule, donor type, donor heavy atom, donor atom, acceptor molecule, acceptor atom, score
      L1  H     8    28       P1  8028  0.62
      P1  H  7989  7998       L1     2  1.00

> <Gold.PLP.Chemscore.Internal.Correction>
0.0067

> <Gold.Rescore>
     Score         DG    S(hbond)    S(metal)    S(lipo)     H(rot)  DE(clash)    DE(int)     intcor
     11.74     -14.97       1.54        0.00      66.14       1.32       0.02       3.21       ----

> <Gold.Chemscore.Fitness>
11.7412

> <Gold.Chemscore.DG>
-14.9733

> <Gold.Chemscore.ZeroCoef>
-5.4800

> <Gold.Chemscore.Hbond>
1.5398

> <Gold.Chemscore.Metal>
0.0000

> <Gold.Chemscore.Lipo>
66.1422

> <Gold.Chemscore.Internal_Hbond>
0.0000

> <Gold.Chemscore.DEClash>
0.0235

> <Gold.Chemscore.DEInternal>
3.2086

> <Gold.Chemscore.Rot>
1.3235

> <Gold.Chemscore.Internal.Correction>
   9.000000E+99

> <Gold.Chemscore.Hbonds>
donor molecule, donor type, donor heavy atom, donor atom, acceptor molecule, acceptor atom, score
      L1  H     8    28       P1  8028  0.59
      P1  H  7989  7998       L1     2  0.40

> <Gold.Chemscore.Hbond.Weighted>
-5.1428

> <Gold.Chemscore.Metal.Weighted>
-0.0000

> <Gold.Chemscore.Lipo.Weighted>
-7.7386

> <Gold.Chemscore.Internal_Hbond.Weighted>
0.0000

> <Gold.Chemscore.DEClash.Weighted>
0.0235

> <Gold.Chemscore.DEInternal.Weighted>
3.2086

> <Gold.Chemscore.Rot.Weighted>
3.3882

> <Gold.Chemscore.Internal.Correction.Weighted>
   9.000000E+99

> <Gold.Protein.RotatedTorsions>
[ 6907 6896 6895 6894 ] final  -33.33 input  -60.11 | X-H torsion
[ 7974 7965 7964 7962 ] final  -77.55 input  175.53 | X-H torsion
[ 8008 7997 7996 7995 ] final   26.33 input   59.86 | X-H torsion
[ 10167 10162 10161 10158 ] final  159.08 input  -65.29 | X-H torsion
[ 10718 10713 10712 10709 ] final   37.60 input   66.30 | X-H torsion
[ 10763 10752 10751 10750 ] final  102.77 input  -60.55 | X-H torsion
[ 11005 11000 10999 10996 ] final   72.67 input  -57.11 | X-H torsion

> <Gold.Protein.ActiveResidues>
 VAL166  LYS551  ARG553  GLY616  TRP617  ASP618  TYR619  PRO620  LYS621  CYS622 
 ASP623  PHE694  ASN695  SER759  ASP760  ASP761  ALA762  ILE779  LEU786  VAL792 
 PHE793  MET794  SER795  GLU796  ALA797  LYS798  CYS799  TRP800  GLU811  SER814 

> <Gold.Protein.RotatedAtoms>
  151.0670  134.9774  159.8289 H   0  0  0  0  0  0  0  0  0  0  0  0  # atno 6907 bound_to 6896
  152.5403  134.2346  159.8848 H   0  0  0  0  0  0  0  0  0  0  0  0  # atno 6908 bound_to 6896
  151.2369  133.4377  159.2639 H   0  0  0  0  0  0  0  0  0  0  0  0  # atno 6909 bound_to 6896
  145.5982  140.9415  143.1255 H   0  0  0  0  0  0  0  0  0  0  0  0  # atno 7974 bound_to 7965
  155.0255  140.3152  155.4777 H   0  0  0  0  0  0  0  0  0  0  0  0  # atno 8008 bound_to 7997
  156.2884  140.2189  156.5317 H   0  0  0  0  0  0  0  0  0  0  0  0  # atno 8009 bound_to 7997
  154.7415  140.0473  157.0803 H   0  0  0  0  0  0  0  0  0  0  0  0  # atno 8010 bound_to 7997
  139.4830  144.4764  151.8505 H   0  0  0  0  0  0  0  0  0  0  0  0  # atno 10167 bound_to 10162
  157.3489  130.7587  149.6964 H   0  0  0  0  0  0  0  0  0  0  0  0  # atno 10718 bound_to 10713
  153.3439  135.3999  155.1594 H   0  0  0  0  0  0  0  0  0  0  0  0  # atno 10763 bound_to 10752
  154.8649  135.3640  154.5309 H   0  0  0  0  0  0  0  0  0  0  0  0  # atno 10764 bound_to 10752
  153.5756  135.7078  153.5545 H   0  0  0  0  0  0  0  0  0  0  0  0  # atno 10765 bound_to 10752
  139.9479  134.7280  156.0934 H   0  0  0  0  0  0  0  0  0  0  0  0  # atno 11005 bound_to 11000
  144.7321  139.7693  143.7343 LP  0  0  0  0  0  0  0  0  0  0  0  0  # atno 17320 bound_to 7965
  146.1596  139.4706  142.9996 LP  0  0  0  0  0  0  0  0  0  0  0  0  # atno 17321 bound_to 7965
  140.4237  144.2209  150.5887 LP  0  0  0  0  0  0  0  0  0  0  0  0  # atno 17342 bound_to 10162
  140.4848  143.2367  151.8903 LP  0  0  0  0  0  0  0  0  0  0  0  0  # atno 17343 bound_to 10162
  155.9718  130.4146  150.4141 LP  0  0  0  0  0  0  0  0  0  0  0  0  # atno 17370 bound_to 10713
  157.2201  131.0480  151.2551 LP  0  0  0  0  0  0  0  0  0  0  0  0  # atno 17371 bound_to 10713
  141.1134  133.6635  156.3034 LP  0  0  0  0  0  0  0  0  0  0  0  0  # atno 17394 bound_to 11000
  140.5790  134.5764  157.5475 LP  0  0  0  0  0  0  0  0  0  0  0  0  # atno 17395 bound_to 11000

$$$$
