AV-unprocessed.smi:1563|AV-procd|sdf|6289|dock8
  -GOLD-   22720 6483D 1   1.00000     0.00000
 Structure written by MMmdl.
 43 44  0  0  0  0  0  0  0  0  1 V2000
  159.0172  136.3969  166.2342 C   0  0  0  0  0  0  0  0  0  0  0  0
  158.0018  136.5843  165.1121 C   0  0  0  0  0  0  0  0  0  0  0  0
  158.1159  135.9499  164.0640 O   0  0  0  0  0  0  0  0  0  0  0  0
  157.0137  137.4606  165.3476 N   0  0  0  0  0  0  0  0  0  0  0  0
  155.9438  137.7973  164.4132 C   0  0  2  0  0  0  0  0  0  0  0  0
  154.9180  136.6448  164.3633 C   0  0  0  0  0  0  0  0  0  0  0  0
  153.8693  136.8525  163.2545 C   0  0  0  0  0  0  0  0  0  0  0  0
  154.5481  137.1709  161.9116 C   0  0  0  0  0  0  0  0  0  0  0  0
  155.4032  138.3573  162.0871 N   0  0  0  0  0  0  0  0  0  0  0  0
  155.1740  139.5976  161.5851 C   0  0  0  0  0  0  0  0  0  0  0  0
  155.9239  140.5542  161.7840 O   0  0  0  0  0  0  0  0  0  0  0  0
  154.0471  139.7076  160.8606 N   0  0  0  0  0  0  0  0  0  0  0  0
  153.5858  140.9020  160.1578 C   0  0  0  0  0  0  0  0  0  0  0  0
  153.4255  142.1008  161.1105 C   0  0  0  0  0  0  0  0  0  0  0  0
  152.5688  143.2219  160.5450 C   0  0  0  0  0  0  0  0  0  0  0  0
  152.8305  143.7446  159.2606 C   0  0  0  0  0  0  0  0  0  0  0  0
  152.0010  144.7726  158.7722 C   0  0  0  0  0  0  0  0  0  0  0  0
  150.9466  145.2361  159.5822 C   0  0  0  0  0  0  0  0  0  0  0  0
  150.7670  144.6476  160.8499 C   0  0  0  0  0  0  0  0  0  0  0  0
  151.5575  143.6628  161.3284 N   0  0  0  0  0  0  0  0  0  0  0  0
  156.5155  138.0789  163.0050 C   0  0  0  0  0  0  0  0  0  0  0  0
  158.5153  136.1222  167.1624 H   0  0  0  0  0  0  0  0  0  0  0  0
  159.5736  137.3197  166.4013 H   0  0  0  0  0  0  0  0  0  0  0  0
  159.7289  135.6090  165.9855 H   0  0  0  0  0  0  0  0  0  0  0  0
  157.0031  137.9323  166.2402 H   0  0  0  0  0  0  0  0  0  0  0  0
  155.4285  138.6923  164.7680 H   0  0  0  0  0  0  0  0  0  0  0  0
  155.4395  135.7048  164.1769 H   0  0  0  0  0  0  0  0  0  0  0  0
  154.4232  136.5356  165.3290 H   0  0  0  0  0  0  0  0  0  0  0  0
  153.2463  135.9629  163.1597 H   0  0  0  0  0  0  0  0  0  0  0  0
  153.2028  137.6712  163.5291 H   0  0  0  0  0  0  0  0  0  0  0  0
  155.1671  136.3284  161.6001 H   0  0  0  0  0  0  0  0  0  0  0  0
  153.7969  137.2759  161.1287 H   0  0  0  0  0  0  0  0  0  0  0  0
  153.4819  138.8780  160.7544 H   0  0  0  0  0  0  0  0  0  0  0  0
  154.3163  141.1436  159.3854 H   0  0  0  0  0  0  0  0  0  0  0  0
  152.6423  140.7221  159.6404 H   0  0  0  0  0  0  0  0  0  0  0  0
  152.9912  141.7650  162.0533 H   0  0  0  0  0  0  0  0  0  0  0  0
  154.4092  142.5003  161.3606 H   0  0  0  0  0  0  0  0  0  0  0  0
  153.6446  143.3647  158.6608 H   0  0  0  0  0  0  0  0  0  0  0  0
  152.1699  145.1969  157.7935 H   0  0  0  0  0  0  0  0  0  0  0  0
  150.2902  146.0225  159.2402 H   0  0  0  0  0  0  0  0  0  0  0  0
  149.9678  144.9770  161.4972 H   0  0  0  0  0  0  0  0  0  0  0  0
  157.2359  138.8973  163.0487 H   0  0  0  0  0  0  0  0  0  0  0  0
  157.0746  137.2152  162.6415 H   0  0  0  0  0  0  0  0  0  0  0  0
  1  2  1  0  0  0  0
  1 22  1  0  0  0  0
  1 23  1  0  0  0  0
  1 24  1  0  0  0  0
  2  3  2  0  0  0  0
  2  4  1  0  0  0  0
  4  5  1  0  0  0  0
  4 25  1  0  0  0  0
  5 21  1  0  0  0  0
  5  6  1  0  0  0  0
  5 26  1  0  0  0  0
  6  7  1  0  0  0  0
  6 27  1  0  0  0  0
  6 28  1  0  0  0  0
  7  8  1  0  0  0  0
  7 29  1  0  0  0  0
  7 30  1  0  0  0  0
  8  9  1  0  0  0  0
  8 31  1  0  0  0  0
  8 32  1  0  0  0  0
  9 10  1  0  0  0  0
  9 21  1  0  0  0  0
 10 11  2  0  0  0  0
 10 12  1  0  0  0  0
 12 13  1  0  0  0  0
 12 33  1  0  0  0  0
 13 14  1  0  0  0  0
 13 34  1  0  0  0  0
 13 35  1  0  0  0  0
 14 15  1  0  0  0  0
 14 36  1  0  0  0  0
 14 37  1  0  0  0  0
 15 20  1  0  0  0  0
 15 16  2  0  0  0  0
 16 17  1  0  0  0  0
 16 38  1  0  0  0  0
 17 18  2  0  0  0  0
 17 39  1  0  0  0  0
 18 19  1  0  0  0  0
 18 40  1  0  0  0  0
 19 20  2  0  0  0  0
 19 41  1  0  0  0  0
 21 42  1  0  0  0  0
 21 43  1  0  0  0  0
M  END
> <s_m_source_file>
AV-unprocessed.smi

> <i_m_source_file_index>
1563

> <i_lp_mmshare_version>
43012

> <i_f3d_flags>
0

> <s_epik_input>
W0NIM11DKD1PKVtOSF1bQ0BASF0xW0NIMl1bQ0gyXVtDSDJdTihbQ0gyXTEpQyg9TylbTkhdW0NIMl1bQ0gyXWMyW2NIXVtjSF1bY0hdW2NIXW4y

> <s_epik_cmdline>
J2VwaWtfcHl0aG9uJywgJy1waCcsICc3LjAnLCAnLXRuJywgJzgnLCAnLW1hJywgJzIwMCcsICctbWV0YWxfYmluZGluZycsICctaW1hZScsICc8aW5maWxlLm1hZT4nLCAnLW9tYWUnLCAnPG91dGZpbGUubWFlPic=

> <r_epik_Ionization_Penalty>
0.0442074

> <r_epik_Ionization_Penalty_Charging>
0

> <r_epik_Ionization_Penalty_Neutral>
0.0442074

> <r_epik_State_Penalty>
0.0374027

> <r_epik_Charging_Adjusted_Penalty>
0.0374027

> <i_epik_Tot_Q>
0

> <i_epik_Tot_abs_Q>
0

> <r_epik_Metal_State_Penalty>
0.0347963

> <b_epik_Metal_Only>
0

> <s_lp_Force_Field>
OPLS_2005

> <r_lp_Energy>
29.1558

> <b_lp_Chiralities_Consistent>
1

> <s_lp_Variant>
AV-unprocessed.smi:1563-1

> <Gold.Version>
5.8.1

> <Gold.Id.Protein>
6NUR|6NUR_protein|mol2

> <Gold.PLP.Fitness>
46.4098

> <Gold.PLP.PLP>
-47.0453

> <Gold.PLP.part.hbond>
-1.2238

> <Gold.PLP.part.metal>
0.0000

> <Gold.PLP.part.buried>
-5.9721

> <Gold.PLP.part.nonpolar>
-39.9487

> <Gold.PLP.part.repulsive>
0.2869

> <Gold.PLP.ligand.clash>
0.0000

> <Gold.PLP.ligand.torsion>
0.3256

> <Gold.PLP.Chemscore.Hbond>
0.0000

> <Gold.PLP.Chemscore.CHOScore>
0.0000

> <Gold.PLP.Chemscore.Metal>
0.0000

> <Gold.PLP.Chemscore.Internal.Correction>
0.0157

> <Gold.Rescore>
     Score         DG    S(hbond)    S(metal)    S(lipo)     H(rot)  DE(clash)    DE(int)     intcor
     13.33     -15.58       0.00        0.00     123.09       1.68       0.01       2.23       ----

> <Gold.Chemscore.Fitness>
13.3342

> <Gold.Chemscore.DG>
-15.5771

> <Gold.Chemscore.ZeroCoef>
-5.4800

> <Gold.Chemscore.Hbond>
0.0000

> <Gold.Chemscore.Metal>
0.0000

> <Gold.Chemscore.Lipo>
123.0881

> <Gold.Chemscore.Internal_Hbond>
0.0000

> <Gold.Chemscore.DEClash>
0.0148

> <Gold.Chemscore.DEInternal>
2.2281

> <Gold.Chemscore.Rot>
1.6813

> <Gold.Chemscore.Internal.Correction>
   9.000000E+99

> <Gold.Chemscore.Hbond.Weighted>
-0.0000

> <Gold.Chemscore.Metal.Weighted>
-0.0000

> <Gold.Chemscore.Lipo.Weighted>
-14.4013

> <Gold.Chemscore.Internal_Hbond.Weighted>
0.0000

> <Gold.Chemscore.DEClash.Weighted>
0.0148

> <Gold.Chemscore.DEInternal.Weighted>
2.2281

> <Gold.Chemscore.Rot.Weighted>
4.3042

> <Gold.Chemscore.Internal.Correction.Weighted>
   9.000000E+99

> <Gold.Protein.RotatedTorsions>
[ 6907 6896 6895 6894 ] final -118.95 input  -60.11 | X-H torsion
[ 7974 7965 7964 7962 ] final  115.72 input  175.53 | X-H torsion
[ 8008 7997 7996 7995 ] final  133.05 input   59.86 | X-H torsion
[ 10167 10162 10161 10158 ] final -139.29 input  -65.29 | X-H torsion
[ 10718 10713 10712 10709 ] final  101.91 input   66.30 | X-H torsion
[ 10763 10752 10751 10750 ] final   64.38 input  -60.55 | X-H torsion
[ 11005 11000 10999 10996 ] final  -23.77 input  -57.11 | X-H torsion

> <Gold.Protein.ActiveResidues>
 VAL166  LYS551  ARG553  GLY616  TRP617  ASP618  TYR619  PRO620  LYS621  CYS622 
 ASP623  PHE694  ASN695  SER759  ASP760  ASP761  ALA762  ILE779  LEU786  VAL792 
 PHE793  MET794  SER795  GLU796  ALA797  LYS798  CYS799  TRP800  GLU811  SER814 

> <Gold.Protein.RotatedAtoms>
  150.8264  133.8165  159.3116 H   0  0  0  0  0  0  0  0  0  0  0  0  # atno 6907 bound_to 6896
  151.5908  135.1052  160.0048 H   0  0  0  0  0  0  0  0  0  0  0  0  # atno 6908 bound_to 6896
  152.4348  133.7300  159.6638 H   0  0  0  0  0  0  0  0  0  0  0  0  # atno 6909 bound_to 6896
  145.1884  139.3013  143.4381 H   0  0  0  0  0  0  0  0  0  0  0  0  # atno 7974 bound_to 7965
  156.2989  140.2531  156.3190 H   0  0  0  0  0  0  0  0  0  0  0  0  # atno 8008 bound_to 7997
  154.9253  140.0399  157.2039 H   0  0  0  0  0  0  0  0  0  0  0  0  # atno 8009 bound_to 7997
  154.8271  140.2869  155.5752 H   0  0  0  0  0  0  0  0  0  0  0  0  # atno 8010 bound_to 7997
  139.8394  143.7342  152.2664 H   0  0  0  0  0  0  0  0  0  0  0  0  # atno 10167 bound_to 10162
  157.6816  131.0739  150.5325 H   0  0  0  0  0  0  0  0  0  0  0  0  # atno 10718 bound_to 10713
  153.0054  135.5395  154.6501 H   0  0  0  0  0  0  0  0  0  0  0  0  # atno 10763 bound_to 10752
  154.5736  135.2844  155.0805 H   0  0  0  0  0  0  0  0  0  0  0  0  # atno 10764 bound_to 10752
  154.1962  135.6492  153.5126 H   0  0  0  0  0  0  0  0  0  0  0  0  # atno 10765 bound_to 10752
  140.8782  133.7672  156.0270 H   0  0  0  0  0  0  0  0  0  0  0  0  # atno 11005 bound_to 11000
  146.3440  140.2089  142.8590 LP  0  0  0  0  0  0  0  0  0  0  0  0  # atno 17320 bound_to 7965
  145.0065  140.8677  143.5250 LP  0  0  0  0  0  0  0  0  0  0  0  0  # atno 17321 bound_to 7965
  139.7574  144.7516  151.0414 LP  0  0  0  0  0  0  0  0  0  0  0  0  # atno 17342 bound_to 10162
  140.7799  143.4789  151.0044 LP  0  0  0  0  0  0  0  0  0  0  0  0  # atno 17343 bound_to 10162
  156.5634  130.4261  149.6052 LP  0  0  0  0  0  0  0  0  0  0  0  0  # atno 17370 bound_to 10713
  156.2802  130.7066  151.1888 LP  0  0  0  0  0  0  0  0  0  0  0  0  # atno 17371 bound_to 10713
  140.8492  134.2974  157.5282 LP  0  0  0  0  0  0  0  0  0  0  0  0  # atno 17394 bound_to 11000
  139.8717  134.9459  156.3922 LP  0  0  0  0  0  0  0  0  0  0  0  0  # atno 17395 bound_to 11000

$$$$
