AV-unprocessed.smi:1149|AV-procd|sdf|4891|dock7
  -GOLD-   22720 3463D 1   1.00000     0.00000
 Structure written by MMmdl.
 51 52  0  0  0  0  0  0  0  0  2 V2000
  144.1068  132.0334  150.6251 C   0  0  0  0  0  0  0  0  0  0  0  0
  145.3185  132.6547  151.0397 O   0  0  0  0  0  0  0  0  0  0  0  0
  145.2534  133.9265  151.5712 C   0  0  0  0  0  0  0  0  0  0  0  0
  144.0866  134.6875  151.3597 C   0  0  0  0  0  0  0  0  0  0  0  0
  144.0124  135.9862  151.8984 C   0  0  0  0  0  0  0  0  0  0  0  0
  145.1097  136.4818  152.6430 C   0  0  0  0  0  0  0  0  0  0  0  0
  145.1691  137.7777  153.2239 N   0  0  0  0  0  0  0  0  0  0  0  0
  145.9603  138.2190  154.2168 C   0  0  0  0  0  0  0  0  0  0  0  0
  146.8166  137.5528  154.7974 O   0  0  0  0  0  0  0  0  0  0  0  0
  145.7197  139.5099  154.4888 N   0  0  0  0  0  0  0  0  0  0  0  0
  146.4064  140.3082  155.5042 C   0  0  0  0  0  0  0  0  0  0  0  0
  147.0975  141.5821  154.9296 C   0  0  0  0  0  0  0  0  0  0  0  0
  147.5271  141.3495  153.4588 C   0  0  0  0  0  0  0  0  0  0  0  0
  146.0842  142.7537  154.8981 C   0  0  0  0  0  0  0  0  0  0  0  0
  148.2998  141.9720  155.7522 N   0  3  0  0  0  0  0  0  0  0  0  0
  149.5467  141.1966  155.4914 C   0  0  0  0  0  0  0  0  0  0  0  0
  150.7491  141.8313  156.2212 C   0  0  0  0  0  0  0  0  0  0  0  0
  150.5333  141.9303  157.6639 N   0  0  0  0  0  0  0  0  0  0  0  0
  150.5755  140.6382  158.3406 C   0  0  0  0  0  0  0  0  0  0  0  0
  149.3060  142.6813  157.9259 C   0  0  0  0  0  0  0  0  0  0  0  0
  148.0793  142.0612  157.2243 C   0  0  0  0  0  0  0  0  0  0  0  0
  146.2357  135.6447  152.7859 C   0  0  0  0  0  0  0  0  0  0  0  0
  146.3135  134.3995  152.2719 N   0  0  0  0  0  0  0  0  0  0  0  0
  144.3272  131.0431  150.2269 H   0  0  0  0  0  0  0  0  0  0  0  0
  143.6144  132.6045  149.8366 H   0  0  0  0  0  0  0  0  0  0  0  0
  143.4169  131.9078  151.4608 H   0  0  0  0  0  0  0  0  0  0  0  0
  143.2633  134.2837  150.7890 H   0  0  0  0  0  0  0  0  0  0  0  0
  143.1259  136.5733  151.7172 H   0  0  0  0  0  0  0  0  0  0  0  0
  144.5686  138.4672  152.7960 H   0  0  0  0  0  0  0  0  0  0  0  0
  145.0016  139.9778  153.9551 H   0  0  0  0  0  0  0  0  0  0  0  0
  145.6459  140.5843  156.2338 H   0  0  0  0  0  0  0  0  0  0  0  0
  147.1200  139.6839  156.0427 H   0  0  0  0  0  0  0  0  0  0  0  0
  146.6680  141.2802  152.7909 H   0  0  0  0  0  0  0  0  0  0  0  0
  148.0822  140.4203  153.3311 H   0  0  0  0  0  0  0  0  0  0  0  0
  148.1482  142.1672  153.0910 H   0  0  0  0  0  0  0  0  0  0  0  0
  145.3006  142.5888  154.1576 H   0  0  0  0  0  0  0  0  0  0  0  0
  146.5719  143.6951  154.6419 H   0  0  0  0  0  0  0  0  0  0  0  0
  145.5732  142.8880  155.8511 H   0  0  0  0  0  0  0  0  0  0  0  0
  149.4247  140.1558  155.7896 H   0  0  0  0  0  0  0  0  0  0  0  0
  149.7907  141.1881  154.4312 H   0  0  0  0  0  0  0  0  0  0  0  0
  151.6570  141.2592  156.0267 H   0  0  0  0  0  0  0  0  0  0  0  0
  150.9269  142.8330  155.8270 H   0  0  0  0  0  0  0  0  0  0  0  0
  150.4662  140.7729  159.4170 H   0  0  0  0  0  0  0  0  0  0  0  0
  151.5362  140.1527  158.1650 H   0  0  0  0  0  0  0  0  0  0  0  0
  149.7907  139.9613  158.0051 H   0  0  0  0  0  0  0  0  0  0  0  0
  149.1385  142.7415  159.0020 H   0  0  0  0  0  0  0  0  0  0  0  0
  149.4451  143.7061  157.5790 H   0  0  0  0  0  0  0  0  0  0  0  0
  147.2249  142.6942  157.4549 H   0  0  0  0  0  0  0  0  0  0  0  0
  147.8602  141.0795  157.6432 H   0  0  0  0  0  0  0  0  0  0  0  0
  147.1030  135.9819  153.3345 H   0  0  0  0  0  0  0  0  0  0  0  0
  148.5133  142.9152  155.4605 H   0  0  0  0  0  0  0  0  0  0  0  0
  1  2  1  0  0  0  0
  1 24  1  0  0  0  0
  1 25  1  0  0  0  0
  1 26  1  0  0  0  0
  2  3  1  0  0  0  0
  3 23  1  0  0  0  0
  3  4  2  0  0  0  0
  4  5  1  0  0  0  0
  4 27  1  0  0  0  0
  5  6  2  0  0  0  0
  5 28  1  0  0  0  0
  6  7  1  0  0  0  0
  6 22  1  0  0  0  0
  7  8  1  0  0  0  0
  7 29  1  0  0  0  0
  8  9  2  0  0  0  0
  8 10  1  0  0  0  0
 10 11  1  0  0  0  0
 10 30  1  0  0  0  0
 11 12  1  0  0  0  0
 11 31  1  0  0  0  0
 11 32  1  0  0  0  0
 12 13  1  0  0  0  0
 12 14  1  0  0  0  0
 12 15  1  0  0  0  0
 13 33  1  0  0  0  0
 13 34  1  0  0  0  0
 13 35  1  0  0  0  0
 14 36  1  0  0  0  0
 14 37  1  0  0  0  0
 14 38  1  0  0  0  0
 15 21  1  0  0  0  0
 15 16  1  0  0  0  0
 15 51  1  0  0  0  0
 16 17  1  0  0  0  0
 16 39  1  0  0  0  0
 16 40  1  0  0  0  0
 17 18  1  0  0  0  0
 17 41  1  0  0  0  0
 17 42  1  0  0  0  0
 18 19  1  0  0  0  0
 18 20  1  0  0  0  0
 19 43  1  0  0  0  0
 19 44  1  0  0  0  0
 19 45  1  0  0  0  0
 20 21  1  0  0  0  0
 20 46  1  0  0  0  0
 20 47  1  0  0  0  0
 21 48  1  0  0  0  0
 21 49  1  0  0  0  0
 22 23  2  0  0  0  0
 22 50  1  0  0  0  0
M  CHG  1  15   1
M  END
> <s_m_source_file>
AV-unprocessed.smi

> <i_m_source_file_index>
1149

> <i_lp_mmshare_version>
43012

> <i_f3d_flags>
0

> <s_epik_input>
W0NIM11PYzFbY0hdW2NIXWMoW2NIXW4xKVtOSF1DKD1PKVtOSF1bQ0gyXUMoW0NIM10pKFtDSDNdKU4yW0NIMl1bQ0gyXU4oW0NIM10pW0NIMl1bQ0gyXTI=

> <s_epik_cmdline>
J2VwaWtfcHl0aG9uJywgJy1waCcsICc3LjAnLCAnLXRuJywgJzgnLCAnLW1hJywgJzIwMCcsICctbWV0YWxfYmluZGluZycsICctaW1hZScsICc8aW5maWxlLm1hZT4nLCAnLW9tYWUnLCAnPG91dGZpbGUubWFlPic=

> <r_epik_Ionization_Penalty>
0.0907124

> <r_epik_Ionization_Penalty_Charging>
0.0886444

> <r_epik_Ionization_Penalty_Neutral>
0.00206799

> <r_epik_State_Penalty>
1.00524

> <r_epik_Charging_Adjusted_Penalty>
1.09388

> <i_epik_Tot_Q>
1

> <i_epik_Tot_abs_Q>
1

> <r_epik_Metal_State_Penalty>
1.00525

> <b_epik_Metal_Only>
0

> <s_lp_Force_Field>
OPLS_2005

> <r_lp_Energy>
30.5246

> <b_lp_Chiralities_Consistent>
1

> <s_lp_Variant>
AV-unprocessed.smi:1149-2

> <Gold.Version>
5.8.1

> <Gold.Id.Protein>
6NUR|6NUR_protein|mol2

> <Gold.PLP.Fitness>
42.9869

> <Gold.PLP.PLP>
-31.0473

> <Gold.PLP.part.hbond>
-3.0000

> <Gold.PLP.part.metal>
0.0000

> <Gold.PLP.part.buried>
-4.2212

> <Gold.PLP.part.nonpolar>
-23.7187

> <Gold.PLP.part.repulsive>
0.4402

> <Gold.PLP.ligand.clash>
0.0000

> <Gold.PLP.ligand.torsion>
1.1843

> <Gold.PLP.Chemscore.Hbond>
4.0000

> <Gold.PLP.Chemscore.CHOScore>
0.7372

> <Gold.PLP.Chemscore.Metal>
0.0000

> <Gold.Chemscore.Hbonds>
donor molecule, donor type, donor heavy atom, donor atom, acceptor molecule, acceptor atom, score
      L1  H     7    29       P1 10175  0.57
      L1  H    10    30       P1 10175  0.98
      L1  H    15    51       P1  8028  2.00
      L1  C    22    50       P1  7948  0.59

> <Gold.PLP.Chemscore.Internal.Correction>
0.0965

> <Gold.Rescore>
     Score         DG    S(hbond)    S(metal)    S(lipo)     H(rot)  DE(clash)    DE(int)     intcor
     15.87     -19.53       2.92        0.00      74.51       1.72       1.44       2.22       ----

> <Gold.Chemscore.Fitness>
15.8725

> <Gold.Chemscore.DG>
-19.5296

> <Gold.Chemscore.ZeroCoef>
-5.4800

> <Gold.Chemscore.Hbond>
2.9157

> <Gold.Chemscore.Metal>
0.0000

> <Gold.Chemscore.Lipo>
74.5112

> <Gold.Chemscore.Internal_Hbond>
0.0000

> <Gold.Chemscore.DEClash>
1.4378

> <Gold.Chemscore.DEInternal>
2.2192

> <Gold.Chemscore.Rot>
1.7213

> <Gold.Chemscore.Internal.Correction>
   9.000000E+99

> <Gold.Chemscore.Hbonds>
donor molecule, donor type, donor heavy atom, donor atom, acceptor molecule, acceptor atom, score
      L1  H     7    29       P1 10175  0.58
      L1  H    10    30       P1 10175  0.91
      L1  H    15    51       P1  8028  0.99

> <Gold.Chemscore.Hbond.Weighted>
-9.7383

> <Gold.Chemscore.Metal.Weighted>
-0.0000

> <Gold.Chemscore.Lipo.Weighted>
-8.7178

> <Gold.Chemscore.Internal_Hbond.Weighted>
0.0000

> <Gold.Chemscore.DEClash.Weighted>
1.4378

> <Gold.Chemscore.DEInternal.Weighted>
2.2192

> <Gold.Chemscore.Rot.Weighted>
4.4066

> <Gold.Chemscore.Internal.Correction.Weighted>
   9.000000E+99

> <Gold.Protein.RotatedTorsions>
[ 6907 6896 6895 6894 ] final  -20.51 input  -60.11 | X-H torsion
[ 7974 7965 7964 7962 ] final  164.93 input  175.53 | X-H torsion
[ 8008 7997 7996 7995 ] final  -54.87 input   59.86 | X-H torsion
[ 10167 10162 10161 10158 ] final -159.18 input  -65.29 | X-H torsion
[ 10718 10713 10712 10709 ] final -166.12 input   66.30 | X-H torsion
[ 10763 10752 10751 10750 ] final   55.77 input  -60.55 | X-H torsion
[ 11005 11000 10999 10996 ] final -139.02 input  -57.11 | X-H torsion

> <Gold.Protein.ActiveResidues>
 VAL166  LYS551  ARG553  GLY616  TRP617  ASP618  TYR619  PRO620  LYS621  CYS622 
 ASP623  PHE694  ASN695  SER759  ASP760  ASP761  ALA762  ILE779  LEU786  VAL792 
 PHE793  MET794  SER795  GLU796  ALA797  LYS798  CYS799  TRP800  GLU811  SER814 

> <Gold.Protein.RotatedAtoms>
  151.2471  135.0609  159.9047 H   0  0  0  0  0  0  0  0  0  0  0  0  # atno 6907 bound_to 6896
  152.5385  134.0372  159.8061 H   0  0  0  0  0  0  0  0  0  0  0  0  # atno 6908 bound_to 6896
  151.0574  133.5523  159.2668 H   0  0  0  0  0  0  0  0  0  0  0  0  # atno 6909 bound_to 6896
  144.7524  139.8397  143.6361 H   0  0  0  0  0  0  0  0  0  0  0  0  # atno 7974 bound_to 7965
  154.4176  140.1166  156.5386 H   0  0  0  0  0  0  0  0  0  0  0  0  # atno 8008 bound_to 7997
  155.6532  140.3496  155.4736 H   0  0  0  0  0  0  0  0  0  0  0  0  # atno 8009 bound_to 7997
  155.9775  140.1153  157.0746 H   0  0  0  0  0  0  0  0  0  0  0  0  # atno 8010 bound_to 7997
  139.6635  143.9871  152.2240 H   0  0  0  0  0  0  0  0  0  0  0  0  # atno 10167 bound_to 10162
  156.6633  130.9055  151.3032 H   0  0  0  0  0  0  0  0  0  0  0  0  # atno 10718 bound_to 10713
  152.9821  135.5699  154.5120 H   0  0  0  0  0  0  0  0  0  0  0  0  # atno 10763 bound_to 10752
  154.4622  135.2782  155.1706 H   0  0  0  0  0  0  0  0  0  0  0  0  # atno 10764 bound_to 10752
  154.3289  135.6253  153.5595 H   0  0  0  0  0  0  0  0  0  0  0  0  # atno 10765 bound_to 10752
  140.8560  134.2228  157.4734 H   0  0  0  0  0  0  0  0  0  0  0  0  # atno 11005 bound_to 11000
  146.1491  139.4569  143.0060 LP  0  0  0  0  0  0  0  0  0  0  0  0  # atno 17320 bound_to 7965
  145.6898  141.0167  143.1561 LP  0  0  0  0  0  0  0  0  0  0  0  0  # atno 17321 bound_to 7965
  139.9616  144.6554  150.8074 LP  0  0  0  0  0  0  0  0  0  0  0  0  # atno 17342 bound_to 10162
  140.7590  143.3119  151.2826 LP  0  0  0  0  0  0  0  0  0  0  0  0  # atno 17343 bound_to 10162
  157.7102  130.9431  150.1064 LP  0  0  0  0  0  0  0  0  0  0  0  0  # atno 17370 bound_to 10713
  156.1994  130.3659  149.8808 LP  0  0  0  0  0  0  0  0  0  0  0  0  # atno 17371 bound_to 10713
  139.8705  134.9706  156.4708 LP  0  0  0  0  0  0  0  0  0  0  0  0  # atno 17394 bound_to 11000
  140.8737  133.7969  155.9392 LP  0  0  0  0  0  0  0  0  0  0  0  0  # atno 17395 bound_to 11000

$$$$
