AV-unprocessed.smi:60|AV-procd|sdf|594|dock1
  -GOLD-   2262016483D 1   1.00000     0.00000
 Structure written by MMmdl.
 35 36  0  0  0  0  0  0  0  0  2 V2000
  153.1541  140.1395  158.3914 O   0  0  0  0  0  0  0  0  0  0  0  0
  152.0472  139.6031  158.3522 C   0  0  0  0  0  0  0  0  0  0  0  0
  151.8393  138.3353  158.8142 N   0  5  0  0  0  0  0  0  0  0  0  0
  150.6204  137.7145  158.8021 C   0  0  0  0  0  0  0  0  0  0  0  0
  150.4633  136.5658  159.2182 O   0  0  0  0  0  0  0  0  0  0  0  0
  149.5456  138.4003  158.3129 N   0  0  0  0  0  0  0  0  0  0  0  0
  148.2281  137.7791  158.2505 C   0  0  0  0  0  0  0  0  0  0  0  0
  147.6774  137.6125  159.5231 O   0  0  0  0  0  0  0  0  0  0  0  0
  147.8656  136.3289  160.1064 C   0  0  0  0  0  0  0  0  0  0  0  0
  147.0401  136.2423  161.3955 C   0  0  0  0  0  0  0  0  0  0  0  0
  147.2836  137.3704  162.2088 O   0  0  0  0  0  0  0  0  0  0  0  0
  149.7071  139.6985  157.8018 C   0  0  0  0  0  0  0  0  0  0  0  0
  150.8989  140.3307  157.7990 C   0  0  0  0  0  0  0  0  0  0  0  0
  151.0647  141.7328  157.2298 C   0  0  0  0  0  0  0  0  0  0  0  0
  151.4941  142.7528  158.2685 C   0  0  0  0  0  0  0  0  0  0  0  0
  151.8173  142.3421  159.5793 C   0  0  0  0  0  0  0  0  0  0  0  0
  152.2171  143.2915  160.5400 C   0  0  0  0  0  0  0  0  0  0  0  0
  152.2971  144.6543  160.1936 C   0  0  0  0  0  0  0  0  0  0  0  0
  151.9766  145.0676  158.8859 C   0  0  0  0  0  0  0  0  0  0  0  0
  151.5748  144.1190  157.9255 C   0  0  0  0  0  0  0  0  0  0  0  0
  147.5704  138.4193  157.6600 H   0  0  0  0  0  0  0  0  0  0  0  0
  148.2917  136.8166  157.7405 H   0  0  0  0  0  0  0  0  0  0  0  0
  147.5985  135.5293  159.4134 H   0  0  0  0  0  0  0  0  0  0  0  0
  148.9188  136.2006  160.3589 H   0  0  0  0  0  0  0  0  0  0  0  0
  145.9773  136.2354  161.1527 H   0  0  0  0  0  0  0  0  0  0  0  0
  147.2530  135.3229  161.9415 H   0  0  0  0  0  0  0  0  0  0  0  0
  147.4136  137.0773  163.0977 H   0  0  0  0  0  0  0  0  0  0  0  0
  148.8082  140.1486  157.4069 H   0  0  0  0  0  0  0  0  0  0  0  0
  151.7724  141.7428  156.4001 H   0  0  0  0  0  0  0  0  0  0  0  0
  150.1107  142.0411  156.8000 H   0  0  0  0  0  0  0  0  0  0  0  0
  151.7608  141.2984  159.8518 H   0  0  0  0  0  0  0  0  0  0  0  0
  152.4630  142.9739  161.5425 H   0  0  0  0  0  0  0  0  0  0  0  0
  152.6041  145.3819  160.9304 H   0  0  0  0  0  0  0  0  0  0  0  0
  152.0389  146.1120  158.6186 H   0  0  0  0  0  0  0  0  0  0  0  0
  151.3307  144.4413  156.9235 H   0  0  0  0  0  0  0  0  0  0  0  0
  1  2  2  0  0  0  0
  2 13  1  0  0  0  0
  2  3  1  0  0  0  0
  3  4  1  0  0  0  0
  4  5  2  0  0  0  0
  4  6  1  0  0  0  0
  6  7  1  0  0  0  0
  6 12  1  0  0  0  0
  7  8  1  0  0  0  0
  7 21  1  0  0  0  0
  7 22  1  0  0  0  0
  8  9  1  0  0  0  0
  9 10  1  0  0  0  0
  9 23  1  0  0  0  0
  9 24  1  0  0  0  0
 10 11  1  0  0  0  0
 10 25  1  0  0  0  0
 10 26  1  0  0  0  0
 11 27  1  0  0  0  0
 12 13  2  0  0  0  0
 12 28  1  0  0  0  0
 13 14  1  0  0  0  0
 14 15  1  0  0  0  0
 14 29  1  0  0  0  0
 14 30  1  0  0  0  0
 15 20  1  0  0  0  0
 15 16  2  0  0  0  0
 16 17  1  0  0  0  0
 16 31  1  0  0  0  0
 17 18  2  0  0  0  0
 17 32  1  0  0  0  0
 18 19  1  0  0  0  0
 18 33  1  0  0  0  0
 19 20  2  0  0  0  0
 19 34  1  0  0  0  0
 20 35  1  0  0  0  0
M  CHG  1   3  -1
M  END
> <s_m_source_file>
AV-unprocessed.smi

> <i_m_source_file_index>
60

> <i_lp_mmshare_version>
43012

> <i_f3d_flags>
0

> <s_epik_input>
W09IXVtDSDJdW0NIMl1PW0NIMl1uKGMoPU8pW25IXWMxPU8pW2NIXWMxW0NIMl1jMltjSF1bY0hdW2NIXVtjSF1bY0hdMg==

> <s_epik_cmdline>
J2VwaWtfcHl0aG9uJywgJy1waCcsICc3LjAnLCAnLXRuJywgJzgnLCAnLW1hJywgJzIwMCcsICctbWV0YWxfYmluZGluZycsICctaW1hZScsICc8aW5maWxlLm1hZT4nLCAnLW9tYWUnLCAnPG91dGZpbGUubWFlPic=

> <r_lp_tautomer_probability>
0.999537

> <r_epik_Ionization_Penalty>
3.13547

> <r_epik_Ionization_Penalty_Charging>
5.3765e-08

> <r_epik_Ionization_Penalty_Neutral>
3.13547

> <r_epik_State_Penalty>
3.13458

> <r_epik_Charging_Adjusted_Penalty>
3.13458

> <i_epik_Tot_Q>
-1

> <i_epik_Tot_abs_Q>
1

> <r_epik_Metal_State_Penalty>
0.106912

> <b_epik_Metal_Only>
1

> <s_epik_Chemistry_Notes>
This compound contains an acetal/aminal-like group ( X-CH(R)-Y where X, Y are N, S, or O) that may be acid/base labile, releasing an aldehyde.

> <s_lp_Force_Field>
OPLS_2005

> <r_lp_Energy>
15.9602

> <b_lp_Chiralities_Consistent>
1

> <s_lp_Variant>
AV-unprocessed.smi:60-2

> <Gold.Version>
5.8.1

> <Gold.Id.Protein>
6NUR|6NUR_protein|mol2

> <Gold.PLP.Fitness>
51.1343

> <Gold.PLP.PLP>
-41.4533

> <Gold.PLP.part.hbond>
-5.4347

> <Gold.PLP.part.metal>
0.0000

> <Gold.PLP.part.buried>
-5.2638

> <Gold.PLP.part.nonpolar>
-31.3886

> <Gold.PLP.part.repulsive>
0.0000

> <Gold.PLP.ligand.clash>
0.0000

> <Gold.PLP.ligand.torsion>
0.4139

> <Gold.PLP.Chemscore.Hbond>
3.4640

> <Gold.PLP.Chemscore.CHOScore>
0.0000

> <Gold.PLP.Chemscore.Metal>
0.0000

> <Gold.Chemscore.Hbonds>
donor molecule, donor type, donor heavy atom, donor atom, acceptor molecule, acceptor atom, score
      P1  H  6896  6908       L1     5  1.00
      P1  H  6931  6943       L1    11  0.71
      P1  H  6934  6947       L1     8  0.63
      P1  H  7997  8008       L1     1  0.99

> <Gold.PLP.Chemscore.Internal.Correction>
0.1169

> <Gold.Rescore>
     Score         DG    S(hbond)    S(metal)    S(lipo)     H(rot)  DE(clash)    DE(int)     intcor
     18.61     -20.29       3.64        0.00      93.10       3.22       0.00       1.68       ----

> <Gold.Chemscore.Fitness>
18.6134

> <Gold.Chemscore.DG>
-20.2906

> <Gold.Chemscore.ZeroCoef>
-5.4800

> <Gold.Chemscore.Hbond>
3.6373

> <Gold.Chemscore.Metal>
0.0000

> <Gold.Chemscore.Lipo>
93.1003

> <Gold.Chemscore.Internal_Hbond>
0.0000

> <Gold.Chemscore.DEClash>
0.0000

> <Gold.Chemscore.DEInternal>
1.6772

> <Gold.Chemscore.Rot>
3.2151

> <Gold.Chemscore.Internal.Correction>
   9.000000E+99

> <Gold.Chemscore.Hbonds>
donor molecule, donor type, donor heavy atom, donor atom, acceptor molecule, acceptor atom, score
      P1  H  6896  6908       L1     5  1.00
      P1  H  6931  6943       L1    11  0.15
      P1  H  6934  6947       L1     8  0.50
      P1  H  7997  8008       L1     1  0.92

> <Gold.Chemscore.Hbond.Weighted>
-12.1485

> <Gold.Chemscore.Metal.Weighted>
-0.0000

> <Gold.Chemscore.Lipo.Weighted>
-10.8927

> <Gold.Chemscore.Internal_Hbond.Weighted>
0.0000

> <Gold.Chemscore.DEClash.Weighted>
0.0000

> <Gold.Chemscore.DEInternal.Weighted>
1.6772

> <Gold.Chemscore.Rot.Weighted>
8.2306

> <Gold.Chemscore.Internal.Correction.Weighted>
   9.000000E+99

> <Gold.Protein.RotatedTorsions>
[ 6907 6896 6895 6894 ] final -147.31 input  -60.11 | X-H torsion
[ 7974 7965 7964 7962 ] final  107.92 input  175.53 | X-H torsion
[ 8008 7997 7996 7995 ] final  -85.60 input   59.86 | X-H torsion
[ 10167 10162 10161 10158 ] final   78.59 input  -65.29 | X-H torsion
[ 10718 10713 10712 10709 ] final  -19.89 input   66.30 | X-H torsion
[ 10763 10752 10751 10750 ] final -162.44 input  -60.55 | X-H torsion
[ 11005 11000 10999 10996 ] final  -12.88 input  -57.11 | X-H torsion

> <Gold.Protein.ActiveResidues>
 VAL166  LYS551  ARG553  GLY616  TRP617  ASP618  TYR619  PRO620  LYS621  CYS622 
 ASP623  PHE694  ASN695  SER759  ASP760  ASP761  ALA762  ILE779  LEU786  VAL792 
 PHE793  MET794  SER795  GLU796  ALA797  LYS798  CYS799  TRP800  GLU811  SER814 

> <Gold.Protein.RotatedAtoms>
  151.1539  133.4889  159.2594 H   0  0  0  0  0  0  0  0  0  0  0  0  # atno 6907 bound_to 6896
  151.1525  135.0234  159.8684 H   0  0  0  0  0  0  0  0  0  0  0  0  # atno 6908 bound_to 6896
  152.5463  134.1421  159.8536 H   0  0  0  0  0  0  0  0  0  0  0  0  # atno 6909 bound_to 6896
  145.2874  139.2612  143.3883 H   0  0  0  0  0  0  0  0  0  0  0  0  # atno 7974 bound_to 7965
  154.6426  140.0589  156.9863 H   0  0  0  0  0  0  0  0  0  0  0  0  # atno 8008 bound_to 7997
  155.1494  140.3272  155.4416 H   0  0  0  0  0  0  0  0  0  0  0  0  # atno 8009 bound_to 7997
  156.2538  140.1950  156.6606 H   0  0  0  0  0  0  0  0  0  0  0  0  # atno 8010 bound_to 7997
  139.9693  144.5905  150.7999 H   0  0  0  0  0  0  0  0  0  0  0  0  # atno 10167 bound_to 10162
  156.5394  130.4674  149.6506 H   0  0  0  0  0  0  0  0  0  0  0  0  # atno 10718 bound_to 10713
  154.7213  135.3026  154.9042 H   0  0  0  0  0  0  0  0  0  0  0  0  # atno 10763 bound_to 10752
  153.9913  135.6718  153.4758 H   0  0  0  0  0  0  0  0  0  0  0  0  # atno 10764 bound_to 10752
  153.0837  135.4995  154.8471 H   0  0  0  0  0  0  0  0  0  0  0  0  # atno 10765 bound_to 10752
  140.7703  133.8444  155.9201 H   0  0  0  0  0  0  0  0  0  0  0  0  # atno 11005 bound_to 11000
  146.3196  140.3357  142.8644 LP  0  0  0  0  0  0  0  0  0  0  0  0  # atno 17320 bound_to 7965
  144.9201  140.7858  143.5753 LP  0  0  0  0  0  0  0  0  0  0  0  0  # atno 17321 bound_to 7965
  140.7527  143.2995  151.3117 LP  0  0  0  0  0  0  0  0  0  0  0  0  # atno 17342 bound_to 10162
  139.6493  144.0392  152.2614 LP  0  0  0  0  0  0  0  0  0  0  0  0  # atno 17343 bound_to 10162
  156.2985  130.7164  151.2030 LP  0  0  0  0  0  0  0  0  0  0  0  0  # atno 17370 bound_to 10713
  157.7408  131.0512  150.5142 LP  0  0  0  0  0  0  0  0  0  0  0  0  # atno 17371 bound_to 10713
  140.9580  134.1693  157.4676 LP  0  0  0  0  0  0  0  0  0  0  0  0  # atno 17394 bound_to 11000
  139.8757  134.9934  156.5643 LP  0  0  0  0  0  0  0  0  0  0  0  0  # atno 17395 bound_to 11000

$$$$
