AV-unprocessed.smi:766|AV-procd|sdf|3652|dock2
  -GOLD-   22720 1 53D 1   1.00000     0.00000
 Structure written by MMmdl.
 47 49  0  0  0  0  0  0  0  0  2 V2000
  151.4819  143.8666  160.0498 C   0  0  0  0  0  0  0  0  0  0  0  0
  151.5170  142.7160  159.0592 C   0  0  0  0  0  0  0  0  0  0  0  0
  150.6662  142.7544  157.9315 C   0  0  0  0  0  0  0  0  0  0  0  0
  150.6688  141.7051  156.9864 C   0  0  0  0  0  0  0  0  0  0  0  0
  149.9324  141.5384  155.8260 N   0  0  0  0  0  0  0  0  0  0  0  0
  150.3856  140.3679  155.3867 C   0  0  0  0  0  0  0  0  0  0  0  0
  151.3289  139.7543  156.1276 N   0  0  0  0  0  0  0  0  0  0  0  0
  151.9718  138.4815  155.8547 C   0  0  0  0  0  0  0  0  0  0  0  0
  151.2715  137.6975  154.7283 C   0  0  1  0  0  0  0  0  0  0  0  0
  152.2242  137.3297  153.7486 O   0  0  0  0  0  0  0  0  0  0  0  0
  150.5807  136.4283  155.2530 C   0  0  0  0  0  0  0  0  0  0  0  0
  150.4044  135.4323  154.1775 N   0  3  0  0  0  0  0  0  0  0  0  0
  149.8398  134.1450  154.6303 C   0  0  0  0  0  0  0  0  0  0  0  0
  149.6066  133.1813  153.4552 C   0  0  0  0  0  0  0  0  0  0  0  0
  148.2976  133.3527  152.8499 N   0  0  0  0  0  0  0  0  0  0  0  0
  147.7423  132.6530  151.7991 C   0  0  0  0  0  0  0  0  0  0  0  0
  146.4955  133.1662  151.5830 C   0  0  0  0  0  0  0  0  0  0  0  0
  146.3755  134.1888  152.5649 C   0  0  0  0  0  0  0  0  0  0  0  0
  147.4564  134.2989  153.3207 N   0  0  0  0  0  0  0  0  0  0  0  0
  151.5518  140.6071  157.2031 C   0  0  0  0  0  0  0  0  0  0  0  0
  152.4025  140.5568  158.3214 C   0  0  0  0  0  0  0  0  0  0  0  0
  152.3889  141.6147  159.2546 C   0  0  0  0  0  0  0  0  0  0  0  0
  153.3144  141.5541  160.4569 C   0  0  0  0  0  0  0  0  0  0  0  0
  150.7489  144.6198  159.7598 H   0  0  0  0  0  0  0  0  0  0  0  0
  152.4561  144.3528  160.1053 H   0  0  0  0  0  0  0  0  0  0  0  0
  151.2163  143.5071  161.0441 H   0  0  0  0  0  0  0  0  0  0  0  0
  150.0025  143.5933  157.7815 H   0  0  0  0  0  0  0  0  0  0  0  0
  150.0081  139.9295  154.4745 H   0  0  0  0  0  0  0  0  0  0  0  0
  153.0184  138.6633  155.6051 H   0  0  0  0  0  0  0  0  0  0  0  0
  151.9693  137.8984  156.7765 H   0  0  0  0  0  0  0  0  0  0  0  0
  150.5278  138.3418  154.2568 H   0  0  0  0  0  0  0  0  0  0  0  0
  151.7768  137.1786  152.9297 H   0  0  0  0  0  0  0  0  0  0  0  0
  151.1514  135.9918  156.0742 H   0  0  0  0  0  0  0  0  0  0  0  0
  149.5961  136.6831  155.6478 H   0  0  0  0  0  0  0  0  0  0  0  0
  149.7964  135.8216  153.4711 H   0  0  0  0  0  0  0  0  0  0  0  0
  150.5046  133.6867  155.3638 H   0  0  0  0  0  0  0  0  0  0  0  0
  148.8930  134.3391  155.1357 H   0  0  0  0  0  0  0  0  0  0  0  0
  150.3591  133.3548  152.6850 H   0  0  0  0  0  0  0  0  0  0  0  0
  149.7212  132.1436  153.7728 H   0  0  0  0  0  0  0  0  0  0  0  0
  148.2733  131.8572  151.2980 H   0  0  0  0  0  0  0  0  0  0  0  0
  145.7777  132.8567  150.8376 H   0  0  0  0  0  0  0  0  0  0  0  0
  145.5413  134.8498  152.7486 H   0  0  0  0  0  0  0  0  0  0  0  0
  153.0610  139.7122  158.4589 H   0  0  0  0  0  0  0  0  0  0  0  0
  153.9427  140.6633  160.4309 H   0  0  0  0  0  0  0  0  0  0  0  0
  152.7375  141.5315  161.3817 H   0  0  0  0  0  0  0  0  0  0  0  0
  153.9712  142.4240  160.4787 H   0  0  0  0  0  0  0  0  0  0  0  0
  151.3065  135.2547  153.7575 H   0  0  0  0  0  0  0  0  0  0  0  0
  1  2  1  0  0  0  0
  1 24  1  0  0  0  0
  1 25  1  0  0  0  0
  1 26  1  0  0  0  0
  2 22  1  0  0  0  0
  2  3  2  0  0  0  0
  3  4  1  0  0  0  0
  3 27  1  0  0  0  0
  4 20  2  0  0  0  0
  4  5  1  0  0  0  0
  5  6  2  0  0  0  0
  6  7  1  0  0  0  0
  6 28  1  0  0  0  0
  7  8  1  0  0  0  0
  7 20  1  0  0  0  0
  8  9  1  0  0  0  0
  8 29  1  0  0  0  0
  8 30  1  0  0  0  0
  9 10  1  0  0  0  0
  9 11  1  0  0  0  0
  9 31  1  0  0  0  0
 10 32  1  0  0  0  0
 11 12  1  0  0  0  0
 11 33  1  0  0  0  0
 11 34  1  0  0  0  0
 12 13  1  0  0  0  0
 12 35  1  0  0  0  0
 12 47  1  0  0  0  0
 13 14  1  0  0  0  0
 13 36  1  0  0  0  0
 13 37  1  0  0  0  0
 14 15  1  0  0  0  0
 14 38  1  0  0  0  0
 14 39  1  0  0  0  0
 15 19  1  0  0  0  0
 15 16  1  0  0  0  0
 16 17  2  0  0  0  0
 16 40  1  0  0  0  0
 17 18  1  0  0  0  0
 17 41  1  0  0  0  0
 18 19  2  0  0  0  0
 18 42  1  0  0  0  0
 20 21  1  0  0  0  0
 21 22  2  0  0  0  0
 21 43  1  0  0  0  0
 22 23  1  0  0  0  0
 23 44  1  0  0  0  0
 23 45  1  0  0  0  0
 23 46  1  0  0  0  0
M  CHG  1  12   1
M  END
> <s_m_source_file>
AV-unprocessed.smi

> <i_m_source_file_index>
766

> <i_lp_mmshare_version>
43012

> <i_f3d_flags>
0

> <s_epik_input>
W0NIM11jKFtjSF0xKWMoW0NIM10pW2NIXWMoYzEyKW4oW2NIXW4yKVtDSDJdW0NASF0oW09IXSlbQ0gyXVtOSF1bQ0gyXVtDSDJdbjNbY0hdW2NIXVtjSF1uMw==

> <s_epik_cmdline>
J2VwaWtfcHl0aG9uJywgJy1waCcsICc3LjAnLCAnLXRuJywgJzgnLCAnLW1hJywgJzIwMCcsICctbWV0YWxfYmluZGluZycsICctaW1hZScsICc8aW5maWxlLm1hZT4nLCAnLW9tYWUnLCAnPG91dGZpbGUubWFlPic=

> <r_lp_tautomer_probability>
1

> <r_epik_Ionization_Penalty>
0.127222

> <r_epik_Ionization_Penalty_Charging>
0.043815

> <r_epik_Ionization_Penalty_Neutral>
0.0834074

> <r_epik_State_Penalty>
0.115563

> <r_epik_Charging_Adjusted_Penalty>
0.159378

> <i_epik_Tot_Q>
1

> <i_epik_Tot_abs_Q>
1

> <r_epik_Metal_State_Penalty>
0.102594

> <b_epik_Metal_Only>
0

> <s_lp_Force_Field>
OPLS_2005

> <r_lp_Energy>
11.1584

> <b_lp_Chiralities_Consistent>
1

> <s_lp_Variant>
AV-unprocessed.smi:766-2

> <Gold.Version>
5.8.1

> <Gold.Id.Protein>
6NUR|6NUR_protein|mol2

> <Gold.PLP.Fitness>
61.4070

> <Gold.PLP.PLP>
-48.4135

> <Gold.PLP.part.hbond>
-3.7230

> <Gold.PLP.part.metal>
0.0000

> <Gold.PLP.part.buried>
-3.0673

> <Gold.PLP.part.nonpolar>
-42.2560

> <Gold.PLP.part.repulsive>
0.6019

> <Gold.PLP.ligand.clash>
0.0000

> <Gold.PLP.ligand.torsion>
1.2702

> <Gold.PLP.Chemscore.Hbond>
4.0000

> <Gold.PLP.Chemscore.CHOScore>
1.0000

> <Gold.PLP.Chemscore.Metal>
0.0000

> <Gold.Chemscore.Hbonds>
donor molecule, donor type, donor heavy atom, donor atom, acceptor molecule, acceptor atom, score
      L1  H    10    32       P1  7949  1.00
      L1  H    12    35       P1  7948  1.30
      L1  H    12    47       P1  7949  0.05
      P1  H 10752 10764       L1    10  0.94

> <Gold.PLP.Chemscore.Internal.Correction>
0.5339

> <Gold.Rescore>
     Score         DG    S(hbond)    S(metal)    S(lipo)     H(rot)  DE(clash)    DE(int)     intcor
     17.78     -19.09       2.46        0.00     110.23       2.93       0.08       1.23       ----

> <Gold.Chemscore.Fitness>
17.7797

> <Gold.Chemscore.DG>
-19.0900

> <Gold.Chemscore.ZeroCoef>
-5.4800

> <Gold.Chemscore.Hbond>
2.4621

> <Gold.Chemscore.Metal>
0.0000

> <Gold.Chemscore.Lipo>
110.2251

> <Gold.Chemscore.Internal_Hbond>
0.0000

> <Gold.Chemscore.DEClash>
0.0797

> <Gold.Chemscore.DEInternal>
1.2306

> <Gold.Chemscore.Rot>
2.9335

> <Gold.Chemscore.Internal.Correction>
   9.000000E+99

> <Gold.Chemscore.Hbonds>
donor molecule, donor type, donor heavy atom, donor atom, acceptor molecule, acceptor atom, score
      L1  H    10    32       P1  7949  0.93
      L1  H    12    35       P1  7948  0.06
      L1  H    12    47       P1  7949  0.01
      P1  H 10752 10764       L1    10  0.23

> <Gold.Chemscore.Hbond.Weighted>
-8.2233

> <Gold.Chemscore.Metal.Weighted>
-0.0000

> <Gold.Chemscore.Lipo.Weighted>
-12.8963

> <Gold.Chemscore.Internal_Hbond.Weighted>
0.0000

> <Gold.Chemscore.DEClash.Weighted>
0.0797

> <Gold.Chemscore.DEInternal.Weighted>
1.2306

> <Gold.Chemscore.Rot.Weighted>
7.5097

> <Gold.Chemscore.Internal.Correction.Weighted>
   9.000000E+99

> <Gold.Protein.RotatedTorsions>
[ 6907 6896 6895 6894 ] final  149.26 input  -60.11 | X-H torsion
[ 7974 7965 7964 7962 ] final  -47.14 input  175.53 | X-H torsion
[ 8008 7997 7996 7995 ] final  179.10 input   59.86 | X-H torsion
[ 10167 10162 10161 10158 ] final  -94.09 input  -65.29 | X-H torsion
[ 10718 10713 10712 10709 ] final  171.16 input   66.30 | X-H torsion
[ 10763 10752 10751 10750 ] final  -99.10 input  -60.55 | X-H torsion
[ 11005 11000 10999 10996 ] final  159.76 input  -57.11 | X-H torsion

> <Gold.Protein.ActiveResidues>
 VAL166  LYS551  ARG553  GLY616  TRP617  ASP618  TYR619  PRO620  LYS621  CYS622 
 ASP623  PHE694  ASN695  SER759  ASP760  ASP761  ALA762  ILE779  LEU786  VAL792 
 PHE793  MET794  SER795  GLU796  ALA797  LYS798  CYS799  TRP800  GLU811  SER814 

> <Gold.Protein.RotatedAtoms>
  152.1304  133.4404  159.4717 H   0  0  0  0  0  0  0  0  0  0  0  0  # atno 6907 bound_to 6896
  150.6878  134.2427  159.4488 H   0  0  0  0  0  0  0  0  0  0  0  0  # atno 6908 bound_to 6896
  152.0311  134.9767  160.0623 H   0  0  0  0  0  0  0  0  0  0  0  0  # atno 6909 bound_to 6896
  145.9647  140.7444  142.9440 H   0  0  0  0  0  0  0  0  0  0  0  0  # atno 7974 bound_to 7965
  156.0472  140.1317  157.0090 H   0  0  0  0  0  0  0  0  0  0  0  0  # atno 8008 bound_to 7997
  154.4418  140.1018  156.6394 H   0  0  0  0  0  0  0  0  0  0  0  0  # atno 8009 bound_to 7997
  155.5578  140.3464  155.4486 H   0  0  0  0  0  0  0  0  0  0  0  0  # atno 8010 bound_to 7997
  140.3179  143.3066  152.0078 H   0  0  0  0  0  0  0  0  0  0  0  0  # atno 10167 bound_to 10162
  156.9976  131.0166  151.2839 H   0  0  0  0  0  0  0  0  0  0  0  0  # atno 10718 bound_to 10713
  154.7470  135.4985  153.9221 H   0  0  0  0  0  0  0  0  0  0  0  0  # atno 10763 bound_to 10752
  153.1102  135.6707  153.9522 H   0  0  0  0  0  0  0  0  0  0  0  0  # atno 10764 bound_to 10752
  153.9283  135.3080  155.3425 H   0  0  0  0  0  0  0  0  0  0  0  0  # atno 10765 bound_to 10752
  140.1993  134.8350  157.3000 H   0  0  0  0  0  0  0  0  0  0  0  0  # atno 11005 bound_to 11000
  144.6823  140.2649  143.7314 LP  0  0  0  0  0  0  0  0  0  0  0  0  # atno 17320 bound_to 7965
  145.7991  139.1957  143.2059 LP  0  0  0  0  0  0  0  0  0  0  0  0  # atno 17321 bound_to 7965
  139.4880  144.6333  151.7025 LP  0  0  0  0  0  0  0  0  0  0  0  0  # atno 17342 bound_to 10162
  140.5509  144.0426  150.6127 LP  0  0  0  0  0  0  0  0  0  0  0  0  # atno 17343 bound_to 10162
  157.5413  130.8122  149.8033 LP  0  0  0  0  0  0  0  0  0  0  0  0  # atno 17370 bound_to 10713
  156.0183  130.3805  150.2041 LP  0  0  0  0  0  0  0  0  0  0  0  0  # atno 17371 bound_to 10713
  140.2072  134.4183  155.7631 LP  0  0  0  0  0  0  0  0  0  0  0  0  # atno 17394 bound_to 11000
  141.2227  133.7100  156.8279 LP  0  0  0  0  0  0  0  0  0  0  0  0  # atno 17395 bound_to 11000

$$$$
