AV-unprocessed.smi:2027|AV-procd|sdf|8219|dock4
  -GOLD-   2272010483D 1   1.00000     0.00000
 Structure written by MMmdl.
 51 53  0  0  0  0  0  0  0  0  3 V2000
  153.0705  142.3063  160.8108 C   0  0  0  0  0  0  0  0  0  0  0  0
  152.1866  141.9778  159.6199 C   0  0  0  0  0  0  0  0  0  0  0  0
  152.3477  140.7255  158.9859 C   0  0  0  0  0  0  0  0  0  0  0  0
  151.5234  140.4529  157.9010 C   0  0  0  0  0  0  0  0  0  0  0  0
  151.4383  139.3267  157.0807 N   0  3  0  0  0  0  0  0  0  0  0  0
  150.4707  139.5196  156.1430 C   0  0  0  0  0  0  0  0  0  0  0  0
  149.9391  140.7564  156.3469 N   0  0  0  0  0  0  0  0  0  0  0  0
  148.8601  141.4445  155.6173 C   0  0  0  0  0  0  0  0  0  0  0  0
  148.3974  140.7089  154.3405 C   0  0  2  0  0  0  0  0  0  0  0  0
  149.2783  141.0276  153.2804 O   0  0  0  0  0  0  0  0  0  0  0  0
  146.9562  141.0581  153.9101 C   0  0  0  0  0  0  0  0  0  0  0  0
  146.0873  139.8638  153.7359 N   0  3  2  0  0  0  0  0  0  0  0  0
  145.5869  139.3530  155.0322 C   0  0  0  0  0  0  0  0  0  0  0  0
  146.6745  138.7881  152.8934 C   0  0  0  0  0  0  0  0  0  0  0  0
  145.7522  137.6008  152.8397 C   0  0  0  0  0  0  0  0  0  0  0  0
  146.0212  136.2592  153.2370 C   0  0  0  0  0  0  0  0  0  0  0  0
  144.9919  135.4505  153.0511 N   0  0  0  0  0  0  0  0  0  0  0  0
  144.0280  136.2446  152.5426 N   0  0  0  0  0  0  0  0  0  0  0  0
  142.7373  135.6782  152.2139 C   0  0  0  0  0  0  0  0  0  0  0  0
  144.4564  137.5474  152.4081 C   0  0  0  0  0  0  0  0  0  0  0  0
  150.5629  141.3746  157.4387 C   0  0  0  0  0  0  0  0  0  0  0  0
  150.3933  142.6141  158.0525 C   0  0  0  0  0  0  0  0  0  0  0  0
  151.2225  142.9106  159.1579 C   0  0  0  0  0  0  0  0  0  0  0  0
  151.0584  144.2548  159.8471 C   0  0  0  0  0  0  0  0  0  0  0  0
  153.7187  141.4686  161.0697 H   0  0  0  0  0  0  0  0  0  0  0  0
  152.4644  142.5399  161.6864 H   0  0  0  0  0  0  0  0  0  0  0  0
  153.7059  143.1642  160.5896 H   0  0  0  0  0  0  0  0  0  0  0  0
  153.0801  140.0105  159.3322 H   0  0  0  0  0  0  0  0  0  0  0  0
  150.1790  138.8182  155.3745 H   0  0  0  0  0  0  0  0  0  0  0  0
  148.0225  141.5477  156.3088 H   0  0  0  0  0  0  0  0  0  0  0  0
  149.1748  142.4607  155.3820 H   0  0  0  0  0  0  0  0  0  0  0  0
  148.4772  139.6406  154.5343 H   0  0  0  0  0  0  0  0  0  0  0  0
  149.0851  140.4617  152.5480 H   0  0  0  0  0  0  0  0  0  0  0  0
  146.4970  141.7317  154.6352 H   0  0  0  0  0  0  0  0  0  0  0  0
  146.9929  141.6034  152.9660 H   0  0  0  0  0  0  0  0  0  0  0  0
  146.4061  138.9734  155.6445 H   0  0  0  0  0  0  0  0  0  0  0  0
  144.8701  138.5458  154.8768 H   0  0  0  0  0  0  0  0  0  0  0  0
  145.0772  140.1391  155.5904 H   0  0  0  0  0  0  0  0  0  0  0  0
  146.8940  139.1666  151.8941 H   0  0  0  0  0  0  0  0  0  0  0  0
  147.6418  138.4806  153.2935 H   0  0  0  0  0  0  0  0  0  0  0  0
  146.9322  135.8494  153.6478 H   0  0  0  0  0  0  0  0  0  0  0  0
  142.0309  136.4726  151.9723 H   0  0  0  0  0  0  0  0  0  0  0  0
  142.3538  135.1098  153.0617 H   0  0  0  0  0  0  0  0  0  0  0  0
  142.8350  135.0161  151.3533 H   0  0  0  0  0  0  0  0  0  0  0  0
  143.8123  138.3203  152.0148 H   0  0  0  0  0  0  0  0  0  0  0  0
  149.6601  143.3273  157.7073 H   0  0  0  0  0  0  0  0  0  0  0  0
  150.3191  144.8761  159.3406 H   0  0  0  0  0  0  0  0  0  0  0  0
  152.0017  144.8013  159.8544 H   0  0  0  0  0  0  0  0  0  0  0  0
  150.7293  144.1175  160.8774 H   0  0  0  0  0  0  0  0  0  0  0  0
  145.2681  140.1886  153.2416 H   0  0  0  0  0  0  0  0  0  0  0  0
  151.9954  138.4848  157.1558 H   0  0  0  0  0  0  0  0  0  0  0  0
  1  2  1  0  0  0  0
  1 25  1  0  0  0  0
  1 26  1  0  0  0  0
  1 27  1  0  0  0  0
  2 23  1  0  0  0  0
  2  3  2  0  0  0  0
  3  4  1  0  0  0  0
  3 28  1  0  0  0  0
  4 21  2  0  0  0  0
  4  5  1  0  0  0  0
  5  6  2  0  0  0  0
  5 51  1  0  0  0  0
  6  7  1  0  0  0  0
  6 29  1  0  0  0  0
  7  8  1  0  0  0  0
  7 21  1  0  0  0  0
  8  9  1  0  0  0  0
  8 30  1  0  0  0  0
  8 31  1  0  0  0  0
  9 10  1  0  0  0  0
  9 11  1  0  0  0  0
  9 32  1  0  0  0  0
 10 33  1  0  0  0  0
 11 12  1  0  0  0  0
 11 34  1  0  0  0  0
 11 35  1  0  0  0  0
 12 13  1  0  0  0  0
 12 14  1  0  0  0  0
 12 50  1  0  0  0  0
 13 36  1  0  0  0  0
 13 37  1  0  0  0  0
 13 38  1  0  0  0  0
 14 15  1  0  0  0  0
 14 39  1  0  0  0  0
 14 40  1  0  0  0  0
 15 20  2  0  0  0  0
 15 16  1  0  0  0  0
 16 17  2  0  0  0  0
 16 41  1  0  0  0  0
 17 18  1  0  0  0  0
 18 19  1  0  0  0  0
 18 20  1  0  0  0  0
 19 42  1  0  0  0  0
 19 43  1  0  0  0  0
 19 44  1  0  0  0  0
 20 45  1  0  0  0  0
 21 22  1  0  0  0  0
 22 23  2  0  0  0  0
 22 46  1  0  0  0  0
 23 24  1  0  0  0  0
 24 47  1  0  0  0  0
 24 48  1  0  0  0  0
 24 49  1  0  0  0  0
M  CHG  1   5   1
M  CHG  1  12   1
M  END
> <s_m_source_file>
AV-unprocessed.smi

> <i_m_source_file_index>
2027

> <i_lp_mmshare_version>
43012

> <i_f3d_flags>
0

> <s_epik_input>
W0NIM11jKFtjSF0xKWMoW0NIM10pW2NIXWMoYzEyKW4oW2NIXW4yKVtDSDJdW0NASF0oW09IXSlbQ0gyXU4oW0NIM10pW0NIMl1jM1tjSF1ubihbQ0gzXSlbY0hdMw==

> <s_epik_cmdline>
J2VwaWtfcHl0aG9uJywgJy1waCcsICc3LjAnLCAnLXRuJywgJzgnLCAnLW1hJywgJzIwMCcsICctbWV0YWxfYmluZGluZycsICctaW1hZScsICc8aW5maWxlLm1hZT4nLCAnLW9tYWUnLCAnPG91dGZpbGUubWFlPic=

> <r_lp_tautomer_probability>
1

> <r_epik_Ionization_Penalty>
1.77469

> <r_epik_Ionization_Penalty_Charging>
1.77463

> <r_epik_Ionization_Penalty_Neutral>
6.41153e-05

> <r_epik_State_Penalty>
1.85225

> <r_epik_Charging_Adjusted_Penalty>
3.62688

> <i_epik_Tot_Q>
2

> <i_epik_Tot_abs_Q>
2

> <r_epik_Metal_State_Penalty>
1.92669

> <b_epik_Metal_Only>
0

> <s_lp_Force_Field>
OPLS_2005

> <r_lp_Energy>
22.3184

> <b_lp_Chiralities_Consistent>
1

> <s_lp_Variant>
AV-unprocessed.smi:2027-11

> <Gold.Version>
5.8.1

> <Gold.Id.Protein>
6NUR|6NUR_protein|mol2

> <Gold.PLP.Fitness>
57.5896

> <Gold.PLP.PLP>
-41.4977

> <Gold.PLP.part.hbond>
-3.1893

> <Gold.PLP.part.metal>
0.0000

> <Gold.PLP.part.buried>
-4.1006

> <Gold.PLP.part.nonpolar>
-35.6356

> <Gold.PLP.part.repulsive>
0.1645

> <Gold.PLP.ligand.clash>
0.0000

> <Gold.PLP.ligand.torsion>
1.1837

> <Gold.PLP.Chemscore.Hbond>
3.7436

> <Gold.PLP.Chemscore.CHOScore>
2.3337

> <Gold.PLP.Chemscore.Metal>
0.0000

> <Gold.Chemscore.Hbonds>
donor molecule, donor type, donor heavy atom, donor atom, acceptor molecule, acceptor atom, score
      L1  H    10    33       P1  7957  0.85
      L1  H    12    50       P1 10175  2.00
      P1  H  7989  7998       L1    10  0.05
      P1  H  8011  8017       L1    10  0.80
      L1  C    16    41       P1  7948  0.31
      L1  C    20    45       P1 10171  0.73
      L1  C    20    45       P1 10175  1.00

> <Gold.PLP.Chemscore.Internal.Correction>
0.2273

> <Gold.Rescore>
     Score         DG    S(hbond)    S(metal)    S(lipo)     H(rot)  DE(clash)    DE(int)     intcor
     18.65     -20.19       2.23        0.00     118.62       2.58       0.16       1.38       ----

> <Gold.Chemscore.Fitness>
18.6524

> <Gold.Chemscore.DG>
-20.1927

> <Gold.Chemscore.ZeroCoef>
-5.4800

> <Gold.Chemscore.Hbond>
2.2300

> <Gold.Chemscore.Metal>
0.0000

> <Gold.Chemscore.Lipo>
118.6199

> <Gold.Chemscore.Internal_Hbond>
0.0000

> <Gold.Chemscore.DEClash>
0.1623

> <Gold.Chemscore.DEInternal>
1.3781

> <Gold.Chemscore.Rot>
2.5836

> <Gold.Chemscore.Internal.Correction>
   9.000000E+99

> <Gold.Chemscore.Hbonds>
donor molecule, donor type, donor heavy atom, donor atom, acceptor molecule, acceptor atom, score
      L1  H    10    33       P1  7957  0.79
      L1  H    12    50       P1 10175  1.00
      P1  H  7989  7998       L1    10  0.02
      P1  H  8011  8017       L1    10  0.12

> <Gold.Chemscore.Hbond.Weighted>
-7.4481

> <Gold.Chemscore.Metal.Weighted>
-0.0000

> <Gold.Chemscore.Lipo.Weighted>
-13.8785

> <Gold.Chemscore.Internal_Hbond.Weighted>
0.0000

> <Gold.Chemscore.DEClash.Weighted>
0.1623

> <Gold.Chemscore.DEInternal.Weighted>
1.3781

> <Gold.Chemscore.Rot.Weighted>
6.6139

> <Gold.Chemscore.Internal.Correction.Weighted>
   9.000000E+99

> <Gold.Protein.RotatedTorsions>
[ 6907 6896 6895 6894 ] final -173.53 input  -60.11 | X-H torsion
[ 7974 7965 7964 7962 ] final  115.42 input  175.53 | X-H torsion
[ 8008 7997 7996 7995 ] final   82.65 input   59.86 | X-H torsion
[ 10167 10162 10161 10158 ] final -138.43 input  -65.29 | X-H torsion
[ 10718 10713 10712 10709 ] final  128.56 input   66.30 | X-H torsion
[ 10763 10752 10751 10750 ] final  -54.27 input  -60.55 | X-H torsion
[ 11005 11000 10999 10996 ] final   52.71 input  -57.11 | X-H torsion

> <Gold.Protein.ActiveResidues>
 VAL166  LYS551  ARG553  GLY616  TRP617  ASP618  TYR619  PRO620  LYS621  CYS622 
 ASP623  PHE694  ASN695  SER759  ASP760  ASP761  ALA762  ILE779  LEU786  VAL792 
 PHE793  MET794  SER795  GLU796  ALA797  LYS798  CYS799  TRP800  GLU811  SER814 

> <Gold.Protein.RotatedAtoms>
  151.5576  133.3408  159.2964 H   0  0  0  0  0  0  0  0  0  0  0  0  # atno 6907 bound_to 6896
  150.8441  134.7747  159.6967 H   0  0  0  0  0  0  0  0  0  0  0  0  # atno 6908 bound_to 6896
  152.4503  134.5416  159.9892 H   0  0  0  0  0  0  0  0  0  0  0  0  # atno 6909 bound_to 6896
  145.1922  139.2994  143.4362 H   0  0  0  0  0  0  0  0  0  0  0  0  # atno 7974 bound_to 7965
  155.9135  140.3426  155.6117 H   0  0  0  0  0  0  0  0  0  0  0  0  # atno 8008 bound_to 7997
  155.7359  140.0801  157.2286 H   0  0  0  0  0  0  0  0  0  0  0  0  # atno 8009 bound_to 7997
  154.4059  140.1579  156.2549 H   0  0  0  0  0  0  0  0  0  0  0  0  # atno 8010 bound_to 7997
  139.8479  143.7237  152.2660 H   0  0  0  0  0  0  0  0  0  0  0  0  # atno 10167 bound_to 10162
  157.5233  131.1098  150.9120 H   0  0  0  0  0  0  0  0  0  0  0  0  # atno 10718 bound_to 10713
  154.1721  135.6457  153.5012 H   0  0  0  0  0  0  0  0  0  0  0  0  # atno 10763 bound_to 10752
  153.0081  135.5386  154.6602 H   0  0  0  0  0  0  0  0  0  0  0  0  # atno 10764 bound_to 10752
  154.5944  135.2937  155.0574 H   0  0  0  0  0  0  0  0  0  0  0  0  # atno 10765 bound_to 10752
  140.0826  134.5317  155.8931 H   0  0  0  0  0  0  0  0  0  0  0  0  # atno 11005 bound_to 11000
  146.3434  140.2139  142.8590 LP  0  0  0  0  0  0  0  0  0  0  0  0  # atno 17320 bound_to 7965
  145.0030  140.8648  143.5270 LP  0  0  0  0  0  0  0  0  0  0  0  0  # atno 17321 bound_to 7965
  139.7494  144.7538  151.0529 LP  0  0  0  0  0  0  0  0  0  0  0  0  # atno 17342 bound_to 10162
  140.7791  143.4877  150.9934 LP  0  0  0  0  0  0  0  0  0  0  0  0  # atno 17343 bound_to 10162
  156.9724  130.5496  149.5291 LP  0  0  0  0  0  0  0  0  0  0  0  0  # atno 17370 bound_to 10713
  156.0369  130.5455  150.8675 LP  0  0  0  0  0  0  0  0  0  0  0  0  # atno 17371 bound_to 10713
  141.2052  133.6645  156.6166 LP  0  0  0  0  0  0  0  0  0  0  0  0  # atno 17394 bound_to 11000
  140.3465  134.7804  157.4436 LP  0  0  0  0  0  0  0  0  0  0  0  0  # atno 17395 bound_to 11000

$$$$
