AV-unprocessed.smi:2276|AV-procd|sdf|9173|dock8
  -GOLD-   2272012383D 1   1.00000     0.00000
 Structure written by MMmdl.
 53 54  0  0  0  0  0  0  0  0  2 V2000
  152.0010  145.7225  160.4990 C   0  0  0  0  0  0  0  0  0  0  0  0
  152.0080  144.3849  159.7892 C   0  0  0  0  0  0  0  0  0  0  0  0
  152.8531  143.3494  160.2308 C   0  0  0  0  0  0  0  0  0  0  0  0
  152.8212  142.1234  159.5388 C   0  0  0  0  0  0  0  0  0  0  0  0
  153.7082  140.9693  159.9553 C   0  0  0  0  0  0  0  0  0  0  0  0
  152.0241  141.9012  158.4725 N   0  0  0  0  0  0  0  0  0  0  0  0
  151.2039  142.8906  158.0383 C   0  0  0  0  0  0  0  0  0  0  0  0
  150.3622  142.7668  156.9014 N   0  0  0  0  0  0  0  0  0  0  0  0
  150.0839  141.6466  156.2131 C   0  0  0  0  0  0  0  0  0  0  0  0
  150.5524  140.5341  156.4551 O   0  0  0  0  0  0  0  0  0  0  0  0
  149.2489  141.8989  155.1939 N   0  0  0  0  0  0  0  0  0  0  0  0
  148.9093  140.9761  154.1099 C   0  0  0  0  0  0  0  0  0  0  0  0
  147.3941  140.9110  153.7842 C   0  0  1  0  0  0  0  0  0  0  0  0
  147.0914  139.6951  152.8946 C   0  0  0  0  0  0  0  0  0  0  0  0
  146.5096  140.9108  155.0587 C   0  0  0  0  0  0  0  0  0  0  0  0
  146.5401  142.1653  155.8219 N   0  0  0  0  0  0  0  0  0  0  0  0
  145.8316  143.2396  155.1183 C   0  0  0  0  0  0  0  0  0  0  0  0
  144.2992  143.0214  155.0977 C   0  0  0  0  0  0  0  0  0  0  0  0
  143.7652  142.8777  156.4733 N   0  3  0  0  0  0  0  0  0  0  0  0
  142.3009  142.6736  156.4995 C   0  0  0  0  0  0  0  0  0  0  0  0
  144.4938  141.8244  157.2154 C   0  0  0  0  0  0  0  0  0  0  0  0
  146.0105  142.0988  157.1907 C   0  0  0  0  0  0  0  0  0  0  0  0
  151.1738  144.1505  158.6768 C   0  0  0  0  0  0  0  0  0  0  0  0
  151.5391  145.6245  161.4816 H   0  0  0  0  0  0  0  0  0  0  0  0
  151.4447  146.4695  159.9319 H   0  0  0  0  0  0  0  0  0  0  0  0
  153.0196  146.0874  160.6330 H   0  0  0  0  0  0  0  0  0  0  0  0
  153.5066  143.4926  161.0790 H   0  0  0  0  0  0  0  0  0  0  0  0
  154.1385  141.1397  160.9426 H   0  0  0  0  0  0  0  0  0  0  0  0
  154.5238  140.8448  159.2428 H   0  0  0  0  0  0  0  0  0  0  0  0
  153.1376  140.0406  159.9906 H   0  0  0  0  0  0  0  0  0  0  0  0
  150.0809  143.6379  156.4763 H   0  0  0  0  0  0  0  0  0  0  0  0
  148.8944  142.8398  155.1028 H   0  0  0  0  0  0  0  0  0  0  0  0
  149.4755  141.2519  153.2192 H   0  0  0  0  0  0  0  0  0  0  0  0
  149.2626  139.9877  154.4056 H   0  0  0  0  0  0  0  0  0  0  0  0
  147.1789  141.7952  153.1895 H   0  0  0  0  0  0  0  0  0  0  0  0
  147.2972  138.7602  153.4167 H   0  0  0  0  0  0  0  0  0  0  0  0
  147.6982  139.7106  151.9889 H   0  0  0  0  0  0  0  0  0  0  0  0
  146.0458  139.6809  152.5862 H   0  0  0  0  0  0  0  0  0  0  0  0
  145.4796  140.7031  154.7655 H   0  0  0  0  0  0  0  0  0  0  0  0
  146.7966  140.0929  155.7141 H   0  0  0  0  0  0  0  0  0  0  0  0
  146.0575  144.1864  155.6107 H   0  0  0  0  0  0  0  0  0  0  0  0
  146.2143  143.3274  154.1008 H   0  0  0  0  0  0  0  0  0  0  0  0
  143.8217  143.8774  154.6199 H   0  0  0  0  0  0  0  0  0  0  0  0
  144.0312  142.1502  154.4991 H   0  0  0  0  0  0  0  0  0  0  0  0
  142.0269  141.7356  156.0141 H   0  0  0  0  0  0  0  0  0  0  0  0
  141.7895  143.4883  155.9864 H   0  0  0  0  0  0  0  0  0  0  0  0
  141.9358  142.6443  157.5267 H   0  0  0  0  0  0  0  0  0  0  0  0
  144.1450  141.8069  158.2486 H   0  0  0  0  0  0  0  0  0  0  0  0
  144.2651  140.8463  156.7959 H   0  0  0  0  0  0  0  0  0  0  0  0
  146.5398  141.3566  157.7850 H   0  0  0  0  0  0  0  0  0  0  0  0
  146.2101  143.0525  157.6816 H   0  0  0  0  0  0  0  0  0  0  0  0
  150.5198  144.9313  158.3156 H   0  0  0  0  0  0  0  0  0  0  0  0
  143.9522  143.7487  156.9491 H   0  0  0  0  0  0  0  0  0  0  0  0
  1  2  1  0  0  0  0
  1 24  1  0  0  0  0
  1 25  1  0  0  0  0
  1 26  1  0  0  0  0
  2 23  1  0  0  0  0
  2  3  2  0  0  0  0
  3  4  1  0  0  0  0
  3 27  1  0  0  0  0
  4  5  1  0  0  0  0
  4  6  2  0  0  0  0
  5 28  1  0  0  0  0
  5 29  1  0  0  0  0
  5 30  1  0  0  0  0
  6  7  1  0  0  0  0
  7  8  1  0  0  0  0
  7 23  2  0  0  0  0
  8  9  1  0  0  0  0
  8 31  1  0  0  0  0
  9 10  2  0  0  0  0
  9 11  1  0  0  0  0
 11 12  1  0  0  0  0
 11 32  1  0  0  0  0
 12 13  1  0  0  0  0
 12 33  1  0  0  0  0
 12 34  1  0  0  0  0
 13 14  1  0  0  0  0
 13 15  1  0  0  0  0
 13 35  1  0  0  0  0
 14 36  1  0  0  0  0
 14 37  1  0  0  0  0
 14 38  1  0  0  0  0
 15 16  1  0  0  0  0
 15 39  1  0  0  0  0
 15 40  1  0  0  0  0
 16 22  1  0  0  0  0
 16 17  1  0  0  0  0
 17 18  1  0  0  0  0
 17 41  1  0  0  0  0
 17 42  1  0  0  0  0
 18 19  1  0  0  0  0
 18 43  1  0  0  0  0
 18 44  1  0  0  0  0
 19 20  1  0  0  0  0
 19 21  1  0  0  0  0
 19 53  1  0  0  0  0
 20 45  1  0  0  0  0
 20 46  1  0  0  0  0
 20 47  1  0  0  0  0
 21 22  1  0  0  0  0
 21 48  1  0  0  0  0
 21 49  1  0  0  0  0
 22 50  1  0  0  0  0
 22 51  1  0  0  0  0
 23 52  1  0  0  0  0
M  CHG  1  19   1
M  END
> <s_m_source_file>
AV-unprocessed.smi

> <i_m_source_file_index>
2276

> <i_lp_mmshare_version>
43012

> <i_f3d_flags>
0

> <s_epik_input>
W0NIM11jMVtjSF1jKFtDSDNdKW5jKFtjSF0xKVtOSF1DKD1PKVtOSF1bQ0gyXVtDQEhdKFtDSDNdKVtDSDJdTjJbQ0gyXVtDSDJdTihbQ0gzXSlbQ0gyXVtDSDJdMg==

> <s_epik_cmdline>
J2VwaWtfcHl0aG9uJywgJy1waCcsICc3LjAnLCAnLXRuJywgJzgnLCAnLW1hJywgJzIwMCcsICctbWV0YWxfYmluZGluZycsICctaW1hZScsICc8aW5maWxlLm1hZT4nLCAnLW9tYWUnLCAnPG91dGZpbGUubWFlPic=

> <r_epik_Ionization_Penalty>
0.0247364

> <r_epik_Ionization_Penalty_Charging>
0.0230248

> <r_epik_Ionization_Penalty_Neutral>
0.00171164

> <r_epik_State_Penalty>
0.239056

> <r_epik_Charging_Adjusted_Penalty>
0.262081

> <i_epik_Tot_Q>
1

> <i_epik_Tot_abs_Q>
1

> <r_epik_Metal_State_Penalty>
0.239048

> <b_epik_Metal_Only>
0

> <s_lp_Force_Field>
OPLS_2005

> <r_lp_Energy>
20.5392

> <b_lp_Chiralities_Consistent>
1

> <s_lp_Variant>
AV-unprocessed.smi:2276-2

> <Gold.Version>
5.8.1

> <Gold.Id.Protein>
6NUR|6NUR_protein|mol2

> <Gold.PLP.Fitness>
48.3288

> <Gold.PLP.PLP>
-43.0439

> <Gold.PLP.part.hbond>
-2.0000

> <Gold.PLP.part.metal>
0.0000

> <Gold.PLP.part.buried>
-5.3027

> <Gold.PLP.part.nonpolar>
-37.2274

> <Gold.PLP.part.repulsive>
0.3920

> <Gold.PLP.ligand.clash>
0.0000

> <Gold.PLP.ligand.torsion>
0.3791

> <Gold.PLP.Chemscore.Hbond>
1.9920

> <Gold.PLP.Chemscore.CHOScore>
0.0000

> <Gold.PLP.Chemscore.Metal>
0.0000

> <Gold.Chemscore.Hbonds>
donor molecule, donor type, donor heavy atom, donor atom, acceptor molecule, acceptor atom, score
      L1  H     8    31       P1  8028  1.00
      L1  H    11    32       P1  8028  1.00

> <Gold.PLP.Chemscore.Internal.Correction>
0.0669

> <Gold.Rescore>
     Score         DG    S(hbond)    S(metal)    S(lipo)     H(rot)  DE(clash)    DE(int)     intcor
     17.22     -20.55       1.89        0.00     110.44       1.63       0.27       3.06       ----

> <Gold.Chemscore.Fitness>
17.2194

> <Gold.Chemscore.DG>
-20.5493

> <Gold.Chemscore.ZeroCoef>
-5.4800

> <Gold.Chemscore.Hbond>
1.8910

> <Gold.Chemscore.Metal>
0.0000

> <Gold.Chemscore.Lipo>
110.4395

> <Gold.Chemscore.Internal_Hbond>
0.0000

> <Gold.Chemscore.DEClash>
0.2740

> <Gold.Chemscore.DEInternal>
3.0558

> <Gold.Chemscore.Rot>
1.6282

> <Gold.Chemscore.Internal.Correction>
   9.000000E+99

> <Gold.Chemscore.Hbonds>
donor molecule, donor type, donor heavy atom, donor atom, acceptor molecule, acceptor atom, score
      L1  H     8    31       P1  8028  0.98
      L1  H    11    32       P1  8028  0.95

> <Gold.Chemscore.Hbond.Weighted>
-6.3160

> <Gold.Chemscore.Metal.Weighted>
-0.0000

> <Gold.Chemscore.Lipo.Weighted>
-12.9214

> <Gold.Chemscore.Internal_Hbond.Weighted>
0.0000

> <Gold.Chemscore.DEClash.Weighted>
0.2740

> <Gold.Chemscore.DEInternal.Weighted>
3.0558

> <Gold.Chemscore.Rot.Weighted>
4.1682

> <Gold.Chemscore.Internal.Correction.Weighted>
   9.000000E+99

> <Gold.Protein.RotatedTorsions>
[ 6907 6896 6895 6894 ] final   66.53 input  -60.11 | X-H torsion
[ 7974 7965 7964 7962 ] final -177.23 input  175.53 | X-H torsion
[ 8008 7997 7996 7995 ] final   44.28 input   59.86 | X-H torsion
[ 10167 10162 10161 10158 ] final  157.34 input  -65.29 | X-H torsion
[ 10718 10713 10712 10709 ] final  -57.21 input   66.30 | X-H torsion
[ 10763 10752 10751 10750 ] final -164.78 input  -60.55 | X-H torsion
[ 11005 11000 10999 10996 ] final -165.99 input  -57.11 | X-H torsion

> <Gold.Protein.ActiveResidues>
 VAL166  LYS551  ARG553  GLY616  TRP617  ASP618  TYR619  PRO620  LYS621  CYS622 
 ASP623  PHE694  ASN695  SER759  ASP760  ASP761  ALA762  ILE779  LEU786  VAL792 
 PHE793  MET794  SER795  GLU796  ALA797  LYS798  CYS799  TRP800  GLU811  SER814 

> <Gold.Protein.RotatedAtoms>
  152.4488  134.5439  159.9846 H   0  0  0  0  0  0  0  0  0  0  0  0  # atno 6907 bound_to 6896
  151.5517  133.3411  159.2962 H   0  0  0  0  0  0  0  0  0  0  0  0  # atno 6908 bound_to 6896
  150.8411  134.7735  159.6996 H   0  0  0  0  0  0  0  0  0  0  0  0  # atno 6909 bound_to 6896
  144.7127  140.1051  143.6414 H   0  0  0  0  0  0  0  0  0  0  0  0  # atno 7974 bound_to 7965
  155.3166  140.3394  155.4242 H   0  0  0  0  0  0  0  0  0  0  0  0  # atno 8008 bound_to 7997
  156.1929  140.1704  156.8093 H   0  0  0  0  0  0  0  0  0  0  0  0  # atno 8009 bound_to 7997
  154.5464  140.0714  156.8579 H   0  0  0  0  0  0  0  0  0  0  0  0  # atno 8010 bound_to 7997
  139.4823  144.4927  151.8285 H   0  0  0  0  0  0  0  0  0  0  0  0  # atno 10167 bound_to 10162
  156.1228  130.4165  150.0410 H   0  0  0  0  0  0  0  0  0  0  0  0  # atno 10718 bound_to 10713
  154.6995  135.2985  154.9361 H   0  0  0  0  0  0  0  0  0  0  0  0  # atno 10763 bound_to 10752
  154.0298  135.6671  153.4784 H   0  0  0  0  0  0  0  0  0  0  0  0  # atno 10764 bound_to 10752
  153.0671  135.5082  154.8132 H   0  0  0  0  0  0  0  0  0  0  0  0  # atno 10765 bound_to 10752
  140.5695  134.5252  157.5159 H   0  0  0  0  0  0  0  0  0  0  0  0  # atno 11005 bound_to 11000
  145.9504  139.2730  143.1216 LP  0  0  0  0  0  0  0  0  0  0  0  0  # atno 17320 bound_to 7965
  145.9329  140.9035  143.0347 LP  0  0  0  0  0  0  0  0  0  0  0  0  # atno 17321 bound_to 7965
  140.4412  144.1983  150.5891 LP  0  0  0  0  0  0  0  0  0  0  0  0  # atno 17342 bound_to 10162
  140.4681  143.2423  151.9127 LP  0  0  0  0  0  0  0  0  0  0  0  0  # atno 17343 bound_to 10162
  156.8343  130.9403  151.3635 LP  0  0  0  0  0  0  0  0  0  0  0  0  # atno 17370 bound_to 10713
  157.6411  130.8806  149.9450 LP  0  0  0  0  0  0  0  0  0  0  0  0  # atno 17371 bound_to 10713
  139.9368  134.7860  156.0781 LP  0  0  0  0  0  0  0  0  0  0  0  0  # atno 17394 bound_to 11000
  141.1065  133.6658  156.2875 LP  0  0  0  0  0  0  0  0  0  0  0  0  # atno 17395 bound_to 11000

$$$$
