AV-unprocessed.smi:736|AV-procd|sdf|3535|dock3
  -GOLD-   22720 0523D 1   1.00000     0.00000
 Structure written by MMmdl.
 46 47  0  0  0  0  0  0  0  0  1 V2000
  153.6393  137.7495  157.3083 C   0  0  0  0  0  0  0  0  0  0  0  0
  152.4583  138.4519  156.7960 N   0  0  0  0  0  0  0  0  0  0  0  0
  151.2997  138.4424  157.6914 C   0  0  0  0  0  0  0  0  0  0  0  0
  152.3715  139.0081  155.5628 C   0  0  0  0  0  0  0  0  0  0  0  0
  153.3410  139.1216  154.8108 O   0  0  0  0  0  0  0  0  0  0  0  0
  151.0330  139.5125  155.1018 C   0  0  0  0  0  0  0  0  0  0  0  0
  150.1434  138.6629  154.4045 C   0  0  0  0  0  0  0  0  0  0  0  0
  148.9034  139.1718  153.9660 C   0  0  0  0  0  0  0  0  0  0  0  0
  148.0395  138.2734  153.2788 N   0  0  0  0  0  0  0  0  0  0  0  0
  146.6993  138.1698  153.3199 C   0  0  0  0  0  0  0  0  0  0  0  0
  145.9458  138.8638  154.0012 O   0  0  0  0  0  0  0  0  0  0  0  0
  146.2683  137.1937  152.5072 N   0  0  0  0  0  0  0  0  0  0  0  0
  144.8715  136.8134  152.3016 C   0  0  0  0  0  0  0  0  0  0  0  0
  144.6815  135.2910  152.0831 C   0  0  0  0  0  0  0  0  0  0  0  0
  143.2080  134.8842  152.3063 C   0  0  0  0  0  0  0  0  0  0  0  0
  145.1182  134.8942  150.6486 C   0  0  0  0  0  0  0  0  0  0  0  0
  146.2718  133.8960  150.7860 C   0  0  0  0  0  0  0  0  0  0  0  0
  146.0946  133.2894  152.1721 C   0  0  0  0  0  0  0  0  0  0  0  0
  145.6041  134.4666  153.0108 C   0  0  0  0  0  0  0  0  0  0  0  0
  148.6054  140.5263  154.2496 C   0  0  0  0  0  0  0  0  0  0  0  0
  149.5628  141.2969  154.9374 C   0  0  0  0  0  0  0  0  0  0  0  0
  150.7509  140.8105  155.3518 N   0  0  0  0  0  0  0  0  0  0  0  0
  154.3273  138.4542  157.7759 H   0  0  0  0  0  0  0  0  0  0  0  0
  154.1739  137.2129  156.5234 H   0  0  0  0  0  0  0  0  0  0  0  0
  153.3661  137.0055  158.0576 H   0  0  0  0  0  0  0  0  0  0  0  0
  150.7568  139.3884  157.6576 H   0  0  0  0  0  0  0  0  0  0  0  0
  151.5934  138.2852  158.7300 H   0  0  0  0  0  0  0  0  0  0  0  0
  150.6119  137.6440  157.4104 H   0  0  0  0  0  0  0  0  0  0  0  0
  150.4116  137.6353  154.2044 H   0  0  0  0  0  0  0  0  0  0  0  0
  148.5050  137.6371  152.6486 H   0  0  0  0  0  0  0  0  0  0  0  0
  146.9576  136.6736  151.9845 H   0  0  0  0  0  0  0  0  0  0  0  0
  144.2499  137.1535  153.1317 H   0  0  0  0  0  0  0  0  0  0  0  0
  144.5147  137.3575  151.4263 H   0  0  0  0  0  0  0  0  0  0  0  0
  143.0527  133.8237  152.1049 H   0  0  0  0  0  0  0  0  0  0  0  0
  142.5403  135.4450  151.6516 H   0  0  0  0  0  0  0  0  0  0  0  0
  142.8878  135.0631  153.3328 H   0  0  0  0  0  0  0  0  0  0  0  0
  144.2959  134.4213  150.1096 H   0  0  0  0  0  0  0  0  0  0  0  0
  145.4218  135.7526  150.0479 H   0  0  0  0  0  0  0  0  0  0  0  0
  146.2732  133.1449  149.9956 H   0  0  0  0  0  0  0  0  0  0  0  0
  147.2229  134.4285  150.7400 H   0  0  0  0  0  0  0  0  0  0  0  0
  145.3338  132.5082  152.1431 H   0  0  0  0  0  0  0  0  0  0  0  0
  147.0141  132.8496  152.5596 H   0  0  0  0  0  0  0  0  0  0  0  0
  146.4692  135.0603  153.3097 H   0  0  0  0  0  0  0  0  0  0  0  0
  145.1106  134.1426  153.9280 H   0  0  0  0  0  0  0  0  0  0  0  0
  147.6775  140.9939  153.9628 H   0  0  0  0  0  0  0  0  0  0  0  0
  149.3669  142.3345  155.1637 H   0  0  0  0  0  0  0  0  0  0  0  0
  1  2  1  0  0  0  0
  1 23  1  0  0  0  0
  1 24  1  0  0  0  0
  1 25  1  0  0  0  0
  2  3  1  0  0  0  0
  2  4  1  0  0  0  0
  3 26  1  0  0  0  0
  3 27  1  0  0  0  0
  3 28  1  0  0  0  0
  4  5  2  0  0  0  0
  4  6  1  0  0  0  0
  6 22  1  0  0  0  0
  6  7  2  0  0  0  0
  7  8  1  0  0  0  0
  7 29  1  0  0  0  0
  8  9  1  0  0  0  0
  8 20  2  0  0  0  0
  9 10  1  0  0  0  0
  9 30  1  0  0  0  0
 10 11  2  0  0  0  0
 10 12  1  0  0  0  0
 12 13  1  0  0  0  0
 12 31  1  0  0  0  0
 13 14  1  0  0  0  0
 13 32  1  0  0  0  0
 13 33  1  0  0  0  0
 14 19  1  0  0  0  0
 14 15  1  0  0  0  0
 14 16  1  0  0  0  0
 15 34  1  0  0  0  0
 15 35  1  0  0  0  0
 15 36  1  0  0  0  0
 16 17  1  0  0  0  0
 16 37  1  0  0  0  0
 16 38  1  0  0  0  0
 17 18  1  0  0  0  0
 17 39  1  0  0  0  0
 17 40  1  0  0  0  0
 18 19  1  0  0  0  0
 18 41  1  0  0  0  0
 18 42  1  0  0  0  0
 19 43  1  0  0  0  0
 19 44  1  0  0  0  0
 20 21  1  0  0  0  0
 20 45  1  0  0  0  0
 21 22  2  0  0  0  0
 21 46  1  0  0  0  0
M  END
> <s_m_source_file>
AV-unprocessed.smi

> <i_m_source_file_index>
736

> <i_lp_mmshare_version>
43012

> <i_f3d_flags>
0

> <s_epik_input>
W0NIM11OKFtDSDNdKUMoPU8pYzFbY0hdYyhbY0hdW2NIXW4xKVtOSF1DKD1PKVtOSF1bQ0gyXUMyKFtDSDNdKVtDSDJdW0NIMl1bQ0gyXVtDSDJdMg==

> <s_epik_cmdline>
J2VwaWtfcHl0aG9uJywgJy1waCcsICc3LjAnLCAnLXRuJywgJzgnLCAnLW1hJywgJzIwMCcsICctbWV0YWxfYmluZGluZycsICctaW1hZScsICc8aW5maWxlLm1hZT4nLCAnLW9tYWUnLCAnPG91dGZpbGUubWFlPic=

> <r_lp_tautomer_probability>
1

> <r_epik_Ionization_Penalty>
0.000119665

> <r_epik_Ionization_Penalty_Charging>
0

> <r_epik_Ionization_Penalty_Neutral>
0.000119665

> <r_epik_State_Penalty>
-0

> <r_epik_Charging_Adjusted_Penalty>
0

> <i_epik_Tot_Q>
0

> <i_epik_Tot_abs_Q>
0

> <r_epik_Metal_State_Penalty>
-0

> <b_epik_Metal_Only>
0

> <s_lp_Force_Field>
OPLS_2005

> <r_lp_Energy>
46.6669

> <b_lp_Chiralities_Consistent>
1

> <s_lp_Variant>
AV-unprocessed.smi:736-1

> <Gold.Version>
5.8.1

> <Gold.Id.Protein>
6NUR|6NUR_protein|mol2

> <Gold.PLP.Fitness>
45.8656

> <Gold.PLP.PLP>
-37.2037

> <Gold.PLP.part.hbond>
-4.8086

> <Gold.PLP.part.metal>
0.0000

> <Gold.PLP.part.buried>
-1.8569

> <Gold.PLP.part.nonpolar>
-30.4382

> <Gold.PLP.part.repulsive>
0.2844

> <Gold.PLP.ligand.clash>
0.0000

> <Gold.PLP.ligand.torsion>
2.1962

> <Gold.PLP.Chemscore.Hbond>
2.9040

> <Gold.PLP.Chemscore.CHOScore>
1.0000

> <Gold.PLP.Chemscore.Metal>
0.0000

> <Gold.Chemscore.Hbonds>
donor molecule, donor type, donor heavy atom, donor atom, acceptor molecule, acceptor atom, score
      L1  H     9    30       P1  7948  1.00
      L1  H    12    31       P1  7948  0.90
      P1  H  7997  8009       L1     5  1.00
      L1  C    21    46       P1  8028  1.00

> <Gold.PLP.Chemscore.Internal.Correction>
1.3423

> <Gold.Rescore>
     Score         DG    S(hbond)    S(metal)    S(lipo)     H(rot)  DE(clash)    DE(int)     intcor
     18.94     -21.01       2.92        0.00      75.38       1.18       0.02       2.06       ----

> <Gold.Chemscore.Fitness>
18.9391

> <Gold.Chemscore.DG>
-21.0121

> <Gold.Chemscore.ZeroCoef>
-5.4800

> <Gold.Chemscore.Hbond>
2.9161

> <Gold.Chemscore.Metal>
0.0000

> <Gold.Chemscore.Lipo>
75.3773

> <Gold.Chemscore.Internal_Hbond>
0.0000

> <Gold.Chemscore.DEClash>
0.0156

> <Gold.Chemscore.DEInternal>
2.0575

> <Gold.Chemscore.Rot>
1.1824

> <Gold.Chemscore.Internal.Correction>
   9.000000E+99

> <Gold.Chemscore.Hbonds>
donor molecule, donor type, donor heavy atom, donor atom, acceptor molecule, acceptor atom, score
      L1  H     9    30       P1  7948  1.00
      L1  H    12    31       P1  7948  0.82
      P1  H  7997  8009       L1     5  0.40

> <Gold.Chemscore.Hbond.Weighted>
-9.7398

> <Gold.Chemscore.Metal.Weighted>
-0.0000

> <Gold.Chemscore.Lipo.Weighted>
-8.8191

> <Gold.Chemscore.Internal_Hbond.Weighted>
0.0000

> <Gold.Chemscore.DEClash.Weighted>
0.0156

> <Gold.Chemscore.DEInternal.Weighted>
2.0575

> <Gold.Chemscore.Rot.Weighted>
3.0268

> <Gold.Chemscore.Internal.Correction.Weighted>
   9.000000E+99

> <Gold.Protein.RotatedTorsions>
[ 6907 6896 6895 6894 ] final -167.66 input  -60.11 | X-H torsion
[ 7974 7965 7964 7962 ] final   -9.13 input  175.53 | X-H torsion
[ 8008 7997 7996 7995 ] final -130.01 input   59.86 | X-H torsion
[ 10167 10162 10161 10158 ] final  131.96 input  -65.29 | X-H torsion
[ 10718 10713 10712 10709 ] final  -79.42 input   66.30 | X-H torsion
[ 10763 10752 10751 10750 ] final -108.58 input  -60.55 | X-H torsion
[ 11005 11000 10999 10996 ] final    6.81 input  -57.11 | X-H torsion

> <Gold.Protein.ActiveResidues>
 VAL166  LYS551  ARG553  GLY616  TRP617  ASP618  TYR619  PRO620  LYS621  CYS622 
 ASP623  PHE694  ASN695  SER759  ASP760  ASP761  ALA762  ILE779  LEU786  VAL792 
 PHE793  MET794  SER795  GLU796  ALA797  LYS798  CYS799  TRP800  GLU811  SER814 

> <Gold.Protein.RotatedAtoms>
  151.4631  133.3587  159.2811 H   0  0  0  0  0  0  0  0  0  0  0  0  # atno 6907 bound_to 6896
  150.9012  134.8425  159.7372 H   0  0  0  0  0  0  0  0  0  0  0  0  # atno 6908 bound_to 6896
  152.4880  134.4552  159.9639 H   0  0  0  0  0  0  0  0  0  0  0  0  # atno 6909 bound_to 6896
  146.2261  140.2571  142.8350 H   0  0  0  0  0  0  0  0  0  0  0  0  # atno 7974 bound_to 7965
  155.2887  140.0447  157.3021 H   0  0  0  0  0  0  0  0  0  0  0  0  # atno 8008 bound_to 7997
  154.5554  140.2330  155.8386 H   0  0  0  0  0  0  0  0  0  0  0  0  # atno 8009 bound_to 7997
  156.2003  140.3027  155.9519 H   0  0  0  0  0  0  0  0  0  0  0  0  # atno 8010 bound_to 7997
  139.5360  144.6683  151.4784 H   0  0  0  0  0  0  0  0  0  0  0  0  # atno 10167 bound_to 10162
  156.0093  130.4545  150.3645 H   0  0  0  0  0  0  0  0  0  0  0  0  # atno 10718 bound_to 10713
  154.8143  135.4633  154.0601 H   0  0  0  0  0  0  0  0  0  0  0  0  # atno 10763 bound_to 10752
  153.2007  135.6868  153.8242 H   0  0  0  0  0  0  0  0  0  0  0  0  # atno 10764 bound_to 10752
  153.7728  135.3268  155.3331 H   0  0  0  0  0  0  0  0  0  0  0  0  # atno 10765 bound_to 10752
  140.5552  134.0244  155.7951 H   0  0  0  0  0  0  0  0  0  0  0  0  # atno 11005 bound_to 11000
  144.9368  140.8035  143.5655 LP  0  0  0  0  0  0  0  0  0  0  0  0  # atno 17320 bound_to 7965
  145.2519  139.2028  143.4938 LP  0  0  0  0  0  0  0  0  0  0  0  0  # atno 17321 bound_to 7965
  140.6567  143.8585  150.6843 LP  0  0  0  0  0  0  0  0  0  0  0  0  # atno 17342 bound_to 10162
  140.1966  143.3993  152.1823 LP  0  0  0  0  0  0  0  0  0  0  0  0  # atno 17343 bound_to 10162
  157.1732  131.0374  151.2785 LP  0  0  0  0  0  0  0  0  0  0  0  0  # atno 17370 bound_to 10713
  157.4211  130.7438  149.6914 LP  0  0  0  0  0  0  0  0  0  0  0  0  # atno 17371 bound_to 10713
  141.1147  133.9559  157.2844 LP  0  0  0  0  0  0  0  0  0  0  0  0  # atno 17394 bound_to 11000
  139.9435  135.0187  156.8781 LP  0  0  0  0  0  0  0  0  0  0  0  0  # atno 17395 bound_to 11000

$$$$
