AV-unprocessed.smi:2430|AV-procd|sdf|9584|dock4
  -GOLD-   2272013213D 1   1.00000     0.00000
 Structure written by MMmdl.
 46 47  0  0  0  0  0  0  0  0  1 V2000
  151.9645  145.2136  158.7511 C   0  0  0  0  0  0  0  0  0  0  0  0
  152.3681  143.7960  158.3325 C   0  0  2  0  0  0  0  0  0  0  0  0
  151.2490  143.0835  157.5503 C   0  0  0  0  0  0  0  0  0  0  0  0
  151.6109  141.6949  157.2783 N   0  0  0  0  0  0  0  0  0  0  0  0
  150.8587  140.9704  156.3245 C   0  0  0  0  0  0  0  0  0  0  0  0
  149.6854  141.4977  155.7279 C   0  0  0  0  0  0  0  0  0  0  0  0
  148.9929  140.7273  154.7749 C   0  0  0  0  0  0  0  0  0  0  0  0
  149.4830  139.4547  154.4260 C   0  0  0  0  0  0  0  0  0  0  0  0
  148.7519  138.6932  153.4745 N   0  0  0  0  0  0  0  0  0  0  0  0
  147.4309  138.7097  153.2269 C   0  0  0  0  0  0  0  0  0  0  0  0
  146.6001  139.3837  153.8357 O   0  0  0  0  0  0  0  0  0  0  0  0
  147.1143  137.8728  152.2286 N   0  0  0  0  0  0  0  0  0  0  0  0
  145.7668  137.6558  151.7143 C   0  0  0  0  0  0  0  0  0  0  0  0
  145.5756  136.2127  151.2199 C   0  0  0  0  0  0  0  0  0  0  0  0
  145.6832  135.1870  152.3556 C   0  0  0  0  0  0  0  0  0  0  0  0
  146.9907  135.1952  152.8866 O   0  0  0  0  0  0  0  0  0  0  0  0
  150.6525  139.0037  155.0811 C   0  0  0  0  0  0  0  0  0  0  0  0
  151.3182  139.7390  155.9958 N   0  0  0  0  0  0  0  0  0  0  0  0
  152.0604  140.9580  158.4593 C   0  0  0  0  0  0  0  0  0  0  0  0
  153.1511  141.7446  159.2103 C   0  0  2  0  0  0  0  0  0  0  0  0
  153.5456  141.0659  160.5261 C   0  0  0  0  0  0  0  0  0  0  0  0
  152.6674  143.0507  159.5085 O   0  0  0  0  0  0  0  0  0  0  0  0
  151.7339  145.8292  157.8811 H   0  0  0  0  0  0  0  0  0  0  0  0
  152.7707  145.7020  159.2989 H   0  0  0  0  0  0  0  0  0  0  0  0
  151.0846  145.1997  159.3949 H   0  0  0  0  0  0  0  0  0  0  0  0
  153.2642  143.8612  157.7125 H   0  0  0  0  0  0  0  0  0  0  0  0
  150.3166  143.1058  158.1160 H   0  0  0  0  0  0  0  0  0  0  0  0
  151.0833  143.6206  156.6159 H   0  0  0  0  0  0  0  0  0  0  0  0
  149.2948  142.4705  155.9844 H   0  0  0  0  0  0  0  0  0  0  0  0
  148.0948  141.1152  154.3163 H   0  0  0  0  0  0  0  0  0  0  0  0
  149.2941  138.0245  152.9474 H   0  0  0  0  0  0  0  0  0  0  0  0
  147.8590  137.3525  151.7882 H   0  0  0  0  0  0  0  0  0  0  0  0
  145.0609  137.8696  152.5174 H   0  0  0  0  0  0  0  0  0  0  0  0
  145.5512  138.3665  150.9144 H   0  0  0  0  0  0  0  0  0  0  0  0
  144.6012  136.1150  150.7391 H   0  0  0  0  0  0  0  0  0  0  0  0
  146.3214  135.9890  150.4556 H   0  0  0  0  0  0  0  0  0  0  0  0
  144.9750  135.4173  153.1518 H   0  0  0  0  0  0  0  0  0  0  0  0
  145.4536  134.1850  151.9918 H   0  0  0  0  0  0  0  0  0  0  0  0
  147.5349  135.7396  152.3382 H   0  0  0  0  0  0  0  0  0  0  0  0
  151.0714  138.0266  154.8999 H   0  0  0  0  0  0  0  0  0  0  0  0
  151.2020  140.7873  159.1102 H   0  0  0  0  0  0  0  0  0  0  0  0
  152.4587  139.9786  158.1947 H   0  0  0  0  0  0  0  0  0  0  0  0
  154.0412  141.8263  158.5839 H   0  0  0  0  0  0  0  0  0  0  0  0
  153.9357  140.0634  160.3485 H   0  0  0  0  0  0  0  0  0  0  0  0
  152.6908  140.9789  161.1973 H   0  0  0  0  0  0  0  0  0  0  0  0
  154.3180  141.6363  161.0423 H   0  0  0  0  0  0  0  0  0  0  0  0
  1  2  1  0  0  0  0
  1 23  1  0  0  0  0
  1 24  1  0  0  0  0
  1 25  1  0  0  0  0
  2 22  1  0  0  0  0
  2  3  1  0  0  0  0
  2 26  1  0  0  0  0
  3  4  1  0  0  0  0
  3 27  1  0  0  0  0
  3 28  1  0  0  0  0
  4  5  1  0  0  0  0
  4 19  1  0  0  0  0
  5 18  1  0  0  0  0
  5  6  2  0  0  0  0
  6  7  1  0  0  0  0
  6 29  1  0  0  0  0
  7  8  2  0  0  0  0
  7 30  1  0  0  0  0
  8  9  1  0  0  0  0
  8 17  1  0  0  0  0
  9 10  1  0  0  0  0
  9 31  1  0  0  0  0
 10 11  2  0  0  0  0
 10 12  1  0  0  0  0
 12 13  1  0  0  0  0
 12 32  1  0  0  0  0
 13 14  1  0  0  0  0
 13 33  1  0  0  0  0
 13 34  1  0  0  0  0
 14 15  1  0  0  0  0
 14 35  1  0  0  0  0
 14 36  1  0  0  0  0
 15 16  1  0  0  0  0
 15 37  1  0  0  0  0
 15 38  1  0  0  0  0
 16 39  1  0  0  0  0
 17 18  2  0  0  0  0
 17 40  1  0  0  0  0
 19 20  1  0  0  0  0
 19 41  1  0  0  0  0
 19 42  1  0  0  0  0
 20 21  1  0  0  0  0
 20 22  1  0  0  0  0
 20 43  1  0  0  0  0
 21 44  1  0  0  0  0
 21 45  1  0  0  0  0
 21 46  1  0  0  0  0
M  END
> <s_m_source_file>
AV-unprocessed.smi

> <i_m_source_file_index>
2430

> <i_lp_mmshare_version>
43012

> <i_f3d_flags>
0

> <s_epik_input>
W0NIM11bQ0BASF0xW0NIMl1OKFtDSDJdW0NASF0oTzEpW0NIM10pYzJbY0hdW2NIXWMoW2NIXW4yKVtOSF1DKD1PKVtOSF1bQ0gyXVtDSDJdW0NIMl1bT0hd

> <s_epik_cmdline>
J2VwaWtfcHl0aG9uJywgJy1waCcsICc3LjAnLCAnLXRuJywgJzgnLCAnLW1hJywgJzIwMCcsICctbWV0YWxfYmluZGluZycsICctaW1hZScsICc8aW5maWxlLm1hZT4nLCAnLW9tYWUnLCAnPG91dGZpbGUubWFlPic=

> <r_lp_tautomer_probability>
1

> <r_epik_Ionization_Penalty>
0.00269907

> <r_epik_Ionization_Penalty_Charging>
0

> <r_epik_Ionization_Penalty_Neutral>
0.00269907

> <r_epik_State_Penalty>
0.00185337

> <r_epik_Charging_Adjusted_Penalty>
0.00185337

> <i_epik_Tot_Q>
0

> <i_epik_Tot_abs_Q>
0

> <r_epik_Metal_State_Penalty>
-0

> <b_epik_Metal_Only>
0

> <s_lp_Force_Field>
OPLS_2005

> <r_lp_Energy>
18.4655

> <b_lp_Chiralities_Consistent>
1

> <s_lp_Variant>
AV-unprocessed.smi:2430-2

> <Gold.Version>
5.8.1

> <Gold.Id.Protein>
6NUR|6NUR_protein|mol2

> <Gold.PLP.Fitness>
50.9003

> <Gold.PLP.PLP>
-43.6211

> <Gold.PLP.part.hbond>
-3.5771

> <Gold.PLP.part.metal>
0.0000

> <Gold.PLP.part.buried>
-2.4481

> <Gold.PLP.part.nonpolar>
-38.4662

> <Gold.PLP.part.repulsive>
0.3390

> <Gold.PLP.ligand.clash>
0.0000

> <Gold.PLP.ligand.torsion>
0.6363

> <Gold.PLP.Chemscore.Hbond>
2.6933

> <Gold.PLP.Chemscore.CHOScore>
0.0000

> <Gold.PLP.Chemscore.Metal>
0.0000

> <Gold.Chemscore.Hbonds>
donor molecule, donor type, donor heavy atom, donor atom, acceptor molecule, acceptor atom, score
      L1  H     9    31       P1  7948  0.68
      L1  H    12    32       P1  7948  1.00
      L1  H    16    39       P1  7948  1.00

> <Gold.PLP.Chemscore.Internal.Correction>
0.4722

> <Gold.Rescore>
     Score         DG    S(hbond)    S(metal)    S(lipo)     H(rot)  DE(clash)    DE(int)     intcor
     17.00     -21.49       2.72        0.00     110.15       2.33       1.29       3.20       ----

> <Gold.Chemscore.Fitness>
17.0002

> <Gold.Chemscore.DG>
-21.4901

> <Gold.Chemscore.ZeroCoef>
-5.4800

> <Gold.Chemscore.Hbond>
2.7242

> <Gold.Chemscore.Metal>
0.0000

> <Gold.Chemscore.Lipo>
110.1530

> <Gold.Chemscore.Internal_Hbond>
0.0000

> <Gold.Chemscore.DEClash>
1.2933

> <Gold.Chemscore.DEInternal>
3.1966

> <Gold.Chemscore.Rot>
2.3346

> <Gold.Chemscore.Internal.Correction>
   9.000000E+99

> <Gold.Chemscore.Hbonds>
donor molecule, donor type, donor heavy atom, donor atom, acceptor molecule, acceptor atom, score
      L1  H     9    31       P1  7948  0.62
      L1  H    12    32       P1  7948  0.90
      L1  H    16    39       P1  7948  0.92

> <Gold.Chemscore.Hbond.Weighted>
-9.0988

> <Gold.Chemscore.Metal.Weighted>
-0.0000

> <Gold.Chemscore.Lipo.Weighted>
-12.8879

> <Gold.Chemscore.Internal_Hbond.Weighted>
0.0000

> <Gold.Chemscore.DEClash.Weighted>
1.2933

> <Gold.Chemscore.DEInternal.Weighted>
3.1966

> <Gold.Chemscore.Rot.Weighted>
5.9766

> <Gold.Chemscore.Internal.Correction.Weighted>
   9.000000E+99

> <Gold.Protein.RotatedTorsions>
[ 6907 6896 6895 6894 ] final  -88.07 input  -60.11 | X-H torsion
[ 7974 7965 7964 7962 ] final  164.93 input  175.53 | X-H torsion
[ 8008 7997 7996 7995 ] final  -94.20 input   59.86 | X-H torsion
[ 10167 10162 10161 10158 ] final  174.35 input  -65.29 | X-H torsion
[ 10718 10713 10712 10709 ] final -136.02 input   66.30 | X-H torsion
[ 10763 10752 10751 10750 ] final -103.56 input  -60.55 | X-H torsion
[ 11005 11000 10999 10996 ] final  150.06 input  -57.11 | X-H torsion

> <Gold.Protein.ActiveResidues>
 VAL166  LYS551  ARG553  GLY616  TRP617  ASP618  TYR619  PRO620  LYS621  CYS622 
 ASP623  PHE694  ASN695  SER759  ASP760  ASP761  ALA762  ILE779  LEU786  VAL792 
 PHE793  MET794  SER795  GLU796  ALA797  LYS798  CYS799  TRP800  GLU811  SER814 

> <Gold.Protein.RotatedAtoms>
  150.6867  134.2798  159.4622 H   0  0  0  0  0  0  0  0  0  0  0  0  # atno 6907 bound_to 6896
  152.0713  134.9529  160.0583 H   0  0  0  0  0  0  0  0  0  0  0  0  # atno 6908 bound_to 6896
  152.0918  133.4169  159.4584 H   0  0  0  0  0  0  0  0  0  0  0  0  # atno 6909 bound_to 6896
  144.7524  139.8397  143.6361 H   0  0  0  0  0  0  0  0  0  0  0  0  # atno 7974 bound_to 7965
  154.7454  140.0491  157.0847 H   0  0  0  0  0  0  0  0  0  0  0  0  # atno 8008 bound_to 7997
  155.0125  140.3137  155.4805 H   0  0  0  0  0  0  0  0  0  0  0  0  # atno 8009 bound_to 7997
  156.2873  140.2181  156.5240 H   0  0  0  0  0  0  0  0  0  0  0  0  # atno 8010 bound_to 7997
  139.5139  144.3156  152.0251 H   0  0  0  0  0  0  0  0  0  0  0  0  # atno 10167 bound_to 10162
  156.2725  130.7274  151.1245 H   0  0  0  0  0  0  0  0  0  0  0  0  # atno 10718 bound_to 10713
  154.7816  135.4819  153.9856 H   0  0  0  0  0  0  0  0  0  0  0  0  # atno 10763 bound_to 10752
  153.1501  135.6789  153.8902 H   0  0  0  0  0  0  0  0  0  0  0  0  # atno 10764 bound_to 10752
  153.8549  135.3162  155.3413 H   0  0  0  0  0  0  0  0  0  0  0  0  # atno 10765 bound_to 10752
  140.1098  134.8931  157.1920 H   0  0  0  0  0  0  0  0  0  0  0  0  # atno 11005 bound_to 11000
  146.1491  139.4569  143.0060 LP  0  0  0  0  0  0  0  0  0  0  0  0  # atno 17320 bound_to 7965
  145.6897  141.0167  143.1562 LP  0  0  0  0  0  0  0  0  0  0  0  0  # atno 17321 bound_to 7965
  140.2599  144.4078  150.6189 LP  0  0  0  0  0  0  0  0  0  0  0  0  # atno 17342 bound_to 10162
  140.6164  143.2173  151.6782 LP  0  0  0  0  0  0  0  0  0  0  0  0  # atno 17343 bound_to 10162
  157.7288  131.0629  150.5801 LP  0  0  0  0  0  0  0  0  0  0  0  0  # atno 17370 bound_to 10713
  156.5899  130.4326  149.5941 LP  0  0  0  0  0  0  0  0  0  0  0  0  # atno 17371 bound_to 10713
  140.3106  134.3028  155.7268 LP  0  0  0  0  0  0  0  0  0  0  0  0  # atno 17394 bound_to 11000
  141.2127  133.7648  156.9771 LP  0  0  0  0  0  0  0  0  0  0  0  0  # atno 17395 bound_to 11000

$$$$
