AV-unprocessed.smi:521|AV-procd|sdf|2799|dock4
  -GOLD-   2262023273D 1   1.00000     0.00000
 Structure written by MMmdl.
 40 42  0  0  0  0  0  0  0  0  1 V2000
  154.8845  143.5712  165.8537 C   0  0  0  0  0  0  0  0  0  0  0  0
  154.8219  142.6718  164.7575 O   0  0  0  0  0  0  0  0  0  0  0  0
  155.2094  141.3627  164.9588 C   0  0  0  0  0  0  0  0  0  0  0  0
  155.6148  140.8456  166.2152 C   0  0  0  0  0  0  0  0  0  0  0  0
  155.9958  139.4973  166.3424 C   0  0  0  0  0  0  0  0  0  0  0  0
  155.9752  138.6522  165.2198 C   0  0  0  0  0  0  0  0  0  0  0  0
  155.5748  139.1546  163.9685 C   0  0  0  0  0  0  0  0  0  0  0  0
  155.1908  140.5119  163.8299 C   0  0  0  0  0  0  0  0  0  0  0  0
  154.7902  141.0760  162.6385 O   0  0  0  0  0  0  0  0  0  0  0  0
  154.7020  140.2546  161.4831 C   0  0  0  0  0  0  0  0  0  0  0  0
  154.8071  141.1438  160.2360 C   0  0  0  0  0  0  0  0  0  0  0  0
  153.5326  141.2641  159.5412 N   0  0  0  0  0  0  0  0  0  0  0  0
  152.8376  140.2973  158.8909 C   0  0  0  0  0  0  0  0  0  0  0  0
  153.3317  138.8866  158.7946 C   0  0  0  0  0  0  0  0  0  0  0  0
  154.5429  138.7818  158.0777 O   0  0  0  0  0  0  0  0  0  0  0  0
  151.6846  140.6806  158.3413 N   0  0  0  0  0  0  0  0  0  0  0  0
  151.6221  142.0206  158.6704 C   0  0  0  0  0  0  0  0  0  0  0  0
  150.6361  142.9917  158.3831 C   0  0  0  0  0  0  0  0  0  0  0  0
  150.7869  144.3184  158.8371 C   0  0  0  0  0  0  0  0  0  0  0  0
  151.9241  144.6932  159.5815 C   0  0  0  0  0  0  0  0  0  0  0  0
  152.9208  143.7427  159.8736 C   0  0  0  0  0  0  0  0  0  0  0  0
  152.7645  142.4186  159.4210 C   0  0  0  0  0  0  0  0  0  0  0  0
  154.5330  144.5514  165.5320 H   0  0  0  0  0  0  0  0  0  0  0  0
  155.9068  143.6888  166.2151 H   0  0  0  0  0  0  0  0  0  0  0  0
  154.2449  143.2447  166.6747 H   0  0  0  0  0  0  0  0  0  0  0  0
  155.6427  141.4648  167.0987 H   0  0  0  0  0  0  0  0  0  0  0  0
  156.3045  139.1115  167.3028 H   0  0  0  0  0  0  0  0  0  0  0  0
  156.2677  137.6170  165.3173 H   0  0  0  0  0  0  0  0  0  0  0  0
  155.5722  138.4781  163.1277 H   0  0  0  0  0  0  0  0  0  0  0  0
  155.5107  139.5226  161.4784 H   0  0  0  0  0  0  0  0  0  0  0  0
  153.7543  139.7141  161.4726 H   0  0  0  0  0  0  0  0  0  0  0  0
  155.1417  142.1425  160.5183 H   0  0  0  0  0  0  0  0  0  0  0  0
  155.5608  140.7531  159.5528 H   0  0  0  0  0  0  0  0  0  0  0  0
  153.4634  138.4714  159.7938 H   0  0  0  0  0  0  0  0  0  0  0  0
  152.5787  138.2741  158.2973 H   0  0  0  0  0  0  0  0  0  0  0  0
  154.7237  137.8671  157.9262 H   0  0  0  0  0  0  0  0  0  0  0  0
  149.7607  142.7143  157.8146 H   0  0  0  0  0  0  0  0  0  0  0  0
  150.0258  145.0517  158.6144 H   0  0  0  0  0  0  0  0  0  0  0  0
  152.0309  145.7104  159.9288 H   0  0  0  0  0  0  0  0  0  0  0  0
  153.7911  144.0258  160.4470 H   0  0  0  0  0  0  0  0  0  0  0  0
  1  2  1  0  0  0  0
  1 23  1  0  0  0  0
  1 24  1  0  0  0  0
  1 25  1  0  0  0  0
  2  3  1  0  0  0  0
  3  8  1  0  0  0  0
  3  4  2  0  0  0  0
  4  5  1  0  0  0  0
  4 26  1  0  0  0  0
  5  6  2  0  0  0  0
  5 27  1  0  0  0  0
  6  7  1  0  0  0  0
  6 28  1  0  0  0  0
  7  8  2  0  0  0  0
  7 29  1  0  0  0  0
  8  9  1  0  0  0  0
  9 10  1  0  0  0  0
 10 11  1  0  0  0  0
 10 30  1  0  0  0  0
 10 31  1  0  0  0  0
 11 12  1  0  0  0  0
 11 32  1  0  0  0  0
 11 33  1  0  0  0  0
 12 22  1  0  0  0  0
 12 13  1  0  0  0  0
 13 14  1  0  0  0  0
 13 16  2  0  0  0  0
 14 15  1  0  0  0  0
 14 34  1  0  0  0  0
 14 35  1  0  0  0  0
 15 36  1  0  0  0  0
 16 17  1  0  0  0  0
 17 22  2  0  0  0  0
 17 18  1  0  0  0  0
 18 19  2  0  0  0  0
 18 37  1  0  0  0  0
 19 20  1  0  0  0  0
 19 38  1  0  0  0  0
 20 21  2  0  0  0  0
 20 39  1  0  0  0  0
 21 22  1  0  0  0  0
 21 40  1  0  0  0  0
M  END
> <s_m_source_file>
AV-unprocessed.smi

> <i_m_source_file_index>
521

> <i_lp_mmshare_version>
43012

> <i_f3d_flags>
0

> <s_epik_input>
W0NIM11PYzFbY0hdW2NIXVtjSF1bY0hdYzFPW0NIMl1bQ0gyXW4oYyhuMilbQ0gyXVtPSF0pYyhjMjMpW2NIXVtjSF1bY0hdW2NIXTM=

> <s_epik_cmdline>
J2VwaWtfcHl0aG9uJywgJy1waCcsICc3LjAnLCAnLXRuJywgJzgnLCAnLW1hJywgJzIwMCcsICctbWV0YWxfYmluZGluZycsICctaW1hZScsICc8aW5maWxlLm1hZT4nLCAnLW9tYWUnLCAnPG91dGZpbGUubWFlPic=

> <r_lp_tautomer_probability>
1

> <r_epik_Ionization_Penalty>
0.048627

> <r_epik_Ionization_Penalty_Charging>
0

> <r_epik_Ionization_Penalty_Neutral>
0.048627

> <r_epik_State_Penalty>
0.0414172

> <r_epik_Charging_Adjusted_Penalty>
0.0414172

> <i_epik_Tot_Q>
0

> <i_epik_Tot_abs_Q>
0

> <r_epik_Metal_State_Penalty>
4.28976e-05

> <b_epik_Metal_Only>
0

> <s_lp_Force_Field>
OPLS_2005

> <r_lp_Energy>
18.4761

> <b_lp_Chiralities_Consistent>
1

> <s_lp_Variant>
AV-unprocessed.smi:521-1

> <Gold.Version>
5.8.1

> <Gold.Id.Protein>
6NUR|6NUR_protein|mol2

> <Gold.PLP.Fitness>
51.2121

> <Gold.PLP.PLP>
-49.1851

> <Gold.PLP.part.hbond>
-3.0000

> <Gold.PLP.part.metal>
0.0000

> <Gold.PLP.part.buried>
-5.1077

> <Gold.PLP.part.nonpolar>
-40.6436

> <Gold.PLP.part.repulsive>
0.0021

> <Gold.PLP.ligand.clash>
0.0000

> <Gold.PLP.ligand.torsion>
0.5319

> <Gold.PLP.Chemscore.Hbond>
1.0000

> <Gold.PLP.Chemscore.CHOScore>
0.0000

> <Gold.PLP.Chemscore.Metal>
0.0000

> <Gold.Chemscore.Hbonds>
donor molecule, donor type, donor heavy atom, donor atom, acceptor molecule, acceptor atom, score
      P1  H  7997  8010       L1    15  0.96

> <Gold.PLP.Chemscore.Internal.Correction>
0.0907

> <Gold.Rescore>
     Score         DG    S(hbond)    S(metal)    S(lipo)     H(rot)  DE(clash)    DE(int)     intcor
     16.45     -18.21       0.96        0.00     135.07       2.46       1.08       0.69       ----

> <Gold.Chemscore.Fitness>
16.4500

> <Gold.Chemscore.DG>
-18.2118

> <Gold.Chemscore.ZeroCoef>
-5.4800

> <Gold.Chemscore.Hbond>
0.9630

> <Gold.Chemscore.Metal>
0.0000

> <Gold.Chemscore.Lipo>
135.0729

> <Gold.Chemscore.Internal_Hbond>
0.0000

> <Gold.Chemscore.DEClash>
1.0752

> <Gold.Chemscore.DEInternal>
0.6866

> <Gold.Chemscore.Rot>
2.4562

> <Gold.Chemscore.Internal.Correction>
   9.000000E+99

> <Gold.Chemscore.Hbonds>
donor molecule, donor type, donor heavy atom, donor atom, acceptor molecule, acceptor atom, score
      P1  H  7997  8010       L1    15  0.80

> <Gold.Chemscore.Hbond.Weighted>
-3.2163

> <Gold.Chemscore.Metal.Weighted>
-0.0000

> <Gold.Chemscore.Lipo.Weighted>
-15.8035

> <Gold.Chemscore.Internal_Hbond.Weighted>
0.0000

> <Gold.Chemscore.DEClash.Weighted>
1.0752

> <Gold.Chemscore.DEInternal.Weighted>
0.6866

> <Gold.Chemscore.Rot.Weighted>
6.2880

> <Gold.Chemscore.Internal.Correction.Weighted>
   9.000000E+99

> <Gold.Protein.RotatedTorsions>
[ 6907 6896 6895 6894 ] final   94.69 input  -60.11 | X-H torsion
[ 7974 7965 7964 7962 ] final  -69.79 input  175.53 | X-H torsion
[ 8008 7997 7996 7995 ] final   14.44 input   59.86 | X-H torsion
[ 10167 10162 10161 10158 ] final -161.23 input  -65.29 | X-H torsion
[ 10718 10713 10712 10709 ] final    0.81 input   66.30 | X-H torsion
[ 10763 10752 10751 10750 ] final  111.87 input  -60.55 | X-H torsion
[ 11005 11000 10999 10996 ] final -123.17 input  -57.11 | X-H torsion

> <Gold.Protein.ActiveResidues>
 VAL166  LYS551  ARG553  GLY616  TRP617  ASP618  TYR619  PRO620  LYS621  CYS622 
 ASP623  PHE694  ASN695  SER759  ASP760  ASP761  ALA762  ILE779  LEU786  VAL792 
 PHE793  MET794  SER795  GLU796  ALA797  LYS798  CYS799  TRP800  GLU811  SER814 

> <Gold.Protein.RotatedAtoms>
  152.5448  134.1155  159.8376 H   0  0  0  0  0  0  0  0  0  0  0  0  # atno 6907 bound_to 6896
  151.1217  133.5092  159.2609 H   0  0  0  0  0  0  0  0  0  0  0  0  # atno 6908 bound_to 6896
  151.1772  135.0354  159.8831 H   0  0  0  0  0  0  0  0  0  0  0  0  # atno 6909 bound_to 6896
  145.6992  140.9123  143.0740 H   0  0  0  0  0  0  0  0  0  0  0  0  # atno 7974 bound_to 7965
  154.8485  140.2926  155.5613 H   0  0  0  0  0  0  0  0  0  0  0  0  # atno 8008 bound_to 7997
  156.3015  140.2500  156.3371 H   0  0  0  0  0  0  0  0  0  0  0  0  # atno 8009 bound_to 7997
  154.9047  140.0390  157.1902 H   0  0  0  0  0  0  0  0  0  0  0  0  # atno 8010 bound_to 7997
  139.6481  144.0135  152.2141 H   0  0  0  0  0  0  0  0  0  0  0  0  # atno 10167 bound_to 10162
  156.8388  130.5514  149.5679 H   0  0  0  0  0  0  0  0  0  0  0  0  # atno 10718 bound_to 10713
  153.4696  135.3703  155.2384 H   0  0  0  0  0  0  0  0  0  0  0  0  # atno 10763 bound_to 10752
  154.8757  135.3928  154.3827 H   0  0  0  0  0  0  0  0  0  0  0  0  # atno 10764 bound_to 10752
  153.4413  135.7084  153.6231 H   0  0  0  0  0  0  0  0  0  0  0  0  # atno 10765 bound_to 10752
  140.9939  134.0500  157.3621 H   0  0  0  0  0  0  0  0  0  0  0  0  # atno 11005 bound_to 11000
  144.6973  139.8925  143.7454 LP  0  0  0  0  0  0  0  0  0  0  0  0  # atno 17320 bound_to 7965
  146.0813  139.3801  143.0463 LP  0  0  0  0  0  0  0  0  0  0  0  0  # atno 17321 bound_to 7965
  139.9842  144.6407  150.7873 LP  0  0  0  0  0  0  0  0  0  0  0  0  # atno 17342 bound_to 10162
  140.7524  143.2990  151.3130 LP  0  0  0  0  0  0  0  0  0  0  0  0  # atno 17343 bound_to 10162
  156.0892  130.5882  150.9703 LP  0  0  0  0  0  0  0  0  0  0  0  0  # atno 17370 bound_to 10713
  157.6367  131.0915  150.8335 LP  0  0  0  0  0  0  0  0  0  0  0  0  # atno 17371 bound_to 10713
  139.9005  135.0162  156.7246 LP  0  0  0  0  0  0  0  0  0  0  0  0  # atno 17394 bound_to 11000
  140.6997  133.9317  155.8016 LP  0  0  0  0  0  0  0  0  0  0  0  0  # atno 17395 bound_to 11000

$$$$
