AV-unprocessed.smi:1060|AV-procd|sdf|4657|dock2
  -GOLD-   22720 3163D 1   1.00000     0.00000
 Structure written by MMmdl.
 37 38  0  0  0  0  0  0  0  0  1 V2000
  147.9322  133.8792  154.5137 O   0  0  0  0  0  0  0  0  0  0  0  0
  147.4813  134.9933  154.7768 C   0  0  0  0  0  0  0  0  0  0  0  0
  147.9244  135.6903  156.0625 C   0  0  0  0  0  0  0  0  0  0  0  0
  148.7203  136.8174  155.7297 O   0  0  0  0  0  0  0  0  0  0  0  0
  149.9821  136.4581  155.1933 C   0  0  0  0  0  0  0  0  0  0  0  0
  150.7095  137.7300  154.7405 C   0  0  1  0  0  0  0  0  0  0  0  0
  150.8175  138.7950  155.8301 C   0  0  0  0  0  0  0  0  0  0  0  0
  152.0159  139.5880  155.3611 C   0  0  0  0  0  0  0  0  0  0  0  0
  152.9242  138.4890  154.8169 C   0  0  0  0  0  0  0  0  0  0  0  0
  152.0610  137.4353  154.3950 O   0  0  0  0  0  0  0  0  0  0  0  0
  146.5800  135.6649  154.0326 N   0  0  0  0  0  0  0  0  0  0  0  0
  145.9995  135.3168  152.8014 C   0  0  0  0  0  0  0  0  0  0  0  0
  145.7842  134.0445  152.3755 C   0  0  0  0  0  0  0  0  0  0  0  0
  145.1889  133.7542  151.0817 C   0  0  0  0  0  0  0  0  0  0  0  0
  145.0049  132.3256  150.5925 C   0  0  0  0  0  0  0  0  0  0  0  0
  145.7628  132.0783  149.5234 F   0  0  0  0  0  0  0  0  0  0  0  0
  145.3260  131.4490  151.5444 F   0  0  0  0  0  0  0  0  0  0  0  0
  143.7320  132.1229  150.2549 F   0  0  0  0  0  0  0  0  0  0  0  0
  144.8875  134.8138  150.3087 C   0  0  0  0  0  0  0  0  0  0  0  0
  145.1053  136.1246  150.7389 N   0  0  0  0  0  0  0  0  0  0  0  0
  145.6449  136.4526  151.9342 C   0  0  0  0  0  0  0  0  0  0  0  0
  145.8108  137.6336  152.2375 O   0  0  0  0  0  0  0  0  0  0  0  0
  144.8447  136.8653  150.1041 H   0  0  0  0  0  0  0  0  0  0  0  0
  147.0413  135.9965  156.6254 H   0  0  0  0  0  0  0  0  0  0  0  0
  148.4931  134.9950  156.6825 H   0  0  0  0  0  0  0  0  0  0  0  0
  150.5669  135.9548  155.9648 H   0  0  0  0  0  0  0  0  0  0  0  0
  149.8688  135.7638  154.3591 H   0  0  0  0  0  0  0  0  0  0  0  0
  150.2146  138.1624  153.8694 H   0  0  0  0  0  0  0  0  0  0  0  0
  149.9150  139.3990  155.9263 H   0  0  0  0  0  0  0  0  0  0  0  0
  151.0293  138.3370  156.7973 H   0  0  0  0  0  0  0  0  0  0  0  0
  151.7238  140.2673  154.5588 H   0  0  0  0  0  0  0  0  0  0  0  0
  152.4821  140.1741  156.1536 H   0  0  0  0  0  0  0  0  0  0  0  0
  153.5536  138.8395  153.9987 H   0  0  0  0  0  0  0  0  0  0  0  0
  153.5748  138.1068  155.6042 H   0  0  0  0  0  0  0  0  0  0  0  0
  146.2499  136.5375  154.4201 H   0  0  0  0  0  0  0  0  0  0  0  0
  146.0645  133.2004  152.9838 H   0  0  0  0  0  0  0  0  0  0  0  0
  144.4679  134.7435  149.3160 H   0  0  0  0  0  0  0  0  0  0  0  0
  1  2  2  0  0  0  0
  2  3  1  0  0  0  0
  2 11  1  0  0  0  0
  3  4  1  0  0  0  0
  3 24  1  0  0  0  0
  3 25  1  0  0  0  0
  4  5  1  0  0  0  0
  5  6  1  0  0  0  0
  5 26  1  0  0  0  0
  5 27  1  0  0  0  0
  6 10  1  0  0  0  0
  6  7  1  0  0  0  0
  6 28  1  0  0  0  0
  7  8  1  0  0  0  0
  7 29  1  0  0  0  0
  7 30  1  0  0  0  0
  8  9  1  0  0  0  0
  8 31  1  0  0  0  0
  8 32  1  0  0  0  0
  9 10  1  0  0  0  0
  9 33  1  0  0  0  0
  9 34  1  0  0  0  0
 11 12  1  0  0  0  0
 11 35  1  0  0  0  0
 12 21  1  0  0  0  0
 12 13  2  0  0  0  0
 13 14  1  0  0  0  0
 13 36  1  0  0  0  0
 14 15  1  0  0  0  0
 14 19  2  0  0  0  0
 15 16  1  0  0  0  0
 15 17  1  0  0  0  0
 15 18  1  0  0  0  0
 19 20  1  0  0  0  0
 19 37  1  0  0  0  0
 20 23  1  0  0  0  0
 20 21  1  0  0  0  0
 21 22  2  0  0  0  0
M  END
> <s_m_source_file>
AV-unprocessed.smi

> <i_m_source_file_index>
1060

> <i_lp_mmshare_version>
43012

> <i_f3d_flags>
0

> <s_epik_input>
Tz1jMVtuSF1bY0hdYyhDKEYpKEYpRilbY0hdYzFbTkhdQyg9TylbQ0gyXU9bQ0gyXVtDQEBIXTJbQ0gyXVtDSDJdW0NIMl1PMg==

> <s_epik_cmdline>
J2VwaWtfcHl0aG9uJywgJy1waCcsICc3LjAnLCAnLXRuJywgJzgnLCAnLW1hJywgJzIwMCcsICctbWV0YWxfYmluZGluZycsICctaW1hZScsICc8aW5maWxlLm1hZT4nLCAnLW9tYWUnLCAnPG91dGZpbGUubWFlPic=

> <r_lp_tautomer_probability>
0.999

> <r_epik_Ionization_Penalty>
0.00950091

> <r_epik_Ionization_Penalty_Charging>
0.00950081

> <r_epik_Ionization_Penalty_Neutral>
1.00143e-07

> <r_epik_State_Penalty>
0.00721819

> <r_epik_Charging_Adjusted_Penalty>
0.016719

> <i_epik_Tot_Q>
0

> <i_epik_Tot_abs_Q>
0

> <r_epik_Metal_State_Penalty>
0.323303

> <b_epik_Metal_Only>
0

> <s_lp_Force_Field>
OPLS_2005

> <r_lp_Energy>
32.1884

> <b_lp_Chiralities_Consistent>
1

> <s_lp_Variant>
AV-unprocessed.smi:1060-2

> <Gold.Version>
5.8.1

> <Gold.Id.Protein>
6NUR|6NUR_protein|mol2

> <Gold.PLP.Fitness>
43.4406

> <Gold.PLP.PLP>
-36.6031

> <Gold.PLP.part.hbond>
-2.2868

> <Gold.PLP.part.metal>
0.0000

> <Gold.PLP.part.buried>
-4.2563

> <Gold.PLP.part.nonpolar>
-30.9167

> <Gold.PLP.part.repulsive>
0.6282

> <Gold.PLP.ligand.clash>
0.0000

> <Gold.PLP.ligand.torsion>
0.3871

> <Gold.PLP.Chemscore.Hbond>
1.8960

> <Gold.PLP.Chemscore.CHOScore>
0.5984

> <Gold.PLP.Chemscore.Metal>
0.0000

> <Gold.Chemscore.Hbonds>
donor molecule, donor type, donor heavy atom, donor atom, acceptor molecule, acceptor atom, score
      L1  H    20    23       P1 10171  0.99
      P1  H 10752 10765       L1    10  0.88
      L1  C    19    37       P1  7921  0.65

> <Gold.PLP.Chemscore.Internal.Correction>
0.1285

> <Gold.Rescore>
     Score         DG    S(hbond)    S(metal)    S(lipo)     H(rot)  DE(clash)    DE(int)     intcor
     12.48     -13.80       1.76        0.00      63.56       1.95       0.04       1.28       ----

> <Gold.Chemscore.Fitness>
12.4821

> <Gold.Chemscore.DG>
-13.8044

> <Gold.Chemscore.ZeroCoef>
-5.4800

> <Gold.Chemscore.Hbond>
1.7625

> <Gold.Chemscore.Metal>
0.0000

> <Gold.Chemscore.Lipo>
63.5620

> <Gold.Chemscore.Internal_Hbond>
0.0000

> <Gold.Chemscore.DEClash>
0.0444

> <Gold.Chemscore.DEInternal>
1.2779

> <Gold.Chemscore.Rot>
1.9527

> <Gold.Chemscore.Internal.Correction>
   9.000000E+99

> <Gold.Chemscore.Hbonds>
donor molecule, donor type, donor heavy atom, donor atom, acceptor molecule, acceptor atom, score
      L1  H    20    23       P1 10171  0.91
      P1  H 10752 10765       L1    10  0.72

> <Gold.Chemscore.Hbond.Weighted>
-5.8866

> <Gold.Chemscore.Metal.Weighted>
-0.0000

> <Gold.Chemscore.Lipo.Weighted>
-7.4368

> <Gold.Chemscore.Internal_Hbond.Weighted>
0.0000

> <Gold.Chemscore.DEClash.Weighted>
0.0444

> <Gold.Chemscore.DEInternal.Weighted>
1.2779

> <Gold.Chemscore.Rot.Weighted>
4.9990

> <Gold.Chemscore.Internal.Correction.Weighted>
   9.000000E+99

> <Gold.Protein.RotatedTorsions>
[ 6907 6896 6895 6894 ] final  -78.23 input  -60.11 | X-H torsion
[ 7974 7965 7964 7962 ] final  -26.91 input  175.53 | X-H torsion
[ 8008 7997 7996 7995 ] final -150.34 input   59.86 | X-H torsion
[ 10167 10162 10161 10158 ] final   99.26 input  -65.29 | X-H torsion
[ 10718 10713 10712 10709 ] final -122.86 input   66.30 | X-H torsion
[ 10763 10752 10751 10750 ] final  156.94 input  -60.55 | X-H torsion
[ 11005 11000 10999 10996 ] final -176.60 input  -57.11 | X-H torsion

> <Gold.Protein.ActiveResidues>
 VAL166  LYS551  ARG553  GLY616  TRP617  ASP618  TYR619  PRO620  LYS621  CYS622 
 ASP623  PHE694  ASN695  SER759  ASP760  ASP761  ALA762  ILE779  LEU786  VAL792 
 PHE793  MET794  SER795  GLU796  ALA797  LYS798  CYS799  TRP800  GLU811  SER814 

> <Gold.Protein.RotatedAtoms>
  150.6978  134.4304  159.5245 H   0  0  0  0  0  0  0  0  0  0  0  0  # atno 6907 bound_to 6896
  152.2031  134.8567  160.0515 H   0  0  0  0  0  0  0  0  0  0  0  0  # atno 6908 bound_to 6896
  151.9479  133.3622  159.4026 H   0  0  0  0  0  0  0  0  0  0  0  0  # atno 6909 bound_to 6896
  146.1393  140.5082  142.8659 H   0  0  0  0  0  0  0  0  0  0  0  0  # atno 7974 bound_to 7965
  155.6220  140.0682  157.2675 H   0  0  0  0  0  0  0  0  0  0  0  0  # atno 8008 bound_to 7997
  154.4227  140.1783  156.1430 H   0  0  0  0  0  0  0  0  0  0  0  0  # atno 8009 bound_to 7997
  156.0002  140.3337  155.6841 H   0  0  0  0  0  0  0  0  0  0  0  0  # atno 8010 bound_to 7997
  139.7633  144.6947  151.0260 H   0  0  0  0  0  0  0  0  0  0  0  0  # atno 10167 bound_to 10162
  156.1453  130.6496  150.9833 H   0  0  0  0  0  0  0  0  0  0  0  0  # atno 10718 bound_to 10713
  154.1924  135.2794  155.3018 H   0  0  0  0  0  0  0  0  0  0  0  0  # atno 10763 bound_to 10752
  154.5919  135.5557  153.7290 H   0  0  0  0  0  0  0  0  0  0  0  0  # atno 10764 bound_to 10752
  153.0109  135.6370  154.2062 H   0  0  0  0  0  0  0  0  0  0  0  0  # atno 10765 bound_to 10752
  140.4503  134.6350  157.4798 H   0  0  0  0  0  0  0  0  0  0  0  0  # atno 11005 bound_to 11000
  144.7775  140.5770  143.6628 LP  0  0  0  0  0  0  0  0  0  0  0  0  # atno 17320 bound_to 7965
  145.5083  139.1480  143.3619 LP  0  0  0  0  0  0  0  0  0  0  0  0  # atno 17321 bound_to 7965
  140.7809  143.4671  151.0197 LP  0  0  0  0  0  0  0  0  0  0  0  0  # atno 17342 bound_to 10162
  139.8357  143.7631  152.3180 LP  0  0  0  0  0  0  0  0  0  0  0  0  # atno 17343 bound_to 10162
  157.6611  131.0880  150.7835 LP  0  0  0  0  0  0  0  0  0  0  0  0  # atno 17370 bound_to 10713
  156.7907  130.4889  149.5385 LP  0  0  0  0  0  0  0  0  0  0  0  0  # atno 17371 bound_to 10713
  140.0011  134.6834  155.9528 LP  0  0  0  0  0  0  0  0  0  0  0  0  # atno 17394 bound_to 11000
  141.1667  133.6537  156.4505 LP  0  0  0  0  0  0  0  0  0  0  0  0  # atno 17395 bound_to 11000

$$$$
