AV-unprocessed.smi:1978|AV-procd|sdf|7996|dock3
  -GOLD-   2272010183D 1   1.00000     0.00000
 Structure written by MMmdl.
 45 46  0  0  0  0  0  0  0  0  2 V2000
  151.0344  142.1540  156.4671 C   0  0  0  0  0  0  0  0  0  0  0  0
  150.7333  140.9645  155.6215 C   0  0  0  0  0  0  0  0  0  0  0  0
  149.5653  140.3918  155.2026 C   0  0  0  0  0  0  0  0  0  0  0  0
  150.0107  139.2857  154.4310 C   0  0  0  0  0  0  0  0  0  0  0  0
  149.0840  138.4114  153.8081 N   0  0  0  0  0  0  0  0  0  0  0  0
  147.7454  138.4208  153.9263 C   0  0  0  0  0  0  0  0  0  0  0  0
  147.0995  139.2071  154.6198 O   0  0  0  0  0  0  0  0  0  0  0  0
  147.1816  137.4623  153.1759 N   0  0  0  0  0  0  0  0  0  0  0  0
  145.7471  137.2040  153.0727 C   0  0  0  0  0  0  0  0  0  0  0  0
  145.4352  135.8277  152.4331 C   0  0  2  0  0  0  0  0  0  0  0  0
  144.0274  135.2907  152.7744 C   0  0  0  0  0  0  0  0  0  0  0  0
  146.5174  134.8338  152.7343 N   0  3  1  0  0  0  0  0  0  0  0  0
  146.7865  134.6660  154.1938 C   0  0  0  0  0  0  0  0  0  0  0  0
  148.0721  133.8648  154.4407 C   0  0  0  0  0  0  0  0  0  0  0  0
  147.9819  132.4915  153.7730 C   0  0  0  0  0  0  0  0  0  0  0  0
  147.6733  132.6644  152.2826 C   0  0  0  0  0  0  0  0  0  0  0  0
  146.3969  133.5032  152.0476 C   0  0  2  0  0  0  0  0  0  0  0  0
  146.1446  133.6049  150.5291 C   0  0  0  0  0  0  0  0  0  0  0  0
  151.3306  139.1928  154.3814 N   0  0  0  0  0  0  0  0  0  0  0  0
  151.8005  140.2685  155.1439 O   0  0  0  0  0  0  0  0  0  0  0  0
  150.1183  142.6671  156.7598 H   0  0  0  0  0  0  0  0  0  0  0  0
  151.6614  142.8634  155.9269 H   0  0  0  0  0  0  0  0  0  0  0  0
  151.5610  141.8587  157.3747 H   0  0  0  0  0  0  0  0  0  0  0  0
  148.5573  140.7137  155.4174 H   0  0  0  0  0  0  0  0  0  0  0  0
  149.4832  137.7125  153.1991 H   0  0  0  0  0  0  0  0  0  0  0  0
  147.7911  136.8631  152.6384 H   0  0  0  0  0  0  0  0  0  0  0  0
  145.3385  137.2355  154.0832 H   0  0  0  0  0  0  0  0  0  0  0  0
  145.2688  138.0201  152.5323 H   0  0  0  0  0  0  0  0  0  0  0  0
  145.4430  136.0344  151.3659 H   0  0  0  0  0  0  0  0  0  0  0  0
  143.2492  135.9466  152.3848 H   0  0  0  0  0  0  0  0  0  0  0  0
  143.8734  135.2115  153.8506 H   0  0  0  0  0  0  0  0  0  0  0  0
  143.8524  134.3086  152.3366 H   0  0  0  0  0  0  0  0  0  0  0  0
  146.8874  135.6286  154.6908 H   0  0  0  0  0  0  0  0  0  0  0  0
  145.9478  134.1561  154.6695 H   0  0  0  0  0  0  0  0  0  0  0  0
  148.9312  134.4130  154.0513 H   0  0  0  0  0  0  0  0  0  0  0  0
  148.2384  133.7463  155.5118 H   0  0  0  0  0  0  0  0  0  0  0  0
  148.9159  131.9448  153.9056 H   0  0  0  0  0  0  0  0  0  0  0  0
  147.1996  131.8974  154.2474 H   0  0  0  0  0  0  0  0  0  0  0  0
  148.5223  133.1412  151.7903 H   0  0  0  0  0  0  0  0  0  0  0  0
  147.5661  131.6806  151.8238 H   0  0  0  0  0  0  0  0  0  0  0  0
  145.5572  132.9648  152.4896 H   0  0  0  0  0  0  0  0  0  0  0  0
  146.2318  132.6271  150.0545 H   0  0  0  0  0  0  0  0  0  0  0  0
  146.8638  134.2676  150.0468 H   0  0  0  0  0  0  0  0  0  0  0  0
  145.1399  133.9590  150.2999 H   0  0  0  0  0  0  0  0  0  0  0  0
  147.3548  135.2466  152.3491 H   0  0  0  0  0  0  0  0  0  0  0  0
  1  2  1  0  0  0  0
  1 21  1  0  0  0  0
  1 22  1  0  0  0  0
  1 23  1  0  0  0  0
  2 20  1  0  0  0  0
  2  3  2  0  0  0  0
  3  4  1  0  0  0  0
  3 24  1  0  0  0  0
  4  5  1  0  0  0  0
  4 19  2  0  0  0  0
  5  6  1  0  0  0  0
  5 25  1  0  0  0  0
  6  7  2  0  0  0  0
  6  8  1  0  0  0  0
  8  9  1  0  0  0  0
  8 26  1  0  0  0  0
  9 10  1  0  0  0  0
  9 27  1  0  0  0  0
  9 28  1  0  0  0  0
 10 11  1  0  0  0  0
 10 12  1  0  0  0  0
 10 29  1  0  0  0  0
 11 30  1  0  0  0  0
 11 31  1  0  0  0  0
 11 32  1  0  0  0  0
 12 17  1  0  0  0  0
 12 13  1  0  0  0  0
 12 45  1  0  0  0  0
 13 14  1  0  0  0  0
 13 33  1  0  0  0  0
 13 34  1  0  0  0  0
 14 15  1  0  0  0  0
 14 35  1  0  0  0  0
 14 36  1  0  0  0  0
 15 16  1  0  0  0  0
 15 37  1  0  0  0  0
 15 38  1  0  0  0  0
 16 17  1  0  0  0  0
 16 39  1  0  0  0  0
 16 40  1  0  0  0  0
 17 18  1  0  0  0  0
 17 41  1  0  0  0  0
 18 42  1  0  0  0  0
 18 43  1  0  0  0  0
 18 44  1  0  0  0  0
 19 20  1  0  0  0  0
M  CHG  1  12   1
M  END
> <s_m_source_file>
AV-unprocessed.smi

> <i_m_source_file_index>
1978

> <i_lp_mmshare_version>
43012

> <i_f3d_flags>
0

> <s_epik_input>
W0NIM11jMVtjSF1jKG5vMSlbTkhdQyg9TylbTkhdW0NIMl1bQ0BIXShbQ0gzXSlOMltDSDJdW0NIMl1bQ0gyXVtDSDJdW0NASF0yW0NIM10=

> <s_epik_cmdline>
J2VwaWtfcHl0aG9uJywgJy1waCcsICc3LjAnLCAnLXRuJywgJzgnLCAnLW1hJywgJzIwMCcsICctbWV0YWxfYmluZGluZycsICctaW1hZScsICc8aW5maWxlLm1hZT4nLCAnLW9tYWUnLCAnPG91dGZpbGUubWFlPic=

> <r_epik_Ionization_Penalty>
0.00265971

> <r_epik_Ionization_Penalty_Charging>
0.00262393

> <r_epik_Ionization_Penalty_Neutral>
3.57846e-05

> <r_epik_State_Penalty>
0.00182566

> <r_epik_Charging_Adjusted_Penalty>
0.00444959

> <i_epik_Tot_Q>
1

> <i_epik_Tot_abs_Q>
1

> <r_epik_Metal_State_Penalty>
0.0216344

> <b_epik_Metal_Only>
0

> <s_lp_Force_Field>
OPLS_2005

> <r_lp_Energy>
21.464

> <b_lp_Chiralities_Consistent>
1

> <s_lp_Variant>
AV-unprocessed.smi:1978-5

> <Gold.Version>
5.8.1

> <Gold.Id.Protein>
6NUR|6NUR_protein|mol2

> <Gold.PLP.Fitness>
40.0585

> <Gold.PLP.PLP>
-29.2303

> <Gold.PLP.part.hbond>
-5.6263

> <Gold.PLP.part.metal>
0.0000

> <Gold.PLP.part.buried>
-0.5965

> <Gold.PLP.part.nonpolar>
-22.3125

> <Gold.PLP.part.repulsive>
0.3383

> <Gold.PLP.ligand.clash>
0.0000

> <Gold.PLP.ligand.torsion>
0.4506

> <Gold.PLP.Chemscore.Hbond>
3.8640

> <Gold.PLP.Chemscore.CHOScore>
0.0000

> <Gold.PLP.Chemscore.Metal>
0.0000

> <Gold.Chemscore.Hbonds>
donor molecule, donor type, donor heavy atom, donor atom, acceptor molecule, acceptor atom, score
      L1  H     5    25       P1  7948  0.86
      L1  H     8    26       P1  7948  0.99
      L1  H    12    45       P1  7948  2.00

> <Gold.PLP.Chemscore.Internal.Correction>
0.1375

> <Gold.Rescore>
     Score         DG    S(hbond)    S(metal)    S(lipo)     H(rot)  DE(clash)    DE(int)     intcor
     14.57     -17.87       2.74        0.00      61.53       1.55       0.03       3.27       ----

> <Gold.Chemscore.Fitness>
14.5709

> <Gold.Chemscore.DG>
-17.8740

> <Gold.Chemscore.ZeroCoef>
-5.4800

> <Gold.Chemscore.Hbond>
2.7414

> <Gold.Chemscore.Metal>
0.0000

> <Gold.Chemscore.Lipo>
61.5288

> <Gold.Chemscore.Internal_Hbond>
0.0000

> <Gold.Chemscore.DEClash>
0.0291

> <Gold.Chemscore.DEInternal>
3.2740

> <Gold.Chemscore.Rot>
1.5474

> <Gold.Chemscore.Internal.Correction>
   9.000000E+99

> <Gold.Chemscore.Hbonds>
donor molecule, donor type, donor heavy atom, donor atom, acceptor molecule, acceptor atom, score
      L1  H     5    25       P1  7948  0.72
      L1  H     8    26       P1  7948  0.93
      L1  H    12    45       P1  7948  1.00

> <Gold.Chemscore.Hbond.Weighted>
-9.1563

> <Gold.Chemscore.Metal.Weighted>
-0.0000

> <Gold.Chemscore.Lipo.Weighted>
-7.1989

> <Gold.Chemscore.Internal_Hbond.Weighted>
0.0000

> <Gold.Chemscore.DEClash.Weighted>
0.0291

> <Gold.Chemscore.DEInternal.Weighted>
3.2740

> <Gold.Chemscore.Rot.Weighted>
3.9612

> <Gold.Chemscore.Internal.Correction.Weighted>
   9.000000E+99

> <Gold.Protein.RotatedTorsions>
[ 6907 6896 6895 6894 ] final  117.06 input  -60.11 | X-H torsion
[ 7974 7965 7964 7962 ] final -118.02 input  175.53 | X-H torsion
[ 8008 7997 7996 7995 ] final  -17.14 input   59.86 | X-H torsion
[ 10167 10162 10161 10158 ] final   45.27 input  -65.29 | X-H torsion
[ 10718 10713 10712 10709 ] final   24.62 input   66.30 | X-H torsion
[ 10763 10752 10751 10750 ] final  -56.84 input  -60.55 | X-H torsion
[ 11005 11000 10999 10996 ] final  156.86 input  -57.11 | X-H torsion

> <Gold.Protein.ActiveResidues>
 VAL166  LYS551  ARG553  GLY616  TRP617  ASP618  TYR619  PRO620  LYS621  CYS622 
 ASP623  PHE694  ASN695  SER759  ASP760  ASP761  ALA762  ILE779  LEU786  VAL792 
 PHE793  MET794  SER795  GLU796  ALA797  LYS798  CYS799  TRP800  GLU811  SER814 

> <Gold.Protein.RotatedAtoms>
  152.4637  133.7876  159.6884 H   0  0  0  0  0  0  0  0  0  0  0  0  # atno 6907 bound_to 6896
  150.8591  133.7660  159.3005 H   0  0  0  0  0  0  0  0  0  0  0  0  # atno 6908 bound_to 6896
  151.5231  135.1070  159.9935 H   0  0  0  0  0  0  0  0  0  0  0  0  # atno 6909 bound_to 6896
  145.0786  140.8410  143.4052 H   0  0  0  0  0  0  0  0  0  0  0  0  # atno 7974 bound_to 7965
  154.5000  140.2150  155.9367 H   0  0  0  0  0  0  0  0  0  0  0  0  # atno 8008 bound_to 7997
  156.1421  140.3177  155.8479 H   0  0  0  0  0  0  0  0  0  0  0  0  # atno 8009 bound_to 7997
  155.4100  140.0490  157.3023 H   0  0  0  0  0  0  0  0  0  0  0  0  # atno 8010 bound_to 7997
  140.3258  144.2649  150.6175 H   0  0  0  0  0  0  0  0  0  0  0  0  # atno 10167 bound_to 10162
  157.1822  130.6808  149.6117 H   0  0  0  0  0  0  0  0  0  0  0  0  # atno 10718 bound_to 10713
  154.2129  135.6391  153.5121 H   0  0  0  0  0  0  0  0  0  0  0  0  # atno 10763 bound_to 10752
  152.9986  135.5478  154.6196 H   0  0  0  0  0  0  0  0  0  0  0  0  # atno 10764 bound_to 10752
  154.5637  135.2911  155.0868 H   0  0  0  0  0  0  0  0  0  0  0  0  # atno 10765 bound_to 10752
  140.1715  134.8540  157.2696 H   0  0  0  0  0  0  0  0  0  0  0  0  # atno 11005 bound_to 11000
  145.1206  139.2696  143.5590 LP  0  0  0  0  0  0  0  0  0  0  0  0  # atno 17320 bound_to 7965
  146.3530  140.0828  142.8617 LP  0  0  0  0  0  0  0  0  0  0  0  0  # atno 17321 bound_to 7965
  140.5442  143.2218  151.8035 LP  0  0  0  0  0  0  0  0  0  0  0  0  # atno 17342 bound_to 10162
  139.4865  144.4561  151.9597 LP  0  0  0  0  0  0  0  0  0  0  0  0  # atno 17343 bound_to 10162
  155.9723  130.4643  150.6212 LP  0  0  0  0  0  0  0  0  0  0  0  0  # atno 17370 bound_to 10713
  157.3941  131.0800  151.1367 LP  0  0  0  0  0  0  0  0  0  0  0  0  # atno 17371 bound_to 10713
  140.2372  134.3839  155.7496 LP  0  0  0  0  0  0  0  0  0  0  0  0  # atno 17394 bound_to 11000
  141.2217  133.7246  156.8733 LP  0  0  0  0  0  0  0  0  0  0  0  0  # atno 17395 bound_to 11000

$$$$
