AV-unprocessed.smi:1290|AV-procd|sdf|5390|dock5
  -GOLD-   22720 4543D 1   1.00000     0.00000
 Structure written by MMmdl.
 38 40  0  0  0  0  0  0  0  0  1 V2000
  154.8431  139.8224  160.8058 C   0  0  0  0  0  0  0  0  0  0  0  0
  153.8090  140.7595  160.3280 N   0  0  0  0  0  0  0  0  0  0  0  0
  153.2163  140.5107  159.1180 C   0  0  0  0  0  0  0  0  0  0  0  0
  153.4813  139.5535  158.3896 O   0  0  0  0  0  0  0  0  0  0  0  0
  152.2073  141.5051  158.7344 C   0  0  0  0  0  0  0  0  0  0  0  0
  151.8922  142.5731  159.5081 C   0  0  0  0  0  0  0  0  0  0  0  0
  150.9138  143.3590  158.9087 N   0  0  0  0  0  0  0  0  0  0  0  0
  150.6857  142.7025  157.7710 C   0  0  0  0  0  0  0  0  0  0  0  0
  151.4168  141.5847  157.5875 N   0  0  0  0  0  0  0  0  0  0  0  0
  151.3545  140.7029  156.4310 C   0  0  0  0  0  0  0  0  0  0  0  0
  150.1330  140.9832  155.5315 C   0  0  1  0  0  0  0  0  0  0  0  0
  150.2388  140.2673  154.3161 O   0  0  0  0  0  0  0  0  0  0  0  0
  148.8320  140.6807  156.2577 C   0  0  0  0  0  0  0  0  0  0  0  0
  148.5627  139.3770  156.7297 C   0  0  0  0  0  0  0  0  0  0  0  0
  147.3584  139.1010  157.4056 C   0  0  0  0  0  0  0  0  0  0  0  0
  146.4164  140.1270  157.6147 C   0  0  0  0  0  0  0  0  0  0  0  0
  144.9402  139.7894  158.4420 Cl  0  0  0  0  0  0  0  0  0  0  0  0
  146.6813  141.4295  157.1487 C   0  0  0  0  0  0  0  0  0  0  0  0
  147.8861  141.7059  156.4733 C   0  0  0  0  0  0  0  0  0  0  0  0
  152.5670  142.7338  160.7460 N   0  0  0  0  0  0  0  0  0  0  0  0
  152.2376  143.8825  161.5944 C   0  0  0  0  0  0  0  0  0  0  0  0
  153.5235  141.8363  161.1498 C   0  0  0  0  0  0  0  0  0  0  0  0
  154.1125  141.9941  162.2232 O   0  0  0  0  0  0  0  0  0  0  0  0
  155.0046  138.9525  160.1682 H   0  0  0  0  0  0  0  0  0  0  0  0
  154.5833  139.4334  161.7918 H   0  0  0  0  0  0  0  0  0  0  0  0
  155.8040  140.3324  160.8889 H   0  0  0  0  0  0  0  0  0  0  0  0
  149.9638  143.0471  157.0451 H   0  0  0  0  0  0  0  0  0  0  0  0
  152.2841  140.7765  155.8682 H   0  0  0  0  0  0  0  0  0  0  0  0
  151.3105  139.6755  156.7953 H   0  0  0  0  0  0  0  0  0  0  0  0
  150.1373  142.0410  155.2646 H   0  0  0  0  0  0  0  0  0  0  0  0
  149.4031  140.2989  153.8761 H   0  0  0  0  0  0  0  0  0  0  0  0
  149.2812  138.5850  156.5758 H   0  0  0  0  0  0  0  0  0  0  0  0
  147.1592  138.1014  157.7632 H   0  0  0  0  0  0  0  0  0  0  0  0
  145.9611  142.2183  157.3090 H   0  0  0  0  0  0  0  0  0  0  0  0
  148.0797  142.7086  156.1219 H   0  0  0  0  0  0  0  0  0  0  0  0
  151.9185  143.5509  162.5836 H   0  0  0  0  0  0  0  0  0  0  0  0
  151.4327  144.4932  161.1859 H   0  0  0  0  0  0  0  0  0  0  0  0
  153.1082  144.5282  161.7157 H   0  0  0  0  0  0  0  0  0  0  0  0
  1  2  1  0  0  0  0
  1 24  1  0  0  0  0
  1 25  1  0  0  0  0
  1 26  1  0  0  0  0
  2 22  1  0  0  0  0
  2  3  1  0  0  0  0
  3  4  2  0  0  0  0
  3  5  1  0  0  0  0
  5  9  1  0  0  0  0
  5  6  2  0  0  0  0
  6  7  1  0  0  0  0
  6 20  1  0  0  0  0
  7  8  2  0  0  0  0
  8  9  1  0  0  0  0
  8 27  1  0  0  0  0
  9 10  1  0  0  0  0
 10 11  1  0  0  0  0
 10 28  1  0  0  0  0
 10 29  1  0  0  0  0
 11 12  1  0  0  0  0
 11 13  1  0  0  0  0
 11 30  1  0  0  0  0
 12 31  1  0  0  0  0
 13 19  1  0  0  0  0
 13 14  2  0  0  0  0
 14 15  1  0  0  0  0
 14 32  1  0  0  0  0
 15 16  2  0  0  0  0
 15 33  1  0  0  0  0
 16 17  1  0  0  0  0
 16 18  1  0  0  0  0
 18 19  2  0  0  0  0
 18 34  1  0  0  0  0
 19 35  1  0  0  0  0
 20 21  1  0  0  0  0
 20 22  1  0  0  0  0
 21 36  1  0  0  0  0
 21 37  1  0  0  0  0
 21 38  1  0  0  0  0
 22 23  2  0  0  0  0
M  END
> <s_m_source_file>
AV-unprocessed.smi

> <i_m_source_file_index>
1290

> <i_lp_mmshare_version>
43012

> <i_f3d_flags>
0

> <s_epik_input>
Tz1jMW4oW0NIM10pYyg9TyluKFtDSDNdKWMoYzEyKW5bY0hdbjJbQ0gyXVtDQEhdKFtPSF0pYzNbY0hdW2NIXWMoQ2wpW2NIXVtjSF0z

> <s_epik_cmdline>
J2VwaWtfcHl0aG9uJywgJy1waCcsICc3LjAnLCAnLXRuJywgJzgnLCAnLW1hJywgJzIwMCcsICctbWV0YWxfYmluZGluZycsICctaW1hZScsICc8aW5maWxlLm1hZT4nLCAnLW9tYWUnLCAnPG91dGZpbGUubWFlPic=

> <r_lp_tautomer_probability>
1

> <r_epik_Ionization_Penalty>
1.48293e-06

> <r_epik_Ionization_Penalty_Charging>
3.74189e-09

> <r_epik_Ionization_Penalty_Neutral>
1.47919e-06

> <r_epik_State_Penalty>
-0

> <r_epik_Charging_Adjusted_Penalty>
3.74189e-09

> <i_epik_Tot_Q>
0

> <i_epik_Tot_abs_Q>
0

> <r_epik_Metal_State_Penalty>
-0

> <b_epik_Metal_Only>
0

> <s_lp_Force_Field>
OPLS_2005

> <r_lp_Energy>
35.8921

> <b_lp_Chiralities_Consistent>
1

> <s_lp_Variant>
AV-unprocessed.smi:1290-2

> <Gold.Version>
5.8.1

> <Gold.Id.Protein>
6NUR|6NUR_protein|mol2

> <Gold.PLP.Fitness>
49.6683

> <Gold.PLP.PLP>
-41.0106

> <Gold.PLP.part.hbond>
-3.3688

> <Gold.PLP.part.metal>
0.0000

> <Gold.PLP.part.buried>
-5.4572

> <Gold.PLP.part.nonpolar>
-32.4765

> <Gold.PLP.part.repulsive>
0.0936

> <Gold.PLP.ligand.clash>
0.0000

> <Gold.PLP.ligand.torsion>
0.1865

> <Gold.PLP.Chemscore.Hbond>
2.0000

> <Gold.PLP.Chemscore.CHOScore>
1.0000

> <Gold.PLP.Chemscore.Metal>
0.0000

> <Gold.Chemscore.Hbonds>
donor molecule, donor type, donor heavy atom, donor atom, acceptor molecule, acceptor atom, score
      P1  H  7989  7998       L1    12  1.00
      P1  H  7997  8009       L1     4  1.00
      L1  C     8    27       P1  8028  1.00

> <Gold.PLP.Chemscore.Internal.Correction>
0.0307

> <Gold.Rescore>
     Score         DG    S(hbond)    S(metal)    S(lipo)     H(rot)  DE(clash)    DE(int)     intcor
     11.64     -11.82       1.80        0.00      49.92       2.15       0.01       0.18       ----

> <Gold.Chemscore.Fitness>
11.6374

> <Gold.Chemscore.DG>
-11.8247

> <Gold.Chemscore.ZeroCoef>
-5.4800

> <Gold.Chemscore.Hbond>
1.7967

> <Gold.Chemscore.Metal>
0.0000

> <Gold.Chemscore.Lipo>
49.9224

> <Gold.Chemscore.Internal_Hbond>
0.0000

> <Gold.Chemscore.DEClash>
0.0107

> <Gold.Chemscore.DEInternal>
0.1766

> <Gold.Chemscore.Rot>
2.1474

> <Gold.Chemscore.Internal.Correction>
   9.000000E+99

> <Gold.Chemscore.Hbonds>
donor molecule, donor type, donor heavy atom, donor atom, acceptor molecule, acceptor atom, score
      P1  H  7989  7998       L1    12  0.55
      P1  H  7997  8009       L1     4  0.78

> <Gold.Chemscore.Hbond.Weighted>
-6.0011

> <Gold.Chemscore.Metal.Weighted>
-0.0000

> <Gold.Chemscore.Lipo.Weighted>
-5.8409

> <Gold.Chemscore.Internal_Hbond.Weighted>
0.0000

> <Gold.Chemscore.DEClash.Weighted>
0.0107

> <Gold.Chemscore.DEInternal.Weighted>
0.1766

> <Gold.Chemscore.Rot.Weighted>
5.4974

> <Gold.Chemscore.Internal.Correction.Weighted>
   9.000000E+99

> <Gold.Protein.RotatedTorsions>
[ 6907 6896 6895 6894 ] final   42.69 input  -60.11 | X-H torsion
[ 7974 7965 7964 7962 ] final  -78.56 input  175.53 | X-H torsion
[ 8008 7997 7996 7995 ] final  149.71 input   59.86 | X-H torsion
[ 10167 10162 10161 10158 ] final   35.32 input  -65.29 | X-H torsion
[ 10718 10713 10712 10709 ] final -164.14 input   66.30 | X-H torsion
[ 10763 10752 10751 10750 ] final   32.07 input  -60.55 | X-H torsion
[ 11005 11000 10999 10996 ] final  -13.31 input  -57.11 | X-H torsion

> <Gold.Protein.ActiveResidues>
 VAL166  LYS551  ARG553  GLY616  TRP617  ASP618  TYR619  PRO620  LYS621  CYS622 
 ASP623  PHE694  ASN695  SER759  ASP760  ASP761  ALA762  ILE779  LEU786  VAL792 
 PHE793  MET794  SER795  GLU796  ALA797  LYS798  CYS799  TRP800  GLU811  SER814 

> <Gold.Protein.RotatedAtoms>
  152.2110  134.8501  160.0497 H   0  0  0  0  0  0  0  0  0  0  0  0  # atno 6907 bound_to 6896
  151.9319  133.3608  159.3942 H   0  0  0  0  0  0  0  0  0  0  0  0  # atno 6908 bound_to 6896
  150.6976  134.4453  159.5355 H   0  0  0  0  0  0  0  0  0  0  0  0  # atno 6909 bound_to 6896
  145.5849  140.9441  143.1324 H   0  0  0  0  0  0  0  0  0  0  0  0  # atno 7974 bound_to 7965
  156.2744  140.2094  156.5901 H   0  0  0  0  0  0  0  0  0  0  0  0  # atno 8008 bound_to 7997
  154.6989  140.0523  157.0461 H   0  0  0  0  0  0  0  0  0  0  0  0  # atno 8009 bound_to 7997
  155.0762  140.3182  155.4618 H   0  0  0  0  0  0  0  0  0  0  0  0  # atno 8010 bound_to 7997
  140.4233  144.1429  150.6150 H   0  0  0  0  0  0  0  0  0  0  0  0  # atno 10167 bound_to 10162
  156.6347  130.8944  151.2984 H   0  0  0  0  0  0  0  0  0  0  0  0  # atno 10718 bound_to 10713
  153.0281  135.6422  154.1298 H   0  0  0  0  0  0  0  0  0  0  0  0  # atno 10763 bound_to 10752
  154.1024  135.2858  155.3250 H   0  0  0  0  0  0  0  0  0  0  0  0  # atno 10764 bound_to 10752
  154.6389  135.5466  153.7829 H   0  0  0  0  0  0  0  0  0  0  0  0  # atno 10765 bound_to 10752
  140.7748  133.8410  155.9238 H   0  0  0  0  0  0  0  0  0  0  0  0  # atno 11005 bound_to 11000
  144.7377  139.7537  143.7323 LP  0  0  0  0  0  0  0  0  0  0  0  0  # atno 17320 bound_to 7965
  146.1689  139.4832  142.9940 LP  0  0  0  0  0  0  0  0  0  0  0  0  # atno 17321 bound_to 7965
  140.4509  143.2487  151.9349 LP  0  0  0  0  0  0  0  0  0  0  0  0  # atno 17342 bound_to 10162
  139.4783  144.5563  151.8309 LP  0  0  0  0  0  0  0  0  0  0  0  0  # atno 17343 bound_to 10162
  157.7189  130.9533  150.1362 LP  0  0  0  0  0  0  0  0  0  0  0  0  # atno 17370 bound_to 10713
  156.2206  130.3673  149.8560 LP  0  0  0  0  0  0  0  0  0  0  0  0  # atno 17371 bound_to 10713
  140.9540  134.1742  157.4706 LP  0  0  0  0  0  0  0  0  0  0  0  0  # atno 17394 bound_to 11000
  139.8750  134.9920  156.5574 LP  0  0  0  0  0  0  0  0  0  0  0  0  # atno 17395 bound_to 11000

$$$$
