AV-unprocessed.smi:786|AV-procd|sdf|3721|dock2
  -GOLD-   22720 1143D 1   1.00000     0.00000
 Structure written by MMmdl.
 39 40  0  0  0  0  0  0  0  0  1 V2000
  153.3214  136.6303  159.3149 O   0  0  0  0  0  0  0  0  0  0  0  0
  152.8204  137.8198  158.6105 S   0  0  0  0  0  0  0  0  0  0  0  0
  153.5295  138.3364  157.4301 O   0  0  0  0  0  0  0  0  0  0  0  0
  151.0399  137.5758  158.1671 C   0  0  0  0  0  0  0  0  0  0  0  0
  150.6661  138.1864  156.8002 C   0  0  0  0  0  0  0  0  0  0  0  0
  151.4943  137.6162  155.6327 C   0  0  0  0  0  0  0  0  0  0  0  0
  151.1305  138.3155  154.3126 C   0  0  0  0  0  0  0  0  0  0  0  0
  151.3268  139.7198  154.4356 O   0  0  0  0  0  0  0  0  0  0  0  0
  150.4964  140.3098  155.4295 C   0  0  0  0  0  0  0  0  0  0  0  0
  150.8239  139.7159  156.8094 C   0  0  0  0  0  0  0  0  0  0  0  0
  152.7542  139.0959  159.7709 N   0  0  0  0  0  0  0  0  0  0  0  0
  153.1787  140.4507  159.4183 C   0  0  0  0  0  0  0  0  0  0  0  0
  152.9189  141.4107  160.5868 C   0  0  0  0  0  0  0  0  0  0  0  0
  152.6741  142.8327  160.1177 C   0  0  0  0  0  0  0  0  0  0  0  0
  152.8449  143.1836  158.7614 C   0  0  0  0  0  0  0  0  0  0  0  0
  152.5979  144.5157  158.3766 C   0  0  0  0  0  0  0  0  0  0  0  0
  152.1915  145.4407  159.3572 C   0  0  0  0  0  0  0  0  0  0  0  0
  152.0483  144.9901  160.6849 C   0  0  0  0  0  0  0  0  0  0  0  0
  152.2814  143.7150  161.0644 N   0  0  0  0  0  0  0  0  0  0  0  0
  150.8425  136.5046  158.1898 H   0  0  0  0  0  0  0  0  0  0  0  0
  150.4326  138.0174  158.9573 H   0  0  0  0  0  0  0  0  0  0  0  0
  149.6128  137.9736  156.6117 H   0  0  0  0  0  0  0  0  0  0  0  0
  152.5575  137.7578  155.8307 H   0  0  0  0  0  0  0  0  0  0  0  0
  151.3419  136.5438  155.5260 H   0  0  0  0  0  0  0  0  0  0  0  0
  151.7615  137.9421  153.5060 H   0  0  0  0  0  0  0  0  0  0  0  0
  150.0978  138.1044  154.0316 H   0  0  0  0  0  0  0  0  0  0  0  0
  150.6666  141.3865  155.4352 H   0  0  0  0  0  0  0  0  0  0  0  0
  149.4457  140.1556  155.1787 H   0  0  0  0  0  0  0  0  0  0  0  0
  150.1724  140.1587  157.5636 H   0  0  0  0  0  0  0  0  0  0  0  0
  151.8456  139.9814  157.0847 H   0  0  0  0  0  0  0  0  0  0  0  0
  151.9493  139.0453  160.3952 H   0  0  0  0  0  0  0  0  0  0  0  0
  154.2403  140.4451  159.1695 H   0  0  0  0  0  0  0  0  0  0  0  0
  152.6368  140.7755  158.5298 H   0  0  0  0  0  0  0  0  0  0  0  0
  152.0552  141.0750  161.1628 H   0  0  0  0  0  0  0  0  0  0  0  0
  153.7674  141.4011  161.2722 H   0  0  0  0  0  0  0  0  0  0  0  0
  153.1561  142.4508  158.0313 H   0  0  0  0  0  0  0  0  0  0  0  0
  152.7181  144.8219  157.3477 H   0  0  0  0  0  0  0  0  0  0  0  0
  151.9935  146.4704  159.0987 H   0  0  0  0  0  0  0  0  0  0  0  0
  151.7379  145.6719  161.4626 H   0  0  0  0  0  0  0  0  0  0  0  0
  1  2  2  0  0  0  0
  2  3  2  0  0  0  0
  2  4  1  0  0  0  0
  2 11  1  0  0  0  0
  4  5  1  0  0  0  0
  4 20  1  0  0  0  0
  4 21  1  0  0  0  0
  5 10  1  0  0  0  0
  5  6  1  0  0  0  0
  5 22  1  0  0  0  0
  6  7  1  0  0  0  0
  6 23  1  0  0  0  0
  6 24  1  0  0  0  0
  7  8  1  0  0  0  0
  7 25  1  0  0  0  0
  7 26  1  0  0  0  0
  8  9  1  0  0  0  0
  9 10  1  0  0  0  0
  9 27  1  0  0  0  0
  9 28  1  0  0  0  0
 10 29  1  0  0  0  0
 10 30  1  0  0  0  0
 11 12  1  0  0  0  0
 11 31  1  0  0  0  0
 12 13  1  0  0  0  0
 12 32  1  0  0  0  0
 12 33  1  0  0  0  0
 13 14  1  0  0  0  0
 13 34  1  0  0  0  0
 13 35  1  0  0  0  0
 14 19  1  0  0  0  0
 14 15  2  0  0  0  0
 15 16  1  0  0  0  0
 15 36  1  0  0  0  0
 16 17  2  0  0  0  0
 16 37  1  0  0  0  0
 17 18  1  0  0  0  0
 17 38  1  0  0  0  0
 18 19  2  0  0  0  0
 18 39  1  0  0  0  0
M  END
> <s_m_source_file>
AV-unprocessed.smi

> <i_m_source_file_index>
786

> <i_lp_mmshare_version>
43012

> <i_f3d_flags>
0

> <s_epik_input>
W0NIMl0xW0NIMl1PW0NIMl1bQ0gyXVtDSF0xW0NIMl1TKD1PKSg9TylbTkhdW0NIMl1bQ0gyXWMyW2NIXVtjSF1bY0hdW2NIXW4y

> <s_epik_cmdline>
J2VwaWtfcHl0aG9uJywgJy1waCcsICc3LjAnLCAnLXRuJywgJzgnLCAnLW1hJywgJzIwMCcsICctbWV0YWxfYmluZGluZycsICctaW1hZScsICc8aW5maWxlLm1hZT4nLCAnLW9tYWUnLCAnPG91dGZpbGUubWFlPic=

> <r_epik_Ionization_Penalty>
0.0207022

> <r_epik_Ionization_Penalty_Charging>
0

> <r_epik_Ionization_Penalty_Neutral>
0.0207022

> <r_epik_State_Penalty>
0.0165999

> <r_epik_Charging_Adjusted_Penalty>
0.0165999

> <i_epik_Tot_Q>
0

> <i_epik_Tot_abs_Q>
0

> <r_epik_Metal_State_Penalty>
0.0248737

> <b_epik_Metal_Only>
0

> <s_lp_Force_Field>
OPLS_2005

> <r_lp_Energy>
3.32782

> <b_lp_Chiralities_Consistent>
1

> <s_lp_Variant>
AV-unprocessed.smi:786-1

> <Gold.Version>
5.8.1

> <Gold.Id.Protein>
6NUR|6NUR_protein|mol2

> <Gold.PLP.Fitness>
46.4036

> <Gold.PLP.PLP>
-39.8708

> <Gold.PLP.part.hbond>
-2.6442

> <Gold.PLP.part.metal>
0.0000

> <Gold.PLP.part.buried>
-5.8953

> <Gold.PLP.part.nonpolar>
-33.5624

> <Gold.PLP.part.repulsive>
0.2206

> <Gold.PLP.ligand.clash>
0.0000

> <Gold.PLP.ligand.torsion>
0.8039

> <Gold.PLP.Chemscore.Hbond>
2.6175

> <Gold.PLP.Chemscore.CHOScore>
0.0000

> <Gold.PLP.Chemscore.Metal>
0.0000

> <Gold.Chemscore.Hbonds>
donor molecule, donor type, donor heavy atom, donor atom, acceptor molecule, acceptor atom, score
      P1  H  6896  6908       L1     1  0.71
      P1  H  7989  7998       L1     8  0.94
      P1  H  7997  8008       L1     3  1.00

> <Gold.PLP.Chemscore.Internal.Correction>
0.2882

> <Gold.Rescore>
     Score         DG    S(hbond)    S(metal)    S(lipo)     H(rot)  DE(clash)    DE(int)     intcor
     19.88     -22.10       2.56        0.00     108.55       1.81       0.01       2.20       ----

> <Gold.Chemscore.Fitness>
19.8832

> <Gold.Chemscore.DG>
-22.1009

> <Gold.Chemscore.ZeroCoef>
-5.4800

> <Gold.Chemscore.Hbond>
2.5640

> <Gold.Chemscore.Metal>
0.0000

> <Gold.Chemscore.Lipo>
108.5510

> <Gold.Chemscore.Internal_Hbond>
0.0000

> <Gold.Chemscore.DEClash>
0.0144

> <Gold.Chemscore.DEInternal>
2.2032

> <Gold.Chemscore.Rot>
1.8138

> <Gold.Chemscore.Internal.Correction>
   9.000000E+99

> <Gold.Chemscore.Hbonds>
donor molecule, donor type, donor heavy atom, donor atom, acceptor molecule, acceptor atom, score
      P1  H  6896  6908       L1     1  0.69
      P1  H  7989  7998       L1     8  0.45
      P1  H  7997  8008       L1     3  0.88

> <Gold.Chemscore.Hbond.Weighted>
-8.5637

> <Gold.Chemscore.Metal.Weighted>
-0.0000

> <Gold.Chemscore.Lipo.Weighted>
-12.7005

> <Gold.Chemscore.Internal_Hbond.Weighted>
0.0000

> <Gold.Chemscore.DEClash.Weighted>
0.0144

> <Gold.Chemscore.DEInternal.Weighted>
2.2032

> <Gold.Chemscore.Rot.Weighted>
4.6432

> <Gold.Chemscore.Internal.Correction.Weighted>
   9.000000E+99

> <Gold.Protein.RotatedTorsions>
[ 6907 6896 6895 6894 ] final  -84.44 input  -60.11 | X-H torsion
[ 7974 7965 7964 7962 ] final  141.80 input  175.53 | X-H torsion
[ 8008 7997 7996 7995 ] final  -81.78 input   59.86 | X-H torsion
[ 10167 10162 10161 10158 ] final   37.34 input  -65.29 | X-H torsion
[ 10718 10713 10712 10709 ] final -129.51 input   66.30 | X-H torsion
[ 10763 10752 10751 10750 ] final   47.05 input  -60.55 | X-H torsion
[ 11005 11000 10999 10996 ] final  -51.65 input  -57.11 | X-H torsion

> <Gold.Protein.ActiveResidues>
 VAL166  LYS551  ARG553  GLY616  TRP617  ASP618  TYR619  PRO620  LYS621  CYS622 
 ASP623  PHE694  ASN695  SER759  ASP760  ASP761  ALA762  ILE779  LEU786  VAL792 
 PHE793  MET794  SER795  GLU796  ALA797  LYS798  CYS799  TRP800  GLU811  SER814 

> <Gold.Protein.RotatedAtoms>
  150.6876  134.3358  159.4846 H   0  0  0  0  0  0  0  0  0  0  0  0  # atno 6907 bound_to 6896
  152.1217  134.9197  160.0572 H   0  0  0  0  0  0  0  0  0  0  0  0  # atno 6908 bound_to 6896
  152.0401  133.3939  159.4370 H   0  0  0  0  0  0  0  0  0  0  0  0  # atno 6909 bound_to 6896
  144.9064  139.5352  143.5729 H   0  0  0  0  0  0  0  0  0  0  0  0  # atno 7974 bound_to 7965
  154.6019  140.0643  156.9379 H   0  0  0  0  0  0  0  0  0  0  0  0  # atno 8008 bound_to 7997
  155.2118  140.3323  155.4309 H   0  0  0  0  0  0  0  0  0  0  0  0  # atno 8009 bound_to 7997
  156.2323  140.1846  156.7194 H   0  0  0  0  0  0  0  0  0  0  0  0  # atno 8010 bound_to 7997
  140.4042  144.1682  150.6135 H   0  0  0  0  0  0  0  0  0  0  0  0  # atno 10167 bound_to 10162
  156.2054  130.6884  151.0588 H   0  0  0  0  0  0  0  0  0  0  0  0  # atno 10718 bound_to 10713
  152.9804  135.5988  154.3699 H   0  0  0  0  0  0  0  0  0  0  0  0  # atno 10763 bound_to 10752
  154.3374  135.2768  155.2442 H   0  0  0  0  0  0  0  0  0  0  0  0  # atno 10764 bound_to 10752
  154.4539  135.5983  153.6265 H   0  0  0  0  0  0  0  0  0  0  0  0  # atno 10765 bound_to 10752
  141.0882  133.6638  156.3909 H   0  0  0  0  0  0  0  0  0  0  0  0  # atno 11005 bound_to 11000
  146.3136  139.7835  142.9001 LP  0  0  0  0  0  0  0  0  0  0  0  0  # atno 17320 bound_to 7965
  145.3529  141.0311  143.3328 LP  0  0  0  0  0  0  0  0  0  0  0  0  # atno 17321 bound_to 7965
  140.4707  143.2414  151.9092 LP  0  0  0  0  0  0  0  0  0  0  0  0  # atno 17342 bound_to 10162
  139.4784  144.5372  151.8581 LP  0  0  0  0  0  0  0  0  0  0  0  0  # atno 17343 bound_to 10162
  157.7009  131.0776  150.6822 LP  0  0  0  0  0  0  0  0  0  0  0  0  # atno 17370 bound_to 10713
  156.6881  130.4587  149.5608 LP  0  0  0  0  0  0  0  0  0  0  0  0  # atno 17371 bound_to 10713
  140.5313  134.6210  157.5351 LP  0  0  0  0  0  0  0  0  0  0  0  0  # atno 17394 bound_to 11000
  139.9704  134.7302  156.0053 LP  0  0  0  0  0  0  0  0  0  0  0  0  # atno 17395 bound_to 11000

$$$$
