AV-unprocessed.smi:176|AV-procd|sdf|1434|dock10
  -GOLD-   2262019213D 1   1.00000     0.00000
 Structure written by MMmdl.
 57 61  0  0  0  0  0  0  0  0  1 V2000
  154.1351  131.5428  164.1747 O   0  0  0  0  0  0  0  0  0  0  0  0
  154.0427  131.9168  162.8151 C   0  0  0  0  0  0  0  0  0  0  0  0
  155.1421  132.9239  162.4400 C   0  0  0  0  0  0  0  0  0  0  0  0
  156.5142  132.2227  162.4973 C   0  0  0  0  0  0  0  0  0  0  0  0
  156.7875  131.7262  163.7923 O   0  0  0  0  0  0  0  0  0  0  0  0
  154.8780  133.7524  161.1625 C   0  0  0  0  0  0  0  0  0  0  0  0
  155.4091  135.0011  161.8694 C   0  0  0  0  0  0  0  0  0  0  0  0
  154.8738  136.2978  161.5760 N   0  0  0  0  0  0  0  0  0  0  0  0
  154.4431  137.2378  162.4852 C   0  0  0  0  0  0  0  0  0  0  0  0
  154.0335  138.3643  161.9696 N   0  0  0  0  0  0  0  0  0  0  0  0
  154.2266  138.2010  160.6030 C   0  0  0  0  0  0  0  0  0  0  0  0
  154.0105  139.0306  159.4674 C   0  0  0  0  0  0  0  0  0  0  0  0
  153.4765  140.2733  159.5650 N   0  0  0  0  0  0  0  0  0  0  0  0
  154.1125  141.1300  160.5633 C   0  0  0  0  0  0  0  0  0  0  0  0
  153.7670  142.6089  160.3185 C   0  0  0  0  0  0  0  0  0  0  0  0
  152.2409  142.8433  160.2107 C   0  0  1  0  0  0  0  0  0  0  0  0
  151.6833  142.5964  161.4896 O   0  0  0  0  0  0  0  0  0  0  0  0
  151.8882  144.3105  159.8701 C   0  0  0  0  0  0  0  0  0  0  0  0
  152.1999  144.6800  158.4104 C   0  0  0  0  0  0  0  0  0  0  0  0
  151.5118  143.7121  157.4388 C   0  0  0  0  0  0  0  0  0  0  0  0
  151.9123  142.2590  157.7313 C   0  0  0  0  0  0  0  0  0  0  0  0
  151.6003  141.8597  159.1910 C   0  0  1  0  0  0  0  0  0  0  0  0
  152.0216  140.4010  159.4722 C   0  0  0  0  0  0  0  0  0  0  0  0
  154.3615  138.5324  158.2516 N   0  0  0  0  0  0  0  0  0  0  0  0
  154.8773  137.3037  158.1501 C   0  0  0  0  0  0  0  0  0  0  0  0
  155.1226  136.4189  159.1184 N   0  0  0  0  0  0  0  0  0  0  0  0
  154.7769  136.9149  160.3410 C   0  0  0  0  0  0  0  0  0  0  0  0
  155.0673  134.2798  163.1753 C   0  0  0  0  0  0  0  0  0  0  0  0
  154.4523  130.6537  164.2202 H   0  0  0  0  0  0  0  0  0  0  0  0
  154.0882  131.0207  162.1959 H   0  0  0  0  0  0  0  0  0  0  0  0
  153.0538  132.3475  162.6561 H   0  0  0  0  0  0  0  0  0  0  0  0
  156.5561  131.3822  161.8045 H   0  0  0  0  0  0  0  0  0  0  0  0
  157.3190  132.8965  162.2027 H   0  0  0  0  0  0  0  0  0  0  0  0
  157.7194  131.5902  163.8707 H   0  0  0  0  0  0  0  0  0  0  0  0
  155.4551  133.4531  160.2871 H   0  0  0  0  0  0  0  0  0  0  0  0
  153.8173  133.8352  160.9175 H   0  0  0  0  0  0  0  0  0  0  0  0
  156.4901  135.0844  161.7442 H   0  0  0  0  0  0  0  0  0  0  0  0
  154.4340  137.0602  163.5508 H   0  0  0  0  0  0  0  0  0  0  0  0
  153.7711  140.8245  161.5531 H   0  0  0  0  0  0  0  0  0  0  0  0
  155.1954  141.0100  160.5601 H   0  0  0  0  0  0  0  0  0  0  0  0
  154.1915  143.2226  161.1141 H   0  0  0  0  0  0  0  0  0  0  0  0
  154.2612  142.9262  159.4006 H   0  0  0  0  0  0  0  0  0  0  0  0
  151.8432  143.3499  162.0368 H   0  0  0  0  0  0  0  0  0  0  0  0
  150.8230  144.4763  160.0402 H   0  0  0  0  0  0  0  0  0  0  0  0
  152.4099  144.9918  160.5436 H   0  0  0  0  0  0  0  0  0  0  0  0
  151.8697  145.6996  158.2107 H   0  0  0  0  0  0  0  0  0  0  0  0
  153.2768  144.6707  158.2409 H   0  0  0  0  0  0  0  0  0  0  0  0
  150.4292  143.8176  157.5206 H   0  0  0  0  0  0  0  0  0  0  0  0
  151.7710  143.9697  156.4116 H   0  0  0  0  0  0  0  0  0  0  0  0
  151.3869  141.5938  157.0454 H   0  0  0  0  0  0  0  0  0  0  0  0
  152.9748  142.1299  157.5219 H   0  0  0  0  0  0  0  0  0  0  0  0
  150.5159  141.9136  159.3015 H   0  0  0  0  0  0  0  0  0  0  0  0
  151.6343  139.7501  158.6868 H   0  0  0  0  0  0  0  0  0  0  0  0
  151.5789  140.0620  160.4099 H   0  0  0  0  0  0  0  0  0  0  0  0
  155.1269  136.9830  157.1496 H   0  0  0  0  0  0  0  0  0  0  0  0
  154.0619  134.5129  163.5318 H   0  0  0  0  0  0  0  0  0  0  0  0
  155.8025  134.4116  163.9697 H   0  0  0  0  0  0  0  0  0  0  0  0
  1  2  1  0  0  0  0
  1 29  1  0  0  0  0
  2  3  1  0  0  0  0
  2 30  1  0  0  0  0
  2 31  1  0  0  0  0
  3 28  1  0  0  0  0
  3  4  1  0  0  0  0
  3  6  1  0  0  0  0
  4  5  1  0  0  0  0
  4 32  1  0  0  0  0
  4 33  1  0  0  0  0
  5 34  1  0  0  0  0
  6  7  1  0  0  0  0
  6 35  1  0  0  0  0
  6 36  1  0  0  0  0
  7  8  1  0  0  0  0
  7 28  1  0  0  0  0
  7 37  1  0  0  0  0
  8 27  1  0  0  0  0
  8  9  1  0  0  0  0
  9 10  2  0  0  0  0
  9 38  1  0  0  0  0
 10 11  1  0  0  0  0
 11 27  2  0  0  0  0
 11 12  1  0  0  0  0
 12 13  1  0  0  0  0
 12 24  2  0  0  0  0
 13 23  1  0  0  0  0
 13 14  1  0  0  0  0
 14 15  1  0  0  0  0
 14 39  1  0  0  0  0
 14 40  1  0  0  0  0
 15 16  1  0  0  0  0
 15 41  1  0  0  0  0
 15 42  1  0  0  0  0
 16 22  1  0  0  0  0
 16 17  1  0  0  0  0
 16 18  1  0  0  0  0
 17 43  1  0  0  0  0
 18 19  1  0  0  0  0
 18 44  1  0  0  0  0
 18 45  1  0  0  0  0
 19 20  1  0  0  0  0
 19 46  1  0  0  0  0
 19 47  1  0  0  0  0
 20 21  1  0  0  0  0
 20 48  1  0  0  0  0
 20 49  1  0  0  0  0
 21 22  1  0  0  0  0
 21 50  1  0  0  0  0
 21 51  1  0  0  0  0
 22 23  1  0  0  0  0
 22 52  1  0  0  0  0
 23 53  1  0  0  0  0
 23 54  1  0  0  0  0
 24 25  1  0  0  0  0
 25 26  2  0  0  0  0
 25 55  1  0  0  0  0
 26 27  1  0  0  0  0
 28 56  1  0  0  0  0
 28 57  1  0  0  0  0
M  END
> <s_m_source_file>
AV-unprocessed.smi

> <i_m_source_file_index>
176

> <i_lp_mmshare_version>
43012

> <i_f3d_flags>
0

> <s_epik_input>
W09IXVtDSDJdQzEoW0NIMl1bT0hdKVtDSDJdW0NIXShbQ0gyXTEpbihbY0hdbjIpYyhjMjMpbltjSF1uYzNOKFtDSDJdW0NIMl00KVtDSDJdW0NAQEhdKFtDQF00NVtPSF0pW0NIMl1bQ0gyXVtDSDJdW0NIMl01

> <s_epik_cmdline>
J2VwaWtfcHl0aG9uJywgJy1waCcsICc3LjAnLCAnLXRuJywgJzgnLCAnLW1hJywgJzIwMCcsICctbWV0YWxfYmluZGluZycsICctaW1hZScsICc8aW5maWxlLm1hZT4nLCAnLW9tYWUnLCAnPG91dGZpbGUubWFlPic=

> <r_lp_tautomer_probability>
1

> <r_epik_Ionization_Penalty>
0.00642876

> <r_epik_Ionization_Penalty_Charging>
0

> <r_epik_Ionization_Penalty_Neutral>
0.00642876

> <r_epik_State_Penalty>
0.00467813

> <r_epik_Charging_Adjusted_Penalty>
0.00467813

> <i_epik_Tot_Q>
0

> <i_epik_Tot_abs_Q>
0

> <r_epik_Metal_State_Penalty>
-0

> <b_epik_Metal_Only>
0

> <s_lp_Force_Field>
OPLS_2005

> <r_lp_Energy>
50.7593

> <b_lp_Chiralities_Consistent>
1

> <s_lp_Variant>
AV-unprocessed.smi:176-2

> <Gold.Version>
5.8.1

> <Gold.Id.Protein>
6NUR|6NUR_protein|mol2

> <Gold.PLP.Fitness>
46.1771

> <Gold.PLP.PLP>
-42.5558

> <Gold.PLP.part.hbond>
-2.0000

> <Gold.PLP.part.metal>
0.0000

> <Gold.PLP.part.buried>
-6.1843

> <Gold.PLP.part.nonpolar>
-33.6642

> <Gold.PLP.part.repulsive>
0.0000

> <Gold.PLP.ligand.clash>
0.0000

> <Gold.PLP.ligand.torsion>
1.0177

> <Gold.PLP.Chemscore.Hbond>
1.5920

> <Gold.PLP.Chemscore.CHOScore>
0.0000

> <Gold.PLP.Chemscore.Metal>
0.0000

> <Gold.Chemscore.Hbonds>
donor molecule, donor type, donor heavy atom, donor atom, acceptor molecule, acceptor atom, score
      P1  H  6933  6945       L1    17  0.59
      P1  H  7997  8009       L1    24  1.00

> <Gold.PLP.Chemscore.Internal.Correction>
0.8806

> <Gold.Rescore>
     Score         DG    S(hbond)    S(metal)    S(lipo)     H(rot)  DE(clash)    DE(int)     intcor
     13.98     -15.09       1.60        0.00     117.62       3.71       0.34       0.77       ----

> <Gold.Chemscore.Fitness>
13.9816

> <Gold.Chemscore.DG>
-15.0853

> <Gold.Chemscore.ZeroCoef>
-5.4800

> <Gold.Chemscore.Hbond>
1.5998

> <Gold.Chemscore.Metal>
0.0000

> <Gold.Chemscore.Lipo>
117.6233

> <Gold.Chemscore.Internal_Hbond>
0.0000

> <Gold.Chemscore.DEClash>
0.3376

> <Gold.Chemscore.DEInternal>
0.7662

> <Gold.Chemscore.Rot>
3.7109

> <Gold.Chemscore.Internal.Correction>
   9.000000E+99

> <Gold.Chemscore.Hbonds>
donor molecule, donor type, donor heavy atom, donor atom, acceptor molecule, acceptor atom, score
      P1  H  6933  6945       L1    17  0.28
      P1  H  7997  8009       L1    24  0.58

> <Gold.Chemscore.Hbond.Weighted>
-5.3434

> <Gold.Chemscore.Metal.Weighted>
-0.0000

> <Gold.Chemscore.Lipo.Weighted>
-13.7619

> <Gold.Chemscore.Internal_Hbond.Weighted>
0.0000

> <Gold.Chemscore.DEClash.Weighted>
0.3376

> <Gold.Chemscore.DEInternal.Weighted>
0.7662

> <Gold.Chemscore.Rot.Weighted>
9.5000

> <Gold.Chemscore.Internal.Correction.Weighted>
   9.000000E+99

> <Gold.Protein.RotatedTorsions>
[ 6907 6896 6895 6894 ] final   28.73 input  -60.11 | X-H torsion
[ 7974 7965 7964 7962 ] final  105.59 input  175.53 | X-H torsion
[ 8008 7997 7996 7995 ] final  144.89 input   59.86 | X-H torsion
[ 10167 10162 10161 10158 ] final  130.06 input  -65.29 | X-H torsion
[ 10718 10713 10712 10709 ] final -149.37 input   66.30 | X-H torsion
[ 10763 10752 10751 10750 ] final -176.59 input  -60.55 | X-H torsion
[ 11005 11000 10999 10996 ] final  -18.41 input  -57.11 | X-H torsion

> <Gold.Protein.ActiveResidues>
 VAL166  LYS551  ARG553  GLY616  TRP617  ASP618  TYR619  PRO620  LYS621  CYS622 
 ASP623  PHE694  ASN695  SER759  ASP760  ASP761  ALA762  ILE779  LEU786  VAL792 
 PHE793  MET794  SER795  GLU796  ALA797  LYS798  CYS799  TRP800  GLU811  SER814 

> <Gold.Protein.RotatedAtoms>
  152.0212  134.9821  160.0570 H   0  0  0  0  0  0  0  0  0  0  0  0  # atno 6907 bound_to 6896
  152.1335  133.4417  159.4740 H   0  0  0  0  0  0  0  0  0  0  0  0  # atno 6908 bound_to 6896
  150.6858  134.2310  159.4477 H   0  0  0  0  0  0  0  0  0  0  0  0  # atno 6909 bound_to 6896
  145.3177  139.2522  143.3729 H   0  0  0  0  0  0  0  0  0  0  0  0  # atno 7974 bound_to 7965
  156.2897  140.2224  156.5126 H   0  0  0  0  0  0  0  0  0  0  0  0  # atno 8008 bound_to 7997
  154.7596  140.0474  157.0984 H   0  0  0  0  0  0  0  0  0  0  0  0  # atno 8009 bound_to 7997
  155.0008  140.3101  155.4871 H   0  0  0  0  0  0  0  0  0  0  0  0  # atno 8010 bound_to 7997
  139.5448  144.6763  151.4509 H   0  0  0  0  0  0  0  0  0  0  0  0  # atno 10167 bound_to 10162
  156.4323  130.8081  151.2309 H   0  0  0  0  0  0  0  0  0  0  0  0  # atno 10718 bound_to 10713
  154.5705  135.2827  155.0832 H   0  0  0  0  0  0  0  0  0  0  0  0  # atno 10763 bound_to 10752
  154.2206  135.6392  153.5147 H   0  0  0  0  0  0  0  0  0  0  0  0  # atno 10764 bound_to 10752
  153.0056  135.5513  154.6327 H   0  0  0  0  0  0  0  0  0  0  0  0  # atno 10765 bound_to 10752
  140.8265  133.8029  155.9714 H   0  0  0  0  0  0  0  0  0  0  0  0  # atno 11005 bound_to 11000
  146.3094  140.3727  142.8676 LP  0  0  0  0  0  0  0  0  0  0  0  0  # atno 17320 bound_to 7965
  144.8965  140.7589  143.5894 LP  0  0  0  0  0  0  0  0  0  0  0  0  # atno 17321 bound_to 7965
  140.6692  143.8331  150.6978 LP  0  0  0  0  0  0  0  0  0  0  0  0  # atno 17342 bound_to 10162
  140.1750  143.4162  152.1974 LP  0  0  0  0  0  0  0  0  0  0  0  0  # atno 17343 bound_to 10162
  157.7508  131.0194  150.3667 LP  0  0  0  0  0  0  0  0  0  0  0  0  # atno 17370 bound_to 10713
  156.4007  130.3915  149.6962 LP  0  0  0  0  0  0  0  0  0  0  0  0  # atno 17371 bound_to 10713
  140.9043  134.2339  157.5023 LP  0  0  0  0  0  0  0  0  0  0  0  0  # atno 17394 bound_to 11000
  139.8706  134.9721  156.4761 LP  0  0  0  0  0  0  0  0  0  0  0  0  # atno 17395 bound_to 11000

$$$$
