AV-unprocessed.smi:109|AV-procd|sdf|1056|dock9
  -GOLD-   2262018123D 1   1.00000     0.00000
 Structure written by MMmdl.
 58 61  0  0  0  0  0  0  0  0  1 V2000
  152.2722  137.4592  153.4709 O   0  0  0  0  0  0  0  0  0  0  0  0
  151.3302  138.0279  154.3546 C   0  0  0  0  0  0  0  0  0  0  0  0
  152.0576  138.7980  155.4683 C   0  0  0  0  0  0  0  0  0  0  0  0
  151.2376  139.9893  156.0117 C   0  0  1  0  0  0  0  0  0  0  0  0
  149.8859  139.5463  156.3532 N   0  0  0  0  0  0  0  0  0  0  0  0
  148.8387  139.7704  155.5288 C   0  0  0  0  0  0  0  0  0  0  0  0
  148.4962  141.0283  155.1456 N   0  0  0  0  0  0  0  0  0  0  0  0
  147.4574  141.2190  154.3265 C   0  0  0  0  0  0  0  0  0  0  0  0
  146.6433  140.3100  153.7847 N   0  0  0  0  0  0  0  0  0  0  0  0
  146.9855  139.0454  154.1669 C   0  0  0  0  0  0  0  0  0  0  0  0
  148.0606  138.6949  155.0293 C   0  0  0  0  0  0  0  0  0  0  0  0
  148.1014  137.3166  155.1939 N   0  0  0  0  0  0  0  0  0  0  0  0
  147.1071  136.8830  154.4661 C   0  0  0  0  0  0  0  0  0  0  0  0
  146.3863  137.8577  153.8081 N   0  0  0  0  0  0  0  0  0  0  0  0
  145.2024  137.7135  152.9008 C   0  0  2  0  0  0  0  0  0  0  0  0
  144.3297  136.7953  153.4912 O   0  0  0  0  0  0  0  0  0  0  0  0
  144.1660  135.6435  152.6654 C   0  0  2  0  0  0  0  0  0  0  0  0
  143.9690  134.3786  153.5197 C   0  0  0  0  0  0  0  0  0  0  0  0
  143.9761  133.2279  152.7020 O   0  0  0  0  0  0  0  0  0  0  0  0
  145.3518  135.6527  151.6877 C   0  0  2  0  0  0  0  0  0  0  0  0
  146.4753  134.9636  152.2100 O   0  0  0  0  0  0  0  0  0  0  0  0
  145.5968  137.1470  151.5236 C   0  0  2  0  0  0  0  0  0  0  0  0
  146.9067  137.4597  151.0818 O   0  0  0  0  0  0  0  0  0  0  0  0
  151.8983  140.7159  157.2159 C   0  0  0  0  0  0  0  0  0  0  0  0
  152.2093  139.7658  158.3925 C   0  0  0  0  0  0  0  0  0  0  0  0
  152.9548  140.4961  159.5216 C   0  0  0  0  0  0  0  0  0  0  0  0
  152.1658  141.7217  160.0079 C   0  0  0  0  0  0  0  0  0  0  0  0
  151.8480  142.6740  158.8445 C   0  0  0  0  0  0  0  0  0  0  0  0
  151.1037  141.9447  157.7143 C   0  0  0  0  0  0  0  0  0  0  0  0
  144.7632  138.7108  152.8574 H   0  0  0  0  0  0  0  0  0  0  0  0
  143.2560  135.8214  152.0894 H   0  0  0  0  0  0  0  0  0  0  0  0
  145.0880  135.1853  150.7383 H   0  0  0  0  0  0  0  0  0  0  0  0
  144.8831  137.5419  150.7994 H   0  0  0  0  0  0  0  0  0  0  0  0
  151.8584  137.3345  152.6304 H   0  0  0  0  0  0  0  0  0  0  0  0
  150.6734  138.6927  153.7927 H   0  0  0  0  0  0  0  0  0  0  0  0
  150.7120  137.2310  154.7688 H   0  0  0  0  0  0  0  0  0  0  0  0
  152.3077  138.1125  156.2790 H   0  0  0  0  0  0  0  0  0  0  0  0
  153.0059  139.1526  155.0666 H   0  0  0  0  0  0  0  0  0  0  0  0
  151.1652  140.7087  155.1953 H   0  0  0  0  0  0  0  0  0  0  0  0
  149.7723  139.1774  157.2864 H   0  0  0  0  0  0  0  0  0  0  0  0
  147.2494  142.2464  154.0669 H   0  0  0  0  0  0  0  0  0  0  0  0
  146.8748  135.8314  154.3907 H   0  0  0  0  0  0  0  0  0  0  0  0
  144.7345  134.2883  154.2905 H   0  0  0  0  0  0  0  0  0  0  0  0
  143.0087  134.4256  154.0337 H   0  0  0  0  0  0  0  0  0  0  0  0
  143.7590  132.4791  153.2363 H   0  0  0  0  0  0  0  0  0  0  0  0
  147.2346  135.5193  152.1211 H   0  0  0  0  0  0  0  0  0  0  0  0
  147.5135  136.8705  151.5024 H   0  0  0  0  0  0  0  0  0  0  0  0
  152.8654  141.0856  156.8717 H   0  0  0  0  0  0  0  0  0  0  0  0
  151.2908  139.3408  158.7960 H   0  0  0  0  0  0  0  0  0  0  0  0
  152.8117  138.9262  158.0437 H   0  0  0  0  0  0  0  0  0  0  0  0
  153.1301  139.8131  160.3532 H   0  0  0  0  0  0  0  0  0  0  0  0
  153.9375  140.8104  159.1677 H   0  0  0  0  0  0  0  0  0  0  0  0
  151.2368  141.3954  160.4771 H   0  0  0  0  0  0  0  0  0  0  0  0
  152.7322  142.2485  160.7764 H   0  0  0  0  0  0  0  0  0  0  0  0
  151.2487  143.5114  159.2031 H   0  0  0  0  0  0  0  0  0  0  0  0
  152.7740  143.1003  158.4567 H   0  0  0  0  0  0  0  0  0  0  0  0
  150.9264  142.6393  156.8926 H   0  0  0  0  0  0  0  0  0  0  0  0
  150.1229  141.6377  158.0779 H   0  0  0  0  0  0  0  0  0  0  0  0
  1  2  1  0  0  0  0
  1 34  1  0  0  0  0
  2  3  1  0  0  0  0
  2 35  1  0  0  0  0
  2 36  1  0  0  0  0
  3  4  1  0  0  0  0
  3 37  1  0  0  0  0
  3 38  1  0  0  0  0
  4  5  1  0  0  0  0
  4 24  1  0  0  0  0
  4 39  1  0  0  0  0
  5  6  1  0  0  0  0
  5 40  1  0  0  0  0
  6 11  1  0  0  0  0
  6  7  2  0  0  0  0
  7  8  1  0  0  0  0
  8  9  2  0  0  0  0
  8 41  1  0  0  0  0
  9 10  1  0  0  0  0
 10 14  1  0  0  0  0
 10 11  2  0  0  0  0
 11 12  1  0  0  0  0
 12 13  2  0  0  0  0
 13 14  1  0  0  0  0
 13 42  1  0  0  0  0
 14 15  1  0  0  0  0
 15 30  1  0  0  0  0
 15 22  1  0  0  0  0
 15 16  1  0  0  0  0
 16 17  1  0  0  0  0
 17 31  1  0  0  0  0
 17 18  1  0  0  0  0
 17 20  1  0  0  0  0
 18 19  1  0  0  0  0
 18 43  1  0  0  0  0
 18 44  1  0  0  0  0
 19 45  1  0  0  0  0
 20 32  1  0  0  0  0
 20 21  1  0  0  0  0
 20 22  1  0  0  0  0
 21 46  1  0  0  0  0
 22 33  1  0  0  0  0
 22 23  1  0  0  0  0
 23 47  1  0  0  0  0
 24 29  1  0  0  0  0
 24 25  1  0  0  0  0
 24 48  1  0  0  0  0
 25 26  1  0  0  0  0
 25 49  1  0  0  0  0
 25 50  1  0  0  0  0
 26 27  1  0  0  0  0
 26 51  1  0  0  0  0
 26 52  1  0  0  0  0
 27 28  1  0  0  0  0
 27 53  1  0  0  0  0
 27 54  1  0  0  0  0
 28 29  1  0  0  0  0
 28 55  1  0  0  0  0
 28 56  1  0  0  0  0
 29 57  1  0  0  0  0
 29 58  1  0  0  0  0
M  END
> <s_m_source_file>
AV-unprocessed.smi

> <i_m_source_file_index>
109

> <i_lp_mmshare_version>
43012

> <i_f3d_flags>
0

> <s_epik_input>
W0NIMl0xW0NIMl1bQ0gyXVtDSDJdW0NIMl1bQ0hdMVtDQEhdKFtDSDJdW0NIMl1bT0hdKVtOSF1jKG5bY0hdbjIpYyhjMjMpbltjSF1uM1tDQEBIXTRPW0NASF0oW0NIMl1bT0hdKVtDQEBIXShbT0hdKVtDQEhdNFtPSF0=

> <s_epik_cmdline>
J2VwaWtfcHl0aG9uJywgJy1waCcsICc3LjAnLCAnLXRuJywgJzgnLCAnLW1hJywgJzIwMCcsICctbWV0YWxfYmluZGluZycsICctaW1hZScsICc8aW5maWxlLm1hZT4nLCAnLW9tYWUnLCAnPG91dGZpbGUubWFlPic=

> <r_lp_tautomer_probability>
1

> <r_epik_Ionization_Penalty>
0.000793976

> <r_epik_Ionization_Penalty_Charging>
0

> <r_epik_Ionization_Penalty_Neutral>
0.000793976

> <r_epik_State_Penalty>
-0

> <r_epik_Charging_Adjusted_Penalty>
0

> <i_epik_Tot_Q>
0

> <i_epik_Tot_abs_Q>
0

> <r_epik_Metal_State_Penalty>
-0

> <b_epik_Metal_Only>
0

> <s_epik_Chemistry_Notes>
This compound contains an acetal/aminal-like group ( X-CH(R)-Y where X, Y are N, S, or O) that may be acid/base labile, releasing an aldehyde.

> <s_lp_Force_Field>
OPLS_2005

> <r_lp_Energy>
58.3807

> <b_lp_Chiralities_Consistent>
1

> <s_lp_Variant>
AV-unprocessed.smi:109-26

> <Gold.Version>
5.8.1

> <Gold.Id.Protein>
6NUR|6NUR_protein|mol2

> <Gold.PLP.Fitness>
55.5771

> <Gold.PLP.PLP>
-39.9640

> <Gold.PLP.part.hbond>
-5.5814

> <Gold.PLP.part.metal>
0.0000

> <Gold.PLP.part.buried>
-2.3994

> <Gold.PLP.part.nonpolar>
-34.0750

> <Gold.PLP.part.repulsive>
0.5645

> <Gold.PLP.ligand.clash>
0.0000

> <Gold.PLP.ligand.torsion>
1.3714

> <Gold.PLP.Chemscore.Hbond>
5.8680

> <Gold.PLP.Chemscore.CHOScore>
0.0000

> <Gold.PLP.Chemscore.Metal>
0.0000

> <Gold.Chemscore.Hbonds>
donor molecule, donor type, donor heavy atom, donor atom, acceptor molecule, acceptor atom, score
      L1  H     1    34       P1  7949  0.85
      L1  H    19    45       P1 10957  0.82
      L1  H    21    46       P1  7948  1.00
      L1  H    23    47       P1  7948  1.00
      P1  H  7954  7966       L1    23  0.45
      P1  H 10752 10763       L1     1  0.94

> <Gold.PLP.Chemscore.Internal.Correction>
0.7520

> <Gold.Rescore>
     Score         DG    S(hbond)    S(metal)    S(lipo)     H(rot)  DE(clash)    DE(int)     intcor
     13.12     -17.70       4.66        0.00      90.98       5.47       1.97       2.61       ----

> <Gold.Chemscore.Fitness>
13.1173

> <Gold.Chemscore.DG>
-17.6991

> <Gold.Chemscore.ZeroCoef>
-5.4800

> <Gold.Chemscore.Hbond>
4.6610

> <Gold.Chemscore.Metal>
0.0000

> <Gold.Chemscore.Lipo>
90.9824

> <Gold.Chemscore.Internal_Hbond>
0.0000

> <Gold.Chemscore.DEClash>
1.9688

> <Gold.Chemscore.DEInternal>
2.6131

> <Gold.Chemscore.Rot>
5.4662

> <Gold.Chemscore.Internal.Correction>
   9.000000E+99

> <Gold.Chemscore.Hbonds>
donor molecule, donor type, donor heavy atom, donor atom, acceptor molecule, acceptor atom, score
      L1  H     1    34       P1  7949  0.85
      L1  H    19    45       P1 10957  0.13
      L1  H    21    46       P1  7948  1.00
      L1  H    23    47       P1  7948  0.95
      P1  H  7954  7966       L1    23  0.02
      P1  H 10752 10763       L1     1  0.51

> <Gold.Chemscore.Hbond.Weighted>
-15.5677

> <Gold.Chemscore.Metal.Weighted>
-0.0000

> <Gold.Chemscore.Lipo.Weighted>
-10.6449

> <Gold.Chemscore.Internal_Hbond.Weighted>
0.0000

> <Gold.Chemscore.DEClash.Weighted>
1.9688

> <Gold.Chemscore.DEInternal.Weighted>
2.6131

> <Gold.Chemscore.Rot.Weighted>
13.9935

> <Gold.Chemscore.Internal.Correction.Weighted>
   9.000000E+99

> <Gold.Protein.RotatedTorsions>
[ 6907 6896 6895 6894 ] final -162.86 input  -60.11 | X-H torsion
[ 7974 7965 7964 7962 ] final  -38.12 input  175.53 | X-H torsion
[ 8008 7997 7996 7995 ] final -151.16 input   59.86 | X-H torsion
[ 10167 10162 10161 10158 ] final  169.23 input  -65.29 | X-H torsion
[ 10718 10713 10712 10709 ] final -142.67 input   66.30 | X-H torsion
[ 10763 10752 10751 10750 ] final   23.69 input  -60.55 | X-H torsion
[ 11005 11000 10999 10996 ] final -160.64 input  -57.11 | X-H torsion

> <Gold.Protein.ActiveResidues>
 VAL166  LYS551  ARG553  GLY616  TRP617  ASP618  TYR619  PRO620  LYS621  CYS622 
 ASP623  PHE694  ASN695  SER759  ASP760  ASP761  ALA762  ILE779  LEU786  VAL792 
 PHE793  MET794  SER795  GLU796  ALA797  LYS798  CYS799  TRP800  GLU811  SER814 

> <Gold.Protein.RotatedAtoms>
  151.3869  133.3802  159.2716 H   0  0  0  0  0  0  0  0  0  0  0  0  # atno 6907 bound_to 6896
  150.9535  134.8933  159.7697 H   0  0  0  0  0  0  0  0  0  0  0  0  # atno 6908 bound_to 6896
  152.5121  134.3825  159.9408 H   0  0  0  0  0  0  0  0  0  0  0  0  # atno 6909 bound_to 6896
  146.0515  140.6474  142.9040 H   0  0  0  0  0  0  0  0  0  0  0  0  # atno 7974 bound_to 7965
  155.6349  140.0695  157.2637 H   0  0  0  0  0  0  0  0  0  0  0  0  # atno 8008 bound_to 7997
  154.4197  140.1760  156.1561 H   0  0  0  0  0  0  0  0  0  0  0  0  # atno 8009 bound_to 7997
  155.9902  140.3346  155.6749 H   0  0  0  0  0  0  0  0  0  0  0  0  # atno 8010 bound_to 7997
  139.4987  144.3728  151.9706 H   0  0  0  0  0  0  0  0  0  0  0  0  # atno 10167 bound_to 10162
  156.3487  130.7676  151.1825 H   0  0  0  0  0  0  0  0  0  0  0  0  # atno 10718 bound_to 10713
  153.0819  135.6621  154.0027 H   0  0  0  0  0  0  0  0  0  0  0  0  # atno 10763 bound_to 10752
  153.9646  135.2970  155.3433 H   0  0  0  0  0  0  0  0  0  0  0  0  # atno 10764 bound_to 10752
  154.7221  135.5160  153.8899 H   0  0  0  0  0  0  0  0  0  0  0  0  # atno 10765 bound_to 10752
  140.6293  134.4668  157.5228 H   0  0  0  0  0  0  0  0  0  0  0  0  # atno 11005 bound_to 11000
  144.7125  140.4091  143.7069 LP  0  0  0  0  0  0  0  0  0  0  0  0  # atno 17320 bound_to 7965
  145.6716  139.1600  143.2751 LP  0  0  0  0  0  0  0  0  0  0  0  0  # atno 17321 bound_to 7965
  140.3165  144.3478  150.6020 LP  0  0  0  0  0  0  0  0  0  0  0  0  # atno 17342 bound_to 10162
  140.5757  143.2176  151.7519 LP  0  0  0  0  0  0  0  0  0  0  0  0  # atno 17343 bound_to 10162
  157.7458  131.0433  150.4740 LP  0  0  0  0  0  0  0  0  0  0  0  0  # atno 17370 bound_to 10713
  156.4932  130.4100  149.6395 LP  0  0  0  0  0  0  0  0  0  0  0  0  # atno 17371 bound_to 10713
  139.9122  134.8320  156.1488 LP  0  0  0  0  0  0  0  0  0  0  0  0  # atno 17394 bound_to 11000
  141.0687  133.6807  156.2096 LP  0  0  0  0  0  0  0  0  0  0  0  0  # atno 17395 bound_to 11000

$$$$
