AV-unprocessed.smi:2390|AV-procd|sdf|9478|dock8
  -GOLD-   2272013103D 1   1.00000     0.00000
 Structure written by MMmdl.
 46 47  0  0  0  0  0  0  0  0  2 V2000
  153.3818  140.6996  159.6792 C   0  0  0  0  0  0  0  0  0  0  0  0
  152.7650  141.9519  159.0925 C   0  0  0  0  0  0  0  0  0  0  0  0
  153.3805  143.2084  159.2564 C   0  0  0  0  0  0  0  0  0  0  0  0
  152.7583  144.3315  158.6827 C   0  0  0  0  0  0  0  0  0  0  0  0
  151.5559  144.1532  157.9719 C   0  0  0  0  0  0  0  0  0  0  0  0
  151.0033  142.8581  157.8551 C   0  0  0  0  0  0  0  0  0  0  0  0
  149.7956  142.7832  157.1117 N   0  0  0  0  0  0  0  0  0  0  0  0
  149.0556  141.6941  156.8409 C   0  0  0  0  0  0  0  0  0  0  0  0
  149.2763  140.5581  157.2625 O   0  0  0  0  0  0  0  0  0  0  0  0
  148.0204  141.9951  156.0425 N   0  0  0  0  0  0  0  0  0  0  0  0
  147.0163  141.0452  155.5636 C   0  0  1  0  0  0  0  0  0  0  0  0
  145.6321  141.5010  156.0584 C   0  0  0  0  0  0  0  0  0  0  0  0
  147.0837  140.8480  154.0139 C   0  0  2  0  0  0  0  0  0  0  0  0
  146.7291  142.1580  153.2647 C   0  0  0  0  0  0  0  0  0  0  0  0
  146.2657  139.6775  153.5474 N   0  3  0  0  0  0  0  0  0  0  0  0
  146.6768  139.1359  152.2211 C   0  0  0  0  0  0  0  0  0  0  0  0
  145.7966  137.9478  151.7975 C   0  0  0  0  0  0  0  0  0  0  0  0
  145.8425  136.9359  152.7904 O   0  0  0  0  0  0  0  0  0  0  0  0
  145.3292  137.4065  154.0261 C   0  0  0  0  0  0  0  0  0  0  0  0
  146.1969  138.5675  154.5392 C   0  0  0  0  0  0  0  0  0  0  0  0
  151.6109  141.7808  158.4121 N   0  0  0  0  0  0  0  0  0  0  0  0
  154.2225  140.9408  160.3302 H   0  0  0  0  0  0  0  0  0  0  0  0
  153.7427  140.0480  158.8828 H   0  0  0  0  0  0  0  0  0  0  0  0
  152.6453  140.1503  160.2665 H   0  0  0  0  0  0  0  0  0  0  0  0
  154.3047  143.3120  159.8055 H   0  0  0  0  0  0  0  0  0  0  0  0
  153.1958  145.3137  158.7842 H   0  0  0  0  0  0  0  0  0  0  0  0
  151.0663  145.0056  157.5235 H   0  0  0  0  0  0  0  0  0  0  0  0
  149.4679  143.6578  156.7295 H   0  0  0  0  0  0  0  0  0  0  0  0
  147.9147  142.9547  155.7462 H   0  0  0  0  0  0  0  0  0  0  0  0
  147.2488  140.1078  156.0673 H   0  0  0  0  0  0  0  0  0  0  0  0
  144.8539  140.7888  155.7839 H   0  0  0  0  0  0  0  0  0  0  0  0
  145.3553  142.4720  155.6473 H   0  0  0  0  0  0  0  0  0  0  0  0
  145.6173  141.5900  157.1454 H   0  0  0  0  0  0  0  0  0  0  0  0
  148.1178  140.6166  153.7543 H   0  0  0  0  0  0  0  0  0  0  0  0
  147.2599  143.0203  153.6663 H   0  0  0  0  0  0  0  0  0  0  0  0
  145.6623  142.3763  153.3195 H   0  0  0  0  0  0  0  0  0  0  0  0
  147.0108  142.1130  152.2127 H   0  0  0  0  0  0  0  0  0  0  0  0
  146.5867  139.8938  151.4445 H   0  0  0  0  0  0  0  0  0  0  0  0
  147.7237  138.8306  152.2605 H   0  0  0  0  0  0  0  0  0  0  0  0
  144.7665  138.2661  151.6291 H   0  0  0  0  0  0  0  0  0  0  0  0
  146.1568  137.5322  150.8564 H   0  0  0  0  0  0  0  0  0  0  0  0
  144.2893  137.7172  153.9112 H   0  0  0  0  0  0  0  0  0  0  0  0
  145.3370  136.5868  154.7447 H   0  0  0  0  0  0  0  0  0  0  0  0
  147.2043  138.2104  154.7592 H   0  0  0  0  0  0  0  0  0  0  0  0
  145.7618  138.9022  155.4782 H   0  0  0  0  0  0  0  0  0  0  0  0
  145.3221  140.0186  153.4311 H   0  0  0  0  0  0  0  0  0  0  0  0
  1  2  1  0  0  0  0
  1 22  1  0  0  0  0
  1 23  1  0  0  0  0
  1 24  1  0  0  0  0
  2 21  1  0  0  0  0
  2  3  2  0  0  0  0
  3  4  1  0  0  0  0
  3 25  1  0  0  0  0
  4  5  2  0  0  0  0
  4 26  1  0  0  0  0
  5  6  1  0  0  0  0
  5 27  1  0  0  0  0
  6  7  1  0  0  0  0
  6 21  2  0  0  0  0
  7  8  1  0  0  0  0
  7 28  1  0  0  0  0
  8  9  2  0  0  0  0
  8 10  1  0  0  0  0
 10 11  1  0  0  0  0
 10 29  1  0  0  0  0
 11 12  1  0  0  0  0
 11 13  1  0  0  0  0
 11 30  1  0  0  0  0
 12 31  1  0  0  0  0
 12 32  1  0  0  0  0
 12 33  1  0  0  0  0
 13 14  1  0  0  0  0
 13 15  1  0  0  0  0
 13 34  1  0  0  0  0
 14 35  1  0  0  0  0
 14 36  1  0  0  0  0
 14 37  1  0  0  0  0
 15 20  1  0  0  0  0
 15 16  1  0  0  0  0
 15 46  1  0  0  0  0
 16 17  1  0  0  0  0
 16 38  1  0  0  0  0
 16 39  1  0  0  0  0
 17 18  1  0  0  0  0
 17 40  1  0  0  0  0
 17 41  1  0  0  0  0
 18 19  1  0  0  0  0
 19 20  1  0  0  0  0
 19 42  1  0  0  0  0
 19 43  1  0  0  0  0
 20 44  1  0  0  0  0
 20 45  1  0  0  0  0
M  CHG  1  15   1
M  END
> <s_m_source_file>
AV-unprocessed.smi

> <i_m_source_file_index>
2390

> <i_lp_mmshare_version>
43012

> <i_f3d_flags>
0

> <s_epik_input>
W0NIM11jMVtjSF1bY0hdW2NIXWMobjEpW05IXUMoPU8pW05IXVtDQEhdKFtDSDNdKVtDQEhdKFtDSDNdKU4yW0NIMl1bQ0gyXU9bQ0gyXVtDSDJdMg==

> <s_epik_cmdline>
J2VwaWtfcHl0aG9uJywgJy1waCcsICc3LjAnLCAnLXRuJywgJzgnLCAnLW1hJywgJzIwMCcsICctbWV0YWxfYmluZGluZycsICctaW1hZScsICc8aW5maWxlLm1hZT4nLCAnLW9tYWUnLCAnPG91dGZpbGUubWFlPic=

> <r_epik_Ionization_Penalty>
0.60259

> <r_epik_Ionization_Penalty_Charging>
0.602531

> <r_epik_Ionization_Penalty_Neutral>
5.9516e-05

> <r_epik_State_Penalty>
0.617039

> <r_epik_Charging_Adjusted_Penalty>
1.21957

> <i_epik_Tot_Q>
1

> <i_epik_Tot_abs_Q>
1

> <r_epik_Metal_State_Penalty>
0.617047

> <b_epik_Metal_Only>
0

> <s_lp_Force_Field>
OPLS_2005

> <r_lp_Energy>
24.4942

> <b_lp_Chiralities_Consistent>
1

> <s_lp_Variant>
AV-unprocessed.smi:2390-6

> <Gold.Version>
5.8.1

> <Gold.Id.Protein>
6NUR|6NUR_protein|mol2

> <Gold.PLP.Fitness>
46.5614

> <Gold.PLP.PLP>
-35.8429

> <Gold.PLP.part.hbond>
-2.9722

> <Gold.PLP.part.metal>
0.0000

> <Gold.PLP.part.buried>
-3.6469

> <Gold.PLP.part.nonpolar>
-30.2729

> <Gold.PLP.part.repulsive>
0.2486

> <Gold.PLP.ligand.clash>
0.0000

> <Gold.PLP.ligand.torsion>
0.5168

> <Gold.PLP.Chemscore.Hbond>
3.8800

> <Gold.PLP.Chemscore.CHOScore>
0.0000

> <Gold.PLP.Chemscore.Metal>
0.0000

> <Gold.Chemscore.Hbonds>
donor molecule, donor type, donor heavy atom, donor atom, acceptor molecule, acceptor atom, score
      L1  H     7    28       P1  8028  1.00
      L1  H    10    29       P1  8028  0.88
      L1  H    15    46       P1 10175  2.00

> <Gold.PLP.Chemscore.Internal.Correction>
0.1121

> <Gold.Rescore>
     Score         DG    S(hbond)    S(metal)    S(lipo)     H(rot)  DE(clash)    DE(int)     intcor
     18.28     -23.15       2.81        0.00     103.26       1.48       3.42       1.45       ----

> <Gold.Chemscore.Fitness>
18.2816

> <Gold.Chemscore.DG>
-23.1524

> <Gold.Chemscore.ZeroCoef>
-5.4800

> <Gold.Chemscore.Hbond>
2.8117

> <Gold.Chemscore.Metal>
0.0000

> <Gold.Chemscore.Lipo>
103.2580

> <Gold.Chemscore.Internal_Hbond>
0.0000

> <Gold.Chemscore.DEClash>
3.4243

> <Gold.Chemscore.DEInternal>
1.4465

> <Gold.Chemscore.Rot>
1.4844

> <Gold.Chemscore.Internal.Correction>
   9.000000E+99

> <Gold.Chemscore.Hbonds>
donor molecule, donor type, donor heavy atom, donor atom, acceptor molecule, acceptor atom, score
      L1  H     7    28       P1  8028  0.96
      L1  H    10    29       P1  8028  0.55
      L1  H    15    46       P1 10175  0.98

> <Gold.Chemscore.Hbond.Weighted>
-9.3912

> <Gold.Chemscore.Metal.Weighted>
-0.0000

> <Gold.Chemscore.Lipo.Weighted>
-12.0812

> <Gold.Chemscore.Internal_Hbond.Weighted>
0.0000

> <Gold.Chemscore.DEClash.Weighted>
3.4243

> <Gold.Chemscore.DEInternal.Weighted>
1.4465

> <Gold.Chemscore.Rot.Weighted>
3.8000

> <Gold.Chemscore.Internal.Correction.Weighted>
   9.000000E+99

> <Gold.Protein.RotatedTorsions>
[ 6907 6896 6895 6894 ] final  121.61 input  -60.11 | X-H torsion
[ 7974 7965 7964 7962 ] final  -30.75 input  175.53 | X-H torsion
[ 8008 7997 7996 7995 ] final   -5.92 input   59.86 | X-H torsion
[ 10167 10162 10161 10158 ] final  -87.56 input  -65.29 | X-H torsion
[ 10718 10713 10712 10709 ] final  110.49 input   66.30 | X-H torsion
[ 10763 10752 10751 10750 ] final -125.13 input  -60.55 | X-H torsion
[ 11005 11000 10999 10996 ] final -138.87 input  -57.11 | X-H torsion

> <Gold.Protein.ActiveResidues>
 VAL166  LYS551  ARG553  GLY616  TRP617  ASP618  TYR619  PRO620  LYS621  CYS622 
 ASP623  PHE694  ASN695  SER759  ASP760  ASP761  ALA762  ILE779  LEU786  VAL792 
 PHE793  MET794  SER795  GLU796  ALA797  LYS798  CYS799  TRP800  GLU811  SER814 

> <Gold.Protein.RotatedAtoms>
  152.4308  133.7275  159.6568 H   0  0  0  0  0  0  0  0  0  0  0  0  # atno 6907 bound_to 6896
  150.8187  133.8280  159.3154 H   0  0  0  0  0  0  0  0  0  0  0  0  # atno 6908 bound_to 6896
  151.5968  135.1052  160.0103 H   0  0  0  0  0  0  0  0  0  0  0  0  # atno 6909 bound_to 6896
  146.1119  140.5580  142.8774 H   0  0  0  0  0  0  0  0  0  0  0  0  # atno 7974 bound_to 7965
  154.5990  140.2446  155.7818 H   0  0  0  0  0  0  0  0  0  0  0  0  # atno 8008 bound_to 7997
  156.2298  140.2970  156.0112 H   0  0  0  0  0  0  0  0  0  0  0  0  # atno 8009 bound_to 7997
  155.2244  140.0401  157.2943 H   0  0  0  0  0  0  0  0  0  0  0  0  # atno 8010 bound_to 7997
  140.3832  143.2739  151.9357 H   0  0  0  0  0  0  0  0  0  0  0  0  # atno 10167 bound_to 10162
  157.6492  131.0933  150.6609 H   0  0  0  0  0  0  0  0  0  0  0  0  # atno 10718 bound_to 10713
  154.8732  135.4040  154.3218 H   0  0  0  0  0  0  0  0  0  0  0  0  # atno 10763 bound_to 10752
  153.4045  135.7019  153.6408 H   0  0  0  0  0  0  0  0  0  0  0  0  # atno 10764 bound_to 10752
  153.5136  135.3702  155.2569 H   0  0  0  0  0  0  0  0  0  0  0  0  # atno 10765 bound_to 10752
  140.8574  134.2211  157.4726 H   0  0  0  0  0  0  0  0  0  0  0  0  # atno 11005 bound_to 11000
  144.7519  140.5212  143.6796 LP  0  0  0  0  0  0  0  0  0  0  0  0  # atno 17320 bound_to 7965
  145.5646  139.1481  143.3322 LP  0  0  0  0  0  0  0  0  0  0  0  0  # atno 17321 bound_to 7965
  139.4794  144.5798  151.7951 LP  0  0  0  0  0  0  0  0  0  0  0  0  # atno 17342 bound_to 10162
  140.4916  144.1302  150.5951 LP  0  0  0  0  0  0  0  0  0  0  0  0  # atno 17343 bound_to 10162
  156.6922  130.4598  149.5596 LP  0  0  0  0  0  0  0  0  0  0  0  0  # atno 17370 bound_to 10713
  156.1853  130.6525  151.0999 LP  0  0  0  0  0  0  0  0  0  0  0  0  # atno 17371 bound_to 10713
  139.8706  134.9713  156.4732 LP  0  0  0  0  0  0  0  0  0  0  0  0  # atno 17394 bound_to 11000
  140.8721  133.7980  155.9376 LP  0  0  0  0  0  0  0  0  0  0  0  0  # atno 17395 bound_to 11000

$$$$
