AV-unprocessed.smi:3058|AV-procd|sdf|11671|dock2
  -GOLD-   2272017 73D 1   1.00000     0.00000
 Structure written by MMmdl.
 38 40  0  0  0  0  0  0  0  0  1 V2000
  150.8459  140.4866  155.1937 O   0  0  0  0  0  0  0  0  0  0  0  0
  150.0872  141.4441  155.3518 C   0  0  0  0  0  0  0  0  0  0  0  0
  150.2583  142.3590  156.3182 N   0  0  0  0  0  0  0  0  0  0  0  0
  151.3424  142.3581  157.2928 C   0  0  0  0  0  0  0  0  0  0  0  0
  151.2819  143.5933  158.2058 C   0  0  0  0  0  0  0  0  0  0  0  0
  151.8917  143.3268  159.5679 C   0  0  0  0  0  0  0  0  0  0  0  0
  152.6903  142.1866  159.7932 C   0  0  0  0  0  0  0  0  0  0  0  0
  153.2372  141.9847  161.0752 C   0  0  0  0  0  0  0  0  0  0  0  0
  152.9619  142.9348  162.0791 C   0  0  0  0  0  0  0  0  0  0  0  0
  152.1997  144.0306  161.8742 N   0  0  0  0  0  0  0  0  0  0  0  0
  151.6787  144.2166  160.6423 C   0  0  0  0  0  0  0  0  0  0  0  0
  148.8531  141.6357  154.4522 C   0  0  2  0  0  0  0  0  0  0  0  0
  147.5040  141.7072  155.2100 C   0  0  0  0  0  0  0  0  0  0  0  0
  146.6471  140.6472  154.4921 C   0  0  2  0  0  0  0  0  0  0  0  0
  147.1337  139.2399  154.8851 C   0  0  0  0  0  0  0  0  0  0  0  0
  148.4561  139.1091  154.1076 C   0  0  0  0  0  0  0  0  0  0  0  0
  148.5938  140.4929  153.4347 C   0  0  1  0  0  0  0  0  0  0  0  0
  147.1411  140.7650  153.0545 C   0  0  0  0  0  0  0  0  0  0  0  0
  149.5856  143.1093  156.3846 H   0  0  0  0  0  0  0  0  0  0  0  0
  151.3147  141.4411  157.8843 H   0  0  0  0  0  0  0  0  0  0  0  0
  152.2854  142.3469  156.7456 H   0  0  0  0  0  0  0  0  0  0  0  0
  151.8079  144.4282  157.7412 H   0  0  0  0  0  0  0  0  0  0  0  0
  150.2486  143.9170  158.3385 H   0  0  0  0  0  0  0  0  0  0  0  0
  152.8823  141.4797  158.9991 H   0  0  0  0  0  0  0  0  0  0  0  0
  153.8535  141.1230  161.2844 H   0  0  0  0  0  0  0  0  0  0  0  0
  153.3656  142.8112  163.0731 H   0  0  0  0  0  0  0  0  0  0  0  0
  151.0755  145.1030  160.5100 H   0  0  0  0  0  0  0  0  0  0  0  0
  148.9801  142.5678  153.8977 H   0  0  0  0  0  0  0  0  0  0  0  0
  147.5771  141.5114  156.2806 H   0  0  0  0  0  0  0  0  0  0  0  0
  147.0609  142.6972  155.0945 H   0  0  0  0  0  0  0  0  0  0  0  0
  145.5745  140.7910  154.6249 H   0  0  0  0  0  0  0  0  0  0  0  0
  147.2734  139.1386  155.9619 H   0  0  0  0  0  0  0  0  0  0  0  0
  146.4237  138.4762  154.5655 H   0  0  0  0  0  0  0  0  0  0  0  0
  149.2990  138.8376  154.7416 H   0  0  0  0  0  0  0  0  0  0  0  0
  148.3676  138.3303  153.3489 H   0  0  0  0  0  0  0  0  0  0  0  0
  149.2839  140.4997  152.5904 H   0  0  0  0  0  0  0  0  0  0  0  0
  146.7169  140.0119  152.3878 H   0  0  0  0  0  0  0  0  0  0  0  0
  146.9819  141.7541  152.6214 H   0  0  0  0  0  0  0  0  0  0  0  0
  1  2  2  0  0  0  0
  2  3  1  0  0  0  0
  2 12  1  0  0  0  0
  3  4  1  0  0  0  0
  3 19  1  0  0  0  0
  4  5  1  0  0  0  0
  4 20  1  0  0  0  0
  4 21  1  0  0  0  0
  5  6  1  0  0  0  0
  5 22  1  0  0  0  0
  5 23  1  0  0  0  0
  6 11  1  0  0  0  0
  6  7  2  0  0  0  0
  7  8  1  0  0  0  0
  7 24  1  0  0  0  0
  8  9  2  0  0  0  0
  8 25  1  0  0  0  0
  9 10  1  0  0  0  0
  9 26  1  0  0  0  0
 10 11  2  0  0  0  0
 11 27  1  0  0  0  0
 12 17  1  0  0  0  0
 12 13  1  0  0  0  0
 12 28  1  0  0  0  0
 13 14  1  0  0  0  0
 13 29  1  0  0  0  0
 13 30  1  0  0  0  0
 14 18  1  0  0  0  0
 14 15  1  0  0  0  0
 14 31  1  0  0  0  0
 15 16  1  0  0  0  0
 15 32  1  0  0  0  0
 15 33  1  0  0  0  0
 16 17  1  0  0  0  0
 16 34  1  0  0  0  0
 16 35  1  0  0  0  0
 17 18  1  0  0  0  0
 17 36  1  0  0  0  0
 18 37  1  0  0  0  0
 18 38  1  0  0  0  0
M  END
> <s_m_source_file>
AV-unprocessed.smi

> <i_m_source_file_index>
3058

> <i_lp_mmshare_version>
43012

> <i_f3d_flags>
0

> <s_epik_input>
W0NIMl0xW0NIMl1bQ0BIXShbQ0gyXTIpW0NAQEhdKFtDSDJdW0NAQEhdMTIpQyg9TylbTkhdW0NIMl1bQ0gyXWMzW2NIXVtjSF1bY0hdbltjSF0z

> <s_epik_cmdline>
J2VwaWtfcHl0aG9uJywgJy1waCcsICc3LjAnLCAnLXRuJywgJzgnLCAnLW1hJywgJzIwMCcsICctbWV0YWxfYmluZGluZycsICctaW1hZScsICc8aW5maWxlLm1hZT4nLCAnLW9tYWUnLCAnPG91dGZpbGUubWFlPic=

> <r_epik_Ionization_Penalty>
0.0135821

> <r_epik_Ionization_Penalty_Charging>
0

> <r_epik_Ionization_Penalty_Neutral>
0.0135821

> <r_epik_State_Penalty>
0.0105782

> <r_epik_Charging_Adjusted_Penalty>
0.0105782

> <i_epik_Tot_Q>
0

> <i_epik_Tot_abs_Q>
0

> <r_epik_Metal_State_Penalty>
0.0103407

> <b_epik_Metal_Only>
0

> <s_lp_Force_Field>
OPLS_2005

> <r_lp_Energy>
46.6846

> <b_lp_Chiralities_Consistent>
1

> <s_lp_Variant>
AV-unprocessed.smi:3058-3

> <Gold.Version>
5.8.1

> <Gold.Id.Protein>
6NUR|6NUR_protein|mol2

> <Gold.PLP.Fitness>
45.7280

> <Gold.PLP.PLP>
-40.5304

> <Gold.PLP.part.hbond>
-2.0000

> <Gold.PLP.part.metal>
0.0000

> <Gold.PLP.part.buried>
-1.1509

> <Gold.PLP.part.nonpolar>
-36.7667

> <Gold.PLP.part.repulsive>
0.3190

> <Gold.PLP.ligand.clash>
0.0000

> <Gold.PLP.ligand.torsion>
0.3800

> <Gold.PLP.Chemscore.Hbond>
1.9760

> <Gold.PLP.Chemscore.CHOScore>
0.0000

> <Gold.PLP.Chemscore.Metal>
0.0000

> <Gold.Chemscore.Hbonds>
donor molecule, donor type, donor heavy atom, donor atom, acceptor molecule, acceptor atom, score
      L1  H     3    19       P1  8028  0.96
      P1  H  7989  7998       L1     1  1.00

> <Gold.PLP.Chemscore.Internal.Correction>
0.0296

> <Gold.Rescore>
     Score         DG    S(hbond)    S(metal)    S(lipo)     H(rot)  DE(clash)    DE(int)     intcor
     17.71     -20.76       1.56        0.00     116.03       1.37       1.51       1.55       ----

> <Gold.Chemscore.Fitness>
17.7081

> <Gold.Chemscore.DG>
-20.7643

> <Gold.Chemscore.ZeroCoef>
-5.4800

> <Gold.Chemscore.Hbond>
1.5579

> <Gold.Chemscore.Metal>
0.0000

> <Gold.Chemscore.Lipo>
116.0343

> <Gold.Chemscore.Internal_Hbond>
0.0000

> <Gold.Chemscore.DEClash>
1.5061

> <Gold.Chemscore.DEInternal>
1.5501

> <Gold.Chemscore.Rot>
1.3653

> <Gold.Chemscore.Internal.Correction>
   9.000000E+99

> <Gold.Chemscore.Hbonds>
donor molecule, donor type, donor heavy atom, donor atom, acceptor molecule, acceptor atom, score
      L1  H     3    19       P1  8028  0.92
      P1  H  7989  7998       L1     1  0.33

> <Gold.Chemscore.Hbond.Weighted>
-5.2034

> <Gold.Chemscore.Metal.Weighted>
-0.0000

> <Gold.Chemscore.Lipo.Weighted>
-13.5760

> <Gold.Chemscore.Internal_Hbond.Weighted>
0.0000

> <Gold.Chemscore.DEClash.Weighted>
1.5061

> <Gold.Chemscore.DEInternal.Weighted>
1.5501

> <Gold.Chemscore.Rot.Weighted>
3.4951

> <Gold.Chemscore.Internal.Correction.Weighted>
   9.000000E+99

> <Gold.Protein.RotatedTorsions>
[ 6907 6896 6895 6894 ] final  130.64 input  -60.11 | X-H torsion
[ 7974 7965 7964 7962 ] final  147.02 input  175.53 | X-H torsion
[ 8008 7997 7996 7995 ] final  -27.29 input   59.86 | X-H torsion
[ 10167 10162 10161 10158 ] final  -35.43 input  -65.29 | X-H torsion
[ 10718 10713 10712 10709 ] final -121.33 input   66.30 | X-H torsion
[ 10763 10752 10751 10750 ] final -115.74 input  -60.55 | X-H torsion
[ 11005 11000 10999 10996 ] final   92.85 input  -57.11 | X-H torsion

> <Gold.Protein.ActiveResidues>
 VAL166  LYS551  ARG553  GLY616  TRP617  ASP618  TYR619  PRO620  LYS621  CYS622 
 ASP623  PHE694  ASN695  SER759  ASP760  ASP761  ALA762  ILE779  LEU786  VAL792 
 PHE793  MET794  SER795  GLU796  ALA797  LYS798  CYS799  TRP800  GLU811  SER814 

> <Gold.Protein.RotatedAtoms>
  152.3506  133.6175  159.5941 H   0  0  0  0  0  0  0  0  0  0  0  0  # atno 6907 bound_to 6896
  150.7535  133.9580  159.3515 H   0  0  0  0  0  0  0  0  0  0  0  0  # atno 6908 bound_to 6896
  151.7433  135.0850  160.0370 H   0  0  0  0  0  0  0  0  0  0  0  0  # atno 6909 bound_to 6896
  144.8625  139.5977  143.5924 H   0  0  0  0  0  0  0  0  0  0  0  0  # atno 7974 bound_to 7965
  154.4384  140.1876  156.0908 H   0  0  0  0  0  0  0  0  0  0  0  0  # atno 8008 bound_to 7997
  156.0367  140.3324  155.7172 H   0  0  0  0  0  0  0  0  0  0  0  0  # atno 8009 bound_to 7997
  155.5760  140.0617  157.2786 H   0  0  0  0  0  0  0  0  0  0  0  0  # atno 8010 bound_to 7997
  140.7165  143.3478  151.2219 H   0  0  0  0  0  0  0  0  0  0  0  0  # atno 10167 bound_to 10162
  156.1329  130.6409  150.9650 H   0  0  0  0  0  0  0  0  0  0  0  0  # atno 10718 bound_to 10713
  154.8493  135.4371  154.1711 H   0  0  0  0  0  0  0  0  0  0  0  0  # atno 10763 bound_to 10752
  153.2824  135.6954  153.7378 H   0  0  0  0  0  0  0  0  0  0  0  0  # atno 10764 bound_to 10752
  153.6577  135.3440  155.3093 H   0  0  0  0  0  0  0  0  0  0  0  0  # atno 10765 bound_to 10752
  139.8818  134.8756  156.3632 H   0  0  0  0  0  0  0  0  0  0  0  0  # atno 11005 bound_to 11000
  146.2871  139.7034  142.9188 LP  0  0  0  0  0  0  0  0  0  0  0  0  # atno 17320 bound_to 7965
  145.4285  141.0413  143.2924 LP  0  0  0  0  0  0  0  0  0  0  0  0  # atno 17321 bound_to 7965
  139.7001  143.9546  152.2901 LP  0  0  0  0  0  0  0  0  0  0  0  0  # atno 17342 bound_to 10162
  139.9237  144.6784  150.8435 LP  0  0  0  0  0  0  0  0  0  0  0  0  # atno 17343 bound_to 10162
  157.6505  131.0897  150.8061 LP  0  0  0  0  0  0  0  0  0  0  0  0  # atno 17370 bound_to 10713
  156.8144  130.4963  149.5351 LP  0  0  0  0  0  0  0  0  0  0  0  0  # atno 17371 bound_to 10713
  140.9515  133.7448  156.0278 LP  0  0  0  0  0  0  0  0  0  0  0  0  # atno 17394 bound_to 11000
  140.8100  134.3410  157.5414 LP  0  0  0  0  0  0  0  0  0  0  0  0  # atno 17395 bound_to 11000

$$$$
