AV-unprocessed.smi:188|AV-procd|sdf|1474|dock8
  -GOLD-   2262019293D 1   1.00000     0.00000
 Structure written by MMmdl.
 48 52  0  0  0  0  0  0  0  0  2 V2000
  149.7528  129.3495  161.2311 O   0  0  0  0  0  0  0  0  0  0  0  0
  149.3495  129.6520  160.1104 C   0  0  0  0  0  0  0  0  0  0  0  0
  149.4318  130.9040  159.6515 N   0  0  0  0  0  0  0  0  0  0  0  0
  148.9389  131.0132  158.4220 C   0  0  0  0  0  0  0  0  0  0  0  0
  148.8791  132.0351  157.7393 O   0  0  0  0  0  0  0  0  0  0  0  0
  148.4559  129.6261  158.0056 C   0  0  0  0  0  0  0  0  0  0  0  0
  146.9313  129.5745  157.7414 C   0  0  0  0  0  0  0  0  0  0  0  0
  146.5403  130.2360  156.4069 C   0  0  0  0  0  0  0  0  0  0  0  0
  147.3141  129.6778  155.2964 N   0  0  0  0  0  0  0  0  0  0  0  0
  146.8744  129.9313  154.0371 C   0  0  0  0  0  0  0  0  0  0  0  0
  146.3266  128.9316  153.2946 N   0  0  0  0  0  0  0  0  0  0  0  0
  145.8795  129.1736  152.0593 C   0  0  0  0  0  0  0  0  0  0  0  0
  145.8860  130.3216  151.3798 N   0  0  0  0  0  0  0  0  0  0  0  0
  146.4451  131.3267  152.1117 C   0  0  0  0  0  0  0  0  0  0  0  0
  146.9564  131.2200  153.4368 C   0  0  0  0  0  0  0  0  0  0  0  0
  147.4494  132.4515  153.8520 N   0  0  0  0  0  0  0  0  0  0  0  0
  147.2330  133.2415  152.8367 C   0  0  0  0  0  0  0  0  0  0  0  0
  146.6432  132.6467  151.7438 N   0  0  0  0  0  0  0  0  0  0  0  0
  146.2988  133.2945  150.4864 C   0  0  0  0  0  0  0  0  0  0  0  0
  144.7841  133.4207  150.2243 C   0  0  0  0  0  0  0  0  0  0  0  0
  144.2973  134.7996  150.7176 C   0  0  0  0  0  0  0  0  0  0  0  0
  144.8449  135.8672  149.9700 O   0  0  0  0  0  0  0  0  0  0  0  0
  144.2966  132.9955  148.8311 C   0  0  0  0  0  0  0  0  0  0  0  0
  143.3247  132.0824  149.3865 O   0  0  0  0  0  0  0  0  0  0  0  0
  143.9563  132.2094  150.6790 C   0  0  0  0  0  0  0  0  0  0  0  0
  148.7666  129.7401  155.4560 C   0  0  0  0  0  0  0  0  0  0  0  0
  149.2097  129.0721  156.7717 C   0  0  0  0  0  0  0  0  0  0  0  0
  148.7837  128.8408  159.1860 N   0  5  0  0  0  0  0  0  0  0  0  0
  149.8217  131.6729  160.1755 H   0  0  0  0  0  0  0  0  0  0  0  0
  146.6015  128.5343  157.7236 H   0  0  0  0  0  0  0  0  0  0  0  0
  146.3823  130.0488  158.5565 H   0  0  0  0  0  0  0  0  0  0  0  0
  145.4750  130.0809  156.2308 H   0  0  0  0  0  0  0  0  0  0  0  0
  146.7001  131.3135  156.4557 H   0  0  0  0  0  0  0  0  0  0  0  0
  145.4576  128.3250  151.5416 H   0  0  0  0  0  0  0  0  0  0  0  0
  147.5088  134.2859  152.8540 H   0  0  0  0  0  0  0  0  0  0  0  0
  146.7740  134.2761  150.4772 H   0  0  0  0  0  0  0  0  0  0  0  0
  146.7711  132.7339  149.6787 H   0  0  0  0  0  0  0  0  0  0  0  0
  143.2105  134.8701  150.6618 H   0  0  0  0  0  0  0  0  0  0  0  0
  144.5736  134.9660  151.7590 H   0  0  0  0  0  0  0  0  0  0  0  0
  145.1916  135.5229  149.1611 H   0  0  0  0  0  0  0  0  0  0  0  0
  143.8388  133.7985  148.2523 H   0  0  0  0  0  0  0  0  0  0  0  0
  145.0423  132.4660  148.2372 H   0  0  0  0  0  0  0  0  0  0  0  0
  144.5558  131.3302  150.9215 H   0  0  0  0  0  0  0  0  0  0  0  0
  143.2448  132.4214  151.4778 H   0  0  0  0  0  0  0  0  0  0  0  0
  149.2772  129.2546  154.6251 H   0  0  0  0  0  0  0  0  0  0  0  0
  149.0776  130.7848  155.4360 H   0  0  0  0  0  0  0  0  0  0  0  0
  150.2874  129.1916  156.8938 H   0  0  0  0  0  0  0  0  0  0  0  0
  149.0349  127.9979  156.6918 H   0  0  0  0  0  0  0  0  0  0  0  0
  1  2  2  0  0  0  0
  2 28  1  0  0  0  0
  2  3  1  0  0  0  0
  3  4  1  0  0  0  0
  3 29  1  0  0  0  0
  4  5  2  0  0  0  0
  4  6  1  0  0  0  0
  6 27  1  0  0  0  0
  6  7  1  0  0  0  0
  6 28  1  0  0  0  0
  7  8  1  0  0  0  0
  7 30  1  0  0  0  0
  7 31  1  0  0  0  0
  8  9  1  0  0  0  0
  8 32  1  0  0  0  0
  8 33  1  0  0  0  0
  9 10  1  0  0  0  0
  9 26  1  0  0  0  0
 10 15  1  0  0  0  0
 10 11  2  0  0  0  0
 11 12  1  0  0  0  0
 12 13  2  0  0  0  0
 12 34  1  0  0  0  0
 13 14  1  0  0  0  0
 14 18  1  0  0  0  0
 14 15  2  0  0  0  0
 15 16  1  0  0  0  0
 16 17  2  0  0  0  0
 17 18  1  0  0  0  0
 17 35  1  0  0  0  0
 18 19  1  0  0  0  0
 19 20  1  0  0  0  0
 19 36  1  0  0  0  0
 19 37  1  0  0  0  0
 20 25  1  0  0  0  0
 20 21  1  0  0  0  0
 20 23  1  0  0  0  0
 21 22  1  0  0  0  0
 21 38  1  0  0  0  0
 21 39  1  0  0  0  0
 22 40  1  0  0  0  0
 23 24  1  0  0  0  0
 23 41  1  0  0  0  0
 23 42  1  0  0  0  0
 24 25  1  0  0  0  0
 25 43  1  0  0  0  0
 25 44  1  0  0  0  0
 26 27  1  0  0  0  0
 26 45  1  0  0  0  0
 26 46  1  0  0  0  0
 27 47  1  0  0  0  0
 27 48  1  0  0  0  0
M  CHG  1  28  -1
M  END
> <s_m_source_file>
AV-unprocessed.smi

> <i_m_source_file_index>
188

> <i_lp_mmshare_version>
43012

> <i_f3d_flags>
0

> <s_epik_input>
Tz1DKFtOSF0xKVtOSF1DKD1PKUMxMltDSDJdW0NIMl1OKFtDSDJdW0NIMl0yKWMobltjSF1uMyljKGMzNCluW2NIXW40W0NIMl1DNShbQ0gyXVtPSF0pW0NIMl1PW0NIMl01

> <s_epik_cmdline>
J2VwaWtfcHl0aG9uJywgJy1waCcsICc3LjAnLCAnLXRuJywgJzgnLCAnLW1hJywgJzIwMCcsICctbWV0YWxfYmluZGluZycsICctaW1hZScsICc8aW5maWxlLm1hZT4nLCAnLW9tYWUnLCAnPG91dGZpbGUubWFlPic=

> <r_lp_tautomer_probability>
1

> <r_epik_Ionization_Penalty>
5.87904

> <r_epik_Ionization_Penalty_Charging>
5.87677

> <r_epik_Ionization_Penalty_Neutral>
0.00227107

> <r_epik_State_Penalty>
5.88193

> <r_epik_Charging_Adjusted_Penalty>
11.7587

> <i_epik_Tot_Q>
-1

> <i_epik_Tot_abs_Q>
1

> <r_epik_Metal_State_Penalty>
2.21794

> <b_epik_Metal_Only>
1

> <s_lp_Force_Field>
OPLS_2005

> <r_lp_Energy>
46.2215

> <b_lp_Chiralities_Consistent>
1

> <s_lp_Variant>
AV-unprocessed.smi:188-3

> <Gold.Version>
5.8.1

> <Gold.Id.Protein>
6NUR|6NUR_protein|mol2

> <Gold.PLP.Fitness>
38.0007

> <Gold.PLP.PLP>
-30.3092

> <Gold.PLP.part.hbond>
-3.0000

> <Gold.PLP.part.metal>
0.0000

> <Gold.PLP.part.buried>
-3.8172

> <Gold.PLP.part.nonpolar>
-24.9900

> <Gold.PLP.part.repulsive>
2.0762

> <Gold.PLP.ligand.clash>
0.0000

> <Gold.PLP.ligand.torsion>
1.0087

> <Gold.PLP.Chemscore.Hbond>
2.0000

> <Gold.PLP.Chemscore.CHOScore>
1.0000

> <Gold.PLP.Chemscore.Metal>
0.0000

> <Gold.Chemscore.Hbonds>
donor molecule, donor type, donor heavy atom, donor atom, acceptor molecule, acceptor atom, score
      L1  H    22    40       P1  7921  1.00
      P1  H 10785 10796       L1    24  0.96
      L1  C    17    35       P1  7948  0.87

> <Gold.PLP.Chemscore.Internal.Correction>
0.7089

> <Gold.Rescore>
     Score         DG    S(hbond)    S(metal)    S(lipo)     H(rot)  DE(clash)    DE(int)     intcor
      6.15     -11.12       1.88        0.00      56.74       2.84       1.44       3.53       ----

> <Gold.Chemscore.Fitness>
6.1511

> <Gold.Chemscore.DG>
-11.1234

> <Gold.Chemscore.ZeroCoef>
-5.4800

> <Gold.Chemscore.Hbond>
1.8827

> <Gold.Chemscore.Metal>
0.0000

> <Gold.Chemscore.Lipo>
56.7381

> <Gold.Chemscore.Internal_Hbond>
0.0000

> <Gold.Chemscore.DEClash>
1.4394

> <Gold.Chemscore.DEInternal>
3.5329

> <Gold.Chemscore.Rot>
2.8450

> <Gold.Chemscore.Internal.Correction>
   9.000000E+99

> <Gold.Chemscore.Hbonds>
donor molecule, donor type, donor heavy atom, donor atom, acceptor molecule, acceptor atom, score
      L1  H    22    40       P1  7921  1.00
      P1  H 10785 10796       L1    24  0.74

> <Gold.Chemscore.Hbond.Weighted>
-6.2882

> <Gold.Chemscore.Metal.Weighted>
-0.0000

> <Gold.Chemscore.Lipo.Weighted>
-6.6384

> <Gold.Chemscore.Internal_Hbond.Weighted>
0.0000

> <Gold.Chemscore.DEClash.Weighted>
1.4394

> <Gold.Chemscore.DEInternal.Weighted>
3.5329

> <Gold.Chemscore.Rot.Weighted>
7.2831

> <Gold.Chemscore.Internal.Correction.Weighted>
   9.000000E+99

> <Gold.Protein.RotatedTorsions>
[ 6907 6896 6895 6894 ] final  -90.10 input  -60.11 | X-H torsion
[ 7974 7965 7964 7962 ] final   89.58 input  175.53 | X-H torsion
[ 8008 7997 7996 7995 ] final  -61.96 input   59.86 | X-H torsion
[ 10167 10162 10161 10158 ] final   31.78 input  -65.29 | X-H torsion
[ 10718 10713 10712 10709 ] final   39.10 input   66.30 | X-H torsion
[ 10763 10752 10751 10750 ] final   92.46 input  -60.55 | X-H torsion
[ 11005 11000 10999 10996 ] final  115.25 input  -57.11 | X-H torsion

> <Gold.Protein.ActiveResidues>
 VAL166  LYS551  ARG553  GLY616  TRP617  ASP618  TYR619  PRO620  LYS621  CYS622 
 ASP623  PHE694  ASN695  SER759  ASP760  ASP761  ALA762  ILE779  LEU786  VAL792 
 PHE793  MET794  SER795  GLU796  ALA797  LYS798  CYS799  TRP800  GLU811  SER814 

> <Gold.Protein.RotatedAtoms>
  150.6879  134.2484  159.4500 H   0  0  0  0  0  0  0  0  0  0  0  0  # atno 6907 bound_to 6896
  152.0423  134.9701  160.0583 H   0  0  0  0  0  0  0  0  0  0  0  0  # atno 6908 bound_to 6896
  152.1198  133.4312  159.4707 H   0  0  0  0  0  0  0  0  0  0  0  0  # atno 6909 bound_to 6896
  145.5305  139.2283  143.2621 H   0  0  0  0  0  0  0  0  0  0  0  0  # atno 7974 bound_to 7965
  154.4475  140.1006  156.6513 H   0  0  0  0  0  0  0  0  0  0  0  0  # atno 8008 bound_to 7997
  155.5395  140.3483  155.4425 H   0  0  0  0  0  0  0  0  0  0  0  0  # atno 8009 bound_to 7997
  156.0607  140.1326  156.9933 H   0  0  0  0  0  0  0  0  0  0  0  0  # atno 8010 bound_to 7997
  140.4558  144.0980  150.6201 H   0  0  0  0  0  0  0  0  0  0  0  0  # atno 10167 bound_to 10162
  157.3666  130.7678  149.7087 H   0  0  0  0  0  0  0  0  0  0  0  0  # atno 10718 bound_to 10713
  153.2194  135.4361  155.0472 H   0  0  0  0  0  0  0  0  0  0  0  0  # atno 10763 bound_to 10752
  154.8242  135.3352  154.6950 H   0  0  0  0  0  0  0  0  0  0  0  0  # atno 10764 bound_to 10752
  153.7383  135.7006  153.5029 H   0  0  0  0  0  0  0  0  0  0  0  0  # atno 10765 bound_to 10752
  139.9004  134.9581  156.7017 H   0  0  0  0  0  0  0  0  0  0  0  0  # atno 11005 bound_to 11000
  146.2047  140.6121  142.9086 LP  0  0  0  0  0  0  0  0  0  0  0  0  # atno 17320 bound_to 7965
  144.7628  140.5462  143.6723 LP  0  0  0  0  0  0  0  0  0  0  0  0  # atno 17321 bound_to 7965
  140.4153  143.2637  151.9783 LP  0  0  0  0  0  0  0  0  0  0  0  0  # atno 17342 bound_to 10162
  139.4801  144.5879  151.7821 LP  0  0  0  0  0  0  0  0  0  0  0  0  # atno 17343 bound_to 10162
  155.9747  130.4099  150.3901 LP  0  0  0  0  0  0  0  0  0  0  0  0  # atno 17370 bound_to 10713
  157.1986  131.0432  151.2662 LP  0  0  0  0  0  0  0  0  0  0  0  0  # atno 17371 bound_to 10713
  140.7145  133.9194  155.8106 LP  0  0  0  0  0  0  0  0  0  0  0  0  # atno 17394 bound_to 11000
  141.0275  134.0803  157.4052 LP  0  0  0  0  0  0  0  0  0  0  0  0  # atno 17395 bound_to 11000

$$$$
