AV-unprocessed.smi:212|AV-procd|sdf|1631|dock3
  -GOLD-   2262019583D 1   1.00000     0.00000
 Structure written by MMmdl.
 65 68  0  0  0  0  0  0  0  0  2 V2000
  146.1771  143.0084  157.2378 C   0  0  0  0  0  0  0  0  0  0  0  0
  146.6063  141.5802  156.8607 C   0  0  2  0  0  0  0  0  0  0  0  0
  148.0648  141.2838  157.2673 C   0  0  0  0  0  0  0  0  0  0  0  0
  149.0325  142.0012  156.3955 N   0  3  1  0  0  0  0  0  0  0  0  0
  150.4450  141.8476  156.8329 C   0  0  0  0  0  0  0  0  0  0  0  0
  150.8065  142.7831  158.0105 C   0  0  0  0  0  0  0  0  0  0  0  0
  151.8921  143.7833  157.5787 C   0  0  0  0  0  0  0  0  0  0  0  0
  149.5782  143.5338  158.5572 C   0  0  0  0  0  0  0  0  0  0  0  0
  151.3606  142.0154  159.0604 O   0  0  0  0  0  0  0  0  0  0  0  0
  148.8259  141.6915  154.9585 C   0  0  0  0  0  0  0  0  0  0  0  0
  147.3726  141.9759  154.5362 C   0  0  0  0  0  0  0  0  0  0  0  0
  146.4187  141.3180  155.4312 N   0  0  0  0  0  0  0  0  0  0  0  0
  145.9674  140.0770  155.1079 C   0  0  0  0  0  0  0  0  0  0  0  0
  145.2115  139.3765  155.9952 N   0  0  0  0  0  0  0  0  0  0  0  0
  144.7521  138.1614  155.6821 C   0  0  0  0  0  0  0  0  0  0  0  0
  144.9275  137.4680  154.5562 N   0  0  0  0  0  0  0  0  0  0  0  0
  145.6922  138.1602  153.6645 C   0  0  0  0  0  0  0  0  0  0  0  0
  146.2486  139.4564  153.8575 C   0  0  0  0  0  0  0  0  0  0  0  0
  146.9790  139.8290  152.7347 N   0  0  0  0  0  0  0  0  0  0  0  0
  146.8573  138.8140  151.9230 C   0  0  0  0  0  0  0  0  0  0  0  0
  146.1029  137.7678  152.4029 N   0  0  0  0  0  0  0  0  0  0  0  0
  145.8117  136.5228  151.7151 C   0  0  0  0  0  0  0  0  0  0  0  0
  144.9542  135.5331  152.5519 C   0  0  1  0  0  0  0  0  0  0  0  0
  143.4677  135.9507  152.6732 C   0  0  0  0  0  0  0  0  0  0  0  0
  142.7277  135.0545  153.4769 O   0  0  0  0  0  0  0  0  0  0  0  0
  145.0541  134.0650  152.0583 C   0  0  1  0  0  0  0  0  0  0  0  0
  144.5473  133.7762  150.6463 C   0  0  0  0  0  0  0  0  0  0  0  0
  145.4811  132.6738  150.1345 C   0  0  0  0  0  0  0  0  0  0  0  0
  146.2537  132.2789  151.2603 O   0  0  0  0  0  0  0  0  0  0  0  0
  146.4463  133.4312  152.0625 C   0  0  0  0  0  0  0  0  0  0  0  0
  146.2621  143.1682  158.3128 H   0  0  0  0  0  0  0  0  0  0  0  0
  145.1373  143.1865  156.9620 H   0  0  0  0  0  0  0  0  0  0  0  0
  146.7872  143.7653  156.7450 H   0  0  0  0  0  0  0  0  0  0  0  0
  145.9789  140.9077  157.4448 H   0  0  0  0  0  0  0  0  0  0  0  0
  148.2202  141.5528  158.3122 H   0  0  0  0  0  0  0  0  0  0  0  0
  148.2522  140.2112  157.1923 H   0  0  0  0  0  0  0  0  0  0  0  0
  150.6483  140.8063  157.0895 H   0  0  0  0  0  0  0  0  0  0  0  0
  151.1136  142.0747  156.0005 H   0  0  0  0  0  0  0  0  0  0  0  0
  151.5405  144.4222  156.7678 H   0  0  0  0  0  0  0  0  0  0  0  0
  152.7891  143.2715  157.2273 H   0  0  0  0  0  0  0  0  0  0  0  0
  152.1872  144.4337  158.4032 H   0  0  0  0  0  0  0  0  0  0  0  0
  149.1068  144.1344  157.7789 H   0  0  0  0  0  0  0  0  0  0  0  0
  149.8542  144.2078  159.3690 H   0  0  0  0  0  0  0  0  0  0  0  0
  148.8239  142.8498  158.9481 H   0  0  0  0  0  0  0  0  0  0  0  0
  151.4133  141.1140  158.7800 H   0  0  0  0  0  0  0  0  0  0  0  0
  149.5022  142.2931  154.3502 H   0  0  0  0  0  0  0  0  0  0  0  0
  149.0787  140.6462  154.7761 H   0  0  0  0  0  0  0  0  0  0  0  0
  147.1865  143.0495  154.5657 H   0  0  0  0  0  0  0  0  0  0  0  0
  147.2092  141.6777  153.4997 H   0  0  0  0  0  0  0  0  0  0  0  0
  144.1586  137.6751  156.4424 H   0  0  0  0  0  0  0  0  0  0  0  0
  147.3229  138.7959  150.9482 H   0  0  0  0  0  0  0  0  0  0  0  0
  145.3197  136.7657  150.7741 H   0  0  0  0  0  0  0  0  0  0  0  0
  146.7690  136.0753  151.4518 H   0  0  0  0  0  0  0  0  0  0  0  0
  145.3667  135.5302  153.5623 H   0  0  0  0  0  0  0  0  0  0  0  0
  143.3784  136.9615  153.0725 H   0  0  0  0  0  0  0  0  0  0  0  0
  142.9902  135.9572  151.6929 H   0  0  0  0  0  0  0  0  0  0  0  0
  142.4986  134.3014  152.9538 H   0  0  0  0  0  0  0  0  0  0  0  0
  144.4543  133.4532  152.7346 H   0  0  0  0  0  0  0  0  0  0  0  0
  143.5094  133.4424  150.6712 H   0  0  0  0  0  0  0  0  0  0  0  0
  144.5942  134.6425  149.9879 H   0  0  0  0  0  0  0  0  0  0  0  0
  144.9384  131.8264  149.7153 H   0  0  0  0  0  0  0  0  0  0  0  0
  146.1469  133.0655  149.3641 H   0  0  0  0  0  0  0  0  0  0  0  0
  147.2006  134.0609  151.5915 H   0  0  0  0  0  0  0  0  0  0  0  0
  146.7882  133.1710  153.0644 H   0  0  0  0  0  0  0  0  0  0  0  0
  148.8225  142.9841  156.4949 H   0  0  0  0  0  0  0  0  0  0  0  0
  1  2  1  0  0  0  0
  1 31  1  0  0  0  0
  1 32  1  0  0  0  0
  1 33  1  0  0  0  0
  2 12  1  0  0  0  0
  2  3  1  0  0  0  0
  2 34  1  0  0  0  0
  3  4  1  0  0  0  0
  3 35  1  0  0  0  0
  3 36  1  0  0  0  0
  4  5  1  0  0  0  0
  4 10  1  0  0  0  0
  4 65  1  0  0  0  0
  5  6  1  0  0  0  0
  5 37  1  0  0  0  0
  5 38  1  0  0  0  0
  6  7  1  0  0  0  0
  6  8  1  0  0  0  0
  6  9  1  0  0  0  0
  7 39  1  0  0  0  0
  7 40  1  0  0  0  0
  7 41  1  0  0  0  0
  8 42  1  0  0  0  0
  8 43  1  0  0  0  0
  8 44  1  0  0  0  0
  9 45  1  0  0  0  0
 10 11  1  0  0  0  0
 10 46  1  0  0  0  0
 10 47  1  0  0  0  0
 11 12  1  0  0  0  0
 11 48  1  0  0  0  0
 11 49  1  0  0  0  0
 12 13  1  0  0  0  0
 13 18  1  0  0  0  0
 13 14  2  0  0  0  0
 14 15  1  0  0  0  0
 15 16  2  0  0  0  0
 15 50  1  0  0  0  0
 16 17  1  0  0  0  0
 17 21  1  0  0  0  0
 17 18  2  0  0  0  0
 18 19  1  0  0  0  0
 19 20  2  0  0  0  0
 20 21  1  0  0  0  0
 20 51  1  0  0  0  0
 21 22  1  0  0  0  0
 22 23  1  0  0  0  0
 22 52  1  0  0  0  0
 22 53  1  0  0  0  0
 23 24  1  0  0  0  0
 23 26  1  0  0  0  0
 23 54  1  0  0  0  0
 24 25  1  0  0  0  0
 24 55  1  0  0  0  0
 24 56  1  0  0  0  0
 25 57  1  0  0  0  0
 26 30  1  0  0  0  0
 26 27  1  0  0  0  0
 26 58  1  0  0  0  0
 27 28  1  0  0  0  0
 27 59  1  0  0  0  0
 27 60  1  0  0  0  0
 28 29  1  0  0  0  0
 28 61  1  0  0  0  0
 28 62  1  0  0  0  0
 29 30  1  0  0  0  0
 30 63  1  0  0  0  0
 30 64  1  0  0  0  0
M  CHG  1   4   1
M  END
> <s_m_source_file>
AV-unprocessed.smi

> <i_m_source_file_index>
212

> <i_lp_mmshare_version>
43012

> <i_f3d_flags>
0

> <s_epik_input>
W0NIM11bQ0BASF0xW0NIMl1OKFtDSDJdQyhbQ0gzXSkoW0NIM10pW09IXSlbQ0gyXVtDSDJdTjFjKG5bY0hdbjIpYyhjMjMpbltjSF1uM1tDSDJdW0NASF0oW0NIMl1bT0hdKVtDQEBIXTRbQ0gyXVtDSDJdT1tDSDJdNA==

> <s_epik_cmdline>
J2VwaWtfcHl0aG9uJywgJy1waCcsICc3LjAnLCAnLXRuJywgJzgnLCAnLW1hJywgJzIwMCcsICctbWV0YWxfYmluZGluZycsICctaW1hZScsICc8aW5maWxlLm1hZT4nLCAnLW9tYWUnLCAnPG91dGZpbGUubWFlPic=

> <r_lp_tautomer_probability>
1

> <r_epik_Ionization_Penalty>
0.00182193

> <r_epik_Ionization_Penalty_Charging>
0.00173996

> <r_epik_Ionization_Penalty_Neutral>
8.19718e-05

> <r_epik_State_Penalty>
-0

> <r_epik_Charging_Adjusted_Penalty>
0.00173996

> <i_epik_Tot_Q>
1

> <i_epik_Tot_abs_Q>
1

> <r_epik_Metal_State_Penalty>
-0

> <b_epik_Metal_Only>
0

> <s_lp_Force_Field>
OPLS_2005

> <r_lp_Energy>
59.1595

> <b_lp_Chiralities_Consistent>
1

> <s_lp_Variant>
AV-unprocessed.smi:212-15

> <Gold.Version>
5.8.1

> <Gold.Id.Protein>
6NUR|6NUR_protein|mol2

> <Gold.PLP.Fitness>
42.7233

> <Gold.PLP.PLP>
-39.3403

> <Gold.PLP.part.hbond>
-1.0000

> <Gold.PLP.part.metal>
0.0000

> <Gold.PLP.part.buried>
-2.4894

> <Gold.PLP.part.nonpolar>
-36.5587

> <Gold.PLP.part.repulsive>
0.9748

> <Gold.PLP.ligand.clash>
1.6088

> <Gold.PLP.ligand.torsion>
1.7148

> <Gold.PLP.Chemscore.Hbond>
1.8560

> <Gold.PLP.Chemscore.CHOScore>
0.5849

> <Gold.PLP.Chemscore.Metal>
0.0000

> <Gold.Chemscore.Hbonds>
donor molecule, donor type, donor heavy atom, donor atom, acceptor molecule, acceptor atom, score
      L1  H     4    65       P1  8028  1.86
      L1  C    20    51       P1  7957  0.55

> <Gold.PLP.Chemscore.Internal.Correction>
1.0987

> <Gold.Rescore>
     Score         DG    S(hbond)    S(metal)    S(lipo)     H(rot)  DE(clash)    DE(int)     intcor
      4.70     -10.61       0.96        0.00      90.80       3.40       0.19       5.72       ----

> <Gold.Chemscore.Fitness>
4.7010

> <Gold.Chemscore.DG>
-10.6056

> <Gold.Chemscore.ZeroCoef>
-5.4800

> <Gold.Chemscore.Hbond>
0.9587

> <Gold.Chemscore.Metal>
0.0000

> <Gold.Chemscore.Lipo>
90.8027

> <Gold.Chemscore.Internal_Hbond>
0.0000

> <Gold.Chemscore.DEClash>
0.1865

> <Gold.Chemscore.DEInternal>
5.7182

> <Gold.Chemscore.Rot>
3.3986

> <Gold.Chemscore.Internal.Correction>
   9.000000E+99

> <Gold.Chemscore.Hbonds>
donor molecule, donor type, donor heavy atom, donor atom, acceptor molecule, acceptor atom, score
      L1  H     4    65       P1  8028  0.86

> <Gold.Chemscore.Hbond.Weighted>
-3.2022

> <Gold.Chemscore.Metal.Weighted>
-0.0000

> <Gold.Chemscore.Lipo.Weighted>
-10.6239

> <Gold.Chemscore.Internal_Hbond.Weighted>
0.0000

> <Gold.Chemscore.DEClash.Weighted>
0.1865

> <Gold.Chemscore.DEInternal.Weighted>
5.7182

> <Gold.Chemscore.Rot.Weighted>
8.7005

> <Gold.Chemscore.Internal.Correction.Weighted>
   9.000000E+99

> <Gold.Protein.RotatedTorsions>
[ 6907 6896 6895 6894 ] final  -70.60 input  -60.11 | X-H torsion
[ 7974 7965 7964 7962 ] final -145.81 input  175.53 | X-H torsion
[ 8008 7997 7996 7995 ] final -143.71 input   59.86 | X-H torsion
[ 10167 10162 10161 10158 ] final -118.36 input  -65.29 | X-H torsion
[ 10718 10713 10712 10709 ] final  104.80 input   66.30 | X-H torsion
[ 10763 10752 10751 10750 ] final  175.88 input  -60.55 | X-H torsion
[ 11005 11000 10999 10996 ] final  -61.84 input  -57.11 | X-H torsion

> <Gold.Protein.ActiveResidues>
 VAL166  LYS551  ARG553  GLY616  TRP617  ASP618  TYR619  PRO620  LYS621  CYS622 
 ASP623  PHE694  ASN695  SER759  ASP760  ASP761  ALA762  ILE779  LEU786  VAL792 
 PHE793  MET794  SER795  GLU796  ALA797  LYS798  CYS799  TRP800  GLU811  SER814 

> <Gold.Protein.RotatedAtoms>
  150.7250  134.5429  159.5755 H   0  0  0  0  0  0  0  0  0  0  0  0  # atno 6907 bound_to 6896
  152.2935  134.7691  160.0382 H   0  0  0  0  0  0  0  0  0  0  0  0  # atno 6908 bound_to 6896
  151.8296  133.3371  159.3646 H   0  0  0  0  0  0  0  0  0  0  0  0  # atno 6909 bound_to 6896
  144.8202  140.5536  143.5583 H   0  0  0  0  0  0  0  0  0  0  0  0  # atno 7974 bound_to 7965
  155.5151  140.0586  157.2917 H   0  0  0  0  0  0  0  0  0  0  0  0  # atno 8008 bound_to 7997
  154.4538  140.1962  156.0388 H   0  0  0  0  0  0  0  0  0  0  0  0  # atno 8009 bound_to 7997
  156.0758  140.3254  155.7635 H   0  0  0  0  0  0  0  0  0  0  0  0  # atno 8010 bound_to 7997
  140.0584  143.4992  152.2045 H   0  0  0  0  0  0  0  0  0  0  0  0  # atno 10167 bound_to 10162
  157.6728  131.0812  150.5760 H   0  0  0  0  0  0  0  0  0  0  0  0  # atno 10718 bound_to 10713
  154.4736  135.2772  155.1624 H   0  0  0  0  0  0  0  0  0  0  0  0  # atno 10763 bound_to 10752
  154.3363  135.6179  153.5579 H   0  0  0  0  0  0  0  0  0  0  0  0  # atno 10764 bound_to 10752
  152.9867  135.5777  154.5122 H   0  0  0  0  0  0  0  0  0  0  0  0  # atno 10765 bound_to 10752
  141.1339  133.6634  156.5437 H   0  0  0  0  0  0  0  0  0  0  0  0  # atno 11005 bound_to 11000
  145.5122  139.1479  143.3598 LP  0  0  0  0  0  0  0  0  0  0  0  0  # atno 17320 bound_to 7965
  146.2507  140.5263  142.8894 LP  0  0  0  0  0  0  0  0  0  0  0  0  # atno 17321 bound_to 7965
  139.5909  144.7549  151.3403 LP  0  0  0  0  0  0  0  0  0  0  0  0  # atno 17342 bound_to 10162
  140.7184  143.7204  150.7700 LP  0  0  0  0  0  0  0  0  0  0  0  0  # atno 17343 bound_to 10162
  156.6061  130.4367  149.5877 LP  0  0  0  0  0  0  0  0  0  0  0  0  # atno 17370 bound_to 10713
  156.2467  130.6883  151.1607 LP  0  0  0  0  0  0  0  0  0  0  0  0  # atno 17371 bound_to 10713
  140.4119  134.7265  157.4841 LP  0  0  0  0  0  0  0  0  0  0  0  0  # atno 17394 bound_to 11000
  140.0421  134.6252  155.8967 LP  0  0  0  0  0  0  0  0  0  0  0  0  # atno 17395 bound_to 11000

$$$$
