AV-unprocessed.smi:2188|AV-procd|sdf|8880|dock4
  -GOLD-   2272012 83D 1   1.00000     0.00000
 Structure written by MMmdl.
 39 41  0  0  0  0  0  0  0  0  1 V2000
  155.5944  141.0526  163.3279 O   0  0  0  0  0  0  0  0  0  0  0  0
  154.8010  140.4533  162.6002 C   0  0  0  0  0  0  0  0  0  0  0  0
  154.6576  139.1151  162.6589 N   0  0  0  0  0  0  0  0  0  0  0  0
  155.3554  138.2157  163.5743 C   0  0  0  0  0  0  0  0  0  0  0  0
  154.4025  137.1890  164.2151 C   0  0  0  0  0  0  0  0  0  0  0  0
  154.4210  135.8336  163.5302 C   0  0  0  0  0  0  0  0  0  0  0  0
  153.8743  134.6939  164.1561 C   0  0  0  0  0  0  0  0  0  0  0  0
  153.9352  133.4572  163.4860 C   0  0  0  0  0  0  0  0  0  0  0  0
  154.5391  133.4134  162.2134 C   0  0  0  0  0  0  0  0  0  0  0  0
  155.0624  134.4982  161.6029 N   0  0  0  0  0  0  0  0  0  0  0  0
  155.0030  135.6796  162.2540 C   0  0  0  0  0  0  0  0  0  0  0  0
  153.9235  141.0905  161.6045 C   0  0  0  0  0  0  0  0  0  0  0  0
  153.5387  142.3792  161.7985 C   0  0  0  0  0  0  0  0  0  0  0  0
  152.6723  143.0598  160.8682 C   0  0  0  0  0  0  0  0  0  0  0  0
  152.2713  142.3939  159.7799 C   0  0  0  0  0  0  0  0  0  0  0  0
  152.6522  141.0818  159.5031 N   0  0  0  0  0  0  0  0  0  0  0  0
  152.2053  140.5200  158.2322 C   0  0  0  0  0  0  0  0  0  0  0  0
  151.8180  139.0617  158.4000 C   0  0  0  0  0  0  0  0  0  0  0  0
  153.3480  138.1941  158.8998 S   0  0  0  0  0  0  0  0  0  0  0  0
  152.9872  136.8272  159.3056 O   0  0  0  0  0  0  0  0  0  0  0  0
  154.3526  138.3930  157.8433 O   0  0  0  0  0  0  0  0  0  0  0  0
  153.7765  139.0941  160.2454 N   0  0  0  0  0  0  0  0  0  0  0  0
  153.4677  140.3492  160.4117 C   0  0  0  0  0  0  0  0  0  0  0  0
  153.9956  138.6891  162.0270 H   0  0  0  0  0  0  0  0  0  0  0  0
  156.1260  137.6921  163.0082 H   0  0  0  0  0  0  0  0  0  0  0  0
  155.8798  138.7773  164.3491 H   0  0  0  0  0  0  0  0  0  0  0  0
  154.6553  137.0596  165.2684 H   0  0  0  0  0  0  0  0  0  0  0  0
  153.3826  137.5750  164.1953 H   0  0  0  0  0  0  0  0  0  0  0  0
  153.4249  134.7623  165.1360 H   0  0  0  0  0  0  0  0  0  0  0  0
  153.5316  132.5629  163.9369 H   0  0  0  0  0  0  0  0  0  0  0  0
  154.6032  132.4816  161.6713 H   0  0  0  0  0  0  0  0  0  0  0  0
  155.4366  136.5270  161.7434 H   0  0  0  0  0  0  0  0  0  0  0  0
  153.8803  142.9415  162.6559 H   0  0  0  0  0  0  0  0  0  0  0  0
  152.3558  144.0771  161.0454 H   0  0  0  0  0  0  0  0  0  0  0  0
  151.6234  142.8509  159.0458 H   0  0  0  0  0  0  0  0  0  0  0  0
  151.3430  141.0689  157.8520 H   0  0  0  0  0  0  0  0  0  0  0  0
  152.9967  140.6302  157.4902 H   0  0  0  0  0  0  0  0  0  0  0  0
  151.0547  138.9237  159.1666 H   0  0  0  0  0  0  0  0  0  0  0  0
  151.4573  138.6278  157.4677 H   0  0  0  0  0  0  0  0  0  0  0  0
  1  2  2  0  0  0  0
  2  3  1  0  0  0  0
  2 12  1  0  0  0  0
  3  4  1  0  0  0  0
  3 24  1  0  0  0  0
  4  5  1  0  0  0  0
  4 25  1  0  0  0  0
  4 26  1  0  0  0  0
  5  6  1  0  0  0  0
  5 27  1  0  0  0  0
  5 28  1  0  0  0  0
  6 11  1  0  0  0  0
  6  7  2  0  0  0  0
  7  8  1  0  0  0  0
  7 29  1  0  0  0  0
  8  9  2  0  0  0  0
  8 30  1  0  0  0  0
  9 10  1  0  0  0  0
  9 31  1  0  0  0  0
 10 11  2  0  0  0  0
 11 32  1  0  0  0  0
 12 23  1  0  0  0  0
 12 13  2  0  0  0  0
 13 14  1  0  0  0  0
 13 33  1  0  0  0  0
 14 15  2  0  0  0  0
 14 34  1  0  0  0  0
 15 16  1  0  0  0  0
 15 35  1  0  0  0  0
 16 23  1  0  0  0  0
 16 17  1  0  0  0  0
 17 18  1  0  0  0  0
 17 36  1  0  0  0  0
 17 37  1  0  0  0  0
 18 19  1  0  0  0  0
 18 38  1  0  0  0  0
 18 39  1  0  0  0  0
 19 20  2  0  0  0  0
 19 21  2  0  0  0  0
 19 22  1  0  0  0  0
 22 23  2  0  0  0  0
M  END
> <s_m_source_file>
AV-unprocessed.smi

> <i_m_source_file_index>
2188

> <i_lp_mmshare_version>
43012

> <i_f3d_flags>
0

> <s_epik_input>
W0NIMl0xW0NIMl1TKD1PKSg9TylOPUMoTjEyKUMoPVtDSF1bQ0hdPVtDSF0yKUMoPU8pW05IXVtDSDJdW0NIMl1jM1tjSF1bY0hdW2NIXW5bY0hdMw==

> <s_epik_cmdline>
J2VwaWtfcHl0aG9uJywgJy1waCcsICc3LjAnLCAnLXRuJywgJzgnLCAnLW1hJywgJzIwMCcsICctbWV0YWxfYmluZGluZycsICctaW1hZScsICc8aW5maWxlLm1hZT4nLCAnLW9tYWUnLCAnPG91dGZpbGUubWFlPic=

> <r_epik_Ionization_Penalty>
0.00945125

> <r_epik_Ionization_Penalty_Charging>
8.06468e-09

> <r_epik_Ionization_Penalty_Neutral>
0.00945124

> <r_epik_State_Penalty>
0.0071398

> <r_epik_Charging_Adjusted_Penalty>
0.0071398

> <i_epik_Tot_Q>
0

> <i_epik_Tot_abs_Q>
0

> <r_epik_Metal_State_Penalty>
0.0479458

> <b_epik_Metal_Only>
0

> <s_lp_Force_Field>
OPLS_2005

> <r_lp_Energy>
29.0495

> <b_lp_Chiralities_Consistent>
1

> <s_lp_Variant>
AV-unprocessed.smi:2188-1

> <Gold.Version>
5.8.1

> <Gold.Id.Protein>
6NUR|6NUR_protein|mol2

> <Gold.PLP.Fitness>
46.7832

> <Gold.PLP.PLP>
-42.6925

> <Gold.PLP.part.hbond>
-2.7949

> <Gold.PLP.part.metal>
0.0000

> <Gold.PLP.part.buried>
-4.2835

> <Gold.PLP.part.nonpolar>
-33.8521

> <Gold.PLP.part.repulsive>
0.0000

> <Gold.PLP.ligand.clash>
0.0000

> <Gold.PLP.ligand.torsion>
0.8579

> <Gold.PLP.Chemscore.Hbond>
1.8480

> <Gold.PLP.Chemscore.CHOScore>
0.0000

> <Gold.PLP.Chemscore.Metal>
0.0000

> <Gold.Chemscore.Hbonds>
donor molecule, donor type, donor heavy atom, donor atom, acceptor molecule, acceptor atom, score
      P1  H  6896  6909       L1    20  0.68
      P1  H  7997  8009       L1    21  0.86

> <Gold.PLP.Chemscore.Internal.Correction>
0.2625

> <Gold.Rescore>
     Score         DG    S(hbond)    S(metal)    S(lipo)     H(rot)  DE(clash)    DE(int)     intcor
     16.62     -19.13       1.84        0.00      96.20       1.47       0.09       2.41       ----

> <Gold.Chemscore.Fitness>
16.6224

> <Gold.Chemscore.DG>
-19.1312

> <Gold.Chemscore.ZeroCoef>
-5.4800

> <Gold.Chemscore.Hbond>
1.8422

> <Gold.Chemscore.Metal>
0.0000

> <Gold.Chemscore.Lipo>
96.2047

> <Gold.Chemscore.Internal_Hbond>
0.0000

> <Gold.Chemscore.DEClash>
0.0943

> <Gold.Chemscore.DEInternal>
2.4145

> <Gold.Chemscore.Rot>
1.4679

> <Gold.Chemscore.Internal.Correction>
   9.000000E+99

> <Gold.Chemscore.Hbonds>
donor molecule, donor type, donor heavy atom, donor atom, acceptor molecule, acceptor atom, score
      P1  H  6896  6909       L1    20  0.64
      P1  H  7997  8009       L1    21  0.85

> <Gold.Chemscore.Hbond.Weighted>
-6.1530

> <Gold.Chemscore.Metal.Weighted>
-0.0000

> <Gold.Chemscore.Lipo.Weighted>
-11.2560

> <Gold.Chemscore.Internal_Hbond.Weighted>
0.0000

> <Gold.Chemscore.DEClash.Weighted>
0.0943

> <Gold.Chemscore.DEInternal.Weighted>
2.4145

> <Gold.Chemscore.Rot.Weighted>
3.7578

> <Gold.Chemscore.Internal.Correction.Weighted>
   9.000000E+99

> <Gold.Protein.RotatedTorsions>
[ 6907 6896 6895 6894 ] final  156.66 input  -60.11 | X-H torsion
[ 7974 7965 7964 7962 ] final  -94.69 input  175.53 | X-H torsion
[ 8008 7997 7996 7995 ] final  128.24 input   59.86 | X-H torsion
[ 10167 10162 10161 10158 ] final -150.23 input  -65.29 | X-H torsion
[ 10718 10713 10712 10709 ] final  154.93 input   66.30 | X-H torsion
[ 10763 10752 10751 10750 ] final  -51.98 input  -60.55 | X-H torsion
[ 11005 11000 10999 10996 ] final  -48.55 input  -57.11 | X-H torsion

> <Gold.Protein.ActiveResidues>
 VAL166  LYS551  ARG553  GLY616  TRP617  ASP618  TYR619  PRO620  LYS621  CYS622 
 ASP623  PHE694  ASN695  SER759  ASP760  ASP761  ALA762  ILE779  LEU786  VAL792 
 PHE793  MET794  SER795  GLU796  ALA797  LYS798  CYS799  TRP800  GLU811  SER814 

> <Gold.Protein.RotatedAtoms>
  152.0264  133.3919  159.4279 H   0  0  0  0  0  0  0  0  0  0  0  0  # atno 6907 bound_to 6896
  150.6886  134.3569  159.4942 H   0  0  0  0  0  0  0  0  0  0  0  0  # atno 6908 bound_to 6896
  152.1350  134.9106  160.0607 H   0  0  0  0  0  0  0  0  0  0  0  0  # atno 6909 bound_to 6896
  145.3699  140.9504  143.2453 H   0  0  0  0  0  0  0  0  0  0  0  0  # atno 7974 bound_to 7965
  156.2910  140.2649  156.2403 H   0  0  0  0  0  0  0  0  0  0  0  0  # atno 8008 bound_to 7997
  154.9984  140.0388  157.2368 H   0  0  0  0  0  0  0  0  0  0  0  0  # atno 8009 bound_to 7997
  154.7624  140.2763  155.6208 H   0  0  0  0  0  0  0  0  0  0  0  0  # atno 8010 bound_to 7997
  139.7373  143.8716  152.2552 H   0  0  0  0  0  0  0  0  0  0  0  0  # atno 10167 bound_to 10162
  157.2250  131.0727  151.1888 H   0  0  0  0  0  0  0  0  0  0  0  0  # atno 10718 bound_to 10713
  154.1354  135.6513  153.4931 H   0  0  0  0  0  0  0  0  0  0  0  0  # atno 10763 bound_to 10752
  153.0182  135.5302  154.6959 H   0  0  0  0  0  0  0  0  0  0  0  0  # atno 10764 bound_to 10752
  154.6205  135.2964  155.0301 H   0  0  0  0  0  0  0  0  0  0  0  0  # atno 10765 bound_to 10752
  141.0707  133.6680  156.3457 H   0  0  0  0  0  0  0  0  0  0  0  0  # atno 11005 bound_to 11000
  144.8584  139.5215  143.6824 LP  0  0  0  0  0  0  0  0  0  0  0  0  # atno 17320 bound_to 7965
  146.2890  139.7084  142.9175 LP  0  0  0  0  0  0  0  0  0  0  0  0  # atno 17321 bound_to 7965
  139.8656  144.7094  150.9047 LP  0  0  0  0  0  0  0  0  0  0  0  0  # atno 17342 bound_to 10162
  140.7780  143.3780  151.1527 LP  0  0  0  0  0  0  0  0  0  0  0  0  # atno 17343 bound_to 10162
  157.3537  130.7095  149.6457 LP  0  0  0  0  0  0  0  0  0  0  0  0  # atno 17370 bound_to 10713
  155.9679  130.4245  150.4612 LP  0  0  0  0  0  0  0  0  0  0  0  0  # atno 17371 bound_to 10713
  140.5679  134.5870  157.5450 LP  0  0  0  0  0  0  0  0  0  0  0  0  # atno 17394 bound_to 11000
  139.9521  134.7599  156.0425 LP  0  0  0  0  0  0  0  0  0  0  0  0  # atno 17395 bound_to 11000

$$$$
