AV-unprocessed.smi:99|AV-procd|sdf|871|dock2
  -GOLD-   2262017333D 1   1.00000     0.00000
 Structure written by MMmdl.
 53 56  0  0  0  0  0  0  0  0  1 V2000
  147.4361  137.5113  160.7859 O   0  0  0  0  0  0  0  0  0  0  0  0
  147.7556  136.3223  160.7212 C   0  0  0  0  0  0  0  0  0  0  0  0
  148.8709  135.8828  160.1057 O   0  0  0  0  0  0  0  0  0  0  0  0
  149.7970  136.8131  159.5698 C   0  0  0  0  0  0  0  0  0  0  0  0
  149.4658  137.0662  158.0958 C   0  0  2  0  0  0  0  0  0  0  0  0
  148.9325  135.8896  157.5103 O   0  0  0  0  0  0  0  0  0  0  0  0
  149.1356  135.9312  156.1337 C   0  0  2  0  0  0  0  0  0  0  0  0
  149.4285  134.5208  155.6700 N   0  0  0  0  0  0  0  0  0  0  0  0
  150.4229  133.7719  156.2846 C   0  0  0  0  0  0  0  0  0  0  0  0
  150.7228  132.5023  155.9223 C   0  0  0  0  0  0  0  0  0  0  0  0
  149.9913  131.8497  154.8412 C   0  0  0  0  0  0  0  0  0  0  0  0
  150.1879  130.7035  154.4432 O   0  0  0  0  0  0  0  0  0  0  0  0
  149.0023  132.6412  154.2492 N   0  0  0  0  0  0  0  0  0  0  0  0
  148.6863  133.9520  154.6115 C   0  0  0  0  0  0  0  0  0  0  0  0
  147.8012  134.5583  154.0089 O   0  0  0  0  0  0  0  0  0  0  0  0
  150.2850  136.9247  155.8484 C   0  0  2  0  0  0  0  0  0  0  0  0
  151.3880  136.3765  155.1492 O   0  0  0  0  0  0  0  0  0  0  0  0
  150.7020  137.3660  157.2473 C   0  0  1  0  0  0  0  0  0  0  0  0
  150.9698  138.7627  157.2776 O   0  0  0  0  0  0  0  0  0  0  0  0
  151.5887  139.3234  158.3388 C   0  0  0  0  0  0  0  0  0  0  0  0
  152.0536  138.6759  159.2788 O   0  0  0  0  0  0  0  0  0  0  0  0
  151.6568  140.8104  158.2519 C   0  0  0  0  0  0  0  0  0  0  0  0
  150.9621  141.4760  157.2152 C   0  0  0  0  0  0  0  0  0  0  0  0
  151.0023  142.8799  157.1107 C   0  0  0  0  0  0  0  0  0  0  0  0
  151.7367  143.6357  158.0428 C   0  0  0  0  0  0  0  0  0  0  0  0
  152.4322  142.9857  159.0791 C   0  0  0  0  0  0  0  0  0  0  0  0
  152.3942  141.5814  159.1843 C   0  0  0  0  0  0  0  0  0  0  0  0
  146.9469  135.2191  161.3161 C   0  0  0  0  0  0  0  0  0  0  0  0
  145.8224  135.5367  162.1134 C   0  0  0  0  0  0  0  0  0  0  0  0
  145.0402  134.5169  162.6894 C   0  0  0  0  0  0  0  0  0  0  0  0
  145.3731  133.1666  162.4757 C   0  0  0  0  0  0  0  0  0  0  0  0
  146.4896  132.8374  161.6851 C   0  0  0  0  0  0  0  0  0  0  0  0
  147.2729  133.8560  161.1081 C   0  0  0  0  0  0  0  0  0  0  0  0
  148.4742  132.2310  153.4928 H   0  0  0  0  0  0  0  0  0  0  0  0
  149.7255  137.7455  160.1315 H   0  0  0  0  0  0  0  0  0  0  0  0
  150.8184  136.4434  159.6717 H   0  0  0  0  0  0  0  0  0  0  0  0
  148.7356  137.8711  157.9901 H   0  0  0  0  0  0  0  0  0  0  0  0
  148.1967  136.2452  155.6754 H   0  0  0  0  0  0  0  0  0  0  0  0
  150.9942  134.2190  157.0858 H   0  0  0  0  0  0  0  0  0  0  0  0
  151.5089  131.9665  156.4347 H   0  0  0  0  0  0  0  0  0  0  0  0
  149.8709  137.7593  155.2808 H   0  0  0  0  0  0  0  0  0  0  0  0
  151.1734  136.3396  154.2293 H   0  0  0  0  0  0  0  0  0  0  0  0
  151.5390  136.7664  157.6101 H   0  0  0  0  0  0  0  0  0  0  0  0
  150.3903  140.9174  156.4879 H   0  0  0  0  0  0  0  0  0  0  0  0
  150.4677  143.3768  156.3145 H   0  0  0  0  0  0  0  0  0  0  0  0
  151.7660  144.7126  157.9634 H   0  0  0  0  0  0  0  0  0  0  0  0
  152.9951  143.5652  159.7958 H   0  0  0  0  0  0  0  0  0  0  0  0
  152.9369  141.1147  159.9933 H   0  0  0  0  0  0  0  0  0  0  0  0
  145.5469  136.5663  162.2920 H   0  0  0  0  0  0  0  0  0  0  0  0
  144.1836  134.7715  163.2960 H   0  0  0  0  0  0  0  0  0  0  0  0
  144.7735  132.3846  162.9176 H   0  0  0  0  0  0  0  0  0  0  0  0
  146.7461  131.8012  161.5209 H   0  0  0  0  0  0  0  0  0  0  0  0
  148.1235  133.5683  160.5076 H   0  0  0  0  0  0  0  0  0  0  0  0
  1  2  2  0  0  0  0
  2  3  1  0  0  0  0
  2 28  1  0  0  0  0
  3  4  1  0  0  0  0
  4  5  1  0  0  0  0
  4 35  1  0  0  0  0
  4 36  1  0  0  0  0
  5 18  1  0  0  0  0
  5  6  1  0  0  0  0
  5 37  1  0  0  0  0
  6  7  1  0  0  0  0
  7  8  1  0  0  0  0
  7 16  1  0  0  0  0
  7 38  1  0  0  0  0
  8 14  1  0  0  0  0
  8  9  1  0  0  0  0
  9 10  2  0  0  0  0
  9 39  1  0  0  0  0
 10 11  1  0  0  0  0
 10 40  1  0  0  0  0
 11 12  2  0  0  0  0
 11 13  1  0  0  0  0
 13 34  1  0  0  0  0
 13 14  1  0  0  0  0
 14 15  2  0  0  0  0
 16 17  1  0  0  0  0
 16 18  1  0  0  0  0
 16 41  1  0  0  0  0
 17 42  1  0  0  0  0
 18 19  1  0  0  0  0
 18 43  1  0  0  0  0
 19 20  1  0  0  0  0
 20 21  2  0  0  0  0
 20 22  1  0  0  0  0
 22 27  1  0  0  0  0
 22 23  2  0  0  0  0
 23 24  1  0  0  0  0
 23 44  1  0  0  0  0
 24 25  2  0  0  0  0
 24 45  1  0  0  0  0
 25 26  1  0  0  0  0
 25 46  1  0  0  0  0
 26 27  2  0  0  0  0
 26 47  1  0  0  0  0
 27 48  1  0  0  0  0
 28 33  1  0  0  0  0
 28 29  2  0  0  0  0
 29 30  1  0  0  0  0
 29 49  1  0  0  0  0
 30 31  2  0  0  0  0
 30 50  1  0  0  0  0
 31 32  1  0  0  0  0
 31 51  1  0  0  0  0
 32 33  2  0  0  0  0
 32 52  1  0  0  0  0
 33 53  1  0  0  0  0
M  END
> <s_m_source_file>
AV-unprocessed.smi

> <i_m_source_file_index>
99

> <i_lp_mmshare_version>
43012

> <i_f3d_flags>
0

> <s_epik_input>
W2NIXTFbY0hdW2NIXVtjSF1bY0hdYzFDKD1PKU9bQ0gyXVtDQEBIXTJPW0NAQEhdKG4zW2NIXVtjSF1jKD1PKVtuSF1jMz1PKVtDQEBIXShbT0hdKVtDQEhdMk9DKD1PKWM0W2NIXVtjSF1bY0hdW2NIXVtjSF00

> <s_epik_cmdline>
J2VwaWtfcHl0aG9uJywgJy1waCcsICc3LjAnLCAnLXRuJywgJzgnLCAnLW1hJywgJzIwMCcsICctbWV0YWxfYmluZGluZycsICctaW1hZScsICc8aW5maWxlLm1hZT4nLCAnLW9tYWUnLCAnPG91dGZpbGUubWFlPic=

> <r_lp_tautomer_probability>
1

> <r_epik_Ionization_Penalty>
0.00454555

> <r_epik_Ionization_Penalty_Charging>
0.0045191

> <r_epik_Ionization_Penalty_Neutral>
2.64449e-05

> <r_epik_State_Penalty>
-0

> <r_epik_Charging_Adjusted_Penalty>
0.0045191

> <i_epik_Tot_Q>
0

> <i_epik_Tot_abs_Q>
0

> <r_epik_Metal_State_Penalty>
1.27877

> <b_epik_Metal_Only>
0

> <s_epik_Chemistry_Notes>
This compound has an ester and may undergo hydrolysis at high or low pH. This compound contains an acetal/aminal-like group ( X-CH(R)-Y where X, Y are N, S, or O) that may be acid/base labile, releasing an aldehyde.

> <s_lp_Force_Field>
OPLS_2005

> <r_lp_Energy>
38.4241

> <b_lp_Chiralities_Consistent>
1

> <s_lp_Variant>
AV-unprocessed.smi:99-7

> <Gold.Version>
5.8.1

> <Gold.Id.Protein>
6NUR|6NUR_protein|mol2

> <Gold.PLP.Fitness>
54.4879

> <Gold.PLP.PLP>
-47.8725

> <Gold.PLP.part.hbond>
-3.7025

> <Gold.PLP.part.metal>
0.0000

> <Gold.PLP.part.buried>
-5.0177

> <Gold.PLP.part.nonpolar>
-41.5075

> <Gold.PLP.part.repulsive>
1.3318

> <Gold.PLP.ligand.clash>
0.0000

> <Gold.PLP.ligand.torsion>
0.9085

> <Gold.PLP.Chemscore.Hbond>
2.6560

> <Gold.PLP.Chemscore.CHOScore>
0.0000

> <Gold.PLP.Chemscore.Metal>
0.0000

> <Gold.Chemscore.Hbonds>
donor molecule, donor type, donor heavy atom, donor atom, acceptor molecule, acceptor atom, score
      P1  H  6931  6943       L1     1  0.58
      P1  H  6934  6947       L1     1  1.00
      P1  H 10752 10765       L1    17  0.70

> <Gold.PLP.Chemscore.Internal.Correction>
0.4644

> <Gold.Rescore>
     Score         DG    S(hbond)    S(metal)    S(lipo)     H(rot)  DE(clash)    DE(int)     intcor
     13.35     -17.04       1.67        0.00     121.04       3.19       0.56       3.13       ----

> <Gold.Chemscore.Fitness>
13.3529

> <Gold.Chemscore.DG>
-17.0420

> <Gold.Chemscore.ZeroCoef>
-5.4800

> <Gold.Chemscore.Hbond>
1.6671

> <Gold.Chemscore.Metal>
0.0000

> <Gold.Chemscore.Lipo>
121.0350

> <Gold.Chemscore.Internal_Hbond>
0.0000

> <Gold.Chemscore.DEClash>
0.5588

> <Gold.Chemscore.DEInternal>
3.1303

> <Gold.Chemscore.Rot>
3.1903

> <Gold.Chemscore.Internal.Correction>
   9.000000E+99

> <Gold.Chemscore.Hbonds>
donor molecule, donor type, donor heavy atom, donor atom, acceptor molecule, acceptor atom, score
      P1  H  6931  6943       L1     1  0.17
      P1  H  6934  6947       L1     1  0.90
      P1  H 10752 10765       L1    17  0.07

> <Gold.Chemscore.Hbond.Weighted>
-5.5680

> <Gold.Chemscore.Metal.Weighted>
-0.0000

> <Gold.Chemscore.Lipo.Weighted>
-14.1611

> <Gold.Chemscore.Internal_Hbond.Weighted>
0.0000

> <Gold.Chemscore.DEClash.Weighted>
0.5588

> <Gold.Chemscore.DEInternal.Weighted>
3.1303

> <Gold.Chemscore.Rot.Weighted>
8.1671

> <Gold.Chemscore.Internal.Correction.Weighted>
   9.000000E+99

> <Gold.Protein.RotatedTorsions>
[ 6907 6896 6895 6894 ] final   50.14 input  -60.11 | X-H torsion
[ 7974 7965 7964 7962 ] final   -8.59 input  175.53 | X-H torsion
[ 8008 7997 7996 7995 ] final -175.31 input   59.86 | X-H torsion
[ 10167 10162 10161 10158 ] final   38.76 input  -65.29 | X-H torsion
[ 10718 10713 10712 10709 ] final  -53.08 input   66.30 | X-H torsion
[ 10763 10752 10751 10750 ] final -157.95 input  -60.55 | X-H torsion
[ 11005 11000 10999 10996 ] final  -49.80 input  -57.11 | X-H torsion

> <Gold.Protein.ActiveResidues>
 VAL166  LYS551  ARG553  GLY616  TRP617  ASP618  TYR619  PRO620  LYS621  CYS622 
 ASP623  PHE694  ASN695  SER759  ASP760  ASP761  ALA762  ILE779  LEU786  VAL792 
 PHE793  MET794  SER795  GLU796  ALA797  LYS798  CYS799  TRP800  GLU811  SER814 

> <Gold.Protein.RotatedAtoms>
  152.2985  134.7638  160.0362 H   0  0  0  0  0  0  0  0  0  0  0  0  # atno 6907 bound_to 6896
  151.8160  133.3383  159.3577 H   0  0  0  0  0  0  0  0  0  0  0  0  # atno 6908 bound_to 6896
  150.7263  134.5549  159.5857 H   0  0  0  0  0  0  0  0  0  0  0  0  # atno 6909 bound_to 6896
  146.2276  140.2490  142.8346 H   0  0  0  0  0  0  0  0  0  0  0  0  # atno 7974 bound_to 7965
  155.9809  140.1181  157.0727 H   0  0  0  0  0  0  0  0  0  0  0  0  # atno 8008 bound_to 7997
  154.4182  140.1144  156.5502 H   0  0  0  0  0  0  0  0  0  0  0  0  # atno 8009 bound_to 7997
  155.6472  140.3473  155.4737 H   0  0  0  0  0  0  0  0  0  0  0  0  # atno 8010 bound_to 7997
  140.3905  144.1859  150.6131 H   0  0  0  0  0  0  0  0  0  0  0  0  # atno 10167 bound_to 10162
  156.1566  130.4150  149.9859 H   0  0  0  0  0  0  0  0  0  0  0  0  # atno 10718 bound_to 10713
  154.7595  135.3114  154.8405 H   0  0  0  0  0  0  0  0  0  0  0  0  # atno 10763 bound_to 10752
  153.9169  135.6800  153.4753 H   0  0  0  0  0  0  0  0  0  0  0  0  # atno 10764 bound_to 10752
  153.1195  135.4829  154.9103 H   0  0  0  0  0  0  0  0  0  0  0  0  # atno 10765 bound_to 10752
  141.0780  133.6661  156.3638 H   0  0  0  0  0  0  0  0  0  0  0  0  # atno 11005 bound_to 11000
  144.9426  140.8094  143.5621 LP  0  0  0  0  0  0  0  0  0  0  0  0  # atno 17320 bound_to 7965
  145.2443  139.2059  143.4976 LP  0  0  0  0  0  0  0  0  0  0  0  0  # atno 17321 bound_to 7965
  140.4845  143.2368  151.8908 LP  0  0  0  0  0  0  0  0  0  0  0  0  # atno 17342 bound_to 10162
  139.4789  144.5234  151.8770 LP  0  0  0  0  0  0  0  0  0  0  0  0  # atno 17343 bound_to 10162
  156.7701  130.9183  151.3644 LP  0  0  0  0  0  0  0  0  0  0  0  0  # atno 17370 bound_to 10713
  157.6700  130.9042  150.0018 LP  0  0  0  0  0  0  0  0  0  0  0  0  # atno 17371 bound_to 10713
  140.5531  134.6008  157.5413 LP  0  0  0  0  0  0  0  0  0  0  0  0  # atno 17394 bound_to 11000
  139.9592  134.7481  156.0273 LP  0  0  0  0  0  0  0  0  0  0  0  0  # atno 17395 bound_to 11000

$$$$
