AV-unprocessed.smi:1103|AV-procd|sdf|4772|dock7
  -GOLD-   22720 3313D 1   1.00000     0.00000
 Structure written by MMmdl.
 44 45  0  0  0  0  0  0  0  0  2 V2000
  144.7754  143.5016  154.6822 C   0  0  0  0  0  0  0  0  0  0  0  0
  145.8993  142.9597  153.7881 C   0  0  0  0  0  0  0  0  0  0  0  0
  146.1192  141.5012  153.9632 N   0  3  2  0  0  0  0  0  0  0  0  0
  145.9562  141.0824  155.3800 C   0  0  0  0  0  0  0  0  0  0  0  0
  146.0698  139.5573  155.5339 C   0  0  0  0  0  0  0  0  0  0  0  0
  147.3886  139.0381  154.9429 C   0  0  0  0  0  0  0  0  0  0  0  0
  147.5654  139.4989  153.4838 C   0  0  1  0  0  0  0  0  0  0  0  0
  146.6407  138.7215  152.5171 C   0  0  0  0  0  0  0  0  0  0  0  0
  146.7453  137.2742  152.6758 N   0  0  0  0  0  0  0  0  0  0  0  0
  145.7775  136.4711  153.1445 C   0  0  0  0  0  0  0  0  0  0  0  0
  144.6587  136.8733  153.4634 O   0  0  0  0  0  0  0  0  0  0  0  0
  146.1222  134.9871  153.2756 C   0  0  0  0  0  0  0  0  0  0  0  0
  145.5762  134.2288  152.1652 N   0  0  0  0  0  0  0  0  0  0  0  0
  146.2497  133.4583  151.2406 C   0  0  0  0  0  0  0  0  0  0  0  0
  145.3224  132.9474  150.3772 C   0  0  0  0  0  0  0  0  0  0  0  0
  145.5381  132.0492  149.1934 C   0  0  0  0  0  0  0  0  0  0  0  0
  144.0916  133.4707  150.8666 C   0  0  0  0  0  0  0  0  0  0  0  0
  144.2458  134.2373  151.9342 N   0  0  0  0  0  0  0  0  0  0  0  0
  147.4183  141.0368  153.4045 C   0  0  0  0  0  0  0  0  0  0  0  0
  144.6778  144.5806  154.5618 H   0  0  0  0  0  0  0  0  0  0  0  0
  144.9838  143.3082  155.7346 H   0  0  0  0  0  0  0  0  0  0  0  0
  143.8077  143.0617  154.4426 H   0  0  0  0  0  0  0  0  0  0  0  0
  145.6995  143.1846  152.7393 H   0  0  0  0  0  0  0  0  0  0  0  0
  146.8127  143.4964  154.0482 H   0  0  0  0  0  0  0  0  0  0  0  0
  146.7102  141.5780  155.9938 H   0  0  0  0  0  0  0  0  0  0  0  0
  144.9831  141.4056  155.7517 H   0  0  0  0  0  0  0  0  0  0  0  0
  146.0066  139.2868  156.5885 H   0  0  0  0  0  0  0  0  0  0  0  0
  145.2229  139.0731  155.0469 H   0  0  0  0  0  0  0  0  0  0  0  0
  148.2193  139.4136  155.5421 H   0  0  0  0  0  0  0  0  0  0  0  0
  147.4327  137.9506  155.0111 H   0  0  0  0  0  0  0  0  0  0  0  0
  148.5892  139.2567  153.1946 H   0  0  0  0  0  0  0  0  0  0  0  0
  145.6025  138.9887  152.7170 H   0  0  0  0  0  0  0  0  0  0  0  0
  146.8260  139.0086  151.4813 H   0  0  0  0  0  0  0  0  0  0  0  0
  147.6343  136.8539  152.4438 H   0  0  0  0  0  0  0  0  0  0  0  0
  147.2059  134.8638  153.2864 H   0  0  0  0  0  0  0  0  0  0  0  0
  145.7438  134.5803  154.2151 H   0  0  0  0  0  0  0  0  0  0  0  0
  147.3232  133.3418  151.2717 H   0  0  0  0  0  0  0  0  0  0  0  0
  144.7064  132.0992  148.4903 H   0  0  0  0  0  0  0  0  0  0  0  0
  145.6430  131.0069  149.4945 H   0  0  0  0  0  0  0  0  0  0  0  0
  146.4398  132.3174  148.6422 H   0  0  0  0  0  0  0  0  0  0  0  0
  143.0955  133.3181  150.4776 H   0  0  0  0  0  0  0  0  0  0  0  0
  147.5390  141.3722  152.3760 H   0  0  0  0  0  0  0  0  0  0  0  0
  148.2273  141.5067  153.9662 H   0  0  0  0  0  0  0  0  0  0  0  0
  145.3892  141.0362  153.4418 H   0  0  0  0  0  0  0  0  0  0  0  0
  1  2  1  0  0  0  0
  1 20  1  0  0  0  0
  1 21  1  0  0  0  0
  1 22  1  0  0  0  0
  2  3  1  0  0  0  0
  2 23  1  0  0  0  0
  2 24  1  0  0  0  0
  3 19  1  0  0  0  0
  3  4  1  0  0  0  0
  3 44  1  0  0  0  0
  4  5  1  0  0  0  0
  4 25  1  0  0  0  0
  4 26  1  0  0  0  0
  5  6  1  0  0  0  0
  5 27  1  0  0  0  0
  5 28  1  0  0  0  0
  6  7  1  0  0  0  0
  6 29  1  0  0  0  0
  6 30  1  0  0  0  0
  7  8  1  0  0  0  0
  7 19  1  0  0  0  0
  7 31  1  0  0  0  0
  8  9  1  0  0  0  0
  8 32  1  0  0  0  0
  8 33  1  0  0  0  0
  9 10  1  0  0  0  0
  9 34  1  0  0  0  0
 10 11  2  0  0  0  0
 10 12  1  0  0  0  0
 12 13  1  0  0  0  0
 12 35  1  0  0  0  0
 12 36  1  0  0  0  0
 13 18  1  0  0  0  0
 13 14  1  0  0  0  0
 14 15  2  0  0  0  0
 14 37  1  0  0  0  0
 15 16  1  0  0  0  0
 15 17  1  0  0  0  0
 16 38  1  0  0  0  0
 16 39  1  0  0  0  0
 16 40  1  0  0  0  0
 17 18  2  0  0  0  0
 17 41  1  0  0  0  0
 19 42  1  0  0  0  0
 19 43  1  0  0  0  0
M  CHG  1   3   1
M  END
> <s_m_source_file>
AV-unprocessed.smi

> <i_m_source_file_index>
1103

> <i_lp_mmshare_version>
43012

> <i_f3d_flags>
0

> <s_epik_input>
W0NIM11bQ0gyXU4xW0NIMl1bQ0gyXVtDSDJdW0NASF0oW0NIMl0xKVtDSDJdW05IXUMoPU8pW0NIMl1uMltjSF1jKFtDSDNdKVtjSF1uMg==

> <s_epik_cmdline>
J2VwaWtfcHl0aG9uJywgJy1waCcsICc3LjAnLCAnLXRuJywgJzgnLCAnLW1hJywgJzIwMCcsICctbWV0YWxfYmluZGluZycsICctaW1hZScsICc8aW5maWxlLm1hZT4nLCAnLW9tYWUnLCAnPG91dGZpbGUubWFlPic=

> <r_lp_tautomer_probability>
1

> <r_epik_Ionization_Penalty>
0.000672456

> <r_epik_Ionization_Penalty_Charging>
0.000647327

> <r_epik_Ionization_Penalty_Neutral>
2.51297e-05

> <r_epik_State_Penalty>
0.000409793

> <r_epik_Charging_Adjusted_Penalty>
0.00105712

> <i_epik_Tot_Q>
1

> <i_epik_Tot_abs_Q>
1

> <r_epik_Metal_State_Penalty>
-0

> <b_epik_Metal_Only>
0

> <s_lp_Force_Field>
OPLS_2005

> <r_lp_Energy>
19.6745

> <b_lp_Chiralities_Consistent>
1

> <s_lp_Variant>
AV-unprocessed.smi:1103-2

> <Gold.Version>
5.8.1

> <Gold.Id.Protein>
6NUR|6NUR_protein|mol2

> <Gold.PLP.Fitness>
42.4027

> <Gold.PLP.PLP>
-31.3516

> <Gold.PLP.part.hbond>
-2.0000

> <Gold.PLP.part.metal>
0.0000

> <Gold.PLP.part.buried>
-4.5967

> <Gold.PLP.part.nonpolar>
-25.2177

> <Gold.PLP.part.repulsive>
0.3127

> <Gold.PLP.ligand.clash>
0.0000

> <Gold.PLP.ligand.torsion>
0.4961

> <Gold.PLP.Chemscore.Hbond>
3.0000

> <Gold.PLP.Chemscore.CHOScore>
1.0000

> <Gold.PLP.Chemscore.Metal>
0.0000

> <Gold.Chemscore.Hbonds>
donor molecule, donor type, donor heavy atom, donor atom, acceptor molecule, acceptor atom, score
      L1  H     3    44       P1 10175  2.00
      L1  H     9    34       P1  7948  1.00
      L1  C    17    41       P1 10186  0.99

> <Gold.PLP.Chemscore.Internal.Correction>
0.0432

> <Gold.Rescore>
     Score         DG    S(hbond)    S(metal)    S(lipo)     H(rot)  DE(clash)    DE(int)     intcor
     15.26     -16.42       1.88        0.00      76.48       1.68       0.01       1.14       ----

> <Gold.Chemscore.Fitness>
15.2646

> <Gold.Chemscore.DG>
-16.4178

> <Gold.Chemscore.ZeroCoef>
-5.4800

> <Gold.Chemscore.Hbond>
1.8850

> <Gold.Chemscore.Metal>
0.0000

> <Gold.Chemscore.Lipo>
76.4827

> <Gold.Chemscore.Internal_Hbond>
0.0000

> <Gold.Chemscore.DEClash>
0.0094

> <Gold.Chemscore.DEInternal>
1.1437

> <Gold.Chemscore.Rot>
1.6823

> <Gold.Chemscore.Internal.Correction>
   9.000000E+99

> <Gold.Chemscore.Hbonds>
donor molecule, donor type, donor heavy atom, donor atom, acceptor molecule, acceptor atom, score
      L1  H     3    44       P1 10175  0.52
      L1  H     9    34       P1  7948  0.96

> <Gold.Chemscore.Hbond.Weighted>
-6.2959

> <Gold.Chemscore.Metal.Weighted>
-0.0000

> <Gold.Chemscore.Lipo.Weighted>
-8.9485

> <Gold.Chemscore.Internal_Hbond.Weighted>
0.0000

> <Gold.Chemscore.DEClash.Weighted>
0.0094

> <Gold.Chemscore.DEInternal.Weighted>
1.1437

> <Gold.Chemscore.Rot.Weighted>
4.3066

> <Gold.Chemscore.Internal.Correction.Weighted>
   9.000000E+99

> <Gold.Protein.RotatedTorsions>
[ 6907 6896 6895 6894 ] final  -56.91 input  -60.11 | X-H torsion
[ 7974 7965 7964 7962 ] final -172.68 input  175.53 | X-H torsion
[ 8008 7997 7996 7995 ] final   15.76 input   59.86 | X-H torsion
[ 10167 10162 10161 10158 ] final   67.83 input  -65.29 | X-H torsion
[ 10718 10713 10712 10709 ] final -110.29 input   66.30 | X-H torsion
[ 10763 10752 10751 10750 ] final -140.61 input  -60.55 | X-H torsion
[ 11005 11000 10999 10996 ] final  -84.65 input  -57.11 | X-H torsion

> <Gold.Protein.ActiveResidues>
 VAL166  LYS551  ARG553  GLY616  TRP617  ASP618  TYR619  PRO620  LYS621  CYS622 
 ASP623  PHE694  ASN695  SER759  ASP760  ASP761  ALA762  ILE779  LEU786  VAL792 
 PHE793  MET794  SER795  GLU796  ALA797  LYS798  CYS799  TRP800  GLU811  SER814 

> <Gold.Protein.RotatedAtoms>
  150.8129  134.7294  159.6703 H   0  0  0  0  0  0  0  0  0  0  0  0  # atno 6907 bound_to 6896
  152.4249  134.5884  159.9977 H   0  0  0  0  0  0  0  0  0  0  0  0  # atno 6908 bound_to 6896
  151.6089  133.3312  159.3099 H   0  0  0  0  0  0  0  0  0  0  0  0  # atno 6909 bound_to 6896
  144.7144  140.1736  143.6365 H   0  0  0  0  0  0  0  0  0  0  0  0  # atno 7974 bound_to 7965
  154.8673  140.2953  155.5502 H   0  0  0  0  0  0  0  0  0  0  0  0  # atno 8008 bound_to 7997
  156.3021  140.2467  156.3590 H   0  0  0  0  0  0  0  0  0  0  0  0  # atno 8009 bound_to 7997
  154.8854  140.0396  157.1796 H   0  0  0  0  0  0  0  0  0  0  0  0  # atno 8010 bound_to 7997
  140.0852  144.5036  150.7135 H   0  0  0  0  0  0  0  0  0  0  0  0  # atno 10167 bound_to 10162
  156.0583  130.5808  150.8217 H   0  0  0  0  0  0  0  0  0  0  0  0  # atno 10718 bound_to 10713
  154.8573  135.3548  154.5736 H   0  0  0  0  0  0  0  0  0  0  0  0  # atno 10763 bound_to 10752
  153.6348  135.7001  153.5267 H   0  0  0  0  0  0  0  0  0  0  0  0  # atno 10764 bound_to 10752
  153.3020  135.4204  155.1220 H   0  0  0  0  0  0  0  0  0  0  0  0  # atno 10765 bound_to 10752
  141.1648  133.7357  156.8899 H   0  0  0  0  0  0  0  0  0  0  0  0  # atno 11005 bound_to 11000
  145.8921  139.2382  143.1543 LP  0  0  0  0  0  0  0  0  0  0  0  0  # atno 17320 bound_to 7965
  145.9893  140.8616  143.0074 LP  0  0  0  0  0  0  0  0  0  0  0  0  # atno 17321 bound_to 7965
  140.7057  143.2466  151.4733 LP  0  0  0  0  0  0  0  0  0  0  0  0  # atno 17342 bound_to 10162
  139.5756  144.1827  152.1898 LP  0  0  0  0  0  0  0  0  0  0  0  0  # atno 17343 bound_to 10162
  157.5571  131.0945  150.9613 LP  0  0  0  0  0  0  0  0  0  0  0  0  # atno 17370 bound_to 10713
  156.9859  130.5545  149.5299 LP  0  0  0  0  0  0  0  0  0  0  0  0  # atno 17371 bound_to 10713
  140.1656  134.9136  157.2769 LP  0  0  0  0  0  0  0  0  0  0  0  0  # atno 17394 bound_to 11000
  140.2561  134.3626  155.7424 LP  0  0  0  0  0  0  0  0  0  0  0  0  # atno 17395 bound_to 11000

$$$$
