AV-unprocessed.smi:1200|AV-procd|sdf|5026|dock4
  -GOLD-   22720 4 43D 1   1.00000     0.00000
 Structure written by MMmdl.
 42 43  0  0  0  0  0  0  0  0  3 V2000
  144.0319  146.5287  154.9466 C   0  0  0  0  0  0  0  0  0  0  0  0
  143.8302  145.1089  154.6820 N   0  5  0  0  0  0  0  0  0  0  0  0
  144.4043  144.1199  155.4180 C   0  0  0  0  0  0  0  0  0  0  0  0
  145.1439  144.1763  156.4064 O   0  0  0  0  0  0  0  0  0  0  0  0
  144.0074  142.7362  154.8906 C   0  0  0  0  0  0  0  0  0  0  0  0
  145.2139  141.9930  154.4501 N   0  3  2  0  0  0  0  0  0  0  0  0
  145.9009  141.3139  155.5774 C   0  0  0  0  0  0  0  0  0  0  0  0
  147.0560  140.4284  155.0754 C   0  0  0  0  0  0  0  0  0  0  0  0
  148.0618  141.2172  154.2190 C   0  0  2  0  0  0  0  0  0  0  0  0
  148.8496  142.1224  155.0554 N   0  0  0  0  0  0  0  0  0  0  0  0
  149.6774  141.7443  156.0403 C   0  0  0  0  0  0  0  0  0  0  0  0
  149.8796  140.5684  156.3413 O   0  0  0  0  0  0  0  0  0  0  0  0
  150.2550  142.8086  156.6235 N   0  0  0  0  0  0  0  0  0  0  0  0
  151.1790  142.8366  157.7033 C   0  0  0  0  0  0  0  0  0  0  0  0
  151.6362  141.6886  158.3949 C   0  0  0  0  0  0  0  0  0  0  0  0
  152.5422  141.8527  159.4605 C   0  0  0  0  0  0  0  0  0  0  0  0
  152.9521  143.1564  159.8010 C   0  0  0  0  0  0  0  0  0  0  0  0
  152.5142  144.2602  159.1600 N   0  0  0  0  0  0  0  0  0  0  0  0
  151.6458  144.0950  158.1396 C   0  0  0  0  0  0  0  0  0  0  0  0
  147.3152  141.9737  153.1027 C   0  0  0  0  0  0  0  0  0  0  0  0
  146.1573  142.8238  153.6545 C   0  0  0  0  0  0  0  0  0  0  0  0
  143.5061  147.1541  154.2255 H   0  0  0  0  0  0  0  0  0  0  0  0
  145.0824  146.8172  154.8982 H   0  0  0  0  0  0  0  0  0  0  0  0
  143.6687  146.8222  155.9319 H   0  0  0  0  0  0  0  0  0  0  0  0
  143.4396  142.1489  155.6160 H   0  0  0  0  0  0  0  0  0  0  0  0
  143.3417  142.9034  154.0427 H   0  0  0  0  0  0  0  0  0  0  0  0
  146.2697  142.0601  156.2828 H   0  0  0  0  0  0  0  0  0  0  0  0
  145.1882  140.6917  156.1199 H   0  0  0  0  0  0  0  0  0  0  0  0
  147.5627  139.9585  155.9193 H   0  0  0  0  0  0  0  0  0  0  0  0
  146.6430  139.6136  154.4792 H   0  0  0  0  0  0  0  0  0  0  0  0
  148.7460  140.5009  153.7604 H   0  0  0  0  0  0  0  0  0  0  0  0
  148.7485  143.1107  154.8773 H   0  0  0  0  0  0  0  0  0  0  0  0
  150.0468  143.7067  156.2125 H   0  0  0  0  0  0  0  0  0  0  0  0
  151.3047  140.6936  158.1432 H   0  0  0  0  0  0  0  0  0  0  0  0
  152.9112  140.9979  160.0074 H   0  0  0  0  0  0  0  0  0  0  0  0
  153.6453  143.3169  160.6133 H   0  0  0  0  0  0  0  0  0  0  0  0
  151.3161  145.0005  157.6511 H   0  0  0  0  0  0  0  0  0  0  0  0
  148.0040  142.6018  152.5365 H   0  0  0  0  0  0  0  0  0  0  0  0
  146.9144  141.2517  152.3900 H   0  0  0  0  0  0  0  0  0  0  0  0
  145.6354  143.2920  152.8195 H   0  0  0  0  0  0  0  0  0  0  0  0
  146.5439  143.6343  154.2742 H   0  0  0  0  0  0  0  0  0  0  0  0
  144.8763  141.2628  153.8391 H   0  0  0  0  0  0  0  0  0  0  0  0
  1  2  1  0  0  0  0
  1 22  1  0  0  0  0
  1 23  1  0  0  0  0
  1 24  1  0  0  0  0
  2  3  1  0  0  0  0
  3  4  2  0  0  0  0
  3  5  1  0  0  0  0
  5  6  1  0  0  0  0
  5 25  1  0  0  0  0
  5 26  1  0  0  0  0
  6 21  1  0  0  0  0
  6  7  1  0  0  0  0
  6 42  1  0  0  0  0
  7  8  1  0  0  0  0
  7 27  1  0  0  0  0
  7 28  1  0  0  0  0
  8  9  1  0  0  0  0
  8 29  1  0  0  0  0
  8 30  1  0  0  0  0
  9 10  1  0  0  0  0
  9 20  1  0  0  0  0
  9 31  1  0  0  0  0
 10 11  1  0  0  0  0
 10 32  1  0  0  0  0
 11 12  2  0  0  0  0
 11 13  1  0  0  0  0
 13 14  1  0  0  0  0
 13 33  1  0  0  0  0
 14 19  1  0  0  0  0
 14 15  2  0  0  0  0
 15 16  1  0  0  0  0
 15 34  1  0  0  0  0
 16 17  2  0  0  0  0
 16 35  1  0  0  0  0
 17 18  1  0  0  0  0
 17 36  1  0  0  0  0
 18 19  2  0  0  0  0
 19 37  1  0  0  0  0
 20 21  1  0  0  0  0
 20 38  1  0  0  0  0
 20 39  1  0  0  0  0
 21 40  1  0  0  0  0
 21 41  1  0  0  0  0
M  CHG  1   2  -1
M  CHG  1   6   1
M  END
> <s_m_source_file>
AV-unprocessed.smi

> <i_m_source_file_index>
1200

> <i_lp_mmshare_version>
43012

> <i_f3d_flags>
0

> <s_epik_input>
W0NIM11bTkhdQyg9TylbQ0gyXU4xW0NIMl1bQ0gyXVtDSF0oW0NIMl1bQ0gyXTEpW05IXUMoPU8pW05IXWMyW2NIXVtjSF1bY0hdbltjSF0y

> <s_epik_cmdline>
J2VwaWtfcHl0aG9uJywgJy1waCcsICc3LjAnLCAnLXRuJywgJzgnLCAnLW1hJywgJzIwMCcsICctbWV0YWxfYmluZGluZycsICctaW1hZScsICc8aW5maWxlLm1hZT4nLCAnLW9tYWUnLCAnPG91dGZpbGUubWFlPic=

> <r_epik_Ionization_Penalty>
6.14345

> <r_epik_Ionization_Penalty_Charging>
6.13946

> <r_epik_Ionization_Penalty_Neutral>
0.00398477

> <r_epik_State_Penalty>
6.94483

> <r_epik_Charging_Adjusted_Penalty>
13.0843

> <i_epik_Tot_Q>
0

> <i_epik_Tot_abs_Q>
2

> <r_epik_Metal_State_Penalty>
2.87819

> <b_epik_Metal_Only>
1

> <s_lp_Force_Field>
OPLS_2005

> <r_lp_Energy>
15.1129

> <b_lp_Chiralities_Consistent>
1

> <s_lp_Variant>
AV-unprocessed.smi:1200-5

> <Gold.Version>
5.8.1

> <Gold.Id.Protein>
6NUR|6NUR_protein|mol2

> <Gold.PLP.Fitness>
46.5794

> <Gold.PLP.PLP>
-35.2632

> <Gold.PLP.part.hbond>
-2.9742

> <Gold.PLP.part.metal>
0.0000

> <Gold.PLP.part.buried>
-7.0181

> <Gold.PLP.part.nonpolar>
-26.7467

> <Gold.PLP.part.repulsive>
0.4917

> <Gold.PLP.ligand.clash>
0.0000

> <Gold.PLP.ligand.torsion>
0.2054

> <Gold.PLP.Chemscore.Hbond>
3.8940

> <Gold.PLP.Chemscore.CHOScore>
0.0000

> <Gold.PLP.Chemscore.Metal>
0.0000

> <Gold.Chemscore.Hbonds>
donor molecule, donor type, donor heavy atom, donor atom, acceptor molecule, acceptor atom, score
      L1  H     6    42       P1 10175  2.00
      L1  H    10    32       P1  8028  0.88
      L1  H    13    33       P1  8028  0.96

> <Gold.PLP.Chemscore.Internal.Correction>
0.0450

> <Gold.Rescore>
     Score         DG    S(hbond)    S(metal)    S(lipo)     H(rot)  DE(clash)    DE(int)     intcor
     17.88     -20.83       2.68        0.00      90.46       1.63       1.46       1.50       ----

> <Gold.Chemscore.Fitness>
17.8784

> <Gold.Chemscore.DG>
-20.8319

> <Gold.Chemscore.ZeroCoef>
-5.4800

> <Gold.Chemscore.Hbond>
2.6788

> <Gold.Chemscore.Metal>
0.0000

> <Gold.Chemscore.Lipo>
90.4558

> <Gold.Chemscore.Internal_Hbond>
0.0000

> <Gold.Chemscore.DEClash>
1.4561

> <Gold.Chemscore.DEInternal>
1.4974

> <Gold.Chemscore.Rot>
1.6323

> <Gold.Chemscore.Internal.Correction>
   9.000000E+99

> <Gold.Chemscore.Hbonds>
donor molecule, donor type, donor heavy atom, donor atom, acceptor molecule, acceptor atom, score
      L1  H     6    42       P1 10175  0.48
      L1  H    10    32       P1  8028  0.87
      L1  H    13    33       P1  8028  0.92

> <Gold.Chemscore.Hbond.Weighted>
-8.9472

> <Gold.Chemscore.Metal.Weighted>
-0.0000

> <Gold.Chemscore.Lipo.Weighted>
-10.5833

> <Gold.Chemscore.Internal_Hbond.Weighted>
0.0000

> <Gold.Chemscore.DEClash.Weighted>
1.4561

> <Gold.Chemscore.DEInternal.Weighted>
1.4974

> <Gold.Chemscore.Rot.Weighted>
4.1786

> <Gold.Chemscore.Internal.Correction.Weighted>
   9.000000E+99

> <Gold.Protein.RotatedTorsions>
[ 6907 6896 6895 6894 ] final -102.68 input  -60.11 | X-H torsion
[ 7974 7965 7964 7962 ] final  -36.94 input  175.53 | X-H torsion
[ 8008 7997 7996 7995 ] final  -34.66 input   59.86 | X-H torsion
[ 10167 10162 10161 10158 ] final  -92.56 input  -65.29 | X-H torsion
[ 10718 10713 10712 10709 ] final   26.55 input   66.30 | X-H torsion
[ 10763 10752 10751 10750 ] final -173.37 input  -60.55 | X-H torsion
[ 11005 11000 10999 10996 ] final -102.77 input  -57.11 | X-H torsion

> <Gold.Protein.ActiveResidues>
 VAL166  LYS551  ARG553  GLY616  TRP617  ASP618  TYR619  PRO620  LYS621  CYS622 
 ASP623  PHE694  ASN695  SER759  ASP760  ASP761  ALA762  ILE779  LEU786  VAL792 
 PHE793  MET794  SER795  GLU796  ALA797  LYS798  CYS799  TRP800  GLU811  SER814 

> <Gold.Protein.RotatedAtoms>
  150.7206  134.0545  159.3809 H   0  0  0  0  0  0  0  0  0  0  0  0  # atno 6907 bound_to 6896
  151.8523  135.0551  160.0469 H   0  0  0  0  0  0  0  0  0  0  0  0  # atno 6908 bound_to 6896
  152.2781  133.5408  159.5517 H   0  0  0  0  0  0  0  0  0  0  0  0  # atno 6909 bound_to 6896
  146.0618  140.6337  142.8993 H   0  0  0  0  0  0  0  0  0  0  0  0  # atno 7974 bound_to 7965
  154.4115  140.1678  156.2085 H   0  0  0  0  0  0  0  0  0  0  0  0  # atno 8008 bound_to 7997
  155.9464  140.3404  155.6347 H   0  0  0  0  0  0  0  0  0  0  0  0  # atno 8009 bound_to 7997
  155.6925  140.0735  157.2433 H   0  0  0  0  0  0  0  0  0  0  0  0  # atno 8010 bound_to 7997
  140.3335  143.2981  151.9915 H   0  0  0  0  0  0  0  0  0  0  0  0  # atno 10167 bound_to 10162
  157.2083  130.6922  149.6217 H   0  0  0  0  0  0  0  0  0  0  0  0  # atno 10718 bound_to 10713
  154.6086  135.2862  155.0457 H   0  0  0  0  0  0  0  0  0  0  0  0  # atno 10763 bound_to 10752
  154.1695  135.6475  153.5010 H   0  0  0  0  0  0  0  0  0  0  0  0  # atno 10764 bound_to 10752
  153.0185  135.5397  154.6831 H   0  0  0  0  0  0  0  0  0  0  0  0  # atno 10765 bound_to 10752
  141.1175  133.8586  157.1402 H   0  0  0  0  0  0  0  0  0  0  0  0  # atno 11005 bound_to 11000
  144.7179  140.4274  143.7030 LP  0  0  0  0  0  0  0  0  0  0  0  0  # atno 17320 bound_to 7965
  145.6547  139.1571  143.2842 LP  0  0  0  0  0  0  0  0  0  0  0  0  # atno 17321 bound_to 7965
  139.4852  144.6215  151.7246 LP  0  0  0  0  0  0  0  0  0  0  0  0  # atno 17342 bound_to 10162
  140.5375  144.0632  150.6076 LP  0  0  0  0  0  0  0  0  0  0  0  0  # atno 17343 bound_to 10162
  155.9693  130.4559  150.5907 LP  0  0  0  0  0  0  0  0  0  0  0  0  # atno 17370 bound_to 10713
  157.3698  131.0763  151.1567 LP  0  0  0  0  0  0  0  0  0  0  0  0  # atno 17371 bound_to 10713
  140.0107  134.9989  157.0388 LP  0  0  0  0  0  0  0  0  0  0  0  0  # atno 17394 bound_to 11000
  140.4605  134.1489  155.7191 LP  0  0  0  0  0  0  0  0  0  0  0  0  # atno 17395 bound_to 11000

$$$$
