AV-unprocessed.smi:556|AV-procd|sdf|2913|dock10
  -GOLD-   2262023403D 1   1.00000     0.00000
 Structure written by MMmdl.
 38 39  0  0  0  0  0  0  0  0  1 V2000
  147.0201  139.6618  153.2395 C   0  0  0  0  0  0  0  0  0  0  0  0
  147.6919  140.9498  153.7457 C   0  0  1  0  0  0  0  0  0  0  0  0
  146.7077  142.1270  153.9110 C   0  0  0  0  0  0  0  0  0  0  0  0
  145.8864  141.9550  155.0555 O   0  0  0  0  0  0  0  0  0  0  0  0
  146.6561  141.8988  156.2457 C   0  0  0  0  0  0  0  0  0  0  0  0
  147.5734  140.6694  156.1953 C   0  0  0  0  0  0  0  0  0  0  0  0
  148.4365  140.7016  155.0021 N   0  0  0  0  0  0  0  0  0  0  0  0
  149.7708  140.4589  155.0984 C   0  0  0  0  0  0  0  0  0  0  0  0
  150.4623  140.0900  154.1477 O   0  0  0  0  0  0  0  0  0  0  0  0
  150.3015  140.6767  156.3146 N   0  0  0  0  0  0  0  0  0  0  0  0
  151.7061  140.5052  156.6658 C   0  0  0  0  0  0  0  0  0  0  0  0
  151.9570  140.7826  158.1569 C   0  0  0  0  0  0  0  0  0  0  0  0
  151.7727  142.2382  158.4821 C   0  0  0  0  0  0  0  0  0  0  0  0
  151.2052  143.2534  157.6602 C   0  0  0  0  0  0  0  0  0  0  0  0
  151.1967  144.4417  158.2421 N   0  0  0  0  0  0  0  0  0  0  0  0
  151.7532  144.2271  159.4520 N   0  0  0  0  0  0  0  0  0  0  0  0
  151.9100  145.3333  160.3719 C   0  0  0  0  0  0  0  0  0  0  0  0
  152.1097  142.9072  159.6251 C   0  0  0  0  0  0  0  0  0  0  0  0
  146.5334  139.8281  152.2783 H   0  0  0  0  0  0  0  0  0  0  0  0
  146.2597  139.3042  153.9338 H   0  0  0  0  0  0  0  0  0  0  0  0
  147.7507  138.8639  153.1038 H   0  0  0  0  0  0  0  0  0  0  0  0
  148.3645  141.2745  152.9516 H   0  0  0  0  0  0  0  0  0  0  0  0
  147.2545  143.0676  153.9972 H   0  0  0  0  0  0  0  0  0  0  0  0
  146.0730  142.2193  153.0297 H   0  0  0  0  0  0  0  0  0  0  0  0
  147.2335  142.8163  156.3723 H   0  0  0  0  0  0  0  0  0  0  0  0
  145.9805  141.8272  157.0981 H   0  0  0  0  0  0  0  0  0  0  0  0
  148.1378  140.6272  157.1277 H   0  0  0  0  0  0  0  0  0  0  0  0
  146.9729  139.7598  156.1698 H   0  0  0  0  0  0  0  0  0  0  0  0
  149.6837  140.9895  157.0494 H   0  0  0  0  0  0  0  0  0  0  0  0
  152.0370  139.4995  156.4006 H   0  0  0  0  0  0  0  0  0  0  0  0
  152.2910  141.1951  156.0567 H   0  0  0  0  0  0  0  0  0  0  0  0
  151.2826  140.1693  158.7555 H   0  0  0  0  0  0  0  0  0  0  0  0
  152.9644  140.4616  158.4245 H   0  0  0  0  0  0  0  0  0  0  0  0
  150.8040  143.1623  156.6617 H   0  0  0  0  0  0  0  0  0  0  0  0
  152.1797  144.9615  161.3608 H   0  0  0  0  0  0  0  0  0  0  0  0
  150.9756  145.8907  160.4471 H   0  0  0  0  0  0  0  0  0  0  0  0
  152.6971  145.9985  160.0157 H   0  0  0  0  0  0  0  0  0  0  0  0
  152.5721  142.5555  160.5357 H   0  0  0  0  0  0  0  0  0  0  0  0
  1  2  1  0  0  0  0
  1 19  1  0  0  0  0
  1 20  1  0  0  0  0
  1 21  1  0  0  0  0
  2  7  1  0  0  0  0
  2  3  1  0  0  0  0
  2 22  1  0  0  0  0
  3  4  1  0  0  0  0
  3 23  1  0  0  0  0
  3 24  1  0  0  0  0
  4  5  1  0  0  0  0
  5  6  1  0  0  0  0
  5 25  1  0  0  0  0
  5 26  1  0  0  0  0
  6  7  1  0  0  0  0
  6 27  1  0  0  0  0
  6 28  1  0  0  0  0
  7  8  1  0  0  0  0
  8  9  2  0  0  0  0
  8 10  1  0  0  0  0
 10 11  1  0  0  0  0
 10 29  1  0  0  0  0
 11 12  1  0  0  0  0
 11 30  1  0  0  0  0
 11 31  1  0  0  0  0
 12 13  1  0  0  0  0
 12 32  1  0  0  0  0
 12 33  1  0  0  0  0
 13 18  2  0  0  0  0
 13 14  1  0  0  0  0
 14 15  2  0  0  0  0
 14 34  1  0  0  0  0
 15 16  1  0  0  0  0
 16 17  1  0  0  0  0
 16 18  1  0  0  0  0
 17 35  1  0  0  0  0
 17 36  1  0  0  0  0
 17 37  1  0  0  0  0
 18 38  1  0  0  0  0
M  END
> <s_m_source_file>
AV-unprocessed.smi

> <i_m_source_file_index>
556

> <i_lp_mmshare_version>
43012

> <i_f3d_flags>
0

> <s_epik_input>
W0NIM11bQ0BASF0xW0NIMl1PW0NIMl1bQ0gyXU4xQyg9TylbTkhdW0NIMl1bQ0gyXWMyW2NIXW5uKFtDSDNdKVtjSF0y

> <s_epik_cmdline>
J2VwaWtfcHl0aG9uJywgJy1waCcsICc3LjAnLCAnLXRuJywgJzgnLCAnLW1hJywgJzIwMCcsICctbWV0YWxfYmluZGluZycsICctaW1hZScsICc8aW5maWxlLm1hZT4nLCAnLW9tYWUnLCAnPG91dGZpbGUubWFlPic=

> <r_lp_tautomer_probability>
1

> <r_epik_Ionization_Penalty>
0.000536334

> <r_epik_Ionization_Penalty_Charging>
0

> <r_epik_Ionization_Penalty_Neutral>
0.000536334

> <r_epik_State_Penalty>
-0

> <r_epik_Charging_Adjusted_Penalty>
0

> <i_epik_Tot_Q>
0

> <i_epik_Tot_abs_Q>
0

> <r_epik_Metal_State_Penalty>
-0

> <b_epik_Metal_Only>
0

> <s_lp_Force_Field>
OPLS_2005

> <r_lp_Energy>
28.9332

> <b_lp_Chiralities_Consistent>
1

> <s_lp_Variant>
AV-unprocessed.smi:556-2

> <Gold.Version>
5.8.1

> <Gold.Id.Protein>
6NUR|6NUR_protein|mol2

> <Gold.PLP.Fitness>
40.7550

> <Gold.PLP.PLP>
-36.6913

> <Gold.PLP.part.hbond>
-0.8323

> <Gold.PLP.part.metal>
0.0000

> <Gold.PLP.part.buried>
-5.8453

> <Gold.PLP.part.nonpolar>
-31.0850

> <Gold.PLP.part.repulsive>
0.9481

> <Gold.PLP.ligand.clash>
0.7000

> <Gold.PLP.ligand.torsion>
0.3340

> <Gold.PLP.Chemscore.Hbond>
1.0000

> <Gold.PLP.Chemscore.CHOScore>
0.8068

> <Gold.PLP.Chemscore.Metal>
0.0000

> <Gold.Chemscore.Hbonds>
donor molecule, donor type, donor heavy atom, donor atom, acceptor molecule, acceptor atom, score
      P1  H  7989  7998       L1     9  1.00
      L1  C    14    34       P1  8028  0.60

> <Gold.PLP.Chemscore.Internal.Correction>
0.0115

> <Gold.Rescore>
     Score         DG    S(hbond)    S(metal)    S(lipo)     H(rot)  DE(clash)    DE(int)     intcor
     14.65     -14.85       0.98        0.00      82.86       1.40       0.01       0.20       ----

> <Gold.Chemscore.Fitness>
14.6480

> <Gold.Chemscore.DG>
-14.8532

> <Gold.Chemscore.ZeroCoef>
-5.4800

> <Gold.Chemscore.Hbond>
0.9771

> <Gold.Chemscore.Metal>
0.0000

> <Gold.Chemscore.Lipo>
82.8555

> <Gold.Chemscore.Internal_Hbond>
0.0000

> <Gold.Chemscore.DEClash>
0.0075

> <Gold.Chemscore.DEInternal>
0.1978

> <Gold.Chemscore.Rot>
1.4001

> <Gold.Chemscore.Internal.Correction>
   9.000000E+99

> <Gold.Chemscore.Hbonds>
donor molecule, donor type, donor heavy atom, donor atom, acceptor molecule, acceptor atom, score
      P1  H  7989  7998       L1     9  0.93

> <Gold.Chemscore.Hbond.Weighted>
-3.2634

> <Gold.Chemscore.Metal.Weighted>
-0.0000

> <Gold.Chemscore.Lipo.Weighted>
-9.6941

> <Gold.Chemscore.Internal_Hbond.Weighted>
0.0000

> <Gold.Chemscore.DEClash.Weighted>
0.0075

> <Gold.Chemscore.DEInternal.Weighted>
0.1978

> <Gold.Chemscore.Rot.Weighted>
3.5842

> <Gold.Chemscore.Internal.Correction.Weighted>
   9.000000E+99

> <Gold.Protein.RotatedTorsions>
[ 6907 6896 6895 6894 ] final  120.21 input  -60.11 | X-H torsion
[ 7974 7965 7964 7962 ] final  141.25 input  175.53 | X-H torsion
[ 8008 7997 7996 7995 ] final  -29.70 input   59.86 | X-H torsion
[ 10167 10162 10161 10158 ] final -163.60 input  -65.29 | X-H torsion
[ 10718 10713 10712 10709 ] final -165.45 input   66.30 | X-H torsion
[ 10763 10752 10751 10750 ] final  -88.30 input  -60.55 | X-H torsion
[ 11005 11000 10999 10996 ] final   18.78 input  -57.11 | X-H torsion

> <Gold.Protein.ActiveResidues>
 VAL166  LYS551  ARG553  GLY616  TRP617  ASP618  TYR619  PRO620  LYS621  CYS622 
 ASP623  PHE694  ASN695  SER759  ASP760  ASP761  ALA762  ILE779  LEU786  VAL792 
 PHE793  MET794  SER795  GLU796  ALA797  LYS798  CYS799  TRP800  GLU811  SER814 

> <Gold.Protein.RotatedAtoms>
  152.4415  133.7457  159.6665 H   0  0  0  0  0  0  0  0  0  0  0  0  # atno 6907 bound_to 6896
  150.8307  133.8086  159.3106 H   0  0  0  0  0  0  0  0  0  0  0  0  # atno 6908 bound_to 6896
  151.5740  135.1064  160.0053 H   0  0  0  0  0  0  0  0  0  0  0  0  # atno 6909 bound_to 6896
  144.9113  139.5289  143.5707 H   0  0  0  0  0  0  0  0  0  0  0  0  # atno 7974 bound_to 7965
  154.4279  140.1811  156.1289 H   0  0  0  0  0  0  0  0  0  0  0  0  # atno 8008 bound_to 7997
  156.0084  140.3353  155.6890 H   0  0  0  0  0  0  0  0  0  0  0  0  # atno 8009 bound_to 7997
  155.6146  140.0653  157.2687 H   0  0  0  0  0  0  0  0  0  0  0  0  # atno 8010 bound_to 7997
  139.6309  144.0441  152.2015 H   0  0  0  0  0  0  0  0  0  0  0  0  # atno 10167 bound_to 10162
  156.6536  130.9017  151.3017 H   0  0  0  0  0  0  0  0  0  0  0  0  # atno 10718 bound_to 10713
  154.6431  135.5382  153.7812 H   0  0  0  0  0  0  0  0  0  0  0  0  # atno 10763 bound_to 10752
  153.0344  135.6464  154.1130 H   0  0  0  0  0  0  0  0  0  0  0  0  # atno 10764 bound_to 10752
  154.1053  135.2930  155.3222 H   0  0  0  0  0  0  0  0  0  0  0  0  # atno 10765 bound_to 10752
  140.4210  134.1519  155.7673 H   0  0  0  0  0  0  0  0  0  0  0  0  # atno 11005 bound_to 11000
  146.3160  139.7921  142.8983 LP  0  0  0  0  0  0  0  0  0  0  0  0  # atno 17320 bound_to 7965
  145.3450  141.0295  143.3371 LP  0  0  0  0  0  0  0  0  0  0  0  0  # atno 17321 bound_to 7965
  140.0106  144.6226  150.7650 LP  0  0  0  0  0  0  0  0  0  0  0  0  # atno 17342 bound_to 10162
  140.7438  143.2852  151.3484 LP  0  0  0  0  0  0  0  0  0  0  0  0  # atno 17343 bound_to 10162
  157.7133  130.9466  150.1165 LP  0  0  0  0  0  0  0  0  0  0  0  0  # atno 17370 bound_to 10713
  156.2065  130.3663  149.8723 LP  0  0  0  0  0  0  0  0  0  0  0  0  # atno 17371 bound_to 10713
  141.1784  133.8466  157.1343 LP  0  0  0  0  0  0  0  0  0  0  0  0  # atno 17394 bound_to 11000
  140.0200  134.9950  157.0573 LP  0  0  0  0  0  0  0  0  0  0  0  0  # atno 17395 bound_to 11000

$$$$
