AV-unprocessed.smi:1385|AV-procd|sdf|5635|dock5
  -GOLD-   22720 5253D 1   1.00000     0.00000
 Structure written by MMmdl.
 38 39  0  0  0  0  0  0  0  0  3 V2000
  150.5528  141.8306  156.3294 C   0  0  0  0  0  0  0  0  0  0  0  0
  150.2070  140.6286  155.5189 C   0  0  0  0  0  0  0  0  0  0  0  0
  151.1173  139.9387  154.8207 N   0  0  0  0  0  0  0  0  0  0  0  0
  150.5580  138.8623  154.1463 N   0  0  0  0  0  0  0  0  0  0  0  0
  149.2381  138.7709  154.3588 C   0  0  0  0  0  0  0  0  0  0  0  0
  148.4142  137.7655  153.7877 N   0  0  0  0  0  0  0  0  0  0  0  0
  147.1889  137.3718  154.1773 C   0  0  0  0  0  0  0  0  0  0  0  0
  146.5531  137.8455  155.1192 O   0  0  0  0  0  0  0  0  0  0  0  0
  146.7307  136.3774  153.4028 N   0  0  0  0  0  0  0  0  0  0  0  0
  145.4333  135.7186  153.5516 C   0  0  2  0  0  0  0  0  0  0  0  0
  145.5857  134.2057  153.8031 C   0  0  0  0  0  0  0  0  0  0  0  0
  146.0861  133.4608  152.5528 C   0  0  0  0  0  0  0  0  0  0  0  0
  145.1991  133.7123  151.3845 N   0  3  2  0  0  0  0  0  0  0  0  0
  145.5735  132.9208  150.1860 C   0  0  0  0  0  0  0  0  0  0  0  0
  144.3185  132.4517  149.4418 C   0  0  0  0  0  0  0  0  0  0  0  0
  144.2323  132.9697  148.2019 N   0  5  0  0  0  0  0  0  0  0  0  0
  143.5405  131.6750  149.9923 O   0  0  0  0  0  0  0  0  0  0  0  0
  145.0855  135.1625  151.0846 C   0  0  0  0  0  0  0  0  0  0  0  0
  144.5664  135.9493  152.3023 C   0  0  0  0  0  0  0  0  0  0  0  0
  148.5660  140.0031  155.4128 S   0  0  0  0  0  0  0  0  0  0  0  0
  151.4811  142.2788  155.9734 H   0  0  0  0  0  0  0  0  0  0  0  0
  150.6771  141.5502  157.3753 H   0  0  0  0  0  0  0  0  0  0  0  0
  149.7579  142.5732  156.2567 H   0  0  0  0  0  0  0  0  0  0  0  0
  148.8093  137.2838  152.9938 H   0  0  0  0  0  0  0  0  0  0  0  0
  147.3212  136.0543  152.6505 H   0  0  0  0  0  0  0  0  0  0  0  0
  144.9219  136.1680  154.4048 H   0  0  0  0  0  0  0  0  0  0  0  0
  146.2573  134.0205  154.6423 H   0  0  0  0  0  0  0  0  0  0  0  0
  144.6191  133.7942  154.0966 H   0  0  0  0  0  0  0  0  0  0  0  0
  147.1049  133.7679  152.3122 H   0  0  0  0  0  0  0  0  0  0  0  0
  146.1263  132.3937  152.7724 H   0  0  0  0  0  0  0  0  0  0  0  0
  146.1364  133.5434  149.4894 H   0  0  0  0  0  0  0  0  0  0  0  0
  146.2328  132.0960  150.4658 H   0  0  0  0  0  0  0  0  0  0  0  0
  144.7475  133.8330  147.9911 H   0  0  0  0  0  0  0  0  0  0  0  0
  146.0571  135.5459  150.7688 H   0  0  0  0  0  0  0  0  0  0  0  0
  144.4013  135.3113  150.2485 H   0  0  0  0  0  0  0  0  0  0  0  0
  143.5431  135.6378  152.5156 H   0  0  0  0  0  0  0  0  0  0  0  0
  144.5156  137.0133  152.0679 H   0  0  0  0  0  0  0  0  0  0  0  0
  144.2743  133.3993  151.6438 H   0  0  0  0  0  0  0  0  0  0  0  0
  1  2  1  0  0  0  0
  1 21  1  0  0  0  0
  1 22  1  0  0  0  0
  1 23  1  0  0  0  0
  2 20  1  0  0  0  0
  2  3  2  0  0  0  0
  3  4  1  0  0  0  0
  4  5  2  0  0  0  0
  5  6  1  0  0  0  0
  5 20  1  0  0  0  0
  6  7  1  0  0  0  0
  6 24  1  0  0  0  0
  7  8  2  0  0  0  0
  7  9  1  0  0  0  0
  9 10  1  0  0  0  0
  9 25  1  0  0  0  0
 10 19  1  0  0  0  0
 10 11  1  0  0  0  0
 10 26  1  0  0  0  0
 11 12  1  0  0  0  0
 11 27  1  0  0  0  0
 11 28  1  0  0  0  0
 12 13  1  0  0  0  0
 12 29  1  0  0  0  0
 12 30  1  0  0  0  0
 13 14  1  0  0  0  0
 13 18  1  0  0  0  0
 13 38  1  0  0  0  0
 14 15  1  0  0  0  0
 14 31  1  0  0  0  0
 14 32  1  0  0  0  0
 15 16  1  0  0  0  0
 15 17  2  0  0  0  0
 16 33  1  0  0  0  0
 18 19  1  0  0  0  0
 18 34  1  0  0  0  0
 18 35  1  0  0  0  0
 19 36  1  0  0  0  0
 19 37  1  0  0  0  0
M  CHG  1  13   1
M  CHG  1  16  -1
M  END
> <s_m_source_file>
AV-unprocessed.smi

> <i_m_source_file_index>
1385

> <i_lp_mmshare_version>
43012

> <i_f3d_flags>
0

> <s_epik_input>
W0NIM11jMW5uYyhzMSlbTkhdQyg9TylbTkhdW0NIXTJbQ0gyXVtDSDJdTihbQ0gyXVtDSDJdMilbQ0gyXUMoPU8pW05IMl0=

> <s_epik_cmdline>
J2VwaWtfcHl0aG9uJywgJy1waCcsICc3LjAnLCAnLXRuJywgJzgnLCAnLW1hJywgJzIwMCcsICctbWV0YWxfYmluZGluZycsICctaW1hZScsICc8aW5maWxlLm1hZT4nLCAnLW9tYWUnLCAnPG91dGZpbGUubWFlPic=

> <r_lp_tautomer_probability>
1

> <r_epik_Ionization_Penalty>
5.73549

> <r_epik_Ionization_Penalty_Charging>
5.73152

> <r_epik_Ionization_Penalty_Neutral>
0.00396448

> <r_epik_State_Penalty>
6.57436

> <r_epik_Charging_Adjusted_Penalty>
12.3059

> <i_epik_Tot_Q>
0

> <i_epik_Tot_abs_Q>
2

> <r_epik_Metal_State_Penalty>
2.87628

> <b_epik_Metal_Only>
1

> <s_lp_Force_Field>
OPLS_2005

> <r_lp_Energy>
6.46457

> <b_lp_Chiralities_Consistent>
1

> <s_lp_Variant>
AV-unprocessed.smi:1385-8

> <Gold.Version>
5.8.1

> <Gold.Id.Protein>
6NUR|6NUR_protein|mol2

> <Gold.PLP.Fitness>
42.7279

> <Gold.PLP.PLP>
-29.1896

> <Gold.PLP.part.hbond>
-6.0000

> <Gold.PLP.part.metal>
0.0000

> <Gold.PLP.part.buried>
-6.3237

> <Gold.PLP.part.nonpolar>
-19.1498

> <Gold.PLP.part.repulsive>
1.2732

> <Gold.PLP.ligand.clash>
0.0000

> <Gold.PLP.ligand.torsion>
0.5491

> <Gold.PLP.Chemscore.Hbond>
4.8708

> <Gold.PLP.Chemscore.CHOScore>
0.0000

> <Gold.PLP.Chemscore.Metal>
0.0000

> <Gold.Chemscore.Hbonds>
donor molecule, donor type, donor heavy atom, donor atom, acceptor molecule, acceptor atom, score
      L1  H     6    24       P1  7948  1.00
      L1  H     9    25       P1  7948  0.91
      L1  H    16    33       P1  7921  1.00
      P1  H  7989  7998       L1     3  1.00
      P1  H 10785 10796       L1    17  0.96

> <Gold.PLP.Chemscore.Internal.Correction>
0.0242

> <Gold.Rescore>
     Score         DG    S(hbond)    S(metal)    S(lipo)     H(rot)  DE(clash)    DE(int)     intcor
     16.52     -18.82       3.97        0.00      45.34       2.04       0.38       1.92       ----

> <Gold.Chemscore.Fitness>
16.5165

> <Gold.Chemscore.DG>
-18.8162

> <Gold.Chemscore.ZeroCoef>
-5.4800

> <Gold.Chemscore.Hbond>
3.9657

> <Gold.Chemscore.Metal>
0.0000

> <Gold.Chemscore.Lipo>
45.3440

> <Gold.Chemscore.Internal_Hbond>
0.0000

> <Gold.Chemscore.DEClash>
0.3781

> <Gold.Chemscore.DEInternal>
1.9216

> <Gold.Chemscore.Rot>
2.0369

> <Gold.Chemscore.Internal.Correction>
   9.000000E+99

> <Gold.Chemscore.Hbonds>
donor molecule, donor type, donor heavy atom, donor atom, acceptor molecule, acceptor atom, score
      L1  H     6    24       P1  7948  0.93
      L1  H     9    25       P1  7948  0.90
      L1  H    16    33       P1  7921  0.97
      P1  H  7989  7998       L1     3  0.19
      P1  H 10785 10796       L1    17  0.58

> <Gold.Chemscore.Hbond.Weighted>
-13.2454

> <Gold.Chemscore.Metal.Weighted>
-0.0000

> <Gold.Chemscore.Lipo.Weighted>
-5.3053

> <Gold.Chemscore.Internal_Hbond.Weighted>
0.0000

> <Gold.Chemscore.DEClash.Weighted>
0.3781

> <Gold.Chemscore.DEInternal.Weighted>
1.9216

> <Gold.Chemscore.Rot.Weighted>
5.2144

> <Gold.Chemscore.Internal.Correction.Weighted>
   9.000000E+99

> <Gold.Protein.RotatedTorsions>
[ 6907 6896 6895 6894 ] final -133.35 input  -60.11 | X-H torsion
[ 7974 7965 7964 7962 ] final   38.87 input  175.53 | X-H torsion
[ 8008 7997 7996 7995 ] final  128.47 input   59.86 | X-H torsion
[ 10167 10162 10161 10158 ] final   25.11 input  -65.29 | X-H torsion
[ 10718 10713 10712 10709 ] final -128.42 input   66.30 | X-H torsion
[ 10763 10752 10751 10750 ] final -159.06 input  -60.55 | X-H torsion
[ 11005 11000 10999 10996 ] final   -7.32 input  -57.11 | X-H torsion

> <Gold.Protein.ActiveResidues>
 VAL166  LYS551  ARG553  GLY616  TRP617  ASP618  TYR619  PRO620  LYS621  CYS622 
 ASP623  PHE694  ASN695  SER759  ASP760  ASP761  ALA762  ILE779  LEU786  VAL792 
 PHE793  MET794  SER795  GLU796  ALA797  LYS798  CYS799  TRP800  GLU811  SER814 

> <Gold.Protein.RotatedAtoms>
  150.9731  133.6323  159.2734 H   0  0  0  0  0  0  0  0  0  0  0  0  # atno 6907 bound_to 6896
  151.3605  135.0902  159.9442 H   0  0  0  0  0  0  0  0  0  0  0  0  # atno 6908 bound_to 6896
  152.5190  133.9305  159.7633 H   0  0  0  0  0  0  0  0  0  0  0  0  # atno 6909 bound_to 6896
  146.1029  139.5720  142.9403 H   0  0  0  0  0  0  0  0  0  0  0  0  # atno 7974 bound_to 7965
  156.2915  140.2644  156.2441 H   0  0  0  0  0  0  0  0  0  0  0  0  # atno 8008 bound_to 7997
  154.9948  140.0388  157.2353 H   0  0  0  0  0  0  0  0  0  0  0  0  # atno 8009 bound_to 7997
  154.7654  140.2768  155.6185 H   0  0  0  0  0  0  0  0  0  0  0  0  # atno 8010 bound_to 7997
  140.5133  144.0124  150.6382 H   0  0  0  0  0  0  0  0  0  0  0  0  # atno 10167 bound_to 10162
  156.1949  130.6820  151.0470 H   0  0  0  0  0  0  0  0  0  0  0  0  # atno 10718 bound_to 10713
  154.7506  135.3091  154.8565 H   0  0  0  0  0  0  0  0  0  0  0  0  # atno 10763 bound_to 10752
  153.9353  135.6780  153.4749 H   0  0  0  0  0  0  0  0  0  0  0  0  # atno 10764 bound_to 10752
  153.1102  135.4870  154.8949 H   0  0  0  0  0  0  0  0  0  0  0  0  # atno 10765 bound_to 10752
  140.7115  133.8904  155.8754 H   0  0  0  0  0  0  0  0  0  0  0  0  # atno 11005 bound_to 11000
  145.5819  141.0381  143.2117 LP  0  0  0  0  0  0  0  0  0  0  0  0  # atno 17320 bound_to 7965
  144.7447  139.7353  143.7297 LP  0  0  0  0  0  0  0  0  0  0  0  0  # atno 17321 bound_to 7965
  140.3453  143.2995  152.0545 LP  0  0  0  0  0  0  0  0  0  0  0  0  # atno 17342 bound_to 10162
  139.4902  144.6413  151.6870 LP  0  0  0  0  0  0  0  0  0  0  0  0  # atno 17343 bound_to 10162
  157.6952  131.0796  150.6991 LP  0  0  0  0  0  0  0  0  0  0  0  0  # atno 17370 bound_to 10713
  156.7048  130.4634  149.5563 LP  0  0  0  0  0  0  0  0  0  0  0  0  # atno 17371 bound_to 10713
  141.0080  134.1059  157.4250 LP  0  0  0  0  0  0  0  0  0  0  0  0  # atno 17394 bound_to 11000
  139.8870  135.0086  156.6535 LP  0  0  0  0  0  0  0  0  0  0  0  0  # atno 17395 bound_to 11000

$$$$
