AV-unprocessed.smi:1908|AV-procd|sdf|7734|dock6
  -GOLD-   22720 9473D 1   1.00000     0.00000
 Structure written by MMmdl.
 27 27  0  0  0  0  0  0  0  0  2 V2000
  152.9301  144.6018  158.3146 C   0  0  0  0  0  0  0  0  0  0  0  0
  151.4382  144.8637  158.5585 C   0  0  0  0  0  0  0  0  0  0  0  0
  151.1150  144.9591  160.0576 C   0  0  0  0  0  0  0  0  0  0  0  0
  150.6506  143.8051  157.9342 N   0  0  0  0  0  0  0  0  0  0  0  0
  150.6865  142.5064  158.2707 C   0  0  0  0  0  0  0  0  0  0  0  0
  151.4236  142.0549  159.1482 O   0  0  0  0  0  0  0  0  0  0  0  0
  149.7705  141.5742  157.4668 C   0  0  0  0  0  0  0  0  0  0  0  0
  150.5211  140.6461  156.6058 N   0  0  0  0  0  0  0  0  0  0  0  0
  151.4791  139.8162  157.2148 C   0  0  0  0  0  0  0  0  0  0  0  0
  152.2067  138.9323  156.5057 C   0  0  0  0  0  0  0  0  0  0  0  0
  151.9805  138.8475  155.0683 C   0  0  0  0  0  0  0  0  0  0  0  0
  152.6385  138.0484  154.4047 O   0  0  0  0  0  0  0  0  0  0  0  0
  151.0373  139.6712  154.5245 N   0  5  0  0  0  0  0  0  0  0  0  0
  150.3035  140.5645  155.2584 C   0  0  0  0  0  0  0  0  0  0  0  0
  149.4553  141.2973  154.7478 O   0  0  0  0  0  0  0  0  0  0  0  0
  153.5421  145.3951  158.7447 H   0  0  0  0  0  0  0  0  0  0  0  0
  153.1511  144.5584  157.2475 H   0  0  0  0  0  0  0  0  0  0  0  0
  153.2472  143.6583  158.7600 H   0  0  0  0  0  0  0  0  0  0  0  0
  151.1901  145.8171  158.0889 H   0  0  0  0  0  0  0  0  0  0  0  0
  151.6924  145.7528  160.5322 H   0  0  0  0  0  0  0  0  0  0  0  0
  151.3456  144.0263  160.5732 H   0  0  0  0  0  0  0  0  0  0  0  0
  150.0597  145.1798  160.2216 H   0  0  0  0  0  0  0  0  0  0  0  0
  150.0150  144.0827  157.2005 H   0  0  0  0  0  0  0  0  0  0  0  0
  149.1177  141.0167  158.1415 H   0  0  0  0  0  0  0  0  0  0  0  0
  149.1011  142.1925  156.8677 H   0  0  0  0  0  0  0  0  0  0  0  0
  151.5791  139.9363  158.2834 H   0  0  0  0  0  0  0  0  0  0  0  0
  152.9364  138.2993  156.9887 H   0  0  0  0  0  0  0  0  0  0  0  0
  1  2  1  0  0  0  0
  1 16  1  0  0  0  0
  1 17  1  0  0  0  0
  1 18  1  0  0  0  0
  2  3  1  0  0  0  0
  2  4  1  0  0  0  0
  2 19  1  0  0  0  0
  3 20  1  0  0  0  0
  3 21  1  0  0  0  0
  3 22  1  0  0  0  0
  4  5  1  0  0  0  0
  4 23  1  0  0  0  0
  5  6  2  0  0  0  0
  5  7  1  0  0  0  0
  7  8  1  0  0  0  0
  7 24  1  0  0  0  0
  7 25  1  0  0  0  0
  8 14  1  0  0  0  0
  8  9  1  0  0  0  0
  9 10  2  0  0  0  0
  9 26  1  0  0  0  0
 10 11  1  0  0  0  0
 10 27  1  0  0  0  0
 11 12  2  0  0  0  0
 11 13  1  0  0  0  0
 13 14  1  0  0  0  0
 14 15  2  0  0  0  0
M  CHG  1  13  -1
M  END
> <s_m_source_file>
AV-unprocessed.smi

> <i_m_source_file_index>
1908

> <i_lp_mmshare_version>
43012

> <i_f3d_flags>
0

> <s_epik_input>
W0NIM11bQ0hdKFtDSDNdKVtOSF1DKD1PKVtDSDJdbjFbY0hdW2NIXWMoPU8pW25IXWMxPU8=

> <s_epik_cmdline>
J2VwaWtfcHl0aG9uJywgJy1waCcsICc3LjAnLCAnLXRuJywgJzgnLCAnLW1hJywgJzIwMCcsICctbWV0YWxfYmluZGluZycsICctaW1hZScsICc8aW5maWxlLm1hZT4nLCAnLW9tYWUnLCAnPG91dGZpbGUubWFlPic=

> <r_lp_tautomer_probability>
0.999537

> <r_epik_Ionization_Penalty>
3.07884

> <r_epik_Ionization_Penalty_Charging>
2.69291e-08

> <r_epik_Ionization_Penalty_Neutral>
3.07884

> <r_epik_State_Penalty>
3.07787

> <r_epik_Charging_Adjusted_Penalty>
3.07787

> <i_epik_Tot_Q>
-1

> <i_epik_Tot_abs_Q>
1

> <r_epik_Metal_State_Penalty>
0.459857

> <b_epik_Metal_Only>
1

> <s_lp_Force_Field>
OPLS_2005

> <r_lp_Energy>
10.6939

> <b_lp_Chiralities_Consistent>
1

> <s_lp_Variant>
AV-unprocessed.smi:1908-2

> <Gold.Version>
5.8.1

> <Gold.Id.Protein>
6NUR|6NUR_protein|mol2

> <Gold.PLP.Fitness>
37.1255

> <Gold.PLP.PLP>
-32.0215

> <Gold.PLP.part.hbond>
-2.9936

> <Gold.PLP.part.metal>
0.0000

> <Gold.PLP.part.buried>
-6.1325

> <Gold.PLP.part.nonpolar>
-23.5342

> <Gold.PLP.part.repulsive>
0.3249

> <Gold.PLP.ligand.clash>
0.0000

> <Gold.PLP.ligand.torsion>
0.0772

> <Gold.PLP.Chemscore.Hbond>
1.7500

> <Gold.PLP.Chemscore.CHOScore>
0.0000

> <Gold.PLP.Chemscore.Metal>
0.0000

> <Gold.Chemscore.Hbonds>
donor molecule, donor type, donor heavy atom, donor atom, acceptor molecule, acceptor atom, score
      L1  H     4    23       P1  8028  1.00
      P1  H  7989  7998       L1    13  0.70
      P1  H 10752 10763       L1    12  0.05

> <Gold.PLP.Chemscore.Internal.Correction>
0.0083

> <Gold.Rescore>
     Score         DG    S(hbond)    S(metal)    S(lipo)     H(rot)  DE(clash)    DE(int)     intcor
     10.82     -11.98       1.39        0.00      53.58       1.72       0.03       1.13       ----

> <Gold.Chemscore.Fitness>
10.8151

> <Gold.Chemscore.DG>
-11.9801

> <Gold.Chemscore.ZeroCoef>
-5.4800

> <Gold.Chemscore.Hbond>
1.3902

> <Gold.Chemscore.Metal>
0.0000

> <Gold.Chemscore.Lipo>
53.5838

> <Gold.Chemscore.Internal_Hbond>
0.0000

> <Gold.Chemscore.DEClash>
0.0309

> <Gold.Chemscore.DEInternal>
1.1341

> <Gold.Chemscore.Rot>
1.7236

> <Gold.Chemscore.Internal.Correction>
   9.000000E+99

> <Gold.Chemscore.Hbonds>
donor molecule, donor type, donor heavy atom, donor atom, acceptor molecule, acceptor atom, score
      L1  H     4    23       P1  8028  0.76
      P1  H  7989  7998       L1    13  0.07
      P1  H 10752 10763       L1    12  0.06

> <Gold.Chemscore.Hbond.Weighted>
-4.6432

> <Gold.Chemscore.Metal.Weighted>
-0.0000

> <Gold.Chemscore.Lipo.Weighted>
-6.2693

> <Gold.Chemscore.Internal_Hbond.Weighted>
0.0000

> <Gold.Chemscore.DEClash.Weighted>
0.0309

> <Gold.Chemscore.DEInternal.Weighted>
1.1341

> <Gold.Chemscore.Rot.Weighted>
4.4124

> <Gold.Chemscore.Internal.Correction.Weighted>
   9.000000E+99

> <Gold.Protein.RotatedTorsions>
[ 6907 6896 6895 6894 ] final   43.29 input  -60.11 | X-H torsion
[ 7974 7965 7964 7962 ] final  103.05 input  175.53 | X-H torsion
[ 8008 7997 7996 7995 ] final  -86.24 input   59.86 | X-H torsion
[ 10167 10162 10161 10158 ] final   80.32 input  -65.29 | X-H torsion
[ 10718 10713 10712 10709 ] final  118.22 input   66.30 | X-H torsion
[ 10763 10752 10751 10750 ] final   22.39 input  -60.55 | X-H torsion
[ 11005 11000 10999 10996 ] final -173.62 input  -57.11 | X-H torsion

> <Gold.Protein.ActiveResidues>
 VAL166  LYS551  ARG553  GLY616  TRP617  ASP618  TYR619  PRO620  LYS621  CYS622 
 ASP623  PHE694  ASN695  SER759  ASP760  ASP761  ALA762  ILE779  LEU786  VAL792 
 PHE793  MET794  SER795  GLU796  ALA797  LYS798  CYS799  TRP800  GLU811  SER814 

> <Gold.Protein.RotatedAtoms>
  152.2185  134.8435  160.0488 H   0  0  0  0  0  0  0  0  0  0  0  0  # atno 6907 bound_to 6896
  151.9227  133.3585  159.3911 H   0  0  0  0  0  0  0  0  0  0  0  0  # atno 6908 bound_to 6896
  150.6994  134.4543  159.5395 H   0  0  0  0  0  0  0  0  0  0  0  0  # atno 6909 bound_to 6896
  145.3510  139.2439  143.3558 H   0  0  0  0  0  0  0  0  0  0  0  0  # atno 7974 bound_to 7965
  154.6497  140.0581  156.9941 H   0  0  0  0  0  0  0  0  0  0  0  0  # atno 8008 bound_to 7997
  155.1390  140.3263  155.4438 H   0  0  0  0  0  0  0  0  0  0  0  0  # atno 8009 bound_to 7997
  156.2570  140.1967  156.6506 H   0  0  0  0  0  0  0  0  0  0  0  0  # atno 8010 bound_to 7997
  139.9510  144.6026  150.8161 H   0  0  0  0  0  0  0  0  0  0  0  0  # atno 10167 bound_to 10162
  157.6045  131.1045  150.7725 H   0  0  0  0  0  0  0  0  0  0  0  0  # atno 10718 bound_to 10713
  153.0919  135.6649  153.9838 H   0  0  0  0  0  0  0  0  0  0  0  0  # atno 10763 bound_to 10752
  153.9432  135.2991  155.3443 H   0  0  0  0  0  0  0  0  0  0  0  0  # atno 10764 bound_to 10752
  154.7334  135.5112  153.9075 H   0  0  0  0  0  0  0  0  0  0  0  0  # atno 10765 bound_to 10752
  140.4837  134.6050  157.4929 H   0  0  0  0  0  0  0  0  0  0  0  0  # atno 11005 bound_to 11000
  146.2968  140.4126  142.8719 LP  0  0  0  0  0  0  0  0  0  0  0  0  # atno 17320 bound_to 7965
  144.8718  140.7282  143.6042 LP  0  0  0  0  0  0  0  0  0  0  0  0  # atno 17321 bound_to 7965
  140.7583  143.3104  151.2860 LP  0  0  0  0  0  0  0  0  0  0  0  0  # atno 17342 bound_to 10162
  139.6628  144.0158  152.2704 LP  0  0  0  0  0  0  0  0  0  0  0  0  # atno 17343 bound_to 10162
  156.8117  130.4954  149.5355 LP  0  0  0  0  0  0  0  0  0  0  0  0  # atno 17370 bound_to 10713
  156.1127  130.6052  151.0072 LP  0  0  0  0  0  0  0  0  0  0  0  0  # atno 17371 bound_to 10713
  139.9811  134.7136  155.9859 LP  0  0  0  0  0  0  0  0  0  0  0  0  # atno 17394 bound_to 11000
  141.1518  133.6547  156.4038 LP  0  0  0  0  0  0  0  0  0  0  0  0  # atno 17395 bound_to 11000

$$$$
