AV-unprocessed.smi:1174|AV-procd|sdf|4949|dock2
  -GOLD-   22720 3533D 1   1.00000     0.00000
 Structure written by MMmdl.
 41 42  0  0  0  0  0  0  0  0  1 V2000
  153.3552  141.1401  159.9806 C   0  0  0  0  0  0  0  0  0  0  0  0
  151.9634  140.9068  159.3774 C   0  0  1  0  0  0  0  0  0  0  0  0
  151.6771  141.9062  158.2354 C   0  0  0  0  0  0  0  0  0  0  0  0
  151.5647  143.2782  158.6970 N   0  0  0  0  0  0  0  0  0  0  0  0
  152.5032  144.0421  159.3581 C   0  0  0  0  0  0  0  0  0  0  0  0
  151.9421  145.2659  159.5858 C   0  0  0  0  0  0  0  0  0  0  0  0
  150.6418  145.1530  159.0204 C   0  0  0  0  0  0  0  0  0  0  0  0
  150.4162  143.9600  158.4952 N   0  0  0  0  0  0  0  0  0  0  0  0
  151.8855  139.5251  158.9047 N   0  0  0  0  0  0  0  0  0  0  0  0
  150.7758  138.8928  158.4900 C   0  0  0  0  0  0  0  0  0  0  0  0
  149.6761  139.4420  158.4226 O   0  0  0  0  0  0  0  0  0  0  0  0
  150.9436  137.4109  158.1035 C   0  0  1  0  0  0  0  0  0  0  0  0
  149.6856  136.5703  158.4359 C   0  0  0  0  0  0  0  0  0  0  0  0
  148.5566  136.7175  157.3954 C   0  0  0  0  0  0  0  0  0  0  0  0
  149.0955  136.5342  155.9673 C   0  0  0  0  0  0  0  0  0  0  0  0
  150.1931  137.4878  155.7322 N   0  0  0  0  0  0  0  0  0  0  0  0
  150.2252  138.4468  154.7740 C   0  0  0  0  0  0  0  0  0  0  0  0
  149.3662  138.2708  153.7652 N   0  0  0  0  0  0  0  0  0  0  0  0
  150.9360  139.4486  154.8318 O   0  0  0  0  0  0  0  0  0  0  0  0
  151.3389  137.2270  156.6171 C   0  0  0  0  0  0  0  0  0  0  0  0
  153.4432  142.1492  160.3841 H   0  0  0  0  0  0  0  0  0  0  0  0
  154.1396  141.0107  159.2341 H   0  0  0  0  0  0  0  0  0  0  0  0
  153.5521  140.4436  160.7964 H   0  0  0  0  0  0  0  0  0  0  0  0
  151.2385  141.0614  160.1788 H   0  0  0  0  0  0  0  0  0  0  0  0
  152.4810  141.8714  157.4986 H   0  0  0  0  0  0  0  0  0  0  0  0
  150.7623  141.6354  157.7060 H   0  0  0  0  0  0  0  0  0  0  0  0
  153.4829  143.6588  159.6032 H   0  0  0  0  0  0  0  0  0  0  0  0
  152.3952  146.1145  160.0767 H   0  0  0  0  0  0  0  0  0  0  0  0
  149.8597  145.8965  158.9785 H   0  0  0  0  0  0  0  0  0  0  0  0
  152.7450  138.9956  158.9213 H   0  0  0  0  0  0  0  0  0  0  0  0
  151.7616  137.0172  158.7092 H   0  0  0  0  0  0  0  0  0  0  0  0
  149.9768  135.5204  158.4846 H   0  0  0  0  0  0  0  0  0  0  0  0
  149.3087  136.8184  159.4292 H   0  0  0  0  0  0  0  0  0  0  0  0
  147.7753  135.9835  157.5949 H   0  0  0  0  0  0  0  0  0  0  0  0
  148.0822  137.6950  157.4854 H   0  0  0  0  0  0  0  0  0  0  0  0
  149.4789  135.5201  155.8456 H   0  0  0  0  0  0  0  0  0  0  0  0
  148.2770  136.6192  155.2528 H   0  0  0  0  0  0  0  0  0  0  0  0
  149.3394  138.9353  153.0060 H   0  0  0  0  0  0  0  0  0  0  0  0
  148.7573  137.4657  153.7616 H   0  0  0  0  0  0  0  0  0  0  0  0
  152.1978  137.8606  156.3893 H   0  0  0  0  0  0  0  0  0  0  0  0
  151.6831  136.2052  156.4519 H   0  0  0  0  0  0  0  0  0  0  0  0
  1  2  1  0  0  0  0
  1 21  1  0  0  0  0
  1 22  1  0  0  0  0
  1 23  1  0  0  0  0
  2  3  1  0  0  0  0
  2  9  1  0  0  0  0
  2 24  1  0  0  0  0
  3  4  1  0  0  0  0
  3 25  1  0  0  0  0
  3 26  1  0  0  0  0
  4  8  1  0  0  0  0
  4  5  1  0  0  0  0
  5  6  2  0  0  0  0
  5 27  1  0  0  0  0
  6  7  1  0  0  0  0
  6 28  1  0  0  0  0
  7  8  2  0  0  0  0
  7 29  1  0  0  0  0
  9 10  1  0  0  0  0
  9 30  1  0  0  0  0
 10 11  2  0  0  0  0
 10 12  1  0  0  0  0
 12 20  1  0  0  0  0
 12 13  1  0  0  0  0
 12 31  1  0  0  0  0
 13 14  1  0  0  0  0
 13 32  1  0  0  0  0
 13 33  1  0  0  0  0
 14 15  1  0  0  0  0
 14 34  1  0  0  0  0
 14 35  1  0  0  0  0
 15 16  1  0  0  0  0
 15 36  1  0  0  0  0
 15 37  1  0  0  0  0
 16 17  1  0  0  0  0
 16 20  1  0  0  0  0
 17 18  1  0  0  0  0
 17 19  2  0  0  0  0
 18 38  1  0  0  0  0
 18 39  1  0  0  0  0
 20 40  1  0  0  0  0
 20 41  1  0  0  0  0
M  END
> <s_m_source_file>
AV-unprocessed.smi

> <i_m_source_file_index>
1174

> <i_lp_mmshare_version>
43012

> <i_f3d_flags>
0

> <s_epik_input>
bjFbY0hdW2NIXVtjSF1uMVtDSDJdW0NAQEhdKFtDSDNdKVtOSF1DKD1PKVtDQEBIXTJbQ0gyXVtDSDJdW0NIMl1OKFtDSDJdMilDKD1PKVtOSDJd

> <s_epik_cmdline>
J2VwaWtfcHl0aG9uJywgJy1waCcsICc3LjAnLCAnLXRuJywgJzgnLCAnLW1hJywgJzIwMCcsICctbWV0YWxfYmluZGluZycsICctaW1hZScsICc8aW5maWxlLm1hZT4nLCAnLW9tYWUnLCAnPG91dGZpbGUubWFlPic=

> <r_lp_tautomer_probability>
1

> <r_epik_Ionization_Penalty>
0.000372452

> <r_epik_Ionization_Penalty_Charging>
0

> <r_epik_Ionization_Penalty_Neutral>
0.000372452

> <r_epik_State_Penalty>
-0

> <r_epik_Charging_Adjusted_Penalty>
0

> <i_epik_Tot_Q>
0

> <i_epik_Tot_abs_Q>
0

> <r_epik_Metal_State_Penalty>
-0

> <b_epik_Metal_Only>
0

> <s_lp_Force_Field>
OPLS_2005

> <r_lp_Energy>
22.2792

> <b_lp_Chiralities_Consistent>
1

> <s_lp_Variant>
AV-unprocessed.smi:1174-4

> <Gold.Version>
5.8.1

> <Gold.Id.Protein>
6NUR|6NUR_protein|mol2

> <Gold.PLP.Fitness>
44.3208

> <Gold.PLP.PLP>
-35.0288

> <Gold.PLP.part.hbond>
-3.4701

> <Gold.PLP.part.metal>
0.0000

> <Gold.PLP.part.buried>
-5.7358

> <Gold.PLP.part.nonpolar>
-26.4422

> <Gold.PLP.part.repulsive>
0.4562

> <Gold.PLP.ligand.clash>
0.0000

> <Gold.PLP.ligand.torsion>
1.0560

> <Gold.PLP.Chemscore.Hbond>
2.7571

> <Gold.PLP.Chemscore.CHOScore>
1.0000

> <Gold.PLP.Chemscore.Metal>
0.0000

> <Gold.Chemscore.Hbonds>
donor molecule, donor type, donor heavy atom, donor atom, acceptor molecule, acceptor atom, score
      L1  H    18    38       P1  7957  0.68
      L1  H    18    39       P1  7948  0.10
      P1  H  7989  7998       L1    19  0.91
      L1  C     7    29       P1  8029  0.80

> <Gold.PLP.Chemscore.Internal.Correction>
0.1328

> <Gold.Rescore>
     Score         DG    S(hbond)    S(metal)    S(lipo)     H(rot)  DE(clash)    DE(int)     intcor
     16.75     -18.37       2.60        0.00      75.86       1.82       0.00       1.62       ----

> <Gold.Chemscore.Fitness>
16.7543

> <Gold.Chemscore.DG>
-18.3737

> <Gold.Chemscore.ZeroCoef>
-5.4800

> <Gold.Chemscore.Hbond>
2.5984

> <Gold.Chemscore.Metal>
0.0000

> <Gold.Chemscore.Lipo>
75.8607

> <Gold.Chemscore.Internal_Hbond>
0.0000

> <Gold.Chemscore.DEClash>
0.0000

> <Gold.Chemscore.DEInternal>
1.6195

> <Gold.Chemscore.Rot>
1.8206

> <Gold.Chemscore.Internal.Correction>
   9.000000E+99

> <Gold.Chemscore.Hbonds>
donor molecule, donor type, donor heavy atom, donor atom, acceptor molecule, acceptor atom, score
      L1  H    18    38       P1  7957  0.66
      L1  H    18    39       P1  7948  0.10
      P1  H  7989  7998       L1    19  0.87

> <Gold.Chemscore.Hbond.Weighted>
-8.6787

> <Gold.Chemscore.Metal.Weighted>
-0.0000

> <Gold.Chemscore.Lipo.Weighted>
-8.8757

> <Gold.Chemscore.Internal_Hbond.Weighted>
0.0000

> <Gold.Chemscore.DEClash.Weighted>
0.0000

> <Gold.Chemscore.DEInternal.Weighted>
1.6195

> <Gold.Chemscore.Rot.Weighted>
4.6607

> <Gold.Chemscore.Internal.Correction.Weighted>
   9.000000E+99

> <Gold.Protein.RotatedTorsions>
[ 6907 6896 6895 6894 ] final   79.27 input  -60.11 | X-H torsion
[ 7974 7965 7964 7962 ] final  174.67 input  175.53 | X-H torsion
[ 8008 7997 7996 7995 ] final -144.95 input   59.86 | X-H torsion
[ 10167 10162 10161 10158 ] final   60.20 input  -65.29 | X-H torsion
[ 10718 10713 10712 10709 ] final  167.71 input   66.30 | X-H torsion
[ 10763 10752 10751 10750 ] final  -93.72 input  -60.55 | X-H torsion
[ 11005 11000 10999 10996 ] final  133.89 input  -57.11 | X-H torsion

> <Gold.Protein.ActiveResidues>
 VAL166  LYS551  ARG553  GLY616  TRP617  ASP618  TYR619  PRO620  LYS621  CYS622 
 ASP623  PHE694  ASN695  SER759  ASP760  ASP761  ALA762  ILE779  LEU786  VAL792 
 PHE793  MET794  SER795  GLU796  ALA797  LYS798  CYS799  TRP800  GLU811  SER814 

> <Gold.Protein.RotatedAtoms>
  152.5192  134.3537  159.9259 H   0  0  0  0  0  0  0  0  0  0  0  0  # atno 6907 bound_to 6896
  151.3488  133.3927  159.2686 H   0  0  0  0  0  0  0  0  0  0  0  0  # atno 6908 bound_to 6896
  150.9744  134.9129  159.7865 H   0  0  0  0  0  0  0  0  0  0  0  0  # atno 6909 bound_to 6896
  144.7217  139.9832  143.6439 H   0  0  0  0  0  0  0  0  0  0  0  0  # atno 7974 bound_to 7965
  155.5353  140.0603  157.2881 H   0  0  0  0  0  0  0  0  0  0  0  0  # atno 8008 bound_to 7997
  154.4470  140.1928  156.0580 H   0  0  0  0  0  0  0  0  0  0  0  0  # atno 8009 bound_to 7997
  156.0623  140.3271  155.7480 H   0  0  0  0  0  0  0  0  0  0  0  0  # atno 8010 bound_to 7997
  140.1682  144.4303  150.6675 H   0  0  0  0  0  0  0  0  0  0  0  0  # atno 10167 bound_to 10162
  157.0476  131.0304  151.2692 H   0  0  0  0  0  0  0  0  0  0  0  0  # atno 10718 bound_to 10713
  154.6987  135.5184  153.8495 H   0  0  0  0  0  0  0  0  0  0  0  0  # atno 10763 bound_to 10752
  153.0687  135.6593  154.0306 H   0  0  0  0  0  0  0  0  0  0  0  0  # atno 10764 bound_to 10752
  154.0168  135.2997  155.3365 H   0  0  0  0  0  0  0  0  0  0  0  0  # atno 10765 bound_to 10752
  139.9880  134.9525  156.9790 H   0  0  0  0  0  0  0  0  0  0  0  0  # atno 11005 bound_to 11000
  146.0471  139.3475  143.0662 LP  0  0  0  0  0  0  0  0  0  0  0  0  # atno 17320 bound_to 7965
  145.8262  140.9654  143.0873 LP  0  0  0  0  0  0  0  0  0  0  0  0  # atno 17321 bound_to 7965
  140.6599  143.2249  151.5880 LP  0  0  0  0  0  0  0  0  0  0  0  0  # atno 17342 bound_to 10162
  139.5350  144.2807  152.1231 LP  0  0  0  0  0  0  0  0  0  0  0  0  # atno 17343 bound_to 10162
  157.5056  130.7906  149.7650 LP  0  0  0  0  0  0  0  0  0  0  0  0  # atno 17370 bound_to 10713
  156.0018  130.3876  150.2577 LP  0  0  0  0  0  0  0  0  0  0  0  0  # atno 17371 bound_to 10713
  140.4963  134.1142  155.7242 LP  0  0  0  0  0  0  0  0  0  0  0  0  # atno 17394 bound_to 11000
  141.1542  133.8914  157.2021 LP  0  0  0  0  0  0  0  0  0  0  0  0  # atno 17395 bound_to 11000

$$$$
