AV-unprocessed.smi:2061|AV-procd|sdf|8391|dock10
  -GOLD-   2272011 73D 1   1.00000     0.00000
 Structure written by MMmdl.
 45 46  0  0  0  0  0  0  0  0  3 V2000
  152.1724  144.0757  160.8072 C   0  0  0  0  0  0  0  0  0  0  0  0
  151.7271  143.4342  159.5382 C   0  0  0  0  0  0  0  0  0  0  0  0
  152.2167  142.3926  158.8015 C   0  0  0  0  0  0  0  0  0  0  0  0
  151.3066  142.3126  157.7140 C   0  0  0  0  0  0  0  0  0  0  0  0
  151.4761  141.3349  156.6982 N   0  0  0  0  0  0  0  0  0  0  0  0
  150.6063  140.9502  155.7466 C   0  0  0  0  0  0  0  0  0  0  0  0
  149.4761  141.4505  155.6936 O   0  0  0  0  0  0  0  0  0  0  0  0
  151.1306  140.0046  154.9185 N   0  5  0  0  0  0  0  0  0  0  0  0
  150.3487  138.9916  154.2068 C   0  0  0  0  0  0  0  0  0  0  0  0
  150.5780  137.5780  154.8110 C   0  0  1  0  0  0  0  0  0  0  0  0
  151.2171  137.5867  156.2225 C   0  0  0  0  0  0  0  0  0  0  0  0
  149.3199  136.7718  154.7450 N   0  3  1  0  0  0  0  0  0  0  0  0
  149.3841  135.5075  155.5187 C   0  0  0  0  0  0  0  0  0  0  0  0
  148.1457  134.6319  155.2439 C   0  0  2  0  0  0  0  0  0  0  0  0
  148.1657  133.9624  153.8583 C   0  0  0  0  0  0  0  0  0  0  0  0
  146.9487  135.3788  155.4644 O   0  0  0  0  0  0  0  0  0  0  0  0
  146.8477  136.5889  154.7171 C   0  0  1  0  0  0  0  0  0  0  0  0
  145.5160  137.2551  155.0800 C   0  0  0  0  0  0  0  0  0  0  0  0
  148.0510  137.4896  155.0431 C   0  0  0  0  0  0  0  0  0  0  0  0
  150.3481  143.2249  157.7820 N   0  0  0  0  0  0  0  0  0  0  0  0
  150.6121  143.9473  158.9515 O   0  0  0  0  0  0  0  0  0  0  0  0
  153.2107  143.8258  161.0257 H   0  0  0  0  0  0  0  0  0  0  0  0
  151.5594  143.7401  161.6437 H   0  0  0  0  0  0  0  0  0  0  0  0
  152.0931  145.1611  160.7422 H   0  0  0  0  0  0  0  0  0  0  0  0
  153.0862  141.7867  159.0081 H   0  0  0  0  0  0  0  0  0  0  0  0
  152.3736  140.8734  156.6829 H   0  0  0  0  0  0  0  0  0  0  0  0
  149.2832  139.2204  154.2359 H   0  0  0  0  0  0  0  0  0  0  0  0
  150.6032  138.9671  153.1458 H   0  0  0  0  0  0  0  0  0  0  0  0
  151.2926  137.0822  154.1518 H   0  0  0  0  0  0  0  0  0  0  0  0
  152.2067  138.0469  156.2158 H   0  0  0  0  0  0  0  0  0  0  0  0
  151.3519  136.5706  156.5936 H   0  0  0  0  0  0  0  0  0  0  0  0
  150.6148  138.1258  156.9559 H   0  0  0  0  0  0  0  0  0  0  0  0
  150.2866  134.9491  155.2662 H   0  0  0  0  0  0  0  0  0  0  0  0
  149.4449  135.7423  156.5822 H   0  0  0  0  0  0  0  0  0  0  0  0
  148.1389  133.8276  155.9802 H   0  0  0  0  0  0  0  0  0  0  0  0
  149.0213  133.2930  153.7659 H   0  0  0  0  0  0  0  0  0  0  0  0
  148.2353  134.6875  153.0478 H   0  0  0  0  0  0  0  0  0  0  0  0
  147.2654  133.3683  153.7010 H   0  0  0  0  0  0  0  0  0  0  0  0
  146.8346  136.3657  153.6501 H   0  0  0  0  0  0  0  0  0  0  0  0
  145.3782  138.1854  154.5284 H   0  0  0  0  0  0  0  0  0  0  0  0
  145.4665  137.4867  156.1445 H   0  0  0  0  0  0  0  0  0  0  0  0
  144.6762  136.6013  154.8432 H   0  0  0  0  0  0  0  0  0  0  0  0
  148.0201  137.7747  156.0957 H   0  0  0  0  0  0  0  0  0  0  0  0
  147.9851  138.4084  154.4594 H   0  0  0  0  0  0  0  0  0  0  0  0
  149.2584  136.4847  153.7783 H   0  0  0  0  0  0  0  0  0  0  0  0
  1  2  1  0  0  0  0
  1 22  1  0  0  0  0
  1 23  1  0  0  0  0
  1 24  1  0  0  0  0
  2 21  1  0  0  0  0
  2  3  2  0  0  0  0
  3  4  1  0  0  0  0
  3 25  1  0  0  0  0
  4  5  1  0  0  0  0
  4 20  2  0  0  0  0
  5  6  1  0  0  0  0
  5 26  1  0  0  0  0
  6  7  2  0  0  0  0
  6  8  1  0  0  0  0
  8  9  1  0  0  0  0
  9 10  1  0  0  0  0
  9 27  1  0  0  0  0
  9 28  1  0  0  0  0
 10 11  1  0  0  0  0
 10 12  1  0  0  0  0
 10 29  1  0  0  0  0
 11 30  1  0  0  0  0
 11 31  1  0  0  0  0
 11 32  1  0  0  0  0
 12 19  1  0  0  0  0
 12 13  1  0  0  0  0
 12 45  1  0  0  0  0
 13 14  1  0  0  0  0
 13 33  1  0  0  0  0
 13 34  1  0  0  0  0
 14 15  1  0  0  0  0
 14 16  1  0  0  0  0
 14 35  1  0  0  0  0
 15 36  1  0  0  0  0
 15 37  1  0  0  0  0
 15 38  1  0  0  0  0
 16 17  1  0  0  0  0
 17 18  1  0  0  0  0
 17 19  1  0  0  0  0
 17 39  1  0  0  0  0
 18 40  1  0  0  0  0
 18 41  1  0  0  0  0
 18 42  1  0  0  0  0
 19 43  1  0  0  0  0
 19 44  1  0  0  0  0
 20 21  1  0  0  0  0
M  CHG  1   8  -1
M  CHG  1  12   1
M  END
> <s_m_source_file>
AV-unprocessed.smi

> <i_m_source_file_index>
2061

> <i_lp_mmshare_version>
43012

> <i_f3d_flags>
0

> <s_epik_input>
W0NIM11jMVtjSF1jKG5vMSlbTkhdQyg9TylbTkhdW0NIMl1bQ0BIXShbQ0gzXSlOMltDSDJdW0NAQEhdKFtDSDNdKU9bQ0BASF0oW0NIM10pW0NIMl0y

> <s_epik_cmdline>
J2VwaWtfcHl0aG9uJywgJy1waCcsICc3LjAnLCAnLXRuJywgJzgnLCAnLW1hJywgJzIwMCcsICctbWV0YWxfYmluZGluZycsICctaW1hZScsICc8aW5maWxlLm1hZT4nLCAnLW9tYWUnLCAnPG91dGZpbGUubWFlPic=

> <r_epik_Ionization_Penalty>
6.8073

> <r_epik_Ionization_Penalty_Charging>
6.80729

> <r_epik_Ionization_Penalty_Neutral>
5.65391e-06

> <r_epik_State_Penalty>
7.47323

> <r_epik_Charging_Adjusted_Penalty>
14.2805

> <i_epik_Tot_Q>
0

> <i_epik_Tot_abs_Q>
2

> <r_epik_Metal_State_Penalty>
3.40035

> <b_epik_Metal_Only>
1

> <s_lp_Force_Field>
OPLS_2005

> <r_lp_Energy>
19.3707

> <b_lp_Chiralities_Consistent>
1

> <s_lp_Variant>
AV-unprocessed.smi:2061-32

> <Gold.Version>
5.8.1

> <Gold.Id.Protein>
6NUR|6NUR_protein|mol2

> <Gold.PLP.Fitness>
39.4538

> <Gold.PLP.PLP>
-32.7637

> <Gold.PLP.part.hbond>
-2.6868

> <Gold.PLP.part.metal>
0.0000

> <Gold.PLP.part.buried>
-4.8207

> <Gold.PLP.part.nonpolar>
-26.1843

> <Gold.PLP.part.repulsive>
0.4646

> <Gold.PLP.ligand.clash>
0.0556

> <Gold.PLP.ligand.torsion>
1.2019

> <Gold.PLP.Chemscore.Hbond>
3.0000

> <Gold.PLP.Chemscore.CHOScore>
0.0000

> <Gold.PLP.Chemscore.Metal>
0.0000

> <Gold.Chemscore.Hbonds>
donor molecule, donor type, donor heavy atom, donor atom, acceptor molecule, acceptor atom, score
      L1  H    12    45       P1  7948  2.00
      P1  H  7989  7998       L1     8  0.80

> <Gold.PLP.Chemscore.Internal.Correction>
0.1495

> <Gold.Rescore>
     Score         DG    S(hbond)    S(metal)    S(lipo)     H(rot)  DE(clash)    DE(int)     intcor
     13.89     -16.33       1.78        0.00      75.95       1.56       0.13       2.32       ----

> <Gold.Chemscore.Fitness>
13.8858

> <Gold.Chemscore.DG>
-16.3329

> <Gold.Chemscore.ZeroCoef>
-5.4800

> <Gold.Chemscore.Hbond>
1.7806

> <Gold.Chemscore.Metal>
0.0000

> <Gold.Chemscore.Lipo>
75.9522

> <Gold.Chemscore.Internal_Hbond>
0.0000

> <Gold.Chemscore.DEClash>
0.1270

> <Gold.Chemscore.DEInternal>
2.3201

> <Gold.Chemscore.Rot>
1.5550

> <Gold.Chemscore.Internal.Correction>
   9.000000E+99

> <Gold.Chemscore.Hbonds>
donor molecule, donor type, donor heavy atom, donor atom, acceptor molecule, acceptor atom, score
      L1  H    12    45       P1  7948  0.94
      P1  H  7989  7998       L1     8  0.06

> <Gold.Chemscore.Hbond.Weighted>
-5.9474

> <Gold.Chemscore.Metal.Weighted>
-0.0000

> <Gold.Chemscore.Lipo.Weighted>
-8.8864

> <Gold.Chemscore.Internal_Hbond.Weighted>
0.0000

> <Gold.Chemscore.DEClash.Weighted>
0.1270

> <Gold.Chemscore.DEInternal.Weighted>
2.3201

> <Gold.Chemscore.Rot.Weighted>
3.9809

> <Gold.Chemscore.Internal.Correction.Weighted>
   9.000000E+99

> <Gold.Protein.RotatedTorsions>
[ 6907 6896 6895 6894 ] final   33.67 input  -60.11 | X-H torsion
[ 7974 7965 7964 7962 ] final   57.62 input  175.53 | X-H torsion
[ 8008 7997 7996 7995 ] final  164.71 input   59.86 | X-H torsion
[ 10167 10162 10161 10158 ] final   20.13 input  -65.29 | X-H torsion
[ 10718 10713 10712 10709 ] final -100.83 input   66.30 | X-H torsion
[ 10763 10752 10751 10750 ] final  -51.64 input  -60.55 | X-H torsion
[ 11005 11000 10999 10996 ] final   65.71 input  -57.11 | X-H torsion

> <Gold.Protein.ActiveResidues>
 VAL166  LYS551  ARG553  GLY616  TRP617  ASP618  TYR619  PRO620  LYS621  CYS622 
 ASP623  PHE694  ASN695  SER759  ASP760  ASP761  ALA762  ILE779  LEU786  VAL792 
 PHE793  MET794  SER795  GLU796  ALA797  LYS798  CYS799  TRP800  GLU811  SER814 

> <Gold.Protein.RotatedAtoms>
  152.0917  134.9402  160.0571 H   0  0  0  0  0  0  0  0  0  0  0  0  # atno 6907 bound_to 6896
  152.0651  133.4075  159.4443 H   0  0  0  0  0  0  0  0  0  0  0  0  # atno 6908 bound_to 6896
  150.6837  134.3076  159.4776 H   0  0  0  0  0  0  0  0  0  0  0  0  # atno 6909 bound_to 6896
  145.9271  139.3777  143.0443 H   0  0  0  0  0  0  0  0  0  0  0  0  # atno 7974 bound_to 7965
  156.1858  140.1689  156.8188 H   0  0  0  0  0  0  0  0  0  0  0  0  # atno 8008 bound_to 7997
  154.5412  140.0736  156.8546 H   0  0  0  0  0  0  0  0  0  0  0  0  # atno 8009 bound_to 7997
  155.3210  140.3373  155.4243 H   0  0  0  0  0  0  0  0  0  0  0  0  # atno 8010 bound_to 7997
  140.5527  143.9481  150.6588 H   0  0  0  0  0  0  0  0  0  0  0  0  # atno 10167 bound_to 10162
  156.0175  130.5345  150.6874 H   0  0  0  0  0  0  0  0  0  0  0  0  # atno 10718 bound_to 10713
  154.1299  135.6521  153.4920 H   0  0  0  0  0  0  0  0  0  0  0  0  # atno 10763 bound_to 10752
  153.0198  135.5290  154.7012 H   0  0  0  0  0  0  0  0  0  0  0  0  # atno 10764 bound_to 10752
  154.6243  135.2968  155.0260 H   0  0  0  0  0  0  0  0  0  0  0  0  # atno 10765 bound_to 10752
  139.9877  134.6641  156.0146 H   0  0  0  0  0  0  0  0  0  0  0  0  # atno 11005 bound_to 11000
  145.8475  140.9547  143.0767 LP  0  0  0  0  0  0  0  0  0  0  0  0  # atno 17320 bound_to 7965
  144.6760  140.0363  143.7481 LP  0  0  0  0  0  0  0  0  0  0  0  0  # atno 17321 bound_to 7965
  140.2911  143.3324  152.1062 LP  0  0  0  0  0  0  0  0  0  0  0  0  # atno 17342 bound_to 10162
  139.5034  144.6755  151.6139 LP  0  0  0  0  0  0  0  0  0  0  0  0  # atno 17343 bound_to 10162
  157.4563  131.0878  151.0793 LP  0  0  0  0  0  0  0  0  0  0  0  0  # atno 17370 bound_to 10713
  157.1293  130.6095  149.5525 LP  0  0  0  0  0  0  0  0  0  0  0  0  # atno 17371 bound_to 10713
  141.1539  133.6545  156.4099 LP  0  0  0  0  0  0  0  0  0  0  0  0  # atno 17394 bound_to 11000
  140.4970  134.6522  157.5233 LP  0  0  0  0  0  0  0  0  0  0  0  0  # atno 17395 bound_to 11000

$$$$
