AV-unprocessed.smi:3254|AV-procd|sdf|12456|dock8
  -GOLD-   2272018353D 1   1.00000     0.00000
 Structure written by MMmdl.
 36 37  0  0  0  0  0  0  0  0  1 V2000
  149.8453  141.5635  156.9827 C   0  0  0  0  0  0  0  0  0  0  0  0
  150.9580  141.3746  155.9424 C   0  0  0  0  0  0  0  0  0  0  0  0
  150.8738  140.0697  155.2912 N   0  0  0  0  0  0  0  0  0  0  0  0
  149.6732  139.6748  154.5740 C   0  0  0  0  0  0  0  0  0  0  0  0
  149.8746  138.1878  154.2084 C   0  0  2  0  0  0  0  0  0  0  0  0
  148.9359  137.2619  154.9978 C   0  0  0  0  0  0  0  0  0  0  0  0
  148.9380  137.2799  156.2293 O   0  0  0  0  0  0  0  0  0  0  0  0
  148.1353  136.4626  154.2762 N   0  0  0  0  0  0  0  0  0  0  0  0
  147.1726  135.5211  154.8348 C   0  0  0  0  0  0  0  0  0  0  0  0
  145.7326  135.8755  154.4284 C   0  0  0  0  0  0  0  0  0  0  0  0
  145.3601  135.2354  153.1836 N   0  0  0  0  0  0  0  0  0  0  0  0
  145.8658  135.5069  151.9192 C   0  0  0  0  0  0  0  0  0  0  0  0
  145.2189  134.6598  151.0476 C   0  0  0  0  0  0  0  0  0  0  0  0
  144.3160  133.8647  151.7498 N   0  0  0  0  0  0  0  0  0  0  0  0
  144.4560  134.2621  153.0079 C   0  0  0  0  0  0  0  0  0  0  0  0
  151.3555  137.8943  154.5213 C   0  0  0  0  0  0  0  0  0  0  0  0
  151.8254  139.1300  155.2702 C   0  0  0  0  0  0  0  0  0  0  0  0
  152.9392  139.2132  155.7858 O   0  0  0  0  0  0  0  0  0  0  0  0
  149.9379  142.5313  157.4758 H   0  0  0  0  0  0  0  0  0  0  0  0
  149.8919  140.7926  157.7525 H   0  0  0  0  0  0  0  0  0  0  0  0
  148.8575  141.5207  156.5235 H   0  0  0  0  0  0  0  0  0  0  0  0
  150.9025  142.1611  155.1884 H   0  0  0  0  0  0  0  0  0  0  0  0
  151.9307  141.4799  156.4240 H   0  0  0  0  0  0  0  0  0  0  0  0
  148.7859  139.8468  155.1862 H   0  0  0  0  0  0  0  0  0  0  0  0
  149.5748  140.2845  153.6750 H   0  0  0  0  0  0  0  0  0  0  0  0
  149.6935  138.0502  153.1410 H   0  0  0  0  0  0  0  0  0  0  0  0
  148.1975  136.5099  153.2694 H   0  0  0  0  0  0  0  0  0  0  0  0
  147.4266  134.5241  154.4738 H   0  0  0  0  0  0  0  0  0  0  0  0
  147.2690  135.4917  155.9216 H   0  0  0  0  0  0  0  0  0  0  0  0
  145.0244  135.5642  155.1973 H   0  0  0  0  0  0  0  0  0  0  0  0
  145.6224  136.9547  154.3137 H   0  0  0  0  0  0  0  0  0  0  0  0
  146.6215  136.2598  151.7491 H   0  0  0  0  0  0  0  0  0  0  0  0
  145.3324  134.5632  149.9778 H   0  0  0  0  0  0  0  0  0  0  0  0
  143.8859  133.8362  153.8205 H   0  0  0  0  0  0  0  0  0  0  0  0
  151.5093  136.9995  155.1269 H   0  0  0  0  0  0  0  0  0  0  0  0
  151.9356  137.7835  153.6048 H   0  0  0  0  0  0  0  0  0  0  0  0
  1  2  1  0  0  0  0
  1 19  1  0  0  0  0
  1 20  1  0  0  0  0
  1 21  1  0  0  0  0
  2  3  1  0  0  0  0
  2 22  1  0  0  0  0
  2 23  1  0  0  0  0
  3 17  1  0  0  0  0
  3  4  1  0  0  0  0
  4  5  1  0  0  0  0
  4 24  1  0  0  0  0
  4 25  1  0  0  0  0
  5  6  1  0  0  0  0
  5 16  1  0  0  0  0
  5 26  1  0  0  0  0
  6  7  2  0  0  0  0
  6  8  1  0  0  0  0
  8  9  1  0  0  0  0
  8 27  1  0  0  0  0
  9 10  1  0  0  0  0
  9 28  1  0  0  0  0
  9 29  1  0  0  0  0
 10 11  1  0  0  0  0
 10 30  1  0  0  0  0
 10 31  1  0  0  0  0
 11 15  1  0  0  0  0
 11 12  1  0  0  0  0
 12 13  2  0  0  0  0
 12 32  1  0  0  0  0
 13 14  1  0  0  0  0
 13 33  1  0  0  0  0
 14 15  2  0  0  0  0
 15 34  1  0  0  0  0
 16 17  1  0  0  0  0
 16 35  1  0  0  0  0
 16 36  1  0  0  0  0
 17 18  2  0  0  0  0
M  END
> <s_m_source_file>
AV-unprocessed.smi

> <i_m_source_file_index>
3254

> <i_lp_mmshare_version>
43012

> <i_f3d_flags>
0

> <s_epik_input>
W0NIM11bQ0gyXU4xW0NIMl1bQ0BIXShbQ0gyXUMxPU8pQyg9TylbTkhdW0NIMl1bQ0gyXW4yW2NIXVtjSF1uW2NIXTI=

> <s_epik_cmdline>
J2VwaWtfcHl0aG9uJywgJy1waCcsICc3LjAnLCAnLXRuJywgJzgnLCAnLW1hJywgJzIwMCcsICctbWV0YWxfYmluZGluZycsICctaW1hZScsICc8aW5maWxlLm1hZT4nLCAnLW9tYWUnLCAnPG91dGZpbGUubWFlPic=

> <r_lp_tautomer_probability>
1

> <r_epik_Ionization_Penalty>
0.587394

> <r_epik_Ionization_Penalty_Charging>
0.587394

> <r_epik_Ionization_Penalty_Neutral>
3.11583e-08

> <r_epik_State_Penalty>
0.600671

> <r_epik_Charging_Adjusted_Penalty>
1.18807

> <i_epik_Tot_Q>
0

> <i_epik_Tot_abs_Q>
0

> <r_epik_Metal_State_Penalty>
0.297665

> <b_epik_Metal_Only>
0

> <s_lp_Force_Field>
OPLS_2005

> <r_lp_Energy>
13.3235

> <b_lp_Chiralities_Consistent>
1

> <s_lp_Variant>
AV-unprocessed.smi:3254-4

> <Gold.Version>
5.8.1

> <Gold.Id.Protein>
6NUR|6NUR_protein|mol2

> <Gold.PLP.Fitness>
40.7822

> <Gold.PLP.PLP>
-26.3891

> <Gold.PLP.part.hbond>
-2.0000

> <Gold.PLP.part.metal>
0.0000

> <Gold.PLP.part.buried>
-1.6052

> <Gold.PLP.part.nonpolar>
-22.9243

> <Gold.PLP.part.repulsive>
0.1426

> <Gold.PLP.ligand.clash>
0.0000

> <Gold.PLP.ligand.torsion>
0.2651

> <Gold.PLP.Chemscore.Hbond>
2.0000

> <Gold.PLP.Chemscore.CHOScore>
2.9695

> <Gold.PLP.Chemscore.Metal>
0.0000

> <Gold.Chemscore.Hbonds>
donor molecule, donor type, donor heavy atom, donor atom, acceptor molecule, acceptor atom, score
      L1  H     8    27       P1  7948  1.00
      P1  H  7997  8008       L1    18  1.00
      L1  C    12    32       P1  7948  1.00
      L1  C    13    33       P1  7921  1.00
      L1  C    15    34       P1 10957  0.85

> <Gold.PLP.Chemscore.Internal.Correction>
0.0149

> <Gold.Rescore>
     Score         DG    S(hbond)    S(metal)    S(lipo)     H(rot)  DE(clash)    DE(int)     intcor
     11.67     -12.00       1.97        0.00      47.59       2.20       0.02       0.31       ----

> <Gold.Chemscore.Fitness>
11.6716

> <Gold.Chemscore.DG>
-11.9968

> <Gold.Chemscore.ZeroCoef>
-5.4800

> <Gold.Chemscore.Hbond>
1.9667

> <Gold.Chemscore.Metal>
0.0000

> <Gold.Chemscore.Lipo>
47.5862

> <Gold.Chemscore.Internal_Hbond>
0.0000

> <Gold.Chemscore.DEClash>
0.0194

> <Gold.Chemscore.DEInternal>
0.3057

> <Gold.Chemscore.Rot>
2.1952

> <Gold.Chemscore.Internal.Correction>
   9.000000E+99

> <Gold.Chemscore.Hbonds>
donor molecule, donor type, donor heavy atom, donor atom, acceptor molecule, acceptor atom, score
      L1  H     8    27       P1  7948  0.95
      P1  H  7997  8008       L1    18  1.00

> <Gold.Chemscore.Hbond.Weighted>
-6.5689

> <Gold.Chemscore.Metal.Weighted>
-0.0000

> <Gold.Chemscore.Lipo.Weighted>
-5.5676

> <Gold.Chemscore.Internal_Hbond.Weighted>
0.0000

> <Gold.Chemscore.DEClash.Weighted>
0.0194

> <Gold.Chemscore.DEInternal.Weighted>
0.3057

> <Gold.Chemscore.Rot.Weighted>
5.6197

> <Gold.Chemscore.Internal.Correction.Weighted>
   9.000000E+99

> <Gold.Protein.RotatedTorsions>
[ 6907 6896 6895 6894 ] final  178.96 input  -60.11 | X-H torsion
[ 7974 7965 7964 7962 ] final   -5.42 input  175.53 | X-H torsion
[ 8008 7997 7996 7995 ] final  -28.57 input   59.86 | X-H torsion
[ 10167 10162 10161 10158 ] final   51.01 input  -65.29 | X-H torsion
[ 10718 10713 10712 10709 ] final  120.27 input   66.30 | X-H torsion
[ 10763 10752 10751 10750 ] final  -88.86 input  -60.55 | X-H torsion
[ 11005 11000 10999 10996 ] final  -61.53 input  -57.11 | X-H torsion

> <Gold.Protein.ActiveResidues>
 VAL166  LYS551  ARG553  GLY616  TRP617  ASP618  TYR619  PRO620  LYS621  CYS622 
 ASP623  PHE694  ASN695  SER759  ASP760  ASP761  ALA762  ILE779  LEU786  VAL792 
 PHE793  MET794  SER795  GLU796  ALA797  LYS798  CYS799  TRP800  GLU811  SER814 

> <Gold.Protein.RotatedAtoms>
  151.6793  133.3312  159.3215 H   0  0  0  0  0  0  0  0  0  0  0  0  # atno 6907 bound_to 6896
  150.7830  134.6795  159.6445 H   0  0  0  0  0  0  0  0  0  0  0  0  # atno 6908 bound_to 6896
  152.3893  134.6471  160.0166 H   0  0  0  0  0  0  0  0  0  0  0  0  # atno 6909 bound_to 6896
  146.2353  140.2019  142.8334 H   0  0  0  0  0  0  0  0  0  0  0  0  # atno 7974 bound_to 7965
  154.4326  140.1841  156.1111 H   0  0  0  0  0  0  0  0  0  0  0  0  # atno 8008 bound_to 7997
  156.0217  140.3340  155.7020 H   0  0  0  0  0  0  0  0  0  0  0  0  # atno 8009 bound_to 7997
  155.5966  140.0636  157.2735 H   0  0  0  0  0  0  0  0  0  0  0  0  # atno 8010 bound_to 7997
  140.2664  144.3315  150.6303 H   0  0  0  0  0  0  0  0  0  0  0  0  # atno 10167 bound_to 10162
  157.5902  131.1065  150.8013 H   0  0  0  0  0  0  0  0  0  0  0  0  # atno 10718 bound_to 10713
  154.6491  135.5362  153.7880 H   0  0  0  0  0  0  0  0  0  0  0  0  # atno 10763 bound_to 10752
  153.0376  135.6478  154.1044 H   0  0  0  0  0  0  0  0  0  0  0  0  # atno 10764 bound_to 10752
  154.0962  135.2936  155.3241 H   0  0  0  0  0  0  0  0  0  0  0  0  # atno 10765 bound_to 10752
  141.1327  133.6631  156.5389 H   0  0  0  0  0  0  0  0  0  0  0  0  # atno 11005 bound_to 11000
  144.9775  140.8428  143.5417 LP  0  0  0  0  0  0  0  0  0  0  0  0  # atno 17320 bound_to 7965
  145.2008  139.2253  143.5194 LP  0  0  0  0  0  0  0  0  0  0  0  0  # atno 17321 bound_to 7965
  140.5925  143.2167  151.7227 LP  0  0  0  0  0  0  0  0  0  0  0  0  # atno 17342 bound_to 10162
  139.5001  144.3918  152.0272 LP  0  0  0  0  0  0  0  0  0  0  0  0  # atno 17343 bound_to 10162
  156.8436  130.5056  149.5318 LP  0  0  0  0  0  0  0  0  0  0  0  0  # atno 17370 bound_to 10713
  156.0956  130.5930  150.9808 LP  0  0  0  0  0  0  0  0  0  0  0  0  # atno 17371 bound_to 10713
  140.4156  134.7233  157.4861 LP  0  0  0  0  0  0  0  0  0  0  0  0  # atno 17394 bound_to 11000
  140.0396  134.6286  155.8998 LP  0  0  0  0  0  0  0  0  0  0  0  0  # atno 17395 bound_to 11000

$$$$
