AV-unprocessed.smi:109|AV-procd|sdf|1031|dock5
  -GOLD-   2262018 33D 1   1.00000     0.00000
 Structure written by MMmdl.
 58 61  0  0  0  0  0  0  0  0  1 V2000
  152.7987  139.5547  154.9125 O   0  0  0  0  0  0  0  0  0  0  0  0
  151.5870  139.8109  155.5890 C   0  0  0  0  0  0  0  0  0  0  0  0
  151.7778  140.9687  156.5840 C   0  0  0  0  0  0  0  0  0  0  0  0
  150.5075  141.3227  157.3960 C   0  0  2  0  0  0  0  0  0  0  0  0
  149.4617  141.7919  156.4839 N   0  0  0  0  0  0  0  0  0  0  0  0
  148.2501  141.1965  156.4051 C   0  0  0  0  0  0  0  0  0  0  0  0
  147.2247  141.5596  157.2187 N   0  0  0  0  0  0  0  0  0  0  0  0
  146.0407  140.9494  157.1173 C   0  0  0  0  0  0  0  0  0  0  0  0
  145.6763  139.9699  156.2875 N   0  0  0  0  0  0  0  0  0  0  0  0
  146.7019  139.5996  155.4673 C   0  0  0  0  0  0  0  0  0  0  0  0
  148.0089  140.1618  155.4647 C   0  0  0  0  0  0  0  0  0  0  0  0
  148.7870  139.5398  154.4973 N   0  0  0  0  0  0  0  0  0  0  0  0
  147.9815  138.6630  153.9603 C   0  0  0  0  0  0  0  0  0  0  0  0
  146.7090  138.6289  154.4863 N   0  0  0  0  0  0  0  0  0  0  0  0
  145.5791  137.7391  154.0801 C   0  0  2  0  0  0  0  0  0  0  0  0
  145.9650  136.4184  154.3069 O   0  0  0  0  0  0  0  0  0  0  0  0
  145.5396  135.6019  153.2224 C   0  0  2  0  0  0  0  0  0  0  0  0
  146.4179  134.3437  153.1435 C   0  0  0  0  0  0  0  0  0  0  0  0
  147.7604  134.6722  153.4308 O   0  0  0  0  0  0  0  0  0  0  0  0
  145.7007  136.5374  152.0230 C   0  0  1  0  0  0  0  0  0  0  0  0
  144.9461  136.1247  150.8987 O   0  0  0  0  0  0  0  0  0  0  0  0
  145.2685  137.8918  152.5817 C   0  0  1  0  0  0  0  0  0  0  0  0
  143.8895  138.1408  152.3774 O   0  0  0  0  0  0  0  0  0  0  0  0
  150.7514  142.3936  158.4984 C   0  0  0  0  0  0  0  0  0  0  0  0
  151.0526  143.8006  157.9228 C   0  0  0  0  0  0  0  0  0  0  0  0
  151.3372  144.8383  159.0215 C   0  0  0  0  0  0  0  0  0  0  0  0
  152.4854  144.3895  159.9332 C   0  0  0  0  0  0  0  0  0  0  0  0
  152.1851  143.0131  160.5374 C   0  0  0  0  0  0  0  0  0  0  0  0
  151.9118  141.9745  159.4386 C   0  0  0  0  0  0  0  0  0  0  0  0
  144.7517  138.0209  154.7334 H   0  0  0  0  0  0  0  0  0  0  0  0
  144.4857  135.3465  153.3527 H   0  0  0  0  0  0  0  0  0  0  0  0
  146.7507  136.5865  151.7343 H   0  0  0  0  0  0  0  0  0  0  0  0
  145.8401  138.7097  152.1403 H   0  0  0  0  0  0  0  0  0  0  0  0
  152.5988  139.2975  154.0254 H   0  0  0  0  0  0  0  0  0  0  0  0
  150.8217  140.0458  154.8491 H   0  0  0  0  0  0  0  0  0  0  0  0
  151.2740  138.9050  156.1092 H   0  0  0  0  0  0  0  0  0  0  0  0
  152.5781  140.6720  157.2596 H   0  0  0  0  0  0  0  0  0  0  0  0
  152.1344  141.8535  156.0547 H   0  0  0  0  0  0  0  0  0  0  0  0
  150.1874  140.4191  157.9142 H   0  0  0  0  0  0  0  0  0  0  0  0
  149.6973  142.6112  155.9423 H   0  0  0  0  0  0  0  0  0  0  0  0
  145.2765  141.2953  157.7975 H   0  0  0  0  0  0  0  0  0  0  0  0
  148.2982  138.0089  153.1609 H   0  0  0  0  0  0  0  0  0  0  0  0
  146.0952  133.6127  153.8852 H   0  0  0  0  0  0  0  0  0  0  0  0
  146.3420  133.8674  152.1655 H   0  0  0  0  0  0  0  0  0  0  0  0
  148.0066  135.4178  152.9051 H   0  0  0  0  0  0  0  0  0  0  0  0
  144.3922  136.8421  150.6312 H   0  0  0  0  0  0  0  0  0  0  0  0
  143.7400  138.2482  151.4503 H   0  0  0  0  0  0  0  0  0  0  0  0
  149.8441  142.4697  159.1000 H   0  0  0  0  0  0  0  0  0  0  0  0
  151.9055  143.7454  157.2447 H   0  0  0  0  0  0  0  0  0  0  0  0
  150.2126  144.1695  157.3365 H   0  0  0  0  0  0  0  0  0  0  0  0
  151.5788  145.8001  158.5684 H   0  0  0  0  0  0  0  0  0  0  0  0
  150.4373  144.9955  159.6176 H   0  0  0  0  0  0  0  0  0  0  0  0
  153.4140  144.3467  159.3624 H   0  0  0  0  0  0  0  0  0  0  0  0
  152.6413  145.1204  160.7272 H   0  0  0  0  0  0  0  0  0  0  0  0
  153.0233  142.6883  161.1546 H   0  0  0  0  0  0  0  0  0  0  0  0
  151.3212  143.0822  161.1996 H   0  0  0  0  0  0  0  0  0  0  0  0
  151.6959  141.0206  159.9200 H   0  0  0  0  0  0  0  0  0  0  0  0
  152.8195  141.8210  158.8529 H   0  0  0  0  0  0  0  0  0  0  0  0
  1  2  1  0  0  0  0
  1 34  1  0  0  0  0
  2  3  1  0  0  0  0
  2 35  1  0  0  0  0
  2 36  1  0  0  0  0
  3  4  1  0  0  0  0
  3 37  1  0  0  0  0
  3 38  1  0  0  0  0
  4  5  1  0  0  0  0
  4 24  1  0  0  0  0
  4 39  1  0  0  0  0
  5  6  1  0  0  0  0
  5 40  1  0  0  0  0
  6 11  1  0  0  0  0
  6  7  2  0  0  0  0
  7  8  1  0  0  0  0
  8  9  2  0  0  0  0
  8 41  1  0  0  0  0
  9 10  1  0  0  0  0
 10 14  1  0  0  0  0
 10 11  2  0  0  0  0
 11 12  1  0  0  0  0
 12 13  2  0  0  0  0
 13 14  1  0  0  0  0
 13 42  1  0  0  0  0
 14 15  1  0  0  0  0
 15 30  1  0  0  0  0
 15 22  1  0  0  0  0
 15 16  1  0  0  0  0
 16 17  1  0  0  0  0
 17 31  1  0  0  0  0
 17 18  1  0  0  0  0
 17 20  1  0  0  0  0
 18 19  1  0  0  0  0
 18 43  1  0  0  0  0
 18 44  1  0  0  0  0
 19 45  1  0  0  0  0
 20 32  1  0  0  0  0
 20 21  1  0  0  0  0
 20 22  1  0  0  0  0
 21 46  1  0  0  0  0
 22 33  1  0  0  0  0
 22 23  1  0  0  0  0
 23 47  1  0  0  0  0
 24 29  1  0  0  0  0
 24 25  1  0  0  0  0
 24 48  1  0  0  0  0
 25 26  1  0  0  0  0
 25 49  1  0  0  0  0
 25 50  1  0  0  0  0
 26 27  1  0  0  0  0
 26 51  1  0  0  0  0
 26 52  1  0  0  0  0
 27 28  1  0  0  0  0
 27 53  1  0  0  0  0
 27 54  1  0  0  0  0
 28 29  1  0  0  0  0
 28 55  1  0  0  0  0
 28 56  1  0  0  0  0
 29 57  1  0  0  0  0
 29 58  1  0  0  0  0
M  END
> <s_m_source_file>
AV-unprocessed.smi

> <i_m_source_file_index>
109

> <i_lp_mmshare_version>
43012

> <i_f3d_flags>
0

> <s_epik_input>
W0NIMl0xW0NIMl1bQ0gyXVtDSDJdW0NIMl1bQ0hdMVtDQEhdKFtDSDJdW0NIMl1bT0hdKVtOSF1jKG5bY0hdbjIpYyhjMjMpbltjSF1uM1tDQEBIXTRPW0NASF0oW0NIMl1bT0hdKVtDQEBIXShbT0hdKVtDQEhdNFtPSF0=

> <s_epik_cmdline>
J2VwaWtfcHl0aG9uJywgJy1waCcsICc3LjAnLCAnLXRuJywgJzgnLCAnLW1hJywgJzIwMCcsICctbWV0YWxfYmluZGluZycsICctaW1hZScsICc8aW5maWxlLm1hZT4nLCAnLW9tYWUnLCAnPG91dGZpbGUubWFlPic=

> <r_lp_tautomer_probability>
1

> <r_epik_Ionization_Penalty>
0.000793976

> <r_epik_Ionization_Penalty_Charging>
0

> <r_epik_Ionization_Penalty_Neutral>
0.000793976

> <r_epik_State_Penalty>
-0

> <r_epik_Charging_Adjusted_Penalty>
0

> <i_epik_Tot_Q>
0

> <i_epik_Tot_abs_Q>
0

> <r_epik_Metal_State_Penalty>
-0

> <b_epik_Metal_Only>
0

> <s_epik_Chemistry_Notes>
This compound contains an acetal/aminal-like group ( X-CH(R)-Y where X, Y are N, S, or O) that may be acid/base labile, releasing an aldehyde.

> <s_lp_Force_Field>
OPLS_2005

> <r_lp_Energy>
54.5538

> <b_lp_Chiralities_Consistent>
1

> <s_lp_Variant>
AV-unprocessed.smi:109-1

> <Gold.Version>
5.8.1

> <Gold.Id.Protein>
6NUR|6NUR_protein|mol2

> <Gold.PLP.Fitness>
51.3725

> <Gold.PLP.PLP>
-37.4153

> <Gold.PLP.part.hbond>
-6.1102

> <Gold.PLP.part.metal>
0.0000

> <Gold.PLP.part.buried>
-5.1444

> <Gold.PLP.part.nonpolar>
-27.2001

> <Gold.PLP.part.repulsive>
0.3464

> <Gold.PLP.ligand.clash>
0.0000

> <Gold.PLP.ligand.torsion>
1.0025

> <Gold.PLP.Chemscore.Hbond>
4.2544

> <Gold.PLP.Chemscore.CHOScore>
1.0000

> <Gold.PLP.Chemscore.Metal>
0.0000

> <Gold.Chemscore.Hbonds>
donor molecule, donor type, donor heavy atom, donor atom, acceptor molecule, acceptor atom, score
      L1  H     5    40       P1  8028  0.29
      L1  H    19    45       P1  7948  1.00
      L1  H    21    46       P1 10171  1.00
      L1  H    23    47       P1 10171  1.00
      P1  H  7997  8008       L1     1  1.00
      L1  C    13    42       P1  7948  1.00

> <Gold.PLP.Chemscore.Internal.Correction>
0.1990

> <Gold.Rescore>
     Score         DG    S(hbond)    S(metal)    S(lipo)     H(rot)  DE(clash)    DE(int)     intcor
     15.11     -16.89       4.20        0.00      97.27       5.47       0.70       1.08       ----

> <Gold.Chemscore.Fitness>
15.1128

> <Gold.Chemscore.DG>
-16.8919

> <Gold.Chemscore.ZeroCoef>
-5.4800

> <Gold.Chemscore.Hbond>
4.1989

> <Gold.Chemscore.Metal>
0.0000

> <Gold.Chemscore.Lipo>
97.2748

> <Gold.Chemscore.Internal_Hbond>
0.0000

> <Gold.Chemscore.DEClash>
0.6976

> <Gold.Chemscore.DEInternal>
1.0815

> <Gold.Chemscore.Rot>
5.4662

> <Gold.Chemscore.Internal.Correction>
   9.000000E+99

> <Gold.Chemscore.Hbonds>
donor molecule, donor type, donor heavy atom, donor atom, acceptor molecule, acceptor atom, score
      L1  H     5    40       P1  8028  0.29
      L1  H    19    45       P1  7948  0.96
      L1  H    21    46       P1 10171  0.97
      L1  H    23    47       P1 10171  0.96
      P1  H  7997  8008       L1     1  0.82

> <Gold.Chemscore.Hbond.Weighted>
-14.0243

> <Gold.Chemscore.Metal.Weighted>
-0.0000

> <Gold.Chemscore.Lipo.Weighted>
-11.3812

> <Gold.Chemscore.Internal_Hbond.Weighted>
0.0000

> <Gold.Chemscore.DEClash.Weighted>
0.6976

> <Gold.Chemscore.DEInternal.Weighted>
1.0815

> <Gold.Chemscore.Rot.Weighted>
13.9935

> <Gold.Chemscore.Internal.Correction.Weighted>
   9.000000E+99

> <Gold.Protein.RotatedTorsions>
[ 6907 6896 6895 6894 ] final  -48.73 input  -60.11 | X-H torsion
[ 7974 7965 7964 7962 ] final  163.75 input  175.53 | X-H torsion
[ 8008 7997 7996 7995 ] final  -16.84 input   59.86 | X-H torsion
[ 10167 10162 10161 10158 ] final   80.68 input  -65.29 | X-H torsion
[ 10718 10713 10712 10709 ] final   34.93 input   66.30 | X-H torsion
[ 10763 10752 10751 10750 ] final  108.32 input  -60.55 | X-H torsion
[ 11005 11000 10999 10996 ] final  142.16 input  -57.11 | X-H torsion

> <Gold.Protein.ActiveResidues>
 VAL166  LYS551  ARG553  GLY616  TRP617  ASP618  TYR619  PRO620  LYS621  CYS622 
 ASP623  PHE694  ASN695  SER759  ASP760  ASP761  ALA762  ILE779  LEU786  VAL792 
 PHE793  MET794  SER795  GLU796  ALA797  LYS798  CYS799  TRP800  GLU811  SER814 

> <Gold.Protein.RotatedAtoms>
  150.8876  134.8275  159.7269 H   0  0  0  0  0  0  0  0  0  0  0  0  # atno 6907 bound_to 6896
  152.4817  134.4699  159.9642 H   0  0  0  0  0  0  0  0  0  0  0  0  # atno 6908 bound_to 6896
  151.4765  133.3517  159.2867 H   0  0  0  0  0  0  0  0  0  0  0  0  # atno 6909 bound_to 6896
  144.7576  139.8227  143.6344 H   0  0  0  0  0  0  0  0  0  0  0  0  # atno 7974 bound_to 7965
  154.5022  140.2158  155.9323 H   0  0  0  0  0  0  0  0  0  0  0  0  # atno 8008 bound_to 7997
  156.1449  140.3172  155.8521 H   0  0  0  0  0  0  0  0  0  0  0  0  # atno 8009 bound_to 7997
  155.4050  140.0487  157.3025 H   0  0  0  0  0  0  0  0  0  0  0  0  # atno 8010 bound_to 7997
  139.9473  144.6050  150.8195 H   0  0  0  0  0  0  0  0  0  0  0  0  # atno 10167 bound_to 10162
  157.3164  130.7425  149.6757 H   0  0  0  0  0  0  0  0  0  0  0  0  # atno 10718 bound_to 10713
  153.4190  135.3816  155.2099 H   0  0  0  0  0  0  0  0  0  0  0  0  # atno 10763 bound_to 10752
  154.8743  135.3812  154.4407 H   0  0  0  0  0  0  0  0  0  0  0  0  # atno 10764 bound_to 10752
  153.4925  135.7088  153.5939 H   0  0  0  0  0  0  0  0  0  0  0  0  # atno 10765 bound_to 10752
  140.0456  134.9282  157.0924 H   0  0  0  0  0  0  0  0  0  0  0  0  # atno 11005 bound_to 11000
  146.1603  139.4715  142.9992 LP  0  0  0  0  0  0  0  0  0  0  0  0  # atno 17320 bound_to 7965
  145.6727  141.0212  143.1649 LP  0  0  0  0  0  0  0  0  0  0  0  0  # atno 17321 bound_to 7965
  140.7593  143.3127  151.2807 LP  0  0  0  0  0  0  0  0  0  0  0  0  # atno 17342 bound_to 10162
  139.6657  144.0110  152.2721 LP  0  0  0  0  0  0  0  0  0  0  0  0  # atno 17343 bound_to 10162
  155.9682  130.4236  150.4570 LP  0  0  0  0  0  0  0  0  0  0  0  0  # atno 17370 bound_to 10713
  157.2578  131.0560  151.2339 LP  0  0  0  0  0  0  0  0  0  0  0  0  # atno 17371 bound_to 10713
  140.3999  134.2094  155.7164 LP  0  0  0  0  0  0  0  0  0  0  0  0  # atno 17394 bound_to 11000
  141.1905  133.8215  157.0915 LP  0  0  0  0  0  0  0  0  0  0  0  0  # atno 17395 bound_to 11000

$$$$
