AV-unprocessed.smi:2757|AV-procd|sdf|10620|dock5
  -GOLD-   2272015 63D 1   1.00000     0.00000
 Structure written by MMmdl.
 32 33  0  0  0  0  0  0  0  0  2 V2000
  151.7847  145.1090  159.2237 C   0  0  0  0  0  0  0  0  0  0  0  0
  151.4596  143.9608  158.3920 N   0  0  0  0  0  0  0  0  0  0  0  0
  151.9252  142.7204  158.6010 C   0  0  0  0  0  0  0  0  0  0  0  0
  152.6789  142.4208  159.5277 O   0  0  0  0  0  0  0  0  0  0  0  0
  151.4750  141.6953  157.6018 C   0  0  0  0  0  0  0  0  0  0  0  0
  151.9296  140.3465  157.6847 C   0  0  0  0  0  0  0  0  0  0  0  0
  151.3245  139.7293  156.6280 C   0  0  0  0  0  0  0  0  0  0  0  0
  150.5632  140.6768  155.9762 N   0  0  0  0  0  0  0  0  0  0  0  0
  149.7321  140.5039  154.7943 C   0  0  2  0  0  0  0  0  0  0  0  0
  148.3048  141.0446  155.0168 C   0  0  0  0  0  0  0  0  0  0  0  0
  147.4509  140.8293  153.7581 C   0  0  0  0  0  0  0  0  0  0  0  0
  147.4611  139.3510  153.3333 C   0  0  0  0  0  0  0  0  0  0  0  0
  148.8467  138.8707  153.1378 N   0  3  0  0  0  0  0  0  0  0  0  0
  149.6884  139.0279  154.3445 C   0  0  0  0  0  0  0  0  0  0  0  0
  150.6512  141.8838  156.5788 N   0  0  0  0  0  0  0  0  0  0  0  0
  151.2544  145.9909  158.8641 H   0  0  0  0  0  0  0  0  0  0  0  0
  152.8546  145.3183  159.1928 H   0  0  0  0  0  0  0  0  0  0  0  0
  151.4932  144.9346  160.2603 H   0  0  0  0  0  0  0  0  0  0  0  0
  150.8493  144.1150  157.6025 H   0  0  0  0  0  0  0  0  0  0  0  0
  152.5986  139.9002  158.4060 H   0  0  0  0  0  0  0  0  0  0  0  0
  151.3739  138.7046  156.2900 H   0  0  0  0  0  0  0  0  0  0  0  0
  150.1912  141.0868  153.9939 H   0  0  0  0  0  0  0  0  0  0  0  0
  147.8345  140.5380  155.8606 H   0  0  0  0  0  0  0  0  0  0  0  0
  148.3372  142.1051  155.2687 H   0  0  0  0  0  0  0  0  0  0  0  0
  146.4274  141.1577  153.9418 H   0  0  0  0  0  0  0  0  0  0  0  0
  147.8335  141.4484  152.9455 H   0  0  0  0  0  0  0  0  0  0  0  0
  146.9718  138.7355  154.0893 H   0  0  0  0  0  0  0  0  0  0  0  0
  146.9040  139.2200  152.4053 H   0  0  0  0  0  0  0  0  0  0  0  0
  148.8218  137.8942  152.8809 H   0  0  0  0  0  0  0  0  0  0  0  0
  150.6936  138.6683  154.1223 H   0  0  0  0  0  0  0  0  0  0  0  0
  149.2905  138.3911  155.1361 H   0  0  0  0  0  0  0  0  0  0  0  0
  149.2657  139.3954  152.3832 H   0  0  0  0  0  0  0  0  0  0  0  0
  1  2  1  0  0  0  0
  1 16  1  0  0  0  0
  1 17  1  0  0  0  0
  1 18  1  0  0  0  0
  2  3  1  0  0  0  0
  2 19  1  0  0  0  0
  3  4  2  0  0  0  0
  3  5  1  0  0  0  0
  5 15  2  0  0  0  0
  5  6  1  0  0  0  0
  6  7  2  0  0  0  0
  6 20  1  0  0  0  0
  7  8  1  0  0  0  0
  7 21  1  0  0  0  0
  8  9  1  0  0  0  0
  8 15  1  0  0  0  0
  9 14  1  0  0  0  0
  9 10  1  0  0  0  0
  9 22  1  0  0  0  0
 10 11  1  0  0  0  0
 10 23  1  0  0  0  0
 10 24  1  0  0  0  0
 11 12  1  0  0  0  0
 11 25  1  0  0  0  0
 11 26  1  0  0  0  0
 12 13  1  0  0  0  0
 12 27  1  0  0  0  0
 12 28  1  0  0  0  0
 13 14  1  0  0  0  0
 13 29  1  0  0  0  0
 13 32  1  0  0  0  0
 14 30  1  0  0  0  0
 14 31  1  0  0  0  0
M  CHG  1  13   1
M  END
> <s_m_source_file>
AV-unprocessed.smi

> <i_m_source_file_index>
2757

> <i_lp_mmshare_version>
43012

> <i_f3d_flags>
0

> <s_epik_input>
W0NIM11bTkhdQyg9TyljMVtjSF1bY0hdbihuMSlbQ0BASF0yW0NIMl1bQ0gyXVtDSDJdW05IXVtDSDJdMg==

> <s_epik_cmdline>
J2VwaWtfcHl0aG9uJywgJy1waCcsICc3LjAnLCAnLXRuJywgJzgnLCAnLW1hJywgJzIwMCcsICctbWV0YWxfYmluZGluZycsICctaW1hZScsICc8aW5maWxlLm1hZT4nLCAnLW9tYWUnLCAnPG91dGZpbGUubWFlPic=

> <r_lp_tautomer_probability>
1

> <r_epik_Ionization_Penalty>
0.000652722

> <r_epik_Ionization_Penalty_Charging>
0.000651447

> <r_epik_Ionization_Penalty_Neutral>
1.27533e-06

> <r_epik_State_Penalty>
0.000412577

> <r_epik_Charging_Adjusted_Penalty>
0.00106402

> <i_epik_Tot_Q>
1

> <i_epik_Tot_abs_Q>
1

> <r_epik_Metal_State_Penalty>
-0

> <b_epik_Metal_Only>
0

> <s_lp_Force_Field>
OPLS_2005

> <r_lp_Energy>
20.0976

> <b_lp_Chiralities_Consistent>
1

> <s_lp_Variant>
AV-unprocessed.smi:2757-1

> <Gold.Version>
5.8.1

> <Gold.Id.Protein>
6NUR|6NUR_protein|mol2

> <Gold.PLP.Fitness>
39.9110

> <Gold.PLP.PLP>
-31.1037

> <Gold.PLP.part.hbond>
-1.9713

> <Gold.PLP.part.metal>
0.0000

> <Gold.PLP.part.buried>
-5.4974

> <Gold.PLP.part.nonpolar>
-24.0059

> <Gold.PLP.part.repulsive>
0.1884

> <Gold.PLP.ligand.clash>
0.0000

> <Gold.PLP.ligand.torsion>
0.0926

> <Gold.PLP.Chemscore.Hbond>
2.9913

> <Gold.PLP.Chemscore.CHOScore>
0.0000

> <Gold.PLP.Chemscore.Metal>
0.0000

> <Gold.Chemscore.Hbonds>
donor molecule, donor type, donor heavy atom, donor atom, acceptor molecule, acceptor atom, score
      L1  H    13    29       P1  7948  2.00
      L1  H    13    32       P1  7957  0.71

> <Gold.PLP.Chemscore.Internal.Correction>
0.0189

> <Gold.Rescore>
     Score         DG    S(hbond)    S(metal)    S(lipo)     H(rot)  DE(clash)    DE(int)     intcor
     16.94     -16.98       1.96        0.00      64.24       1.00       0.00       0.04       ----

> <Gold.Chemscore.Fitness>
16.9450

> <Gold.Chemscore.DG>
-16.9842

> <Gold.Chemscore.ZeroCoef>
-5.4800

> <Gold.Chemscore.Hbond>
1.9604

> <Gold.Chemscore.Metal>
0.0000

> <Gold.Chemscore.Lipo>
64.2441

> <Gold.Chemscore.Internal_Hbond>
0.0000

> <Gold.Chemscore.DEClash>
0.0004

> <Gold.Chemscore.DEInternal>
0.0387

> <Gold.Chemscore.Rot>
1.0000

> <Gold.Chemscore.Internal.Correction>
   9.000000E+99

> <Gold.Chemscore.Hbonds>
donor molecule, donor type, donor heavy atom, donor atom, acceptor molecule, acceptor atom, score
      L1  H    13    29       P1  7948  0.99
      L1  H    13    32       P1  7957  0.71

> <Gold.Chemscore.Hbond.Weighted>
-6.5476

> <Gold.Chemscore.Metal.Weighted>
-0.0000

> <Gold.Chemscore.Lipo.Weighted>
-7.5166

> <Gold.Chemscore.Internal_Hbond.Weighted>
0.0000

> <Gold.Chemscore.DEClash.Weighted>
0.0004

> <Gold.Chemscore.DEInternal.Weighted>
0.0387

> <Gold.Chemscore.Rot.Weighted>
2.5600

> <Gold.Chemscore.Internal.Correction.Weighted>
   9.000000E+99

> <Gold.Protein.RotatedTorsions>
[ 6907 6896 6895 6894 ] final  129.75 input  -60.11 | X-H torsion
[ 7974 7965 7964 7962 ] final -144.24 input  175.53 | X-H torsion
[ 8008 7997 7996 7995 ] final  111.08 input   59.86 | X-H torsion
[ 10167 10162 10161 10158 ] final  177.56 input  -65.29 | X-H torsion
[ 10718 10713 10712 10709 ] final  102.89 input   66.30 | X-H torsion
[ 10763 10752 10751 10750 ] final   29.14 input  -60.55 | X-H torsion
[ 11005 11000 10999 10996 ] final  174.78 input  -57.11 | X-H torsion

> <Gold.Protein.ActiveResidues>
 VAL166  LYS551  ARG553  GLY616  TRP617  ASP618  TYR619  PRO620  LYS621  CYS622 
 ASP623  PHE694  ASN695  SER759  ASP760  ASP761  ALA762  ILE779  LEU786  VAL792 
 PHE793  MET794  SER795  GLU796  ALA797  LYS798  CYS799  TRP800  GLU811  SER814 

> <Gold.Protein.RotatedAtoms>
  152.3593  133.6277  159.6002 H   0  0  0  0  0  0  0  0  0  0  0  0  # atno 6907 bound_to 6896
  150.7590  133.9449  159.3476 H   0  0  0  0  0  0  0  0  0  0  0  0  # atno 6908 bound_to 6896
  151.7289  135.0880  160.0348 H   0  0  0  0  0  0  0  0  0  0  0  0  # atno 6909 bound_to 6896
  144.8312  140.5735  143.5514 H   0  0  0  0  0  0  0  0  0  0  0  0  # atno 7974 bound_to 7965
  156.2098  140.3026  155.9708 H   0  0  0  0  0  0  0  0  0  0  0  0  # atno 8008 bound_to 7997
  155.2751  140.0435  157.3027 H   0  0  0  0  0  0  0  0  0  0  0  0  # atno 8009 bound_to 7997
  154.5684  140.2341  155.8237 H   0  0  0  0  0  0  0  0  0  0  0  0  # atno 8010 bound_to 7997
  139.5258  144.2784  152.0568 H   0  0  0  0  0  0  0  0  0  0  0  0  # atno 10167 bound_to 10162
  157.6789  131.0765  150.5473 H   0  0  0  0  0  0  0  0  0  0  0  0  # atno 10718 bound_to 10713
  153.0448  135.6496  154.0845 H   0  0  0  0  0  0  0  0  0  0  0  0  # atno 10763 bound_to 10752
  154.0545  135.2893  155.3336 H   0  0  0  0  0  0  0  0  0  0  0  0  # atno 10764 bound_to 10752
  154.6698  135.5360  153.8189 H   0  0  0  0  0  0  0  0  0  0  0  0  # atno 10765 bound_to 10752
  140.3550  134.7162  157.4293 H   0  0  0  0  0  0  0  0  0  0  0  0  # atno 11005 bound_to 11000
  145.4892  139.1490  143.3719 LP  0  0  0  0  0  0  0  0  0  0  0  0  # atno 17320 bound_to 7965
  146.2614  140.5030  142.8852 LP  0  0  0  0  0  0  0  0  0  0  0  0  # atno 17321 bound_to 7965
  140.2240  144.4437  150.6329 LP  0  0  0  0  0  0  0  0  0  0  0  0  # atno 17342 bound_to 10162
  140.6399  143.2201  151.6312 LP  0  0  0  0  0  0  0  0  0  0  0  0  # atno 17343 bound_to 10162
  156.5778  130.4296  149.5990 LP  0  0  0  0  0  0  0  0  0  0  0  0  # atno 17370 bound_to 10713
  156.2686  130.7004  151.1795 LP  0  0  0  0  0  0  0  0  0  0  0  0  # atno 17371 bound_to 10713
  140.0672  134.5913  155.8682 LP  0  0  0  0  0  0  0  0  0  0  0  0  # atno 17394 bound_to 11000
  141.2001  133.6610  156.5878 LP  0  0  0  0  0  0  0  0  0  0  0  0  # atno 17395 bound_to 11000

$$$$
