AV-unprocessed.smi:458|AV-procd|sdf|2620|dock6
  -GOLD-   2262023 23D 1   1.00000     0.00000
 Structure written by MMmdl.
 36 38  0  0  0  0  0  0  0  0  1 V2000
  153.2656  139.5177  154.9420 O   0  0  0  0  0  0  0  0  0  0  0  0
  152.1593  138.8257  155.4788 C   0  0  0  0  0  0  0  0  0  0  0  0
  150.8432  139.3600  154.9991 C   0  0  0  0  0  0  0  0  0  0  0  0
  150.0464  138.6427  154.2059 N   0  0  0  0  0  0  0  0  0  0  0  0
  148.9600  139.4762  154.0301 C   0  0  0  0  0  0  0  0  0  0  0  0
  147.7692  139.2888  153.2921 C   0  0  0  0  0  0  0  0  0  0  0  0
  146.7809  140.2944  153.2645 C   0  0  0  0  0  0  0  0  0  0  0  0
  146.9674  141.4980  153.9748 C   0  0  0  0  0  0  0  0  0  0  0  0
  148.1467  141.7048  154.7159 C   0  0  0  0  0  0  0  0  0  0  0  0
  149.1326  140.6997  154.7367 C   0  0  0  0  0  0  0  0  0  0  0  0
  150.3794  140.5891  155.3455 N   0  0  0  0  0  0  0  0  0  0  0  0
  151.0108  141.5994  156.1869 C   0  0  0  0  0  0  0  0  0  0  0  0
  150.2646  141.8247  157.5186 C   0  0  2  0  0  0  0  0  0  0  0  0
  149.5130  143.0209  157.4613 O   0  0  0  0  0  0  0  0  0  0  0  0
  151.2244  141.8060  158.6978 C   0  0  0  0  0  0  0  0  0  0  0  0
  151.9478  140.6323  159.0004 C   0  0  0  0  0  0  0  0  0  0  0  0
  152.8442  140.6114  160.0868 C   0  0  0  0  0  0  0  0  0  0  0  0
  153.0239  141.7643  160.8750 C   0  0  0  0  0  0  0  0  0  0  0  0
  153.8862  141.7436  161.9188 F   0  0  0  0  0  0  0  0  0  0  0  0
  152.3080  142.9392  160.5757 C   0  0  0  0  0  0  0  0  0  0  0  0
  151.4117  142.9607  159.4897 C   0  0  0  0  0  0  0  0  0  0  0  0
  152.9457  140.1993  154.3714 H   0  0  0  0  0  0  0  0  0  0  0  0
  152.2438  137.7752  155.1990 H   0  0  0  0  0  0  0  0  0  0  0  0
  152.1961  138.8595  156.5676 H   0  0  0  0  0  0  0  0  0  0  0  0
  147.6157  138.3692  152.7472 H   0  0  0  0  0  0  0  0  0  0  0  0
  145.8746  140.1409  152.6973 H   0  0  0  0  0  0  0  0  0  0  0  0
  146.2044  142.2621  153.9502 H   0  0  0  0  0  0  0  0  0  0  0  0
  148.2911  142.6253  155.2615 H   0  0  0  0  0  0  0  0  0  0  0  0
  152.0324  141.2742  156.3867 H   0  0  0  0  0  0  0  0  0  0  0  0
  151.0943  142.5376  155.6403 H   0  0  0  0  0  0  0  0  0  0  0  0
  149.5429  141.0198  157.6600 H   0  0  0  0  0  0  0  0  0  0  0  0
  149.4658  143.3027  156.5607 H   0  0  0  0  0  0  0  0  0  0  0  0
  151.8194  139.7435  158.3998 H   0  0  0  0  0  0  0  0  0  0  0  0
  153.3953  139.7108  160.3147 H   0  0  0  0  0  0  0  0  0  0  0  0
  152.4473  143.8248  161.1781 H   0  0  0  0  0  0  0  0  0  0  0  0
  150.8695  143.8677  159.2648 H   0  0  0  0  0  0  0  0  0  0  0  0
  1  2  1  0  0  0  0
  1 22  1  0  0  0  0
  2  3  1  0  0  0  0
  2 23  1  0  0  0  0
  2 24  1  0  0  0  0
  3 11  1  0  0  0  0
  3  4  2  0  0  0  0
  4  5  1  0  0  0  0
  5 10  2  0  0  0  0
  5  6  1  0  0  0  0
  6  7  2  0  0  0  0
  6 25  1  0  0  0  0
  7  8  1  0  0  0  0
  7 26  1  0  0  0  0
  8  9  2  0  0  0  0
  8 27  1  0  0  0  0
  9 10  1  0  0  0  0
  9 28  1  0  0  0  0
 10 11  1  0  0  0  0
 11 12  1  0  0  0  0
 12 13  1  0  0  0  0
 12 29  1  0  0  0  0
 12 30  1  0  0  0  0
 13 14  1  0  0  0  0
 13 15  1  0  0  0  0
 13 31  1  0  0  0  0
 14 32  1  0  0  0  0
 15 21  1  0  0  0  0
 15 16  2  0  0  0  0
 16 17  1  0  0  0  0
 16 33  1  0  0  0  0
 17 18  2  0  0  0  0
 17 34  1  0  0  0  0
 18 19  1  0  0  0  0
 18 20  1  0  0  0  0
 20 21  2  0  0  0  0
 20 35  1  0  0  0  0
 21 36  1  0  0  0  0
M  END
> <s_m_source_file>
AV-unprocessed.smi

> <i_m_source_file_index>
458

> <i_lp_mmshare_version>
43012

> <i_f3d_flags>
0

> <s_epik_input>
W2NIXTFbY0hdW2NIXVtjSF1jKGMxMiluKGMobjIpW0NIMl1bT0hdKVtDSDJdW0NASF0oW09IXSljM1tjSF1bY0hdYyhGKVtjSF1bY0hdMw==

> <s_epik_cmdline>
J2VwaWtfcHl0aG9uJywgJy1waCcsICc3LjAnLCAnLXRuJywgJzgnLCAnLW1hJywgJzIwMCcsICctbWV0YWxfYmluZGluZycsICctaW1hZScsICc8aW5maWxlLm1hZT4nLCAnLW9tYWUnLCAnPG91dGZpbGUubWFlPic=

> <r_epik_Ionization_Penalty>
0.0634724

> <r_epik_Ionization_Penalty_Charging>
0

> <r_epik_Ionization_Penalty_Neutral>
0.0634724

> <r_epik_State_Penalty>
0.0551572

> <r_epik_Charging_Adjusted_Penalty>
0.0551572

> <i_epik_Tot_Q>
0

> <i_epik_Tot_abs_Q>
0

> <r_epik_Metal_State_Penalty>
5.78034e-05

> <b_epik_Metal_Only>
0

> <s_lp_Force_Field>
OPLS_2005

> <r_lp_Energy>
12.4444

> <b_lp_Chiralities_Consistent>
1

> <s_lp_Variant>
AV-unprocessed.smi:458-1

> <Gold.Version>
5.8.1

> <Gold.Id.Protein>
6NUR|6NUR_protein|mol2

> <Gold.PLP.Fitness>
49.7039

> <Gold.PLP.PLP>
-46.0491

> <Gold.PLP.part.hbond>
-2.9468

> <Gold.PLP.part.metal>
0.0000

> <Gold.PLP.part.buried>
1.2935

> <Gold.PLP.part.nonpolar>
-44.3220

> <Gold.PLP.part.repulsive>
0.2270

> <Gold.PLP.ligand.clash>
0.0000

> <Gold.PLP.ligand.torsion>
0.8222

> <Gold.PLP.Chemscore.Hbond>
1.7520

> <Gold.PLP.Chemscore.CHOScore>
0.0000

> <Gold.PLP.Chemscore.Metal>
0.0000

> <Gold.Chemscore.Hbonds>
donor molecule, donor type, donor heavy atom, donor atom, acceptor molecule, acceptor atom, score
      L1  H    14    32       P1  8028  0.74
      P1  H  7997  8008       L1     1  1.00

> <Gold.PLP.Chemscore.Internal.Correction>
0.0433

> <Gold.Rescore>
     Score         DG    S(hbond)    S(metal)    S(lipo)     H(rot)  DE(clash)    DE(int)     intcor
     15.89     -16.91       1.67        0.00     110.10       2.75       0.14       0.87       ----

> <Gold.Chemscore.Fitness>
15.8948

> <Gold.Chemscore.DG>
-16.9050

> <Gold.Chemscore.ZeroCoef>
-5.4800

> <Gold.Chemscore.Hbond>
1.6717

> <Gold.Chemscore.Metal>
0.0000

> <Gold.Chemscore.Lipo>
110.0987

> <Gold.Chemscore.Internal_Hbond>
0.0000

> <Gold.Chemscore.DEClash>
0.1408

> <Gold.Chemscore.DEInternal>
0.8694

> <Gold.Chemscore.Rot>
2.7500

> <Gold.Chemscore.Internal.Correction>
   9.000000E+99

> <Gold.Chemscore.Hbonds>
donor molecule, donor type, donor heavy atom, donor atom, acceptor molecule, acceptor atom, score
      L1  H    14    32       P1  8028  0.74
      P1  H  7997  8008       L1     1  0.64

> <Gold.Chemscore.Hbond.Weighted>
-5.5834

> <Gold.Chemscore.Metal.Weighted>
-0.0000

> <Gold.Chemscore.Lipo.Weighted>
-12.8815

> <Gold.Chemscore.Internal_Hbond.Weighted>
0.0000

> <Gold.Chemscore.DEClash.Weighted>
0.1408

> <Gold.Chemscore.DEInternal.Weighted>
0.8694

> <Gold.Chemscore.Rot.Weighted>
7.0399

> <Gold.Chemscore.Internal.Correction.Weighted>
   9.000000E+99

> <Gold.Protein.RotatedTorsions>
[ 6907 6896 6895 6894 ] final  116.13 input  -60.11 | X-H torsion
[ 7974 7965 7964 7962 ] final  -63.03 input  175.53 | X-H torsion
[ 8008 7997 7996 7995 ] final  -21.49 input   59.86 | X-H torsion
[ 10167 10162 10161 10158 ] final  -73.46 input  -65.29 | X-H torsion
[ 10718 10713 10712 10709 ] final -101.10 input   66.30 | X-H torsion
[ 10763 10752 10751 10750 ] final   21.52 input  -60.55 | X-H torsion
[ 11005 11000 10999 10996 ] final  172.81 input  -57.11 | X-H torsion

> <Gold.Protein.ActiveResidues>
 VAL166  LYS551  ARG553  GLY616  TRP617  ASP618  TYR619  PRO620  LYS621  CYS622 
 ASP623  PHE694  ASN695  SER759  ASP760  ASP761  ALA762  ILE779  LEU786  VAL792 
 PHE793  MET794  SER795  GLU796  ALA797  LYS798  CYS799  TRP800  GLU811  SER814 

> <Gold.Protein.RotatedAtoms>
  152.4698  133.8003  159.6948 H   0  0  0  0  0  0  0  0  0  0  0  0  # atno 6907 bound_to 6896
  150.8680  133.7536  159.2977 H   0  0  0  0  0  0  0  0  0  0  0  0  # atno 6908 bound_to 6896
  151.5080  135.1067  159.9898 H   0  0  0  0  0  0  0  0  0  0  0  0  # atno 6909 bound_to 6896
  145.7841  140.8746  143.0315 H   0  0  0  0  0  0  0  0  0  0  0  0  # atno 7974 bound_to 7965
  154.4702  140.2033  156.0014 H   0  0  0  0  0  0  0  0  0  0  0  0  # atno 8008 bound_to 7997
  156.0998  140.3245  155.7897 H   0  0  0  0  0  0  0  0  0  0  0  0  # atno 8009 bound_to 7997
  155.4817  140.0539  157.2957 H   0  0  0  0  0  0  0  0  0  0  0  0  # atno 8010 bound_to 7997
  140.5108  143.2345  151.7595 H   0  0  0  0  0  0  0  0  0  0  0  0  # atno 10167 bound_to 10162
  156.0184  130.5358  150.6914 H   0  0  0  0  0  0  0  0  0  0  0  0  # atno 10718 bound_to 10713
  153.0989  135.6667  153.9711 H   0  0  0  0  0  0  0  0  0  0  0  0  # atno 10763 bound_to 10752
  153.9287  135.3006  155.3447 H   0  0  0  0  0  0  0  0  0  0  0  0  # atno 10764 bound_to 10752
  154.7409  135.5080  153.9195 H   0  0  0  0  0  0  0  0  0  0  0  0  # atno 10765 bound_to 10752
  140.3337  134.7335  157.4153 H   0  0  0  0  0  0  0  0  0  0  0  0  # atno 11005 bound_to 11000
  144.6792  140.0030  143.7484 LP  0  0  0  0  0  0  0  0  0  0  0  0  # atno 17320 bound_to 7965
  146.0044  139.3118  143.0908 LP  0  0  0  0  0  0  0  0  0  0  0  0  # atno 17321 bound_to 7965
  139.4896  144.4392  151.9783 LP  0  0  0  0  0  0  0  0  0  0  0  0  # atno 17342 bound_to 10162
  140.3485  144.3118  150.5953 LP  0  0  0  0  0  0  0  0  0  0  0  0  # atno 17343 bound_to 10162
  157.4595  131.0881  151.0761 LP  0  0  0  0  0  0  0  0  0  0  0  0  # atno 17370 bound_to 10713
  157.1253  130.6079  149.5515 LP  0  0  0  0  0  0  0  0  0  0  0  0  # atno 17371 bound_to 10713
  140.0839  134.5693  155.8512 LP  0  0  0  0  0  0  0  0  0  0  0  0  # atno 17394 bound_to 11000
  141.2057  133.6649  156.6195 LP  0  0  0  0  0  0  0  0  0  0  0  0  # atno 17395 bound_to 11000

$$$$
