AV-unprocessed.smi:1198|AV-procd|sdf|5010|dock3
  -GOLD-   22720 4 23D 1   1.00000     0.00000
 Structure written by MMmdl.
 40 41  0  0  0  0  0  0  0  0  2 V2000
  152.8692  142.4636  162.7776 C   0  0  0  0  0  0  0  0  0  0  0  0
  153.2354  141.8056  161.5698 O   0  0  0  0  0  0  0  0  0  0  0  0
  152.4780  142.0393  160.4403 C   0  0  0  0  0  0  0  0  0  0  0  0
  151.8475  143.2913  160.2991 C   0  0  0  0  0  0  0  0  0  0  0  0
  151.0735  143.5393  159.1493 C   0  0  0  0  0  0  0  0  0  0  0  0
  150.9479  142.5191  158.1762 C   0  0  0  0  0  0  0  0  0  0  0  0
  150.2162  142.6519  156.9650 N   0  0  0  0  0  0  0  0  0  0  0  0
  149.8187  141.6893  156.1156 C   0  0  0  0  0  0  0  0  0  0  0  0
  150.0808  140.4915  156.2213 O   0  0  0  0  0  0  0  0  0  0  0  0
  149.0990  142.2005  155.1066 N   0  0  0  0  0  0  0  0  0  0  0  0
  148.5350  141.4314  154.0018 C   0  0  0  0  0  0  0  0  0  0  0  0
  147.0262  141.6869  153.8143 C   0  0  2  0  0  0  0  0  0  0  0  0
  146.6233  143.1533  153.9552 C   0  0  0  0  0  0  0  0  0  0  0  0
  145.1256  143.1044  154.2824 C   0  0  0  0  0  0  0  0  0  0  0  0
  144.8412  141.7354  154.7732 N   0  3  2  0  0  0  0  0  0  0  0  0
  144.0422  141.6819  156.0151 C   0  0  0  0  0  0  0  0  0  0  0  0
  146.1239  141.0061  154.8449 C   0  0  0  0  0  0  0  0  0  0  0  0
  151.6286  141.3057  158.4071 C   0  0  0  0  0  0  0  0  0  0  0  0
  152.3717  141.0614  159.5069 N   0  0  0  0  0  0  0  0  0  0  0  0
  153.5608  142.1758  163.5692 H   0  0  0  0  0  0  0  0  0  0  0  0
  151.8651  142.1815  163.0973 H   0  0  0  0  0  0  0  0  0  0  0  0
  152.9203  143.5480  162.6719 H   0  0  0  0  0  0  0  0  0  0  0  0
  151.9598  144.0515  161.0581 H   0  0  0  0  0  0  0  0  0  0  0  0
  150.6086  144.5059  159.0337 H   0  0  0  0  0  0  0  0  0  0  0  0
  150.0026  143.6004  156.6927 H   0  0  0  0  0  0  0  0  0  0  0  0
  148.9426  143.1979  155.0934 H   0  0  0  0  0  0  0  0  0  0  0  0
  149.0760  141.7034  153.0951 H   0  0  0  0  0  0  0  0  0  0  0  0
  148.7208  140.3685  154.1639 H   0  0  0  0  0  0  0  0  0  0  0  0
  146.7235  141.3520  152.8206 H   0  0  0  0  0  0  0  0  0  0  0  0
  147.1619  143.6102  154.7869 H   0  0  0  0  0  0  0  0  0  0  0  0
  146.8389  143.7373  153.0599 H   0  0  0  0  0  0  0  0  0  0  0  0
  144.8617  143.8722  155.0113 H   0  0  0  0  0  0  0  0  0  0  0  0
  144.5273  143.2792  153.3879 H   0  0  0  0  0  0  0  0  0  0  0  0
  144.5649  142.1685  156.8396 H   0  0  0  0  0  0  0  0  0  0  0  0
  143.8444  140.6470  156.2959 H   0  0  0  0  0  0  0  0  0  0  0  0
  143.0838  142.1824  155.8726 H   0  0  0  0  0  0  0  0  0  0  0  0
  145.9877  139.9423  154.6470 H   0  0  0  0  0  0  0  0  0  0  0  0
  146.5546  141.1117  155.8423 H   0  0  0  0  0  0  0  0  0  0  0  0
  151.5745  140.5017  157.6876 H   0  0  0  0  0  0  0  0  0  0  0  0
  144.2993  141.2870  154.0480 H   0  0  0  0  0  0  0  0  0  0  0  0
  1  2  1  0  0  0  0
  1 20  1  0  0  0  0
  1 21  1  0  0  0  0
  1 22  1  0  0  0  0
  2  3  1  0  0  0  0
  3 19  1  0  0  0  0
  3  4  2  0  0  0  0
  4  5  1  0  0  0  0
  4 23  1  0  0  0  0
  5  6  2  0  0  0  0
  5 24  1  0  0  0  0
  6  7  1  0  0  0  0
  6 18  1  0  0  0  0
  7  8  1  0  0  0  0
  7 25  1  0  0  0  0
  8  9  2  0  0  0  0
  8 10  1  0  0  0  0
 10 11  1  0  0  0  0
 10 26  1  0  0  0  0
 11 12  1  0  0  0  0
 11 27  1  0  0  0  0
 11 28  1  0  0  0  0
 12 17  1  0  0  0  0
 12 13  1  0  0  0  0
 12 29  1  0  0  0  0
 13 14  1  0  0  0  0
 13 30  1  0  0  0  0
 13 31  1  0  0  0  0
 14 15  1  0  0  0  0
 14 32  1  0  0  0  0
 14 33  1  0  0  0  0
 15 16  1  0  0  0  0
 15 17  1  0  0  0  0
 15 40  1  0  0  0  0
 16 34  1  0  0  0  0
 16 35  1  0  0  0  0
 16 36  1  0  0  0  0
 17 37  1  0  0  0  0
 17 38  1  0  0  0  0
 18 19  2  0  0  0  0
 18 39  1  0  0  0  0
M  CHG  1  15   1
M  END
> <s_m_source_file>
AV-unprocessed.smi

> <i_m_source_file_index>
1198

> <i_lp_mmshare_version>
43012

> <i_f3d_flags>
0

> <s_epik_input>
W0NIM11PYzFbY0hdW2NIXWMoW2NIXW4xKVtOSF1DKD1PKVtOSF1bQ0gyXVtDQEBIXTJbQ0gyXVtDSDJdTihbQ0gzXSlbQ0gyXTI=

> <s_epik_cmdline>
J2VwaWtfcHl0aG9uJywgJy1waCcsICc3LjAnLCAnLXRuJywgJzgnLCAnLW1hJywgJzIwMCcsICctbWV0YWxfYmluZGluZycsICctaW1hZScsICc8aW5maWxlLm1hZT4nLCAnLW9tYWUnLCAnPG91dGZpbGUubWFlPic=

> <r_lp_tautomer_probability>
1

> <r_epik_Ionization_Penalty>
0.00131396

> <r_epik_Ionization_Penalty_Charging>
0.0012301

> <r_epik_Ionization_Penalty_Neutral>
8.38549e-05

> <r_epik_State_Penalty>
0.00081314

> <r_epik_Charging_Adjusted_Penalty>
0.00204324

> <i_epik_Tot_Q>
1

> <i_epik_Tot_abs_Q>
1

> <r_epik_Metal_State_Penalty>
-0

> <b_epik_Metal_Only>
0

> <s_lp_Force_Field>
OPLS_2005

> <r_lp_Energy>
30.1161

> <b_lp_Chiralities_Consistent>
1

> <s_lp_Variant>
AV-unprocessed.smi:1198-1

> <Gold.Version>
5.8.1

> <Gold.Id.Protein>
6NUR|6NUR_protein|mol2

> <Gold.PLP.Fitness>
50.0273

> <Gold.PLP.PLP>
-39.3239

> <Gold.PLP.part.hbond>
-3.0000

> <Gold.PLP.part.metal>
0.0000

> <Gold.PLP.part.buried>
-5.2040

> <Gold.PLP.part.nonpolar>
-31.7317

> <Gold.PLP.part.repulsive>
0.2651

> <Gold.PLP.ligand.clash>
0.0000

> <Gold.PLP.ligand.torsion>
0.5947

> <Gold.PLP.Chemscore.Hbond>
3.9600

> <Gold.PLP.Chemscore.CHOScore>
0.0000

> <Gold.PLP.Chemscore.Metal>
0.0000

> <Gold.Chemscore.Hbonds>
donor molecule, donor type, donor heavy atom, donor atom, acceptor molecule, acceptor atom, score
      L1  H     7    25       P1  8028  0.94
      L1  H    10    26       P1  8028  1.00
      L1  H    15    40       P1 10175  2.00

> <Gold.PLP.Chemscore.Internal.Correction>
0.0128

> <Gold.Rescore>
     Score         DG    S(hbond)    S(metal)    S(lipo)     H(rot)  DE(clash)    DE(int)     intcor
     18.09     -20.16       2.92        0.00      75.20       1.51       0.03       2.04       ----

> <Gold.Chemscore.Fitness>
18.0879

> <Gold.Chemscore.DG>
-20.1563

> <Gold.Chemscore.ZeroCoef>
-5.4800

> <Gold.Chemscore.Hbond>
2.9209

> <Gold.Chemscore.Metal>
0.0000

> <Gold.Chemscore.Lipo>
75.2023

> <Gold.Chemscore.Internal_Hbond>
0.0000

> <Gold.Chemscore.DEClash>
0.0270

> <Gold.Chemscore.DEInternal>
2.0414

> <Gold.Chemscore.Rot>
1.5149

> <Gold.Chemscore.Internal.Correction>
   9.000000E+99

> <Gold.Chemscore.Hbonds>
donor molecule, donor type, donor heavy atom, donor atom, acceptor molecule, acceptor atom, score
      L1  H     7    25       P1  8028  0.91
      L1  H    10    26       P1  8028  0.98
      L1  H    15    40       P1 10175  0.50

> <Gold.Chemscore.Hbond.Weighted>
-9.7558

> <Gold.Chemscore.Metal.Weighted>
-0.0000

> <Gold.Chemscore.Lipo.Weighted>
-8.7987

> <Gold.Chemscore.Internal_Hbond.Weighted>
0.0000

> <Gold.Chemscore.DEClash.Weighted>
0.0270

> <Gold.Chemscore.DEInternal.Weighted>
2.0414

> <Gold.Chemscore.Rot.Weighted>
3.8781

> <Gold.Chemscore.Internal.Correction.Weighted>
   9.000000E+99

> <Gold.Protein.RotatedTorsions>
[ 6907 6896 6895 6894 ] final   65.76 input  -60.11 | X-H torsion
[ 7974 7965 7964 7962 ] final   11.95 input  175.53 | X-H torsion
[ 8008 7997 7996 7995 ] final  -56.54 input   59.86 | X-H torsion
[ 10167 10162 10161 10158 ] final  -98.31 input  -65.29 | X-H torsion
[ 10718 10713 10712 10709 ] final   62.17 input   66.30 | X-H torsion
[ 10763 10752 10751 10750 ] final -151.69 input  -60.55 | X-H torsion
[ 11005 11000 10999 10996 ] final  -46.39 input  -57.11 | X-H torsion

> <Gold.Protein.ActiveResidues>
 VAL166  LYS551  ARG553  GLY616  TRP617  ASP618  TYR619  PRO620  LYS621  CYS622 
 ASP623  PHE694  ASN695  SER759  ASP760  ASP761  ALA762  ILE779  LEU786  VAL792 
 PHE793  MET794  SER795  GLU796  ALA797  LYS798  CYS799  TRP800  GLU811  SER814 

> <Gold.Protein.RotatedAtoms>
  152.4432  134.5549  159.9877 H   0  0  0  0  0  0  0  0  0  0  0  0  # atno 6907 bound_to 6896
  151.5641  133.3393  159.2984 H   0  0  0  0  0  0  0  0  0  0  0  0  # atno 6908 bound_to 6896
  150.8342  134.7641  159.6943 H   0  0  0  0  0  0  0  0  0  0  0  0  # atno 6909 bound_to 6896
  146.2361  139.9409  142.8483 H   0  0  0  0  0  0  0  0  0  0  0  0  # atno 7974 bound_to 7965
  154.4234  140.1127  156.5654 H   0  0  0  0  0  0  0  0  0  0  0  0  # atno 8008 bound_to 7997
  155.6267  140.3495  155.4650 H   0  0  0  0  0  0  0  0  0  0  0  0  # atno 8009 bound_to 7997
  155.9980  140.1193  157.0564 H   0  0  0  0  0  0  0  0  0  0  0  0  # atno 8010 bound_to 7997
  140.2743  143.3323  152.0504 H   0  0  0  0  0  0  0  0  0  0  0  0  # atno 10167 bound_to 10162
  157.5881  130.9035  149.9554 H   0  0  0  0  0  0  0  0  0  0  0  0  # atno 10718 bound_to 10713
  154.8042  135.3254  154.7474 H   0  0  0  0  0  0  0  0  0  0  0  0  # atno 10763 bound_to 10752
  153.8136  135.6893  153.4841 H   0  0  0  0  0  0  0  0  0  0  0  0  # atno 10764 bound_to 10752
  153.1776  135.4599  154.9930 H   0  0  0  0  0  0  0  0  0  0  0  0  # atno 10765 bound_to 10752
  141.0576  133.6720  156.3148 H   0  0  0  0  0  0  0  0  0  0  0  0  # atno 11005 bound_to 11000
  145.1954  140.9830  143.4187 LP  0  0  0  0  0  0  0  0  0  0  0  0  # atno 17320 bound_to 7965
  144.9821  139.3773  143.6257 LP  0  0  0  0  0  0  0  0  0  0  0  0  # atno 17321 bound_to 7965
  139.4980  144.6635  151.6410 LP  0  0  0  0  0  0  0  0  0  0  0  0  # atno 17342 bound_to 10162
  140.5864  143.9856  150.6298 LP  0  0  0  0  0  0  0  0  0  0  0  0  # atno 17343 bound_to 10162
  156.0933  130.3661  150.0354 LP  0  0  0  0  0  0  0  0  0  0  0  0  # atno 17370 bound_to 10713
  156.8482  130.9449  151.3627 LP  0  0  0  0  0  0  0  0  0  0  0  0  # atno 17371 bound_to 10713
  140.5933  134.5628  157.5504 LP  0  0  0  0  0  0  0  0  0  0  0  0  # atno 17394 bound_to 11000
  139.9404  134.7798  156.0694 LP  0  0  0  0  0  0  0  0  0  0  0  0  # atno 17395 bound_to 11000

$$$$
