AV-unprocessed.smi:2025|AV-procd|sdf|8197|dock10
  -GOLD-   2272010453D 1   1.00000     0.00000
 Structure written by MMmdl.
 39 40  0  0  0  0  0  0  0  0  1 V2000
  145.5312  136.3522  152.1122 C   0  0  0  0  0  0  0  0  0  0  0  0
  145.8819  135.0272  152.8066 C   0  0  2  0  0  0  0  0  0  0  0  0
  147.1839  135.1721  153.4540 N   0  0  0  0  0  0  0  0  0  0  0  0
  147.4040  135.1653  154.7779 C   0  0  0  0  0  0  0  0  0  0  0  0
  146.5092  135.0279  155.6131 O   0  0  0  0  0  0  0  0  0  0  0  0
  148.8674  135.3104  155.2162 C   0  0  0  0  0  0  0  0  0  0  0  0
  149.3624  136.6894  155.1135 N   0  0  0  0  0  0  0  0  0  0  0  0
  148.4726  137.7179  154.8609 C   0  0  0  0  0  0  0  0  0  0  0  0
  148.8443  139.0102  154.7340 C   0  0  0  0  0  0  0  0  0  0  0  0
  150.2426  139.4005  154.8634 C   0  0  0  0  0  0  0  0  0  0  0  0
  150.6357  140.5624  154.7491 O   0  0  0  0  0  0  0  0  0  0  0  0
  151.1304  138.3330  155.1291 N   0  0  0  0  0  0  0  0  0  0  0  0
  152.5304  138.6776  155.2642 C   0  0  0  0  0  0  0  0  0  0  0  0
  150.7377  136.9793  155.2498 C   0  0  0  0  0  0  0  0  0  0  0  0
  151.5463  136.0724  155.4612 O   0  0  0  0  0  0  0  0  0  0  0  0
  145.9122  133.8377  151.8237 C   0  0  2  0  0  0  0  0  0  0  0  0
  144.6611  133.6999  150.9544 C   0  0  0  0  0  0  0  0  0  0  0  0
  144.6965  132.2333  150.5921 C   0  0  0  0  0  0  0  0  0  0  0  0
  145.1947  131.6043  151.8888 C   0  0  0  0  0  0  0  0  0  0  0  0
  145.9906  132.5988  152.5278 O   0  0  0  0  0  0  0  0  0  0  0  0
  144.5396  136.3151  151.6612 H   0  0  0  0  0  0  0  0  0  0  0  0
  146.2469  136.5903  151.3246 H   0  0  0  0  0  0  0  0  0  0  0  0
  145.5314  137.1787  152.8236 H   0  0  0  0  0  0  0  0  0  0  0  0
  145.1157  134.8387  153.5608 H   0  0  0  0  0  0  0  0  0  0  0  0
  147.9818  135.2811  152.8454 H   0  0  0  0  0  0  0  0  0  0  0  0
  148.9477  134.9631  156.2472 H   0  0  0  0  0  0  0  0  0  0  0  0
  149.4988  134.6396  154.6306 H   0  0  0  0  0  0  0  0  0  0  0  0
  147.4250  137.4770  154.7531 H   0  0  0  0  0  0  0  0  0  0  0  0
  148.0979  139.7645  154.5323 H   0  0  0  0  0  0  0  0  0  0  0  0
  153.1175  137.8246  155.6028 H   0  0  0  0  0  0  0  0  0  0  0  0
  152.6037  139.4758  156.0051 H   0  0  0  0  0  0  0  0  0  0  0  0
  152.8730  139.0109  154.2833 H   0  0  0  0  0  0  0  0  0  0  0  0
  146.7888  133.9043  151.1770 H   0  0  0  0  0  0  0  0  0  0  0  0
  143.7628  133.9184  151.5342 H   0  0  0  0  0  0  0  0  0  0  0  0
  144.6738  134.3535  150.0819 H   0  0  0  0  0  0  0  0  0  0  0  0
  143.7290  131.8444  150.2733 H   0  0  0  0  0  0  0  0  0  0  0  0
  145.4161  132.0637  149.7900 H   0  0  0  0  0  0  0  0  0  0  0  0
  144.3566  131.3612  152.5429 H   0  0  0  0  0  0  0  0  0  0  0  0
  145.7638  130.6910  151.7141 H   0  0  0  0  0  0  0  0  0  0  0  0
  1  2  1  0  0  0  0
  1 21  1  0  0  0  0
  1 22  1  0  0  0  0
  1 23  1  0  0  0  0
  2  3  1  0  0  0  0
  2 16  1  0  0  0  0
  2 24  1  0  0  0  0
  3  4  1  0  0  0  0
  3 25  1  0  0  0  0
  4  5  2  0  0  0  0
  4  6  1  0  0  0  0
  6  7  1  0  0  0  0
  6 26  1  0  0  0  0
  6 27  1  0  0  0  0
  7 14  1  0  0  0  0
  7  8  1  0  0  0  0
  8  9  2  0  0  0  0
  8 28  1  0  0  0  0
  9 10  1  0  0  0  0
  9 29  1  0  0  0  0
 10 11  2  0  0  0  0
 10 12  1  0  0  0  0
 12 13  1  0  0  0  0
 12 14  1  0  0  0  0
 13 30  1  0  0  0  0
 13 31  1  0  0  0  0
 13 32  1  0  0  0  0
 14 15  2  0  0  0  0
 16 20  1  0  0  0  0
 16 17  1  0  0  0  0
 16 33  1  0  0  0  0
 17 18  1  0  0  0  0
 17 34  1  0  0  0  0
 17 35  1  0  0  0  0
 18 19  1  0  0  0  0
 18 36  1  0  0  0  0
 18 37  1  0  0  0  0
 19 20  1  0  0  0  0
 19 38  1  0  0  0  0
 19 39  1  0  0  0  0
M  END
> <s_m_source_file>
AV-unprocessed.smi

> <i_m_source_file_index>
2025

> <i_lp_mmshare_version>
43012

> <i_f3d_flags>
0

> <s_epik_input>
TzFbQ0gyXVtDSDJdW0NIMl1bQ0BIXTFbQ0BIXShbQ0gzXSlbTkhdQyg9TylbQ0gyXW4yW2NIXVtjSF1jKD1PKW4oW0NIM10pYzI9Tw==

> <s_epik_cmdline>
J2VwaWtfcHl0aG9uJywgJy1waCcsICc3LjAnLCAnLXRuJywgJzgnLCAnLW1hJywgJzIwMCcsICctbWV0YWxfYmluZGluZycsICctaW1hZScsICc8aW5maWxlLm1hZT4nLCAnLW9tYWUnLCAnPG91dGZpbGUubWFlPic=

> <r_lp_tautomer_probability>
1

> <r_epik_Ionization_Penalty>
3.54787e-08

> <r_epik_Ionization_Penalty_Charging>
1.24654e-08

> <r_epik_Ionization_Penalty_Neutral>
2.30132e-08

> <r_epik_State_Penalty>
-0

> <r_epik_Charging_Adjusted_Penalty>
1.24654e-08

> <i_epik_Tot_Q>
0

> <i_epik_Tot_abs_Q>
0

> <r_epik_Metal_State_Penalty>
-0

> <b_epik_Metal_Only>
0

> <s_lp_Force_Field>
OPLS_2005

> <r_lp_Energy>
25.7594

> <b_lp_Chiralities_Consistent>
1

> <s_lp_Variant>
AV-unprocessed.smi:2025-1

> <Gold.Version>
5.8.1

> <Gold.Id.Protein>
6NUR|6NUR_protein|mol2

> <Gold.PLP.Fitness>
37.8369

> <Gold.PLP.PLP>
-29.6737

> <Gold.PLP.part.hbond>
-2.6044

> <Gold.PLP.part.metal>
0.0000

> <Gold.PLP.part.buried>
-3.8992

> <Gold.PLP.part.nonpolar>
-23.4562

> <Gold.PLP.part.repulsive>
0.3353

> <Gold.PLP.ligand.clash>
0.0000

> <Gold.PLP.ligand.torsion>
0.4267

> <Gold.PLP.Chemscore.Hbond>
3.0000

> <Gold.PLP.Chemscore.CHOScore>
0.0000

> <Gold.PLP.Chemscore.Metal>
0.0000

> <Gold.Chemscore.Hbonds>
donor molecule, donor type, donor heavy atom, donor atom, acceptor molecule, acceptor atom, score
      L1  H     3    25       P1  7948  1.00
      P1  H  7989  7998       L1    11  1.00
      P1  H 10752 10763       L1    15  1.00

> <Gold.PLP.Chemscore.Internal.Correction>
0.0166

> <Gold.Rescore>
     Score         DG    S(hbond)    S(metal)    S(lipo)     H(rot)  DE(clash)    DE(int)     intcor
     16.49     -16.83       2.92        0.00      53.63       1.82       0.03       0.31       ----

> <Gold.Chemscore.Fitness>
16.4927

> <Gold.Chemscore.DG>
-16.8313

> <Gold.Chemscore.ZeroCoef>
-5.4800

> <Gold.Chemscore.Hbond>
2.9169

> <Gold.Chemscore.Metal>
0.0000

> <Gold.Chemscore.Lipo>
53.6338

> <Gold.Chemscore.Internal_Hbond>
0.0000

> <Gold.Chemscore.DEClash>
0.0262

> <Gold.Chemscore.DEInternal>
0.3124

> <Gold.Chemscore.Rot>
1.8228

> <Gold.Chemscore.Internal.Correction>
   9.000000E+99

> <Gold.Chemscore.Hbonds>
donor molecule, donor type, donor heavy atom, donor atom, acceptor molecule, acceptor atom, score
      L1  H     3    25       P1  7948  0.96
      P1  H  7989  7998       L1    11  0.89
      P1  H 10752 10763       L1    15  1.00

> <Gold.Chemscore.Hbond.Weighted>
-9.7426

> <Gold.Chemscore.Metal.Weighted>
-0.0000

> <Gold.Chemscore.Lipo.Weighted>
-6.2752

> <Gold.Chemscore.Internal_Hbond.Weighted>
0.0000

> <Gold.Chemscore.DEClash.Weighted>
0.0262

> <Gold.Chemscore.DEInternal.Weighted>
0.3124

> <Gold.Chemscore.Rot.Weighted>
4.6665

> <Gold.Chemscore.Internal.Correction.Weighted>
   9.000000E+99

> <Gold.Protein.RotatedTorsions>
[ 6907 6896 6895 6894 ] final   -6.27 input  -60.11 | X-H torsion
[ 7974 7965 7964 7962 ] final   65.65 input  175.53 | X-H torsion
[ 8008 7997 7996 7995 ] final   93.91 input   59.86 | X-H torsion
[ 10167 10162 10161 10158 ] final  -79.64 input  -65.29 | X-H torsion
[ 10718 10713 10712 10709 ] final  150.89 input   66.30 | X-H torsion
[ 10763 10752 10751 10750 ] final   63.18 input  -60.55 | X-H torsion
[ 11005 11000 10999 10996 ] final -109.02 input  -57.11 | X-H torsion

> <Gold.Protein.ActiveResidues>
 VAL166  LYS551  ARG553  GLY616  TRP617  ASP618  TYR619  PRO620  LYS621  CYS622 
 ASP623  PHE694  ASN695  SER759  ASP760  ASP761  ALA762  ILE779  LEU786  VAL792 
 PHE793  MET794  SER795  GLU796  ALA797  LYS798  CYS799  TRP800  GLU811  SER814 

> <Gold.Protein.RotatedAtoms>
  151.4682  135.1044  159.9743 H   0  0  0  0  0  0  0  0  0  0  0  0  # atno 6907 bound_to 6896
  152.4827  133.8290  159.7103 H   0  0  0  0  0  0  0  0  0  0  0  0  # atno 6908 bound_to 6896
  150.8911  133.7182  159.2931 H   0  0  0  0  0  0  0  0  0  0  0  0  # atno 6909 bound_to 6896
  145.8359  139.3166  143.0960 H   0  0  0  0  0  0  0  0  0  0  0  0  # atno 7974 bound_to 7965
  156.0520  140.3307  155.7362 H   0  0  0  0  0  0  0  0  0  0  0  0  # atno 8008 bound_to 7997
  155.5586  140.0617  157.2851 H   0  0  0  0  0  0  0  0  0  0  0  0  # atno 8009 bound_to 7997
  154.4440  140.1881  156.0748 H   0  0  0  0  0  0  0  0  0  0  0  0  # atno 8010 bound_to 7997
  140.4575  143.2464  151.8399 H   0  0  0  0  0  0  0  0  0  0  0  0  # atno 10167 bound_to 10162
  157.2777  131.0829  151.1554 H   0  0  0  0  0  0  0  0  0  0  0  0  # atno 10718 bound_to 10713
  153.0009  135.5438  154.6311 H   0  0  0  0  0  0  0  0  0  0  0  0  # atno 10763 bound_to 10752
  154.5588  135.2832  155.0941 H   0  0  0  0  0  0  0  0  0  0  0  0  # atno 10764 bound_to 10752
  154.2151  135.6460  153.5180 H   0  0  0  0  0  0  0  0  0  0  0  0  # atno 10765 bound_to 10752
  141.0870  133.9121  157.2162 H   0  0  0  0  0  0  0  0  0  0  0  0  # atno 11005 bound_to 11000
  145.9519  140.8902  143.0255 LP  0  0  0  0  0  0  0  0  0  0  0  0  # atno 17320 bound_to 7965
  144.6736  140.1692  143.7416 LP  0  0  0  0  0  0  0  0  0  0  0  0  # atno 17321 bound_to 7965
  139.4802  144.5048  151.9012 LP  0  0  0  0  0  0  0  0  0  0  0  0  # atno 17342 bound_to 10162
  140.4134  144.2339  150.5888 LP  0  0  0  0  0  0  0  0  0  0  0  0  # atno 17343 bound_to 10162
  157.3001  130.6838  149.6159 LP  0  0  0  0  0  0  0  0  0  0  0  0  # atno 17370 bound_to 10713
  155.9664  130.4395  150.5259 LP  0  0  0  0  0  0  0  0  0  0  0  0  # atno 17371 bound_to 10713
  139.9690  135.0134  156.9463 LP  0  0  0  0  0  0  0  0  0  0  0  0  # atno 17394 bound_to 11000
  140.5339  134.0786  155.7323 LP  0  0  0  0  0  0  0  0  0  0  0  0  # atno 17395 bound_to 11000

$$$$
