AV-unprocessed.smi:2030|AV-procd|sdf|8224|dock9
  -GOLD-   2272010493D 1   1.00000     0.00000
 Structure written by MMmdl.
 35 36  0  0  0  0  0  0  0  0  1 V2000
  146.2722  142.6050  157.1421 C   0  0  0  0  0  0  0  0  0  0  0  0
  147.1107  142.2964  155.9855 N   0  0  0  0  0  0  0  0  0  0  0  0
  148.3885  141.8768  156.2931 N   0  0  0  0  0  0  0  0  0  0  0  0
  149.1730  141.3524  155.4045 C   0  0  0  0  0  0  0  0  0  0  0  0
  150.5340  140.8979  155.7922 C   0  0  0  0  0  0  0  0  0  0  0  0
  151.2818  140.3583  154.9765 O   0  0  0  0  0  0  0  0  0  0  0  0
  150.8754  141.1026  157.0767 N   0  0  0  0  0  0  0  0  0  0  0  0
  152.1172  140.6571  157.7006 C   0  0  0  0  0  0  0  0  0  0  0  0
  152.3013  141.2344  159.1181 C   0  0  0  0  0  0  0  0  0  0  0  0
  152.2374  142.7521  159.1640 C   0  0  0  0  0  0  0  0  0  0  0  0
  152.2418  143.4367  160.3986 C   0  0  0  0  0  0  0  0  0  0  0  0
  152.1571  144.8421  160.3873 C   0  0  0  0  0  0  0  0  0  0  0  0
  152.0745  145.5061  159.1482 C   0  0  0  0  0  0  0  0  0  0  0  0
  152.0797  144.7315  157.9710 C   0  0  0  0  0  0  0  0  0  0  0  0
  152.1578  143.3831  157.9708 N   0  0  0  0  0  0  0  0  0  0  0  0
  148.7053  141.1679  153.9751 C   0  0  0  0  0  0  0  0  0  0  0  0
  147.6204  142.1914  153.5842 C   0  0  0  0  0  0  0  0  0  0  0  0
  146.6341  142.4565  154.7256 C   0  0  0  0  0  0  0  0  0  0  0  0
  145.4862  142.8194  154.4694 O   0  0  0  0  0  0  0  0  0  0  0  0
  145.3734  141.9873  157.1415 H   0  0  0  0  0  0  0  0  0  0  0  0
  145.9677  143.6521  157.1268 H   0  0  0  0  0  0  0  0  0  0  0  0
  146.7926  142.4272  158.0848 H   0  0  0  0  0  0  0  0  0  0  0  0
  150.2020  141.5571  157.6769 H   0  0  0  0  0  0  0  0  0  0  0  0
  152.1657  139.5674  157.7214 H   0  0  0  0  0  0  0  0  0  0  0  0
  152.9377  140.9898  157.0644 H   0  0  0  0  0  0  0  0  0  0  0  0
  151.5366  140.8287  159.7816 H   0  0  0  0  0  0  0  0  0  0  0  0
  153.2574  140.9052  159.5270 H   0  0  0  0  0  0  0  0  0  0  0  0
  152.2993  142.8974  161.3330 H   0  0  0  0  0  0  0  0  0  0  0  0
  152.1537  145.3998  161.3121 H   0  0  0  0  0  0  0  0  0  0  0  0
  152.0086  146.5830  159.1006 H   0  0  0  0  0  0  0  0  0  0  0  0
  152.0179  145.2077  157.0036 H   0  0  0  0  0  0  0  0  0  0  0  0
  149.5420  141.2681  153.2824 H   0  0  0  0  0  0  0  0  0  0  0  0
  148.3227  140.1544  153.8505 H   0  0  0  0  0  0  0  0  0  0  0  0
  148.0882  143.1431  153.3290 H   0  0  0  0  0  0  0  0  0  0  0  0
  147.0852  141.8563  152.6951 H   0  0  0  0  0  0  0  0  0  0  0  0
  1  2  1  0  0  0  0
  1 20  1  0  0  0  0
  1 21  1  0  0  0  0
  1 22  1  0  0  0  0
  2 18  1  0  0  0  0
  2  3  1  0  0  0  0
  3  4  2  0  0  0  0
  4  5  1  0  0  0  0
  4 16  1  0  0  0  0
  5  6  2  0  0  0  0
  5  7  1  0  0  0  0
  7  8  1  0  0  0  0
  7 23  1  0  0  0  0
  8  9  1  0  0  0  0
  8 24  1  0  0  0  0
  8 25  1  0  0  0  0
  9 10  1  0  0  0  0
  9 26  1  0  0  0  0
  9 27  1  0  0  0  0
 10 15  1  0  0  0  0
 10 11  2  0  0  0  0
 11 12  1  0  0  0  0
 11 28  1  0  0  0  0
 12 13  2  0  0  0  0
 12 29  1  0  0  0  0
 13 14  1  0  0  0  0
 13 30  1  0  0  0  0
 14 15  2  0  0  0  0
 14 31  1  0  0  0  0
 16 17  1  0  0  0  0
 16 32  1  0  0  0  0
 16 33  1  0  0  0  0
 17 18  1  0  0  0  0
 17 34  1  0  0  0  0
 17 35  1  0  0  0  0
 18 19  2  0  0  0  0
M  END
> <s_m_source_file>
AV-unprocessed.smi

> <i_m_source_file_index>
2030

> <i_lp_mmshare_version>
43012

> <i_f3d_flags>
0

> <s_epik_input>
Tz1DMVtDSDJdW0NIMl1DKD1OTjFbQ0gzXSlDKD1PKVtOSF1bQ0gyXVtDSDJdYzJbY0hdW2NIXVtjSF1bY0hdbjI=

> <s_epik_cmdline>
J2VwaWtfcHl0aG9uJywgJy1waCcsICc3LjAnLCAnLXRuJywgJzgnLCAnLW1hJywgJzIwMCcsICctbWV0YWxfYmluZGluZycsICctaW1hZScsICc8aW5maWxlLm1hZT4nLCAnLW9tYWUnLCAnPG91dGZpbGUubWFlPic=

> <r_epik_Ionization_Penalty>
0.0175455

> <r_epik_Ionization_Penalty_Charging>
0

> <r_epik_Ionization_Penalty_Neutral>
0.0175455

> <r_epik_State_Penalty>
0.0138544

> <r_epik_Charging_Adjusted_Penalty>
0.0138544

> <i_epik_Tot_Q>
0

> <i_epik_Tot_abs_Q>
0

> <r_epik_Metal_State_Penalty>
0.0690211

> <b_epik_Metal_Only>
0

> <s_epik_Chemistry_Notes>
This compound has an imine and may undergo hydrolysis.

> <s_lp_Force_Field>
OPLS_2005

> <r_lp_Energy>
15.1803

> <b_lp_Chiralities_Consistent>
1

> <s_lp_Variant>
AV-unprocessed.smi:2030-1

> <Gold.Version>
5.8.1

> <Gold.Id.Protein>
6NUR|6NUR_protein|mol2

> <Gold.PLP.Fitness>
43.8095

> <Gold.PLP.PLP>
-40.9738

> <Gold.PLP.part.hbond>
-1.0000

> <Gold.PLP.part.metal>
0.0000

> <Gold.PLP.part.buried>
-7.1965

> <Gold.PLP.part.nonpolar>
-33.7004

> <Gold.PLP.part.repulsive>
0.4633

> <Gold.PLP.ligand.clash>
0.0000

> <Gold.PLP.ligand.torsion>
0.0851

> <Gold.PLP.Chemscore.Hbond>
1.0000

> <Gold.PLP.Chemscore.CHOScore>
0.0000

> <Gold.PLP.Chemscore.Metal>
0.0000

> <Gold.Chemscore.Hbonds>
donor molecule, donor type, donor heavy atom, donor atom, acceptor molecule, acceptor atom, score
      P1  H  7989  7998       L1     6  1.00

> <Gold.PLP.Chemscore.Internal.Correction>
0.0059

> <Gold.Rescore>
     Score         DG    S(hbond)    S(metal)    S(lipo)     H(rot)  DE(clash)    DE(int)     intcor
     14.85     -16.40       0.95        0.00      97.83       1.45       0.05       1.51       ----

> <Gold.Chemscore.Fitness>
14.8475

> <Gold.Chemscore.DG>
-16.4044

> <Gold.Chemscore.ZeroCoef>
-5.4800

> <Gold.Chemscore.Hbond>
0.9537

> <Gold.Chemscore.Metal>
0.0000

> <Gold.Chemscore.Lipo>
97.8282

> <Gold.Chemscore.Internal_Hbond>
0.0000

> <Gold.Chemscore.DEClash>
0.0473

> <Gold.Chemscore.DEInternal>
1.5096

> <Gold.Chemscore.Rot>
1.4480

> <Gold.Chemscore.Internal.Correction>
   9.000000E+99

> <Gold.Chemscore.Hbonds>
donor molecule, donor type, donor heavy atom, donor atom, acceptor molecule, acceptor atom, score
      P1  H  7989  7998       L1     6  0.96

> <Gold.Chemscore.Hbond.Weighted>
-3.1854

> <Gold.Chemscore.Metal.Weighted>
-0.0000

> <Gold.Chemscore.Lipo.Weighted>
-11.4459

> <Gold.Chemscore.Internal_Hbond.Weighted>
0.0000

> <Gold.Chemscore.DEClash.Weighted>
0.0473

> <Gold.Chemscore.DEInternal.Weighted>
1.5096

> <Gold.Chemscore.Rot.Weighted>
3.7070

> <Gold.Chemscore.Internal.Correction.Weighted>
   9.000000E+99

> <Gold.Protein.RotatedTorsions>
[ 6907 6896 6895 6894 ] final -159.98 input  -60.11 | X-H torsion
[ 7974 7965 7964 7962 ] final  -72.46 input  175.53 | X-H torsion
[ 8008 7997 7996 7995 ] final  -39.82 input   59.86 | X-H torsion
[ 10167 10162 10161 10158 ] final  -69.03 input  -65.29 | X-H torsion
[ 10718 10713 10712 10709 ] final -150.79 input   66.30 | X-H torsion
[ 10763 10752 10751 10750 ] final  144.76 input  -60.55 | X-H torsion
[ 11005 11000 10999 10996 ] final -124.79 input  -57.11 | X-H torsion

> <Gold.Protein.ActiveResidues>
 VAL166  LYS551  ARG553  GLY616  TRP617  ASP618  TYR619  PRO620  LYS621  CYS622 
 ASP623  PHE694  ASN695  SER759  ASP760  ASP761  ALA762  ILE779  LEU786  VAL792 
 PHE793  MET794  SER795  GLU796  ALA797  LYS798  CYS799  TRP800  GLU811  SER814 

> <Gold.Protein.RotatedAtoms>
  151.3420  133.3959  159.2671 H   0  0  0  0  0  0  0  0  0  0  0  0  # atno 6907 bound_to 6896
  150.9870  134.9214  159.7888 H   0  0  0  0  0  0  0  0  0  0  0  0  # atno 6908 bound_to 6896
  152.5235  134.3384  159.9260 H   0  0  0  0  0  0  0  0  0  0  0  0  # atno 6909 bound_to 6896
  145.6648  140.9240  143.0914 H   0  0  0  0  0  0  0  0  0  0  0  0  # atno 7974 bound_to 7965
  154.4018  140.1541  156.2926 H   0  0  0  0  0  0  0  0  0  0  0  0  # atno 8008 bound_to 7997
  155.8772  140.3446  155.5840 H   0  0  0  0  0  0  0  0  0  0  0  0  # atno 8009 bound_to 7997
  155.7708  140.0830  157.2099 H   0  0  0  0  0  0  0  0  0  0  0  0  # atno 8010 bound_to 7997
  140.5462  143.2313  151.6997 H   0  0  0  0  0  0  0  0  0  0  0  0  # atno 10167 bound_to 10162
  156.4507  130.8166  151.2397 H   0  0  0  0  0  0  0  0  0  0  0  0  # atno 10718 bound_to 10713
  153.9942  135.2929  155.3409 H   0  0  0  0  0  0  0  0  0  0  0  0  # atno 10763 bound_to 10752
  154.7197  135.5114  153.8796 H   0  0  0  0  0  0  0  0  0  0  0  0  # atno 10764 bound_to 10752
  153.0796  135.6674  154.0191 H   0  0  0  0  0  0  0  0  0  0  0  0  # atno 10765 bound_to 10752
  140.9813  134.0669  157.3761 H   0  0  0  0  0  0  0  0  0  0  0  0  # atno 11005 bound_to 11000
  144.7076  139.8496  143.7425 LP  0  0  0  0  0  0  0  0  0  0  0  0  # atno 17320 bound_to 7965
  146.1095  139.4098  143.0297 LP  0  0  0  0  0  0  0  0  0  0  0  0  # atno 17321 bound_to 7965
  139.5008  144.3891  152.0298 LP  0  0  0  0  0  0  0  0  0  0  0  0  # atno 17342 bound_to 10162
  140.3004  144.3653  150.6062 LP  0  0  0  0  0  0  0  0  0  0  0  0  # atno 17343 bound_to 10162
  157.7503  131.0139  150.3442 LP  0  0  0  0  0  0  0  0  0  0  0  0  # atno 17370 bound_to 10713
  156.3819  130.3882  149.7095 LP  0  0  0  0  0  0  0  0  0  0  0  0  # atno 17371 bound_to 10713
  139.8951  135.0139  156.6987 LP  0  0  0  0  0  0  0  0  0  0  0  0  # atno 17394 bound_to 11000
  140.7182  133.9164  155.8129 LP  0  0  0  0  0  0  0  0  0  0  0  0  # atno 17395 bound_to 11000

$$$$
