AV-unprocessed.smi:2469|AV-procd|sdf|9734|dock3
  -GOLD-   2272013373D 1   1.00000     0.00000
 Structure written by MMmdl.
 32 33  0  0  0  0  0  0  0  0  1 V2000
  147.7113  138.4226  151.7904 O   0  0  0  0  0  0  0  0  0  0  0  0
  146.7352  139.0004  152.6308 C   0  0  0  0  0  0  0  0  0  0  0  0
  147.3863  140.0011  153.5935 C   0  0  0  0  0  0  0  0  0  0  0  0
  148.7840  139.7328  153.6663 O   0  0  0  0  0  0  0  0  0  0  0  0
  149.4971  140.2334  154.7363 C   0  0  0  0  0  0  0  0  0  0  0  0
  148.8114  140.9855  155.7108 C   0  0  0  0  0  0  0  0  0  0  0  0
  149.5315  141.4962  156.8075 C   0  0  0  0  0  0  0  0  0  0  0  0
  150.9189  141.2375  156.8992 C   0  0  0  0  0  0  0  0  0  0  0  0
  151.7278  141.6991  157.9487 N   0  0  0  0  0  0  0  0  0  0  0  0
  151.4355  142.9394  158.6561 C   0  0  1  0  0  0  0  0  0  0  0  0
  152.3384  143.1894  159.8485 C   0  0  0  0  0  0  0  0  0  0  0  0
  152.1780  144.6941  160.0462 C   0  0  0  0  0  0  0  0  0  0  0  0
  151.9209  145.2342  158.7520 O   0  0  0  0  0  0  0  0  0  0  0  0
  151.7237  144.1803  157.8143 C   0  0  0  0  0  0  0  0  0  0  0  0
  151.5103  140.4762  155.8689 C   0  0  0  0  0  0  0  0  0  0  0  0
  150.8274  139.9833  154.8141 N   0  0  0  0  0  0  0  0  0  0  0  0
  148.1440  137.7291  152.2648 H   0  0  0  0  0  0  0  0  0  0  0  0
  145.9505  139.4717  152.0381 H   0  0  0  0  0  0  0  0  0  0  0  0
  146.2706  138.1933  153.1979 H   0  0  0  0  0  0  0  0  0  0  0  0
  147.2423  141.0082  153.1989 H   0  0  0  0  0  0  0  0  0  0  0  0
  146.9137  139.9595  154.5767 H   0  0  0  0  0  0  0  0  0  0  0  0
  147.7510  141.1681  155.6186 H   0  0  0  0  0  0  0  0  0  0  0  0
  149.0098  142.0743  157.5549 H   0  0  0  0  0  0  0  0  0  0  0  0
  152.4327  141.0854  158.3321 H   0  0  0  0  0  0  0  0  0  0  0  0
  150.3897  142.9640  158.9654 H   0  0  0  0  0  0  0  0  0  0  0  0
  152.0633  142.6152  160.7334 H   0  0  0  0  0  0  0  0  0  0  0  0
  153.3752  142.9570  159.5997 H   0  0  0  0  0  0  0  0  0  0  0  0
  151.3202  144.9053  160.6859 H   0  0  0  0  0  0  0  0  0  0  0  0
  153.0590  145.1488  160.4999 H   0  0  0  0  0  0  0  0  0  0  0  0
  152.6452  144.0581  157.2425 H   0  0  0  0  0  0  0  0  0  0  0  0
  150.9194  144.4098  157.1150 H   0  0  0  0  0  0  0  0  0  0  0  0
  152.5670  140.2521  155.8905 H   0  0  0  0  0  0  0  0  0  0  0  0
  1  2  1  0  0  0  0
  1 17  1  0  0  0  0
  2  3  1  0  0  0  0
  2 18  1  0  0  0  0
  2 19  1  0  0  0  0
  3  4  1  0  0  0  0
  3 20  1  0  0  0  0
  3 21  1  0  0  0  0
  4  5  1  0  0  0  0
  5 16  1  0  0  0  0
  5  6  2  0  0  0  0
  6  7  1  0  0  0  0
  6 22  1  0  0  0  0
  7  8  2  0  0  0  0
  7 23  1  0  0  0  0
  8  9  1  0  0  0  0
  8 15  1  0  0  0  0
  9 10  1  0  0  0  0
  9 24  1  0  0  0  0
 10 14  1  0  0  0  0
 10 11  1  0  0  0  0
 10 25  1  0  0  0  0
 11 12  1  0  0  0  0
 11 26  1  0  0  0  0
 11 27  1  0  0  0  0
 12 13  1  0  0  0  0
 12 28  1  0  0  0  0
 12 29  1  0  0  0  0
 13 14  1  0  0  0  0
 14 30  1  0  0  0  0
 14 31  1  0  0  0  0
 15 16  2  0  0  0  0
 15 32  1  0  0  0  0
M  END
> <s_m_source_file>
AV-unprocessed.smi

> <i_m_source_file_index>
2469

> <i_lp_mmshare_version>
43012

> <i_f3d_flags>
0

> <s_epik_input>
W09IXVtDSDJdW0NIMl1PYzFbY0hdW2NIXWMoW2NIXW4xKVtOSF1bQ0BASF0yW0NIMl1bQ0gyXU9bQ0gyXTI=

> <s_epik_cmdline>
J2VwaWtfcHl0aG9uJywgJy1waCcsICc3LjAnLCAnLXRuJywgJzgnLCAnLW1hJywgJzIwMCcsICctbWV0YWxfYmluZGluZycsICctaW1hZScsICc8aW5maWxlLm1hZT4nLCAnLW9tYWUnLCAnPG91dGZpbGUubWFlPic=

> <r_lp_tautomer_probability>
1

> <r_epik_Ionization_Penalty>
0.000432265

> <r_epik_Ionization_Penalty_Charging>
0

> <r_epik_Ionization_Penalty_Neutral>
0.000432265

> <r_epik_State_Penalty>
-0

> <r_epik_Charging_Adjusted_Penalty>
0

> <i_epik_Tot_Q>
0

> <i_epik_Tot_abs_Q>
0

> <r_epik_Metal_State_Penalty>
-0

> <b_epik_Metal_Only>
0

> <s_lp_Force_Field>
OPLS_2005

> <r_lp_Energy>
23.2185

> <b_lp_Chiralities_Consistent>
1

> <s_lp_Variant>
AV-unprocessed.smi:2469-2

> <Gold.Version>
5.8.1

> <Gold.Id.Protein>
6NUR|6NUR_protein|mol2

> <Gold.PLP.Fitness>
39.7014

> <Gold.PLP.PLP>
-33.3562

> <Gold.PLP.part.hbond>
-3.8556

> <Gold.PLP.part.metal>
0.0000

> <Gold.PLP.part.buried>
-5.5605

> <Gold.PLP.part.nonpolar>
-27.2908

> <Gold.PLP.part.repulsive>
3.3362

> <Gold.PLP.ligand.clash>
0.5257

> <Gold.PLP.ligand.torsion>
0.6460

> <Gold.PLP.Chemscore.Hbond>
2.7040

> <Gold.PLP.Chemscore.CHOScore>
0.0000

> <Gold.PLP.Chemscore.Metal>
0.0000

> <Gold.Chemscore.Hbonds>
donor molecule, donor type, donor heavy atom, donor atom, acceptor molecule, acceptor atom, score
      L1  H     1    17       P1  7948  0.70
      P1  H  7954  7966       L1     1  0.95
      P1  H  7989  7998       L1    16  1.00

> <Gold.PLP.Chemscore.Internal.Correction>
0.0508

> <Gold.Rescore>
     Score         DG    S(hbond)    S(metal)    S(lipo)     H(rot)  DE(clash)    DE(int)     intcor
     11.75     -13.62       1.34        0.00      82.06       2.32       1.32       0.55       ----

> <Gold.Chemscore.Fitness>
11.7527

> <Gold.Chemscore.DG>
-13.6212

> <Gold.Chemscore.ZeroCoef>
-5.4800

> <Gold.Chemscore.Hbond>
1.3432

> <Gold.Chemscore.Metal>
0.0000

> <Gold.Chemscore.Lipo>
82.0564

> <Gold.Chemscore.Internal_Hbond>
0.0000

> <Gold.Chemscore.DEClash>
1.3188

> <Gold.Chemscore.DEInternal>
0.5497

> <Gold.Chemscore.Rot>
2.3225

> <Gold.Chemscore.Internal.Correction>
   9.000000E+99

> <Gold.Chemscore.Hbonds>
donor molecule, donor type, donor heavy atom, donor atom, acceptor molecule, acceptor atom, score
      L1  H     1    17       P1  7948  0.70
      P1  H  7954  7966       L1     1  0.19
      P1  H  7989  7998       L1    16  0.17

> <Gold.Chemscore.Hbond.Weighted>
-4.4862

> <Gold.Chemscore.Metal.Weighted>
-0.0000

> <Gold.Chemscore.Lipo.Weighted>
-9.6006

> <Gold.Chemscore.Internal_Hbond.Weighted>
0.0000

> <Gold.Chemscore.DEClash.Weighted>
1.3188

> <Gold.Chemscore.DEInternal.Weighted>
0.5497

> <Gold.Chemscore.Rot.Weighted>
5.9456

> <Gold.Chemscore.Internal.Correction.Weighted>
   9.000000E+99

> <Gold.Protein.RotatedTorsions>
[ 6907 6896 6895 6894 ] final  165.60 input  -60.11 | X-H torsion
[ 7974 7965 7964 7962 ] final   67.03 input  175.53 | X-H torsion
[ 8008 7997 7996 7995 ] final  114.63 input   59.86 | X-H torsion
[ 10167 10162 10161 10158 ] final -113.19 input  -65.29 | X-H torsion
[ 10718 10713 10712 10709 ] final  119.85 input   66.30 | X-H torsion
[ 10763 10752 10751 10750 ] final  145.51 input  -60.55 | X-H torsion
[ 11005 11000 10999 10996 ] final    6.82 input  -57.11 | X-H torsion

> <Gold.Protein.ActiveResidues>
 VAL166  LYS551  ARG553  GLY616  TRP617  ASP618  TYR619  PRO620  LYS621  CYS622 
 ASP623  PHE694  ASN695  SER759  ASP760  ASP761  ALA762  ILE779  LEU786  VAL792 
 PHE793  MET794  SER795  GLU796  ALA797  LYS798  CYS799  TRP800  GLU811  SER814 

> <Gold.Protein.RotatedAtoms>
  151.8919  133.3518  159.3800 H   0  0  0  0  0  0  0  0  0  0  0  0  # atno 6907 bound_to 6896
  150.7101  134.4915  159.5527 H   0  0  0  0  0  0  0  0  0  0  0  0  # atno 6908 bound_to 6896
  152.2487  134.8155  160.0500 H   0  0  0  0  0  0  0  0  0  0  0  0  # atno 6909 bound_to 6896
  145.8195  139.3077  143.1052 H   0  0  0  0  0  0  0  0  0  0  0  0  # atno 7974 bound_to 7965
  156.2333  140.2955  156.0244 H   0  0  0  0  0  0  0  0  0  0  0  0  # atno 8008 bound_to 7997
  155.2165  140.0414  157.2959 H   0  0  0  0  0  0  0  0  0  0  0  0  # atno 8009 bound_to 7997
  154.6033  140.2432  155.7771 H   0  0  0  0  0  0  0  0  0  0  0  0  # atno 8010 bound_to 7997
  140.1145  143.4498  152.1731 H   0  0  0  0  0  0  0  0  0  0  0  0  # atno 10167 bound_to 10162
  157.5933  131.1061  150.7953 H   0  0  0  0  0  0  0  0  0  0  0  0  # atno 10718 bound_to 10713
  154.0066  135.2918  155.3397 H   0  0  0  0  0  0  0  0  0  0  0  0  # atno 10763 bound_to 10752
  154.7128  135.5142  153.8695 H   0  0  0  0  0  0  0  0  0  0  0  0  # atno 10764 bound_to 10752
  153.0742  135.6658  154.0302 H   0  0  0  0  0  0  0  0  0  0  0  0  # atno 10765 bound_to 10752
  140.5552  134.0245  155.7951 H   0  0  0  0  0  0  0  0  0  0  0  0  # atno 11005 bound_to 11000
  145.9690  140.8775  143.0172 LP  0  0  0  0  0  0  0  0  0  0  0  0  # atno 17320 bound_to 7965
  144.6749  140.1919  143.7396 LP  0  0  0  0  0  0  0  0  0  0  0  0  # atno 17321 bound_to 7965
  139.5601  144.7400  151.4179 LP  0  0  0  0  0  0  0  0  0  0  0  0  # atno 17342 bound_to 10162
  140.6907  143.7868  150.7251 LP  0  0  0  0  0  0  0  0  0  0  0  0  # atno 17343 bound_to 10162
  156.8370  130.5035  149.5325 LP  0  0  0  0  0  0  0  0  0  0  0  0  # atno 17370 bound_to 10713
  156.0991  130.5955  150.9863 LP  0  0  0  0  0  0  0  0  0  0  0  0  # atno 17371 bound_to 10713
  141.1148  133.9559  157.2844 LP  0  0  0  0  0  0  0  0  0  0  0  0  # atno 17394 bound_to 11000
  139.9435  135.0187  156.8781 LP  0  0  0  0  0  0  0  0  0  0  0  0  # atno 17395 bound_to 11000

$$$$
