AV-unprocessed.smi:2991|AV-procd|sdf|11399|dock7
  -GOLD-   2272016323D 1   1.00000     0.00000
 Structure written by MMmdl.
 38 39  0  0  0  0  0  0  0  0  2 V2000
  145.9123  130.8662  151.6275 C   0  0  0  0  0  0  0  0  0  0  0  0
  145.4084  132.2750  151.3789 C   0  0  0  0  0  0  0  0  0  0  0  0
  144.2045  132.4157  150.7815 N   0  3  0  0  0  0  0  0  0  0  0  0
  143.6573  133.6173  150.5038 C   0  0  0  0  0  0  0  0  0  0  0  0
  144.3449  134.7980  150.8453 C   0  0  0  0  0  0  0  0  0  0  0  0
  145.6048  134.7094  151.4901 C   0  0  0  0  0  0  0  0  0  0  0  0
  146.3717  135.8522  151.8515 N   0  0  0  0  0  0  0  0  0  0  0  0
  145.9421  137.0208  152.3568 C   0  0  0  0  0  0  0  0  0  0  0  0
  144.7677  137.3018  152.5958 O   0  0  0  0  0  0  0  0  0  0  0  0
  146.9665  137.8532  152.5906 N   0  0  0  0  0  0  0  0  0  0  0  0
  146.8656  139.1895  153.1772 C   0  0  2  0  0  0  0  0  0  0  0  0
  148.2278  139.9262  153.1000 C   0  0  0  0  0  0  0  0  0  0  0  0
  148.4571  141.0390  154.1441 C   0  0  0  0  0  0  0  0  0  0  0  0
  147.3599  142.1204  154.2146 C   0  0  0  0  0  0  0  0  0  0  0  0
  145.9117  141.6280  154.4508 C   0  0  0  0  0  0  0  0  0  0  0  0
  145.8155  140.3240  155.1057 N   0  0  0  0  0  0  0  0  0  0  0  0
  146.2113  139.1555  154.5719 C   0  0  0  0  0  0  0  0  0  0  0  0
  146.0781  138.0937  155.1793 O   0  0  0  0  0  0  0  0  0  0  0  0
  146.1468  133.4251  151.7455 C   0  0  0  0  0  0  0  0  0  0  0  0
  147.6935  133.2578  152.5066 Cl  0  0  0  0  0  0  0  0  0  0  0  0
  146.8592  130.7047  151.1111 H   0  0  0  0  0  0  0  0  0  0  0  0
  145.2010  130.1196  151.2722 H   0  0  0  0  0  0  0  0  0  0  0  0
  146.0696  130.7030  152.6940 H   0  0  0  0  0  0  0  0  0  0  0  0
  142.6945  133.5983  150.0142 H   0  0  0  0  0  0  0  0  0  0  0  0
  143.8990  135.7485  150.5952 H   0  0  0  0  0  0  0  0  0  0  0  0
  147.3733  135.7356  151.7962 H   0  0  0  0  0  0  0  0  0  0  0  0
  147.8995  137.5345  152.3713 H   0  0  0  0  0  0  0  0  0  0  0  0
  146.1628  139.7392  152.5496 H   0  0  0  0  0  0  0  0  0  0  0  0
  149.0365  139.2026  153.2122 H   0  0  0  0  0  0  0  0  0  0  0  0
  148.3460  140.3441  152.0995 H   0  0  0  0  0  0  0  0  0  0  0  0
  148.5834  140.5901  155.1302 H   0  0  0  0  0  0  0  0  0  0  0  0
  149.4108  141.5234  153.9321 H   0  0  0  0  0  0  0  0  0  0  0  0
  147.6252  142.8035  155.0222 H   0  0  0  0  0  0  0  0  0  0  0  0
  147.3832  142.7230  153.3059 H   0  0  0  0  0  0  0  0  0  0  0  0
  145.3748  142.3572  155.0582 H   0  0  0  0  0  0  0  0  0  0  0  0
  145.3708  141.5914  153.5046 H   0  0  0  0  0  0  0  0  0  0  0  0
  145.4004  140.3048  156.0262 H   0  0  0  0  0  0  0  0  0  0  0  0
  143.6875  131.5745  150.5242 H   0  0  0  0  0  0  0  0  0  0  0  0
  1  2  1  0  0  0  0
  1 21  1  0  0  0  0
  1 22  1  0  0  0  0
  1 23  1  0  0  0  0
  2 19  1  0  0  0  0
  2  3  2  0  0  0  0
  3  4  1  0  0  0  0
  3 38  1  0  0  0  0
  4  5  2  0  0  0  0
  4 24  1  0  0  0  0
  5  6  1  0  0  0  0
  5 25  1  0  0  0  0
  6  7  1  0  0  0  0
  6 19  2  0  0  0  0
  7  8  1  0  0  0  0
  7 26  1  0  0  0  0
  8  9  2  0  0  0  0
  8 10  1  0  0  0  0
 10 11  1  0  0  0  0
 10 27  1  0  0  0  0
 11 17  1  0  0  0  0
 11 12  1  0  0  0  0
 11 28  1  0  0  0  0
 12 13  1  0  0  0  0
 12 29  1  0  0  0  0
 12 30  1  0  0  0  0
 13 14  1  0  0  0  0
 13 31  1  0  0  0  0
 13 32  1  0  0  0  0
 14 15  1  0  0  0  0
 14 33  1  0  0  0  0
 14 34  1  0  0  0  0
 15 16  1  0  0  0  0
 15 35  1  0  0  0  0
 15 36  1  0  0  0  0
 16 17  1  0  0  0  0
 16 37  1  0  0  0  0
 17 18  2  0  0  0  0
 19 20  1  0  0  0  0
M  CHG  1   3   1
M  END
> <s_m_source_file>
AV-unprocessed.smi

> <i_m_source_file_index>
2991

> <i_lp_mmshare_version>
43012

> <i_f3d_flags>
0

> <s_epik_input>
W0NIM11jMW5bY0hdW2NIXWMoYzFDbClbTkhdQyg9TylbTkhdW0NAQEhdMltDSDJdW0NIMl1bQ0gyXVtDSDJdW05IXUMyPU8=

> <s_epik_cmdline>
J2VwaWtfcHl0aG9uJywgJy1waCcsICc3LjAnLCAnLXRuJywgJzgnLCAnLW1hJywgJzIwMCcsICctbWV0YWxfYmluZGluZycsICctaW1hZScsICc8aW5maWxlLm1hZT4nLCAnLW9tYWUnLCAnPG91dGZpbGUubWFlPic=

> <r_epik_Ionization_Penalty>
2.55031

> <r_epik_Ionization_Penalty_Charging>
2.55029

> <r_epik_Ionization_Penalty_Neutral>
1.86001e-05

> <r_epik_State_Penalty>
2.71882

> <r_epik_Charging_Adjusted_Penalty>
5.26911

> <i_epik_Tot_Q>
1

> <i_epik_Tot_abs_Q>
1

> <r_epik_Metal_State_Penalty>
2.7268

> <b_epik_Metal_Only>
0

> <s_lp_Force_Field>
OPLS_2005

> <r_lp_Energy>
25.1386

> <b_lp_Chiralities_Consistent>
1

> <s_lp_Variant>
AV-unprocessed.smi:2991-3

> <Gold.Version>
5.8.1

> <Gold.Id.Protein>
6NUR|6NUR_protein|mol2

> <Gold.PLP.Fitness>
33.6022

> <Gold.PLP.PLP>
-28.2284

> <Gold.PLP.part.hbond>
-2.0000

> <Gold.PLP.part.metal>
0.0000

> <Gold.PLP.part.buried>
2.6117

> <Gold.PLP.part.nonpolar>
-30.2251

> <Gold.PLP.part.repulsive>
0.4254

> <Gold.PLP.ligand.clash>
0.0000

> <Gold.PLP.ligand.torsion>
0.3273

> <Gold.PLP.Chemscore.Hbond>
1.9920

> <Gold.PLP.Chemscore.CHOScore>
0.0000

> <Gold.PLP.Chemscore.Metal>
0.0000

> <Gold.Chemscore.Hbonds>
donor molecule, donor type, donor heavy atom, donor atom, acceptor molecule, acceptor atom, score
      L1  H     7    26       P1  7948  1.00
      L1  H    10    27       P1  7948  0.99

> <Gold.PLP.Chemscore.Internal.Correction>
0.0525

> <Gold.Rescore>
     Score         DG    S(hbond)    S(metal)    S(lipo)     H(rot)  DE(clash)    DE(int)     intcor
     15.54     -18.83       1.91        0.00      81.55       1.00       2.34       0.96       ----

> <Gold.Chemscore.Fitness>
15.5360

> <Gold.Chemscore.DG>
-18.8334

> <Gold.Chemscore.ZeroCoef>
-5.4800

> <Gold.Chemscore.Hbond>
1.9078

> <Gold.Chemscore.Metal>
0.0000

> <Gold.Chemscore.Lipo>
81.5496

> <Gold.Chemscore.Internal_Hbond>
0.0000

> <Gold.Chemscore.DEClash>
2.3368

> <Gold.Chemscore.DEInternal>
0.9606

> <Gold.Chemscore.Rot>
1.0000

> <Gold.Chemscore.Internal.Correction>
   9.000000E+99

> <Gold.Chemscore.Hbonds>
donor molecule, donor type, donor heavy atom, donor atom, acceptor molecule, acceptor atom, score
      L1  H     7    26       P1  7948  0.98
      L1  H    10    27       P1  7948  0.93

> <Gold.Chemscore.Hbond.Weighted>
-6.3721

> <Gold.Chemscore.Metal.Weighted>
-0.0000

> <Gold.Chemscore.Lipo.Weighted>
-9.5413

> <Gold.Chemscore.Internal_Hbond.Weighted>
0.0000

> <Gold.Chemscore.DEClash.Weighted>
2.3368

> <Gold.Chemscore.DEInternal.Weighted>
0.9606

> <Gold.Chemscore.Rot.Weighted>
2.5600

> <Gold.Chemscore.Internal.Correction.Weighted>
   9.000000E+99

> <Gold.Protein.RotatedTorsions>
[ 6907 6896 6895 6894 ] final  -14.40 input  -60.11 | X-H torsion
[ 7974 7965 7964 7962 ] final  -10.64 input  175.53 | X-H torsion
[ 8008 7997 7996 7995 ] final  -15.67 input   59.86 | X-H torsion
[ 10167 10162 10161 10158 ] final   50.65 input  -65.29 | X-H torsion
[ 10718 10713 10712 10709 ] final   88.08 input   66.30 | X-H torsion
[ 10763 10752 10751 10750 ] final  -99.45 input  -60.55 | X-H torsion
[ 11005 11000 10999 10996 ] final -151.95 input  -57.11 | X-H torsion

> <Gold.Protein.ActiveResidues>
 VAL166  LYS551  ARG553  GLY616  TRP617  ASP618  TYR619  PRO620  LYS621  CYS622 
 ASP623  PHE694  ASN695  SER759  ASP760  ASP761  ALA762  ILE779  LEU786  VAL792 
 PHE793  MET794  SER795  GLU796  ALA797  LYS798  CYS799  TRP800  GLU811  SER814 

> <Gold.Protein.RotatedAtoms>
  151.3400  135.0861  159.9367 H   0  0  0  0  0  0  0  0  0  0  0  0  # atno 6907 bound_to 6896
  152.5213  133.9456  159.7658 H   0  0  0  0  0  0  0  0  0  0  0  0  # atno 6908 bound_to 6896
  150.9811  133.6191  159.2752 H   0  0  0  0  0  0  0  0  0  0  0  0  # atno 6909 bound_to 6896
  146.2214  140.2794  142.8361 H   0  0  0  0  0  0  0  0  0  0  0  0  # atno 7974 bound_to 7965
  154.5112  140.2190  155.9152 H   0  0  0  0  0  0  0  0  0  0  0  0  # atno 8008 bound_to 7997
  156.1555  140.3153  155.8684 H   0  0  0  0  0  0  0  0  0  0  0  0  # atno 8009 bound_to 7997
  155.3856  140.0475  157.3033 H   0  0  0  0  0  0  0  0  0  0  0  0  # atno 8010 bound_to 7997
  140.2702  144.3274  150.6292 H   0  0  0  0  0  0  0  0  0  0  0  0  # atno 10167 bound_to 10162
  157.6946  131.0280  150.3220 H   0  0  0  0  0  0  0  0  0  0  0  0  # atno 10718 bound_to 10713
  154.7499  135.4971  153.9270 H   0  0  0  0  0  0  0  0  0  0  0  0  # atno 10763 bound_to 10752
  153.1132  135.6714  153.9471 H   0  0  0  0  0  0  0  0  0  0  0  0  # atno 10764 bound_to 10752
  153.9225  135.3087  155.3426 H   0  0  0  0  0  0  0  0  0  0  0  0  # atno 10765 bound_to 10752
  140.7241  134.3694  157.5178 H   0  0  0  0  0  0  0  0  0  0  0  0  # atno 11005 bound_to 11000
  144.9208  140.7866  143.5749 LP  0  0  0  0  0  0  0  0  0  0  0  0  # atno 17320 bound_to 7965
  145.2731  139.1947  143.4831 LP  0  0  0  0  0  0  0  0  0  0  0  0  # atno 17321 bound_to 7965
  140.5896  143.2168  151.7278 LP  0  0  0  0  0  0  0  0  0  0  0  0  # atno 17342 bound_to 10162
  139.4991  144.3959  152.0232 LP  0  0  0  0  0  0  0  0  0  0  0  0  # atno 17343 bound_to 10162
  156.3706  130.3863  149.7179 LP  0  0  0  0  0  0  0  0  0  0  0  0  # atno 17370 bound_to 10713
  156.4594  130.7945  151.2965 LP  0  0  0  0  0  0  0  0  0  0  0  0  # atno 17371 bound_to 10713
  139.8841  134.8974  156.2723 LP  0  0  0  0  0  0  0  0  0  0  0  0  # atno 17394 bound_to 11000
  140.9978  133.7170  156.0913 LP  0  0  0  0  0  0  0  0  0  0  0  0  # atno 17395 bound_to 11000

$$$$
