AV-unprocessed.smi:2061|AV-procd|sdf|8374|dock4
  -GOLD-   2272011 53D 1   1.00000     0.00000
 Structure written by MMmdl.
 44 45  0  0  0  0  0  0  0  0  2 V2000
  149.5253  133.1813  153.7577 C   0  0  0  0  0  0  0  0  0  0  0  0
  149.9030  133.7338  155.0897 C   0  0  0  0  0  0  0  0  0  0  0  0
  150.2596  134.9844  155.5076 C   0  0  0  0  0  0  0  0  0  0  0  0
  150.4928  134.8078  156.8990 C   0  0  0  0  0  0  0  0  0  0  0  0
  150.8582  135.7651  157.7654 N   0  5  0  0  0  0  0  0  0  0  0  0
  151.7436  136.7185  157.3939 C   0  0  0  0  0  0  0  0  0  0  0  0
  152.4456  136.7074  156.3803 O   0  0  0  0  0  0  0  0  0  0  0  0
  151.8098  137.7505  158.2480 N   0  0  0  0  0  0  0  0  0  0  0  0
  152.6644  138.9306  158.1264 C   0  0  0  0  0  0  0  0  0  0  0  0
  151.8699  140.2253  157.7923 C   0  0  2  0  0  0  0  0  0  0  0  0
  151.7540  140.3663  156.2528 C   0  0  0  0  0  0  0  0  0  0  0  0
  152.4292  141.4380  158.4373 N   0  0  0  0  0  0  0  0  0  0  0  0
  151.6944  142.6558  158.0781 C   0  0  0  0  0  0  0  0  0  0  0  0
  152.2548  143.9194  158.7582 C   0  0  1  0  0  0  0  0  0  0  0  0
  151.4282  145.1677  158.4317 C   0  0  0  0  0  0  0  0  0  0  0  0
  152.2438  143.7346  160.1679 O   0  0  0  0  0  0  0  0  0  0  0  0
  153.0108  142.6097  160.5779 C   0  0  1  0  0  0  0  0  0  0  0  0
  152.9532  142.5208  162.1067 C   0  0  0  0  0  0  0  0  0  0  0  0
  152.4547  141.3423  159.9008 C   0  0  0  0  0  0  0  0  0  0  0  0
  150.2794  133.5636  157.2936 N   0  0  0  0  0  0  0  0  0  0  0  0
  149.9062  132.8671  156.1380 O   0  0  0  0  0  0  0  0  0  0  0  0
  148.5510  133.5585  153.4472 H   0  0  0  0  0  0  0  0  0  0  0  0
  149.4742  132.0926  153.7835 H   0  0  0  0  0  0  0  0  0  0  0  0
  150.2564  133.4665  153.0010 H   0  0  0  0  0  0  0  0  0  0  0  0
  150.3447  135.8822  154.9138 H   0  0  0  0  0  0  0  0  0  0  0  0
  151.2112  137.7097  159.0597 H   0  0  0  0  0  0  0  0  0  0  0  0
  153.1513  139.0067  159.0966 H   0  0  0  0  0  0  0  0  0  0  0  0
  153.4615  138.7806  157.3963 H   0  0  0  0  0  0  0  0  0  0  0  0
  150.8575  140.0810  158.1727 H   0  0  0  0  0  0  0  0  0  0  0  0
  151.3633  139.4655  155.7824 H   0  0  0  0  0  0  0  0  0  0  0  0
  152.7244  140.5763  155.8022 H   0  0  0  0  0  0  0  0  0  0  0  0
  151.0644  141.1549  155.9564 H   0  0  0  0  0  0  0  0  0  0  0  0
  151.7409  142.8276  157.0043 H   0  0  0  0  0  0  0  0  0  0  0  0
  150.6406  142.5389  158.3357 H   0  0  0  0  0  0  0  0  0  0  0  0
  153.2823  144.0858  158.4293 H   0  0  0  0  0  0  0  0  0  0  0  0
  151.4140  145.3595  157.3586 H   0  0  0  0  0  0  0  0  0  0  0  0
  151.8437  146.0489  158.9210 H   0  0  0  0  0  0  0  0  0  0  0  0
  150.3962  145.0561  158.7661 H   0  0  0  0  0  0  0  0  0  0  0  0
  154.0491  142.7590  160.2759 H   0  0  0  0  0  0  0  0  0  0  0  0
  153.5411  141.6788  162.4728 H   0  0  0  0  0  0  0  0  0  0  0  0
  151.9285  142.3906  162.4557 H   0  0  0  0  0  0  0  0  0  0  0  0
  153.3490  143.4272  162.5655 H   0  0  0  0  0  0  0  0  0  0  0  0
  151.4496  141.1384  160.2737 H   0  0  0  0  0  0  0  0  0  0  0  0
  153.0855  140.5150  160.2192 H   0  0  0  0  0  0  0  0  0  0  0  0
  1  2  1  0  0  0  0
  1 22  1  0  0  0  0
  1 23  1  0  0  0  0
  1 24  1  0  0  0  0
  2 21  1  0  0  0  0
  2  3  2  0  0  0  0
  3  4  1  0  0  0  0
  3 25  1  0  0  0  0
  4  5  1  0  0  0  0
  4 20  2  0  0  0  0
  5  6  1  0  0  0  0
  6  7  2  0  0  0  0
  6  8  1  0  0  0  0
  8  9  1  0  0  0  0
  8 26  1  0  0  0  0
  9 10  1  0  0  0  0
  9 27  1  0  0  0  0
  9 28  1  0  0  0  0
 10 11  1  0  0  0  0
 10 12  1  0  0  0  0
 10 29  1  0  0  0  0
 11 30  1  0  0  0  0
 11 31  1  0  0  0  0
 11 32  1  0  0  0  0
 12 19  1  0  0  0  0
 12 13  1  0  0  0  0
 13 14  1  0  0  0  0
 13 33  1  0  0  0  0
 13 34  1  0  0  0  0
 14 15  1  0  0  0  0
 14 16  1  0  0  0  0
 14 35  1  0  0  0  0
 15 36  1  0  0  0  0
 15 37  1  0  0  0  0
 15 38  1  0  0  0  0
 16 17  1  0  0  0  0
 17 18  1  0  0  0  0
 17 19  1  0  0  0  0
 17 39  1  0  0  0  0
 18 40  1  0  0  0  0
 18 41  1  0  0  0  0
 18 42  1  0  0  0  0
 19 43  1  0  0  0  0
 19 44  1  0  0  0  0
 20 21  1  0  0  0  0
M  CHG  1   5  -1
M  END
> <s_m_source_file>
AV-unprocessed.smi

> <i_m_source_file_index>
2061

> <i_lp_mmshare_version>
43012

> <i_f3d_flags>
0

> <s_epik_input>
W0NIM11jMVtjSF1jKG5vMSlbTkhdQyg9TylbTkhdW0NIMl1bQ0BIXShbQ0gzXSlOMltDSDJdW0NAQEhdKFtDSDNdKU9bQ0BASF0oW0NIM10pW0NIMl0y

> <s_epik_cmdline>
J2VwaWtfcHl0aG9uJywgJy1waCcsICc3LjAnLCAnLXRuJywgJzgnLCAnLW1hJywgJzIwMCcsICctbWV0YWxfYmluZGluZycsICctaW1hZScsICc8aW5maWxlLm1hZT4nLCAnLW9tYWUnLCAnPG91dGZpbGUubWFlPic=

> <r_epik_Ionization_Penalty>
6.88367

> <r_epik_Ionization_Penalty_Charging>
6.57198

> <r_epik_Ionization_Penalty_Neutral>
0.311681

> <r_epik_State_Penalty>
6.77619

> <r_epik_Charging_Adjusted_Penalty>
13.3482

> <i_epik_Tot_Q>
-1

> <i_epik_Tot_abs_Q>
1

> <r_epik_Metal_State_Penalty>
2.70524

> <b_epik_Metal_Only>
1

> <s_lp_Force_Field>
OPLS_2005

> <r_lp_Energy>
21.032

> <b_lp_Chiralities_Consistent>
1

> <s_lp_Variant>
AV-unprocessed.smi:2061-15

> <Gold.Version>
5.8.1

> <Gold.Id.Protein>
6NUR|6NUR_protein|mol2

> <Gold.PLP.Fitness>
44.4403

> <Gold.PLP.PLP>
-39.0955

> <Gold.PLP.part.hbond>
-3.0000

> <Gold.PLP.part.metal>
0.0000

> <Gold.PLP.part.buried>
-5.5287

> <Gold.PLP.part.nonpolar>
-31.3102

> <Gold.PLP.part.repulsive>
0.1189

> <Gold.PLP.ligand.clash>
0.0000

> <Gold.PLP.ligand.torsion>
0.8012

> <Gold.PLP.Chemscore.Hbond>
2.2969

> <Gold.PLP.Chemscore.CHOScore>
0.0000

> <Gold.PLP.Chemscore.Metal>
0.0000

> <Gold.Chemscore.Hbonds>
donor molecule, donor type, donor heavy atom, donor atom, acceptor molecule, acceptor atom, score
      P1  H  6896  6907       L1    20  0.38
      P1  H  6896  6908       L1     5  0.64
      P1  H 10752 10765       L1     7  1.00

> <Gold.PLP.Chemscore.Internal.Correction>
0.0566

> <Gold.Rescore>
     Score         DG    S(hbond)    S(metal)    S(lipo)     H(rot)  DE(clash)    DE(int)     intcor
     16.75     -18.64       1.59        0.00     100.43       1.52       0.04       1.85       ----

> <Gold.Chemscore.Fitness>
16.7516

> <Gold.Chemscore.DG>
-18.6419

> <Gold.Chemscore.ZeroCoef>
-5.4800

> <Gold.Chemscore.Hbond>
1.5869

> <Gold.Chemscore.Metal>
0.0000

> <Gold.Chemscore.Lipo>
100.4301

> <Gold.Chemscore.Internal_Hbond>
0.0000

> <Gold.Chemscore.DEClash>
0.0431

> <Gold.Chemscore.DEInternal>
1.8473

> <Gold.Chemscore.Rot>
1.5190

> <Gold.Chemscore.Internal.Correction>
   9.000000E+99

> <Gold.Chemscore.Hbonds>
donor molecule, donor type, donor heavy atom, donor atom, acceptor molecule, acceptor atom, score
      P1  H  6896  6907       L1    20  0.19
      P1  H  6896  6908       L1     5  0.21
      P1  H 10752 10765       L1     7  0.95

> <Gold.Chemscore.Hbond.Weighted>
-5.3002

> <Gold.Chemscore.Metal.Weighted>
-0.0000

> <Gold.Chemscore.Lipo.Weighted>
-11.7503

> <Gold.Chemscore.Internal_Hbond.Weighted>
0.0000

> <Gold.Chemscore.DEClash.Weighted>
0.0431

> <Gold.Chemscore.DEInternal.Weighted>
1.8473

> <Gold.Chemscore.Rot.Weighted>
3.8886

> <Gold.Chemscore.Internal.Correction.Weighted>
   9.000000E+99

> <Gold.Protein.RotatedTorsions>
[ 6907 6896 6895 6894 ] final -160.55 input  -60.11 | X-H torsion
[ 7974 7965 7964 7962 ] final -103.25 input  175.53 | X-H torsion
[ 8008 7997 7996 7995 ] final  -59.83 input   59.86 | X-H torsion
[ 10167 10162 10161 10158 ] final -148.79 input  -65.29 | X-H torsion
[ 10718 10713 10712 10709 ] final -174.55 input   66.30 | X-H torsion
[ 10763 10752 10751 10750 ] final -133.54 input  -60.55 | X-H torsion
[ 11005 11000 10999 10996 ] final -166.59 input  -57.11 | X-H torsion

> <Gold.Protein.ActiveResidues>
 VAL166  LYS551  ARG553  GLY616  TRP617  ASP618  TYR619  PRO620  LYS621  CYS622 
 ASP623  PHE694  ASN695  SER759  ASP760  ASP761  ALA762  ILE779  LEU786  VAL792 
 PHE793  MET794  SER795  GLU796  ALA797  LYS798  CYS799  TRP800  GLU811  SER814 

> <Gold.Protein.RotatedAtoms>
  151.3508  133.3926  159.2679 H   0  0  0  0  0  0  0  0  0  0  0  0  # atno 6907 bound_to 6896
  150.9802  134.9160  159.7850 H   0  0  0  0  0  0  0  0  0  0  0  0  # atno 6908 bound_to 6896
  152.5214  134.3472  159.9290 H   0  0  0  0  0  0  0  0  0  0  0  0  # atno 6909 bound_to 6896
  145.2583  140.9261  143.3055 H   0  0  0  0  0  0  0  0  0  0  0  0  # atno 7974 bound_to 7965
  154.4370  140.1053  156.6177 H   0  0  0  0  0  0  0  0  0  0  0  0  # atno 8008 bound_to 7997
  155.5741  140.3489  155.4504 H   0  0  0  0  0  0  0  0  0  0  0  0  # atno 8009 bound_to 7997
  156.0368  140.1273  157.0189 H   0  0  0  0  0  0  0  0  0  0  0  0  # atno 8010 bound_to 7997
  139.7500  143.8533  152.2584 H   0  0  0  0  0  0  0  0  0  0  0  0  # atno 10167 bound_to 10162
  156.7868  130.9503  151.3120 H   0  0  0  0  0  0  0  0  0  0  0  0  # atno 10718 bound_to 10713
  154.8731  135.3763  154.4590 H   0  0  0  0  0  0  0  0  0  0  0  0  # atno 10763 bound_to 10752
  153.5259  135.7028  153.5712 H   0  0  0  0  0  0  0  0  0  0  0  0  # atno 10764 bound_to 10752
  153.3938  135.3965  155.1907 H   0  0  0  0  0  0  0  0  0  0  0  0  # atno 10765 bound_to 10752
  140.5628  134.5316  157.5146 H   0  0  0  0  0  0  0  0  0  0  0  0  # atno 11005 bound_to 11000
  144.9441  139.4155  143.6434 LP  0  0  0  0  0  0  0  0  0  0  0  0  # atno 17320 bound_to 7965
  146.3283  139.8416  142.8889 LP  0  0  0  0  0  0  0  0  0  0  0  0  # atno 17321 bound_to 7965
  139.8508  144.7165  150.9216 LP  0  0  0  0  0  0  0  0  0  0  0  0  # atno 17342 bound_to 10162
  140.7796  143.3901  151.1325 LP  0  0  0  0  0  0  0  0  0  0  0  0  # atno 17343 bound_to 10162
  157.6620  130.8974  149.9850 LP  0  0  0  0  0  0  0  0  0  0  0  0  # atno 17370 bound_to 10713
  156.1184  130.3647  149.9929 LP  0  0  0  0  0  0  0  0  0  0  0  0  # atno 17371 bound_to 10713
  139.9399  134.7805  156.0704 LP  0  0  0  0  0  0  0  0  0  0  0  0  # atno 17394 bound_to 11000
  141.1104  133.6645  156.2965 LP  0  0  0  0  0  0  0  0  0  0  0  0  # atno 17395 bound_to 11000

$$$$
