AV-unprocessed.smi:3341|AV-procd|sdf|12883|dock2
  -GOLD-   2272019283D 1   1.00000     0.00000
 Structure written by MMmdl.
 46 47  0  0  0  0  0  0  0  0  2 V2000
  152.2861  144.0744  161.4089 C   0  0  0  0  0  0  0  0  0  0  0  0
  152.9064  142.8001  160.8235 C   0  0  0  0  0  0  0  0  0  0  0  0
  152.2746  142.4189  159.5754 N   0  0  0  0  0  0  0  0  0  0  0  0
  151.2894  143.0890  158.8774 C   0  0  0  0  0  0  0  0  0  0  0  0
  151.0361  142.3263  157.7722 C   0  0  0  0  0  0  0  0  0  0  0  0
  150.1119  142.5455  156.7195 N   0  0  0  0  0  0  0  0  0  0  0  0
  149.6416  141.6404  155.8460 C   0  0  0  0  0  0  0  0  0  0  0  0
  149.9316  140.4437  155.8388 O   0  0  0  0  0  0  0  0  0  0  0  0
  148.7991  142.2007  154.9668 N   0  0  0  0  0  0  0  0  0  0  0  0
  148.1321  141.4900  153.8818 C   0  0  0  0  0  0  0  0  0  0  0  0
  146.6149  141.3779  154.1271 C   0  0  0  0  0  0  0  0  0  0  0  0
  146.0801  140.0373  153.7781 N   0  3  1  0  0  0  0  0  0  0  0  0
  146.7542  139.4602  152.5861 C   0  0  0  0  0  0  0  0  0  0  0  0
  146.0944  138.1392  152.1598 C   0  0  0  0  0  0  0  0  0  0  0  0
  146.0822  137.1334  153.3174 C   0  0  0  0  0  0  0  0  0  0  0  0
  145.4057  137.7517  154.5521 C   0  0  1  0  0  0  0  0  0  0  0  0
  145.4005  136.7749  155.7367 C   0  0  0  0  0  0  0  0  0  0  0  0
  146.0854  139.0857  154.9224 C   0  0  0  0  0  0  0  0  0  0  0  0
  151.9047  141.2078  157.8665 C   0  0  0  0  0  0  0  0  0  0  0  0
  152.6506  141.2711  158.9588 N   0  0  0  0  0  0  0  0  0  0  0  0
  152.7678  144.3428  162.3492 H   0  0  0  0  0  0  0  0  0  0  0  0
  151.2221  143.9394  161.6061 H   0  0  0  0  0  0  0  0  0  0  0  0
  152.3962  144.9178  160.7262 H   0  0  0  0  0  0  0  0  0  0  0  0
  153.9736  142.9427  160.6481 H   0  0  0  0  0  0  0  0  0  0  0  0
  152.8091  141.9752  161.5304 H   0  0  0  0  0  0  0  0  0  0  0  0
  150.8729  144.0223  159.2269 H   0  0  0  0  0  0  0  0  0  0  0  0
  149.7825  143.4942  156.6160 H   0  0  0  0  0  0  0  0  0  0  0  0
  148.6179  143.1911  155.0453 H   0  0  0  0  0  0  0  0  0  0  0  0
  148.3398  142.0388  152.9643 H   0  0  0  0  0  0  0  0  0  0  0  0
  148.5740  140.4996  153.7585 H   0  0  0  0  0  0  0  0  0  0  0  0
  146.4250  141.5683  155.1843 H   0  0  0  0  0  0  0  0  0  0  0  0
  146.0738  142.1482  153.5753 H   0  0  0  0  0  0  0  0  0  0  0  0
  146.7058  140.1652  151.7551 H   0  0  0  0  0  0  0  0  0  0  0  0
  147.8111  139.3004  152.8061 H   0  0  0  0  0  0  0  0  0  0  0  0
  145.0729  138.3293  151.8275 H   0  0  0  0  0  0  0  0  0  0  0  0
  146.6240  137.7171  151.3051 H   0  0  0  0  0  0  0  0  0  0  0  0
  145.5612  136.2247  153.0137 H   0  0  0  0  0  0  0  0  0  0  0  0
  147.1049  136.8406  153.5596 H   0  0  0  0  0  0  0  0  0  0  0  0
  144.3660  137.9630  154.2972 H   0  0  0  0  0  0  0  0  0  0  0  0
  146.4145  136.5199  156.0465 H   0  0  0  0  0  0  0  0  0  0  0  0
  144.8887  135.8475  155.4781 H   0  0  0  0  0  0  0  0  0  0  0  0
  144.8874  137.2036  156.5979 H   0  0  0  0  0  0  0  0  0  0  0  0
  147.1137  138.9095  155.2428 H   0  0  0  0  0  0  0  0  0  0  0  0
  145.5621  139.5209  155.7731 H   0  0  0  0  0  0  0  0  0  0  0  0
  152.0167  140.3700  157.1943 H   0  0  0  0  0  0  0  0  0  0  0  0
  145.1151  140.1756  153.5136 H   0  0  0  0  0  0  0  0  0  0  0  0
  1  2  1  0  0  0  0
  1 21  1  0  0  0  0
  1 22  1  0  0  0  0
  1 23  1  0  0  0  0
  2  3  1  0  0  0  0
  2 24  1  0  0  0  0
  2 25  1  0  0  0  0
  3 20  1  0  0  0  0
  3  4  1  0  0  0  0
  4  5  2  0  0  0  0
  4 26  1  0  0  0  0
  5  6  1  0  0  0  0
  5 19  1  0  0  0  0
  6  7  1  0  0  0  0
  6 27  1  0  0  0  0
  7  8  2  0  0  0  0
  7  9  1  0  0  0  0
  9 10  1  0  0  0  0
  9 28  1  0  0  0  0
 10 11  1  0  0  0  0
 10 29  1  0  0  0  0
 10 30  1  0  0  0  0
 11 12  1  0  0  0  0
 11 31  1  0  0  0  0
 11 32  1  0  0  0  0
 12 18  1  0  0  0  0
 12 13  1  0  0  0  0
 12 46  1  0  0  0  0
 13 14  1  0  0  0  0
 13 33  1  0  0  0  0
 13 34  1  0  0  0  0
 14 15  1  0  0  0  0
 14 35  1  0  0  0  0
 14 36  1  0  0  0  0
 15 16  1  0  0  0  0
 15 37  1  0  0  0  0
 15 38  1  0  0  0  0
 16 17  1  0  0  0  0
 16 18  1  0  0  0  0
 16 39  1  0  0  0  0
 17 40  1  0  0  0  0
 17 41  1  0  0  0  0
 17 42  1  0  0  0  0
 18 43  1  0  0  0  0
 18 44  1  0  0  0  0
 19 20  2  0  0  0  0
 19 45  1  0  0  0  0
M  CHG  1  12   1
M  END
> <s_m_source_file>
AV-unprocessed.smi

> <i_m_source_file_index>
3341

> <i_lp_mmshare_version>
43012

> <i_f3d_flags>
0

> <s_epik_input>
W0NIM11bQ0gyXW4xW2NIXWMoW2NIXW4xKVtOSF1DKD1PKVtOSF1bQ0gyXVtDSDJdTjJbQ0gyXVtDSDJdW0NIMl1bQ0BASF0oW0NIM10pW0NIMl0y

> <s_epik_cmdline>
J2VwaWtfcHl0aG9uJywgJy1waCcsICc3LjAnLCAnLXRuJywgJzgnLCAnLW1hJywgJzIwMCcsICctbWV0YWxfYmluZGluZycsICctaW1hZScsICc8aW5maWxlLm1hZT4nLCAnLW9tYWUnLCAnPG91dGZpbGUubWFlPic=

> <r_lp_tautomer_probability>
1

> <r_epik_Ionization_Penalty>
0.00203389

> <r_epik_Ionization_Penalty_Charging>
0.00188267

> <r_epik_Ionization_Penalty_Neutral>
0.000151224

> <r_epik_State_Penalty>
0.0012808

> <r_epik_Charging_Adjusted_Penalty>
0.00316346

> <i_epik_Tot_Q>
1

> <i_epik_Tot_abs_Q>
1

> <r_epik_Metal_State_Penalty>
-0

> <b_epik_Metal_Only>
0

> <s_lp_Force_Field>
OPLS_2005

> <r_lp_Energy>
20.2182

> <b_lp_Chiralities_Consistent>
1

> <s_lp_Variant>
AV-unprocessed.smi:3341-1

> <Gold.Version>
5.8.1

> <Gold.Id.Protein>
6NUR|6NUR_protein|mol2

> <Gold.PLP.Fitness>
46.5007

> <Gold.PLP.PLP>
-35.9693

> <Gold.PLP.part.hbond>
-3.0000

> <Gold.PLP.part.metal>
0.0000

> <Gold.PLP.part.buried>
-3.1166

> <Gold.PLP.part.nonpolar>
-30.2439

> <Gold.PLP.part.repulsive>
0.2874

> <Gold.PLP.ligand.clash>
0.0000

> <Gold.PLP.ligand.torsion>
0.7480

> <Gold.PLP.Chemscore.Hbond>
4.0000

> <Gold.PLP.Chemscore.CHOScore>
0.0000

> <Gold.PLP.Chemscore.Metal>
0.0000

> <Gold.Chemscore.Hbonds>
donor molecule, donor type, donor heavy atom, donor atom, acceptor molecule, acceptor atom, score
      L1  H     6    27       P1  8028  1.00
      L1  H     9    28       P1  8028  1.00
      L1  H    12    46       P1 10175  2.00

> <Gold.PLP.Chemscore.Internal.Correction>
0.0274

> <Gold.Rescore>
     Score         DG    S(hbond)    S(metal)    S(lipo)     H(rot)  DE(clash)    DE(int)     intcor
     19.42     -21.69       2.94        0.00      89.57       1.59       0.27       2.00       ----

> <Gold.Chemscore.Fitness>
19.4175

> <Gold.Chemscore.DG>
-21.6936

> <Gold.Chemscore.ZeroCoef>
-5.4800

> <Gold.Chemscore.Hbond>
2.9362

> <Gold.Chemscore.Metal>
0.0000

> <Gold.Chemscore.Lipo>
89.5698

> <Gold.Chemscore.Internal_Hbond>
0.0000

> <Gold.Chemscore.DEClash>
0.2726

> <Gold.Chemscore.DEInternal>
2.0035

> <Gold.Chemscore.Rot>
1.5909

> <Gold.Chemscore.Internal.Correction>
   9.000000E+99

> <Gold.Chemscore.Hbonds>
donor molecule, donor type, donor heavy atom, donor atom, acceptor molecule, acceptor atom, score
      L1  H     6    27       P1  8028  0.94
      L1  H     9    28       P1  8028  0.98
      L1  H    12    46       P1 10175  1.00

> <Gold.Chemscore.Hbond.Weighted>
-9.8067

> <Gold.Chemscore.Metal.Weighted>
-0.0000

> <Gold.Chemscore.Lipo.Weighted>
-10.4797

> <Gold.Chemscore.Internal_Hbond.Weighted>
0.0000

> <Gold.Chemscore.DEClash.Weighted>
0.2726

> <Gold.Chemscore.DEInternal.Weighted>
2.0035

> <Gold.Chemscore.Rot.Weighted>
4.0728

> <Gold.Chemscore.Internal.Correction.Weighted>
   9.000000E+99

> <Gold.Protein.RotatedTorsions>
[ 6907 6896 6895 6894 ] final   25.84 input  -60.11 | X-H torsion
[ 7974 7965 7964 7962 ] final   66.60 input  175.53 | X-H torsion
[ 8008 7997 7996 7995 ] final  -36.13 input   59.86 | X-H torsion
[ 10167 10162 10161 10158 ] final  -19.44 input  -65.29 | X-H torsion
[ 10718 10713 10712 10709 ] final  -87.42 input   66.30 | X-H torsion
[ 10763 10752 10751 10750 ] final  166.99 input  -60.55 | X-H torsion
[ 11005 11000 10999 10996 ] final   17.33 input  -57.11 | X-H torsion

> <Gold.Protein.ActiveResidues>
 VAL166  LYS551  ARG553  GLY616  TRP617  ASP618  TYR619  PRO620  LYS621  CYS622 
 ASP623  PHE694  ASN695  SER759  ASP760  ASP761  ALA762  ILE779  LEU786  VAL792 
 PHE793  MET794  SER795  GLU796  ALA797  LYS798  CYS799  TRP800  GLU811  SER814 

> <Gold.Protein.RotatedAtoms>
  151.9785  135.0040  160.0556 H   0  0  0  0  0  0  0  0  0  0  0  0  # atno 6907 bound_to 6896
  152.1718  133.4644  159.4921 H   0  0  0  0  0  0  0  0  0  0  0  0  # atno 6908 bound_to 6896
  150.6903  134.1861  159.4310 H   0  0  0  0  0  0  0  0  0  0  0  0  # atno 6909 bound_to 6896
  145.8247  139.3104  143.1023 H   0  0  0  0  0  0  0  0  0  0  0  0  # atno 7974 bound_to 7965
  154.4080  140.1639  156.2324 H   0  0  0  0  0  0  0  0  0  0  0  0  # atno 8008 bound_to 7997
  155.9271  140.3417  155.6196 H   0  0  0  0  0  0  0  0  0  0  0  0  # atno 8009 bound_to 7997
  155.7151  140.0761  157.2345 H   0  0  0  0  0  0  0  0  0  0  0  0  # atno 8010 bound_to 7997
  140.7268  143.4818  151.0107 H   0  0  0  0  0  0  0  0  0  0  0  0  # atno 10167 bound_to 10162
  155.9985  130.4799  150.4864 H   0  0  0  0  0  0  0  0  0  0  0  0  # atno 10718 bound_to 10713
  154.3472  135.2753  155.2391 H   0  0  0  0  0  0  0  0  0  0  0  0  # atno 10763 bound_to 10752
  154.4636  135.5901  153.6276 H   0  0  0  0  0  0  0  0  0  0  0  0  # atno 10764 bound_to 10752
  152.9853  135.6071  154.3678 H   0  0  0  0  0  0  0  0  0  0  0  0  # atno 10765 bound_to 10752
  140.4372  134.1359  155.7686 H   0  0  0  0  0  0  0  0  0  0  0  0  # atno 11005 bound_to 11000
  145.9637  140.8816  143.0198 LP  0  0  0  0  0  0  0  0  0  0  0  0  # atno 17320 bound_to 7965
  144.6744  140.1848  143.7402 LP  0  0  0  0  0  0  0  0  0  0  0  0  # atno 17321 bound_to 7965
  139.8517  143.7429  152.3177 LP  0  0  0  0  0  0  0  0  0  0  0  0  # atno 17342 bound_to 10162
  139.7614  144.7505  151.0359 LP  0  0  0  0  0  0  0  0  0  0  0  0  # atno 17343 bound_to 10162
  157.2863  131.0617  151.2164 LP  0  0  0  0  0  0  0  0  0  0  0  0  # atno 17370 bound_to 10713
  157.3192  130.6928  149.6259 LP  0  0  0  0  0  0  0  0  0  0  0  0  # atno 17371 bound_to 10713
  141.1721  133.8588  157.1538 LP  0  0  0  0  0  0  0  0  0  0  0  0  # atno 17394 bound_to 11000
  140.0094  134.9994  157.0363 LP  0  0  0  0  0  0  0  0  0  0  0  0  # atno 17395 bound_to 11000

$$$$
