AV-unprocessed.smi:626|AV-procd|sdf|3111|dock1
  -GOLD-   22720 0 33D 1   1.00000     0.00000
 Structure written by MMmdl.
 34 36  0  0  0  0  0  0  0  0  1 V2000
  149.5465  136.3720  155.3030 C   0  0  0  0  0  0  0  0  0  0  0  0
  150.4958  137.4687  155.1908 N   0  0  0  0  0  0  0  0  0  0  0  0
  151.7234  137.4626  155.7310 C   0  0  0  0  0  0  0  0  0  0  0  0
  152.1684  136.5197  156.3860 O   0  0  0  0  0  0  0  0  0  0  0  0
  152.5810  138.7091  155.4999 C   0  0  0  0  0  0  0  0  0  0  0  0
  151.8101  139.9499  155.8186 C   0  0  0  0  0  0  0  0  0  0  0  0
  150.7980  140.3497  155.0579 N   0  0  0  0  0  0  0  0  0  0  0  0
  150.3481  141.5106  155.7026 O   0  0  0  0  0  0  0  0  0  0  0  0
  151.1706  141.6932  156.7644 C   0  0  0  0  0  0  0  0  0  0  0  0
  150.8650  142.8157  157.7129 C   0  0  2  0  0  0  0  0  0  0  0  0
  151.6302  144.1325  157.4485 C   0  0  0  0  0  0  0  0  0  0  0  0
  152.2238  144.4586  158.8328 C   0  0  2  0  0  0  0  0  0  0  0  0
  153.3771  143.4825  159.1354 C   0  0  0  0  0  0  0  0  0  0  0  0
  152.6392  142.1637  159.4349 C   0  0  0  0  0  0  0  0  0  0  0  0
  151.1618  142.5432  159.2068 C   0  0  1  0  0  0  0  0  0  0  0  0
  151.1347  143.9589  159.7759 C   0  0  0  0  0  0  0  0  0  0  0  0
  152.0727  140.7226  156.9080 N   0  0  0  0  0  0  0  0  0  0  0  0
  148.5926  136.6595  154.8606 H   0  0  0  0  0  0  0  0  0  0  0  0
  149.3718  136.1097  156.3474 H   0  0  0  0  0  0  0  0  0  0  0  0
  149.9139  135.4890  154.7786 H   0  0  0  0  0  0  0  0  0  0  0  0
  150.2044  138.2805  154.6654 H   0  0  0  0  0  0  0  0  0  0  0  0
  153.4864  138.6730  156.1079 H   0  0  0  0  0  0  0  0  0  0  0  0
  152.9018  138.7349  154.4578 H   0  0  0  0  0  0  0  0  0  0  0  0
  149.7984  143.0262  157.6163 H   0  0  0  0  0  0  0  0  0  0  0  0
  152.4095  144.0448  156.6906 H   0  0  0  0  0  0  0  0  0  0  0  0
  150.9437  144.9140  157.1206 H   0  0  0  0  0  0  0  0  0  0  0  0
  152.4958  145.5074  158.9551 H   0  0  0  0  0  0  0  0  0  0  0  0
  154.0692  143.3896  158.2976 H   0  0  0  0  0  0  0  0  0  0  0  0
  153.9473  143.8088  160.0061 H   0  0  0  0  0  0  0  0  0  0  0  0
  152.9780  141.3361  158.8132 H   0  0  0  0  0  0  0  0  0  0  0  0
  152.7988  141.8709  160.4736 H   0  0  0  0  0  0  0  0  0  0  0  0
  150.4611  141.8478  159.6698 H   0  0  0  0  0  0  0  0  0  0  0  0
  151.4169  144.0095  160.8292 H   0  0  0  0  0  0  0  0  0  0  0  0
  150.1776  144.4651  159.6383 H   0  0  0  0  0  0  0  0  0  0  0  0
  1  2  1  0  0  0  0
  1 18  1  0  0  0  0
  1 19  1  0  0  0  0
  1 20  1  0  0  0  0
  2  3  1  0  0  0  0
  2 21  1  0  0  0  0
  3  4  2  0  0  0  0
  3  5  1  0  0  0  0
  5  6  1  0  0  0  0
  5 22  1  0  0  0  0
  5 23  1  0  0  0  0
  6 17  1  0  0  0  0
  6  7  2  0  0  0  0
  7  8  1  0  0  0  0
  8  9  1  0  0  0  0
  9 10  1  0  0  0  0
  9 17  2  0  0  0  0
 10 15  1  0  0  0  0
 10 11  1  0  0  0  0
 10 24  1  0  0  0  0
 11 12  1  0  0  0  0
 11 25  1  0  0  0  0
 11 26  1  0  0  0  0
 12 16  1  0  0  0  0
 12 13  1  0  0  0  0
 12 27  1  0  0  0  0
 13 14  1  0  0  0  0
 13 28  1  0  0  0  0
 13 29  1  0  0  0  0
 14 15  1  0  0  0  0
 14 30  1  0  0  0  0
 14 31  1  0  0  0  0
 15 16  1  0  0  0  0
 15 32  1  0  0  0  0
 16 33  1  0  0  0  0
 16 34  1  0  0  0  0
M  END
> <s_m_source_file>
AV-unprocessed.smi

> <i_m_source_file_index>
626

> <i_lp_mmshare_version>
43012

> <i_f3d_flags>
0

> <s_epik_input>
W0NIM11bTkhdQyg9TylbQ0gyXWMxbm9jKG4xKVtDQEhdKFtDSDJdW0NAQEhdMjMpW0NAQEhdKFtDSDJdMylbQ0gyXVtDSDJdMg==

> <s_epik_cmdline>
J2VwaWtfcHl0aG9uJywgJy1waCcsICc3LjAnLCAnLXRuJywgJzgnLCAnLW1hJywgJzIwMCcsICctbWV0YWxfYmluZGluZycsICctaW1hZScsICc8aW5maWxlLm1hZT4nLCAnLW9tYWUnLCAnPG91dGZpbGUubWFlPic=

> <r_lp_tautomer_probability>
1

> <r_epik_Ionization_Penalty>
1.02916e-07

> <r_epik_Ionization_Penalty_Charging>
0

> <r_epik_Ionization_Penalty_Neutral>
1.02916e-07

> <r_epik_State_Penalty>
-0

> <r_epik_Charging_Adjusted_Penalty>
0

> <i_epik_Tot_Q>
0

> <i_epik_Tot_abs_Q>
0

> <r_epik_Metal_State_Penalty>
-0

> <b_epik_Metal_Only>
0

> <s_lp_Force_Field>
OPLS_2005

> <r_lp_Energy>
49.4755

> <b_lp_Chiralities_Consistent>
1

> <s_lp_Variant>
AV-unprocessed.smi:626-3

> <Gold.Version>
5.8.1

> <Gold.Id.Protein>
6NUR|6NUR_protein|mol2

> <Gold.PLP.Fitness>
38.9033

> <Gold.PLP.PLP>
-34.5532

> <Gold.PLP.part.hbond>
-2.3430

> <Gold.PLP.part.metal>
0.0000

> <Gold.PLP.part.buried>
-3.0661

> <Gold.PLP.part.nonpolar>
-29.8779

> <Gold.PLP.part.repulsive>
0.1913

> <Gold.PLP.ligand.clash>
0.0000

> <Gold.PLP.ligand.torsion>
0.9126

> <Gold.PLP.Chemscore.Hbond>
2.0284

> <Gold.PLP.Chemscore.CHOScore>
0.0000

> <Gold.PLP.Chemscore.Metal>
0.0000

> <Gold.Chemscore.Hbonds>
donor molecule, donor type, donor heavy atom, donor atom, acceptor molecule, acceptor atom, score
      P1  H  7989  7998       L1     7  1.00
      P1  H  7997  8009       L1    17  0.03
      P1  H 10752 10765       L1     4  1.00

> <Gold.PLP.Chemscore.Internal.Correction>
0.0900

> <Gold.Rescore>
     Score         DG    S(hbond)    S(metal)    S(lipo)     H(rot)  DE(clash)    DE(int)     intcor
     12.70     -16.26       1.30        0.00      90.35       1.61       0.41       3.15       ----

> <Gold.Chemscore.Fitness>
12.6995

> <Gold.Chemscore.DG>
-16.2641

> <Gold.Chemscore.ZeroCoef>
-5.4800

> <Gold.Chemscore.Hbond>
1.2991

> <Gold.Chemscore.Metal>
0.0000

> <Gold.Chemscore.Lipo>
90.3549

> <Gold.Chemscore.Internal_Hbond>
0.0000

> <Gold.Chemscore.DEClash>
0.4123

> <Gold.Chemscore.DEInternal>
3.1523

> <Gold.Chemscore.Rot>
1.6119

> <Gold.Chemscore.Internal.Correction>
   9.000000E+99

> <Gold.Chemscore.Hbonds>
donor molecule, donor type, donor heavy atom, donor atom, acceptor molecule, acceptor atom, score
      P1  H  7989  7998       L1     7  0.23
      P1  H 10752 10765       L1     4  0.29

> <Gold.Chemscore.Hbond.Weighted>
-4.3391

> <Gold.Chemscore.Metal.Weighted>
-0.0000

> <Gold.Chemscore.Lipo.Weighted>
-10.5715

> <Gold.Chemscore.Internal_Hbond.Weighted>
0.0000

> <Gold.Chemscore.DEClash.Weighted>
0.4123

> <Gold.Chemscore.DEInternal.Weighted>
3.1523

> <Gold.Chemscore.Rot.Weighted>
4.1266

> <Gold.Chemscore.Internal.Correction.Weighted>
   9.000000E+99

> <Gold.Protein.RotatedTorsions>
[ 6907 6896 6895 6894 ] final  130.92 input  -60.11 | X-H torsion
[ 7974 7965 7964 7962 ] final  111.33 input  175.53 | X-H torsion
[ 8008 7997 7996 7995 ] final -172.65 input   59.86 | X-H torsion
[ 10167 10162 10161 10158 ] final  117.94 input  -65.29 | X-H torsion
[ 10718 10713 10712 10709 ] final   17.27 input   66.30 | X-H torsion
[ 10763 10752 10751 10750 ] final -154.77 input  -60.55 | X-H torsion
[ 11005 11000 10999 10996 ] final -133.43 input  -57.11 | X-H torsion

> <Gold.Protein.ActiveResidues>
 VAL166  LYS551  ARG553  GLY616  TRP617  ASP618  TYR619  PRO620  LYS621  CYS622 
 ASP623  PHE694  ASN695  SER759  ASP760  ASP761  ALA762  ILE779  LEU786  VAL792 
 PHE793  MET794  SER795  GLU796  ALA797  LYS798  CYS799  TRP800  GLU811  SER814 

> <Gold.Protein.RotatedAtoms>
  152.3478  133.6143  159.5922 H   0  0  0  0  0  0  0  0  0  0  0  0  # atno 6907 bound_to 6896
  150.7518  133.9622  159.3528 H   0  0  0  0  0  0  0  0  0  0  0  0  # atno 6908 bound_to 6896
  151.7478  135.0840  160.0377 H   0  0  0  0  0  0  0  0  0  0  0  0  # atno 6909 bound_to 6896
  145.2435  139.2769  143.4105 H   0  0  0  0  0  0  0  0  0  0  0  0  # atno 7974 bound_to 7965
  155.9473  140.1120  157.1006 H   0  0  0  0  0  0  0  0  0  0  0  0  # atno 8008 bound_to 7997
  154.4102  140.1207  156.5072 H   0  0  0  0  0  0  0  0  0  0  0  0  # atno 8009 bound_to 7997
  155.6886  140.3473  155.4886 H   0  0  0  0  0  0  0  0  0  0  0  0  # atno 8010 bound_to 7997
  139.6145  144.7089  151.2770 H   0  0  0  0  0  0  0  0  0  0  0  0  # atno 10167 bound_to 10162
  157.0797  130.6383  149.5824 H   0  0  0  0  0  0  0  0  0  0  0  0  # atno 10718 bound_to 10713
  154.7835  135.3182  154.7938 H   0  0  0  0  0  0  0  0  0  0  0  0  # atno 10763 bound_to 10752
  153.8644  135.6850  153.4784 H   0  0  0  0  0  0  0  0  0  0  0  0  # atno 10764 bound_to 10752
  153.1478  135.4712  154.9531 H   0  0  0  0  0  0  0  0  0  0  0  0  # atno 10765 bound_to 10752
  140.9082  134.1603  157.4410 H   0  0  0  0  0  0  0  0  0  0  0  0  # atno 11005 bound_to 11000
  146.3322  140.2806  142.8610 LP  0  0  0  0  0  0  0  0  0  0  0  0  # atno 17320 bound_to 7965
  144.9567  140.8234  143.5538 LP  0  0  0  0  0  0  0  0  0  0  0  0  # atno 17321 bound_to 7965
  140.7341  143.6774  150.8030 LP  0  0  0  0  0  0  0  0  0  0  0  0  # atno 17342 bound_to 10162
  140.0374  143.5380  152.2733 LP  0  0  0  0  0  0  0  0  0  0  0  0  # atno 17343 bound_to 10162
  155.9927  130.4986  150.7350 LP  0  0  0  0  0  0  0  0  0  0  0  0  # atno 17370 bound_to 10713
  157.4810  131.0902  151.0536 LP  0  0  0  0  0  0  0  0  0  0  0  0  # atno 17371 bound_to 10713
  139.8753  134.9925  156.5600 LP  0  0  0  0  0  0  0  0  0  0  0  0  # atno 17394 bound_to 11000
  140.8144  133.8403  155.8839 LP  0  0  0  0  0  0  0  0  0  0  0  0  # atno 17395 bound_to 11000

$$$$
