AV-unprocessed.smi:287|AV-procd|sdf|2206|dock2
  -GOLD-   2262022 33D 1   1.00000     0.00000
 Structure written by MMmdl.
 55 58  0  0  0  0  0  0  0  0  1 V2000
  154.0017  135.7387  163.8949 C   0  0  0  0  0  0  0  0  0  0  0  0
  154.3107  137.0283  163.2153 C   0  0  0  0  0  0  0  0  0  0  0  0
  153.9264  137.5884  162.0321 C   0  0  0  0  0  0  0  0  0  0  0  0
  154.5595  138.8636  161.9384 C   0  0  0  0  0  0  0  0  0  0  0  0
  154.4124  139.8484  160.7859 C   0  0  2  0  0  0  0  0  0  0  0  0
  155.7656  140.0338  160.0789 C   0  0  0  0  0  0  0  0  0  0  0  0
  154.0351  141.1432  161.2123 O   0  0  0  0  0  0  0  0  0  0  0  0
  153.3376  139.4033  159.7683 C   0  0  0  0  0  0  0  0  0  0  0  0
  152.8839  140.4927  158.9098 N   0  0  0  0  0  0  0  0  0  0  0  0
  152.4194  140.2318  157.6701 C   0  0  0  0  0  0  0  0  0  0  0  0
  152.9913  139.2737  156.8954 N   0  0  0  0  0  0  0  0  0  0  0  0
  152.5120  139.0331  155.6716 C   0  0  0  0  0  0  0  0  0  0  0  0
  151.4919  139.6225  155.0447 N   0  0  0  0  0  0  0  0  0  0  0  0
  150.9121  140.5855  155.8186 C   0  0  0  0  0  0  0  0  0  0  0  0
  151.3182  140.9475  157.1336 C   0  0  0  0  0  0  0  0  0  0  0  0
  150.5069  141.9660  157.6148 N   0  0  0  0  0  0  0  0  0  0  0  0
  149.6708  142.1902  156.6375 C   0  0  0  0  0  0  0  0  0  0  0  0
  149.8423  141.4068  155.5174 N   0  0  0  0  0  0  0  0  0  0  0  0
  149.0333  141.4481  154.2551 C   0  0  2  0  0  0  0  0  0  0  0  0
  148.1111  142.4968  154.3231 O   0  0  0  0  0  0  0  0  0  0  0  0
  146.7764  142.0012  154.2123 C   0  0  1  0  0  0  0  0  0  0  0  0
  145.8906  143.0421  153.5104 C   0  0  0  0  0  0  0  0  0  0  0  0
  144.6809  143.2075  154.2186 O   0  0  0  0  0  0  0  0  0  0  0  0
  146.9599  140.7127  153.4085 C   0  0  2  0  0  0  0  0  0  0  0  0
  145.8686  139.8191  153.5183 O   0  0  0  0  0  0  0  0  0  0  0  0
  148.2485  140.1491  153.9896 C   0  0  2  0  0  0  0  0  0  0  0  0
  148.0257  139.3690  155.1550 O   0  0  0  0  0  0  0  0  0  0  0  0
  155.2992  138.9735  163.0918 C   0  0  0  0  0  0  0  0  0  0  0  0
  156.2018  140.0233  163.6518 C   0  0  0  0  0  0  0  0  0  0  0  0
  155.1517  137.8661  163.8716 O   0  0  0  0  0  0  0  0  0  0  0  0
  149.7581  141.6705  153.4709 H   0  0  0  0  0  0  0  0  0  0  0  0
  146.3882  141.7585  155.2030 H   0  0  0  0  0  0  0  0  0  0  0  0
  147.1150  140.9571  152.3563 H   0  0  0  0  0  0  0  0  0  0  0  0
  148.7872  139.5375  153.2650 H   0  0  0  0  0  0  0  0  0  0  0  0
  153.2669  135.1666  163.3282 H   0  0  0  0  0  0  0  0  0  0  0  0
  153.5970  135.9141  164.8917 H   0  0  0  0  0  0  0  0  0  0  0  0
  154.9002  135.1298  163.9951 H   0  0  0  0  0  0  0  0  0  0  0  0
  153.2590  137.1366  161.3132 H   0  0  0  0  0  0  0  0  0  0  0  0
  156.1320  139.0909  159.6713 H   0  0  0  0  0  0  0  0  0  0  0  0
  156.5243  140.4100  160.7667 H   0  0  0  0  0  0  0  0  0  0  0  0
  155.6911  140.7394  159.2505 H   0  0  0  0  0  0  0  0  0  0  0  0
  153.3013  141.0624  161.8019 H   0  0  0  0  0  0  0  0  0  0  0  0
  153.6926  138.5644  159.1677 H   0  0  0  0  0  0  0  0  0  0  0  0
  152.4647  139.0466  160.3171 H   0  0  0  0  0  0  0  0  0  0  0  0
  152.8910  141.4150  159.3222 H   0  0  0  0  0  0  0  0  0  0  0  0
  153.0169  138.2576  155.1149 H   0  0  0  0  0  0  0  0  0  0  0  0
  148.8988  142.9428  156.7071 H   0  0  0  0  0  0  0  0  0  0  0  0
  146.4051  143.9981  153.4079 H   0  0  0  0  0  0  0  0  0  0  0  0
  145.6360  142.7021  152.5061 H   0  0  0  0  0  0  0  0  0  0  0  0
  143.9656  143.1873  153.6012 H   0  0  0  0  0  0  0  0  0  0  0  0
  145.0763  140.2961  153.3203 H   0  0  0  0  0  0  0  0  0  0  0  0
  148.8130  138.8813  155.3437 H   0  0  0  0  0  0  0  0  0  0  0  0
  157.0169  140.2405  162.9616 H   0  0  0  0  0  0  0  0  0  0  0  0
  156.6400  139.7043  164.5976 H   0  0  0  0  0  0  0  0  0  0  0  0
  155.6532  140.9478  163.8319 H   0  0  0  0  0  0  0  0  0  0  0  0
  1  2  1  0  0  0  0
  1 35  1  0  0  0  0
  1 36  1  0  0  0  0
  1 37  1  0  0  0  0
  2 30  1  0  0  0  0
  2  3  2  0  0  0  0
  3  4  1  0  0  0  0
  3 38  1  0  0  0  0
  4  5  1  0  0  0  0
  4 28  2  0  0  0  0
  5  6  1  0  0  0  0
  5  7  1  0  0  0  0
  5  8  1  0  0  0  0
  6 39  1  0  0  0  0
  6 40  1  0  0  0  0
  6 41  1  0  0  0  0
  7 42  1  0  0  0  0
  8  9  1  0  0  0  0
  8 43  1  0  0  0  0
  8 44  1  0  0  0  0
  9 10  1  0  0  0  0
  9 45  1  0  0  0  0
 10 15  1  0  0  0  0
 10 11  2  0  0  0  0
 11 12  1  0  0  0  0
 12 13  2  0  0  0  0
 12 46  1  0  0  0  0
 13 14  1  0  0  0  0
 14 18  1  0  0  0  0
 14 15  2  0  0  0  0
 15 16  1  0  0  0  0
 16 17  2  0  0  0  0
 17 18  1  0  0  0  0
 17 47  1  0  0  0  0
 18 19  1  0  0  0  0
 19 31  1  0  0  0  0
 19 26  1  0  0  0  0
 19 20  1  0  0  0  0
 20 21  1  0  0  0  0
 21 32  1  0  0  0  0
 21 22  1  0  0  0  0
 21 24  1  0  0  0  0
 22 23  1  0  0  0  0
 22 48  1  0  0  0  0
 22 49  1  0  0  0  0
 23 50  1  0  0  0  0
 24 33  1  0  0  0  0
 24 25  1  0  0  0  0
 24 26  1  0  0  0  0
 25 51  1  0  0  0  0
 26 34  1  0  0  0  0
 26 27  1  0  0  0  0
 27 52  1  0  0  0  0
 28 29  1  0  0  0  0
 28 30  1  0  0  0  0
 29 53  1  0  0  0  0
 29 54  1  0  0  0  0
 29 55  1  0  0  0  0
M  END
> <s_m_source_file>
AV-unprocessed.smi

> <i_m_source_file_index>
287

> <i_lp_mmshare_version>
43012

> <i_f3d_flags>
0

> <s_epik_input>
W0NIM11jMVtjSF1jKGMobzEpW0NIM10pW0NAQF0oW0NIM10pKFtPSF0pW0NIMl1bTkhdYyhuW2NIXW4yKWMoYzIzKW5bY0hdbjNbQ0BASF00T1tDQEhdKFtDSDJdW09IXSlbQ0BASF0oW09IXSlbQ0BIXTRbT0hd

> <s_epik_cmdline>
J2VwaWtfcHl0aG9uJywgJy1waCcsICc3LjAnLCAnLXRuJywgJzgnLCAnLW1hJywgJzIwMCcsICctbWV0YWxfYmluZGluZycsICctaW1hZScsICc8aW5maWxlLm1hZT4nLCAnLW9tYWUnLCAnPG91dGZpbGUubWFlPic=

> <r_lp_tautomer_probability>
1

> <r_epik_Ionization_Penalty>
0.000992612

> <r_epik_Ionization_Penalty_Charging>
0

> <r_epik_Ionization_Penalty_Neutral>
0.000992612

> <r_epik_State_Penalty>
-0

> <r_epik_Charging_Adjusted_Penalty>
0

> <i_epik_Tot_Q>
0

> <i_epik_Tot_abs_Q>
0

> <r_epik_Metal_State_Penalty>
-0

> <b_epik_Metal_Only>
0

> <s_epik_Chemistry_Notes>
This compound contains an acetal/aminal-like group ( X-CH(R)-Y where X, Y are N, S, or O) that may be acid/base labile, releasing an aldehyde.

> <s_lp_Force_Field>
OPLS_2005

> <r_lp_Energy>
49.5285

> <b_lp_Chiralities_Consistent>
1

> <s_lp_Variant>
AV-unprocessed.smi:287-30

> <Gold.Version>
5.8.1

> <Gold.Id.Protein>
6NUR|6NUR_protein|mol2

> <Gold.PLP.Fitness>
56.6180

> <Gold.PLP.PLP>
-47.2510

> <Gold.PLP.part.hbond>
-4.9474

> <Gold.PLP.part.metal>
0.0000

> <Gold.PLP.part.buried>
-1.7701

> <Gold.PLP.part.nonpolar>
-43.5564

> <Gold.PLP.part.repulsive>
3.2594

> <Gold.PLP.ligand.clash>
0.0000

> <Gold.PLP.ligand.torsion>
1.5714

> <Gold.PLP.Chemscore.Hbond>
3.2210

> <Gold.PLP.Chemscore.CHOScore>
0.9169

> <Gold.PLP.Chemscore.Metal>
0.0000

> <Gold.Chemscore.Hbonds>
donor molecule, donor type, donor heavy atom, donor atom, acceptor molecule, acceptor atom, score
      L1  H    23    50       P1 10174  0.80
      L1  H    25    51       P1 10175  1.00
      P1  H  7989  7998       L1    13  0.60
      P1  H  7997  8010       L1    11  0.70
      P1  H  8022  8030       L1    20  0.03
      L1  C    17    47       P1  8028  0.91

> <Gold.PLP.Chemscore.Internal.Correction>
0.0961

> <Gold.Rescore>
     Score         DG    S(hbond)    S(metal)    S(lipo)     H(rot)  DE(clash)    DE(int)     intcor
      3.96      -6.95       1.18        0.00      94.04       5.27       1.66       1.32       ----

> <Gold.Chemscore.Fitness>
3.9637

> <Gold.Chemscore.DG>
-6.9507

> <Gold.Chemscore.ZeroCoef>
-5.4800

> <Gold.Chemscore.Hbond>
1.1832

> <Gold.Chemscore.Metal>
0.0000

> <Gold.Chemscore.Lipo>
94.0391

> <Gold.Chemscore.Internal_Hbond>
0.0000

> <Gold.Chemscore.DEClash>
1.6625

> <Gold.Chemscore.DEInternal>
1.3245

> <Gold.Chemscore.Rot>
5.2672

> <Gold.Chemscore.Internal.Correction>
   9.000000E+99

> <Gold.Chemscore.Hbonds>
donor molecule, donor type, donor heavy atom, donor atom, acceptor molecule, acceptor atom, score
      L1  H    23    50       P1 10174  0.16
      L1  H    25    51       P1 10175  0.96
      P1  H  7989  7998       L1    13  0.04
      P1  H  7997  8010       L1    11  0.02
      P1  H  8022  8030       L1    20  0.08

> <Gold.Chemscore.Hbond.Weighted>
-3.9520

> <Gold.Chemscore.Metal.Weighted>
-0.0000

> <Gold.Chemscore.Lipo.Weighted>
-11.0026

> <Gold.Chemscore.Internal_Hbond.Weighted>
0.0000

> <Gold.Chemscore.DEClash.Weighted>
1.6625

> <Gold.Chemscore.DEInternal.Weighted>
1.3245

> <Gold.Chemscore.Rot.Weighted>
13.4839

> <Gold.Chemscore.Internal.Correction.Weighted>
   9.000000E+99

> <Gold.Protein.RotatedTorsions>
[ 6907 6896 6895 6894 ] final  139.08 input  -60.11 | X-H torsion
[ 7974 7965 7964 7962 ] final  111.62 input  175.53 | X-H torsion
[ 8008 7997 7996 7995 ] final   79.44 input   59.86 | X-H torsion
[ 10167 10162 10161 10158 ] final   93.45 input  -65.29 | X-H torsion
[ 10718 10713 10712 10709 ] final  -13.69 input   66.30 | X-H torsion
[ 10763 10752 10751 10750 ] final   89.60 input  -60.55 | X-H torsion
[ 11005 11000 10999 10996 ] final  112.58 input  -57.11 | X-H torsion

> <Gold.Protein.ActiveResidues>
 VAL166  LYS551  ARG553  GLY616  TRP617  ASP618  TYR619  PRO620  LYS621  CYS622 
 ASP623  PHE694  ASN695  SER759  ASP760  ASP761  ALA762  ILE779  LEU786  VAL792 
 PHE793  MET794  SER795  GLU796  ALA797  LYS798  CYS799  TRP800  GLU811  SER814 

> <Gold.Protein.RotatedAtoms>
  152.2591  133.5281  159.5370 H   0  0  0  0  0  0  0  0  0  0  0  0  # atno 6907 bound_to 6896
  150.7119  134.0855  159.3922 H   0  0  0  0  0  0  0  0  0  0  0  0  # atno 6908 bound_to 6896
  151.8773  135.0467  160.0536 H   0  0  0  0  0  0  0  0  0  0  0  0  # atno 6909 bound_to 6896
  145.2399  139.2783  143.4123 H   0  0  0  0  0  0  0  0  0  0  0  0  # atno 7974 bound_to 7965
  155.8697  140.3449  155.5813 H   0  0  0  0  0  0  0  0  0  0  0  0  # atno 8008 bound_to 7997
  155.7841  140.0862  157.2063 H   0  0  0  0  0  0  0  0  0  0  0  0  # atno 8009 bound_to 7997
  154.4016  140.1495  156.3073 H   0  0  0  0  0  0  0  0  0  0  0  0  # atno 8010 bound_to 7997
  139.8178  144.6745  150.9557 H   0  0  0  0  0  0  0  0  0  0  0  0  # atno 10167 bound_to 10162
  156.6266  130.4890  149.6144 H   0  0  0  0  0  0  0  0  0  0  0  0  # atno 10718 bound_to 10713
  153.1888  135.4464  155.0123 H   0  0  0  0  0  0  0  0  0  0  0  0  # atno 10763 bound_to 10752
  154.8077  135.3281  154.7390 H   0  0  0  0  0  0  0  0  0  0  0  0  # atno 10764 bound_to 10752
  153.7846  135.6975  153.4937 H   0  0  0  0  0  0  0  0  0  0  0  0  # atno 10765 bound_to 10752
  139.8931  134.9533  156.6608 H   0  0  0  0  0  0  0  0  0  0  0  0  # atno 11005 bound_to 11000
  146.3331  140.2759  142.8608 LP  0  0  0  0  0  0  0  0  0  0  0  0  # atno 17320 bound_to 7965
  144.9599  140.8264  143.5520 LP  0  0  0  0  0  0  0  0  0  0  0  0  # atno 17321 bound_to 7965
  140.7815  143.4121  151.0976 LP  0  0  0  0  0  0  0  0  0  0  0  0  # atno 17342 bound_to 10162
  139.7784  143.8392  152.3133 LP  0  0  0  0  0  0  0  0  0  0  0  0  # atno 17343 bound_to 10162
  156.2268  130.6770  151.1424 LP  0  0  0  0  0  0  0  0  0  0  0  0  # atno 17370 bound_to 10713
  157.7212  131.0680  150.6127 LP  0  0  0  0  0  0  0  0  0  0  0  0  # atno 17371 bound_to 10713
  140.7448  133.8947  155.8304 LP  0  0  0  0  0  0  0  0  0  0  0  0  # atno 17394 bound_to 11000
  141.0048  134.1101  157.4281 LP  0  0  0  0  0  0  0  0  0  0  0  0  # atno 17395 bound_to 11000

$$$$
