AV-unprocessed.smi:223|AV-procd|sdf|1706|dock8
  -GOLD-   2262020173D 1   1.00000     0.00000
 Structure written by MMmdl.
 47 50  0  0  0  0  0  0  0  0  1 V2000
  146.0073  133.0753  158.6786 C   0  0  0  0  0  0  0  0  0  0  0  0
  147.1444  133.7672  159.4394 C   0  0  1  0  0  0  0  0  0  0  0  0
  148.4487  133.3812  158.8762 C   0  0  0  0  0  0  0  0  0  0  0  0
  149.4731  133.0777  158.4318 N   0  0  0  0  0  0  0  0  0  0  0  0
  146.9425  135.2966  159.4642 C   0  0  0  0  0  0  0  0  0  0  0  0
  148.0588  136.0334  160.0569 N   0  0  0  0  0  0  0  0  0  0  0  0
  148.8981  136.6826  159.2039 C   0  0  0  0  0  0  0  0  0  0  0  0
  150.1651  136.9679  159.6095 N   0  0  0  0  0  0  0  0  0  0  0  0
  151.0066  137.6221  158.8050 C   0  0  0  0  0  0  0  0  0  0  0  0
  150.7943  138.0764  157.5698 N   0  0  0  0  0  0  0  0  0  0  0  0
  149.5311  137.7867  157.1472 C   0  0  0  0  0  0  0  0  0  0  0  0
  148.5266  137.1045  157.8929 C   0  0  0  0  0  0  0  0  0  0  0  0
  147.3705  136.9986  157.1277 N   0  0  0  0  0  0  0  0  0  0  0  0
  147.6702  137.5889  156.0038 C   0  0  0  0  0  0  0  0  0  0  0  0
  148.9529  138.0808  155.9241 N   0  0  0  0  0  0  0  0  0  0  0  0
  149.5551  138.7728  154.7938 C   0  0  0  0  0  0  0  0  0  0  0  0
  148.9981  140.2001  154.5680 C   0  0  2  0  0  0  0  0  0  0  0  0
  149.5687  140.7352  153.3879 O   0  0  0  0  0  0  0  0  0  0  0  0
  149.3028  141.1382  155.7383 C   0  0  0  0  0  0  0  0  0  0  0  0
  147.9451  141.3421  156.3997 C   0  0  0  0  0  0  0  0  0  0  0  0
  147.0580  141.3255  155.2960 O   0  0  0  0  0  0  0  0  0  0  0  0
  147.4612  140.2545  154.4551 C   0  0  0  0  0  0  0  0  0  0  0  0
  147.8587  136.5986  161.3895 C   0  0  0  0  0  0  0  0  0  0  0  0
  147.4349  135.6867  162.5195 C   0  0  0  0  0  0  0  0  0  0  0  0
  146.4537  136.6773  161.9391 C   0  0  0  0  0  0  0  0  0  0  0  0
  146.1311  131.9921  158.6919 H   0  0  0  0  0  0  0  0  0  0  0  0
  145.9783  133.3946  157.6364 H   0  0  0  0  0  0  0  0  0  0  0  0
  145.0400  133.3030  159.1267 H   0  0  0  0  0  0  0  0  0  0  0  0
  147.1329  133.3866  160.4608 H   0  0  0  0  0  0  0  0  0  0  0  0
  146.7989  135.6504  158.4426 H   0  0  0  0  0  0  0  0  0  0  0  0
  146.0201  135.5500  159.9840 H   0  0  0  0  0  0  0  0  0  0  0  0
  151.9903  137.8094  159.2098 H   0  0  0  0  0  0  0  0  0  0  0  0
  146.9589  137.6763  155.1957 H   0  0  0  0  0  0  0  0  0  0  0  0
  150.6330  138.8137  154.9565 H   0  0  0  0  0  0  0  0  0  0  0  0
  149.4059  138.1636  153.9012 H   0  0  0  0  0  0  0  0  0  0  0  0
  149.4646  140.1041  152.6925 H   0  0  0  0  0  0  0  0  0  0  0  0
  150.0457  140.7423  156.4318 H   0  0  0  0  0  0  0  0  0  0  0  0
  149.6705  142.1023  155.3825 H   0  0  0  0  0  0  0  0  0  0  0  0
  147.7099  140.5191  157.0764 H   0  0  0  0  0  0  0  0  0  0  0  0
  147.8817  142.2779  156.9554 H   0  0  0  0  0  0  0  0  0  0  0  0
  147.1012  140.3910  153.4345 H   0  0  0  0  0  0  0  0  0  0  0  0
  147.0050  139.3449  154.8466 H   0  0  0  0  0  0  0  0  0  0  0  0
  148.5256  137.4126  161.6657 H   0  0  0  0  0  0  0  0  0  0  0  0
  147.2785  134.6337  162.2925 H   0  0  0  0  0  0  0  0  0  0  0  0
  147.8375  135.8958  163.5083 H   0  0  0  0  0  0  0  0  0  0  0  0
  146.2002  137.5476  162.5407 H   0  0  0  0  0  0  0  0  0  0  0  0
  145.6451  136.2811  161.3279 H   0  0  0  0  0  0  0  0  0  0  0  0
  1  2  1  0  0  0  0
  1 26  1  0  0  0  0
  1 27  1  0  0  0  0
  1 28  1  0  0  0  0
  2  3  1  0  0  0  0
  2  5  1  0  0  0  0
  2 29  1  0  0  0  0
  3  4  3  0  0  0  0
  5  6  1  0  0  0  0
  5 30  1  0  0  0  0
  5 31  1  0  0  0  0
  6  7  1  0  0  0  0
  6 23  1  0  0  0  0
  7 12  1  0  0  0  0
  7  8  2  0  0  0  0
  8  9  1  0  0  0  0
  9 10  2  0  0  0  0
  9 32  1  0  0  0  0
 10 11  1  0  0  0  0
 11 15  1  0  0  0  0
 11 12  2  0  0  0  0
 12 13  1  0  0  0  0
 13 14  2  0  0  0  0
 14 15  1  0  0  0  0
 14 33  1  0  0  0  0
 15 16  1  0  0  0  0
 16 17  1  0  0  0  0
 16 34  1  0  0  0  0
 16 35  1  0  0  0  0
 17 22  1  0  0  0  0
 17 18  1  0  0  0  0
 17 19  1  0  0  0  0
 18 36  1  0  0  0  0
 19 20  1  0  0  0  0
 19 37  1  0  0  0  0
 19 38  1  0  0  0  0
 20 21  1  0  0  0  0
 20 39  1  0  0  0  0
 20 40  1  0  0  0  0
 21 22  1  0  0  0  0
 22 41  1  0  0  0  0
 22 42  1  0  0  0  0
 23 25  1  0  0  0  0
 23 24  1  0  0  0  0
 23 43  1  0  0  0  0
 24 25  1  0  0  0  0
 24 44  1  0  0  0  0
 24 45  1  0  0  0  0
 25 46  1  0  0  0  0
 25 47  1  0  0  0  0
M  END
> <s_m_source_file>
AV-unprocessed.smi

> <i_m_source_file_index>
223

> <i_lp_mmshare_version>
43012

> <i_f3d_flags>
0

> <s_epik_input>
TiNDW0NAQEhdKFtDSDNdKVtDSDJdTihbQ0hdMVtDSDJdW0NIMl0xKWMobltjSF1uMiljKGMyMyluW2NIXW4zW0NIMl1bQ0BAXTQoW09IXSlbQ0gyXVtDSDJdT1tDSDJdNA==

> <s_epik_cmdline>
J2VwaWtfcHl0aG9uJywgJy1waCcsICc3LjAnLCAnLXRuJywgJzgnLCAnLW1hJywgJzIwMCcsICctbWV0YWxfYmluZGluZycsICctaW1hZScsICc8aW5maWxlLm1hZT4nLCAnLW9tYWUnLCAnPG91dGZpbGUubWFlPic=

> <r_lp_tautomer_probability>
1

> <r_epik_Ionization_Penalty>
0.000756152

> <r_epik_Ionization_Penalty_Charging>
0

> <r_epik_Ionization_Penalty_Neutral>
0.000756152

> <r_epik_State_Penalty>
0.00038036

> <r_epik_Charging_Adjusted_Penalty>
0.00038036

> <i_epik_Tot_Q>
0

> <i_epik_Tot_abs_Q>
0

> <r_epik_Metal_State_Penalty>
-0

> <b_epik_Metal_Only>
0

> <s_lp_Force_Field>
OPLS_2005

> <r_lp_Energy>
37.1983

> <b_lp_Chiralities_Consistent>
1

> <s_lp_Variant>
AV-unprocessed.smi:223-4

> <Gold.Version>
5.8.1

> <Gold.Id.Protein>
6NUR|6NUR_protein|mol2

> <Gold.PLP.Fitness>
41.5240

> <Gold.PLP.PLP>
-30.8032

> <Gold.PLP.part.hbond>
-4.5455

> <Gold.PLP.part.metal>
0.0000

> <Gold.PLP.part.buried>
-4.8626

> <Gold.PLP.part.nonpolar>
-21.9254

> <Gold.PLP.part.repulsive>
0.0832

> <Gold.PLP.ligand.clash>
0.0000

> <Gold.PLP.ligand.torsion>
1.3314

> <Gold.PLP.Chemscore.Hbond>
4.0180

> <Gold.PLP.Chemscore.CHOScore>
0.0000

> <Gold.PLP.Chemscore.Metal>
0.0000

> <Gold.Chemscore.Hbonds>
donor molecule, donor type, donor heavy atom, donor atom, acceptor molecule, acceptor atom, score
      L1  H    18    36       P1  7957  0.77
      P1  H  6896  6908       L1     4  0.91
      P1  H  6896  6909       L1     8  0.75
      P1  H  7989  7998       L1    18  0.32
      P1  H  8011  8017       L1    18  1.00

> <Gold.PLP.Chemscore.Internal.Correction>
1.3296

> <Gold.Rescore>
     Score         DG    S(hbond)    S(metal)    S(lipo)     H(rot)  DE(clash)    DE(int)     intcor
     11.03     -13.69       2.59        0.00      55.75       2.72       0.03       2.63       ----

> <Gold.Chemscore.Fitness>
11.0251

> <Gold.Chemscore.DG>
-13.6898

> <Gold.Chemscore.ZeroCoef>
-5.4800

> <Gold.Chemscore.Hbond>
2.5878

> <Gold.Chemscore.Metal>
0.0000

> <Gold.Chemscore.Lipo>
55.7460

> <Gold.Chemscore.Internal_Hbond>
0.0000

> <Gold.Chemscore.DEClash>
0.0310

> <Gold.Chemscore.DEInternal>
2.6337

> <Gold.Chemscore.Rot>
2.7171

> <Gold.Chemscore.Internal.Correction>
   9.000000E+99

> <Gold.Chemscore.Hbonds>
donor molecule, donor type, donor heavy atom, donor atom, acceptor molecule, acceptor atom, score
      L1  H    18    36       P1  7957  0.72
      P1  H  6896  6908       L1     4  0.89
      P1  H  6896  6909       L1     8  0.15
      P1  H  7989  7998       L1    18  0.08
      P1  H  8011  8017       L1    18  0.25

> <Gold.Chemscore.Hbond.Weighted>
-8.6433

> <Gold.Chemscore.Metal.Weighted>
-0.0000

> <Gold.Chemscore.Lipo.Weighted>
-6.5223

> <Gold.Chemscore.Internal_Hbond.Weighted>
0.0000

> <Gold.Chemscore.DEClash.Weighted>
0.0310

> <Gold.Chemscore.DEInternal.Weighted>
2.6337

> <Gold.Chemscore.Rot.Weighted>
6.9558

> <Gold.Chemscore.Internal.Correction.Weighted>
   9.000000E+99

> <Gold.Protein.RotatedTorsions>
[ 6907 6896 6895 6894 ] final   96.79 input  -60.11 | X-H torsion
[ 7974 7965 7964 7962 ] final -178.36 input  175.53 | X-H torsion
[ 8008 7997 7996 7995 ] final  155.19 input   59.86 | X-H torsion
[ 10167 10162 10161 10158 ] final   83.36 input  -65.29 | X-H torsion
[ 10718 10713 10712 10709 ] final   46.91 input   66.30 | X-H torsion
[ 10763 10752 10751 10750 ] final  -15.14 input  -60.55 | X-H torsion
[ 11005 11000 10999 10996 ] final  116.25 input  -57.11 | X-H torsion

> <Gold.Protein.ActiveResidues>
 VAL166  LYS551  ARG553  GLY616  TRP617  ASP618  TYR619  PRO620  LYS621  CYS622 
 ASP623  PHE694  ASN695  SER759  ASP760  ASP761  ALA762  ILE779  LEU786  VAL792 
 PHE793  MET794  SER795  GLU796  ALA797  LYS798  CYS799  TRP800  GLU811  SER814 

> <Gold.Protein.RotatedAtoms>
  152.5431  134.0832  159.8244 H   0  0  0  0  0  0  0  0  0  0  0  0  # atno 6907 bound_to 6896
  151.0931  133.5293  159.2621 H   0  0  0  0  0  0  0  0  0  0  0  0  # atno 6908 bound_to 6896
  151.2077  135.0477  159.8952 H   0  0  0  0  0  0  0  0  0  0  0  0  # atno 6909 bound_to 6896
  144.7130  140.0881  143.6422 H   0  0  0  0  0  0  0  0  0  0  0  0  # atno 7974 bound_to 7965
  156.2491  140.1946  156.6763 H   0  0  0  0  0  0  0  0  0  0  0  0  # atno 8008 bound_to 7997
  154.6355  140.0590  156.9809 H   0  0  0  0  0  0  0  0  0  0  0  0  # atno 8009 bound_to 7997
  155.1644  140.3262  155.4407 H   0  0  0  0  0  0  0  0  0  0  0  0  # atno 8010 bound_to 7997
  139.9192  144.6223  150.8457 H   0  0  0  0  0  0  0  0  0  0  0  0  # atno 10167 bound_to 10162
  157.4530  130.8150  149.7808 H   0  0  0  0  0  0  0  0  0  0  0  0  # atno 10718 bound_to 10713
  153.5388  135.7013  153.5647 H   0  0  0  0  0  0  0  0  0  0  0  0  # atno 10763 bound_to 10752
  153.3622  135.3967  155.1726 H   0  0  0  0  0  0  0  0  0  0  0  0  # atno 10764 bound_to 10752
  154.8676  135.3791  154.4890 H   0  0  0  0  0  0  0  0  0  0  0  0  # atno 10765 bound_to 10752
  139.9035  134.9595  156.7170 H   0  0  0  0  0  0  0  0  0  0  0  0  # atno 11005 bound_to 11000
  145.9644  139.2824  143.1136 LP  0  0  0  0  0  0  0  0  0  0  0  0  # atno 17320 bound_to 7965
  145.9185  140.9131  143.0417 LP  0  0  0  0  0  0  0  0  0  0  0  0  # atno 17321 bound_to 7965
  140.7666  143.3309  151.2413 LP  0  0  0  0  0  0  0  0  0  0  0  0  # atno 17342 bound_to 10162
  139.6876  143.9747  152.2842 LP  0  0  0  0  0  0  0  0  0  0  0  0  # atno 17343 bound_to 10162
  155.9995  130.3888  150.2661 LP  0  0  0  0  0  0  0  0  0  0  0  0  # atno 17370 bound_to 10713
  157.0834  131.0149  151.3148 LP  0  0  0  0  0  0  0  0  0  0  0  0  # atno 17371 bound_to 10713
  140.7031  133.9289  155.8036 LP  0  0  0  0  0  0  0  0  0  0  0  0  # atno 17394 bound_to 11000
  141.0357  134.0693  157.3962 LP  0  0  0  0  0  0  0  0  0  0  0  0  # atno 17395 bound_to 11000

$$$$
