AV-unprocessed.smi:240|AV-procd|sdf|1825|dock5
  -GOLD-   2262020423D 1   1.00000     0.00000
 Structure written by MMmdl.
 55 59  0  0  0  0  0  0  0  0  1 V2000
  151.5387  137.6397  153.4833 O   0  0  0  0  0  0  0  0  0  0  0  0
  151.0774  137.2187  154.7510 C   0  0  1  0  0  0  0  0  0  0  0  0
  151.9129  137.7645  155.9071 C   0  0  0  0  0  0  0  0  0  0  0  0
  151.0210  137.5267  157.1239 C   0  0  0  0  0  0  0  0  0  0  0  0
  149.5826  137.7192  156.6230 C   0  0  0  0  0  0  0  0  0  0  0  0
  149.6155  137.5936  155.0811 C   0  0  1  0  0  0  0  0  0  0  0  0
  149.0234  138.8355  154.3334 C   0  0  2  0  0  0  0  0  0  0  0  0
  149.8728  140.1245  154.4997 C   0  0  0  0  0  0  0  0  0  0  0  0
  149.2762  141.2113  153.8014 O   0  0  0  0  0  0  0  0  0  0  0  0
  147.9826  141.5163  154.3030 C   0  0  0  0  0  0  0  0  0  0  0  0
  147.0713  140.3031  154.0821 C   0  0  0  0  0  0  0  0  0  0  0  0
  147.6353  139.1219  154.7263 N   0  0  0  0  0  0  0  0  0  0  0  0
  146.7724  138.0822  154.6713 C   0  0  0  0  0  0  0  0  0  0  0  0
  146.4272  137.4205  155.8074 N   0  0  0  0  0  0  0  0  0  0  0  0
  145.5580  136.4070  155.7479 C   0  0  0  0  0  0  0  0  0  0  0  0
  144.9283  135.9074  154.6814 N   0  0  0  0  0  0  0  0  0  0  0  0
  145.2809  136.5688  153.5412 C   0  0  0  0  0  0  0  0  0  0  0  0
  146.1907  137.6578  153.4490 C   0  0  0  0  0  0  0  0  0  0  0  0
  146.2967  138.0836  152.1317 N   0  0  0  0  0  0  0  0  0  0  0  0
  145.4906  137.2909  151.4795 C   0  0  0  0  0  0  0  0  0  0  0  0
  144.8437  136.3467  152.2465 N   0  0  0  0  0  0  0  0  0  0  0  0
  143.8900  135.3490  151.7854 C   0  0  0  0  0  0  0  0  0  0  0  0
  144.3868  134.5191  150.5762 C   0  0  1  0  0  0  0  0  0  0  0  0
  144.0195  135.1801  149.3787 O   0  0  0  0  0  0  0  0  0  0  0  0
  145.9040  134.3238  150.5939 C   0  0  0  0  0  0  0  0  0  0  0  0
  146.0698  132.8688  151.0133 C   0  0  0  0  0  0  0  0  0  0  0  0
  144.9770  132.2390  150.3703 O   0  0  0  0  0  0  0  0  0  0  0  0
  143.8427  133.0753  150.5523 C   0  0  0  0  0  0  0  0  0  0  0  0
  151.4836  136.9098  152.8854 H   0  0  0  0  0  0  0  0  0  0  0  0
  151.1603  136.1307  154.7711 H   0  0  0  0  0  0  0  0  0  0  0  0
  152.8806  137.2697  155.9952 H   0  0  0  0  0  0  0  0  0  0  0  0
  152.0964  138.8321  155.7848 H   0  0  0  0  0  0  0  0  0  0  0  0
  151.1501  136.5015  157.4732 H   0  0  0  0  0  0  0  0  0  0  0  0
  151.2654  138.1895  157.9542 H   0  0  0  0  0  0  0  0  0  0  0  0
  148.9192  136.9739  157.0634 H   0  0  0  0  0  0  0  0  0  0  0  0
  149.2025  138.6898  156.9403 H   0  0  0  0  0  0  0  0  0  0  0  0
  149.0237  136.7224  154.7985 H   0  0  0  0  0  0  0  0  0  0  0  0
  149.0036  138.6014  153.2679 H   0  0  0  0  0  0  0  0  0  0  0  0
  149.9984  140.3970  155.5477 H   0  0  0  0  0  0  0  0  0  0  0  0
  150.8724  139.9899  154.0905 H   0  0  0  0  0  0  0  0  0  0  0  0
  148.0357  141.7812  155.3604 H   0  0  0  0  0  0  0  0  0  0  0  0
  147.5900  142.3843  153.7732 H   0  0  0  0  0  0  0  0  0  0  0  0
  146.0786  140.5093  154.4849 H   0  0  0  0  0  0  0  0  0  0  0  0
  146.9548  140.1205  153.0126 H   0  0  0  0  0  0  0  0  0  0  0  0
  145.3335  135.9288  156.6898 H   0  0  0  0  0  0  0  0  0  0  0  0
  145.3444  137.3769  150.4125 H   0  0  0  0  0  0  0  0  0  0  0  0
  143.6561  134.6908  152.6234 H   0  0  0  0  0  0  0  0  0  0  0  0
  142.9595  135.8593  151.5327 H   0  0  0  0  0  0  0  0  0  0  0  0
  144.6481  134.9599  148.7081 H   0  0  0  0  0  0  0  0  0  0  0  0
  146.3260  134.4512  149.5954 H   0  0  0  0  0  0  0  0  0  0  0  0
  146.4257  135.0121  151.2597 H   0  0  0  0  0  0  0  0  0  0  0  0
  147.0234  132.4435  150.7001 H   0  0  0  0  0  0  0  0  0  0  0  0
  145.9773  132.7576  152.0950 H   0  0  0  0  0  0  0  0  0  0  0  0
  143.3903  132.8076  151.5072 H   0  0  0  0  0  0  0  0  0  0  0  0
  143.0969  132.9022  149.7755 H   0  0  0  0  0  0  0  0  0  0  0  0
  1  2  1  0  0  0  0
  1 29  1  0  0  0  0
  2  6  1  0  0  0  0
  2  3  1  0  0  0  0
  2 30  1  0  0  0  0
  3  4  1  0  0  0  0
  3 31  1  0  0  0  0
  3 32  1  0  0  0  0
  4  5  1  0  0  0  0
  4 33  1  0  0  0  0
  4 34  1  0  0  0  0
  5  6  1  0  0  0  0
  5 35  1  0  0  0  0
  5 36  1  0  0  0  0
  6  7  1  0  0  0  0
  6 37  1  0  0  0  0
  7 12  1  0  0  0  0
  7  8  1  0  0  0  0
  7 38  1  0  0  0  0
  8  9  1  0  0  0  0
  8 39  1  0  0  0  0
  8 40  1  0  0  0  0
  9 10  1  0  0  0  0
 10 11  1  0  0  0  0
 10 41  1  0  0  0  0
 10 42  1  0  0  0  0
 11 12  1  0  0  0  0
 11 43  1  0  0  0  0
 11 44  1  0  0  0  0
 12 13  1  0  0  0  0
 13 18  1  0  0  0  0
 13 14  2  0  0  0  0
 14 15  1  0  0  0  0
 15 16  2  0  0  0  0
 15 45  1  0  0  0  0
 16 17  1  0  0  0  0
 17 21  1  0  0  0  0
 17 18  2  0  0  0  0
 18 19  1  0  0  0  0
 19 20  2  0  0  0  0
 20 21  1  0  0  0  0
 20 46  1  0  0  0  0
 21 22  1  0  0  0  0
 22 23  1  0  0  0  0
 22 47  1  0  0  0  0
 22 48  1  0  0  0  0
 23 28  1  0  0  0  0
 23 24  1  0  0  0  0
 23 25  1  0  0  0  0
 24 49  1  0  0  0  0
 25 26  1  0  0  0  0
 25 50  1  0  0  0  0
 25 51  1  0  0  0  0
 26 27  1  0  0  0  0
 26 52  1  0  0  0  0
 26 53  1  0  0  0  0
 27 28  1  0  0  0  0
 28 54  1  0  0  0  0
 28 55  1  0  0  0  0
M  END
> <s_m_source_file>
AV-unprocessed.smi

> <i_m_source_file_index>
240

> <i_lp_mmshare_version>
43012

> <i_f3d_flags>
0

> <s_epik_input>
W09IXVtDQEBIXTFbQ0gyXVtDSDJdW0NIMl1bQ0BIXTFbQ0BASF0yW0NIMl1PW0NIMl1bQ0gyXU4yYyhuW2NIXW4zKWMoYzM0KW5bY0hdbjRbQ0gyXVtDQEBdNShbT0hdKVtDSDJdW0NIMl1PW0NIMl01

> <s_epik_cmdline>
J2VwaWtfcHl0aG9uJywgJy1waCcsICc3LjAnLCAnLXRuJywgJzgnLCAnLW1hJywgJzIwMCcsICctbWV0YWxfYmluZGluZycsICctaW1hZScsICc8aW5maWxlLm1hZT4nLCAnLW9tYWUnLCAnPG91dGZpbGUubWFlPic=

> <r_lp_tautomer_probability>
1

> <r_epik_Ionization_Penalty>
0.000130618

> <r_epik_Ionization_Penalty_Charging>
0

> <r_epik_Ionization_Penalty_Neutral>
0.000130618

> <r_epik_State_Penalty>
-0

> <r_epik_Charging_Adjusted_Penalty>
0

> <i_epik_Tot_Q>
0

> <i_epik_Tot_abs_Q>
0

> <r_epik_Metal_State_Penalty>
-0

> <b_epik_Metal_Only>
0

> <s_lp_Force_Field>
OPLS_2005

> <r_lp_Energy>
64.9026

> <b_lp_Chiralities_Consistent>
1

> <s_lp_Variant>
AV-unprocessed.smi:240-2

> <Gold.Version>
5.8.1

> <Gold.Id.Protein>
6NUR|6NUR_protein|mol2

> <Gold.PLP.Fitness>
43.0750

> <Gold.PLP.PLP>
-34.3152

> <Gold.PLP.part.hbond>
-4.5540

> <Gold.PLP.part.metal>
0.0000

> <Gold.PLP.part.buried>
-4.5155

> <Gold.PLP.part.nonpolar>
-27.2640

> <Gold.PLP.part.repulsive>
2.5643

> <Gold.PLP.ligand.clash>
0.0000

> <Gold.PLP.ligand.torsion>
0.9845

> <Gold.PLP.Chemscore.Hbond>
2.9040

> <Gold.PLP.Chemscore.CHOScore>
0.6125

> <Gold.PLP.Chemscore.Metal>
0.0000

> <Gold.Chemscore.Hbonds>
donor molecule, donor type, donor heavy atom, donor atom, acceptor molecule, acceptor atom, score
      L1  H     1    29       P1  7949  1.00
      L1  H    24    49       P1  7921  1.00
      P1  H  8011  8017       L1     9  0.88
      L1  C    20    46       P1 10171  0.67

> <Gold.PLP.Chemscore.Internal.Correction>
0.1793

> <Gold.Rescore>
     Score         DG    S(hbond)    S(metal)    S(lipo)     H(rot)  DE(clash)    DE(int)     intcor
     13.22     -15.93       2.66        0.00      79.11       3.00       2.16       0.54       ----

> <Gold.Chemscore.Fitness>
13.2195

> <Gold.Chemscore.DG>
-15.9269

> <Gold.Chemscore.ZeroCoef>
-5.4800

> <Gold.Chemscore.Hbond>
2.6590

> <Gold.Chemscore.Metal>
0.0000

> <Gold.Chemscore.Lipo>
79.1085

> <Gold.Chemscore.Internal_Hbond>
0.0000

> <Gold.Chemscore.DEClash>
2.1644

> <Gold.Chemscore.DEInternal>
0.5430

> <Gold.Chemscore.Rot>
3.0039

> <Gold.Chemscore.Internal.Correction>
   9.000000E+99

> <Gold.Chemscore.Hbonds>
donor molecule, donor type, donor heavy atom, donor atom, acceptor molecule, acceptor atom, score
      L1  H     1    29       P1  7949  0.92
      L1  H    24    49       P1  7921  1.00
      P1  H  8011  8017       L1     9  0.70

> <Gold.Chemscore.Hbond.Weighted>
-8.8811

> <Gold.Chemscore.Metal.Weighted>
-0.0000

> <Gold.Chemscore.Lipo.Weighted>
-9.2557

> <Gold.Chemscore.Internal_Hbond.Weighted>
0.0000

> <Gold.Chemscore.DEClash.Weighted>
2.1644

> <Gold.Chemscore.DEInternal.Weighted>
0.5430

> <Gold.Chemscore.Rot.Weighted>
7.6899

> <Gold.Chemscore.Internal.Correction.Weighted>
   9.000000E+99

> <Gold.Protein.RotatedTorsions>
[ 6907 6896 6895 6894 ] final -161.43 input  -60.11 | X-H torsion
[ 7974 7965 7964 7962 ] final  131.85 input  175.53 | X-H torsion
[ 8008 7997 7996 7995 ] final   -3.93 input   59.86 | X-H torsion
[ 10167 10162 10161 10158 ] final -140.19 input  -65.29 | X-H torsion
[ 10718 10713 10712 10709 ] final   87.97 input   66.30 | X-H torsion
[ 10763 10752 10751 10750 ] final  -31.63 input  -60.55 | X-H torsion
[ 11005 11000 10999 10996 ] final    1.52 input  -57.11 | X-H torsion

> <Gold.Protein.ActiveResidues>
 VAL166  LYS551  ARG553  GLY616  TRP617  ASP618  TYR619  PRO620  LYS621  CYS622 
 ASP623  PHE694  ASN695  SER759  ASP760  ASP761  ALA762  ILE779  LEU786  VAL792 
 PHE793  MET794  SER795  GLU796  ALA797  LYS798  CYS799  TRP800  GLU811  SER814 

> <Gold.Protein.RotatedAtoms>
  151.3646  133.3877  159.2692 H   0  0  0  0  0  0  0  0  0  0  0  0  # atno 6907 bound_to 6896
  150.9698  134.9074  159.7792 H   0  0  0  0  0  0  0  0  0  0  0  0  # atno 6908 bound_to 6896
  152.5180  134.3608  159.9336 H   0  0  0  0  0  0  0  0  0  0  0  0  # atno 6909 bound_to 6896
  145.0030  139.4293  143.5283 H   0  0  0  0  0  0  0  0  0  0  0  0  # atno 7974 bound_to 7965
  154.6197  140.2497  155.7565 H   0  0  0  0  0  0  0  0  0  0  0  0  # atno 8008 bound_to 7997
  156.2419  140.2929  156.0418 H   0  0  0  0  0  0  0  0  0  0  0  0  # atno 8009 bound_to 7997
  155.1917  140.0392  157.2892 H   0  0  0  0  0  0  0  0  0  0  0  0  # atno 8010 bound_to 7997
  139.8305  143.7453  152.2666 H   0  0  0  0  0  0  0  0  0  0  0  0  # atno 10167 bound_to 10162
  157.6945  131.0276  150.3204 H   0  0  0  0  0  0  0  0  0  0  0  0  # atno 10718 bound_to 10713
  153.8005  135.6890  153.4856 H   0  0  0  0  0  0  0  0  0  0  0  0  # atno 10763 bound_to 10752
  153.1692  135.4549  154.9877 H   0  0  0  0  0  0  0  0  0  0  0  0  # atno 10764 bound_to 10752
  154.8008  135.3337  154.7494 H   0  0  0  0  0  0  0  0  0  0  0  0  # atno 10765 bound_to 10752
  140.6145  133.9717  155.8194 H   0  0  0  0  0  0  0  0  0  0  0  0  # atno 11005 bound_to 11000
  146.3455  139.9430  142.8738 LP  0  0  0  0  0  0  0  0  0  0  0  0  # atno 17320 bound_to 7965
  145.2127  140.9902  143.4091 LP  0  0  0  0  0  0  0  0  0  0  0  0  # atno 17321 bound_to 7965
  139.7659  144.7492  151.0295 LP  0  0  0  0  0  0  0  0  0  0  0  0  # atno 17342 bound_to 10162
  140.7807  143.4699  151.0161 LP  0  0  0  0  0  0  0  0  0  0  0  0  # atno 17343 bound_to 10162
  156.3692  130.3860  149.7189 LP  0  0  0  0  0  0  0  0  0  0  0  0  # atno 17370 bound_to 10713
  156.4609  130.7951  151.2971 LP  0  0  0  0  0  0  0  0  0  0  0  0  # atno 17371 bound_to 10713
  141.0785  134.0098  157.3422 LP  0  0  0  0  0  0  0  0  0  0  0  0  # atno 17394 bound_to 11000
  139.9178  135.0198  156.7950 LP  0  0  0  0  0  0  0  0  0  0  0  0  # atno 17395 bound_to 11000

$$$$
