AV-unprocessed.smi:1630|AV-procd|sdf|6525|dock7
  -GOLD-   22720 7203D 1   1.00000     0.00000
 Structure written by MMmdl.
 36 37  0  0  0  0  0  0  0  0  1 V2000
  146.2025  137.8277  152.0052 C   0  0  0  0  0  0  0  0  0  0  0  0
  146.1116  137.7525  153.8405 S   0  0  0  0  0  0  0  0  0  0  0  0
  144.7206  138.0101  154.2445 O   0  0  0  0  0  0  0  0  0  0  0  0
  146.7761  136.5137  154.2749 O   0  0  0  0  0  0  0  0  0  0  0  0
  147.1058  139.1417  154.3742 C   0  0  0  0  0  0  0  0  0  0  0  0
  147.3490  140.2229  153.5034 C   0  0  0  0  0  0  0  0  0  0  0  0
  148.1096  141.3056  153.9849 C   0  0  0  0  0  0  0  0  0  0  0  0
  148.5796  141.2726  155.3212 C   0  0  0  0  0  0  0  0  0  0  0  0
  149.3706  142.2883  155.9242 N   0  0  0  0  0  0  0  0  0  0  0  0
  150.3534  142.1733  156.8396 C   0  0  0  0  0  0  0  0  0  0  0  0
  150.7621  141.1107  157.3019 O   0  0  0  0  0  0  0  0  0  0  0  0
  150.8859  143.3477  157.2242 N   0  0  0  0  0  0  0  0  0  0  0  0
  151.9604  143.5828  158.1925 C   0  0  0  0  0  0  0  0  0  0  0  0
  151.4903  143.2407  159.6190 C   0  0  0  0  0  0  0  0  0  0  0  0
  151.9493  144.3998  160.5044 C   0  0  0  0  0  0  0  0  0  0  0  0
  151.9190  145.6111  159.5791 C   0  0  0  0  0  0  0  0  0  0  0  0
  152.3889  145.0651  158.2300 C   0  0  0  0  0  0  0  0  0  0  0  0
  148.2684  140.1378  156.1010 C   0  0  0  0  0  0  0  0  0  0  0  0
  147.5402  139.0944  155.6514 N   0  0  0  0  0  0  0  0  0  0  0  0
  145.6165  137.0137  151.5794 H   0  0  0  0  0  0  0  0  0  0  0  0
  147.2407  137.7330  151.6879 H   0  0  0  0  0  0  0  0  0  0  0  0
  145.8030  138.7813  151.6603 H   0  0  0  0  0  0  0  0  0  0  0  0
  146.9726  140.2254  152.4912 H   0  0  0  0  0  0  0  0  0  0  0  0
  148.3220  142.1254  153.3175 H   0  0  0  0  0  0  0  0  0  0  0  0
  149.1909  143.2254  155.5938 H   0  0  0  0  0  0  0  0  0  0  0  0
  150.4823  144.1772  156.8126 H   0  0  0  0  0  0  0  0  0  0  0  0
  152.8220  142.9593  157.9474 H   0  0  0  0  0  0  0  0  0  0  0  0
  150.4014  143.1776  159.6596 H   0  0  0  0  0  0  0  0  0  0  0  0
  151.8803  142.2828  159.9646 H   0  0  0  0  0  0  0  0  0  0  0  0
  151.3218  144.5286  161.3869 H   0  0  0  0  0  0  0  0  0  0  0  0
  152.9706  144.2226  160.8435 H   0  0  0  0  0  0  0  0  0  0  0  0
  150.8963  145.9798  159.4911 H   0  0  0  0  0  0  0  0  0  0  0  0
  152.5398  146.4318  159.9394 H   0  0  0  0  0  0  0  0  0  0  0  0
  153.4767  145.1240  158.1770 H   0  0  0  0  0  0  0  0  0  0  0  0
  151.9977  145.6535  157.3991 H   0  0  0  0  0  0  0  0  0  0  0  0
  148.6114  140.0657  157.1228 H   0  0  0  0  0  0  0  0  0  0  0  0
  1  2  1  0  0  0  0
  1 20  1  0  0  0  0
  1 21  1  0  0  0  0
  1 22  1  0  0  0  0
  2  3  2  0  0  0  0
  2  4  2  0  0  0  0
  2  5  1  0  0  0  0
  5 19  1  0  0  0  0
  5  6  2  0  0  0  0
  6  7  1  0  0  0  0
  6 23  1  0  0  0  0
  7  8  2  0  0  0  0
  7 24  1  0  0  0  0
  8  9  1  0  0  0  0
  8 18  1  0  0  0  0
  9 10  1  0  0  0  0
  9 25  1  0  0  0  0
 10 11  2  0  0  0  0
 10 12  1  0  0  0  0
 12 13  1  0  0  0  0
 12 26  1  0  0  0  0
 13 17  1  0  0  0  0
 13 14  1  0  0  0  0
 13 27  1  0  0  0  0
 14 15  1  0  0  0  0
 14 28  1  0  0  0  0
 14 29  1  0  0  0  0
 15 16  1  0  0  0  0
 15 30  1  0  0  0  0
 15 31  1  0  0  0  0
 16 17  1  0  0  0  0
 16 32  1  0  0  0  0
 16 33  1  0  0  0  0
 17 34  1  0  0  0  0
 17 35  1  0  0  0  0
 18 19  2  0  0  0  0
 18 36  1  0  0  0  0
M  END
> <s_m_source_file>
AV-unprocessed.smi

> <i_m_source_file_index>
1630

> <i_lp_mmshare_version>
43012

> <i_f3d_flags>
0

> <s_epik_input>
W0NIM11TKD1PKSg9TyljMVtjSF1bY0hdYyhbY0hdbjEpW05IXUMoPU8pW05IXVtDSF0yW0NIMl1bQ0gyXVtDSDJdW0NIMl0y

> <s_epik_cmdline>
J2VwaWtfcHl0aG9uJywgJy1waCcsICc3LjAnLCAnLXRuJywgJzgnLCAnLW1hJywgJzIwMCcsICctbWV0YWxfYmluZGluZycsICctaW1hZScsICc8aW5maWxlLm1hZT4nLCAnLW9tYWUnLCAnPG91dGZpbGUubWFlPic=

> <r_lp_tautomer_probability>
1

> <r_epik_Ionization_Penalty>
4.04514e-05

> <r_epik_Ionization_Penalty_Charging>
0

> <r_epik_Ionization_Penalty_Neutral>
4.04514e-05

> <r_epik_State_Penalty>
-0

> <r_epik_Charging_Adjusted_Penalty>
0

> <i_epik_Tot_Q>
0

> <i_epik_Tot_abs_Q>
0

> <r_epik_Metal_State_Penalty>
-0

> <b_epik_Metal_Only>
0

> <s_lp_Force_Field>
OPLS_2005

> <r_lp_Energy>
32.1208

> <b_lp_Chiralities_Consistent>
1

> <s_lp_Variant>
AV-unprocessed.smi:1630-1

> <Gold.Version>
5.8.1

> <Gold.Id.Protein>
6NUR|6NUR_protein|mol2

> <Gold.PLP.Fitness>
38.7748

> <Gold.PLP.PLP>
-34.3080

> <Gold.PLP.part.hbond>
-1.9097

> <Gold.PLP.part.metal>
0.0000

> <Gold.PLP.part.buried>
-3.9399

> <Gold.PLP.part.nonpolar>
-30.0952

> <Gold.PLP.part.repulsive>
0.3768

> <Gold.PLP.ligand.clash>
0.0000

> <Gold.PLP.ligand.torsion>
1.5021

> <Gold.PLP.Chemscore.Hbond>
1.8160

> <Gold.PLP.Chemscore.CHOScore>
0.0000

> <Gold.PLP.Chemscore.Metal>
0.0000

> <Gold.Chemscore.Hbonds>
donor molecule, donor type, donor heavy atom, donor atom, acceptor molecule, acceptor atom, score
      L1  H     9    25       P1  8028  0.99
      L1  H    12    26       P1  8028  0.82

> <Gold.PLP.Chemscore.Internal.Correction>
2.0231

> <Gold.Rescore>
     Score         DG    S(hbond)    S(metal)    S(lipo)     H(rot)  DE(clash)    DE(int)     intcor
     17.09     -19.90       1.91        0.00      90.71       1.00       0.07       2.74       ----

> <Gold.Chemscore.Fitness>
17.0937

> <Gold.Chemscore.DG>
-19.9012

> <Gold.Chemscore.ZeroCoef>
-5.4800

> <Gold.Chemscore.Hbond>
1.9065

> <Gold.Chemscore.Metal>
0.0000

> <Gold.Chemscore.Lipo>
90.7142

> <Gold.Chemscore.Internal_Hbond>
0.0000

> <Gold.Chemscore.DEClash>
0.0688

> <Gold.Chemscore.DEInternal>
2.7386

> <Gold.Chemscore.Rot>
1.0000

> <Gold.Chemscore.Internal.Correction>
   9.000000E+99

> <Gold.Chemscore.Hbonds>
donor molecule, donor type, donor heavy atom, donor atom, acceptor molecule, acceptor atom, score
      L1  H     9    25       P1  8028  0.92
      L1  H    12    26       P1  8028  0.76

> <Gold.Chemscore.Hbond.Weighted>
-6.3676

> <Gold.Chemscore.Metal.Weighted>
-0.0000

> <Gold.Chemscore.Lipo.Weighted>
-10.6136

> <Gold.Chemscore.Internal_Hbond.Weighted>
0.0000

> <Gold.Chemscore.DEClash.Weighted>
0.0688

> <Gold.Chemscore.DEInternal.Weighted>
2.7386

> <Gold.Chemscore.Rot.Weighted>
2.5600

> <Gold.Chemscore.Internal.Correction.Weighted>
   9.000000E+99

> <Gold.Protein.RotatedTorsions>
[ 6907 6896 6895 6894 ] final  -47.27 input  -60.11 | X-H torsion
[ 7974 7965 7964 7962 ] final  148.90 input  175.53 | X-H torsion
[ 8008 7997 7996 7995 ] final   80.75 input   59.86 | X-H torsion
[ 10167 10162 10161 10158 ] final   14.05 input  -65.29 | X-H torsion
[ 10718 10713 10712 10709 ] final   91.01 input   66.30 | X-H torsion
[ 10763 10752 10751 10750 ] final  -82.07 input  -60.55 | X-H torsion
[ 11005 11000 10999 10996 ] final  -25.11 input  -57.11 | X-H torsion

> <Gold.Protein.ActiveResidues>
 VAL166  LYS551  ARG553  GLY616  TRP617  ASP618  TYR619  PRO620  LYS621  CYS622 
 ASP623  PHE694  ASN695  SER759  ASP760  ASP761  ALA762  ILE779  LEU786  VAL792 
 PHE793  MET794  SER795  GLU796  ALA797  LYS798  CYS799  TRP800  GLU811  SER814 

> <Gold.Protein.RotatedAtoms>
  150.9026  134.8439  159.7369 H   0  0  0  0  0  0  0  0  0  0  0  0  # atno 6907 bound_to 6896
  152.4900  134.4480  159.9575 H   0  0  0  0  0  0  0  0  0  0  0  0  # atno 6908 bound_to 6896
  151.4530  133.3573  159.2833 H   0  0  0  0  0  0  0  0  0  0  0  0  # atno 6909 bound_to 6896
  144.8479  139.6212  143.5987 H   0  0  0  0  0  0  0  0  0  0  0  0  # atno 7974 bound_to 7965
  155.8878  140.3440  155.5934 H   0  0  0  0  0  0  0  0  0  0  0  0  # atno 8008 bound_to 7997
  155.7646  140.0837  157.2157 H   0  0  0  0  0  0  0  0  0  0  0  0  # atno 8009 bound_to 7997
  154.4030  140.1529  156.2859 H   0  0  0  0  0  0  0  0  0  0  0  0  # atno 8010 bound_to 7997
  140.5961  143.8698  150.6920 H   0  0  0  0  0  0  0  0  0  0  0  0  # atno 10167 bound_to 10162
  157.6960  131.0392  150.3665 H   0  0  0  0  0  0  0  0  0  0  0  0  # atno 10718 bound_to 10713
  154.5713  135.5604  153.7097 H   0  0  0  0  0  0  0  0  0  0  0  0  # atno 10763 bound_to 10752
  153.0049  135.6297  154.2110 H   0  0  0  0  0  0  0  0  0  0  0  0  # atno 10764 bound_to 10752
  154.2050  135.2876  155.2958 H   0  0  0  0  0  0  0  0  0  0  0  0  # atno 10765 bound_to 10752
  140.8908  133.7590  156.0418 H   0  0  0  0  0  0  0  0  0  0  0  0  # atno 11005 bound_to 11000
  146.2760  139.6753  142.9263 LP  0  0  0  0  0  0  0  0  0  0  0  0  # atno 17320 bound_to 7965
  145.4560  141.0430  143.2778 LP  0  0  0  0  0  0  0  0  0  0  0  0  # atno 17321 bound_to 7965
  140.2233  143.3792  152.1625 LP  0  0  0  0  0  0  0  0  0  0  0  0  # atno 17342 bound_to 10162
  139.5259  144.7102  151.5231 LP  0  0  0  0  0  0  0  0  0  0  0  0  # atno 17343 bound_to 10162
  156.4095  130.3931  149.6902 LP  0  0  0  0  0  0  0  0  0  0  0  0  # atno 17370 bound_to 10713
  156.4191  130.7760  151.2776 LP  0  0  0  0  0  0  0  0  0  0  0  0  # atno 17371 bound_to 10713
  140.8349  134.3135  157.5335 LP  0  0  0  0  0  0  0  0  0  0  0  0  # atno 17394 bound_to 11000
  139.8729  134.9384  156.3713 LP  0  0  0  0  0  0  0  0  0  0  0  0  # atno 17395 bound_to 11000

$$$$
