AV-unprocessed.smi:336|AV-procd|sdf|2371|dock9
  -GOLD-   2262022293D 1   1.00000     0.00000
 Structure written by MMmdl.
 34 36  0  0  0  0  0  0  0  0  1 V2000
  151.4956  140.8026  157.0121 O   0  0  0  0  0  0  0  0  0  0  0  0
  150.9166  141.8848  156.9213 C   0  0  0  0  0  0  0  0  0  0  0  0
  149.8398  142.1251  156.1533 N   0  0  0  0  0  0  0  0  0  0  0  0
  149.1616  141.2345  155.2776 C   0  0  0  0  0  0  0  0  0  0  0  0
  149.5392  139.8867  155.0625 C   0  0  0  0  0  0  0  0  0  0  0  0
  148.7954  139.1090  154.1540 C   0  0  0  0  0  0  0  0  0  0  0  0
  147.7079  139.7077  153.4890 C   0  0  0  0  0  0  0  0  0  0  0  0
  147.3459  140.9948  153.6729 N   0  0  0  0  0  0  0  0  0  0  0  0
  148.0642  141.7345  154.5446 C   0  0  0  0  0  0  0  0  0  0  0  0
  151.2772  142.9828  157.6036 N   0  0  0  0  0  0  0  0  0  0  0  0
  152.3911  143.1023  158.5435 C   0  0  0  0  0  0  0  0  0  0  0  0
  152.3834  142.0524  159.6449 C   0  0  0  0  0  0  0  0  0  0  0  0
  153.0751  142.2970  160.9651 C   0  0  0  0  0  0  0  0  0  0  0  0
  153.6300  141.2771  159.9959 C   0  0  0  0  0  0  0  0  0  0  0  0
  152.5550  144.4981  159.1273 C   0  0  0  0  0  0  0  0  0  0  0  0
  151.7704  144.9346  160.3410 C   0  0  0  0  0  0  0  0  0  0  0  0
  151.4679  145.5377  158.9875 C   0  0  0  0  0  0  0  0  0  0  0  0
  149.4220  143.0391  156.2482 H   0  0  0  0  0  0  0  0  0  0  0  0
  150.3860  139.4402  155.5600 H   0  0  0  0  0  0  0  0  0  0  0  0
  149.0561  138.0777  153.9677 H   0  0  0  0  0  0  0  0  0  0  0  0
  147.1169  139.1390  152.7862 H   0  0  0  0  0  0  0  0  0  0  0  0
  147.7474  142.7604  154.6641 H   0  0  0  0  0  0  0  0  0  0  0  0
  150.7289  143.8183  157.4605 H   0  0  0  0  0  0  0  0  0  0  0  0
  153.2775  142.9110  157.9369 H   0  0  0  0  0  0  0  0  0  0  0  0
  151.4505  141.4957  159.7106 H   0  0  0  0  0  0  0  0  0  0  0  0
  153.6326  143.2232  161.0878 H   0  0  0  0  0  0  0  0  0  0  0  0
  152.5854  141.9254  161.8629 H   0  0  0  0  0  0  0  0  0  0  0  0
  153.5114  140.2254  160.2482 H   0  0  0  0  0  0  0  0  0  0  0  0
  154.5491  141.5303  159.4710 H   0  0  0  0  0  0  0  0  0  0  0  0
  153.5712  144.8823  159.0610 H   0  0  0  0  0  0  0  0  0  0  0  0
  151.0446  144.2369  160.7536 H   0  0  0  0  0  0  0  0  0  0  0  0
  152.2812  145.5615  161.0689 H   0  0  0  0  0  0  0  0  0  0  0  0
  151.7777  146.5662  158.8131 H   0  0  0  0  0  0  0  0  0  0  0  0
  150.5376  145.2433  158.5059 H   0  0  0  0  0  0  0  0  0  0  0  0
  1  2  2  0  0  0  0
  2  3  1  0  0  0  0
  2 10  1  0  0  0  0
  3  4  1  0  0  0  0
  3 18  1  0  0  0  0
  4  9  1  0  0  0  0
  4  5  2  0  0  0  0
  5  6  1  0  0  0  0
  5 19  1  0  0  0  0
  6  7  2  0  0  0  0
  6 20  1  0  0  0  0
  7  8  1  0  0  0  0
  7 21  1  0  0  0  0
  8  9  2  0  0  0  0
  9 22  1  0  0  0  0
 10 11  1  0  0  0  0
 10 23  1  0  0  0  0
 11 12  1  0  0  0  0
 11 15  1  0  0  0  0
 11 24  1  0  0  0  0
 12 14  1  0  0  0  0
 12 13  1  0  0  0  0
 12 25  1  0  0  0  0
 13 14  1  0  0  0  0
 13 26  1  0  0  0  0
 13 27  1  0  0  0  0
 14 28  1  0  0  0  0
 14 29  1  0  0  0  0
 15 17  1  0  0  0  0
 15 16  1  0  0  0  0
 15 30  1  0  0  0  0
 16 17  1  0  0  0  0
 16 31  1  0  0  0  0
 16 32  1  0  0  0  0
 17 33  1  0  0  0  0
 17 34  1  0  0  0  0
M  END
> <s_m_source_file>
AV-unprocessed.smi

> <i_m_source_file_index>
336

> <i_lp_mmshare_version>
43012

> <i_f3d_flags>
0

> <s_epik_input>
W0NIMl0xW0NIMl1bQ0hdMVtDSF0oW0NIXTJbQ0gyXVtDSDJdMilbTkhdQyg9TylbTkhdYzNbY0hdW2NIXVtjSF1uW2NIXTM=

> <s_epik_cmdline>
J2VwaWtfcHl0aG9uJywgJy1waCcsICc3LjAnLCAnLXRuJywgJzgnLCAnLW1hJywgJzIwMCcsICctbWV0YWxfYmluZGluZycsICctaW1hZScsICc8aW5maWxlLm1hZT4nLCAnLW9tYWUnLCAnPG91dGZpbGUubWFlPic=

> <r_epik_Ionization_Penalty>
0.00498677

> <r_epik_Ionization_Penalty_Charging>
0

> <r_epik_Ionization_Penalty_Neutral>
0.00498677

> <r_epik_State_Penalty>
0.00359262

> <r_epik_Charging_Adjusted_Penalty>
0.00359262

> <i_epik_Tot_Q>
0

> <i_epik_Tot_abs_Q>
0

> <r_epik_Metal_State_Penalty>
-0

> <b_epik_Metal_Only>
0

> <s_lp_Force_Field>
OPLS_2005

> <r_lp_Energy>
27.0567

> <b_lp_Chiralities_Consistent>
1

> <s_lp_Variant>
AV-unprocessed.smi:336-1

> <Gold.Version>
5.8.1

> <Gold.Id.Protein>
6NUR|6NUR_protein|mol2

> <Gold.PLP.Fitness>
45.1237

> <Gold.PLP.PLP>
-40.7154

> <Gold.PLP.part.hbond>
-1.0000

> <Gold.PLP.part.metal>
0.0000

> <Gold.PLP.part.buried>
-3.1979

> <Gold.PLP.part.nonpolar>
-37.0024

> <Gold.PLP.part.repulsive>
0.2639

> <Gold.PLP.ligand.clash>
0.0000

> <Gold.PLP.ligand.torsion>
1.8782

> <Gold.PLP.Chemscore.Hbond>
1.0000

> <Gold.PLP.Chemscore.CHOScore>
1.0000

> <Gold.PLP.Chemscore.Metal>
0.0000

> <Gold.Chemscore.Hbonds>
donor molecule, donor type, donor heavy atom, donor atom, acceptor molecule, acceptor atom, score
      L1  H     3    18       P1  8028  1.00
      L1  C     9    22       P1  8028  1.00

> <Gold.PLP.Chemscore.Internal.Correction>
2.1647

> <Gold.Rescore>
     Score         DG    S(hbond)    S(metal)    S(lipo)     H(rot)  DE(clash)    DE(int)     intcor
     15.51     -18.59       0.98        0.00     113.13       1.33       0.06       3.03       ----

> <Gold.Chemscore.Fitness>
15.5071

> <Gold.Chemscore.DG>
-18.5946

> <Gold.Chemscore.ZeroCoef>
-5.4800

> <Gold.Chemscore.Hbond>
0.9795

> <Gold.Chemscore.Metal>
0.0000

> <Gold.Chemscore.Lipo>
113.1261

> <Gold.Chemscore.Internal_Hbond>
0.0000

> <Gold.Chemscore.DEClash>
0.0566

> <Gold.Chemscore.DEInternal>
3.0309

> <Gold.Chemscore.Rot>
1.3253

> <Gold.Chemscore.Internal.Correction>
   9.000000E+99

> <Gold.Chemscore.Hbonds>
donor molecule, donor type, donor heavy atom, donor atom, acceptor molecule, acceptor atom, score
      L1  H     3    18       P1  8028  0.98

> <Gold.Chemscore.Hbond.Weighted>
-3.2717

> <Gold.Chemscore.Metal.Weighted>
-0.0000

> <Gold.Chemscore.Lipo.Weighted>
-13.2358

> <Gold.Chemscore.Internal_Hbond.Weighted>
0.0000

> <Gold.Chemscore.DEClash.Weighted>
0.0566

> <Gold.Chemscore.DEInternal.Weighted>
3.0309

> <Gold.Chemscore.Rot.Weighted>
3.3928

> <Gold.Chemscore.Internal.Correction.Weighted>
   9.000000E+99

> <Gold.Protein.RotatedTorsions>
[ 6907 6896 6895 6894 ] final   91.64 input  -60.11 | X-H torsion
[ 7974 7965 7964 7962 ] final  137.65 input  175.53 | X-H torsion
[ 8008 7997 7996 7995 ] final  128.98 input   59.86 | X-H torsion
[ 10167 10162 10161 10158 ] final -178.95 input  -65.29 | X-H torsion
[ 10718 10713 10712 10709 ] final -151.46 input   66.30 | X-H torsion
[ 10763 10752 10751 10750 ] final -132.50 input  -60.55 | X-H torsion
[ 11005 11000 10999 10996 ] final  142.74 input  -57.11 | X-H torsion

> <Gold.Protein.ActiveResidues>
 VAL166  LYS551  ARG553  GLY616  TRP617  ASP618  TYR619  PRO620  LYS621  CYS622 
 ASP623  PHE694  ASN695  SER759  ASP760  ASP761  ALA762  ILE779  LEU786  VAL792 
 PHE793  MET794  SER795  GLU796  ALA797  LYS798  CYS799  TRP800  GLU811  SER814 

> <Gold.Protein.RotatedAtoms>
  152.5450  134.1626  159.8563 H   0  0  0  0  0  0  0  0  0  0  0  0  # atno 6907 bound_to 6896
  151.1643  133.4818  159.2601 H   0  0  0  0  0  0  0  0  0  0  0  0  # atno 6908 bound_to 6896
  151.1340  135.0156  159.8650 H   0  0  0  0  0  0  0  0  0  0  0  0  # atno 6909 bound_to 6896
  144.9448  139.4888  143.5554 H   0  0  0  0  0  0  0  0  0  0  0  0  # atno 7974 bound_to 7965
  156.2927  140.2631  156.2524 H   0  0  0  0  0  0  0  0  0  0  0  0  # atno 8008 bound_to 7997
  154.9869  140.0389  157.2321 H   0  0  0  0  0  0  0  0  0  0  0  0  # atno 8009 bound_to 7997
  154.7721  140.2780  155.6134 H   0  0  0  0  0  0  0  0  0  0  0  0  # atno 8010 bound_to 7997
  139.5408  144.2367  152.0892 H   0  0  0  0  0  0  0  0  0  0  0  0  # atno 10167 bound_to 10162
  156.4596  130.8207  151.2438 H   0  0  0  0  0  0  0  0  0  0  0  0  # atno 10718 bound_to 10713
  154.8742  135.3796  154.4420 H   0  0  0  0  0  0  0  0  0  0  0  0  # atno 10763 bound_to 10752
  153.5104  135.7029  153.5789 H   0  0  0  0  0  0  0  0  0  0  0  0  # atno 10764 bound_to 10752
  153.4081  135.3931  155.1998 H   0  0  0  0  0  0  0  0  0  0  0  0  # atno 10765 bound_to 10752
  140.0500  134.9260  157.1000 H   0  0  0  0  0  0  0  0  0  0  0  0  # atno 11005 bound_to 11000
  146.3299  139.8492  142.8876 LP  0  0  0  0  0  0  0  0  0  0  0  0  # atno 17320 bound_to 7965
  145.2936  141.0174  143.3649 LP  0  0  0  0  0  0  0  0  0  0  0  0  # atno 17321 bound_to 7965
  140.1846  144.4811  150.6510 LP  0  0  0  0  0  0  0  0  0  0  0  0  # atno 17342 bound_to 10162
  140.6637  143.2261  151.5793 LP  0  0  0  0  0  0  0  0  0  0  0  0  # atno 17343 bound_to 10162
  157.7498  131.0111  150.3334 LP  0  0  0  0  0  0  0  0  0  0  0  0  # atno 17370 bound_to 10713
  156.3730  130.3867  149.7160 LP  0  0  0  0  0  0  0  0  0  0  0  0  # atno 17371 bound_to 10713
  140.3932  134.2162  155.7165 LP  0  0  0  0  0  0  0  0  0  0  0  0  # atno 17394 bound_to 11000
  141.1926  133.8170  157.0834 LP  0  0  0  0  0  0  0  0  0  0  0  0  # atno 17395 bound_to 11000

$$$$
