AV-unprocessed.smi:924|AV-procd|sdf|4179|dock4
  -GOLD-   22720 2 83D 1   1.00000     0.00000
 Structure written by MMmdl.
 46 49  0  0  0  0  0  0  0  0  1 V2000
  149.7213  133.5960  157.5218 O   0  0  0  0  0  0  0  0  0  0  0  0
  148.5111  133.5672  157.2929 C   0  0  0  0  0  0  0  0  0  0  0  0
  147.9010  132.4892  156.3859 C   0  0  0  0  0  0  0  0  0  0  0  0
  147.3319  133.0331  155.1440 N   0  0  0  0  0  0  0  0  0  0  0  0
  146.0464  132.6810  154.7581 C   0  0  0  0  0  0  0  0  0  0  0  0
  145.4609  133.1243  153.6205 C   0  0  0  0  0  0  0  0  0  0  0  0
  146.1793  134.0210  152.7215 C   0  0  0  0  0  0  0  0  0  0  0  0
  145.7340  134.4783  151.6712 O   0  0  0  0  0  0  0  0  0  0  0  0
  147.4710  134.3487  153.1420 N   0  0  0  0  0  0  0  0  0  0  0  0
  148.0821  133.8918  154.3110 C   0  0  0  0  0  0  0  0  0  0  0  0
  149.2319  134.2362  154.5820 O   0  0  0  0  0  0  0  0  0  0  0  0
  147.6439  134.4471  157.8170 N   0  0  0  0  0  0  0  0  0  0  0  0
  147.9800  135.5287  158.7405 C   0  0  0  0  0  0  0  0  0  0  0  0
  147.2774  135.4023  160.1164 C   0  0  0  0  0  0  0  0  0  0  0  0
  145.7483  135.6451  159.9891 C   0  0  0  0  0  0  0  0  0  0  0  0
  145.0724  135.5594  161.3748 C   0  0  1  0  0  0  0  0  0  0  0  0
  145.3075  134.1588  161.9786 C   0  0  0  0  0  0  0  0  0  0  0  0
  146.8243  133.9205  162.1350 C   0  0  2  0  0  0  0  0  0  0  0  0
  147.4244  134.9899  163.0703 C   0  0  0  0  0  0  0  0  0  0  0  0
  147.1833  136.3868  162.4623 C   0  0  2  0  0  0  0  0  0  0  0  0
  145.6680  136.6324  162.3095 C   0  0  0  0  0  0  0  0  0  0  0  0
  147.8620  136.4702  161.0784 C   0  0  0  0  0  0  0  0  0  0  0  0
  147.5036  134.0020  160.7515 C   0  0  0  0  0  0  0  0  0  0  0  0
  148.0084  134.9640  152.5488 H   0  0  0  0  0  0  0  0  0  0  0  0
  148.6748  131.7597  156.1405 H   0  0  0  0  0  0  0  0  0  0  0  0
  147.1533  131.9316  156.9527 H   0  0  0  0  0  0  0  0  0  0  0  0
  145.4799  132.0140  155.3928 H   0  0  0  0  0  0  0  0  0  0  0  0
  144.4564  132.8127  153.3737 H   0  0  0  0  0  0  0  0  0  0  0  0
  146.6692  134.3496  157.5724 H   0  0  0  0  0  0  0  0  0  0  0  0
  149.0611  135.5981  158.8734 H   0  0  0  0  0  0  0  0  0  0  0  0
  147.6820  136.4629  158.2632 H   0  0  0  0  0  0  0  0  0  0  0  0
  145.5572  136.6221  159.5433 H   0  0  0  0  0  0  0  0  0  0  0  0
  145.2952  134.9115  159.3211 H   0  0  0  0  0  0  0  0  0  0  0  0
  144.0010  135.7305  161.2653 H   0  0  0  0  0  0  0  0  0  0  0  0
  144.8099  134.0754  162.9456 H   0  0  0  0  0  0  0  0  0  0  0  0
  144.8683  133.3926  161.3384 H   0  0  0  0  0  0  0  0  0  0  0  0
  146.9922  132.9312  162.5622 H   0  0  0  0  0  0  0  0  0  0  0  0
  146.9708  134.9243  164.0602 H   0  0  0  0  0  0  0  0  0  0  0  0
  148.4923  134.8159  163.2077 H   0  0  0  0  0  0  0  0  0  0  0  0
  147.6081  137.1454  163.1202 H   0  0  0  0  0  0  0  0  0  0  0  0
  145.4848  137.6295  161.9068 H   0  0  0  0  0  0  0  0  0  0  0  0
  145.1791  136.5991  163.2839 H   0  0  0  0  0  0  0  0  0  0  0  0
  148.9386  136.3312  161.1880 H   0  0  0  0  0  0  0  0  0  0  0  0
  147.7258  137.4693  160.6621 H   0  0  0  0  0  0  0  0  0  0  0  0
  147.0990  133.2167  160.1127 H   0  0  0  0  0  0  0  0  0  0  0  0
  148.5709  133.7984  160.8471 H   0  0  0  0  0  0  0  0  0  0  0  0
  1  2  2  0  0  0  0
  2  3  1  0  0  0  0
  2 12  1  0  0  0  0
  3  4  1  0  0  0  0
  3 25  1  0  0  0  0
  3 26  1  0  0  0  0
  4 10  1  0  0  0  0
  4  5  1  0  0  0  0
  5  6  2  0  0  0  0
  5 27  1  0  0  0  0
  6  7  1  0  0  0  0
  6 28  1  0  0  0  0
  7  8  2  0  0  0  0
  7  9  1  0  0  0  0
  9 24  1  0  0  0  0
  9 10  1  0  0  0  0
 10 11  2  0  0  0  0
 12 13  1  0  0  0  0
 12 29  1  0  0  0  0
 13 14  1  0  0  0  0
 13 30  1  0  0  0  0
 13 31  1  0  0  0  0
 14 22  1  0  0  0  0
 14 23  1  0  0  0  0
 14 15  1  0  0  0  0
 15 16  1  0  0  0  0
 15 32  1  0  0  0  0
 15 33  1  0  0  0  0
 16 21  1  0  0  0  0
 16 17  1  0  0  0  0
 16 34  1  0  0  0  0
 17 18  1  0  0  0  0
 17 35  1  0  0  0  0
 17 36  1  0  0  0  0
 18 19  1  0  0  0  0
 18 23  1  0  0  0  0
 18 37  1  0  0  0  0
 19 20  1  0  0  0  0
 19 38  1  0  0  0  0
 19 39  1  0  0  0  0
 20 21  1  0  0  0  0
 20 22  1  0  0  0  0
 20 40  1  0  0  0  0
 21 41  1  0  0  0  0
 21 42  1  0  0  0  0
 22 43  1  0  0  0  0
 22 44  1  0  0  0  0
 23 45  1  0  0  0  0
 23 46  1  0  0  0  0
M  END
> <s_m_source_file>
AV-unprocessed.smi

> <i_m_source_file_index>
924

> <i_lp_mmshare_version>
43012

> <i_f3d_flags>
0

> <s_epik_input>
Tz1jMVtuSF1jKD1PKVtjSF1bY0hdbjFbQ0gyXUMoPU8pW05IXVtDSDJdQzIzW0NIMl1bQ0BIXTRbQ0gyXVtDQEBIXShbQ0gyXTMpW0NIMl1bQ0BIXShbQ0gyXTQpW0NIMl0y

> <s_epik_cmdline>
J2VwaWtfcHl0aG9uJywgJy1waCcsICc3LjAnLCAnLXRuJywgJzgnLCAnLW1hJywgJzIwMCcsICctbWV0YWxfYmluZGluZycsICctaW1hZScsICc8aW5maWxlLm1hZT4nLCAnLW9tYWUnLCAnPG91dGZpbGUubWFlPic=

> <r_lp_tautomer_probability>
0.999537

> <r_epik_Ionization_Penalty>
0.00304541

> <r_epik_Ionization_Penalty_Charging>
0.00304539

> <r_epik_Ionization_Penalty_Neutral>
1.85865e-08

> <r_epik_State_Penalty>
0.00214042

> <r_epik_Charging_Adjusted_Penalty>
0.00518582

> <i_epik_Tot_Q>
0

> <i_epik_Tot_abs_Q>
0

> <r_epik_Metal_State_Penalty>
0.361861

> <b_epik_Metal_Only>
0

> <s_lp_Force_Field>
OPLS_2005

> <r_lp_Energy>
33.277

> <b_lp_Chiralities_Consistent>
1

> <s_lp_Variant>
AV-unprocessed.smi:924-1

> <Gold.Version>
5.8.1

> <Gold.Id.Protein>
6NUR|6NUR_protein|mol2

> <Gold.PLP.Fitness>
37.6575

> <Gold.PLP.PLP>
-32.0034

> <Gold.PLP.part.hbond>
-2.0000

> <Gold.PLP.part.metal>
0.0000

> <Gold.PLP.part.buried>
-4.5896

> <Gold.PLP.part.nonpolar>
-25.1515

> <Gold.PLP.part.repulsive>
0.3343

> <Gold.PLP.ligand.clash>
0.0000

> <Gold.PLP.ligand.torsion>
0.1775

> <Gold.PLP.Chemscore.Hbond>
2.0000

> <Gold.PLP.Chemscore.CHOScore>
0.0000

> <Gold.PLP.Chemscore.Metal>
0.0000

> <Gold.Chemscore.Hbonds>
donor molecule, donor type, donor heavy atom, donor atom, acceptor molecule, acceptor atom, score
      L1  H     9    24       P1  7948  1.00
      P1  H  6896  6907       L1     1  0.96
      L1  C     5    27       P1 10957  0.14

> <Gold.PLP.Chemscore.Internal.Correction>
0.0091

> <Gold.Rescore>
     Score         DG    S(hbond)    S(metal)    S(lipo)     H(rot)  DE(clash)    DE(int)     intcor
     15.35     -16.32       1.93        0.00      80.03       1.94       0.00       0.97       ----

> <Gold.Chemscore.Fitness>
15.3520

> <Gold.Chemscore.DG>
-16.3200

> <Gold.Chemscore.ZeroCoef>
-5.4800

> <Gold.Chemscore.Hbond>
1.9301

> <Gold.Chemscore.Metal>
0.0000

> <Gold.Chemscore.Lipo>
80.0307

> <Gold.Chemscore.Internal_Hbond>
0.0000

> <Gold.Chemscore.DEClash>
0.0000

> <Gold.Chemscore.DEInternal>
0.9680

> <Gold.Chemscore.Rot>
1.9415

> <Gold.Chemscore.Internal.Correction>
   9.000000E+99

> <Gold.Chemscore.Hbonds>
donor molecule, donor type, donor heavy atom, donor atom, acceptor molecule, acceptor atom, score
      L1  H     9    24       P1  7948  0.85
      P1  H  6896  6907       L1     1  0.91

> <Gold.Chemscore.Hbond.Weighted>
-6.4465

> <Gold.Chemscore.Metal.Weighted>
-0.0000

> <Gold.Chemscore.Lipo.Weighted>
-9.3636

> <Gold.Chemscore.Internal_Hbond.Weighted>
0.0000

> <Gold.Chemscore.DEClash.Weighted>
0.0000

> <Gold.Chemscore.DEInternal.Weighted>
0.9680

> <Gold.Chemscore.Rot.Weighted>
4.9701

> <Gold.Chemscore.Internal.Correction.Weighted>
   9.000000E+99

> <Gold.Protein.RotatedTorsions>
[ 6907 6896 6895 6894 ] final -117.59 input  -60.11 | X-H torsion
[ 7974 7965 7964 7962 ] final  140.96 input  175.53 | X-H torsion
[ 8008 7997 7996 7995 ] final   -4.43 input   59.86 | X-H torsion
[ 10167 10162 10161 10158 ] final  -50.81 input  -65.29 | X-H torsion
[ 10718 10713 10712 10709 ] final   82.52 input   66.30 | X-H torsion
[ 10763 10752 10751 10750 ] final  -80.29 input  -60.55 | X-H torsion
[ 11005 11000 10999 10996 ] final  -88.54 input  -57.11 | X-H torsion

> <Gold.Protein.ActiveResidues>
 VAL166  LYS551  ARG553  GLY616  TRP617  ASP618  TYR619  PRO620  LYS621  CYS622 
 ASP623  PHE694  ASN695  SER759  ASP760  ASP761  ALA762  ILE779  LEU786  VAL792 
 PHE793  MET794  SER795  GLU796  ALA797  LYS798  CYS799  TRP800  GLU811  SER814 

> <Gold.Protein.RotatedAtoms>
  150.8150  133.8354  159.3164 H   0  0  0  0  0  0  0  0  0  0  0  0  # atno 6907 bound_to 6896
  151.6129  135.1037  160.0094 H   0  0  0  0  0  0  0  0  0  0  0  0  # atno 6908 bound_to 6896
  152.4241  133.7125  159.6543 H   0  0  0  0  0  0  0  0  0  0  0  0  # atno 6909 bound_to 6896
  144.9139  139.5257  143.5695 H   0  0  0  0  0  0  0  0  0  0  0  0  # atno 7974 bound_to 7965
  154.6144  140.2484  155.7628 H   0  0  0  0  0  0  0  0  0  0  0  0  # atno 8008 bound_to 7997
  156.2390  140.2940  156.0340 H   0  0  0  0  0  0  0  0  0  0  0  0  # atno 8009 bound_to 7997
  155.2000  140.0394  157.2906 H   0  0  0  0  0  0  0  0  0  0  0  0  # atno 8010 bound_to 7997
  140.6619  143.2643  151.4413 H   0  0  0  0  0  0  0  0  0  0  0  0  # atno 10167 bound_to 10162
  157.6859  131.0051  150.2386 H   0  0  0  0  0  0  0  0  0  0  0  0  # atno 10718 bound_to 10713
  154.5493  135.5666  153.6908 H   0  0  0  0  0  0  0  0  0  0  0  0  # atno 10763 bound_to 10752
  152.9985  135.6247  154.2396 H   0  0  0  0  0  0  0  0  0  0  0  0  # atno 10764 bound_to 10752
  154.2330  135.2865  155.2862 H   0  0  0  0  0  0  0  0  0  0  0  0  # atno 10765 bound_to 10752
  141.1600  133.7576  156.9466 H   0  0  0  0  0  0  0  0  0  0  0  0  # atno 11005 bound_to 11000
  146.3172  139.7966  142.8974 LP  0  0  0  0  0  0  0  0  0  0  0  0  # atno 17320 bound_to 7965
  145.3408  141.0287  143.3393 LP  0  0  0  0  0  0  0  0  0  0  0  0  # atno 17321 bound_to 7965
  139.5856  144.1612  152.2024 LP  0  0  0  0  0  0  0  0  0  0  0  0  # atno 17342 bound_to 10162
  140.0951  144.5588  150.7028 LP  0  0  0  0  0  0  0  0  0  0  0  0  # atno 17343 bound_to 10162
  156.3005  130.3758  149.7755 LP  0  0  0  0  0  0  0  0  0  0  0  0  # atno 17370 bound_to 10713
  156.5387  130.8290  151.3261 LP  0  0  0  0  0  0  0  0  0  0  0  0  # atno 17371 bound_to 10713
  140.1285  134.9371  157.2304 LP  0  0  0  0  0  0  0  0  0  0  0  0  # atno 17394 bound_to 11000
  140.2982  134.3162  155.7296 LP  0  0  0  0  0  0  0  0  0  0  0  0  # atno 17395 bound_to 11000

$$$$
