AV-unprocessed.smi:942|AV-procd|sdf|4222|dock2
  -GOLD-   22720 2133D 1   1.00000     0.00000
 Structure written by MMmdl.
 43 45  0  0  0  0  0  0  0  0  2 V2000
  152.9362  139.5710  157.0072 O   0  0  0  0  0  0  0  0  0  0  0  0
  151.8584  140.1389  157.1867 C   0  0  0  0  0  0  0  0  0  0  0  0
  150.8134  140.0131  156.3530 N   0  0  0  0  0  0  0  0  0  0  0  0
  150.7866  139.1969  155.1372 C   0  0  1  0  0  0  0  0  0  0  0  0
  151.0615  137.7198  155.4929 C   0  0  0  0  0  0  0  0  0  0  0  0
  149.8144  136.9194  155.0889 C   0  0  0  0  0  0  0  0  0  0  0  0
  148.6904  137.9476  154.9800 C   0  0  0  0  0  0  0  0  0  0  0  0
  149.4090  139.1852  154.4324 C   0  0  1  0  0  0  0  0  0  0  0  0
  148.6452  140.4474  154.4765 N   0  0  0  0  0  0  0  0  0  0  0  0
  147.2779  140.5609  154.4940 C   0  0  0  0  0  0  0  0  0  0  0  0
  146.9912  141.9012  154.4861 C   0  0  0  0  0  0  0  0  0  0  0  0
  148.1933  142.5532  154.4542 N   0  3  0  0  0  0  0  0  0  0  0  0
  149.1971  141.6706  154.4418 C   0  0  0  0  0  0  0  0  0  0  0  0
  151.6634  141.0678  158.3917 C   0  0  0  0  0  0  0  0  0  0  0  0
  151.3013  142.4956  157.9289 C   0  0  0  0  0  0  0  0  0  0  0  0
  151.1190  143.4430  159.1258 C   0  0  0  0  0  0  0  0  0  0  0  0
  152.3702  143.4599  160.0180 C   0  0  0  0  0  0  0  0  0  0  0  0
  152.7424  142.0420  160.4799 C   0  0  0  0  0  0  0  0  0  0  0  0
  152.9244  141.0957  159.2818 C   0  0  0  0  0  0  0  0  0  0  0  0
  149.9663  140.5131  156.5821 H   0  0  0  0  0  0  0  0  0  0  0  0
  151.5510  139.5525  154.4439 H   0  0  0  0  0  0  0  0  0  0  0  0
  151.9444  137.3442  154.9745 H   0  0  0  0  0  0  0  0  0  0  0  0
  151.2501  137.5979  156.5608 H   0  0  0  0  0  0  0  0  0  0  0  0
  149.9787  136.4575  154.1145 H   0  0  0  0  0  0  0  0  0  0  0  0
  149.5829  136.1216  155.7952 H   0  0  0  0  0  0  0  0  0  0  0  0
  147.8774  137.6118  154.3354 H   0  0  0  0  0  0  0  0  0  0  0  0
  148.2818  138.1293  155.9740 H   0  0  0  0  0  0  0  0  0  0  0  0
  149.5939  138.9915  153.3739 H   0  0  0  0  0  0  0  0  0  0  0  0
  146.6255  139.6997  154.5051 H   0  0  0  0  0  0  0  0  0  0  0  0
  146.0466  142.4256  154.4938 H   0  0  0  0  0  0  0  0  0  0  0  0
  150.2441  141.9096  154.3979 H   0  0  0  0  0  0  0  0  0  0  0  0
  150.8348  140.6847  158.9903 H   0  0  0  0  0  0  0  0  0  0  0  0
  152.0812  142.8900  157.2752 H   0  0  0  0  0  0  0  0  0  0  0  0
  150.3845  142.4781  157.3386 H   0  0  0  0  0  0  0  0  0  0  0  0
  150.9023  144.4514  158.7721 H   0  0  0  0  0  0  0  0  0  0  0  0
  150.2551  143.1289  159.7130 H   0  0  0  0  0  0  0  0  0  0  0  0
  153.2057  143.8953  159.4681 H   0  0  0  0  0  0  0  0  0  0  0  0
  152.2017  144.1013  160.8835 H   0  0  0  0  0  0  0  0  0  0  0  0
  153.6575  142.0727  161.0720 H   0  0  0  0  0  0  0  0  0  0  0  0
  151.9622  141.6545  161.1366 H   0  0  0  0  0  0  0  0  0  0  0  0
  153.1519  140.0918  159.6429 H   0  0  0  0  0  0  0  0  0  0  0  0
  153.7903  141.4176  158.7009 H   0  0  0  0  0  0  0  0  0  0  0  0
  148.3088  143.5588  154.4333 H   0  0  0  0  0  0  0  0  0  0  0  0
  1  2  2  0  0  0  0
  2  3  1  0  0  0  0
  2 14  1  0  0  0  0
  3  4  1  0  0  0  0
  3 20  1  0  0  0  0
  4  8  1  0  0  0  0
  4  5  1  0  0  0  0
  4 21  1  0  0  0  0
  5  6  1  0  0  0  0
  5 22  1  0  0  0  0
  5 23  1  0  0  0  0
  6  7  1  0  0  0  0
  6 24  1  0  0  0  0
  6 25  1  0  0  0  0
  7  8  1  0  0  0  0
  7 26  1  0  0  0  0
  7 27  1  0  0  0  0
  8  9  1  0  0  0  0
  8 28  1  0  0  0  0
  9 13  1  0  0  0  0
  9 10  1  0  0  0  0
 10 11  2  0  0  0  0
 10 29  1  0  0  0  0
 11 12  1  0  0  0  0
 11 30  1  0  0  0  0
 12 13  2  0  0  0  0
 12 43  1  0  0  0  0
 13 31  1  0  0  0  0
 14 19  1  0  0  0  0
 14 15  1  0  0  0  0
 14 32  1  0  0  0  0
 15 16  1  0  0  0  0
 15 33  1  0  0  0  0
 15 34  1  0  0  0  0
 16 17  1  0  0  0  0
 16 35  1  0  0  0  0
 16 36  1  0  0  0  0
 17 18  1  0  0  0  0
 17 37  1  0  0  0  0
 17 38  1  0  0  0  0
 18 19  1  0  0  0  0
 18 39  1  0  0  0  0
 18 40  1  0  0  0  0
 19 41  1  0  0  0  0
 19 42  1  0  0  0  0
M  CHG  1  12   1
M  END
> <s_m_source_file>
AV-unprocessed.smi

> <i_m_source_file_index>
942

> <i_lp_mmshare_version>
43012

> <i_f3d_flags>
0

> <s_epik_input>
W0NIMl0xW0NIMl1bQ0gyXVtDSDJdW0NIMl1bQ0hdMUMoPU8pW05IXVtDQEBIXTJbQ0gyXVtDSDJdW0NIMl1bQ0BIXTJuM1tjSF1bY0hdbltjSF0z

> <s_epik_cmdline>
J2VwaWtfcHl0aG9uJywgJy1waCcsICc3LjAnLCAnLXRuJywgJzgnLCAnLW1hJywgJzIwMCcsICctbWV0YWxfYmluZGluZycsICctaW1hZScsICc8aW5maWxlLm1hZT4nLCAnLW9tYWUnLCAnPG91dGZpbGUubWFlPic=

> <r_lp_tautomer_probability>
1

> <r_epik_Ionization_Penalty>
0.185467

> <r_epik_Ionization_Penalty_Charging>
0

> <r_epik_Ionization_Penalty_Neutral>
0.185467

> <r_epik_State_Penalty>
0.175036

> <r_epik_Charging_Adjusted_Penalty>
0.175036

> <i_epik_Tot_Q>
1

> <i_epik_Tot_abs_Q>
1

> <r_epik_Metal_State_Penalty>
0.487091

> <b_epik_Metal_Only>
0

> <s_lp_Force_Field>
OPLS_2005

> <r_lp_Energy>
34.4876

> <b_lp_Chiralities_Consistent>
1

> <s_lp_Variant>
AV-unprocessed.smi:942-2

> <Gold.Version>
5.8.1

> <Gold.Id.Protein>
6NUR|6NUR_protein|mol2

> <Gold.PLP.Fitness>
42.9116

> <Gold.PLP.PLP>
-37.4223

> <Gold.PLP.part.hbond>
-2.0000

> <Gold.PLP.part.metal>
0.0000

> <Gold.PLP.part.buried>
-3.7825

> <Gold.PLP.part.nonpolar>
-32.7204

> <Gold.PLP.part.repulsive>
0.9032

> <Gold.PLP.ligand.clash>
0.0000

> <Gold.PLP.ligand.torsion>
0.7026

> <Gold.PLP.Chemscore.Hbond>
2.2800

> <Gold.PLP.Chemscore.CHOScore>
0.0000

> <Gold.PLP.Chemscore.Metal>
0.0000

> <Gold.Chemscore.Hbonds>
donor molecule, donor type, donor heavy atom, donor atom, acceptor molecule, acceptor atom, score
      L1  H    12    43       P1  8028  1.34
      P1  H  7997  8009       L1     1  1.00

> <Gold.PLP.Chemscore.Internal.Correction>
0.0546

> <Gold.Rescore>
     Score         DG    S(hbond)    S(metal)    S(lipo)     H(rot)  DE(clash)    DE(int)     intcor
     15.92     -17.33       1.52        0.00      90.19       1.48       0.02       1.39       ----

> <Gold.Chemscore.Fitness>
15.9209

> <Gold.Chemscore.DG>
-17.3342

> <Gold.Chemscore.ZeroCoef>
-5.4800

> <Gold.Chemscore.Hbond>
1.5234

> <Gold.Chemscore.Metal>
0.0000

> <Gold.Chemscore.Lipo>
90.1912

> <Gold.Chemscore.Internal_Hbond>
0.0000

> <Gold.Chemscore.DEClash>
0.0207

> <Gold.Chemscore.DEInternal>
1.3926

> <Gold.Chemscore.Rot>
1.4790

> <Gold.Chemscore.Internal.Correction>
   9.000000E+99

> <Gold.Chemscore.Hbonds>
donor molecule, donor type, donor heavy atom, donor atom, acceptor molecule, acceptor atom, score
      L1  H    12    43       P1  8028  0.66
      P1  H  7997  8009       L1     1  0.98

> <Gold.Chemscore.Hbond.Weighted>
-5.0882

> <Gold.Chemscore.Metal.Weighted>
-0.0000

> <Gold.Chemscore.Lipo.Weighted>
-10.5524

> <Gold.Chemscore.Internal_Hbond.Weighted>
0.0000

> <Gold.Chemscore.DEClash.Weighted>
0.0207

> <Gold.Chemscore.DEInternal.Weighted>
1.3926

> <Gold.Chemscore.Rot.Weighted>
3.7863

> <Gold.Chemscore.Internal.Correction.Weighted>
   9.000000E+99

> <Gold.Protein.RotatedTorsions>
[ 6907 6896 6895 6894 ] final   24.15 input  -60.11 | X-H torsion
[ 7974 7965 7964 7962 ] final -126.18 input  175.53 | X-H torsion
[ 8008 7997 7996 7995 ] final -167.44 input   59.86 | X-H torsion
[ 10167 10162 10161 10158 ] final    5.70 input  -65.29 | X-H torsion
[ 10718 10713 10712 10709 ] final -142.83 input   66.30 | X-H torsion
[ 10763 10752 10751 10750 ] final -115.44 input  -60.55 | X-H torsion
[ 11005 11000 10999 10996 ] final   20.96 input  -57.11 | X-H torsion

> <Gold.Protein.ActiveResidues>
 VAL166  LYS551  ARG553  GLY616  TRP617  ASP618  TYR619  PRO620  LYS621  CYS622 
 ASP623  PHE694  ASN695  SER759  ASP760  ASP761  ALA762  ILE779  LEU786  VAL792 
 PHE793  MET794  SER795  GLU796  ALA797  LYS798  CYS799  TRP800  GLU811  SER814 

> <Gold.Protein.RotatedAtoms>
  151.9531  135.0159  160.0542 H   0  0  0  0  0  0  0  0  0  0  0  0  # atno 6907 bound_to 6896
  152.1935  133.4785  159.5029 H   0  0  0  0  0  0  0  0  0  0  0  0  # atno 6908 bound_to 6896
  150.6940  134.1599  159.4215 H   0  0  0  0  0  0  0  0  0  0  0  0  # atno 6909 bound_to 6896
  144.9899  140.7722  143.4561 H   0  0  0  0  0  0  0  0  0  0  0  0  # atno 7974 bound_to 7965
  155.8777  140.1004  157.1507 H   0  0  0  0  0  0  0  0  0  0  0  0  # atno 8008 bound_to 7997
  154.4002  140.1335  156.4220 H   0  0  0  0  0  0  0  0  0  0  0  0  # atno 8009 bound_to 7997
  155.7679  140.3461  155.5234 H   0  0  0  0  0  0  0  0  0  0  0  0  # atno 8010 bound_to 7997
  140.6468  143.7642  150.7511 H   0  0  0  0  0  0  0  0  0  0  0  0  # atno 10167 bound_to 10162
  156.3506  130.7686  151.1838 H   0  0  0  0  0  0  0  0  0  0  0  0  # atno 10718 bound_to 10713
  154.8481  135.4381  154.1664 H   0  0  0  0  0  0  0  0  0  0  0  0  # atno 10763 bound_to 10752
  153.2788  135.6952  153.7412 H   0  0  0  0  0  0  0  0  0  0  0  0  # atno 10764 bound_to 10752
  153.6624  135.3432  155.3106 H   0  0  0  0  0  0  0  0  0  0  0  0  # atno 10765 bound_to 10752
  140.3968  134.1761  155.7663 H   0  0  0  0  0  0  0  0  0  0  0  0  # atno 11005 bound_to 11000
  145.2301  139.2119  143.5047 LP  0  0  0  0  0  0  0  0  0  0  0  0  # atno 17320 bound_to 7965
  146.3429  140.2176  142.8591 LP  0  0  0  0  0  0  0  0  0  0  0  0  # atno 17321 bound_to 7965
  140.1285  143.4547  152.2269 LP  0  0  0  0  0  0  0  0  0  0  0  0  # atno 17342 bound_to 10162
  139.5679  144.7446  151.3971 LP  0  0  0  0  0  0  0  0  0  0  0  0  # atno 17343 bound_to 10162
  157.7460  131.0428  150.4715 LP  0  0  0  0  0  0  0  0  0  0  0  0  # atno 17370 bound_to 10713
  156.4909  130.4095  149.6407 LP  0  0  0  0  0  0  0  0  0  0  0  0  # atno 17371 bound_to 10713
  141.1871  133.8288  157.1044 LP  0  0  0  0  0  0  0  0  0  0  0  0  # atno 17394 bound_to 11000
  140.0366  134.9875  157.0882 LP  0  0  0  0  0  0  0  0  0  0  0  0  # atno 17395 bound_to 11000

$$$$
