AV-unprocessed.smi:765|AV-procd|sdf|3648|dock5
  -GOLD-   22720 1 53D 1   1.00000     0.00000
 Structure written by MMmdl.
 39 40  0  0  0  0  0  0  0  0  1 V2000
  148.2413  139.6625  154.5109 C   0  0  0  0  0  0  0  0  0  0  0  0
  149.5079  139.1027  155.1742 C   0  0  1  0  0  0  0  0  0  0  0  0
  150.6712  139.0093  154.1708 C   0  0  0  0  0  0  0  0  0  0  0  0
  151.9462  138.4686  154.8328 C   0  0  0  0  0  0  0  0  0  0  0  0
  152.3377  139.3154  156.0545 C   0  0  0  0  0  0  0  0  0  0  0  0
  151.1938  139.4065  157.0945 C   0  0  1  0  0  0  0  0  0  0  0  0
  150.9059  138.0771  157.6703 C   0  0  0  0  0  0  0  0  0  0  0  0
  150.6788  137.0357  158.1208 N   0  0  0  0  0  0  0  0  0  0  0  0
  151.5527  140.3668  158.1400 N   0  0  0  0  0  0  0  0  0  0  0  0
  152.7047  140.4193  158.8305 C   0  0  0  0  0  0  0  0  0  0  0  0
  153.6237  139.6156  158.6722 O   0  0  0  0  0  0  0  0  0  0  0  0
  152.8289  141.5642  159.8486 C   0  0  1  0  0  0  0  0  0  0  0  0
  154.2304  141.6503  160.4868 C   0  0  0  0  0  0  0  0  0  0  0  0
  152.4220  142.8259  159.2405 N   0  0  0  0  0  0  0  0  0  0  0  0
  152.4604  144.0877  159.7988 C   0  0  0  0  0  0  0  0  0  0  0  0
  151.9427  144.9586  158.8834 C   0  0  0  0  0  0  0  0  0  0  0  0
  151.5987  144.1261  157.7826 C   0  0  0  0  0  0  0  0  0  0  0  0
  151.8782  142.8520  158.0014 N   0  0  0  0  0  0  0  0  0  0  0  0
  149.9252  139.9473  156.3957 C   0  0  0  0  0  0  0  0  0  0  0  0
  148.4025  140.6744  154.1374 H   0  0  0  0  0  0  0  0  0  0  0  0
  147.4104  139.6967  155.2160 H   0  0  0  0  0  0  0  0  0  0  0  0
  147.9327  139.0425  153.6686 H   0  0  0  0  0  0  0  0  0  0  0  0
  149.2750  138.0936  155.5170 H   0  0  0  0  0  0  0  0  0  0  0  0
  150.3934  138.3669  153.3344 H   0  0  0  0  0  0  0  0  0  0  0  0
  150.8733  139.9946  153.7485 H   0  0  0  0  0  0  0  0  0  0  0  0
  151.7939  137.4314  155.1335 H   0  0  0  0  0  0  0  0  0  0  0  0
  152.7632  138.4621  154.1107 H   0  0  0  0  0  0  0  0  0  0  0  0
  153.2344  138.8915  156.5078 H   0  0  0  0  0  0  0  0  0  0  0  0
  152.6115  140.3172  155.7196 H   0  0  0  0  0  0  0  0  0  0  0  0
  150.8615  141.0730  158.3466 H   0  0  0  0  0  0  0  0  0  0  0  0
  152.1236  141.3547  160.6546 H   0  0  0  0  0  0  0  0  0  0  0  0
  154.4943  140.7155  160.9824 H   0  0  0  0  0  0  0  0  0  0  0  0
  154.2661  142.4389  161.2390 H   0  0  0  0  0  0  0  0  0  0  0  0
  155.0057  141.8629  159.7496 H   0  0  0  0  0  0  0  0  0  0  0  0
  152.8485  144.2595  160.7920 H   0  0  0  0  0  0  0  0  0  0  0  0
  151.8240  146.0270  158.9860 H   0  0  0  0  0  0  0  0  0  0  0  0
  151.1533  144.4065  156.8394 H   0  0  0  0  0  0  0  0  0  0  0  0
  150.0941  140.9768  156.0745 H   0  0  0  0  0  0  0  0  0  0  0  0
  149.1017  139.9852  157.1107 H   0  0  0  0  0  0  0  0  0  0  0  0
  1  2  1  0  0  0  0
  1 20  1  0  0  0  0
  1 21  1  0  0  0  0
  1 22  1  0  0  0  0
  2 19  1  0  0  0  0
  2  3  1  0  0  0  0
  2 23  1  0  0  0  0
  3  4  1  0  0  0  0
  3 24  1  0  0  0  0
  3 25  1  0  0  0  0
  4  5  1  0  0  0  0
  4 26  1  0  0  0  0
  4 27  1  0  0  0  0
  5  6  1  0  0  0  0
  5 28  1  0  0  0  0
  5 29  1  0  0  0  0
  6  7  1  0  0  0  0
  6  9  1  0  0  0  0
  6 19  1  0  0  0  0
  7  8  3  0  0  0  0
  9 10  1  0  0  0  0
  9 30  1  0  0  0  0
 10 11  2  0  0  0  0
 10 12  1  0  0  0  0
 12 13  1  0  0  0  0
 12 14  1  0  0  0  0
 12 31  1  0  0  0  0
 13 32  1  0  0  0  0
 13 33  1  0  0  0  0
 13 34  1  0  0  0  0
 14 18  1  0  0  0  0
 14 15  1  0  0  0  0
 15 16  2  0  0  0  0
 15 35  1  0  0  0  0
 16 17  1  0  0  0  0
 16 36  1  0  0  0  0
 17 18  2  0  0  0  0
 17 37  1  0  0  0  0
 19 38  1  0  0  0  0
 19 39  1  0  0  0  0
M  END
> <s_m_source_file>
AV-unprocessed.smi

> <i_m_source_file_index>
765

> <i_lp_mmshare_version>
43012

> <i_f3d_flags>
0

> <s_epik_input>
W0NIM11bQ0BASF0oW0NIMl0xKVtDSDJdW0NIMl1bQ0gyXVtDQEBdMShDI04pW05IXUMoPU8pW0NASF0oW0NIM10pbjJbY0hdW2NIXVtjSF1uMg==

> <s_epik_cmdline>
J2VwaWtfcHl0aG9uJywgJy1waCcsICc3LjAnLCAnLXRuJywgJzgnLCAnLW1hJywgJzIwMCcsICctbWV0YWxfYmluZGluZycsICctaW1hZScsICc8aW5maWxlLm1hZT4nLCAnLW9tYWUnLCAnPG91dGZpbGUubWFlPic=

> <r_lp_tautomer_probability>
1

> <r_epik_Ionization_Penalty>
2.71142e-05

> <r_epik_Ionization_Penalty_Charging>
0

> <r_epik_Ionization_Penalty_Neutral>
2.71142e-05

> <r_epik_State_Penalty>
-0

> <r_epik_Charging_Adjusted_Penalty>
0

> <i_epik_Tot_Q>
0

> <i_epik_Tot_abs_Q>
0

> <r_epik_Metal_State_Penalty>
-0

> <b_epik_Metal_Only>
0

> <s_lp_Force_Field>
OPLS_2005

> <r_lp_Energy>
11.5189

> <b_lp_Chiralities_Consistent>
1

> <s_lp_Variant>
AV-unprocessed.smi:765-6

> <Gold.Version>
5.8.1

> <Gold.Id.Protein>
6NUR|6NUR_protein|mol2

> <Gold.PLP.Fitness>
43.9206

> <Gold.PLP.PLP>
-38.8892

> <Gold.PLP.part.hbond>
-1.0000

> <Gold.PLP.part.metal>
0.0000

> <Gold.PLP.part.buried>
-2.6916

> <Gold.PLP.part.nonpolar>
-34.6234

> <Gold.PLP.part.repulsive>
0.1338

> <Gold.PLP.ligand.clash>
0.0000

> <Gold.PLP.ligand.torsion>
0.5347

> <Gold.PLP.Chemscore.Hbond>
1.0000

> <Gold.PLP.Chemscore.CHOScore>
1.0000

> <Gold.PLP.Chemscore.Metal>
0.0000

> <Gold.Chemscore.Hbonds>
donor molecule, donor type, donor heavy atom, donor atom, acceptor molecule, acceptor atom, score
      P1  H  7997  8009       L1    11  1.00
      L1  C    17    37       P1  8028  0.97

> <Gold.PLP.Chemscore.Internal.Correction>
0.1008

> <Gold.Rescore>
     Score         DG    S(hbond)    S(metal)    S(lipo)     H(rot)  DE(clash)    DE(int)     intcor
     13.22     -17.07       0.97        0.00     102.35       1.42       0.31       3.54       ----

> <Gold.Chemscore.Fitness>
13.2213

> <Gold.Chemscore.DG>
-17.0710

> <Gold.Chemscore.ZeroCoef>
-5.4800

> <Gold.Chemscore.Hbond>
0.9722

> <Gold.Chemscore.Metal>
0.0000

> <Gold.Chemscore.Lipo>
102.3486

> <Gold.Chemscore.Internal_Hbond>
0.0000

> <Gold.Chemscore.DEClash>
0.3064

> <Gold.Chemscore.DEInternal>
3.5433

> <Gold.Chemscore.Rot>
1.4183

> <Gold.Chemscore.Internal.Correction>
   9.000000E+99

> <Gold.Chemscore.Hbonds>
donor molecule, donor type, donor heavy atom, donor atom, acceptor molecule, acceptor atom, score
      P1  H  7997  8009       L1    11  0.78

> <Gold.Chemscore.Hbond.Weighted>
-3.2471

> <Gold.Chemscore.Metal.Weighted>
-0.0000

> <Gold.Chemscore.Lipo.Weighted>
-11.9748

> <Gold.Chemscore.Internal_Hbond.Weighted>
0.0000

> <Gold.Chemscore.DEClash.Weighted>
0.3064

> <Gold.Chemscore.DEInternal.Weighted>
3.5433

> <Gold.Chemscore.Rot.Weighted>
3.6309

> <Gold.Chemscore.Internal.Correction.Weighted>
   9.000000E+99

> <Gold.Protein.RotatedTorsions>
[ 6907 6896 6895 6894 ] final   70.10 input  -60.11 | X-H torsion
[ 7974 7965 7964 7962 ] final -149.72 input  175.53 | X-H torsion
[ 8008 7997 7996 7995 ] final  149.86 input   59.86 | X-H torsion
[ 10167 10162 10161 10158 ] final  156.95 input  -65.29 | X-H torsion
[ 10718 10713 10712 10709 ] final   53.50 input   66.30 | X-H torsion
[ 10763 10752 10751 10750 ] final  144.04 input  -60.55 | X-H torsion
[ 11005 11000 10999 10996 ] final -160.07 input  -57.11 | X-H torsion

> <Gold.Protein.ActiveResidues>
 VAL166  LYS551  ARG553  GLY616  TRP617  ASP618  TYR619  PRO620  LYS621  CYS622 
 ASP623  PHE694  ASN695  SER759  ASP760  ASP761  ALA762  ILE779  LEU786  VAL792 
 PHE793  MET794  SER795  GLU796  ALA797  LYS798  CYS799  TRP800  GLU811  SER814 

> <Gold.Protein.RotatedAtoms>
  152.4728  134.4917  159.9697 H   0  0  0  0  0  0  0  0  0  0  0  0  # atno 6907 bound_to 6896
  151.4940  133.3512  159.2866 H   0  0  0  0  0  0  0  0  0  0  0  0  # atno 6908 bound_to 6896
  150.8749  134.8157  159.7243 H   0  0  0  0  0  0  0  0  0  0  0  0  # atno 6909 bound_to 6896
  144.7950  140.5027  143.5746 H   0  0  0  0  0  0  0  0  0  0  0  0  # atno 7974 bound_to 7965
  156.2738  140.2090  156.5925 H   0  0  0  0  0  0  0  0  0  0  0  0  # atno 8008 bound_to 7997
  154.6971  140.0524  157.0444 H   0  0  0  0  0  0  0  0  0  0  0  0  # atno 8009 bound_to 7997
  155.0786  140.3184  155.4611 H   0  0  0  0  0  0  0  0  0  0  0  0  # atno 8010 bound_to 7997
  139.4822  144.4962  151.8236 H   0  0  0  0  0  0  0  0  0  0  0  0  # atno 10167 bound_to 10162
  157.5172  130.8540  149.8511 H   0  0  0  0  0  0  0  0  0  0  0  0  # atno 10718 bound_to 10713
  153.9822  135.2940  155.3419 H   0  0  0  0  0  0  0  0  0  0  0  0  # atno 10763 bound_to 10752
  154.7262  135.5088  153.8893 H   0  0  0  0  0  0  0  0  0  0  0  0  # atno 10764 bound_to 10752
  153.0849  135.6690  154.0084 H   0  0  0  0  0  0  0  0  0  0  0  0  # atno 10765 bound_to 10752
  140.6355  134.4606  157.5231 H   0  0  0  0  0  0  0  0  0  0  0  0  # atno 11005 bound_to 11000
  145.5696  139.1483  143.3296 LP  0  0  0  0  0  0  0  0  0  0  0  0  # atno 17320 bound_to 7965
  146.2215  140.5830  142.9015 LP  0  0  0  0  0  0  0  0  0  0  0  0  # atno 17321 bound_to 7965
  140.4451  144.1933  150.5893 LP  0  0  0  0  0  0  0  0  0  0  0  0  # atno 17342 bound_to 10162
  140.4643  143.2437  151.9177 LP  0  0  0  0  0  0  0  0  0  0  0  0  # atno 17343 bound_to 10162
  156.0328  130.3759  150.1640 LP  0  0  0  0  0  0  0  0  0  0  0  0  # atno 17370 bound_to 10713
  156.9828  130.9869  151.3433 LP  0  0  0  0  0  0  0  0  0  0  0  0  # atno 17371 bound_to 10713
  139.9100  134.8366  156.1565 LP  0  0  0  0  0  0  0  0  0  0  0  0  # atno 17394 bound_to 11000
  141.0644  133.6826  156.2016 LP  0  0  0  0  0  0  0  0  0  0  0  0  # atno 17395 bound_to 11000

$$$$
