AV-unprocessed.smi:1545|AV-procd|sdf|6217|dock2
  -GOLD-   22720 6393D 1   1.00000     0.00000
 Structure written by MMmdl.
 41 43  0  0  0  0  0  0  0  0  1 V2000
  151.5277  136.7187  154.0661 O   0  0  0  0  0  0  0  0  0  0  0  0
  151.9061  138.0773  154.1155 C   0  0  0  0  0  0  0  0  0  0  0  0
  152.3656  138.4525  155.5321 C   0  0  0  0  0  0  0  0  0  0  0  0
  151.7315  139.6686  156.0073 N   0  0  0  0  0  0  0  0  0  0  0  0
  151.9590  140.4644  157.1244 C   0  0  0  0  0  0  0  0  0  0  0  0
  152.8923  140.2151  158.0408 N   0  0  0  0  0  0  0  0  0  0  0  0
  152.7183  141.2601  158.9286 C   0  0  0  0  0  0  0  0  0  0  0  0
  153.4012  141.5691  160.1267 C   0  0  0  0  0  0  0  0  0  0  0  0
  153.0404  142.7041  160.8821 C   0  0  0  0  0  0  0  0  0  0  0  0
  151.9937  143.5453  160.4518 C   0  0  0  0  0  0  0  0  0  0  0  0
  151.3009  143.2575  159.2601 C   0  0  0  0  0  0  0  0  0  0  0  0
  151.6650  142.1240  158.5086 C   0  0  0  0  0  0  0  0  0  0  0  0
  151.1981  141.5667  157.3217 N   0  0  0  0  0  0  0  0  0  0  0  0
  150.1139  142.0715  156.4893 C   0  0  0  0  0  0  0  0  0  0  0  0
  148.7871  141.3247  156.7317 C   0  0  1  0  0  0  0  0  0  0  0  0
  148.4829  141.3222  158.1132 O   0  0  0  0  0  0  0  0  0  0  0  0
  147.6594  141.9142  155.8997 C   0  0  0  0  0  0  0  0  0  0  0  0
  147.7381  141.9263  154.4893 C   0  0  0  0  0  0  0  0  0  0  0  0
  146.6871  142.4688  153.7245 C   0  0  0  0  0  0  0  0  0  0  0  0
  145.5517  143.0012  154.3649 C   0  0  0  0  0  0  0  0  0  0  0  0
  145.4662  142.9883  155.7703 C   0  0  0  0  0  0  0  0  0  0  0  0
  144.3730  143.4968  156.3868 F   0  0  0  0  0  0  0  0  0  0  0  0
  146.5165  142.4451  156.5357 C   0  0  0  0  0  0  0  0  0  0  0  0
  151.3041  136.5003  153.1744 H   0  0  0  0  0  0  0  0  0  0  0  0
  152.7336  138.2084  153.4181 H   0  0  0  0  0  0  0  0  0  0  0  0
  151.0922  138.7159  153.7702 H   0  0  0  0  0  0  0  0  0  0  0  0
  152.1975  137.6347  156.2338 H   0  0  0  0  0  0  0  0  0  0  0  0
  153.4396  138.6391  155.5216 H   0  0  0  0  0  0  0  0  0  0  0  0
  150.9532  139.9645  155.4369 H   0  0  0  0  0  0  0  0  0  0  0  0
  154.2030  140.9305  160.4662 H   0  0  0  0  0  0  0  0  0  0  0  0
  153.5683  142.9296  161.7972 H   0  0  0  0  0  0  0  0  0  0  0  0
  151.7222  144.4110  161.0380 H   0  0  0  0  0  0  0  0  0  0  0  0
  150.4963  143.8978  158.9302 H   0  0  0  0  0  0  0  0  0  0  0  0
  149.9928  143.1380  156.6828 H   0  0  0  0  0  0  0  0  0  0  0  0
  150.4108  141.9866  155.4432 H   0  0  0  0  0  0  0  0  0  0  0  0
  148.9142  140.2810  156.4416 H   0  0  0  0  0  0  0  0  0  0  0  0
  148.6296  140.4519  158.4509 H   0  0  0  0  0  0  0  0  0  0  0  0
  148.6043  141.5171  153.9900 H   0  0  0  0  0  0  0  0  0  0  0  0
  146.7518  142.4758  152.6462 H   0  0  0  0  0  0  0  0  0  0  0  0
  144.7459  143.4178  153.7786 H   0  0  0  0  0  0  0  0  0  0  0  0
  146.4401  142.4373  157.6130 H   0  0  0  0  0  0  0  0  0  0  0  0
  1  2  1  0  0  0  0
  1 24  1  0  0  0  0
  2  3  1  0  0  0  0
  2 25  1  0  0  0  0
  2 26  1  0  0  0  0
  3  4  1  0  0  0  0
  3 27  1  0  0  0  0
  3 28  1  0  0  0  0
  4  5  1  0  0  0  0
  4 29  1  0  0  0  0
  5 13  1  0  0  0  0
  5  6  2  0  0  0  0
  6  7  1  0  0  0  0
  7 12  2  0  0  0  0
  7  8  1  0  0  0  0
  8  9  2  0  0  0  0
  8 30  1  0  0  0  0
  9 10  1  0  0  0  0
  9 31  1  0  0  0  0
 10 11  2  0  0  0  0
 10 32  1  0  0  0  0
 11 12  1  0  0  0  0
 11 33  1  0  0  0  0
 12 13  1  0  0  0  0
 13 14  1  0  0  0  0
 14 15  1  0  0  0  0
 14 34  1  0  0  0  0
 14 35  1  0  0  0  0
 15 16  1  0  0  0  0
 15 17  1  0  0  0  0
 15 36  1  0  0  0  0
 16 37  1  0  0  0  0
 17 23  1  0  0  0  0
 17 18  2  0  0  0  0
 18 19  1  0  0  0  0
 18 38  1  0  0  0  0
 19 20  2  0  0  0  0
 19 39  1  0  0  0  0
 20 21  1  0  0  0  0
 20 40  1  0  0  0  0
 21 22  1  0  0  0  0
 21 23  2  0  0  0  0
 23 41  1  0  0  0  0
M  END
> <s_m_source_file>
AV-unprocessed.smi

> <i_m_source_file_index>
1545

> <i_lp_mmshare_version>
43012

> <i_f3d_flags>
0

> <s_epik_input>
W09IXVtDSDJdW0NIMl1bTkhdYyhuMSluKGMoYzEyKVtjSF1bY0hdW2NIXVtjSF0yKVtDSDJdW0NASF0oW09IXSljM1tjSF1bY0hdW2NIXWMoRilbY0hdMw==

> <s_epik_cmdline>
J2VwaWtfcHl0aG9uJywgJy1waCcsICc3LjAnLCAnLXRuJywgJzgnLCAnLW1hJywgJzIwMCcsICctbWV0YWxfYmluZGluZycsICctaW1hZScsICc8aW5maWxlLm1hZT4nLCAnLW9tYWUnLCAnPG91dGZpbGUubWFlPic=

> <r_epik_Ionization_Penalty>
1.30972

> <r_epik_Ionization_Penalty_Charging>
0

> <r_epik_Ionization_Penalty_Neutral>
1.30972

> <r_epik_State_Penalty>
1.38438

> <r_epik_Charging_Adjusted_Penalty>
1.38438

> <i_epik_Tot_Q>
0

> <i_epik_Tot_abs_Q>
0

> <r_epik_Metal_State_Penalty>
0.00551145

> <b_epik_Metal_Only>
0

> <s_lp_Force_Field>
OPLS_2005

> <r_lp_Energy>
10.2352

> <b_lp_Chiralities_Consistent>
1

> <s_lp_Variant>
AV-unprocessed.smi:1545-4

> <Gold.Version>
5.8.1

> <Gold.Id.Protein>
6NUR|6NUR_protein|mol2

> <Gold.PLP.Fitness>
54.2139

> <Gold.PLP.PLP>
-46.5242

> <Gold.PLP.part.hbond>
-3.5876

> <Gold.PLP.part.metal>
0.0000

> <Gold.PLP.part.buried>
-4.9127

> <Gold.PLP.part.nonpolar>
-37.9369

> <Gold.PLP.part.repulsive>
0.1293

> <Gold.PLP.ligand.clash>
0.0000

> <Gold.PLP.ligand.torsion>
0.7055

> <Gold.PLP.Chemscore.Hbond>
3.0000

> <Gold.PLP.Chemscore.CHOScore>
0.0000

> <Gold.PLP.Chemscore.Metal>
0.0000

> <Gold.Chemscore.Hbonds>
donor molecule, donor type, donor heavy atom, donor atom, acceptor molecule, acceptor atom, score
      L1  H     1    24       P1  7949  1.00
      P1  H  7997  8008       L1     6  0.98
      P1  H 10752 10764       L1     1  1.00

> <Gold.PLP.Chemscore.Internal.Correction>
0.1008

> <Gold.Rescore>
     Score         DG    S(hbond)    S(metal)    S(lipo)     H(rot)  DE(clash)    DE(int)     intcor
     16.69     -17.84       2.03        0.00     115.14       3.08       0.35       0.80       ----

> <Gold.Chemscore.Fitness>
16.6903

> <Gold.Chemscore.DG>
-17.8379

> <Gold.Chemscore.ZeroCoef>
-5.4800

> <Gold.Chemscore.Hbond>
2.0282

> <Gold.Chemscore.Metal>
0.0000

> <Gold.Chemscore.Lipo>
115.1409

> <Gold.Chemscore.Internal_Hbond>
0.0000

> <Gold.Chemscore.DEClash>
0.3480

> <Gold.Chemscore.DEInternal>
0.7996

> <Gold.Chemscore.Rot>
3.0812

> <Gold.Chemscore.Internal.Correction>
   9.000000E+99

> <Gold.Chemscore.Hbonds>
donor molecule, donor type, donor heavy atom, donor atom, acceptor molecule, acceptor atom, score
      L1  H     1    24       P1  7949  0.70
      P1  H  7997  8008       L1     6  0.27
      P1  H 10752 10764       L1     1  0.41

> <Gold.Chemscore.Hbond.Weighted>
-6.7742

> <Gold.Chemscore.Metal.Weighted>
-0.0000

> <Gold.Chemscore.Lipo.Weighted>
-13.4715

> <Gold.Chemscore.Internal_Hbond.Weighted>
0.0000

> <Gold.Chemscore.DEClash.Weighted>
0.3480

> <Gold.Chemscore.DEInternal.Weighted>
0.7996

> <Gold.Chemscore.Rot.Weighted>
7.8878

> <Gold.Chemscore.Internal.Correction.Weighted>
   9.000000E+99

> <Gold.Protein.RotatedTorsions>
[ 6907 6896 6895 6894 ] final   86.13 input  -60.11 | X-H torsion
[ 7974 7965 7964 7962 ] final   54.35 input  175.53 | X-H torsion
[ 8008 7997 7996 7995 ] final  -77.09 input   59.86 | X-H torsion
[ 10167 10162 10161 10158 ] final -106.35 input  -65.29 | X-H torsion
[ 10718 10713 10712 10709 ] final   30.28 input   66.30 | X-H torsion
[ 10763 10752 10751 10750 ] final  -61.65 input  -60.55 | X-H torsion
[ 11005 11000 10999 10996 ] final   89.99 input  -57.11 | X-H torsion

> <Gold.Protein.ActiveResidues>
 VAL166  LYS551  ARG553  GLY616  TRP617  ASP618  TYR619  PRO620  LYS621  CYS622 
 ASP623  PHE694  ASN695  SER759  ASP760  ASP761  ALA762  ILE779  LEU786  VAL792 
 PHE793  MET794  SER795  GLU796  ALA797  LYS798  CYS799  TRP800  GLU811  SER814 

> <Gold.Protein.RotatedAtoms>
  152.5388  134.2478  159.8886 H   0  0  0  0  0  0  0  0  0  0  0  0  # atno 6907 bound_to 6896
  151.2443  133.4376  159.2616 H   0  0  0  0  0  0  0  0  0  0  0  0  # atno 6908 bound_to 6896
  151.0598  134.9743  159.8311 H   0  0  0  0  0  0  0  0  0  0  0  0  # atno 6909 bound_to 6896
  145.9617  139.4066  143.0244 H   0  0  0  0  0  0  0  0  0  0  0  0  # atno 7974 bound_to 7965
  154.5564  140.0716  156.8751 H   0  0  0  0  0  0  0  0  0  0  0  0  # atno 8008 bound_to 7997
  155.2894  140.3377  155.4235 H   0  0  0  0  0  0  0  0  0  0  0  0  # atno 8009 bound_to 7997
  156.2006  140.1720  156.7893 H   0  0  0  0  0  0  0  0  0  0  0  0  # atno 8010 bound_to 7997
  140.1887  143.3909  152.1223 H   0  0  0  0  0  0  0  0  0  0  0  0  # atno 10167 bound_to 10162
  157.2576  130.7145  149.6437 H   0  0  0  0  0  0  0  0  0  0  0  0  # atno 10718 bound_to 10713
  154.2878  135.6259  153.5373 H   0  0  0  0  0  0  0  0  0  0  0  0  # atno 10763 bound_to 10752
  152.9856  135.5648  154.5423 H   0  0  0  0  0  0  0  0  0  0  0  0  # atno 10764 bound_to 10752
  154.5028  135.2873  155.1383 H   0  0  0  0  0  0  0  0  0  0  0  0  # atno 10765 bound_to 10752
  139.8864  134.8586  156.3221 H   0  0  0  0  0  0  0  0  0  0  0  0  # atno 11005 bound_to 11000
  145.8030  140.9762  143.0989 LP  0  0  0  0  0  0  0  0  0  0  0  0  # atno 17320 bound_to 7965
  144.6816  139.9825  143.7483 LP  0  0  0  0  0  0  0  0  0  0  0  0  # atno 17321 bound_to 7965
  139.5265  144.7108  151.5211 LP  0  0  0  0  0  0  0  0  0  0  0  0  # atno 17342 bound_to 10162
  140.6470  143.8774  150.6747 LP  0  0  0  0  0  0  0  0  0  0  0  0  # atno 17343 bound_to 10162
  155.9664  130.4408  150.5313 LP  0  0  0  0  0  0  0  0  0  0  0  0  # atno 17370 bound_to 10713
  157.3211  131.0682  151.1931 LP  0  0  0  0  0  0  0  0  0  0  0  0  # atno 17371 bound_to 10713
  140.9779  133.7285  156.0629 LP  0  0  0  0  0  0  0  0  0  0  0  0  # atno 17394 bound_to 11000
  140.7787  134.3750  157.5492 LP  0  0  0  0  0  0  0  0  0  0  0  0  # atno 17395 bound_to 11000

$$$$
