AV-unprocessed.smi:2143|AV-procd|sdf|8729|dock5
  -GOLD-   2272011493D 1   1.00000     0.00000
 Structure written by MMmdl.
 44 45  0  0  0  0  0  0  0  0  1 V2000
  152.0393  143.3380  162.2204 C   0  0  0  0  0  0  0  0  0  0  0  0
  152.0174  143.5248  160.6926 C   0  0  1  0  0  0  0  0  0  0  0  0
  151.9226  145.0267  160.3531 C   0  0  0  0  0  0  0  0  0  0  0  0
  151.8834  145.2770  158.8399 C   0  0  0  0  0  0  0  0  0  0  0  0
  153.1043  144.6532  158.1496 C   0  0  0  0  0  0  0  0  0  0  0  0
  153.2294  143.1482  158.4587 C   0  0  2  0  0  0  0  0  0  0  0  0
  152.1653  142.3926  157.7961 N   0  0  0  0  0  0  0  0  0  0  0  0
  152.2847  141.1586  157.2845 C   0  0  0  0  0  0  0  0  0  0  0  0
  153.3373  140.5195  157.2948 O   0  0  0  0  0  0  0  0  0  0  0  0
  151.0219  140.5711  156.6419 C   0  0  0  0  0  0  0  0  0  0  0  0
  150.5545  139.3569  157.3219 N   0  0  0  0  0  0  0  0  0  0  0  0
  151.2763  138.8422  158.3831 C   0  0  0  0  0  0  0  0  0  0  0  0
  150.9049  137.7411  159.0721 C   0  0  0  0  0  0  0  0  0  0  0  0
  149.6909  137.0131  158.7233 C   0  0  0  0  0  0  0  0  0  0  0  0
  149.3094  136.0150  159.3356 O   0  0  0  0  0  0  0  0  0  0  0  0
  148.9775  137.5545  157.6265 N   0  0  0  0  0  0  0  0  0  0  0  0
  147.7485  136.9143  157.2061 C   0  0  0  0  0  0  0  0  0  0  0  0
  149.3638  138.7149  156.9199 C   0  0  0  0  0  0  0  0  0  0  0  0
  148.6907  139.1634  155.9880 O   0  0  0  0  0  0  0  0  0  0  0  0
  153.2414  142.8775  159.9857 C   0  0  2  0  0  0  0  0  0  0  0  0
  153.3854  141.3707  160.2833 C   0  0  0  0  0  0  0  0  0  0  0  0
  152.9571  143.7346  162.6557 H   0  0  0  0  0  0  0  0  0  0  0  0
  151.9599  142.2882  162.5014 H   0  0  0  0  0  0  0  0  0  0  0  0
  151.2013  143.8545  162.6890 H   0  0  0  0  0  0  0  0  0  0  0  0
  151.1122  143.0430  160.3205 H   0  0  0  0  0  0  0  0  0  0  0  0
  151.0323  145.4572  160.8127 H   0  0  0  0  0  0  0  0  0  0  0  0
  152.7746  145.5550  160.7833 H   0  0  0  0  0  0  0  0  0  0  0  0
  150.9658  144.8618  158.4213 H   0  0  0  0  0  0  0  0  0  0  0  0
  151.8542  146.3489  158.6417 H   0  0  0  0  0  0  0  0  0  0  0  0
  153.0514  144.8191  157.0729 H   0  0  0  0  0  0  0  0  0  0  0  0
  154.0061  145.1643  158.4889 H   0  0  0  0  0  0  0  0  0  0  0  0
  154.1868  142.8058  158.0609 H   0  0  0  0  0  0  0  0  0  0  0  0
  151.2636  142.8424  157.7357 H   0  0  0  0  0  0  0  0  0  0  0  0
  150.2271  141.3194  156.6236 H   0  0  0  0  0  0  0  0  0  0  0  0
  151.2435  140.3520  155.5965 H   0  0  0  0  0  0  0  0  0  0  0  0
  152.1819  139.3489  158.6838 H   0  0  0  0  0  0  0  0  0  0  0  0
  151.5131  137.3954  159.8952 H   0  0  0  0  0  0  0  0  0  0  0  0
  147.7651  136.8302  156.1179 H   0  0  0  0  0  0  0  0  0  0  0  0
  146.9282  137.5488  157.5448 H   0  0  0  0  0  0  0  0  0  0  0  0
  147.6662  135.9132  157.6290 H   0  0  0  0  0  0  0  0  0  0  0  0
  154.1364  143.3604  160.3818 H   0  0  0  0  0  0  0  0  0  0  0  0
  152.4754  140.8219  160.0390 H   0  0  0  0  0  0  0  0  0  0  0  0
  153.6117  141.1883  161.3336 H   0  0  0  0  0  0  0  0  0  0  0  0
  154.2002  140.9348  159.7044 H   0  0  0  0  0  0  0  0  0  0  0  0
  1  2  1  0  0  0  0
  1 22  1  0  0  0  0
  1 23  1  0  0  0  0
  1 24  1  0  0  0  0
  2 20  1  0  0  0  0
  2  3  1  0  0  0  0
  2 25  1  0  0  0  0
  3  4  1  0  0  0  0
  3 26  1  0  0  0  0
  3 27  1  0  0  0  0
  4  5  1  0  0  0  0
  4 28  1  0  0  0  0
  4 29  1  0  0  0  0
  5  6  1  0  0  0  0
  5 30  1  0  0  0  0
  5 31  1  0  0  0  0
  6  7  1  0  0  0  0
  6 20  1  0  0  0  0
  6 32  1  0  0  0  0
  7  8  1  0  0  0  0
  7 33  1  0  0  0  0
  8  9  2  0  0  0  0
  8 10  1  0  0  0  0
 10 11  1  0  0  0  0
 10 34  1  0  0  0  0
 10 35  1  0  0  0  0
 11 18  1  0  0  0  0
 11 12  1  0  0  0  0
 12 13  2  0  0  0  0
 12 36  1  0  0  0  0
 13 14  1  0  0  0  0
 13 37  1  0  0  0  0
 14 15  2  0  0  0  0
 14 16  1  0  0  0  0
 16 17  1  0  0  0  0
 16 18  1  0  0  0  0
 17 38  1  0  0  0  0
 17 39  1  0  0  0  0
 17 40  1  0  0  0  0
 18 19  2  0  0  0  0
 20 21  1  0  0  0  0
 20 41  1  0  0  0  0
 21 42  1  0  0  0  0
 21 43  1  0  0  0  0
 21 44  1  0  0  0  0
M  END
> <s_m_source_file>
AV-unprocessed.smi

> <i_m_source_file_index>
2143

> <i_lp_mmshare_version>
43012

> <i_f3d_flags>
0

> <s_epik_input>
W0NIM11bQ0BASF0xW0NIMl1bQ0gyXVtDSDJdW0NASF0oW0NASF0xW0NIM10pW05IXUMoPU8pW0NIMl1uMltjSF1bY0hdYyg9TyluKFtDSDNdKWMyPU8=

> <s_epik_cmdline>
J2VwaWtfcHl0aG9uJywgJy1waCcsICc3LjAnLCAnLXRuJywgJzgnLCAnLW1hJywgJzIwMCcsICctbWV0YWxfYmluZGluZycsICctaW1hZScsICc8aW5maWxlLm1hZT4nLCAnLW9tYWUnLCAnPG91dGZpbGUubWFlPic=

> <r_lp_tautomer_probability>
1

> <r_epik_Ionization_Penalty>
3.18445e-08

> <r_epik_Ionization_Penalty_Charging>
1.27977e-08

> <r_epik_Ionization_Penalty_Neutral>
1.90469e-08

> <r_epik_State_Penalty>
-0

> <r_epik_Charging_Adjusted_Penalty>
1.27977e-08

> <i_epik_Tot_Q>
0

> <i_epik_Tot_abs_Q>
0

> <r_epik_Metal_State_Penalty>
-0

> <b_epik_Metal_Only>
0

> <s_lp_Force_Field>
OPLS_2005

> <r_lp_Energy>
18.9337

> <b_lp_Chiralities_Consistent>
1

> <s_lp_Variant>
AV-unprocessed.smi:2143-8

> <Gold.Version>
5.8.1

> <Gold.Id.Protein>
6NUR|6NUR_protein|mol2

> <Gold.PLP.Fitness>
47.2388

> <Gold.PLP.PLP>
-42.3622

> <Gold.PLP.part.hbond>
-2.0000

> <Gold.PLP.part.metal>
0.0000

> <Gold.PLP.part.buried>
-4.4191

> <Gold.PLP.part.nonpolar>
-35.1243

> <Gold.PLP.part.repulsive>
0.0589

> <Gold.PLP.ligand.clash>
0.0000

> <Gold.PLP.ligand.torsion>
0.3799

> <Gold.PLP.Chemscore.Hbond>
1.8744

> <Gold.PLP.Chemscore.CHOScore>
0.0000

> <Gold.PLP.Chemscore.Metal>
0.0000

> <Gold.Chemscore.Hbonds>
donor molecule, donor type, donor heavy atom, donor atom, acceptor molecule, acceptor atom, score
      P1  H  6896  6908       L1    15  1.00
      P1  H  7997  8009       L1     9  0.27

> <Gold.PLP.Chemscore.Internal.Correction>
0.0133

> <Gold.Rescore>
     Score         DG    S(hbond)    S(metal)    S(lipo)     H(rot)  DE(clash)    DE(int)     intcor
     18.56     -20.64       1.80        0.00     111.38       1.51       0.58       1.49       ----

> <Gold.Chemscore.Fitness>
18.5645

> <Gold.Chemscore.DG>
-20.6400

> <Gold.Chemscore.ZeroCoef>
-5.4800

> <Gold.Chemscore.Hbond>
1.7972

> <Gold.Chemscore.Metal>
0.0000

> <Gold.Chemscore.Lipo>
111.3751

> <Gold.Chemscore.Internal_Hbond>
0.0000

> <Gold.Chemscore.DEClash>
0.5821

> <Gold.Chemscore.DEInternal>
1.4934

> <Gold.Chemscore.Rot>
1.5131

> <Gold.Chemscore.Internal.Correction>
   9.000000E+99

> <Gold.Chemscore.Hbonds>
donor molecule, donor type, donor heavy atom, donor atom, acceptor molecule, acceptor atom, score
      P1  H  6896  6908       L1    15  0.87
      P1  H  7997  8009       L1     9  0.26

> <Gold.Chemscore.Hbond.Weighted>
-6.0025

> <Gold.Chemscore.Metal.Weighted>
-0.0000

> <Gold.Chemscore.Lipo.Weighted>
-13.0309

> <Gold.Chemscore.Internal_Hbond.Weighted>
0.0000

> <Gold.Chemscore.DEClash.Weighted>
0.5821

> <Gold.Chemscore.DEInternal.Weighted>
1.4934

> <Gold.Chemscore.Rot.Weighted>
3.8734

> <Gold.Chemscore.Internal.Correction.Weighted>
   9.000000E+99

> <Gold.Protein.RotatedTorsions>
[ 6907 6896 6895 6894 ] final  175.07 input  -60.11 | X-H torsion
[ 7974 7965 7964 7962 ] final   43.08 input  175.53 | X-H torsion
[ 8008 7997 7996 7995 ] final -178.19 input   59.86 | X-H torsion
[ 10167 10162 10161 10158 ] final  -79.80 input  -65.29 | X-H torsion
[ 10718 10713 10712 10709 ] final    0.01 input   66.30 | X-H torsion
[ 10763 10752 10751 10750 ] final  104.37 input  -60.55 | X-H torsion
[ 11005 11000 10999 10996 ] final   80.29 input  -57.11 | X-H torsion

> <Gold.Protein.ActiveResidues>
 VAL166  LYS551  ARG553  GLY616  TRP617  ASP618  TYR619  PRO620  LYS621  CYS622 
 ASP623  PHE694  ASN695  SER759  ASP760  ASP761  ALA762  ILE779  LEU786  VAL792 
 PHE793  MET794  SER795  GLU796  ALA797  LYS798  CYS799  TRP800  GLU811  SER814 

> <Gold.Protein.RotatedAtoms>
  151.7422  133.3322  159.3368 H   0  0  0  0  0  0  0  0  0  0  0  0  # atno 6907 bound_to 6896
  150.7569  134.6268  159.6174 H   0  0  0  0  0  0  0  0  0  0  0  0  # atno 6908 bound_to 6896
  152.3523  134.6990  160.0284 H   0  0  0  0  0  0  0  0  0  0  0  0  # atno 6909 bound_to 6896
  146.0686  139.5227  142.9612 H   0  0  0  0  0  0  0  0  0  0  0  0  # atno 7974 bound_to 7965
  156.0159  140.1250  157.0407 H   0  0  0  0  0  0  0  0  0  0  0  0  # atno 8008 bound_to 7997
  154.4293  140.1078  156.5964 H   0  0  0  0  0  0  0  0  0  0  0  0  # atno 8009 bound_to 7997
  155.6014  140.3470  155.4597 H   0  0  0  0  0  0  0  0  0  0  0  0  # atno 8010 bound_to 7997
  140.4560  143.2468  151.8418 H   0  0  0  0  0  0  0  0  0  0  0  0  # atno 10167 bound_to 10162
  156.8270  130.5475  149.5691 H   0  0  0  0  0  0  0  0  0  0  0  0  # atno 10718 bound_to 10713
  153.3650  135.3945  155.1747 H   0  0  0  0  0  0  0  0  0  0  0  0  # atno 10763 bound_to 10752
  154.8685  135.3689  154.5050 H   0  0  0  0  0  0  0  0  0  0  0  0  # atno 10764 bound_to 10752
  153.5513  135.7083  153.5650 H   0  0  0  0  0  0  0  0  0  0  0  0  # atno 10765 bound_to 10752
  139.9140  134.7909  156.1890 H   0  0  0  0  0  0  0  0  0  0  0  0  # atno 11005 bound_to 11000
  145.6432  141.0280  143.1800 LP  0  0  0  0  0  0  0  0  0  0  0  0  # atno 17320 bound_to 7965
  144.7218  139.8006  143.7379 LP  0  0  0  0  0  0  0  0  0  0  0  0  # atno 17321 bound_to 7965
  139.4801  144.5064  151.8992 LP  0  0  0  0  0  0  0  0  0  0  0  0  # atno 17342 bound_to 10162
  140.4150  144.2319  150.5888 LP  0  0  0  0  0  0  0  0  0  0  0  0  # atno 17343 bound_to 10162
  156.0956  130.5929  150.9807 LP  0  0  0  0  0  0  0  0  0  0  0  0  # atno 17370 bound_to 10713
  157.6427  131.0908  150.8218 LP  0  0  0  0  0  0  0  0  0  0  0  0  # atno 17371 bound_to 10713
  141.0595  133.6848  156.1926 LP  0  0  0  0  0  0  0  0  0  0  0  0  # atno 17394 bound_to 11000
  140.6683  134.4895  157.5586 LP  0  0  0  0  0  0  0  0  0  0  0  0  # atno 17395 bound_to 11000

$$$$
