AV-unprocessed.smi:1490|AV-procd|sdf|6029|dock1
  -GOLD-   22720 6133D 1   1.00000     0.00000
 Structure written by MMmdl.
 37 38  0  0  0  0  0  0  0  0  1 V2000
  146.9610  140.4433  153.6786 C   0  0  0  0  0  0  0  0  0  0  0  0
  148.2605  140.9987  153.7730 O   0  0  0  0  0  0  0  0  0  0  0  0
  148.9065  140.6731  154.9929 C   0  0  0  0  0  0  0  0  0  0  0  0
  150.0799  141.6332  155.2341 C   0  0  0  0  0  0  0  0  0  0  0  0
  151.0403  141.0902  156.1841 N   0  0  0  0  0  0  0  0  0  0  0  0
  151.8204  139.9878  156.0543 C   0  0  0  0  0  0  0  0  0  0  0  0
  151.7586  138.9729  154.6077 S   0  0  0  0  0  0  0  0  0  0  0  0
  150.2733  137.9961  154.9835 C   0  0  0  0  0  0  0  0  0  0  0  0
  150.5955  136.5245  155.2255 C   0  0  0  0  0  0  0  0  0  0  0  0
  151.4927  136.2077  156.0055 O   0  0  0  0  0  0  0  0  0  0  0  0
  149.8553  135.6301  154.5551 N   0  0  0  0  0  0  0  0  0  0  0  0
  150.0146  134.1869  154.6621 C   0  0  0  0  0  0  0  0  0  0  0  0
  150.2083  133.7400  156.0508 C   0  0  0  0  0  0  0  0  0  0  0  0
  150.3611  133.3881  157.1423 N   0  0  0  0  0  0  0  0  0  0  0  0
  152.6193  139.7270  157.0910 N   0  0  0  0  0  0  0  0  0  0  0  0
  152.3386  140.7579  157.9656 C   0  0  0  0  0  0  0  0  0  0  0  0
  152.8653  141.0472  159.2446 C   0  0  0  0  0  0  0  0  0  0  0  0
  152.4195  142.1773  159.9611 C   0  0  0  0  0  0  0  0  0  0  0  0
  153.0731  142.5167  161.5212 Cl  0  0  0  0  0  0  0  0  0  0  0  0
  151.4426  143.0317  159.4089 C   0  0  0  0  0  0  0  0  0  0  0  0
  150.9047  142.7607  158.1362 C   0  0  0  0  0  0  0  0  0  0  0  0
  151.3532  141.6307  157.4267 C   0  0  0  0  0  0  0  0  0  0  0  0
  146.5142  140.7194  152.7236 H   0  0  0  0  0  0  0  0  0  0  0  0
  146.3143  140.8168  154.4737 H   0  0  0  0  0  0  0  0  0  0  0  0
  146.9922  139.3544  153.7342 H   0  0  0  0  0  0  0  0  0  0  0  0
  148.1967  140.7404  155.8190 H   0  0  0  0  0  0  0  0  0  0  0  0
  149.2713  139.6455  154.9596 H   0  0  0  0  0  0  0  0  0  0  0  0
  150.5968  141.8310  154.2947 H   0  0  0  0  0  0  0  0  0  0  0  0
  149.7178  142.5981  155.5880 H   0  0  0  0  0  0  0  0  0  0  0  0
  149.7902  138.4088  155.8703 H   0  0  0  0  0  0  0  0  0  0  0  0
  149.5627  138.0768  154.1601 H   0  0  0  0  0  0  0  0  0  0  0  0
  149.1374  135.9714  153.9326 H   0  0  0  0  0  0  0  0  0  0  0  0
  149.1211  133.6998  154.2718 H   0  0  0  0  0  0  0  0  0  0  0  0
  150.8601  133.8462  154.0625 H   0  0  0  0  0  0  0  0  0  0  0  0
  153.6142  140.3982  159.6738 H   0  0  0  0  0  0  0  0  0  0  0  0
  151.1056  143.8961  159.9623 H   0  0  0  0  0  0  0  0  0  0  0  0
  150.1575  143.4136  157.7106 H   0  0  0  0  0  0  0  0  0  0  0  0
  1  2  1  0  0  0  0
  1 23  1  0  0  0  0
  1 24  1  0  0  0  0
  1 25  1  0  0  0  0
  2  3  1  0  0  0  0
  3  4  1  0  0  0  0
  3 26  1  0  0  0  0
  3 27  1  0  0  0  0
  4  5  1  0  0  0  0
  4 28  1  0  0  0  0
  4 29  1  0  0  0  0
  5 22  1  0  0  0  0
  5  6  1  0  0  0  0
  6  7  1  0  0  0  0
  6 15  2  0  0  0  0
  7  8  1  0  0  0  0
  8  9  1  0  0  0  0
  8 30  1  0  0  0  0
  8 31  1  0  0  0  0
  9 10  2  0  0  0  0
  9 11  1  0  0  0  0
 11 12  1  0  0  0  0
 11 32  1  0  0  0  0
 12 13  1  0  0  0  0
 12 33  1  0  0  0  0
 12 34  1  0  0  0  0
 13 14  3  0  0  0  0
 15 16  1  0  0  0  0
 16 22  2  0  0  0  0
 16 17  1  0  0  0  0
 17 18  2  0  0  0  0
 17 35  1  0  0  0  0
 18 19  1  0  0  0  0
 18 20  1  0  0  0  0
 20 21  2  0  0  0  0
 20 36  1  0  0  0  0
 21 22  1  0  0  0  0
 21 37  1  0  0  0  0
M  END
> <s_m_source_file>
AV-unprocessed.smi

> <i_m_source_file_index>
1490

> <i_lp_mmshare_version>
43012

> <i_f3d_flags>
0

> <s_epik_input>
W2NIXTFjKENsKVtjSF1bY0hdYyhjMTIpbihbQ0gyXVtDSDJdT1tDSDNdKWMobjIpU1tDSDJdQyg9TylbTkhdW0NIMl1DI04=

> <s_epik_cmdline>
J2VwaWtfcHl0aG9uJywgJy1waCcsICc3LjAnLCAnLXRuJywgJzgnLCAnLW1hJywgJzIwMCcsICctbWV0YWxfYmluZGluZycsICctaW1hZScsICc8aW5maWxlLm1hZT4nLCAnLW9tYWUnLCAnPG91dGZpbGUubWFlPic=

> <r_epik_Ionization_Penalty>
0.00952472

> <r_epik_Ionization_Penalty_Charging>
0

> <r_epik_Ionization_Penalty_Neutral>
0.00952472

> <r_epik_State_Penalty>
0.0072333

> <r_epik_Charging_Adjusted_Penalty>
0.0072333

> <i_epik_Tot_Q>
0

> <i_epik_Tot_abs_Q>
0

> <r_epik_Metal_State_Penalty>
0.00711889

> <b_epik_Metal_Only>
0

> <s_lp_Force_Field>
OPLS_2005

> <r_lp_Energy>
2.86895

> <b_lp_Chiralities_Consistent>
1

> <s_lp_Variant>
AV-unprocessed.smi:1490-1

> <Gold.Version>
5.8.1

> <Gold.Id.Protein>
6NUR|6NUR_protein|mol2

> <Gold.PLP.Fitness>
51.3258

> <Gold.PLP.PLP>
-42.9288

> <Gold.PLP.part.hbond>
-3.9837

> <Gold.PLP.part.metal>
0.0000

> <Gold.PLP.part.buried>
-5.4256

> <Gold.PLP.part.nonpolar>
-33.7316

> <Gold.PLP.part.repulsive>
0.5621

> <Gold.PLP.ligand.clash>
0.0000

> <Gold.PLP.ligand.torsion>
1.0551

> <Gold.PLP.Chemscore.Hbond>
3.4584

> <Gold.PLP.Chemscore.CHOScore>
0.0000

> <Gold.PLP.Chemscore.Metal>
0.0000

> <Gold.Chemscore.Hbonds>
donor molecule, donor type, donor heavy atom, donor atom, acceptor molecule, acceptor atom, score
      L1  H    11    32       P1  7948  0.61
      P1  H  6896  6908       L1    14  0.65
      P1  H  7997  8008       L1    15  1.00
      P1  H 10752 10765       L1    10  0.99

> <Gold.PLP.Chemscore.Internal.Correction>
0.1319

> <Gold.Rescore>
     Score         DG    S(hbond)    S(metal)    S(lipo)     H(rot)  DE(clash)    DE(int)     intcor
     15.53     -18.00       2.35        0.00     100.24       2.76       0.01       2.46       ----

> <Gold.Chemscore.Fitness>
15.5319

> <Gold.Chemscore.DG>
-17.9999

> <Gold.Chemscore.ZeroCoef>
-5.4800

> <Gold.Chemscore.Hbond>
2.3509

> <Gold.Chemscore.Metal>
0.0000

> <Gold.Chemscore.Lipo>
100.2359

> <Gold.Chemscore.Internal_Hbond>
0.0000

> <Gold.Chemscore.DEClash>
0.0095

> <Gold.Chemscore.DEInternal>
2.4585

> <Gold.Chemscore.Rot>
2.7577

> <Gold.Chemscore.Internal.Correction>
   9.000000E+99

> <Gold.Chemscore.Hbonds>
donor molecule, donor type, donor heavy atom, donor atom, acceptor molecule, acceptor atom, score
      L1  H    11    32       P1  7948  0.54
      P1  H  6896  6908       L1    14  0.62
      P1  H  7997  8008       L1    15  0.22
      P1  H 10752 10765       L1    10  0.73

> <Gold.Chemscore.Hbond.Weighted>
-7.8521

> <Gold.Chemscore.Metal.Weighted>
-0.0000

> <Gold.Chemscore.Lipo.Weighted>
-11.7276

> <Gold.Chemscore.Internal_Hbond.Weighted>
0.0000

> <Gold.Chemscore.DEClash.Weighted>
0.0095

> <Gold.Chemscore.DEInternal.Weighted>
2.4585

> <Gold.Chemscore.Rot.Weighted>
7.0598

> <Gold.Chemscore.Internal.Correction.Weighted>
   9.000000E+99

> <Gold.Protein.RotatedTorsions>
[ 6907 6896 6895 6894 ] final  104.19 input  -60.11 | X-H torsion
[ 7974 7965 7964 7962 ] final  152.15 input  175.53 | X-H torsion
[ 8008 7997 7996 7995 ] final  -68.86 input   59.86 | X-H torsion
[ 10167 10162 10161 10158 ] final  154.05 input  -65.29 | X-H torsion
[ 10718 10713 10712 10709 ] final  125.63 input   66.30 | X-H torsion
[ 10763 10752 10751 10750 ] final -152.59 input  -60.55 | X-H torsion
[ 11005 11000 10999 10996 ] final -108.07 input  -57.11 | X-H torsion

> <Gold.Protein.ActiveResidues>
 VAL166  LYS551  ARG553  GLY616  TRP617  ASP618  TYR619  PRO620  LYS621  CYS622 
 ASP623  PHE694  ASN695  SER759  ASP760  ASP761  ALA762  ILE779  LEU786  VAL792 
 PHE793  MET794  SER795  GLU796  ALA797  LYS798  CYS799  TRP800  GLU811  SER814 

> <Gold.Protein.RotatedAtoms>
  152.5272  133.9714  159.7763 H   0  0  0  0  0  0  0  0  0  0  0  0  # atno 6907 bound_to 6896
  150.9985  133.6071  159.2705 H   0  0  0  0  0  0  0  0  0  0  0  0  # atno 6908 bound_to 6896
  151.3188  135.0819  159.9352 H   0  0  0  0  0  0  0  0  0  0  0  0  # atno 6909 bound_to 6896
  144.8243  139.6630  143.6087 H   0  0  0  0  0  0  0  0  0  0  0  0  # atno 7974 bound_to 7965
  154.4897  140.0865  156.7567 H   0  0  0  0  0  0  0  0  0  0  0  0  # atno 8008 bound_to 7997
  155.4261  140.3448  155.4257 H   0  0  0  0  0  0  0  0  0  0  0  0  # atno 8009 bound_to 7997
  156.1312  140.1502  156.9050 H   0  0  0  0  0  0  0  0  0  0  0  0  # atno 8010 bound_to 7997
  139.4824  144.5220  151.7861 H   0  0  0  0  0  0  0  0  0  0  0  0  # atno 10167 bound_to 10162
  157.5487  131.1095  150.8739 H   0  0  0  0  0  0  0  0  0  0  0  0  # atno 10718 bound_to 10713
  154.7984  135.3232  154.7611 H   0  0  0  0  0  0  0  0  0  0  0  0  # atno 10763 bound_to 10752
  153.8284  135.6881  153.4822 H   0  0  0  0  0  0  0  0  0  0  0  0  # atno 10764 bound_to 10752
  153.1687  135.4632  154.9815 H   0  0  0  0  0  0  0  0  0  0  0  0  # atno 10765 bound_to 10752
  141.0921  133.9036  157.2050 H   0  0  0  0  0  0  0  0  0  0  0  0  # atno 11005 bound_to 11000
  146.2548  139.6278  142.9402 LP  0  0  0  0  0  0  0  0  0  0  0  0  # atno 17320 bound_to 7965
  145.5036  141.0437  143.2527 LP  0  0  0  0  0  0  0  0  0  0  0  0  # atno 17321 bound_to 7965
  140.4735  144.1552  150.5921 LP  0  0  0  0  0  0  0  0  0  0  0  0  # atno 17342 bound_to 10162
  140.4356  143.2549  151.9539 LP  0  0  0  0  0  0  0  0  0  0  0  0  # atno 17343 bound_to 10162
  156.9270  130.5336  149.5279 LP  0  0  0  0  0  0  0  0  0  0  0  0  # atno 17370 bound_to 10713
  156.0557  130.5619  150.9087 LP  0  0  0  0  0  0  0  0  0  0  0  0  # atno 17371 bound_to 10713
  139.9749  135.0117  156.9606 LP  0  0  0  0  0  0  0  0  0  0  0  0  # atno 17394 bound_to 11000
  140.5227  134.0891  155.7296 LP  0  0  0  0  0  0  0  0  0  0  0  0  # atno 17395 bound_to 11000

$$$$
