AV-unprocessed.smi:2598|AV-procd|sdf|10178|dock1
  -GOLD-   2272014193D 1   1.00000     0.00000
 Structure written by MMmdl.
 27 28  0  0  0  0  0  0  0  0  1 V2000
  147.5290  132.6406  154.2738 O   0  0  0  0  0  0  0  0  0  0  0  0
  147.9565  133.6107  153.6507 C   0  0  0  0  0  0  0  0  0  0  0  0
  149.0902  134.2368  154.0292 N   0  0  0  0  0  0  0  0  0  0  0  0
  149.9580  133.9835  155.0473 C   0  0  0  0  0  0  0  0  0  0  0  0
  150.7878  134.8967  155.6409 C   0  0  0  0  0  0  0  0  0  0  0  0
  151.5601  134.3775  156.6922 N   0  0  0  0  0  0  0  0  0  0  0  0
  151.3473  133.1186  156.9385 N   0  0  0  0  0  0  0  0  0  0  0  0
  150.1857  132.4915  155.9095 S   0  0  0  0  0  0  0  0  0  0  0  0
  147.3255  134.1253  152.5819 N   0  0  0  0  0  0  0  0  0  0  0  0
  146.0875  133.6206  151.9960 C   0  0  0  0  0  0  0  0  0  0  0  0
  146.2781  132.1698  151.5071 C   0  0  0  0  0  0  0  0  0  0  0  0
  144.9859  131.5696  150.9344 C   0  0  0  0  0  0  0  0  0  0  0  0
  144.4179  132.4921  149.4799 S   0  0  0  0  0  0  0  0  0  0  0  0
  144.3086  134.1382  150.2329 C   0  0  0  0  0  0  0  0  0  0  0  0
  145.6493  134.5565  150.8538 C   0  0  0  0  0  0  0  0  0  0  0  0
  149.2980  135.0752  153.5058 H   0  0  0  0  0  0  0  0  0  0  0  0
  150.9001  135.9390  155.3812 H   0  0  0  0  0  0  0  0  0  0  0  0
  147.7404  134.9302  152.1353 H   0  0  0  0  0  0  0  0  0  0  0  0
  145.3095  133.6356  152.7619 H   0  0  0  0  0  0  0  0  0  0  0  0
  147.0668  132.1297  150.7543 H   0  0  0  0  0  0  0  0  0  0  0  0
  146.6155  131.5449  152.3348 H   0  0  0  0  0  0  0  0  0  0  0  0
  145.1479  130.5308  150.6469 H   0  0  0  0  0  0  0  0  0  0  0  0
  144.1984  131.5735  151.6885 H   0  0  0  0  0  0  0  0  0  0  0  0
  144.0091  134.8528  149.4662 H   0  0  0  0  0  0  0  0  0  0  0  0
  143.5232  134.1330  150.9894 H   0  0  0  0  0  0  0  0  0  0  0  0
  145.5579  135.5748  151.2338 H   0  0  0  0  0  0  0  0  0  0  0  0
  146.4171  134.5877  150.0794 H   0  0  0  0  0  0  0  0  0  0  0  0
  1  2  2  0  0  0  0
  2  3  1  0  0  0  0
  2  9  1  0  0  0  0
  3  4  1  0  0  0  0
  3 16  1  0  0  0  0
  4  8  1  0  0  0  0
  4  5  2  0  0  0  0
  5  6  1  0  0  0  0
  5 17  1  0  0  0  0
  6  7  2  0  0  0  0
  7  8  1  0  0  0  0
  9 10  1  0  0  0  0
  9 18  1  0  0  0  0
 10 15  1  0  0  0  0
 10 11  1  0  0  0  0
 10 19  1  0  0  0  0
 11 12  1  0  0  0  0
 11 20  1  0  0  0  0
 11 21  1  0  0  0  0
 12 13  1  0  0  0  0
 12 22  1  0  0  0  0
 12 23  1  0  0  0  0
 13 14  1  0  0  0  0
 14 15  1  0  0  0  0
 14 24  1  0  0  0  0
 14 25  1  0  0  0  0
 15 26  1  0  0  0  0
 15 27  1  0  0  0  0
M  END
> <s_m_source_file>
AV-unprocessed.smi

> <i_m_source_file_index>
2598

> <i_lp_mmshare_version>
43012

> <i_f3d_flags>
0

> <s_epik_input>
czFubltjSF1jMVtOSF1DKD1PKVtOSF1bQ0hdMltDSDJdW0NIMl1TW0NIMl1bQ0gyXTI=

> <s_epik_cmdline>
J2VwaWtfcHl0aG9uJywgJy1waCcsICc3LjAnLCAnLXRuJywgJzgnLCAnLW1hJywgJzIwMCcsICctbWV0YWxfYmluZGluZycsICctaW1hZScsICc8aW5maWxlLm1hZT4nLCAnLW9tYWUnLCAnPG91dGZpbGUubWFlPic=

> <r_lp_tautomer_probability>
1

> <r_epik_Ionization_Penalty>
2.3088e-05

> <r_epik_Ionization_Penalty_Charging>
0

> <r_epik_Ionization_Penalty_Neutral>
2.3088e-05

> <r_epik_State_Penalty>
-0

> <r_epik_Charging_Adjusted_Penalty>
0

> <i_epik_Tot_Q>
0

> <i_epik_Tot_abs_Q>
0

> <r_epik_Metal_State_Penalty>
-0

> <b_epik_Metal_Only>
0

> <s_lp_Force_Field>
OPLS_2005

> <r_lp_Energy>
8.93438

> <b_lp_Chiralities_Consistent>
1

> <s_lp_Variant>
AV-unprocessed.smi:2598-1

> <Gold.Version>
5.8.1

> <Gold.Id.Protein>
6NUR|6NUR_protein|mol2

> <Gold.PLP.Fitness>
35.2379

> <Gold.PLP.PLP>
-27.2449

> <Gold.PLP.part.hbond>
-3.8758

> <Gold.PLP.part.metal>
0.0000

> <Gold.PLP.part.buried>
-3.5806

> <Gold.PLP.part.nonpolar>
-19.7186

> <Gold.PLP.part.repulsive>
0.0433

> <Gold.PLP.ligand.clash>
0.0000

> <Gold.PLP.ligand.torsion>
0.1231

> <Gold.PLP.Chemscore.Hbond>
2.7440

> <Gold.PLP.Chemscore.CHOScore>
0.0000

> <Gold.PLP.Chemscore.Metal>
0.0000

> <Gold.Chemscore.Hbonds>
donor molecule, donor type, donor heavy atom, donor atom, acceptor molecule, acceptor atom, score
      L1  H     3    16       P1  7948  0.78
      L1  H     9    18       P1  7948  1.00
      P1  H  6896  6908       L1     7  0.21

> <Gold.PLP.Chemscore.Internal.Correction>
0.0072

> <Gold.Rescore>
     Score         DG    S(hbond)    S(metal)    S(lipo)     H(rot)  DE(clash)    DE(int)     intcor
     16.70     -16.85       2.08        0.00      59.74       1.00       0.01       0.15       ----

> <Gold.Chemscore.Fitness>
16.6961

> <Gold.Chemscore.DG>
-16.8511

> <Gold.Chemscore.ZeroCoef>
-5.4800

> <Gold.Chemscore.Hbond>
2.0785

> <Gold.Chemscore.Metal>
0.0000

> <Gold.Chemscore.Lipo>
59.7355

> <Gold.Chemscore.Internal_Hbond>
0.0000

> <Gold.Chemscore.DEClash>
0.0073

> <Gold.Chemscore.DEInternal>
0.1477

> <Gold.Chemscore.Rot>
1.0000

> <Gold.Chemscore.Internal.Correction>
   9.000000E+99

> <Gold.Chemscore.Hbonds>
donor molecule, donor type, donor heavy atom, donor atom, acceptor molecule, acceptor atom, score
      L1  H     3    16       P1  7948  0.11
      L1  H     9    18       P1  7948  0.81
      P1  H  6896  6908       L1     7  0.02

> <Gold.Chemscore.Hbond.Weighted>
-6.9421

> <Gold.Chemscore.Metal.Weighted>
-0.0000

> <Gold.Chemscore.Lipo.Weighted>
-6.9891

> <Gold.Chemscore.Internal_Hbond.Weighted>
0.0000

> <Gold.Chemscore.DEClash.Weighted>
0.0073

> <Gold.Chemscore.DEInternal.Weighted>
0.1477

> <Gold.Chemscore.Rot.Weighted>
2.5600

> <Gold.Chemscore.Internal.Correction.Weighted>
   9.000000E+99

> <Gold.Protein.RotatedTorsions>
[ 6907 6896 6895 6894 ] final   86.65 input  -60.11 | X-H torsion
[ 7974 7965 7964 7962 ] final -174.94 input  175.53 | X-H torsion
[ 8008 7997 7996 7995 ] final  -10.20 input   59.86 | X-H torsion
[ 10167 10162 10161 10158 ] final   30.71 input  -65.29 | X-H torsion
[ 10718 10713 10712 10709 ] final  -51.29 input   66.30 | X-H torsion
[ 10763 10752 10751 10750 ] final  -81.28 input  -60.55 | X-H torsion
[ 11005 11000 10999 10996 ] final  -99.04 input  -57.11 | X-H torsion

> <Gold.Protein.ActiveResidues>
 VAL166  LYS551  ARG553  GLY616  TRP617  ASP618  TYR619  PRO620  LYS621  CYS622 
 ASP623  PHE694  ASN695  SER759  ASP760  ASP761  ALA762  ILE779  LEU786  VAL792 
 PHE793  MET794  SER795  GLU796  ALA797  LYS798  CYS799  TRP800  GLU811  SER814 

> <Gold.Protein.RotatedAtoms>
  152.5398  134.2398  159.8857 H   0  0  0  0  0  0  0  0  0  0  0  0  # atno 6907 bound_to 6896
  151.2366  133.4415  159.2613 H   0  0  0  0  0  0  0  0  0  0  0  0  # atno 6908 bound_to 6896
  151.0666  134.9785  159.8343 H   0  0  0  0  0  0  0  0  0  0  0  0  # atno 6909 bound_to 6896
  144.7130  140.1396  143.6392 H   0  0  0  0  0  0  0  0  0  0  0  0  # atno 7974 bound_to 7965
  154.5576  140.2335  155.8385 H   0  0  0  0  0  0  0  0  0  0  0  0  # atno 8008 bound_to 7997
  156.2002  140.3054  155.9471 H   0  0  0  0  0  0  0  0  0  0  0  0  # atno 8009 bound_to 7997
  155.2949  140.0428  157.3016 H   0  0  0  0  0  0  0  0  0  0  0  0  # atno 8010 bound_to 7997
  140.4653  144.0844  150.6223 H   0  0  0  0  0  0  0  0  0  0  0  0  # atno 10167 bound_to 10162
  156.1723  130.4149  149.9628 H   0  0  0  0  0  0  0  0  0  0  0  0  # atno 10718 bound_to 10713
  154.5617  135.5631  153.7013 H   0  0  0  0  0  0  0  0  0  0  0  0  # atno 10763 bound_to 10752
  153.0020  135.6275  154.2236 H   0  0  0  0  0  0  0  0  0  0  0  0  # atno 10764 bound_to 10752
  154.2174  135.2871  155.2917 H   0  0  0  0  0  0  0  0  0  0  0  0  # atno 10765 bound_to 10752
  141.1323  133.8291  157.0919 H   0  0  0  0  0  0  0  0  0  0  0  0  # atno 11005 bound_to 11000
  145.9214  139.2548  143.1379 LP  0  0  0  0  0  0  0  0  0  0  0  0  # atno 17320 bound_to 7965
  145.9617  140.8830  143.0207 LP  0  0  0  0  0  0  0  0  0  0  0  0  # atno 17321 bound_to 7965
  140.4043  143.2688  151.9910 LP  0  0  0  0  0  0  0  0  0  0  0  0  # atno 17342 bound_to 10162
  139.4811  144.5970  151.7672 LP  0  0  0  0  0  0  0  0  0  0  0  0  # atno 17343 bound_to 10162
  156.7425  130.9085  151.3633 LP  0  0  0  0  0  0  0  0  0  0  0  0  # atno 17370 bound_to 10713
  157.6811  130.9141  150.0270 LP  0  0  0  0  0  0  0  0  0  0  0  0  # atno 17371 bound_to 10713
  140.0387  134.9865  157.0921 LP  0  0  0  0  0  0  0  0  0  0  0  0  # atno 17394 bound_to 11000
  140.4169  134.1921  155.7163 LP  0  0  0  0  0  0  0  0  0  0  0  0  # atno 17395 bound_to 11000

$$$$
