AV-unprocessed.smi:2655|AV-procd|sdf|10302|dock7
  -GOLD-   2272014313D 1   1.00000     0.00000
 Structure written by MMmdl.
 33 34  0  0  0  0  0  0  0  0  2 V2000
  148.1933  141.2537  154.2013 C   0  0  0  0  0  0  0  0  0  0  0  0
  149.4422  141.1717  155.0529 C   0  0  0  0  0  0  0  0  0  0  0  0
  149.8077  142.2105  155.8698 N   0  0  0  0  0  0  0  0  0  0  0  0
  150.9773  141.8784  156.5387 N   0  5  0  0  0  0  0  0  0  0  0  0
  151.3120  140.6339  156.1139 C   0  0  0  0  0  0  0  0  0  0  0  0
  152.2855  139.9680  156.4623 O   0  0  0  0  0  0  0  0  0  0  0  0
  150.3279  140.1825  155.1545 C   0  0  0  0  0  0  0  0  0  0  0  0
  150.3364  138.8323  154.4625 C   0  0  0  0  0  0  0  0  0  0  0  0
  149.7418  137.7258  155.3484 C   0  0  0  0  0  0  0  0  0  0  0  0
  149.3593  136.5589  154.5624 N   0  0  0  0  0  0  0  0  0  0  0  0
  149.1560  135.3305  155.0594 C   0  0  0  0  0  0  0  0  0  0  0  0
  149.2753  135.0533  156.2530 O   0  0  0  0  0  0  0  0  0  0  0  0
  148.8136  134.4650  154.0902 N   0  0  0  0  0  0  0  0  0  0  0  0
  148.5003  133.0863  154.2098 C   0  0  0  0  0  0  0  0  0  0  0  0
  147.8909  132.2693  153.2133 C   0  0  0  0  0  0  0  0  0  0  0  0
  147.8190  131.0477  153.8207 C   0  0  0  0  0  0  0  0  0  0  0  0
  147.3007  129.7232  153.3756 C   0  0  0  0  0  0  0  0  0  0  0  0
  148.3365  131.1116  155.0768 O   0  0  0  0  0  0  0  0  0  0  0  0
  148.7711  132.4202  155.3173 N   0  0  0  0  0  0  0  0  0  0  0  0
  148.4467  141.1266  153.1485 H   0  0  0  0  0  0  0  0  0  0  0  0
  147.6987  142.2179  154.3220 H   0  0  0  0  0  0  0  0  0  0  0  0
  147.4913  140.4692  154.4845 H   0  0  0  0  0  0  0  0  0  0  0  0
  151.3637  138.5843  154.1938 H   0  0  0  0  0  0  0  0  0  0  0  0
  149.7819  138.9105  153.5265 H   0  0  0  0  0  0  0  0  0  0  0  0
  150.4501  137.4387  156.1277 H   0  0  0  0  0  0  0  0  0  0  0  0
  148.8521  138.0941  155.8598 H   0  0  0  0  0  0  0  0  0  0  0  0
  149.2409  136.6996  153.5698 H   0  0  0  0  0  0  0  0  0  0  0  0
  148.7658  134.8384  153.1537 H   0  0  0  0  0  0  0  0  0  0  0  0
  147.5582  132.5184  152.2171 H   0  0  0  0  0  0  0  0  0  0  0  0
  147.0986  129.7245  152.3044 H   0  0  0  0  0  0  0  0  0  0  0  0
  146.3743  129.4769  153.8945 H   0  0  0  0  0  0  0  0  0  0  0  0
  148.0247  128.9347  153.5815 H   0  0  0  0  0  0  0  0  0  0  0  0
  149.2983  143.0765  155.9729 H   0  0  0  0  0  0  0  0  0  0  0  0
  1 20  1  0  0  0  0
  1 21  1  0  0  0  0
  1 22  1  0  0  0  0
  1  2  1  0  0  0  0
  2  7  2  0  0  0  0
  2  3  1  0  0  0  0
  3  4  1  0  0  0  0
  3 33  1  0  0  0  0
  4  5  1  0  0  0  0
  5  7  1  0  0  0  0
  5  6  2  0  0  0  0
  7  8  1  0  0  0  0
  8  9  1  0  0  0  0
  8 23  1  0  0  0  0
  8 24  1  0  0  0  0
  9 10  1  0  0  0  0
  9 25  1  0  0  0  0
  9 26  1  0  0  0  0
 10 11  1  0  0  0  0
 10 27  1  0  0  0  0
 11 12  2  0  0  0  0
 11 13  1  0  0  0  0
 13 14  1  0  0  0  0
 13 28  1  0  0  0  0
 14 19  2  0  0  0  0
 14 15  1  0  0  0  0
 15 16  2  0  0  0  0
 15 29  1  0  0  0  0
 16 17  1  0  0  0  0
 16 18  1  0  0  0  0
 17 30  1  0  0  0  0
 17 31  1  0  0  0  0
 17 32  1  0  0  0  0
 18 19  1  0  0  0  0
M  CHG  1   4  -1
M  END
> <s_m_source_file>
AV-unprocessed.smi

> <i_m_source_file_index>
2655

> <i_lp_mmshare_version>
43012

> <i_f3d_flags>
0

> <s_epik_input>
W0NIM11DMT1OW05IXUMoPU8pW0NASF0xW0NIMl1bQ0gyXVtOSF1DKD1PKVtOSF1jMltjSF1jKFtDSDNdKW9uMg==

> <s_epik_cmdline>
J2VwaWtfcHl0aG9uJywgJy1waCcsICc3LjAnLCAnLXRuJywgJzgnLCAnLW1hJywgJzIwMCcsICctbWV0YWxfYmluZGluZycsICctaW1hZScsICc8aW5maWxlLm1hZT4nLCAnLW9tYWUnLCAnPG91dGZpbGUubWFlPic=

> <r_lp_tautomer_probability>
0.00220696

> <r_epik_Ionization_Penalty>
4.81787

> <r_epik_Ionization_Penalty_Charging>
2.1236

> <r_epik_Ionization_Penalty_Neutral>
2.69427

> <r_epik_State_Penalty>
2.7337

> <r_epik_Charging_Adjusted_Penalty>
4.8573

> <i_epik_Tot_Q>
-1

> <i_epik_Tot_abs_Q>
1

> <r_epik_Metal_State_Penalty>
2.0342

> <b_epik_Metal_Only>
1

> <s_lp_Force_Field>
OPLS_2005

> <r_lp_Energy>
14.0901

> <b_lp_Chiralities_Consistent>
1

> <s_lp_Variant>
AV-unprocessed.smi:2655-5

> <Gold.Version>
5.8.1

> <Gold.Id.Protein>
6NUR|6NUR_protein|mol2

> <Gold.PLP.Fitness>
40.5761

> <Gold.PLP.PLP>
-29.8591

> <Gold.PLP.part.hbond>
-4.0000

> <Gold.PLP.part.metal>
0.0000

> <Gold.PLP.part.buried>
-3.1771

> <Gold.PLP.part.nonpolar>
-23.4115

> <Gold.PLP.part.repulsive>
0.2713

> <Gold.PLP.ligand.clash>
0.0000

> <Gold.PLP.ligand.torsion>
0.5678

> <Gold.PLP.Chemscore.Hbond>
3.9500

> <Gold.PLP.Chemscore.CHOScore>
0.0000

> <Gold.PLP.Chemscore.Metal>
0.0000

> <Gold.Chemscore.Hbonds>
donor molecule, donor type, donor heavy atom, donor atom, acceptor molecule, acceptor atom, score
      L1  H     3    33       P1  8028  1.00
      L1  H    10    27       P1  7948  1.00
      L1  H    13    28       P1  7948  1.00
      P1  H  7997  8010       L1     6  0.91

> <Gold.PLP.Chemscore.Internal.Correction>
0.0025

> <Gold.Rescore>
     Score         DG    S(hbond)    S(metal)    S(lipo)     H(rot)  DE(clash)    DE(int)     intcor
     16.60     -18.51       3.70        0.00      46.27       1.85       0.04       1.87       ----

> <Gold.Chemscore.Fitness>
16.5967

> <Gold.Chemscore.DG>
-18.5088

> <Gold.Chemscore.ZeroCoef>
-5.4800

> <Gold.Chemscore.Hbond>
3.6981

> <Gold.Chemscore.Metal>
0.0000

> <Gold.Chemscore.Lipo>
46.2731

> <Gold.Chemscore.Internal_Hbond>
0.0000

> <Gold.Chemscore.DEClash>
0.0392

> <Gold.Chemscore.DEInternal>
1.8730

> <Gold.Chemscore.Rot>
1.8504

> <Gold.Chemscore.Internal.Correction>
   9.000000E+99

> <Gold.Chemscore.Hbonds>
donor molecule, donor type, donor heavy atom, donor atom, acceptor molecule, acceptor atom, score
      L1  H     3    33       P1  8028  0.99
      L1  H    10    27       P1  7948  0.96
      L1  H    13    28       P1  7948  0.29
      P1  H  7997  8010       L1     6  0.86

> <Gold.Chemscore.Hbond.Weighted>
-12.3518

> <Gold.Chemscore.Metal.Weighted>
-0.0000

> <Gold.Chemscore.Lipo.Weighted>
-5.4140

> <Gold.Chemscore.Internal_Hbond.Weighted>
0.0000

> <Gold.Chemscore.DEClash.Weighted>
0.0392

> <Gold.Chemscore.DEInternal.Weighted>
1.8730

> <Gold.Chemscore.Rot.Weighted>
4.7369

> <Gold.Chemscore.Internal.Correction.Weighted>
   9.000000E+99

> <Gold.Protein.RotatedTorsions>
[ 6907 6896 6895 6894 ] final  172.12 input  -60.11 | X-H torsion
[ 7974 7965 7964 7962 ] final -106.97 input  175.53 | X-H torsion
[ 8008 7997 7996 7995 ] final   66.17 input   59.86 | X-H torsion
[ 10167 10162 10161 10158 ] final  -48.82 input  -65.29 | X-H torsion
[ 10718 10713 10712 10709 ] final  -58.39 input   66.30 | X-H torsion
[ 10763 10752 10751 10750 ] final   94.70 input  -60.55 | X-H torsion
[ 11005 11000 10999 10996 ] final   67.98 input  -57.11 | X-H torsion

> <Gold.Protein.ActiveResidues>
 VAL166  LYS551  ARG553  GLY616  TRP617  ASP618  TYR619  PRO620  LYS621  CYS622 
 ASP623  PHE694  ASN695  SER759  ASP760  ASP761  ALA762  ILE779  LEU786  VAL792 
 PHE793  MET794  SER795  GLU796  ALA797  LYS798  CYS799  TRP800  GLU811  SER814 

> <Gold.Protein.RotatedAtoms>
  151.7893  133.3357  159.3494 H   0  0  0  0  0  0  0  0  0  0  0  0  # atno 6907 bound_to 6896
  150.7398  134.5858  159.5971 H   0  0  0  0  0  0  0  0  0  0  0  0  # atno 6908 bound_to 6896
  152.3221  134.7368  160.0362 H   0  0  0  0  0  0  0  0  0  0  0  0  # atno 6909 bound_to 6896
  145.2112  140.9097  143.3313 H   0  0  0  0  0  0  0  0  0  0  0  0  # atno 7974 bound_to 7965
  155.6731  140.3497  155.4826 H   0  0  0  0  0  0  0  0  0  0  0  0  # atno 8008 bound_to 7997
  155.9671  140.1148  157.0868 H   0  0  0  0  0  0  0  0  0  0  0  0  # atno 8009 bound_to 7997
  154.4157  140.1164  156.5243 H   0  0  0  0  0  0  0  0  0  0  0  0  # atno 8010 bound_to 7997
  140.6713  143.2723  151.4126 H   0  0  0  0  0  0  0  0  0  0  0  0  # atno 10167 bound_to 10162
  156.1139  130.4172  150.0571 H   0  0  0  0  0  0  0  0  0  0  0  0  # atno 10718 bound_to 10713
  153.2446  135.4280  155.0734 H   0  0  0  0  0  0  0  0  0  0  0  0  # atno 10763 bound_to 10752
  154.8356  135.3411  154.6600 H   0  0  0  0  0  0  0  0  0  0  0  0  # atno 10764 bound_to 10752
  153.7022  135.7027  153.5116 H   0  0  0  0  0  0  0  0  0  0  0  0  # atno 10765 bound_to 10752
  139.9738  134.6856  156.0394 H   0  0  0  0  0  0  0  0  0  0  0  0  # atno 11005 bound_to 11000
  144.9854  139.3742  143.6241 LP  0  0  0  0  0  0  0  0  0  0  0  0  # atno 17320 bound_to 7965
  146.3397  139.9013  142.8794 LP  0  0  0  0  0  0  0  0  0  0  0  0  # atno 17321 bound_to 7965
  139.5983  144.1349  152.2169 LP  0  0  0  0  0  0  0  0  0  0  0  0  # atno 17342 bound_to 10162
  140.0725  144.5767  150.7181 LP  0  0  0  0  0  0  0  0  0  0  0  0  # atno 17343 bound_to 10162
  156.8527  130.9464  151.3624 LP  0  0  0  0  0  0  0  0  0  0  0  0  # atno 17370 bound_to 10713
  157.6321  130.8738  149.9293 LP  0  0  0  0  0  0  0  0  0  0  0  0  # atno 17371 bound_to 10713
  141.1416  133.6563  156.3747 LP  0  0  0  0  0  0  0  0  0  0  0  0  # atno 17394 bound_to 11000
  140.5237  134.6279  157.5327 LP  0  0  0  0  0  0  0  0  0  0  0  0  # atno 17395 bound_to 11000

$$$$
