AV-unprocessed.smi:1661|AV-procd|sdf|6655|dock3
  -GOLD-   22720 7363D 1   1.00000     0.00000
 Structure written by MMmdl.
 37 38  0  0  0  0  0  0  0  0  3 V2000
  152.4029  144.7369  158.8239 C   0  0  0  0  0  0  0  0  0  0  0  0
  152.4566  143.2157  158.6245 C   0  0  2  0  0  0  0  0  0  0  0  0
  151.2780  142.7106  157.7756 C   0  0  0  0  0  0  0  0  0  0  0  0
  151.3235  141.1821  157.6096 C   0  0  0  0  0  0  0  0  0  0  0  0
  151.3405  140.4968  158.9279 N   0  3  1  0  0  0  0  0  0  0  0  0
  151.2503  139.0213  158.7934 C   0  0  0  0  0  0  0  0  0  0  0  0
  149.8572  138.5598  158.3384 C   0  0  0  0  0  0  0  0  0  0  0  0
  149.6754  137.1432  158.6208 N   0  0  0  0  0  0  0  0  0  0  0  0
  148.7815  136.6394  159.4813 C   0  0  0  0  0  0  0  0  0  0  0  0
  148.0329  137.3979  160.1016 O   0  0  0  0  0  0  0  0  0  0  0  0
  148.8111  135.2907  159.5677 N   0  5  0  0  0  0  0  0  0  0  0  0
  147.9509  134.6506  160.3771 C   0  0  0  0  0  0  0  0  0  0  0  0
  147.5510  133.3897  160.1461 N   0  0  0  0  0  0  0  0  0  0  0  0
  146.6577  132.9171  161.0979 N   0  0  0  0  0  0  0  0  0  0  0  0
  146.3995  133.8414  162.0230 C   0  0  0  0  0  0  0  0  0  0  0  0
  147.2204  135.3738  161.8132 S   0  0  0  0  0  0  0  0  0  0  0  0
  152.4928  140.9419  159.7563 C   0  0  0  0  0  0  0  0  0  0  0  0
  152.4703  142.4652  159.9667 C   0  0  0  0  0  0  0  0  0  0  0  0
  151.4964  145.0375  159.3504 H   0  0  0  0  0  0  0  0  0  0  0  0
  152.4204  145.2588  157.8667 H   0  0  0  0  0  0  0  0  0  0  0  0
  153.2568  145.0869  159.4047 H   0  0  0  0  0  0  0  0  0  0  0  0
  153.3819  142.9833  158.0950 H   0  0  0  0  0  0  0  0  0  0  0  0
  150.3345  142.9976  158.2425 H   0  0  0  0  0  0  0  0  0  0  0  0
  151.2936  143.1861  156.7941 H   0  0  0  0  0  0  0  0  0  0  0  0
  150.4516  140.8616  157.0381 H   0  0  0  0  0  0  0  0  0  0  0  0
  152.2043  140.8905  157.0351 H   0  0  0  0  0  0  0  0  0  0  0  0
  151.9743  138.6838  158.0502 H   0  0  0  0  0  0  0  0  0  0  0  0
  151.5299  138.5455  159.7347 H   0  0  0  0  0  0  0  0  0  0  0  0
  149.0720  139.1173  158.8488 H   0  0  0  0  0  0  0  0  0  0  0  0
  149.7356  138.7328  157.2678 H   0  0  0  0  0  0  0  0  0  0  0  0
  150.2716  136.4909  158.1326 H   0  0  0  0  0  0  0  0  0  0  0  0
  145.7188  133.6208  162.8315 H   0  0  0  0  0  0  0  0  0  0  0  0
  152.4729  140.4547  160.7304 H   0  0  0  0  0  0  0  0  0  0  0  0
  153.4256  140.6440  159.2748 H   0  0  0  0  0  0  0  0  0  0  0  0
  153.3388  142.7665  160.5537 H   0  0  0  0  0  0  0  0  0  0  0  0
  151.5918  142.7380  160.5537 H   0  0  0  0  0  0  0  0  0  0  0  0
  150.5009  140.7893  159.4073 H   0  0  0  0  0  0  0  0  0  0  0  0
  1  2  1  0  0  0  0
  1 19  1  0  0  0  0
  1 20  1  0  0  0  0
  1 21  1  0  0  0  0
  2 18  1  0  0  0  0
  2  3  1  0  0  0  0
  2 22  1  0  0  0  0
  3  4  1  0  0  0  0
  3 23  1  0  0  0  0
  3 24  1  0  0  0  0
  4  5  1  0  0  0  0
  4 25  1  0  0  0  0
  4 26  1  0  0  0  0
  5  6  1  0  0  0  0
  5 17  1  0  0  0  0
  5 37  1  0  0  0  0
  6  7  1  0  0  0  0
  6 27  1  0  0  0  0
  6 28  1  0  0  0  0
  7  8  1  0  0  0  0
  7 29  1  0  0  0  0
  7 30  1  0  0  0  0
  8  9  1  0  0  0  0
  8 31  1  0  0  0  0
  9 10  2  0  0  0  0
  9 11  1  0  0  0  0
 11 12  1  0  0  0  0
 12 16  1  0  0  0  0
 12 13  2  0  0  0  0
 13 14  1  0  0  0  0
 14 15  2  0  0  0  0
 15 16  1  0  0  0  0
 15 32  1  0  0  0  0
 17 18  1  0  0  0  0
 17 33  1  0  0  0  0
 17 34  1  0  0  0  0
 18 35  1  0  0  0  0
 18 36  1  0  0  0  0
M  CHG  1   5   1
M  CHG  1  11  -1
M  END
> <s_m_source_file>
AV-unprocessed.smi

> <i_m_source_file_index>
1661

> <i_lp_mmshare_version>
43012

> <i_f3d_flags>
0

> <s_epik_input>
W0NIM11bQ0hdMVtDSDJdW0NIMl1OKFtDSDJdW0NIMl0xKVtDSDJdW0NIMl1bTkhdQyg9TylbTkhdYzJubltjSF1zMg==

> <s_epik_cmdline>
J2VwaWtfcHl0aG9uJywgJy1waCcsICc3LjAnLCAnLXRuJywgJzgnLCAnLW1hJywgJzIwMCcsICctbWV0YWxfYmluZGluZycsICctaW1hZScsICc8aW5maWxlLm1hZT4nLCAnLW9tYWUnLCAnPG91dGZpbGUubWFlPic=

> <r_lp_tautomer_probability>
1

> <r_epik_Ionization_Penalty>
3.04466

> <r_epik_Ionization_Penalty_Charging>
3.01305

> <r_epik_Ionization_Penalty_Neutral>
0.0316037

> <r_epik_State_Penalty>
3.00821

> <r_epik_Charging_Adjusted_Penalty>
6.02127

> <i_epik_Tot_Q>
0

> <i_epik_Tot_abs_Q>
2

> <r_epik_Metal_State_Penalty>
0.454395

> <b_epik_Metal_Only>
1

> <s_lp_Force_Field>
OPLS_2005

> <r_lp_Energy>
9.82396

> <b_lp_Chiralities_Consistent>
1

> <s_lp_Variant>
AV-unprocessed.smi:1661-3

> <Gold.Version>
5.8.1

> <Gold.Id.Protein>
6NUR|6NUR_protein|mol2

> <Gold.PLP.Fitness>
44.2523

> <Gold.PLP.PLP>
-35.1163

> <Gold.PLP.part.hbond>
-3.0000

> <Gold.PLP.part.metal>
0.0000

> <Gold.PLP.part.buried>
-4.7297

> <Gold.PLP.part.nonpolar>
-28.3448

> <Gold.PLP.part.repulsive>
0.3376

> <Gold.PLP.ligand.clash>
0.0000

> <Gold.PLP.ligand.torsion>
0.3460

> <Gold.PLP.Chemscore.Hbond>
3.2587

> <Gold.PLP.Chemscore.CHOScore>
0.0000

> <Gold.PLP.Chemscore.Metal>
0.0000

> <Gold.Chemscore.Hbonds>
donor molecule, donor type, donor heavy atom, donor atom, acceptor molecule, acceptor atom, score
      P1  H  6896  6909       L1    11  2.00
      P1  H  6931  6943       L1    10  0.30
      P1  H  6934  6947       L1    10  0.67

> <Gold.PLP.Chemscore.Internal.Correction>
0.0520

> <Gold.Rescore>
     Score         DG    S(hbond)    S(metal)    S(lipo)     H(rot)  DE(clash)    DE(int)     intcor
     15.79     -17.69       2.05        0.00      82.47       1.68       0.07       1.83       ----

> <Gold.Chemscore.Fitness>
15.7874

> <Gold.Chemscore.DG>
-17.6900

> <Gold.Chemscore.ZeroCoef>
-5.4800

> <Gold.Chemscore.Hbond>
2.0527

> <Gold.Chemscore.Metal>
0.0000

> <Gold.Chemscore.Lipo>
82.4710

> <Gold.Chemscore.Internal_Hbond>
0.0000

> <Gold.Chemscore.DEClash>
0.0727

> <Gold.Chemscore.DEInternal>
1.8299

> <Gold.Chemscore.Rot>
1.6777

> <Gold.Chemscore.Internal.Correction>
   9.000000E+99

> <Gold.Chemscore.Hbonds>
donor molecule, donor type, donor heavy atom, donor atom, acceptor molecule, acceptor atom, score
      P1  H  6896  6909       L1    11  0.72
      P1  H  6931  6943       L1    10  0.24
      P1  H  6934  6947       L1    10  0.63

> <Gold.Chemscore.Hbond.Weighted>
-6.8559

> <Gold.Chemscore.Metal.Weighted>
-0.0000

> <Gold.Chemscore.Lipo.Weighted>
-9.6491

> <Gold.Chemscore.Internal_Hbond.Weighted>
0.0000

> <Gold.Chemscore.DEClash.Weighted>
0.0727

> <Gold.Chemscore.DEInternal.Weighted>
1.8299

> <Gold.Chemscore.Rot.Weighted>
4.2950

> <Gold.Chemscore.Internal.Correction.Weighted>
   9.000000E+99

> <Gold.Protein.RotatedTorsions>
[ 6907 6896 6895 6894 ] final   50.45 input  -60.11 | X-H torsion
[ 7974 7965 7964 7962 ] final   16.77 input  175.53 | X-H torsion
[ 8008 7997 7996 7995 ] final  -93.42 input   59.86 | X-H torsion
[ 10167 10162 10161 10158 ] final   90.68 input  -65.29 | X-H torsion
[ 10718 10713 10712 10709 ] final   67.09 input   66.30 | X-H torsion
[ 10763 10752 10751 10750 ] final  -19.58 input  -60.55 | X-H torsion
[ 11005 11000 10999 10996 ] final  -29.32 input  -57.11 | X-H torsion

> <Gold.Protein.ActiveResidues>
 VAL166  LYS551  ARG553  GLY616  TRP617  ASP618  TYR619  PRO620  LYS621  CYS622 
 ASP623  PHE694  ASN695  SER759  ASP760  ASP761  ALA762  ILE779  LEU786  VAL792 
 PHE793  MET794  SER795  GLU796  ALA797  LYS798  CYS799  TRP800  GLU811  SER814 

> <Gold.Protein.RotatedAtoms>
  152.3020  134.7600  160.0355 H   0  0  0  0  0  0  0  0  0  0  0  0  # atno 6907 bound_to 6896
  151.8110  133.3376  159.3563 H   0  0  0  0  0  0  0  0  0  0  0  0  # atno 6908 bound_to 6896
  150.7278  134.5593  159.5878 H   0  0  0  0  0  0  0  0  0  0  0  0  # atno 6909 bound_to 6896
  146.2239  139.8699  142.8589 H   0  0  0  0  0  0  0  0  0  0  0  0  # atno 7974 bound_to 7965
  154.7355  140.0499  157.0764 H   0  0  0  0  0  0  0  0  0  0  0  0  # atno 8008 bound_to 7997
  155.0247  140.3151  155.4761 H   0  0  0  0  0  0  0  0  0  0  0  0  # atno 8009 bound_to 7997
  156.2852  140.2161  156.5366 H   0  0  0  0  0  0  0  0  0  0  0  0  # atno 8010 bound_to 7997
  139.8449  144.6622  150.9238 H   0  0  0  0  0  0  0  0  0  0  0  0  # atno 10167 bound_to 10162
  157.6209  130.9303  150.0197 H   0  0  0  0  0  0  0  0  0  0  0  0  # atno 10718 bound_to 10713
  153.6071  135.6997  153.5361 H   0  0  0  0  0  0  0  0  0  0  0  0  # atno 10763 bound_to 10752
  153.3048  135.4118  155.1284 H   0  0  0  0  0  0  0  0  0  0  0  0  # atno 10764 bound_to 10752
  154.8571  135.3657  154.5608 H   0  0  0  0  0  0  0  0  0  0  0  0  # atno 10765 bound_to 10752
  140.9285  133.7353  156.0903 H   0  0  0  0  0  0  0  0  0  0  0  0  # atno 11005 bound_to 11000
  145.2618  141.0080  143.3822 LP  0  0  0  0  0  0  0  0  0  0  0  0  # atno 17320 bound_to 7965
  144.9292  139.4319  143.6503 LP  0  0  0  0  0  0  0  0  0  0  0  0  # atno 17321 bound_to 7965
  140.7794  143.3879  151.1362 LP  0  0  0  0  0  0  0  0  0  0  0  0  # atno 17342 bound_to 10162
  139.7522  143.8762  152.3079 LP  0  0  0  0  0  0  0  0  0  0  0  0  # atno 17343 bound_to 10162
  156.1355  130.3643  149.9664 LP  0  0  0  0  0  0  0  0  0  0  0  0  # atno 17370 bound_to 10713
  156.7716  130.9188  151.3644 LP  0  0  0  0  0  0  0  0  0  0  0  0  # atno 17371 bound_to 10713
  140.7893  134.3635  157.5468 LP  0  0  0  0  0  0  0  0  0  0  0  0  # atno 17394 bound_to 11000
  139.8791  134.9130  156.3074 LP  0  0  0  0  0  0  0  0  0  0  0  0  # atno 17395 bound_to 11000

$$$$
