AV-unprocessed.smi:276|AV-procd|sdf|2076|dock8
  -GOLD-   2262021343D 1   1.00000     0.00000
 Structure written by MMmdl.
 57 61  0  0  0  0  0  0  0  0  1 V2000
  151.6639  144.5995  159.6642 C   0  0  0  0  0  0  0  0  0  0  0  0
  151.2287  143.8421  158.5488 O   0  0  0  0  0  0  0  0  0  0  0  0
  151.0037  142.4786  158.8689 C   0  0  2  0  0  0  0  0  0  0  0  0
  152.2473  141.7332  159.3663 C   0  0  0  0  0  0  0  0  0  0  0  0
  151.7481  140.5259  158.5617 C   0  0  2  0  0  0  0  0  0  0  0  0
  152.8367  139.7545  157.9563 N   0  0  0  0  0  0  0  0  0  0  0  0
  153.6669  138.9885  158.8770 C   0  0  0  0  0  0  0  0  0  0  0  0
  152.5089  139.0005  156.8827 C   0  0  0  0  0  0  0  0  0  0  0  0
  153.1674  139.2610  155.7256 N   0  0  0  0  0  0  0  0  0  0  0  0
  152.8727  138.5747  154.6177 C   0  0  0  0  0  0  0  0  0  0  0  0
  151.9747  137.6012  154.4527 N   0  0  0  0  0  0  0  0  0  0  0  0
  151.3307  137.3193  155.6212 C   0  0  0  0  0  0  0  0  0  0  0  0
  151.5407  137.9556  156.8769 C   0  0  0  0  0  0  0  0  0  0  0  0
  150.7152  137.3840  157.8387 N   0  0  0  0  0  0  0  0  0  0  0  0
  150.0381  136.4814  157.1837 C   0  0  0  0  0  0  0  0  0  0  0  0
  150.3383  136.3834  155.8444 N   0  0  0  0  0  0  0  0  0  0  0  0
  149.7315  135.4866  154.8790 C   0  0  0  0  0  0  0  0  0  0  0  0
  150.1491  134.0144  155.0795 C   0  0  1  0  0  0  0  0  0  0  0  0
  149.5576  133.5740  156.2853 O   0  0  0  0  0  0  0  0  0  0  0  0
  149.7298  133.0713  153.9294 C   0  0  2  0  0  0  0  0  0  0  0  0
  148.2455  133.1292  153.5678 C   0  0  0  0  0  0  0  0  0  0  0  0
  148.0273  131.8196  152.8343 C   0  0  0  0  0  0  0  0  0  0  0  0
  149.1104  130.9029  153.4075 C   0  0  0  0  0  0  0  0  0  0  0  0
  149.8647  131.7076  154.3067 O   0  0  0  0  0  0  0  0  0  0  0  0
  151.0121  141.5415  157.6455 C   0  0  0  0  0  0  0  0  0  0  0  0
  149.7001  141.1863  156.9339 C   0  0  0  0  0  0  0  0  0  0  0  0
  150.4303  141.2717  155.5899 C   0  0  0  0  0  0  0  0  0  0  0  0
  151.5709  142.0192  156.2891 C   0  0  0  0  0  0  0  0  0  0  0  0
  151.8198  145.6354  159.3639 H   0  0  0  0  0  0  0  0  0  0  0  0
  152.6066  144.2194  160.0598 H   0  0  0  0  0  0  0  0  0  0  0  0
  150.9196  144.5884  160.4614 H   0  0  0  0  0  0  0  0  0  0  0  0
  150.1276  142.3158  159.5009 H   0  0  0  0  0  0  0  0  0  0  0  0
  153.1773  142.1583  158.9834 H   0  0  0  0  0  0  0  0  0  0  0  0
  152.2855  141.5797  160.4449 H   0  0  0  0  0  0  0  0  0  0  0  0
  151.0541  139.9303  159.1562 H   0  0  0  0  0  0  0  0  0  0  0  0
  153.0798  138.2138  159.3721 H   0  0  0  0  0  0  0  0  0  0  0  0
  154.0894  139.6366  159.6449 H   0  0  0  0  0  0  0  0  0  0  0  0
  154.4982  138.5107  158.3566 H   0  0  0  0  0  0  0  0  0  0  0  0
  153.4325  138.8491  153.7358 H   0  0  0  0  0  0  0  0  0  0  0  0
  149.2885  135.8666  157.6603 H   0  0  0  0  0  0  0  0  0  0  0  0
  148.6480  135.5870  154.9572 H   0  0  0  0  0  0  0  0  0  0  0  0
  150.0046  135.8243  153.8781 H   0  0  0  0  0  0  0  0  0  0  0  0
  151.2305  133.9571  155.2090 H   0  0  0  0  0  0  0  0  0  0  0  0
  148.6703  133.8977  156.3188 H   0  0  0  0  0  0  0  0  0  0  0  0
  150.3337  133.2598  153.0396 H   0  0  0  0  0  0  0  0  0  0  0  0
  147.6376  133.1517  154.4736 H   0  0  0  0  0  0  0  0  0  0  0  0
  147.9870  133.9992  152.9634 H   0  0  0  0  0  0  0  0  0  0  0  0
  147.0214  131.4270  152.9860 H   0  0  0  0  0  0  0  0  0  0  0  0
  148.1798  131.9536  151.7624 H   0  0  0  0  0  0  0  0  0  0  0  0
  148.6863  130.0486  153.9353 H   0  0  0  0  0  0  0  0  0  0  0  0
  149.7595  130.5252  152.6166 H   0  0  0  0  0  0  0  0  0  0  0  0
  149.3032  140.1992  157.1691 H   0  0  0  0  0  0  0  0  0  0  0  0
  148.9392  141.9597  157.0454 H   0  0  0  0  0  0  0  0  0  0  0  0
  150.7260  140.2959  155.2047 H   0  0  0  0  0  0  0  0  0  0  0  0
  149.9079  141.8560  154.8322 H   0  0  0  0  0  0  0  0  0  0  0  0
  151.4936  143.0971  156.1452 H   0  0  0  0  0  0  0  0  0  0  0  0
  152.5693  141.6638  156.0371 H   0  0  0  0  0  0  0  0  0  0  0  0
  1  2  1  0  0  0  0
  1 29  1  0  0  0  0
  1 30  1  0  0  0  0
  1 31  1  0  0  0  0
  2  3  1  0  0  0  0
  3 25  1  0  0  0  0
  3  4  1  0  0  0  0
  3 32  1  0  0  0  0
  4  5  1  0  0  0  0
  4 33  1  0  0  0  0
  4 34  1  0  0  0  0
  5  6  1  0  0  0  0
  5 25  1  0  0  0  0
  5 35  1  0  0  0  0
  6  7  1  0  0  0  0
  6  8  1  0  0  0  0
  7 36  1  0  0  0  0
  7 37  1  0  0  0  0
  7 38  1  0  0  0  0
  8 13  1  0  0  0  0
  8  9  2  0  0  0  0
  9 10  1  0  0  0  0
 10 11  2  0  0  0  0
 10 39  1  0  0  0  0
 11 12  1  0  0  0  0
 12 16  1  0  0  0  0
 12 13  2  0  0  0  0
 13 14  1  0  0  0  0
 14 15  2  0  0  0  0
 15 16  1  0  0  0  0
 15 40  1  0  0  0  0
 16 17  1  0  0  0  0
 17 18  1  0  0  0  0
 17 41  1  0  0  0  0
 17 42  1  0  0  0  0
 18 19  1  0  0  0  0
 18 20  1  0  0  0  0
 18 43  1  0  0  0  0
 19 44  1  0  0  0  0
 20 24  1  0  0  0  0
 20 21  1  0  0  0  0
 20 45  1  0  0  0  0
 21 22  1  0  0  0  0
 21 46  1  0  0  0  0
 21 47  1  0  0  0  0
 22 23  1  0  0  0  0
 22 48  1  0  0  0  0
 22 49  1  0  0  0  0
 23 24  1  0  0  0  0
 23 50  1  0  0  0  0
 23 51  1  0  0  0  0
 25 28  1  0  0  0  0
 25 26  1  0  0  0  0
 26 27  1  0  0  0  0
 26 52  1  0  0  0  0
 26 53  1  0  0  0  0
 27 28  1  0  0  0  0
 27 54  1  0  0  0  0
 27 55  1  0  0  0  0
 28 56  1  0  0  0  0
 28 57  1  0  0  0  0
M  END
> <s_m_source_file>
AV-unprocessed.smi

> <i_m_source_file_index>
276

> <i_lp_mmshare_version>
43012

> <i_f3d_flags>
0

> <s_epik_input>
W0NIMl0xW0NIMl1bQ0gyXUMxMltDQEhdKE9bQ0gzXSlbQ0gyXVtDQEhdMk4oW0NIM10pYyhuW2NIXW4zKWMoYzM0KW5bY0hdbjRbQ0gyXVtDQEhdKFtPSF0pW0NAQEhdNVtDSDJdW0NIMl1bQ0gyXU81

> <s_epik_cmdline>
J2VwaWtfcHl0aG9uJywgJy1waCcsICc3LjAnLCAnLXRuJywgJzgnLCAnLW1hJywgJzIwMCcsICctbWV0YWxfYmluZGluZycsICctaW1hZScsICc8aW5maWxlLm1hZT4nLCAnLW9tYWUnLCAnPG91dGZpbGUubWFlPic=

> <r_lp_tautomer_probability>
1

> <r_epik_Ionization_Penalty>
0.00204117

> <r_epik_Ionization_Penalty_Charging>
0

> <r_epik_Ionization_Penalty_Neutral>
0.00204117

> <r_epik_State_Penalty>
0.00127401

> <r_epik_Charging_Adjusted_Penalty>
0.00127401

> <i_epik_Tot_Q>
0

> <i_epik_Tot_abs_Q>
0

> <r_epik_Metal_State_Penalty>
-0

> <b_epik_Metal_Only>
0

> <s_lp_Force_Field>
OPLS_2005

> <r_lp_Energy>
54.0539

> <b_lp_Chiralities_Consistent>
1

> <s_lp_Variant>
AV-unprocessed.smi:276-7

> <Gold.Version>
5.8.1

> <Gold.Id.Protein>
6NUR|6NUR_protein|mol2

> <Gold.PLP.Fitness>
47.2378

> <Gold.PLP.PLP>
-42.4730

> <Gold.PLP.part.hbond>
-3.0000

> <Gold.PLP.part.metal>
0.0000

> <Gold.PLP.part.buried>
-7.9349

> <Gold.PLP.part.nonpolar>
-31.0860

> <Gold.PLP.part.repulsive>
0.2625

> <Gold.PLP.ligand.clash>
0.0000

> <Gold.PLP.ligand.torsion>
0.7479

> <Gold.PLP.Chemscore.Hbond>
1.8580

> <Gold.PLP.Chemscore.CHOScore>
0.0000

> <Gold.PLP.Chemscore.Metal>
0.0000

> <Gold.Chemscore.Hbonds>
donor molecule, donor type, donor heavy atom, donor atom, acceptor molecule, acceptor atom, score
      P1  H  7997  8008       L1     9  1.00
      P1  H 10752 10765       L1    11  0.53

> <Gold.PLP.Chemscore.Internal.Correction>
0.6865

> <Gold.Rescore>
     Score         DG    S(hbond)    S(metal)    S(lipo)     H(rot)  DE(clash)    DE(int)     intcor
     15.91     -17.37       2.29        0.00      95.72       2.72       0.68       0.78       ----

> <Gold.Chemscore.Fitness>
15.9149

> <Gold.Chemscore.DG>
-17.3742

> <Gold.Chemscore.ZeroCoef>
-5.4800

> <Gold.Chemscore.Hbond>
2.2906

> <Gold.Chemscore.Metal>
0.0000

> <Gold.Chemscore.Lipo>
95.7237

> <Gold.Chemscore.Internal_Hbond>
0.0000

> <Gold.Chemscore.DEClash>
0.6792

> <Gold.Chemscore.DEInternal>
0.7801

> <Gold.Chemscore.Rot>
2.7172

> <Gold.Chemscore.Internal.Correction>
   9.000000E+99

> <Gold.Chemscore.Hbonds>
donor molecule, donor type, donor heavy atom, donor atom, acceptor molecule, acceptor atom, score
      P1  H  7997  8008       L1     9  0.67
      P1  H 10752 10765       L1    11  0.09

> <Gold.Chemscore.Hbond.Weighted>
-7.6505

> <Gold.Chemscore.Metal.Weighted>
-0.0000

> <Gold.Chemscore.Lipo.Weighted>
-11.1997

> <Gold.Chemscore.Internal_Hbond.Weighted>
0.0000

> <Gold.Chemscore.DEClash.Weighted>
0.6792

> <Gold.Chemscore.DEInternal.Weighted>
0.7801

> <Gold.Chemscore.Rot.Weighted>
6.9560

> <Gold.Chemscore.Internal.Correction.Weighted>
   9.000000E+99

> <Gold.Protein.RotatedTorsions>
[ 6907 6896 6895 6894 ] final  118.09 input  -60.11 | X-H torsion
[ 7974 7965 7964 7962 ] final   22.52 input  175.53 | X-H torsion
[ 8008 7997 7996 7995 ] final  -25.24 input   59.86 | X-H torsion
[ 10167 10162 10161 10158 ] final   38.56 input  -65.29 | X-H torsion
[ 10718 10713 10712 10709 ] final  -56.20 input   66.30 | X-H torsion
[ 10763 10752 10751 10750 ] final  154.49 input  -60.55 | X-H torsion
[ 11005 11000 10999 10996 ] final -125.20 input  -57.11 | X-H torsion

> <Gold.Protein.ActiveResidues>
 VAL166  LYS551  ARG553  GLY616  TRP617  ASP618  TYR619  PRO620  LYS621  CYS622 
 ASP623  PHE694  ASN695  SER759  ASP760  ASP761  ALA762  ILE779  LEU786  VAL792 
 PHE793  MET794  SER795  GLU796  ALA797  LYS798  CYS799  TRP800  GLU811  SER814 

> <Gold.Protein.RotatedAtoms>
  152.4567  133.7737  159.6812 H   0  0  0  0  0  0  0  0  0  0  0  0  # atno 6907 bound_to 6896
  150.8496  133.7798  159.3037 H   0  0  0  0  0  0  0  0  0  0  0  0  # atno 6908 bound_to 6896
  151.5398  135.1071  159.9975 H   0  0  0  0  0  0  0  0  0  0  0  0  # atno 6909 bound_to 6896
  146.2025  139.7874  142.8751 H   0  0  0  0  0  0  0  0  0  0  0  0  # atno 7974 bound_to 7965
  154.4486  140.1932  156.0589 H   0  0  0  0  0  0  0  0  0  0  0  0  # atno 8008 bound_to 7997
  156.0598  140.3298  155.7421 H   0  0  0  0  0  0  0  0  0  0  0  0  # atno 8009 bound_to 7997
  155.5429  140.0588  157.2857 H   0  0  0  0  0  0  0  0  0  0  0  0  # atno 8010 bound_to 7997
  140.3925  144.1834  150.6131 H   0  0  0  0  0  0  0  0  0  0  0  0  # atno 10167 bound_to 10162
  156.1307  130.4159  150.0273 H   0  0  0  0  0  0  0  0  0  0  0  0  # atno 10718 bound_to 10713
  154.1531  135.2814  155.3130 H   0  0  0  0  0  0  0  0  0  0  0  0  # atno 10763 bound_to 10752
  154.6203  135.5469  153.7571 H   0  0  0  0  0  0  0  0  0  0  0  0  # atno 10764 bound_to 10752
  153.0215  135.6437  154.1674 H   0  0  0  0  0  0  0  0  0  0  0  0  # atno 10765 bound_to 10752
  140.9781  134.0712  157.3796 H   0  0  0  0  0  0  0  0  0  0  0  0  # atno 11005 bound_to 11000
  145.3434  141.0292  143.3379 LP  0  0  0  0  0  0  0  0  0  0  0  0  # atno 17320 bound_to 7965
  144.8716  139.5030  143.6765 LP  0  0  0  0  0  0  0  0  0  0  0  0  # atno 17321 bound_to 7965
  140.4825  143.2374  151.8935 LP  0  0  0  0  0  0  0  0  0  0  0  0  # atno 17342 bound_to 10162
  139.4788  144.5254  151.8743 LP  0  0  0  0  0  0  0  0  0  0  0  0  # atno 17343 bound_to 10162
  156.8186  130.9351  151.3642 LP  0  0  0  0  0  0  0  0  0  0  0  0  # atno 17370 bound_to 10713
  157.6485  130.8864  149.9586 LP  0  0  0  0  0  0  0  0  0  0  0  0  # atno 17371 bound_to 10713
  139.8939  135.0133  156.6922 LP  0  0  0  0  0  0  0  0  0  0  0  0  # atno 17394 bound_to 11000
  140.7228  133.9126  155.8158 LP  0  0  0  0  0  0  0  0  0  0  0  0  # atno 17395 bound_to 11000

$$$$
