AV-unprocessed.smi:2822|AV-procd|sdf|10870|dock2
  -GOLD-   2272015313D 1   1.00000     0.00000
 Structure written by MMmdl.
 40 42  0  0  0  0  0  0  0  0  2 V2000
  147.7831  133.1852  152.4541 Cl  0  0  0  0  0  0  0  0  0  0  0  0
  146.4323  133.3587  151.3882 C   0  0  0  0  0  0  0  0  0  0  0  0
  146.0034  132.2575  150.6187 C   0  0  0  0  0  0  0  0  0  0  0  0
  144.9603  132.3082  149.7642 N   0  0  0  0  0  0  0  0  0  0  0  0
  144.2999  133.4790  149.6481 C   0  0  0  0  0  0  0  0  0  0  0  0
  144.6450  134.6397  150.3691 C   0  0  0  0  0  0  0  0  0  0  0  0
  145.7396  134.5853  151.2642 C   0  0  0  0  0  0  0  0  0  0  0  0
  146.1498  135.6925  152.0229 N   0  0  0  0  0  0  0  0  0  0  0  0
  145.2810  136.8488  152.1796 C   0  0  0  0  0  0  0  0  0  0  0  0
  145.9580  137.9603  152.9937 C   0  0  2  0  0  0  0  0  0  0  0  0
  146.8790  138.8270  152.1058 C   0  0  0  0  0  0  0  0  0  0  0  0
  147.6350  139.8196  152.9073 N   0  3  1  0  0  0  0  0  0  0  0  0
  146.8200  140.9961  153.3157 C   0  0  0  0  0  0  0  0  0  0  0  0
  147.6674  142.0233  154.0803 C   0  0  0  0  0  0  0  0  0  0  0  0
  148.3259  141.3767  155.3039 C   0  0  0  0  0  0  0  0  0  0  0  0
  149.1642  140.1682  154.8659 C   0  0  0  0  0  0  0  0  0  0  0  0
  148.3507  139.1558  154.0319 C   0  0  1  0  0  0  0  0  0  0  0  0
  147.3767  138.2965  154.8654 C   0  0  0  0  0  0  0  0  0  0  0  0
  146.7442  137.3489  154.0129 O   0  0  0  0  0  0  0  0  0  0  0  0
  146.5120  131.3075  150.6914 H   0  0  0  0  0  0  0  0  0  0  0  0
  143.4680  133.4923  148.9598 H   0  0  0  0  0  0  0  0  0  0  0  0
  144.0672  135.5399  150.2256 H   0  0  0  0  0  0  0  0  0  0  0  0
  147.1315  135.7953  152.2389 H   0  0  0  0  0  0  0  0  0  0  0  0
  144.9870  137.2266  151.1994 H   0  0  0  0  0  0  0  0  0  0  0  0
  144.3725  136.5295  152.6917 H   0  0  0  0  0  0  0  0  0  0  0  0
  145.1857  138.5824  153.4489 H   0  0  0  0  0  0  0  0  0  0  0  0
  147.5983  138.1867  151.5931 H   0  0  0  0  0  0  0  0  0  0  0  0
  146.3062  139.3316  151.3267 H   0  0  0  0  0  0  0  0  0  0  0  0
  146.3957  141.4656  152.4276 H   0  0  0  0  0  0  0  0  0  0  0  0
  145.9788  140.6849  153.9352 H   0  0  0  0  0  0  0  0  0  0  0  0
  148.4342  142.4326  153.4210 H   0  0  0  0  0  0  0  0  0  0  0  0
  147.0452  142.8629  154.3914 H   0  0  0  0  0  0  0  0  0  0  0  0
  148.9561  142.1028  155.8185 H   0  0  0  0  0  0  0  0  0  0  0  0
  147.5626  141.0663  156.0183 H   0  0  0  0  0  0  0  0  0  0  0  0
  150.0050  140.5239  154.2684 H   0  0  0  0  0  0  0  0  0  0  0  0
  149.6006  139.6774  155.7365 H   0  0  0  0  0  0  0  0  0  0  0  0
  149.0701  138.4685  153.5837 H   0  0  0  0  0  0  0  0  0  0  0  0
  147.9211  137.7547  155.6390 H   0  0  0  0  0  0  0  0  0  0  0  0
  146.6275  138.9036  155.3749 H   0  0  0  0  0  0  0  0  0  0  0  0
  148.3499  140.1912  152.2979 H   0  0  0  0  0  0  0  0  0  0  0  0
  1  2  1  0  0  0  0
  2  7  1  0  0  0  0
  2  3  2  0  0  0  0
  3  4  1  0  0  0  0
  3 20  1  0  0  0  0
  4  5  2  0  0  0  0
  5  6  1  0  0  0  0
  5 21  1  0  0  0  0
  6  7  2  0  0  0  0
  6 22  1  0  0  0  0
  7  8  1  0  0  0  0
  8  9  1  0  0  0  0
  8 23  1  0  0  0  0
  9 10  1  0  0  0  0
  9 24  1  0  0  0  0
  9 25  1  0  0  0  0
 10 19  1  0  0  0  0
 10 11  1  0  0  0  0
 10 26  1  0  0  0  0
 11 12  1  0  0  0  0
 11 27  1  0  0  0  0
 11 28  1  0  0  0  0
 12 17  1  0  0  0  0
 12 13  1  0  0  0  0
 12 40  1  0  0  0  0
 13 14  1  0  0  0  0
 13 29  1  0  0  0  0
 13 30  1  0  0  0  0
 14 15  1  0  0  0  0
 14 31  1  0  0  0  0
 14 32  1  0  0  0  0
 15 16  1  0  0  0  0
 15 33  1  0  0  0  0
 15 34  1  0  0  0  0
 16 17  1  0  0  0  0
 16 35  1  0  0  0  0
 16 36  1  0  0  0  0
 17 18  1  0  0  0  0
 17 37  1  0  0  0  0
 18 19  1  0  0  0  0
 18 38  1  0  0  0  0
 18 39  1  0  0  0  0
M  CHG  1  12   1
M  END
> <s_m_source_file>
AV-unprocessed.smi

> <i_m_source_file_index>
2822

> <i_lp_mmshare_version>
43012

> <i_f3d_flags>
0

> <s_epik_input>
Q2xjMVtjSF1uW2NIXVtjSF1jMVtOSF1bQ0gyXVtDQEhdKFtDSDJdMilPW0NIMl1bQ0BASF0oTjIzKVtDSDJdW0NIMl1bQ0gyXVtDSDJdMw==

> <s_epik_cmdline>
J2VwaWtfcHl0aG9uJywgJy1waCcsICc3LjAnLCAnLXRuJywgJzgnLCAnLW1hJywgJzIwMCcsICctbWV0YWxfYmluZGluZycsICctaW1hZScsICc8aW5maWxlLm1hZT4nLCAnLW9tYWUnLCAnPG91dGZpbGUubWFlPic=

> <r_lp_tautomer_probability>
0.999999

> <r_epik_Ionization_Penalty>
0.88937

> <r_epik_Ionization_Penalty_Charging>
0.0803403

> <r_epik_Ionization_Penalty_Neutral>
0.80903

> <r_epik_State_Penalty>
0.931884

> <r_epik_Charging_Adjusted_Penalty>
1.01222

> <i_epik_Tot_Q>
1

> <i_epik_Tot_abs_Q>
1

> <r_epik_Metal_State_Penalty>
0.0782275

> <b_epik_Metal_Only>
0

> <s_lp_Force_Field>
OPLS_2005

> <r_lp_Energy>
32.5478

> <b_lp_Chiralities_Consistent>
1

> <s_lp_Variant>
AV-unprocessed.smi:2822-11

> <Gold.Version>
5.8.1

> <Gold.Id.Protein>
6NUR|6NUR_protein|mol2

> <Gold.PLP.Fitness>
46.8737

> <Gold.PLP.PLP>
-35.4816

> <Gold.PLP.part.hbond>
-2.0000

> <Gold.PLP.part.metal>
0.0000

> <Gold.PLP.part.buried>
-3.3967

> <Gold.PLP.part.nonpolar>
-31.2943

> <Gold.PLP.part.repulsive>
0.3774

> <Gold.PLP.ligand.clash>
0.0000

> <Gold.PLP.ligand.torsion>
0.3008

> <Gold.PLP.Chemscore.Hbond>
2.0000

> <Gold.PLP.Chemscore.CHOScore>
1.9977

> <Gold.PLP.Chemscore.Metal>
0.0000

> <Gold.Chemscore.Hbonds>
donor molecule, donor type, donor heavy atom, donor atom, acceptor molecule, acceptor atom, score
      L1  H     8    23       P1  7948  1.00
      L1  H    12    40       P1  7957  1.00
      L1  C     3    20       P1 10747  0.94
      L1  C     5    21       P1 10186  0.54

> <Gold.PLP.Chemscore.Internal.Correction>
0.0007

> <Gold.Rescore>
     Score         DG    S(hbond)    S(metal)    S(lipo)     H(rot)  DE(clash)    DE(int)     intcor
     19.54     -20.05       1.91        0.00      95.69       1.17       0.21       0.31       ----

> <Gold.Chemscore.Fitness>
19.5378

> <Gold.Chemscore.DG>
-20.0519

> <Gold.Chemscore.ZeroCoef>
-5.4800

> <Gold.Chemscore.Hbond>
1.9071

> <Gold.Chemscore.Metal>
0.0000

> <Gold.Chemscore.Lipo>
95.6876

> <Gold.Chemscore.Internal_Hbond>
0.0000

> <Gold.Chemscore.DEClash>
0.2056

> <Gold.Chemscore.DEInternal>
0.3085

> <Gold.Chemscore.Rot>
1.1693

> <Gold.Chemscore.Internal.Correction>
   9.000000E+99

> <Gold.Chemscore.Hbonds>
donor molecule, donor type, donor heavy atom, donor atom, acceptor molecule, acceptor atom, score
      L1  H     8    23       P1  7948  0.97
      L1  H    12    40       P1  7957  0.97

> <Gold.Chemscore.Hbond.Weighted>
-6.3698

> <Gold.Chemscore.Metal.Weighted>
-0.0000

> <Gold.Chemscore.Lipo.Weighted>
-11.1954

> <Gold.Chemscore.Internal_Hbond.Weighted>
0.0000

> <Gold.Chemscore.DEClash.Weighted>
0.2056

> <Gold.Chemscore.DEInternal.Weighted>
0.3085

> <Gold.Chemscore.Rot.Weighted>
2.9934

> <Gold.Chemscore.Internal.Correction.Weighted>
   9.000000E+99

> <Gold.Protein.RotatedTorsions>
[ 6907 6896 6895 6894 ] final   -3.32 input  -60.11 | X-H torsion
[ 7974 7965 7964 7962 ] final   75.31 input  175.53 | X-H torsion
[ 8008 7997 7996 7995 ] final    6.56 input   59.86 | X-H torsion
[ 10167 10162 10161 10158 ] final   71.96 input  -65.29 | X-H torsion
[ 10718 10713 10712 10709 ] final  104.45 input   66.30 | X-H torsion
[ 10763 10752 10751 10750 ] final   82.91 input  -60.55 | X-H torsion
[ 11005 11000 10999 10996 ] final -124.25 input  -57.11 | X-H torsion

> <Gold.Protein.ActiveResidues>
 VAL166  LYS551  ARG553  GLY616  TRP617  ASP618  TYR619  PRO620  LYS621  CYS622 
 ASP623  PHE694  ASN695  SER759  ASP760  ASP761  ALA762  ILE779  LEU786  VAL792 
 PHE793  MET794  SER795  GLU796  ALA797  LYS798  CYS799  TRP800  GLU811  SER814 

> <Gold.Protein.RotatedAtoms>
  151.5157  135.1066  159.9865 H   0  0  0  0  0  0  0  0  0  0  0  0  # atno 6907 bound_to 6896
  152.4642  133.7884  159.6899 H   0  0  0  0  0  0  0  0  0  0  0  0  # atno 6908 bound_to 6896
  150.8618  133.7568  159.3015 H   0  0  0  0  0  0  0  0  0  0  0  0  # atno 6909 bound_to 6896
  145.7172  139.2635  143.1617 H   0  0  0  0  0  0  0  0  0  0  0  0  # atno 7974 bound_to 7965
  154.7426  140.2751  155.6360 H   0  0  0  0  0  0  0  0  0  0  0  0  # atno 8008 bound_to 7997
  156.2877  140.2694  156.2083 H   0  0  0  0  0  0  0  0  0  0  0  0  # atno 8009 bound_to 7997
  155.0239  140.0371  157.2438 H   0  0  0  0  0  0  0  0  0  0  0  0  # atno 8010 bound_to 7997
  140.0405  144.5393  150.7438 H   0  0  0  0  0  0  0  0  0  0  0  0  # atno 10167 bound_to 10162
  157.6739  131.0804  150.5708 H   0  0  0  0  0  0  0  0  0  0  0  0  # atno 10718 bound_to 10713
  153.1244  135.4710  154.9249 H   0  0  0  0  0  0  0  0  0  0  0  0  # atno 10763 bound_to 10752
  154.7606  135.3130  154.8387 H   0  0  0  0  0  0  0  0  0  0  0  0  # atno 10764 bound_to 10752
  153.8944  135.6881  153.4812 H   0  0  0  0  0  0  0  0  0  0  0  0  # atno 10765 bound_to 10752
  140.9856  134.0612  157.3715 H   0  0  0  0  0  0  0  0  0  0  0  0  # atno 11005 bound_to 11000
  146.0659  140.7921  142.9712 LP  0  0  0  0  0  0  0  0  0  0  0  0  # atno 17320 bound_to 7965
  144.6926  140.3268  143.7223 LP  0  0  0  0  0  0  0  0  0  0  0  0  # atno 17321 bound_to 7965
  140.7262  143.2639  151.4111 LP  0  0  0  0  0  0  0  0  0  0  0  0  # atno 17342 bound_to 10162
  139.6017  144.1281  152.2205 LP  0  0  0  0  0  0  0  0  0  0  0  0  # atno 17343 bound_to 10162
  156.6010  130.4354  149.5897 LP  0  0  0  0  0  0  0  0  0  0  0  0  # atno 17370 bound_to 10713
  156.2507  130.6905  151.1641 LP  0  0  0  0  0  0  0  0  0  0  0  0  # atno 17371 bound_to 10713
  139.8969  135.0148  156.7074 LP  0  0  0  0  0  0  0  0  0  0  0  0  # atno 17394 bound_to 11000
  140.7120  133.9215  155.8090 LP  0  0  0  0  0  0  0  0  0  0  0  0  # atno 17395 bound_to 11000

$$$$
