AV-unprocessed.smi:2510|AV-procd|sdf|9882|dock3
  -GOLD-   2272013513D 1   1.00000     0.00000
 Structure written by MMmdl.
 48 49  0  0  0  0  0  0  0  0  1 V2000
  147.2738  141.7502  154.0906 C   0  0  0  0  0  0  0  0  0  0  0  0
  148.5630  140.9915  153.7272 C   0  0  0  0  0  0  0  0  0  0  0  0
  149.0816  139.9386  154.7476 C   0  0  0  0  0  0  0  0  0  0  0  0
  149.1418  140.6528  156.1202 C   0  0  0  0  0  0  0  0  0  0  0  0
  150.2205  141.7442  156.2381 C   0  0  0  0  0  0  0  0  0  0  0  0
  148.3816  138.5473  154.8024 C   0  0  1  0  0  0  0  0  0  0  0  0
  147.7728  138.1377  153.5386 N   0  0  0  0  0  0  0  0  0  0  0  0
  146.4570  138.1180  153.2764 C   0  0  0  0  0  0  0  0  0  0  0  0
  145.6030  138.4808  154.0847 O   0  0  0  0  0  0  0  0  0  0  0  0
  146.0334  137.6372  151.8837 C   0  0  0  0  0  0  0  0  0  0  0  0
  145.7297  136.1702  151.8589 C   0  0  0  0  0  0  0  0  0  0  0  0
  144.5706  135.4900  151.6085 C   0  0  0  0  0  0  0  0  0  0  0  0
  144.9243  134.1183  151.7688 C   0  0  0  0  0  0  0  0  0  0  0  0
  144.0444  132.9118  151.6244 C   0  0  0  0  0  0  0  0  0  0  0  0
  146.2004  133.9591  152.0866 N   0  0  0  0  0  0  0  0  0  0  0  0
  146.6817  135.2148  152.1358 N   0  0  0  0  0  0  0  0  0  0  0  0
  149.7516  137.8766  155.0127 C   0  0  1  0  0  0  0  0  0  0  0  0
  150.0383  136.5005  154.4132 C   0  0  0  0  0  0  0  0  0  0  0  0
  150.3606  139.1346  154.3752 C   0  0  2  0  0  0  0  0  0  0  0  0
  151.5264  139.6336  155.0148 O   0  0  0  0  0  0  0  0  0  0  0  0
  152.6742  138.8341  154.7893 C   0  0  0  0  0  0  0  0  0  0  0  0
  147.6490  135.4027  152.3594 H   0  0  0  0  0  0  0  0  0  0  0  0
  147.0398  142.4870  153.3222 H   0  0  0  0  0  0  0  0  0  0  0  0
  147.3554  142.2862  155.0351 H   0  0  0  0  0  0  0  0  0  0  0  0
  146.4209  141.0742  154.1552 H   0  0  0  0  0  0  0  0  0  0  0  0
  148.3757  140.5233  152.7602 H   0  0  0  0  0  0  0  0  0  0  0  0
  149.3463  141.7256  153.5359 H   0  0  0  0  0  0  0  0  0  0  0  0
  148.1816  141.1161  156.3482 H   0  0  0  0  0  0  0  0  0  0  0  0
  149.2925  139.9234  156.9172 H   0  0  0  0  0  0  0  0  0  0  0  0
  150.1704  142.2249  157.2153 H   0  0  0  0  0  0  0  0  0  0  0  0
  150.0942  142.5227  155.4864 H   0  0  0  0  0  0  0  0  0  0  0  0
  151.2255  141.3368  156.1310 H   0  0  0  0  0  0  0  0  0  0  0  0
  147.7294  138.4064  155.6653 H   0  0  0  0  0  0  0  0  0  0  0  0
  148.4022  137.8261  152.8129 H   0  0  0  0  0  0  0  0  0  0  0  0
  145.1557  138.1986  151.5608 H   0  0  0  0  0  0  0  0  0  0  0  0
  146.8313  137.8717  151.1780 H   0  0  0  0  0  0  0  0  0  0  0  0
  143.6081  135.9109  151.3577 H   0  0  0  0  0  0  0  0  0  0  0  0
  143.0081  133.1992  151.4458 H   0  0  0  0  0  0  0  0  0  0  0  0
  144.0671  132.2980  152.5253 H   0  0  0  0  0  0  0  0  0  0  0  0
  144.3652  132.2904  150.7879 H   0  0  0  0  0  0  0  0  0  0  0  0
  149.9698  137.8694  156.0819 H   0  0  0  0  0  0  0  0  0  0  0  0
  150.0051  136.5177  153.3234 H   0  0  0  0  0  0  0  0  0  0  0  0
  149.3092  135.7644  154.7526 H   0  0  0  0  0  0  0  0  0  0  0  0
  151.0249  136.1395  154.7027 H   0  0  0  0  0  0  0  0  0  0  0  0
  150.5011  138.9988  153.3023 H   0  0  0  0  0  0  0  0  0  0  0  0
  153.5379  139.2943  155.2689 H   0  0  0  0  0  0  0  0  0  0  0  0
  152.8904  138.7434  153.7241 H   0  0  0  0  0  0  0  0  0  0  0  0
  152.5530  137.8361  155.2099 H   0  0  0  0  0  0  0  0  0  0  0  0
  1  2  1  0  0  0  0
  1 23  1  0  0  0  0
  1 24  1  0  0  0  0
  1 25  1  0  0  0  0
  2  3  1  0  0  0  0
  2 26  1  0  0  0  0
  2 27  1  0  0  0  0
  3 19  1  0  0  0  0
  3  4  1  0  0  0  0
  3  6  1  0  0  0  0
  4  5  1  0  0  0  0
  4 28  1  0  0  0  0
  4 29  1  0  0  0  0
  5 30  1  0  0  0  0
  5 31  1  0  0  0  0
  5 32  1  0  0  0  0
  6  7  1  0  0  0  0
  6 17  1  0  0  0  0
  6 33  1  0  0  0  0
  7  8  1  0  0  0  0
  7 34  1  0  0  0  0
  8  9  2  0  0  0  0
  8 10  1  0  0  0  0
 10 35  1  0  0  0  0
 10 36  1  0  0  0  0
 10 11  1  0  0  0  0
 11 16  1  0  0  0  0
 11 12  2  0  0  0  0
 12 13  1  0  0  0  0
 12 37  1  0  0  0  0
 13 14  1  0  0  0  0
 13 15  2  0  0  0  0
 14 38  1  0  0  0  0
 14 39  1  0  0  0  0
 14 40  1  0  0  0  0
 15 16  1  0  0  0  0
 16 22  1  0  0  0  0
 17 18  1  0  0  0  0
 17 19  1  0  0  0  0
 17 41  1  0  0  0  0
 18 42  1  0  0  0  0
 18 43  1  0  0  0  0
 18 44  1  0  0  0  0
 19 20  1  0  0  0  0
 19 45  1  0  0  0  0
 20 21  1  0  0  0  0
 21 46  1  0  0  0  0
 21 47  1  0  0  0  0
 21 48  1  0  0  0  0
M  END
> <s_m_source_file>
AV-unprocessed.smi

> <i_m_source_file_index>
2510

> <i_lp_mmshare_version>
43012

> <i_f3d_flags>
0

> <s_epik_input>
W0NIM11PW0NAQEhdMVtDQEhdKFtDSDNdKVtDQEBIXShDMShbQ0gyXVtDSDNdKVtDSDJdW0NIM10pW05IXUMoPU8pW0NIMl1jMltjSF1jKFtDSDNdKVtuSF1uMg==

> <s_epik_cmdline>
J2VwaWtfcHl0aG9uJywgJy1waCcsICc3LjAnLCAnLXRuJywgJzgnLCAnLW1hJywgJzIwMCcsICctbWV0YWxfYmluZGluZycsICctaW1hZScsICc8aW5maWxlLm1hZT4nLCAnLW9tYWUnLCAnPG91dGZpbGUubWFlPic=

> <r_lp_tautomer_probability>
0.5

> <r_epik_Ionization_Penalty>
0.000134763

> <r_epik_Ionization_Penalty_Charging>
0

> <r_epik_Ionization_Penalty_Neutral>
0.000134763

> <r_epik_State_Penalty>
0.41068

> <r_epik_Charging_Adjusted_Penalty>
0.41068

> <i_epik_Tot_Q>
0

> <i_epik_Tot_abs_Q>
0

> <r_epik_Metal_State_Penalty>
0.410661

> <b_epik_Metal_Only>
0

> <s_lp_Force_Field>
OPLS_2005

> <r_lp_Energy>
26.4004

> <b_lp_Chiralities_Consistent>
1

> <s_lp_Variant>
AV-unprocessed.smi:2510-13

> <Gold.Version>
5.8.1

> <Gold.Id.Protein>
6NUR|6NUR_protein|mol2

> <Gold.PLP.Fitness>
37.3070

> <Gold.PLP.PLP>
-32.0486

> <Gold.PLP.part.hbond>
-3.0000

> <Gold.PLP.part.metal>
0.0000

> <Gold.PLP.part.buried>
0.4693

> <Gold.PLP.part.nonpolar>
-31.2968

> <Gold.PLP.part.repulsive>
0.4265

> <Gold.PLP.ligand.clash>
0.0000

> <Gold.PLP.ligand.torsion>
0.9092

> <Gold.PLP.Chemscore.Hbond>
2.1580

> <Gold.PLP.Chemscore.CHOScore>
0.0000

> <Gold.PLP.Chemscore.Metal>
0.0000

> <Gold.Chemscore.Hbonds>
donor molecule, donor type, donor heavy atom, donor atom, acceptor molecule, acceptor atom, score
      L1  H     7    34       P1  7948  0.86
      L1  H    16    22       P1  7948  0.85
      P1  H  7989  7998       L1    20  0.30

> <Gold.PLP.Chemscore.Internal.Correction>
0.6028

> <Gold.Rescore>
     Score         DG    S(hbond)    S(metal)    S(lipo)     H(rot)  DE(clash)    DE(int)     intcor
     14.26     -16.11       1.65        0.00      83.45       1.81       0.26       1.59       ----

> <Gold.Chemscore.Fitness>
14.2567

> <Gold.Chemscore.DG>
-16.1106

> <Gold.Chemscore.ZeroCoef>
-5.4800

> <Gold.Chemscore.Hbond>
1.6470

> <Gold.Chemscore.Metal>
0.0000

> <Gold.Chemscore.Lipo>
83.4489

> <Gold.Chemscore.Internal_Hbond>
0.0000

> <Gold.Chemscore.DEClash>
0.2631

> <Gold.Chemscore.DEInternal>
1.5908

> <Gold.Chemscore.Rot>
1.8102

> <Gold.Chemscore.Internal.Correction>
   9.000000E+99

> <Gold.Chemscore.Hbonds>
donor molecule, donor type, donor heavy atom, donor atom, acceptor molecule, acceptor atom, score
      L1  H     7    34       P1  7948  0.85
      L1  H    16    22       P1  7948  0.82

> <Gold.Chemscore.Hbond.Weighted>
-5.5011

> <Gold.Chemscore.Metal.Weighted>
-0.0000

> <Gold.Chemscore.Lipo.Weighted>
-9.7635

> <Gold.Chemscore.Internal_Hbond.Weighted>
0.0000

> <Gold.Chemscore.DEClash.Weighted>
0.2631

> <Gold.Chemscore.DEInternal.Weighted>
1.5908

> <Gold.Chemscore.Rot.Weighted>
4.6341

> <Gold.Chemscore.Internal.Correction.Weighted>
   9.000000E+99

> <Gold.Protein.RotatedTorsions>
[ 6907 6896 6895 6894 ] final  -13.09 input  -60.11 | X-H torsion
[ 7974 7965 7964 7962 ] final  -25.10 input  175.53 | X-H torsion
[ 8008 7997 7996 7995 ] final  116.72 input   59.86 | X-H torsion
[ 10167 10162 10161 10158 ] final -158.98 input  -65.29 | X-H torsion
[ 10718 10713 10712 10709 ] final -116.52 input   66.30 | X-H torsion
[ 10763 10752 10751 10750 ] final  150.17 input  -60.55 | X-H torsion
[ 11005 11000 10999 10996 ] final  152.39 input  -57.11 | X-H torsion

> <Gold.Protein.ActiveResidues>
 VAL166  LYS551  ARG553  GLY616  TRP617  ASP618  TYR619  PRO620  LYS621  CYS622 
 ASP623  PHE694  ASN695  SER759  ASP760  ASP761  ALA762  ILE779  LEU786  VAL792 
 PHE793  MET794  SER795  GLU796  ALA797  LYS798  CYS799  TRP800  GLU811  SER814 

> <Gold.Protein.RotatedAtoms>
  151.3604  135.0903  159.9432 H   0  0  0  0  0  0  0  0  0  0  0  0  # atno 6907 bound_to 6896
  152.5163  133.9264  159.7569 H   0  0  0  0  0  0  0  0  0  0  0  0  # atno 6908 bound_to 6896
  150.9657  133.6343  159.2776 H   0  0  0  0  0  0  0  0  0  0  0  0  # atno 6909 bound_to 6896
  146.1513  140.4840  142.8610 H   0  0  0  0  0  0  0  0  0  0  0  0  # atno 7974 bound_to 7965
  156.2455  140.2911  156.0566 H   0  0  0  0  0  0  0  0  0  0  0  0  # atno 8008 bound_to 7997
  155.1822  140.0404  157.2901 H   0  0  0  0  0  0  0  0  0  0  0  0  # atno 8009 bound_to 7997
  154.6252  140.2486  155.7507 H   0  0  0  0  0  0  0  0  0  0  0  0  # atno 8010 bound_to 7997
  139.6650  143.9845  152.2249 H   0  0  0  0  0  0  0  0  0  0  0  0  # atno 10167 bound_to 10162
  156.0970  130.6140  150.9047 H   0  0  0  0  0  0  0  0  0  0  0  0  # atno 10718 bound_to 10713
  154.0831  135.2858  155.3286 H   0  0  0  0  0  0  0  0  0  0  0  0  # atno 10763 bound_to 10752
  154.6670  135.5313  153.8093 H   0  0  0  0  0  0  0  0  0  0  0  0  # atno 10764 bound_to 10752
  153.0441  135.6548  154.1005 H   0  0  0  0  0  0  0  0  0  0  0  0  # atno 10765 bound_to 10752
  140.1304  134.8806  157.2195 H   0  0  0  0  0  0  0  0  0  0  0  0  # atno 11005 bound_to 11000
  144.7907  140.6026  143.6543 LP  0  0  0  0  0  0  0  0  0  0  0  0  # atno 17320 bound_to 7965
  145.4817  139.1495  143.3758 LP  0  0  0  0  0  0  0  0  0  0  0  0  # atno 17321 bound_to 7965
  139.9594  144.6568  150.8094 LP  0  0  0  0  0  0  0  0  0  0  0  0  # atno 17342 bound_to 10162
  140.7596  143.3132  151.2796 LP  0  0  0  0  0  0  0  0  0  0  0  0  # atno 17343 bound_to 10162
  157.6132  131.0935  150.8757 LP  0  0  0  0  0  0  0  0  0  0  0  0  # atno 17370 bound_to 10713
  156.8893  130.5207  149.5287 LP  0  0  0  0  0  0  0  0  0  0  0  0  # atno 17371 bound_to 10713
  140.2850  134.3306  155.7332 LP  0  0  0  0  0  0  0  0  0  0  0  0  # atno 17394 bound_to 11000
  141.2169  133.7500  156.9419 LP  0  0  0  0  0  0  0  0  0  0  0  0  # atno 17395 bound_to 11000

$$$$
