AV-unprocessed.smi:7|AV-procd|sdf|43|dock2
  -GOLD-   2262015163D 1   1.00000     0.00000
 Structure written by MMmdl.
 45 48  0  0  0  0  0  0  0  0  1 V2000
  153.3164  136.4448  159.7566 O   0  0  0  0  0  0  0  0  0  0  0  0
  152.8062  137.4732  159.3110 C   0  0  0  0  0  0  0  0  0  0  0  0
  153.0441  138.8042  159.9171 C   0  0  0  0  0  0  0  0  0  0  0  0
  153.8046  139.1729  161.0264 N   0  0  0  0  0  0  0  0  0  0  0  0
  153.6325  140.4934  161.0773 C   0  0  0  0  0  0  0  0  0  0  0  0
  152.8367  140.9758  160.1046 N   0  0  0  0  0  0  0  0  0  0  0  0
  152.5699  142.3609  160.0114 C   0  0  0  0  0  0  0  0  0  0  0  0
  152.5228  143.0038  158.7539 C   0  0  0  0  0  0  0  0  0  0  0  0
  152.2618  144.3859  158.6758 C   0  0  0  0  0  0  0  0  0  0  0  0
  152.0472  145.1310  159.8515 C   0  0  0  0  0  0  0  0  0  0  0  0
  152.0952  144.4942  161.1066 C   0  0  0  0  0  0  0  0  0  0  0  0
  152.3574  143.1126  161.1869 C   0  0  0  0  0  0  0  0  0  0  0  0
  152.4445  139.8885  159.3373 C   0  0  0  0  0  0  0  0  0  0  0  0
  151.6184  139.9270  158.2375 N   0  0  0  0  0  0  0  0  0  0  0  0
  151.4220  138.7378  157.7301 C   0  0  0  0  0  0  0  0  0  0  0  0
  151.9750  137.5189  158.2267 N   0  0  0  0  0  0  0  0  0  0  0  0
  151.6155  136.2919  157.4984 C   0  0  0  0  0  0  0  0  0  0  0  0
  150.0811  136.1325  157.3485 C   0  0  2  0  0  0  0  0  0  0  0  0
  149.5516  135.8894  158.6394 O   0  0  0  0  0  0  0  0  0  0  0  0
  149.6639  134.9704  156.4047 C   0  0  0  0  0  0  0  0  0  0  0  0
  148.2476  134.9274  156.3706 O   0  0  0  0  0  0  0  0  0  0  0  0
  150.1576  135.1055  154.9519 C   0  0  0  0  0  0  0  0  0  0  0  0
  150.1861  133.6746  154.4180 C   0  0  0  0  0  0  0  0  0  0  0  0
  150.6485  132.8399  155.6122 C   0  0  0  0  0  0  0  0  0  0  0  0
  150.1360  133.5683  156.8645 C   0  0  0  0  0  0  0  0  0  0  0  0
  154.1023  141.1103  161.8298 H   0  0  0  0  0  0  0  0  0  0  0  0
  152.6927  142.4433  157.8462 H   0  0  0  0  0  0  0  0  0  0  0  0
  152.2281  144.8748  157.7132 H   0  0  0  0  0  0  0  0  0  0  0  0
  151.8471  146.1907  159.7905 H   0  0  0  0  0  0  0  0  0  0  0  0
  151.9307  145.0650  162.0087 H   0  0  0  0  0  0  0  0  0  0  0  0
  152.3901  142.6313  162.1534 H   0  0  0  0  0  0  0  0  0  0  0  0
  150.7932  138.6044  156.8482 H   0  0  0  0  0  0  0  0  0  0  0  0
  152.0871  136.3354  156.5156 H   0  0  0  0  0  0  0  0  0  0  0  0
  152.0529  135.4033  157.9584 H   0  0  0  0  0  0  0  0  0  0  0  0
  149.6404  137.0575  156.9730 H   0  0  0  0  0  0  0  0  0  0  0  0
  148.6685  136.2247  158.6687 H   0  0  0  0  0  0  0  0  0  0  0  0
  147.9536  135.3525  155.5796 H   0  0  0  0  0  0  0  0  0  0  0  0
  149.5361  135.7671  154.3465 H   0  0  0  0  0  0  0  0  0  0  0  0
  151.1714  135.5064  154.9284 H   0  0  0  0  0  0  0  0  0  0  0  0
  149.1814  133.3704  154.1212 H   0  0  0  0  0  0  0  0  0  0  0  0
  150.8374  133.5625  153.5508 H   0  0  0  0  0  0  0  0  0  0  0  0
  150.2955  131.8096  155.5564 H   0  0  0  0  0  0  0  0  0  0  0  0
  151.7388  132.8105  155.6324 H   0  0  0  0  0  0  0  0  0  0  0  0
  150.9365  133.6225  157.6027 H   0  0  0  0  0  0  0  0  0  0  0  0
  149.3298  133.0054  157.3380 H   0  0  0  0  0  0  0  0  0  0  0  0
  1  2  2  0  0  0  0
  2 16  1  0  0  0  0
  2  3  1  0  0  0  0
  3 13  2  0  0  0  0
  3  4  1  0  0  0  0
  4  5  2  0  0  0  0
  5  6  1  0  0  0  0
  5 26  1  0  0  0  0
  6  7  1  0  0  0  0
  6 13  1  0  0  0  0
  7 12  1  0  0  0  0
  7  8  2  0  0  0  0
  8  9  1  0  0  0  0
  8 27  1  0  0  0  0
  9 10  2  0  0  0  0
  9 28  1  0  0  0  0
 10 11  1  0  0  0  0
 10 29  1  0  0  0  0
 11 12  2  0  0  0  0
 11 30  1  0  0  0  0
 12 31  1  0  0  0  0
 13 14  1  0  0  0  0
 14 15  2  0  0  0  0
 15 16  1  0  0  0  0
 15 32  1  0  0  0  0
 16 17  1  0  0  0  0
 17 18  1  0  0  0  0
 17 33  1  0  0  0  0
 17 34  1  0  0  0  0
 18 19  1  0  0  0  0
 18 20  1  0  0  0  0
 18 35  1  0  0  0  0
 19 36  1  0  0  0  0
 20 25  1  0  0  0  0
 20 21  1  0  0  0  0
 20 22  1  0  0  0  0
 21 37  1  0  0  0  0
 22 23  1  0  0  0  0
 22 38  1  0  0  0  0
 22 39  1  0  0  0  0
 23 24  1  0  0  0  0
 23 40  1  0  0  0  0
 23 41  1  0  0  0  0
 24 25  1  0  0  0  0
 24 42  1  0  0  0  0
 24 43  1  0  0  0  0
 25 44  1  0  0  0  0
 25 45  1  0  0  0  0
M  END
> <s_m_source_file>
AV-unprocessed.smi

> <i_m_source_file_index>
7

> <i_lp_mmshare_version>
43012

> <i_f3d_flags>
0

> <s_epik_input>
W0NIMl0xW0NIMl1bQ0gyXVtDSDJdQzEoW09IXSlbQ0BASF0oW09IXSlbQ0gyXW4oYzI9TylbY0hdbmMoYzIzKW4oW2NIXW4zKS1jNFtjSF1bY0hdW2NIXVtjSF1bY0hdNA==

> <s_epik_cmdline>
J2VwaWtfcHl0aG9uJywgJy1waCcsICc3LjAnLCAnLXRuJywgJzgnLCAnLW1hJywgJzIwMCcsICctbWV0YWxfYmluZGluZycsICctaW1hZScsICc8aW5maWxlLm1hZT4nLCAnLW9tYWUnLCAnPG91dGZpbGUubWFlPic=

> <r_lp_tautomer_probability>
1

> <r_epik_Ionization_Penalty>
0.000116694

> <r_epik_Ionization_Penalty_Charging>
6.60428e-09

> <r_epik_Ionization_Penalty_Neutral>
0.000116688

> <r_epik_State_Penalty>
-0

> <r_epik_Charging_Adjusted_Penalty>
6.60428e-09

> <i_epik_Tot_Q>
0

> <i_epik_Tot_abs_Q>
0

> <r_epik_Metal_State_Penalty>
-0

> <b_epik_Metal_Only>
0

> <s_lp_Force_Field>
OPLS_2005

> <r_lp_Energy>
55.7438

> <b_lp_Chiralities_Consistent>
1

> <s_lp_Variant>
AV-unprocessed.smi:7-1

> <Gold.Version>
5.8.1

> <Gold.Id.Protein>
6NUR|6NUR_protein|mol2

> <Gold.PLP.Fitness>
51.8082

> <Gold.PLP.PLP>
-47.1993

> <Gold.PLP.part.hbond>
-2.0000

> <Gold.PLP.part.metal>
0.0000

> <Gold.PLP.part.buried>
-7.1197

> <Gold.PLP.part.nonpolar>
-39.1805

> <Gold.PLP.part.repulsive>
0.0000

> <Gold.PLP.ligand.clash>
0.0000

> <Gold.PLP.ligand.torsion>
0.6901

> <Gold.PLP.Chemscore.Hbond>
1.9833

> <Gold.PLP.Chemscore.CHOScore>
0.0000

> <Gold.PLP.Chemscore.Metal>
0.0000

> <Gold.Chemscore.Hbonds>
donor molecule, donor type, donor heavy atom, donor atom, acceptor molecule, acceptor atom, score
      P1  H  6896  6907       L1    19  0.99
      P1  H  6896  6908       L1     1  1.00

> <Gold.PLP.Chemscore.Internal.Correction>
0.0394

> <Gold.Rescore>
     Score         DG    S(hbond)    S(metal)    S(lipo)     H(rot)  DE(clash)    DE(int)     intcor
     16.36     -17.00       1.81        0.00     107.82       2.79       0.01       0.62       ----

> <Gold.Chemscore.Fitness>
16.3616

> <Gold.Chemscore.DG>
-16.9982

> <Gold.Chemscore.ZeroCoef>
-5.4800

> <Gold.Chemscore.Hbond>
1.8069

> <Gold.Chemscore.Metal>
0.0000

> <Gold.Chemscore.Lipo>
107.8242

> <Gold.Chemscore.Internal_Hbond>
0.0000

> <Gold.Chemscore.DEClash>
0.0127

> <Gold.Chemscore.DEInternal>
0.6240

> <Gold.Chemscore.Rot>
2.7860

> <Gold.Chemscore.Internal.Correction>
   9.000000E+99

> <Gold.Chemscore.Hbonds>
donor molecule, donor type, donor heavy atom, donor atom, acceptor molecule, acceptor atom, score
      P1  H  6896  6907       L1    19  0.55
      P1  H  6896  6908       L1     1  0.97

> <Gold.Chemscore.Hbond.Weighted>
-6.0350

> <Gold.Chemscore.Metal.Weighted>
-0.0000

> <Gold.Chemscore.Lipo.Weighted>
-12.6154

> <Gold.Chemscore.Internal_Hbond.Weighted>
0.0000

> <Gold.Chemscore.DEClash.Weighted>
0.0127

> <Gold.Chemscore.DEInternal.Weighted>
0.6240

> <Gold.Chemscore.Rot.Weighted>
7.1322

> <Gold.Chemscore.Internal.Correction.Weighted>
   9.000000E+99

> <Gold.Protein.RotatedTorsions>
[ 6907 6896 6895 6894 ] final  -80.78 input  -60.11 | X-H torsion
[ 7974 7965 7964 7962 ] final  -21.10 input  175.53 | X-H torsion
[ 8008 7997 7996 7995 ] final   -4.55 input   59.86 | X-H torsion
[ 10167 10162 10161 10158 ] final   42.28 input  -65.29 | X-H torsion
[ 10718 10713 10712 10709 ] final   56.00 input   66.30 | X-H torsion
[ 10763 10752 10751 10750 ] final  113.35 input  -60.55 | X-H torsion
[ 11005 11000 10999 10996 ] final   85.04 input  -57.11 | X-H torsion

> <Gold.Protein.ActiveResidues>
 VAL166  LYS551  ARG553  GLY616  TRP617  ASP618  TYR619  PRO620  LYS621  CYS622 
 ASP623  PHE694  ASN695  SER759  ASP760  ASP761  ALA762  ILE779  LEU786  VAL792 
 PHE793  MET794  SER795  GLU796  ALA797  LYS798  CYS799  TRP800  GLU811  SER814 

> <Gold.Protein.RotatedAtoms>
  150.6923  134.3917  159.5079 H   0  0  0  0  0  0  0  0  0  0  0  0  # atno 6907 bound_to 6896
  152.1704  134.8836  160.0544 H   0  0  0  0  0  0  0  0  0  0  0  0  # atno 6908 bound_to 6896
  151.9864  133.3740  159.4164 H   0  0  0  0  0  0  0  0  0  0  0  0  # atno 6909 bound_to 6896
  146.1752  140.4294  142.8516 H   0  0  0  0  0  0  0  0  0  0  0  0  # atno 7974 bound_to 7965
  154.6131  140.2481  155.7643 H   0  0  0  0  0  0  0  0  0  0  0  0  # atno 8008 bound_to 7997
  156.2383  140.2942  156.0322 H   0  0  0  0  0  0  0  0  0  0  0  0  # atno 8009 bound_to 7997
  155.2019  140.0394  157.2909 H   0  0  0  0  0  0  0  0  0  0  0  0  # atno 8010 bound_to 7997
  140.3559  144.2290  150.6142 H   0  0  0  0  0  0  0  0  0  0  0  0  # atno 10167 bound_to 10162
  157.5394  130.8686  149.8800 H   0  0  0  0  0  0  0  0  0  0  0  0  # atno 10718 bound_to 10713
  153.4912  135.3658  155.2493 H   0  0  0  0  0  0  0  0  0  0  0  0  # atno 10763 bound_to 10752
  154.8752  135.3977  154.3586 H   0  0  0  0  0  0  0  0  0  0  0  0  # atno 10764 bound_to 10752
  153.4206  135.7080  153.6362 H   0  0  0  0  0  0  0  0  0  0  0  0  # atno 10765 bound_to 10752
  139.8983  134.8259  156.2528 H   0  0  0  0  0  0  0  0  0  0  0  0  # atno 11005 bound_to 11000
  144.8224  140.6573  143.6344 LP  0  0  0  0  0  0  0  0  0  0  0  0  # atno 17320 bound_to 7965
  145.4232  139.1560  143.4063 LP  0  0  0  0  0  0  0  0  0  0  0  0  # atno 17321 bound_to 7965
  140.5174  143.2274  151.8442 LP  0  0  0  0  0  0  0  0  0  0  0  0  # atno 17342 bound_to 10162
  139.4820  144.4878  151.9224 LP  0  0  0  0  0  0  0  0  0  0  0  0  # atno 17343 bound_to 10162
  156.0484  130.3723  150.1260 LP  0  0  0  0  0  0  0  0  0  0  0  0  # atno 17370 bound_to 10713
  156.9441  130.9754  151.3511 LP  0  0  0  0  0  0  0  0  0  0  0  0  # atno 17371 bound_to 10713
  141.0213  133.7040  156.1273 LP  0  0  0  0  0  0  0  0  0  0  0  0  # atno 17394 bound_to 11000
  140.7229  134.4338  157.5573 LP  0  0  0  0  0  0  0  0  0  0  0  0  # atno 17395 bound_to 11000

$$$$
