AV-unprocessed.smi:1503|AV-procd|sdf|6069|dock3
  -GOLD-   22720 6183D 1   1.00000     0.00000
 Structure written by MMmdl.
 44 45  0  0  0  0  0  0  0  0  1 V2000
  143.9323  134.4151  151.8204 C   0  0  0  0  0  0  0  0  0  0  0  0
  144.5338  135.5482  152.2124 C   0  0  0  0  0  0  0  0  0  0  0  0
  145.8778  136.0266  151.7004 C   0  0  0  0  0  0  0  0  0  0  0  0
  146.4796  136.9962  152.6070 N   0  0  0  0  0  0  0  0  0  0  0  0
  147.0127  138.1704  152.2362 C   0  0  0  0  0  0  0  0  0  0  0  0
  147.0408  138.5585  151.0675 O   0  0  0  0  0  0  0  0  0  0  0  0
  147.5940  139.0253  153.3669 C   0  0  0  0  0  0  0  0  0  0  0  0
  149.0905  139.3493  153.1926 C   0  0  0  0  0  0  0  0  0  0  0  0
  149.6309  140.2012  154.3376 C   0  0  0  0  0  0  0  0  0  0  0  0
  149.0375  141.3456  154.7527 C   0  0  0  0  0  0  0  0  0  0  0  0
  147.7609  141.9144  154.1587 C   0  0  0  0  0  0  0  0  0  0  0  0
  149.5700  142.0900  155.7890 N   0  0  0  0  0  0  0  0  0  0  0  0
  150.7442  141.6644  156.3981 C   0  0  0  0  0  0  0  0  0  0  0  0
  151.1961  142.4941  157.4236 N   0  0  0  0  0  0  0  0  0  0  0  0
  151.3979  143.9208  157.1697 C   0  0  0  0  0  0  0  0  0  0  0  0
  151.4035  144.7246  158.4809 C   0  0  0  0  0  0  0  0  0  0  0  0
  152.3917  144.2016  159.3585 O   0  0  0  0  0  0  0  0  0  0  0  0
  152.1250  142.8461  159.6932 C   0  0  0  0  0  0  0  0  0  0  0  0
  152.1399  141.9857  158.4187 C   0  0  0  0  0  0  0  0  0  0  0  0
  151.3671  140.5743  156.0527 N   0  0  0  0  0  0  0  0  0  0  0  0
  150.8697  139.7692  155.0172 C   0  0  0  0  0  0  0  0  0  0  0  0
  151.4524  138.7343  154.6968 O   0  0  0  0  0  0  0  0  0  0  0  0
  149.0836  142.9302  156.0662 H   0  0  0  0  0  0  0  0  0  0  0  0
  144.3909  133.7582  151.0960 H   0  0  0  0  0  0  0  0  0  0  0  0
  142.9711  134.1298  152.2215 H   0  0  0  0  0  0  0  0  0  0  0  0
  144.0438  136.1814  152.9377 H   0  0  0  0  0  0  0  0  0  0  0  0
  146.5509  135.1830  151.5366 H   0  0  0  0  0  0  0  0  0  0  0  0
  145.7298  136.5064  150.7329 H   0  0  0  0  0  0  0  0  0  0  0  0
  146.4968  136.7555  153.5875 H   0  0  0  0  0  0  0  0  0  0  0  0
  147.0206  139.9511  153.4252 H   0  0  0  0  0  0  0  0  0  0  0  0
  147.4393  138.5012  154.3109 H   0  0  0  0  0  0  0  0  0  0  0  0
  149.6724  138.4291  153.1172 H   0  0  0  0  0  0  0  0  0  0  0  0
  149.2493  139.8657  152.2461 H   0  0  0  0  0  0  0  0  0  0  0  0
  146.9614  141.1738  154.1942 H   0  0  0  0  0  0  0  0  0  0  0  0
  147.9203  142.2010  153.1191 H   0  0  0  0  0  0  0  0  0  0  0  0
  147.4232  142.7979  154.7017 H   0  0  0  0  0  0  0  0  0  0  0  0
  150.6251  144.3186  156.5113 H   0  0  0  0  0  0  0  0  0  0  0  0
  152.3485  144.0523  156.6509 H   0  0  0  0  0  0  0  0  0  0  0  0
  151.6290  145.7716  158.2781 H   0  0  0  0  0  0  0  0  0  0  0  0
  150.4224  144.6963  158.9581 H   0  0  0  0  0  0  0  0  0  0  0  0
  152.8863  142.4968  160.3905 H   0  0  0  0  0  0  0  0  0  0  0  0
  151.1641  142.7676  160.2043 H   0  0  0  0  0  0  0  0  0  0  0  0
  153.1413  141.9776  157.9863 H   0  0  0  0  0  0  0  0  0  0  0  0
  151.8967  140.9545  158.6787 H   0  0  0  0  0  0  0  0  0  0  0  0
  1  2  2  0  0  0  0
  1 24  1  0  0  0  0
  1 25  1  0  0  0  0
  2  3  1  0  0  0  0
  2 26  1  0  0  0  0
  3  4  1  0  0  0  0
  3 27  1  0  0  0  0
  3 28  1  0  0  0  0
  4  5  1  0  0  0  0
  4 29  1  0  0  0  0
  5  6  2  0  0  0  0
  5  7  1  0  0  0  0
  7  8  1  0  0  0  0
  7 30  1  0  0  0  0
  7 31  1  0  0  0  0
  8 32  1  0  0  0  0
  8 33  1  0  0  0  0
  8  9  1  0  0  0  0
  9 21  1  0  0  0  0
  9 10  2  0  0  0  0
 10 12  1  0  0  0  0
 10 11  1  0  0  0  0
 11 34  1  0  0  0  0
 11 35  1  0  0  0  0
 11 36  1  0  0  0  0
 12 23  1  0  0  0  0
 12 13  1  0  0  0  0
 13 14  1  0  0  0  0
 13 20  2  0  0  0  0
 14 19  1  0  0  0  0
 14 15  1  0  0  0  0
 15 16  1  0  0  0  0
 15 37  1  0  0  0  0
 15 38  1  0  0  0  0
 16 17  1  0  0  0  0
 16 39  1  0  0  0  0
 16 40  1  0  0  0  0
 17 18  1  0  0  0  0
 18 19  1  0  0  0  0
 18 41  1  0  0  0  0
 18 42  1  0  0  0  0
 19 43  1  0  0  0  0
 19 44  1  0  0  0  0
 20 21  1  0  0  0  0
 21 22  2  0  0  0  0
M  END
> <s_m_source_file>
AV-unprocessed.smi

> <i_m_source_file_index>
1503

> <i_lp_mmshare_version>
43012

> <i_f3d_flags>
0

> <s_epik_input>
W0NIMl09W0NIXVtDSDJdW05IXUMoPU8pW0NIMl1bQ0gyXWMxYyhbQ0gzXSluYyhbbkhdYzE9TylOMltDSDJdW0NIMl1PW0NIMl1bQ0gyXTI=

> <s_epik_cmdline>
J2VwaWtfcHl0aG9uJywgJy1waCcsICc3LjAnLCAnLXRuJywgJzgnLCAnLW1hJywgJzIwMCcsICctbWV0YWxfYmluZGluZycsICctaW1hZScsICc8aW5maWxlLm1hZT4nLCAnLW9tYWUnLCAnPG91dGZpbGUubWFlPic=

> <r_lp_tautomer_probability>
0.108306

> <r_epik_Ionization_Penalty>
0.0745381

> <r_epik_Ionization_Penalty_Charging>
0.0625831

> <r_epik_Ionization_Penalty_Neutral>
0.0119549

> <r_epik_State_Penalty>
1.70762

> <r_epik_Charging_Adjusted_Penalty>
1.7702

> <i_epik_Tot_Q>
0

> <i_epik_Tot_abs_Q>
0

> <r_epik_Metal_State_Penalty>
2.68249

> <b_epik_Metal_Only>
0

> <s_lp_Force_Field>
OPLS_2005

> <r_lp_Energy>
25.2683

> <b_lp_Chiralities_Consistent>
1

> <s_lp_Variant>
AV-unprocessed.smi:1503-2

> <Gold.Version>
5.8.1

> <Gold.Id.Protein>
6NUR|6NUR_protein|mol2

> <Gold.PLP.Fitness>
47.1701

> <Gold.PLP.PLP>
-42.7611

> <Gold.PLP.part.hbond>
-2.9265

> <Gold.PLP.part.metal>
0.0000

> <Gold.PLP.part.buried>
1.9242

> <Gold.PLP.part.nonpolar>
-42.3600

> <Gold.PLP.part.repulsive>
1.1185

> <Gold.PLP.ligand.clash>
0.0000

> <Gold.PLP.ligand.torsion>
0.8591

> <Gold.PLP.Chemscore.Hbond>
1.8953

> <Gold.PLP.Chemscore.CHOScore>
0.0000

> <Gold.PLP.Chemscore.Metal>
0.0000

> <Gold.Chemscore.Hbonds>
donor molecule, donor type, donor heavy atom, donor atom, acceptor molecule, acceptor atom, score
      L1  H    12    23       P1  8028  0.86
      P1  H  7954  7966       L1     6  1.00

> <Gold.PLP.Chemscore.Internal.Correction>
0.4412

> <Gold.Rescore>
     Score         DG    S(hbond)    S(metal)    S(lipo)     H(rot)  DE(clash)    DE(int)     intcor
     14.30     -17.83       1.82        0.00      95.64       1.92       2.72       0.81       ----

> <Gold.Chemscore.Fitness>
14.3000

> <Gold.Chemscore.DG>
-17.8265

> <Gold.Chemscore.ZeroCoef>
-5.4800

> <Gold.Chemscore.Hbond>
1.8169

> <Gold.Chemscore.Metal>
0.0000

> <Gold.Chemscore.Lipo>
95.6414

> <Gold.Chemscore.Internal_Hbond>
0.0000

> <Gold.Chemscore.DEClash>
2.7170

> <Gold.Chemscore.DEInternal>
0.8094

> <Gold.Chemscore.Rot>
1.9187

> <Gold.Chemscore.Internal.Correction>
   9.000000E+99

> <Gold.Chemscore.Hbonds>
donor molecule, donor type, donor heavy atom, donor atom, acceptor molecule, acceptor atom, score
      L1  H    12    23       P1  8028  0.85
      P1  H  7954  7966       L1     6  0.95

> <Gold.Chemscore.Hbond.Weighted>
-6.0683

> <Gold.Chemscore.Metal.Weighted>
-0.0000

> <Gold.Chemscore.Lipo.Weighted>
-11.1900

> <Gold.Chemscore.Internal_Hbond.Weighted>
0.0000

> <Gold.Chemscore.DEClash.Weighted>
2.7170

> <Gold.Chemscore.DEInternal.Weighted>
0.8094

> <Gold.Chemscore.Rot.Weighted>
4.9119

> <Gold.Chemscore.Internal.Correction.Weighted>
   9.000000E+99

> <Gold.Protein.RotatedTorsions>
[ 6907 6896 6895 6894 ] final  137.55 input  -60.11 | X-H torsion
[ 7974 7965 7964 7962 ] final -107.89 input  175.53 | X-H torsion
[ 8008 7997 7996 7995 ] final    0.17 input   59.86 | X-H torsion
[ 10167 10162 10161 10158 ] final   48.80 input  -65.29 | X-H torsion
[ 10718 10713 10712 10709 ] final  -93.57 input   66.30 | X-H torsion
[ 10763 10752 10751 10750 ] final  -74.70 input  -60.55 | X-H torsion
[ 11005 11000 10999 10996 ] final -152.70 input  -57.11 | X-H torsion

> <Gold.Protein.ActiveResidues>
 VAL166  LYS551  ARG553  GLY616  TRP617  ASP618  TYR619  PRO620  LYS621  CYS622 
 ASP623  PHE694  ASN695  SER759  ASP760  ASP761  ALA762  ILE779  LEU786  VAL792 
 PHE793  MET794  SER795  GLU796  ALA797  LYS798  CYS799  TRP800  GLU811  SER814 

> <Gold.Protein.RotatedAtoms>
  152.2768  133.5433  159.5472 H   0  0  0  0  0  0  0  0  0  0  0  0  # atno 6907 bound_to 6896
  150.7180  134.0621  159.3843 H   0  0  0  0  0  0  0  0  0  0  0  0  # atno 6908 bound_to 6896
  151.8533  135.0550  160.0512 H   0  0  0  0  0  0  0  0  0  0  0  0  # atno 6909 bound_to 6896
  145.1997  140.9051  143.3376 H   0  0  0  0  0  0  0  0  0  0  0  0  # atno 7974 bound_to 7965
  154.6650  140.2599  155.7067 H   0  0  0  0  0  0  0  0  0  0  0  0  # atno 8008 bound_to 7997
  156.2635  140.2841  156.1059 H   0  0  0  0  0  0  0  0  0  0  0  0  # atno 8009 bound_to 7997
  155.1252  140.0377  157.2750 H   0  0  0  0  0  0  0  0  0  0  0  0  # atno 8010 bound_to 7997
  140.2895  144.3063  150.6244 H   0  0  0  0  0  0  0  0  0  0  0  0  # atno 10167 bound_to 10162
  156.0015  130.5032  150.5796 H   0  0  0  0  0  0  0  0  0  0  0  0  # atno 10718 bound_to 10713
  154.4767  135.5855  153.6360 H   0  0  0  0  0  0  0  0  0  0  0  0  # atno 10763 bound_to 10752
  152.9842  135.6080  154.3298 H   0  0  0  0  0  0  0  0  0  0  0  0  # atno 10764 bound_to 10752
  154.3186  135.2844  155.2510 H   0  0  0  0  0  0  0  0  0  0  0  0  # atno 10765 bound_to 10752
  140.7160  134.3780  157.5191 H   0  0  0  0  0  0  0  0  0  0  0  0  # atno 11005 bound_to 11000
  144.9960  139.3644  143.6191 LP  0  0  0  0  0  0  0  0  0  0  0  0  # atno 17320 bound_to 7965
  146.3420  139.9163  142.8773 LP  0  0  0  0  0  0  0  0  0  0  0  0  # atno 17321 bound_to 7965
  140.5744  143.2178  151.7541 LP  0  0  0  0  0  0  0  0  0  0  0  0  # atno 17342 bound_to 10162
  139.4942  144.4170  152.0019 LP  0  0  0  0  0  0  0  0  0  0  0  0  # atno 17343 bound_to 10162
  157.3678  131.0760  151.1583 LP  0  0  0  0  0  0  0  0  0  0  0  0  # atno 17370 bound_to 10713
  157.2346  130.6541  149.5864 LP  0  0  0  0  0  0  0  0  0  0  0  0  # atno 17371 bound_to 10713
  139.8860  134.8923  156.2612 LP  0  0  0  0  0  0  0  0  0  0  0  0  # atno 17394 bound_to 11000
  141.0044  133.7132  156.1011 LP  0  0  0  0  0  0  0  0  0  0  0  0  # atno 17395 bound_to 11000

$$$$
