AV-unprocessed.smi:1605|AV-procd|sdf|6451|dock8
  -GOLD-   22720 7103D 1   1.00000     0.00000
 Structure written by MMmdl.
 51 53  0  0  0  0  0  0  0  0  2 V2000
  150.0021  134.5589  154.2186 C   0  0  0  0  0  0  0  0  0  0  0  0
  150.1570  135.3875  155.3607 O   0  0  0  0  0  0  0  0  0  0  0  0
  149.7448  136.7339  155.1677 C   0  0  2  0  0  0  0  0  0  0  0  0
  150.7312  137.4980  154.2657 C   0  0  0  0  0  0  0  0  0  0  0  0
  150.3636  138.9887  154.1854 C   0  0  0  0  0  0  0  0  0  0  0  0
  150.3132  139.6062  155.5379 N   0  3  1  0  0  0  0  0  0  0  0  0
  150.0772  141.0718  155.4996 C   0  0  0  0  0  0  0  0  0  0  0  0
  150.1665  141.7195  156.8995 C   0  0  2  0  0  0  0  0  0  0  0  0
  149.0595  142.5804  157.0742 O   0  0  0  0  0  0  0  0  0  0  0  0
  151.4484  142.5472  157.1142 C   0  0  0  0  0  0  0  0  0  0  0  0
  151.5007  143.1527  158.4323 N   0  0  0  0  0  0  0  0  0  0  0  0
  150.8352  144.2489  158.8443 C   0  0  0  0  0  0  0  0  0  0  0  0
  151.0174  144.6338  160.1037 N   0  0  0  0  0  0  0  0  0  0  0  0
  151.9118  143.6813  160.5610 C   0  0  0  0  0  0  0  0  0  0  0  0
  152.5111  143.5203  161.8292 C   0  0  0  0  0  0  0  0  0  0  0  0
  153.4060  142.4553  162.0779 C   0  0  0  0  0  0  0  0  0  0  0  0
  154.0306  142.3228  163.4558 C   0  0  0  0  0  0  0  0  0  0  0  0
  153.7108  141.5281  161.0491 C   0  0  0  0  0  0  0  0  0  0  0  0
  154.6674  140.3748  161.2947 C   0  0  0  0  0  0  0  0  0  0  0  0
  153.1217  141.6748  159.7758 C   0  0  0  0  0  0  0  0  0  0  0  0
  152.2349  142.7404  159.5397 C   0  0  0  0  0  0  0  0  0  0  0  0
  149.3481  138.9027  156.4215 C   0  0  0  0  0  0  0  0  0  0  0  0
  149.6948  137.4097  156.5458 C   0  0  0  0  0  0  0  0  0  0  0  0
  150.3032  133.5412  154.4666 H   0  0  0  0  0  0  0  0  0  0  0  0
  150.6223  134.8918  153.3866 H   0  0  0  0  0  0  0  0  0  0  0  0
  148.9624  134.5276  153.8909 H   0  0  0  0  0  0  0  0  0  0  0  0
  148.7437  136.7587  154.7327 H   0  0  0  0  0  0  0  0  0  0  0  0
  151.7450  137.3922  154.6546 H   0  0  0  0  0  0  0  0  0  0  0  0
  150.7393  137.0775  153.2604 H   0  0  0  0  0  0  0  0  0  0  0  0
  151.0953  139.4988  153.5601 H   0  0  0  0  0  0  0  0  0  0  0  0
  149.3962  139.1071  153.6947 H   0  0  0  0  0  0  0  0  0  0  0  0
  150.7946  141.5163  154.8092 H   0  0  0  0  0  0  0  0  0  0  0  0
  149.0911  141.2842  155.0834 H   0  0  0  0  0  0  0  0  0  0  0  0
  150.1192  140.9572  157.6768 H   0  0  0  0  0  0  0  0  0  0  0  0
  149.1274  143.2932  156.4566 H   0  0  0  0  0  0  0  0  0  0  0  0
  152.3349  141.9266  156.9781 H   0  0  0  0  0  0  0  0  0  0  0  0
  151.5114  143.3458  156.3733 H   0  0  0  0  0  0  0  0  0  0  0  0
  150.1753  144.7919  158.1835 H   0  0  0  0  0  0  0  0  0  0  0  0
  152.2777  144.2257  162.6132 H   0  0  0  0  0  0  0  0  0  0  0  0
  155.1186  142.3263  163.3857 H   0  0  0  0  0  0  0  0  0  0  0  0
  153.7160  141.3930  163.9303 H   0  0  0  0  0  0  0  0  0  0  0  0
  153.7372  143.1472  164.1064 H   0  0  0  0  0  0  0  0  0  0  0  0
  154.7534  139.7348  160.4165 H   0  0  0  0  0  0  0  0  0  0  0  0
  154.3203  139.7581  162.1240 H   0  0  0  0  0  0  0  0  0  0  0  0
  155.6625  140.7496  161.5348 H   0  0  0  0  0  0  0  0  0  0  0  0
  153.3472  140.9759  158.9841 H   0  0  0  0  0  0  0  0  0  0  0  0
  149.3609  139.3541  157.4143 H   0  0  0  0  0  0  0  0  0  0  0  0
  148.3371  139.0250  156.0293 H   0  0  0  0  0  0  0  0  0  0  0  0
  148.9600  136.9106  157.1783 H   0  0  0  0  0  0  0  0  0  0  0  0
  150.6583  137.3001  157.0459 H   0  0  0  0  0  0  0  0  0  0  0  0
  151.2237  139.4785  155.9574 H   0  0  0  0  0  0  0  0  0  0  0  0
  1  2  1  0  0  0  0
  1 24  1  0  0  0  0
  1 25  1  0  0  0  0
  1 26  1  0  0  0  0
  2  3  1  0  0  0  0
  3 23  1  0  0  0  0
  3  4  1  0  0  0  0
  3 27  1  0  0  0  0
  4  5  1  0  0  0  0
  4 28  1  0  0  0  0
  4 29  1  0  0  0  0
  5  6  1  0  0  0  0
  5 30  1  0  0  0  0
  5 31  1  0  0  0  0
  6  7  1  0  0  0  0
  6 22  1  0  0  0  0
  6 51  1  0  0  0  0
  7  8  1  0  0  0  0
  7 32  1  0  0  0  0
  7 33  1  0  0  0  0
  8  9  1  0  0  0  0
  8 10  1  0  0  0  0
  8 34  1  0  0  0  0
  9 35  1  0  0  0  0
 10 11  1  0  0  0  0
 10 36  1  0  0  0  0
 10 37  1  0  0  0  0
 11 21  1  0  0  0  0
 11 12  1  0  0  0  0
 12 13  2  0  0  0  0
 12 38  1  0  0  0  0
 13 14  1  0  0  0  0
 14 21  2  0  0  0  0
 14 15  1  0  0  0  0
 15 16  2  0  0  0  0
 15 39  1  0  0  0  0
 16 17  1  0  0  0  0
 16 18  1  0  0  0  0
 17 40  1  0  0  0  0
 17 41  1  0  0  0  0
 17 42  1  0  0  0  0
 18 19  1  0  0  0  0
 18 20  2  0  0  0  0
 19 43  1  0  0  0  0
 19 44  1  0  0  0  0
 19 45  1  0  0  0  0
 20 21  1  0  0  0  0
 20 46  1  0  0  0  0
 22 23  1  0  0  0  0
 22 47  1  0  0  0  0
 22 48  1  0  0  0  0
 23 49  1  0  0  0  0
 23 50  1  0  0  0  0
M  CHG  1   6   1
M  END
> <s_m_source_file>
AV-unprocessed.smi

> <i_m_source_file_index>
1605

> <i_lp_mmshare_version>
43012

> <i_f3d_flags>
0

> <s_epik_input>
W0NIM11PW0NIXTFbQ0gyXVtDSDJdTihbQ0gyXVtDSDJdMSlbQ0gyXVtDQEhdKFtPSF0pW0NIMl1uKFtjSF1uMiljKGMyMylbY0hdYyhbQ0gzXSljKFtjSF0zKVtDSDNd

> <s_epik_cmdline>
J2VwaWtfcHl0aG9uJywgJy1waCcsICc3LjAnLCAnLXRuJywgJzgnLCAnLW1hJywgJzIwMCcsICctbWV0YWxfYmluZGluZycsICctaW1hZScsICc8aW5maWxlLm1hZT4nLCAnLW9tYWUnLCAnPG91dGZpbGUubWFlPic=

> <r_epik_Ionization_Penalty>
0.110943

> <r_epik_Ionization_Penalty_Charging>
0.0229283

> <r_epik_Ionization_Penalty_Neutral>
0.0880146

> <r_epik_State_Penalty>
0.0947554

> <r_epik_Charging_Adjusted_Penalty>
0.117684

> <i_epik_Tot_Q>
1

> <i_epik_Tot_abs_Q>
1

> <r_epik_Metal_State_Penalty>
0.0192456

> <b_epik_Metal_Only>
0

> <s_lp_Force_Field>
OPLS_2005

> <r_lp_Energy>
22.9289

> <b_lp_Chiralities_Consistent>
1

> <s_lp_Variant>
AV-unprocessed.smi:1605-1

> <Gold.Version>
5.8.1

> <Gold.Id.Protein>
6NUR|6NUR_protein|mol2

> <Gold.PLP.Fitness>
55.6598

> <Gold.PLP.PLP>
-51.2444

> <Gold.PLP.part.hbond>
-0.8201

> <Gold.PLP.part.metal>
0.0000

> <Gold.PLP.part.buried>
-7.5463

> <Gold.PLP.part.nonpolar>
-43.4552

> <Gold.PLP.part.repulsive>
0.2572

> <Gold.PLP.ligand.clash>
0.0000

> <Gold.PLP.ligand.torsion>
0.9804

> <Gold.PLP.Chemscore.Hbond>
1.0000

> <Gold.PLP.Chemscore.CHOScore>
1.0755

> <Gold.PLP.Chemscore.Metal>
0.0000

> <Gold.Chemscore.Hbonds>
donor molecule, donor type, donor heavy atom, donor atom, acceptor molecule, acceptor atom, score
      L1  H     9    35       P1  8028  1.00
      L1  C    12    38       P1  8028  0.19
      L1  C    12    38       P1  8029  0.45

> <Gold.PLP.Chemscore.Internal.Correction>
0.1497

> <Gold.Rescore>
     Score         DG    S(hbond)    S(metal)    S(lipo)     H(rot)  DE(clash)    DE(int)     intcor
     17.75     -18.95       0.95        0.00     136.53       2.22       0.24       0.96       ----

> <Gold.Chemscore.Fitness>
17.7532

> <Gold.Chemscore.DG>
-18.9481

> <Gold.Chemscore.ZeroCoef>
-5.4800

> <Gold.Chemscore.Hbond>
0.9488

> <Gold.Chemscore.Metal>
0.0000

> <Gold.Chemscore.Lipo>
136.5327

> <Gold.Chemscore.Internal_Hbond>
0.0000

> <Gold.Chemscore.DEClash>
0.2386

> <Gold.Chemscore.DEInternal>
0.9563

> <Gold.Chemscore.Rot>
2.2169

> <Gold.Chemscore.Internal.Correction>
   9.000000E+99

> <Gold.Chemscore.Hbonds>
donor molecule, donor type, donor heavy atom, donor atom, acceptor molecule, acceptor atom, score
      L1  H     9    35       P1  8028  0.99

> <Gold.Chemscore.Hbond.Weighted>
-3.1691

> <Gold.Chemscore.Metal.Weighted>
-0.0000

> <Gold.Chemscore.Lipo.Weighted>
-15.9743

> <Gold.Chemscore.Internal_Hbond.Weighted>
0.0000

> <Gold.Chemscore.DEClash.Weighted>
0.2386

> <Gold.Chemscore.DEInternal.Weighted>
0.9563

> <Gold.Chemscore.Rot.Weighted>
5.6753

> <Gold.Chemscore.Internal.Correction.Weighted>
   9.000000E+99

> <Gold.Protein.RotatedTorsions>
[ 6907 6896 6895 6894 ] final  -97.53 input  -60.11 | X-H torsion
[ 7974 7965 7964 7962 ] final  149.36 input  175.53 | X-H torsion
[ 8008 7997 7996 7995 ] final  -82.26 input   59.86 | X-H torsion
[ 10167 10162 10161 10158 ] final  -55.78 input  -65.29 | X-H torsion
[ 10718 10713 10712 10709 ] final   55.54 input   66.30 | X-H torsion
[ 10763 10752 10751 10750 ] final  -71.66 input  -60.55 | X-H torsion
[ 11005 11000 10999 10996 ] final   86.34 input  -57.11 | X-H torsion

> <Gold.Protein.ActiveResidues>
 VAL166  LYS551  ARG553  GLY616  TRP617  ASP618  TYR619  PRO620  LYS621  CYS622 
 ASP623  PHE694  ASN695  SER759  ASP760  ASP761  ALA762  ILE779  LEU786  VAL792 
 PHE793  MET794  SER795  GLU796  ALA797  LYS798  CYS799  TRP800  GLU811  SER814 

> <Gold.Protein.RotatedAtoms>
  150.7019  134.1334  159.4077 H   0  0  0  0  0  0  0  0  0  0  0  0  # atno 6907 bound_to 6896
  151.9319  135.0250  160.0539 H   0  0  0  0  0  0  0  0  0  0  0  0  # atno 6908 bound_to 6896
  152.2168  133.4917  159.5177 H   0  0  0  0  0  0  0  0  0  0  0  0  # atno 6909 bound_to 6896
  144.8444  139.6271  143.6002 H   0  0  0  0  0  0  0  0  0  0  0  0  # atno 7974 bound_to 7965
  154.6067  140.0636  156.9441 H   0  0  0  0  0  0  0  0  0  0  0  0  # atno 8008 bound_to 7997
  155.2040  140.3317  155.4320 H   0  0  0  0  0  0  0  0  0  0  0  0  # atno 8009 bound_to 7997
  156.2352  140.1859  156.7121 H   0  0  0  0  0  0  0  0  0  0  0  0  # atno 8010 bound_to 7997
  140.6355  143.2480  151.5130 H   0  0  0  0  0  0  0  0  0  0  0  0  # atno 10167 bound_to 10162
  157.5353  130.8659  149.8745 H   0  0  0  0  0  0  0  0  0  0  0  0  # atno 10718 bound_to 10713
  154.4349  135.5955  153.6092 H   0  0  0  0  0  0  0  0  0  0  0  0  # atno 10763 bound_to 10752
  152.9801  135.5984  154.3794 H   0  0  0  0  0  0  0  0  0  0  0  0  # atno 10764 bound_to 10752
  154.3636  135.2841  155.2284 H   0  0  0  0  0  0  0  0  0  0  0  0  # atno 10765 bound_to 10752
  139.8947  134.8348  156.2707 H   0  0  0  0  0  0  0  0  0  0  0  0  # atno 11005 bound_to 11000
  146.2731  139.6684  142.9282 LP  0  0  0  0  0  0  0  0  0  0  0  0  # atno 17320 bound_to 7965
  145.4628  141.0433  143.2742 LP  0  0  0  0  0  0  0  0  0  0  0  0  # atno 17321 bound_to 7965
  139.5566  144.2261  152.1622 LP  0  0  0  0  0  0  0  0  0  0  0  0  # atno 17342 bound_to 10162
  140.1517  144.5109  150.6684 LP  0  0  0  0  0  0  0  0  0  0  0  0  # atno 17343 bound_to 10162
  156.0454  130.3729  150.1331 LP  0  0  0  0  0  0  0  0  0  0  0  0  # atno 17370 bound_to 10713
  156.9513  130.9776  151.3497 LP  0  0  0  0  0  0  0  0  0  0  0  0  # atno 17371 bound_to 10713
  141.0103  133.7100  156.1100 LP  0  0  0  0  0  0  0  0  0  0  0  0  # atno 17394 bound_to 11000
  140.7377  134.4185  157.5558 LP  0  0  0  0  0  0  0  0  0  0  0  0  # atno 17395 bound_to 11000

$$$$
