AV-unprocessed.smi:1150|AV-procd|sdf|4893|dock4
  -GOLD-   22720 3463D 1   1.00000     0.00000
 Structure written by MMmdl.
 50 51  0  0  0  0  0  0  0  0  1 V2000
  145.8059  141.9740  155.4345 C   0  0  0  0  0  0  0  0  0  0  0  0
  145.8739  141.7643  156.9541 C   0  0  0  0  0  0  0  0  0  0  0  0
  146.5564  142.9261  157.7056 C   0  0  2  0  0  0  0  0  0  0  0  0
  147.9266  143.0977  157.2252 N   0  0  0  0  0  0  0  0  0  0  0  0
  148.8563  142.1371  157.1052 C   0  0  0  0  0  0  0  0  0  0  0  0
  148.7296  141.0004  157.5587 O   0  0  0  0  0  0  0  0  0  0  0  0
  150.0997  142.5077  156.2958 C   0  0  0  0  0  0  0  0  0  0  0  0
  151.3269  142.2811  157.1470 C   0  0  0  0  0  0  0  0  0  0  0  0
  152.4057  141.3839  156.8928 C   0  0  0  0  0  0  0  0  0  0  0  0
  152.5943  140.4702  155.7161 C   0  0  0  0  0  0  0  0  0  0  0  0
  153.3061  141.3888  157.8616 N   0  0  0  0  0  0  0  0  0  0  0  0
  152.8399  142.2792  158.7597 N   0  0  0  0  0  0  0  0  0  0  0  0
  153.5917  142.5247  159.9747 C   0  0  0  0  0  0  0  0  0  0  0  0
  151.6469  142.8435  158.3540 C   0  0  0  0  0  0  0  0  0  0  0  0
  150.9217  143.8538  159.1828 C   0  0  0  0  0  0  0  0  0  0  0  0
  146.5430  142.7423  159.2487 C   0  0  0  0  0  0  0  0  0  0  0  0
  145.2311  142.0842  159.7369 C   0  0  0  0  0  0  0  0  0  0  0  0
  145.2268  141.8604  161.2569 C   0  0  0  0  0  0  0  0  0  0  0  0
  145.4721  143.1765  162.0082 C   0  0  0  0  0  0  0  0  0  0  0  0
  146.7852  143.8281  161.5524 C   0  0  0  0  0  0  0  0  0  0  0  0
  146.7951  144.0553  160.0325 C   0  0  0  0  0  0  0  0  0  0  0  0
  145.2799  141.1493  154.9535 H   0  0  0  0  0  0  0  0  0  0  0  0
  146.8008  142.0320  154.9924 H   0  0  0  0  0  0  0  0  0  0  0  0
  145.2760  142.8945  155.1876 H   0  0  0  0  0  0  0  0  0  0  0  0
  144.8583  141.6391  157.3311 H   0  0  0  0  0  0  0  0  0  0  0  0
  146.3911  140.8264  157.1568 H   0  0  0  0  0  0  0  0  0  0  0  0
  145.9751  143.8221  157.4808 H   0  0  0  0  0  0  0  0  0  0  0  0
  148.1454  143.9993  156.8273 H   0  0  0  0  0  0  0  0  0  0  0  0
  150.1207  141.9063  155.3868 H   0  0  0  0  0  0  0  0  0  0  0  0
  150.0265  143.5468  155.9734 H   0  0  0  0  0  0  0  0  0  0  0  0
  151.7634  139.7699  155.6305 H   0  0  0  0  0  0  0  0  0  0  0  0
  153.5110  139.8854  155.7996 H   0  0  0  0  0  0  0  0  0  0  0  0
  152.6477  141.0379  154.7873 H   0  0  0  0  0  0  0  0  0  0  0  0
  153.9882  143.5401  159.9601 H   0  0  0  0  0  0  0  0  0  0  0  0
  154.4207  141.8214  160.0644 H   0  0  0  0  0  0  0  0  0  0  0  0
  152.9386  142.4086  160.8400 H   0  0  0  0  0  0  0  0  0  0  0  0
  150.0822  144.2840  158.6369 H   0  0  0  0  0  0  0  0  0  0  0  0
  151.5846  144.6693  159.4721 H   0  0  0  0  0  0  0  0  0  0  0  0
  150.5302  143.3963  160.0913 H   0  0  0  0  0  0  0  0  0  0  0  0
  147.3507  142.0521  159.4973 H   0  0  0  0  0  0  0  0  0  0  0  0
  144.3779  142.7096  159.4766 H   0  0  0  0  0  0  0  0  0  0  0  0
  145.0790  141.1316  159.2286 H   0  0  0  0  0  0  0  0  0  0  0  0
  144.2740  141.4293  161.5651 H   0  0  0  0  0  0  0  0  0  0  0  0
  145.9967  141.1355  161.5238 H   0  0  0  0  0  0  0  0  0  0  0  0
  144.6420  143.8616  161.8301 H   0  0  0  0  0  0  0  0  0  0  0  0
  145.4991  142.9934  163.0824 H   0  0  0  0  0  0  0  0  0  0  0  0
  146.9268  144.7775  162.0696 H   0  0  0  0  0  0  0  0  0  0  0  0
  147.6267  143.1936  161.8334 H   0  0  0  0  0  0  0  0  0  0  0  0
  147.7518  144.4915  159.7474 H   0  0  0  0  0  0  0  0  0  0  0  0
  146.0338  144.7960  159.7871 H   0  0  0  0  0  0  0  0  0  0  0  0
  1  2  1  0  0  0  0
  1 22  1  0  0  0  0
  1 23  1  0  0  0  0
  1 24  1  0  0  0  0
  2  3  1  0  0  0  0
  2 25  1  0  0  0  0
  2 26  1  0  0  0  0
  3  4  1  0  0  0  0
  3 16  1  0  0  0  0
  3 27  1  0  0  0  0
  4  5  1  0  0  0  0
  4 28  1  0  0  0  0
  5  6  2  0  0  0  0
  5  7  1  0  0  0  0
  7  8  1  0  0  0  0
  7 29  1  0  0  0  0
  7 30  1  0  0  0  0
  8 14  2  0  0  0  0
  8  9  1  0  0  0  0
  9 10  1  0  0  0  0
  9 11  2  0  0  0  0
 10 31  1  0  0  0  0
 10 32  1  0  0  0  0
 10 33  1  0  0  0  0
 11 12  1  0  0  0  0
 12 13  1  0  0  0  0
 12 14  1  0  0  0  0
 13 34  1  0  0  0  0
 13 35  1  0  0  0  0
 13 36  1  0  0  0  0
 14 15  1  0  0  0  0
 15 37  1  0  0  0  0
 15 38  1  0  0  0  0
 15 39  1  0  0  0  0
 16 21  1  0  0  0  0
 16 17  1  0  0  0  0
 16 40  1  0  0  0  0
 17 18  1  0  0  0  0
 17 41  1  0  0  0  0
 17 42  1  0  0  0  0
 18 19  1  0  0  0  0
 18 43  1  0  0  0  0
 18 44  1  0  0  0  0
 19 20  1  0  0  0  0
 19 45  1  0  0  0  0
 19 46  1  0  0  0  0
 20 21  1  0  0  0  0
 20 47  1  0  0  0  0
 20 48  1  0  0  0  0
 21 49  1  0  0  0  0
 21 50  1  0  0  0  0
M  END
> <s_m_source_file>
AV-unprocessed.smi

> <i_m_source_file_index>
1150

> <i_lp_mmshare_version>
43012

> <i_f3d_flags>
0

> <s_epik_input>
W0NIMl0xW0NIMl1bQ0gyXVtDSDJdW0NIMl1bQ0hdMVtDQEhdKFtDSDJdW0NIM10pW05IXUMoPU8pW0NIMl1jMmMoW0NIM10pbm4oW0NIM10pYzJbQ0gzXQ==

> <s_epik_cmdline>
J2VwaWtfcHl0aG9uJywgJy1waCcsICc3LjAnLCAnLXRuJywgJzgnLCAnLW1hJywgJzIwMCcsICctbWV0YWxfYmluZGluZycsICctaW1hZScsICc8aW5maWxlLm1hZT4nLCAnLW9tYWUnLCAnPG91dGZpbGUubWFlPic=

> <r_lp_tautomer_probability>
1

> <r_epik_Ionization_Penalty>
0.00328092

> <r_epik_Ionization_Penalty_Charging>
0

> <r_epik_Ionization_Penalty_Neutral>
0.00328092

> <r_epik_State_Penalty>
0.00231765

> <r_epik_Charging_Adjusted_Penalty>
0.00231765

> <i_epik_Tot_Q>
0

> <i_epik_Tot_abs_Q>
0

> <r_epik_Metal_State_Penalty>
-0

> <b_epik_Metal_Only>
0

> <s_lp_Force_Field>
OPLS_2005

> <r_lp_Energy>
6.65813

> <b_lp_Chiralities_Consistent>
1

> <s_lp_Variant>
AV-unprocessed.smi:1150-1

> <Gold.Version>
5.8.1

> <Gold.Id.Protein>
6NUR|6NUR_protein|mol2

> <Gold.PLP.Fitness>
40.6842

> <Gold.PLP.PLP>
-35.6853

> <Gold.PLP.part.hbond>
-2.5066

> <Gold.PLP.part.metal>
0.0000

> <Gold.PLP.part.buried>
-3.8352

> <Gold.PLP.part.nonpolar>
-28.7491

> <Gold.PLP.part.repulsive>
0.0344

> <Gold.PLP.ligand.clash>
0.0000

> <Gold.PLP.ligand.torsion>
0.4997

> <Gold.PLP.Chemscore.Hbond>
1.9760

> <Gold.PLP.Chemscore.CHOScore>
0.0000

> <Gold.PLP.Chemscore.Metal>
0.0000

> <Gold.Chemscore.Hbonds>
donor molecule, donor type, donor heavy atom, donor atom, acceptor molecule, acceptor atom, score
      P1  H  7997  8009       L1    11  0.21

> <Gold.PLP.Chemscore.Internal.Correction>
0.0703

> <Gold.Rescore>
     Score         DG    S(hbond)    S(metal)    S(lipo)     H(rot)  DE(clash)    DE(int)     intcor
     14.39     -15.10       1.19        0.00      79.11       1.42       0.06       0.65       ----

> <Gold.Chemscore.Fitness>
14.3927

> <Gold.Chemscore.DG>
-15.0972

> <Gold.Chemscore.ZeroCoef>
-5.4800

> <Gold.Chemscore.Hbond>
1.1945

> <Gold.Chemscore.Metal>
0.0000

> <Gold.Chemscore.Lipo>
79.1120

> <Gold.Chemscore.Internal_Hbond>
0.0000

> <Gold.Chemscore.DEClash>
0.0576

> <Gold.Chemscore.DEInternal>
0.6469

> <Gold.Chemscore.Rot>
1.4174

> <Gold.Chemscore.Internal.Correction>
   9.000000E+99

> <Gold.Chemscore.Hbonds>
donor molecule, donor type, donor heavy atom, donor atom, acceptor molecule, acceptor atom, score
      P1  H  7997  8009       L1    11  0.05

> <Gold.Chemscore.Hbond.Weighted>
-3.9897

> <Gold.Chemscore.Metal.Weighted>
-0.0000

> <Gold.Chemscore.Lipo.Weighted>
-9.2561

> <Gold.Chemscore.Internal_Hbond.Weighted>
0.0000

> <Gold.Chemscore.DEClash.Weighted>
0.0576

> <Gold.Chemscore.DEInternal.Weighted>
0.6469

> <Gold.Chemscore.Rot.Weighted>
3.6286

> <Gold.Chemscore.Internal.Correction.Weighted>
   9.000000E+99

> <Gold.Protein.RotatedTorsions>
[ 6907 6896 6895 6894 ] final  -52.21 input  -60.11 | X-H torsion
[ 7974 7965 7964 7962 ] final  -34.27 input  175.53 | X-H torsion
[ 8008 7997 7996 7995 ] final  151.12 input   59.86 | X-H torsion
[ 10167 10162 10161 10158 ] final -129.49 input  -65.29 | X-H torsion
[ 10718 10713 10712 10709 ] final -178.43 input   66.30 | X-H torsion
[ 10763 10752 10751 10750 ] final  151.26 input  -60.55 | X-H torsion
[ 11005 11000 10999 10996 ] final   94.40 input  -57.11 | X-H torsion

> <Gold.Protein.ActiveResidues>
 VAL166  LYS551  ARG553  GLY616  TRP617  ASP618  TYR619  PRO620  LYS621  CYS622 
 ASP623  PHE694  ASN695  SER759  ASP760  ASP761  ALA762  ILE779  LEU786  VAL792 
 PHE793  MET794  SER795  GLU796  ALA797  LYS798  CYS799  TRP800  GLU811  SER814 

> <Gold.Protein.RotatedAtoms>
  150.8539  134.7872  159.7030 H   0  0  0  0  0  0  0  0  0  0  0  0  # atno 6907 bound_to 6896
  152.4596  134.5210  159.9792 H   0  0  0  0  0  0  0  0  0  0  0  0  # atno 6908 bound_to 6896
  151.5326  133.3408  159.2956 H   0  0  0  0  0  0  0  0  0  0  0  0  # atno 6909 bound_to 6896
  146.0843  140.6018  142.8894 H   0  0  0  0  0  0  0  0  0  0  0  0  # atno 7974 bound_to 7965
  156.2687  140.2056  156.6126 H   0  0  0  0  0  0  0  0  0  0  0  0  # atno 8008 bound_to 7997
  154.6819  140.0539  157.0299 H   0  0  0  0  0  0  0  0  0  0  0  0  # atno 8009 bound_to 7997
  155.0988  140.3204  155.4556 H   0  0  0  0  0  0  0  0  0  0  0  0  # atno 8010 bound_to 7997
  139.9393  143.6182  152.2508 H   0  0  0  0  0  0  0  0  0  0  0  0  # atno 10167 bound_to 10162
  156.8442  130.9697  151.3097 H   0  0  0  0  0  0  0  0  0  0  0  0  # atno 10718 bound_to 10713
  154.1008  135.2846  155.3252 H   0  0  0  0  0  0  0  0  0  0  0  0  # atno 10763 bound_to 10752
  154.6556  135.5353  153.7958 H   0  0  0  0  0  0  0  0  0  0  0  0  # atno 10764 bound_to 10752
  153.0379  135.6521  154.1172 H   0  0  0  0  0  0  0  0  0  0  0  0  # atno 10765 bound_to 10752
  139.8799  134.8843  156.3858 H   0  0  0  0  0  0  0  0  0  0  0  0  # atno 11005 bound_to 11000
  144.7315  140.4684  143.6934 LP  0  0  0  0  0  0  0  0  0  0  0  0  # atno 17320 bound_to 7965
  145.6159  139.1518  143.3049 LP  0  0  0  0  0  0  0  0  0  0  0  0  # atno 17321 bound_to 7965
  139.6718  144.7660  151.1769 LP  0  0  0  0  0  0  0  0  0  0  0  0  # atno 17342 bound_to 10162
  140.7615  143.5854  150.8851 LP  0  0  0  0  0  0  0  0  0  0  0  0  # atno 17343 bound_to 10162
  157.6339  130.8751  149.9323 LP  0  0  0  0  0  0  0  0  0  0  0  0  # atno 17370 bound_to 10713
  156.0863  130.3667  150.0480 LP  0  0  0  0  0  0  0  0  0  0  0  0  # atno 17371 bound_to 10713
  140.9367  133.7542  156.0093 LP  0  0  0  0  0  0  0  0  0  0  0  0  # atno 17394 bound_to 11000
  140.8267  134.3225  157.5363 LP  0  0  0  0  0  0  0  0  0  0  0  0  # atno 17395 bound_to 11000

$$$$
