AV-unprocessed.smi:1504|AV-procd|sdf|6073|dock3
  -GOLD-   22720 6193D 1   1.00000     0.00000
 Structure written by MMmdl.
 40 41  0  0  0  0  0  0  0  0  2 V2000
  146.0012  138.6391  154.0879 O   0  0  0  0  0  0  0  0  0  0  0  0
  146.7956  137.9529  153.4447 C   0  0  0  0  0  0  0  0  0  0  0  0
  146.4629  136.8268  152.7984 N   0  0  0  0  0  0  0  0  0  0  0  0
  145.1226  136.2534  152.7600 C   0  0  0  0  0  0  0  0  0  0  0  0
  144.6167  136.0938  151.3163 C   0  0  0  0  0  0  0  0  0  0  0  0
  144.8541  134.6980  150.7738 C   0  0  0  0  0  0  0  0  0  0  0  0
  146.1194  134.0745  150.8325 C   0  0  0  0  0  0  0  0  0  0  0  0
  146.2710  132.7730  150.3104 C   0  0  0  0  0  0  0  0  0  0  0  0
  145.1556  132.1226  149.7426 C   0  0  0  0  0  0  0  0  0  0  0  0
  143.9146  132.7911  149.7125 C   0  0  0  0  0  0  0  0  0  0  0  0
  143.8098  134.0380  150.2225 N   0  3  0  0  0  0  0  0  0  0  0  0
  148.0963  138.2397  153.3098 N   0  0  0  0  0  0  0  0  0  0  0  0
  148.7461  139.4028  153.8998 C   0  0  0  0  0  0  0  0  0  0  0  0
  149.8812  138.9820  154.8488 C   0  0  2  0  0  0  0  0  0  0  0  0
  150.5018  140.1813  155.5914 C   0  0  0  0  0  0  0  0  0  0  0  0
  151.7774  139.7102  156.2960 C   0  0  0  0  0  0  0  0  0  0  0  0
  152.5123  138.4526  155.1869 S   0  0  0  0  0  0  0  0  0  0  0  0
  153.5697  139.0734  154.3750 O   0  0  0  0  0  0  0  0  0  0  0  0
  152.7695  137.2257  155.9563 O   0  0  0  0  0  0  0  0  0  0  0  0
  151.0209  138.2243  154.1442 C   0  0  0  0  0  0  0  0  0  0  0  0
  147.1866  136.3334  152.2963 H   0  0  0  0  0  0  0  0  0  0  0  0
  145.1133  135.2921  153.2766 H   0  0  0  0  0  0  0  0  0  0  0  0
  144.4583  136.9129  153.3188 H   0  0  0  0  0  0  0  0  0  0  0  0
  143.5495  136.3148  151.2670 H   0  0  0  0  0  0  0  0  0  0  0  0
  145.1097  136.8138  150.6615 H   0  0  0  0  0  0  0  0  0  0  0  0
  146.9643  134.5850  151.2720 H   0  0  0  0  0  0  0  0  0  0  0  0
  147.2312  132.2796  150.3452 H   0  0  0  0  0  0  0  0  0  0  0  0
  145.2508  131.1259  149.3369 H   0  0  0  0  0  0  0  0  0  0  0  0
  143.0098  132.3701  149.2988 H   0  0  0  0  0  0  0  0  0  0  0  0
  148.6742  137.6179  152.7634 H   0  0  0  0  0  0  0  0  0  0  0  0
  149.1353  140.0405  153.1044 H   0  0  0  0  0  0  0  0  0  0  0  0
  148.0052  139.9891  154.4459 H   0  0  0  0  0  0  0  0  0  0  0  0
  149.4661  138.3165  155.6075 H   0  0  0  0  0  0  0  0  0  0  0  0
  150.7644  140.9550  154.8685 H   0  0  0  0  0  0  0  0  0  0  0  0
  149.8002  140.6283  156.2962 H   0  0  0  0  0  0  0  0  0  0  0  0
  152.4885  140.5152  156.4815 H   0  0  0  0  0  0  0  0  0  0  0  0
  151.5393  139.2269  157.2438 H   0  0  0  0  0  0  0  0  0  0  0  0
  150.8127  137.1618  154.0179 H   0  0  0  0  0  0  0  0  0  0  0  0
  151.2328  138.6546  153.1648 H   0  0  0  0  0  0  0  0  0  0  0  0
  142.9020  134.5027  150.1899 H   0  0  0  0  0  0  0  0  0  0  0  0
  1  2  2  0  0  0  0
  2  3  1  0  0  0  0
  2 12  1  0  0  0  0
  3  4  1  0  0  0  0
  3 21  1  0  0  0  0
  4  5  1  0  0  0  0
  4 22  1  0  0  0  0
  4 23  1  0  0  0  0
  5  6  1  0  0  0  0
  5 24  1  0  0  0  0
  5 25  1  0  0  0  0
  6 11  1  0  0  0  0
  6  7  2  0  0  0  0
  7  8  1  0  0  0  0
  7 26  1  0  0  0  0
  8  9  2  0  0  0  0
  8 27  1  0  0  0  0
  9 10  1  0  0  0  0
  9 28  1  0  0  0  0
 10 11  2  0  0  0  0
 10 29  1  0  0  0  0
 11 40  1  0  0  0  0
 12 13  1  0  0  0  0
 12 30  1  0  0  0  0
 13 14  1  0  0  0  0
 13 31  1  0  0  0  0
 13 32  1  0  0  0  0
 14 20  1  0  0  0  0
 14 15  1  0  0  0  0
 14 33  1  0  0  0  0
 15 16  1  0  0  0  0
 15 34  1  0  0  0  0
 15 35  1  0  0  0  0
 16 17  1  0  0  0  0
 16 36  1  0  0  0  0
 16 37  1  0  0  0  0
 17 18  2  0  0  0  0
 17 19  2  0  0  0  0
 17 20  1  0  0  0  0
 20 38  1  0  0  0  0
 20 39  1  0  0  0  0
M  CHG  1  11   1
M  END
> <s_m_source_file>
AV-unprocessed.smi

> <i_m_source_file_index>
1504

> <i_lp_mmshare_version>
43012

> <i_f3d_flags>
0

> <s_epik_input>
Tz1TMSg9TylbQ0gyXVtDSDJdW0NASF0oW0NIMl0xKVtDSDJdW05IXUMoPU8pW05IXVtDSDJdW0NIMl1jMltjSF1bY0hdW2NIXVtjSF1uMg==

> <s_epik_cmdline>
J2VwaWtfcHl0aG9uJywgJy1waCcsICc3LjAnLCAnLXRuJywgJzgnLCAnLW1hJywgJzIwMCcsICctbWV0YWxfYmluZGluZycsICctaW1hZScsICc8aW5maWxlLm1hZT4nLCAnLW9tYWUnLCAnPG91dGZpbGUubWFlPic=

> <r_epik_Ionization_Penalty>
1.57393

> <r_epik_Ionization_Penalty_Charging>
1.57388

> <r_epik_Ionization_Penalty_Neutral>
4.82054e-05

> <r_epik_State_Penalty>
1.66991

> <r_epik_Charging_Adjusted_Penalty>
3.24379

> <i_epik_Tot_Q>
1

> <i_epik_Tot_abs_Q>
1

> <r_epik_Metal_State_Penalty>
1.71052

> <b_epik_Metal_Only>
0

> <s_lp_Force_Field>
OPLS_2005

> <r_lp_Energy>
6.68719

> <b_lp_Chiralities_Consistent>
1

> <s_lp_Variant>
AV-unprocessed.smi:1504-3

> <Gold.Version>
5.8.1

> <Gold.Id.Protein>
6NUR|6NUR_protein|mol2

> <Gold.PLP.Fitness>
53.5254

> <Gold.PLP.PLP>
-37.2637

> <Gold.PLP.part.hbond>
-5.8025

> <Gold.PLP.part.metal>
0.0000

> <Gold.PLP.part.buried>
-1.3812

> <Gold.PLP.part.nonpolar>
-30.5741

> <Gold.PLP.part.repulsive>
0.2285

> <Gold.PLP.ligand.clash>
0.0000

> <Gold.PLP.ligand.torsion>
0.3266

> <Gold.PLP.Chemscore.Hbond>
5.6308

> <Gold.PLP.Chemscore.CHOScore>
0.0000

> <Gold.PLP.Chemscore.Metal>
0.0000

> <Gold.Chemscore.Hbonds>
donor molecule, donor type, donor heavy atom, donor atom, acceptor molecule, acceptor atom, score
      L1  H     3    21       P1  7948  0.96
      L1  H    11    40       P1 10186  1.89
      L1  H    12    30       P1  7948  1.00
      P1  H  7997  8009       L1    18  0.98
      P1  H 10752 10763       L1    19  0.67

> <Gold.PLP.Chemscore.Internal.Correction>
0.0224

> <Gold.Rescore>
     Score         DG    S(hbond)    S(metal)    S(lipo)     H(rot)  DE(clash)    DE(int)     intcor
     24.91     -25.49       4.56        0.00      85.06       2.01       0.16       0.42       ----

> <Gold.Chemscore.Fitness>
24.9106

> <Gold.Chemscore.DG>
-25.4894

> <Gold.Chemscore.ZeroCoef>
-5.4800

> <Gold.Chemscore.Hbond>
4.5552

> <Gold.Chemscore.Metal>
0.0000

> <Gold.Chemscore.Lipo>
85.0629

> <Gold.Chemscore.Internal_Hbond>
0.0000

> <Gold.Chemscore.DEClash>
0.1627

> <Gold.Chemscore.DEInternal>
0.4160

> <Gold.Chemscore.Rot>
2.0146

> <Gold.Chemscore.Internal.Correction>
   9.000000E+99

> <Gold.Chemscore.Hbonds>
donor molecule, donor type, donor heavy atom, donor atom, acceptor molecule, acceptor atom, score
      L1  H     3    21       P1  7948  0.92
      L1  H    11    40       P1 10186  0.65
      L1  H    12    30       P1  7948  0.98
      P1  H  7997  8009       L1    18  0.68
      P1  H 10752 10763       L1    19  0.63

> <Gold.Chemscore.Hbond.Weighted>
-15.2143

> <Gold.Chemscore.Metal.Weighted>
-0.0000

> <Gold.Chemscore.Lipo.Weighted>
-9.9524

> <Gold.Chemscore.Internal_Hbond.Weighted>
0.0000

> <Gold.Chemscore.DEClash.Weighted>
0.1627

> <Gold.Chemscore.DEInternal.Weighted>
0.4160

> <Gold.Chemscore.Rot.Weighted>
5.1573

> <Gold.Chemscore.Internal.Correction.Weighted>
   9.000000E+99

> <Gold.Protein.RotatedTorsions>
[ 6907 6896 6895 6894 ] final  155.18 input  -60.11 | X-H torsion
[ 7974 7965 7964 7962 ] final  148.50 input  175.53 | X-H torsion
[ 8008 7997 7996 7995 ] final -109.99 input   59.86 | X-H torsion
[ 10167 10162 10161 10158 ] final -137.81 input  -65.29 | X-H torsion
[ 10718 10713 10712 10709 ] final -154.65 input   66.30 | X-H torsion
[ 10763 10752 10751 10750 ] final   94.56 input  -60.55 | X-H torsion
[ 11005 11000 10999 10996 ] final   30.61 input  -57.11 | X-H torsion

> <Gold.Protein.ActiveResidues>
 VAL166  LYS551  ARG553  GLY616  TRP617  ASP618  TYR619  PRO620  LYS621  CYS622 
 ASP623  PHE694  ASN695  SER759  ASP760  ASP761  ALA762  ILE779  LEU786  VAL792 
 PHE793  MET794  SER795  GLU796  ALA797  LYS798  CYS799  TRP800  GLU811  SER814 

> <Gold.Protein.RotatedAtoms>
  152.0478  133.4006  159.4363 H   0  0  0  0  0  0  0  0  0  0  0  0  # atno 6907 bound_to 6896
  150.6872  134.3342  159.4849 H   0  0  0  0  0  0  0  0  0  0  0  0  # atno 6908 bound_to 6896
  152.1148  134.9248  160.0616 H   0  0  0  0  0  0  0  0  0  0  0  0  # atno 6909 bound_to 6896
  144.8509  139.6162  143.5974 H   0  0  0  0  0  0  0  0  0  0  0  0  # atno 7974 bound_to 7965
  154.9678  140.0398  157.2220 H   0  0  0  0  0  0  0  0  0  0  0  0  # atno 8008 bound_to 7997
  154.7829  140.2822  155.6027 H   0  0  0  0  0  0  0  0  0  0  0  0  # atno 8009 bound_to 7997
  156.2939  140.2588  156.2659 H   0  0  0  0  0  0  0  0  0  0  0  0  # atno 8010 bound_to 7997
  139.8541  143.7161  152.2655 H   0  0  0  0  0  0  0  0  0  0  0  0  # atno 10167 bound_to 10162
  156.5022  130.8396  151.2613 H   0  0  0  0  0  0  0  0  0  0  0  0  # atno 10718 bound_to 10713
  153.2431  135.4285  155.0719 H   0  0  0  0  0  0  0  0  0  0  0  0  # atno 10763 bound_to 10752
  154.8349  135.3407  154.6621 H   0  0  0  0  0  0  0  0  0  0  0  0  # atno 10764 bound_to 10752
  153.7044  135.7026  153.5111 H   0  0  0  0  0  0  0  0  0  0  0  0  # atno 10765 bound_to 10752
  140.2926  134.2847  155.7772 H   0  0  0  0  0  0  0  0  0  0  0  0  # atno 11005 bound_to 11000
  146.2784  139.6812  142.9247 LP  0  0  0  0  0  0  0  0  0  0  0  0  # atno 17320 bound_to 7965
  145.4502  141.0428  143.2809 LP  0  0  0  0  0  0  0  0  0  0  0  0  # atno 17321 bound_to 7965
  139.7437  144.7553  151.0613 LP  0  0  0  0  0  0  0  0  0  0  0  0  # atno 17342 bound_to 10162
  140.7784  143.4942  150.9854 LP  0  0  0  0  0  0  0  0  0  0  0  0  # atno 17343 bound_to 10162
  157.7461  130.9978  150.2829 LP  0  0  0  0  0  0  0  0  0  0  0  0  # atno 17370 bound_to 10713
  156.3322  130.3802  149.7481 LP  0  0  0  0  0  0  0  0  0  0  0  0  # atno 17371 bound_to 10713
  141.2143  133.7595  156.9647 LP  0  0  0  0  0  0  0  0  0  0  0  0  # atno 17394 bound_to 11000
  140.1181  134.9434  157.2164 LP  0  0  0  0  0  0  0  0  0  0  0  0  # atno 17395 bound_to 11000

$$$$
