AV-unprocessed.smi:3263|AV-procd|sdf|12488|dock3
  -GOLD-   2272018383D 1   1.00000     0.00000
 Structure written by MMmdl.
 41 43  0  0  0  0  0  0  0  0  1 V2000
  151.2503  140.5190  155.3879 O   0  0  0  0  0  0  0  0  0  0  0  0
  151.2420  140.8248  156.5804 C   0  0  0  0  0  0  0  0  0  0  0  0
  150.5749  142.1246  157.0428 C   0  0  0  0  0  0  0  0  0  0  0  0
  150.9734  142.5429  158.4762 C   0  0  2  0  0  0  0  0  0  0  0  0
  150.3476  143.8792  158.9452 C   0  0  0  0  0  0  0  0  0  0  0  0
  151.5732  144.7124  159.3612 C   0  0  1  0  0  0  0  0  0  0  0  0
  152.1935  144.1166  160.6386 C   0  0  0  0  0  0  0  0  0  0  0  0
  152.8519  142.8228  160.1236 C   0  0  0  0  0  0  0  0  0  0  0  0
  152.4857  142.8284  158.6268 C   0  0  2  0  0  0  0  0  0  0  0  0
  152.5890  144.3151  158.2984 C   0  0  0  0  0  0  0  0  0  0  0  0
  151.7953  140.0660  157.5387 N   0  0  0  0  0  0  0  0  0  0  0  0
  152.4817  138.7997  157.3127 C   0  0  0  0  0  0  0  0  0  0  0  0
  152.0387  137.7279  158.3222 C   0  0  0  0  0  0  0  0  0  0  0  0
  152.7975  137.8268  159.6318 C   0  0  0  0  0  0  0  0  0  0  0  0
  153.3314  139.0596  160.0645 C   0  0  0  0  0  0  0  0  0  0  0  0
  154.0203  139.0982  161.2923 C   0  0  0  0  0  0  0  0  0  0  0  0
  154.1467  137.9098  162.0371 C   0  0  0  0  0  0  0  0  0  0  0  0
  153.5770  136.7301  161.5180 C   0  0  0  0  0  0  0  0  0  0  0  0
  152.9152  136.6817  160.3418 N   0  0  0  0  0  0  0  0  0  0  0  0
  150.8597  142.9104  156.3424 H   0  0  0  0  0  0  0  0  0  0  0  0
  149.4913  142.0261  156.9669 H   0  0  0  0  0  0  0  0  0  0  0  0
  150.6909  141.7402  159.1598 H   0  0  0  0  0  0  0  0  0  0  0  0
  149.8163  144.3782  158.1337 H   0  0  0  0  0  0  0  0  0  0  0  0
  149.6418  143.7404  159.7649 H   0  0  0  0  0  0  0  0  0  0  0  0
  151.3716  145.7817  159.4295 H   0  0  0  0  0  0  0  0  0  0  0  0
  152.9440  144.7878  161.0580 H   0  0  0  0  0  0  0  0  0  0  0  0
  151.4459  143.9249  161.4093 H   0  0  0  0  0  0  0  0  0  0  0  0
  153.9337  142.8659  160.2564 H   0  0  0  0  0  0  0  0  0  0  0  0
  152.4893  141.9341  160.6417 H   0  0  0  0  0  0  0  0  0  0  0  0
  153.1224  142.1784  158.0258 H   0  0  0  0  0  0  0  0  0  0  0  0
  152.2746  144.5642  157.2839 H   0  0  0  0  0  0  0  0  0  0  0  0
  153.5834  144.7294  158.4742 H   0  0  0  0  0  0  0  0  0  0  0  0
  151.7409  140.3909  158.4932 H   0  0  0  0  0  0  0  0  0  0  0  0
  152.3105  138.4569  156.2907 H   0  0  0  0  0  0  0  0  0  0  0  0
  153.5535  138.9778  157.4045 H   0  0  0  0  0  0  0  0  0  0  0  0
  150.9708  137.8228  158.5248 H   0  0  0  0  0  0  0  0  0  0  0  0
  152.1829  136.7313  157.9023 H   0  0  0  0  0  0  0  0  0  0  0  0
  153.2152  139.9554  159.4721 H   0  0  0  0  0  0  0  0  0  0  0  0
  154.4432  140.0232  161.6561 H   0  0  0  0  0  0  0  0  0  0  0  0
  154.6672  137.9026  162.9832 H   0  0  0  0  0  0  0  0  0  0  0  0
  153.6543  135.8005  162.0624 H   0  0  0  0  0  0  0  0  0  0  0  0
  1  2  2  0  0  0  0
  2  3  1  0  0  0  0
  2 11  1  0  0  0  0
  3  4  1  0  0  0  0
  3 20  1  0  0  0  0
  3 21  1  0  0  0  0
  4  9  1  0  0  0  0
  4  5  1  0  0  0  0
  4 22  1  0  0  0  0
  5  6  1  0  0  0  0
  5 23  1  0  0  0  0
  5 24  1  0  0  0  0
  6 10  1  0  0  0  0
  6  7  1  0  0  0  0
  6 25  1  0  0  0  0
  7  8  1  0  0  0  0
  7 26  1  0  0  0  0
  7 27  1  0  0  0  0
  8  9  1  0  0  0  0
  8 28  1  0  0  0  0
  8 29  1  0  0  0  0
  9 10  1  0  0  0  0
  9 30  1  0  0  0  0
 10 31  1  0  0  0  0
 10 32  1  0  0  0  0
 11 12  1  0  0  0  0
 11 33  1  0  0  0  0
 12 13  1  0  0  0  0
 12 34  1  0  0  0  0
 12 35  1  0  0  0  0
 13 14  1  0  0  0  0
 13 36  1  0  0  0  0
 13 37  1  0  0  0  0
 14 19  1  0  0  0  0
 14 15  2  0  0  0  0
 15 16  1  0  0  0  0
 15 38  1  0  0  0  0
 16 17  2  0  0  0  0
 16 39  1  0  0  0  0
 17 18  1  0  0  0  0
 17 40  1  0  0  0  0
 18 19  2  0  0  0  0
 18 41  1  0  0  0  0
M  END
> <s_m_source_file>
AV-unprocessed.smi

> <i_m_source_file_index>
3263

> <i_lp_mmshare_version>
43012

> <i_f3d_flags>
0

> <s_epik_input>
W0NIMl0xW0NIMl1bQ0BASF0oW0NIMl0yKVtDQEBIXShbQ0gyXVtDQEhdMTIpW0NIMl1DKD1PKVtOSF1bQ0gyXVtDSDJdYzNbY0hdW2NIXVtjSF1bY0hdbjM=

> <s_epik_cmdline>
J2VwaWtfcHl0aG9uJywgJy1waCcsICc3LjAnLCAnLXRuJywgJzgnLCAnLW1hJywgJzIwMCcsICctbWV0YWxfYmluZGluZycsICctaW1hZScsICc8aW5maWxlLm1hZT4nLCAnLW9tYWUnLCAnPG91dGZpbGUubWFlPic=

> <r_epik_Ionization_Penalty>
0.0273541

> <r_epik_Ionization_Penalty_Charging>
0

> <r_epik_Ionization_Penalty_Neutral>
0.0273541

> <r_epik_State_Penalty>
0.0223838

> <r_epik_Charging_Adjusted_Penalty>
0.0223838

> <i_epik_Tot_Q>
0

> <i_epik_Tot_abs_Q>
0

> <r_epik_Metal_State_Penalty>
0.0213927

> <b_epik_Metal_Only>
0

> <s_lp_Force_Field>
OPLS_2005

> <r_lp_Energy>
45.3245

> <b_lp_Chiralities_Consistent>
1

> <s_lp_Variant>
AV-unprocessed.smi:3263-3

> <Gold.Version>
5.8.1

> <Gold.Id.Protein>
6NUR|6NUR_protein|mol2

> <Gold.PLP.Fitness>
45.7158

> <Gold.PLP.PLP>
-41.5862

> <Gold.PLP.part.hbond>
-1.9867

> <Gold.PLP.part.metal>
0.0000

> <Gold.PLP.part.buried>
-5.7565

> <Gold.PLP.part.nonpolar>
-34.7789

> <Gold.PLP.part.repulsive>
0.1023

> <Gold.PLP.ligand.clash>
0.0000

> <Gold.PLP.ligand.torsion>
0.7795

> <Gold.PLP.Chemscore.Hbond>
1.8710

> <Gold.PLP.Chemscore.CHOScore>
0.0000

> <Gold.PLP.Chemscore.Metal>
0.0000

> <Gold.Chemscore.Hbonds>
donor molecule, donor type, donor heavy atom, donor atom, acceptor molecule, acceptor atom, score
      P1  H  6896  6908       L1    19  1.00
      P1  H  7989  7998       L1     1  0.90

> <Gold.PLP.Chemscore.Internal.Correction>
0.0756

> <Gold.Rescore>
     Score         DG    S(hbond)    S(metal)    S(lipo)     H(rot)  DE(clash)    DE(int)     intcor
     22.17     -22.97       1.92        0.00     126.47       1.46       0.06       0.74       ----

> <Gold.Chemscore.Fitness>
22.1720

> <Gold.Chemscore.DG>
-22.9667

> <Gold.Chemscore.ZeroCoef>
-5.4800

> <Gold.Chemscore.Hbond>
1.9211

> <Gold.Chemscore.Metal>
0.0000

> <Gold.Chemscore.Lipo>
126.4651

> <Gold.Chemscore.Internal_Hbond>
0.0000

> <Gold.Chemscore.DEClash>
0.0551

> <Gold.Chemscore.DEInternal>
0.7396

> <Gold.Chemscore.Rot>
1.4555

> <Gold.Chemscore.Internal.Correction>
   9.000000E+99

> <Gold.Chemscore.Hbonds>
donor molecule, donor type, donor heavy atom, donor atom, acceptor molecule, acceptor atom, score
      P1  H  6896  6908       L1    19  0.88
      P1  H  7989  7998       L1     1  0.87

> <Gold.Chemscore.Hbond.Weighted>
-6.4163

> <Gold.Chemscore.Metal.Weighted>
-0.0000

> <Gold.Chemscore.Lipo.Weighted>
-14.7964

> <Gold.Chemscore.Internal_Hbond.Weighted>
0.0000

> <Gold.Chemscore.DEClash.Weighted>
0.0551

> <Gold.Chemscore.DEInternal.Weighted>
0.7396

> <Gold.Chemscore.Rot.Weighted>
3.7260

> <Gold.Chemscore.Internal.Correction.Weighted>
   9.000000E+99

> <Gold.Protein.RotatedTorsions>
[ 6907 6896 6895 6894 ] final  -98.97 input  -60.11 | X-H torsion
[ 7974 7965 7964 7962 ] final   89.76 input  175.53 | X-H torsion
[ 8008 7997 7996 7995 ] final   16.55 input   59.86 | X-H torsion
[ 10167 10162 10161 10158 ] final  106.84 input  -65.29 | X-H torsion
[ 10718 10713 10712 10709 ] final   85.22 input   66.30 | X-H torsion
[ 10763 10752 10751 10750 ] final   30.64 input  -60.55 | X-H torsion
[ 11005 11000 10999 10996 ] final -143.70 input  -57.11 | X-H torsion

> <Gold.Protein.ActiveResidues>
 VAL166  LYS551  ARG553  GLY616  TRP617  ASP618  TYR619  PRO620  LYS621  CYS622 
 ASP623  PHE694  ASN695  SER759  ASP760  ASP761  ALA762  ILE779  LEU786  VAL792 
 PHE793  MET794  SER795  GLU796  ALA797  LYS798  CYS799  TRP800  GLU811  SER814 

> <Gold.Protein.RotatedAtoms>
  150.7064  134.1113  159.4000 H   0  0  0  0  0  0  0  0  0  0  0  0  # atno 6907 bound_to 6896
  151.9099  135.0341  160.0523 H   0  0  0  0  0  0  0  0  0  0  0  0  # atno 6908 bound_to 6896
  152.2344  133.5049  159.5271 H   0  0  0  0  0  0  0  0  0  0  0  0  # atno 6909 bound_to 6896
  145.5281  139.2282  143.2634 H   0  0  0  0  0  0  0  0  0  0  0  0  # atno 7974 bound_to 7965
  154.8786  140.2969  155.5438 H   0  0  0  0  0  0  0  0  0  0  0  0  # atno 8008 bound_to 7997
  156.3022  140.2446  156.3719 H   0  0  0  0  0  0  0  0  0  0  0  0  # atno 8009 bound_to 7997
  154.8741  140.0400  157.1731 H   0  0  0  0  0  0  0  0  0  0  0  0  # atno 8010 bound_to 7997
  139.6976  144.7099  151.1241 H   0  0  0  0  0  0  0  0  0  0  0  0  # atno 10167 bound_to 10162
  157.6911  131.0166  150.2790 H   0  0  0  0  0  0  0  0  0  0  0  0  # atno 10718 bound_to 10713
  153.0360  135.6459  154.1076 H   0  0  0  0  0  0  0  0  0  0  0  0  # atno 10763 bound_to 10752
  154.0790  135.2874  155.3295 H   0  0  0  0  0  0  0  0  0  0  0  0  # atno 10764 bound_to 10752
  154.6543  135.5415  153.8003 H   0  0  0  0  0  0  0  0  0  0  0  0  # atno 10765 bound_to 10752
  140.8099  134.2757  157.4945 H   0  0  0  0  0  0  0  0  0  0  0  0  # atno 11005 bound_to 11000
  146.2062  140.6096  142.9080 LP  0  0  0  0  0  0  0  0  0  0  0  0  # atno 17320 bound_to 7965
  144.7640  140.5489  143.6715 LP  0  0  0  0  0  0  0  0  0  0  0  0  # atno 17321 bound_to 7965
  140.7700  143.5470  150.9247 LP  0  0  0  0  0  0  0  0  0  0  0  0  # atno 17342 bound_to 10162
  139.9150  143.6674  152.3108 LP  0  0  0  0  0  0  0  0  0  0  0  0  # atno 17343 bound_to 10162
  156.3340  130.3805  149.7466 LP  0  0  0  0  0  0  0  0  0  0  0  0  # atno 17370 bound_to 10713
  156.4997  130.8123  151.3127 LP  0  0  0  0  0  0  0  0  0  0  0  0  # atno 17371 bound_to 10713
  139.8715  134.9477  156.3975 LP  0  0  0  0  0  0  0  0  0  0  0  0  # atno 17394 bound_to 11000
  140.9208  133.7646  155.9904 LP  0  0  0  0  0  0  0  0  0  0  0  0  # atno 17395 bound_to 11000

$$$$
