AV-unprocessed.smi:203|AV-procd|sdf|1591|dock6
  -GOLD-   2262019493D 1   1.00000     0.00000
 Structure written by MMmdl.
 57 61  0  0  0  0  0  0  0  0  1 V2000
  156.3227  138.2339  158.9974 O   0  0  0  0  0  0  0  0  0  0  0  0
  155.4177  138.8597  159.5441 C   0  0  0  0  0  0  0  0  0  0  0  0
  154.0045  138.9421  158.9934 C   0  0  0  0  0  0  0  0  0  0  0  0
  153.3233  139.9924  159.8923 C   0  0  2  0  0  0  0  0  0  0  0  0
  152.9414  141.3145  159.1516 C   0  0  2  0  0  0  0  0  0  0  0  0
  152.7996  142.5256  160.1105 C   0  0  0  0  0  0  0  0  0  0  0  0
  152.4436  143.8106  159.3500 C   0  0  0  0  0  0  0  0  0  0  0  0
  151.1729  143.5944  158.5203 C   0  0  0  0  0  0  0  0  0  0  0  0
  151.3423  142.3903  157.5837 C   0  0  0  0  0  0  0  0  0  0  0  0
  151.7242  141.1916  158.3282 N   0  0  0  0  0  0  0  0  0  0  0  0
  151.6427  140.0935  157.5457 C   0  0  0  0  0  0  0  0  0  0  0  0
  152.6819  139.8510  156.7099 N   0  0  0  0  0  0  0  0  0  0  0  0
  152.6287  138.8180  155.8638 C   0  0  0  0  0  0  0  0  0  0  0  0
  151.6465  137.9309  155.6902 N   0  0  0  0  0  0  0  0  0  0  0  0
  150.6078  138.1670  156.5427 C   0  0  0  0  0  0  0  0  0  0  0  0
  150.5291  139.2092  157.5068 C   0  0  0  0  0  0  0  0  0  0  0  0
  149.3223  139.1340  158.1922 N   0  0  0  0  0  0  0  0  0  0  0  0
  148.7076  138.1231  157.6417 C   0  0  0  0  0  0  0  0  0  0  0  0
  149.3985  137.5011  156.6273 N   0  0  0  0  0  0  0  0  0  0  0  0
  148.9261  136.4083  155.7989 C   0  0  0  0  0  0  0  0  0  0  0  0
  150.0179  135.3449  155.5453 C   0  0  2  0  0  0  0  0  0  0  0  0
  150.7444  135.7507  154.4027 O   0  0  0  0  0  0  0  0  0  0  0  0
  149.4793  133.9110  155.3269 C   0  0  1  0  0  0  0  0  0  0  0  0
  148.8639  133.6570  153.9484 C   0  0  0  0  0  0  0  0  0  0  0  0
  149.0123  132.1548  153.7524 C   0  0  0  0  0  0  0  0  0  0  0  0
  150.0074  131.7350  154.8359 C   0  0  0  0  0  0  0  0  0  0  0  0
  150.5331  132.9572  155.3275 O   0  0  0  0  0  0  0  0  0  0  0  0
  154.2892  140.1925  161.0814 C   0  0  0  0  0  0  0  0  0  0  0  0
  155.5225  139.5443  160.6808 N   0  0  0  0  0  0  0  0  0  0  0  0
  153.9992  139.2058  157.9359 H   0  0  0  0  0  0  0  0  0  0  0  0
  153.5262  137.9678  159.0972 H   0  0  0  0  0  0  0  0  0  0  0  0
  152.4147  139.5222  160.2693 H   0  0  0  0  0  0  0  0  0  0  0  0
  153.7601  141.5471  158.4696 H   0  0  0  0  0  0  0  0  0  0  0  0
  152.0261  142.3320  160.8539 H   0  0  0  0  0  0  0  0  0  0  0  0
  153.7209  142.6924  160.6670 H   0  0  0  0  0  0  0  0  0  0  0  0
  152.3016  144.6349  160.0495 H   0  0  0  0  0  0  0  0  0  0  0  0
  153.2695  144.0930  158.6960 H   0  0  0  0  0  0  0  0  0  0  0  0
  150.3240  143.4263  159.1841 H   0  0  0  0  0  0  0  0  0  0  0  0
  150.9444  144.4897  157.9418 H   0  0  0  0  0  0  0  0  0  0  0  0
  150.4102  142.2135  157.0448 H   0  0  0  0  0  0  0  0  0  0  0  0
  152.1056  142.6096  156.8356 H   0  0  0  0  0  0  0  0  0  0  0  0
  153.4910  138.6913  155.2261 H   0  0  0  0  0  0  0  0  0  0  0  0
  147.7160  137.8188  157.9429 H   0  0  0  0  0  0  0  0  0  0  0  0
  148.0621  135.9556  156.2876 H   0  0  0  0  0  0  0  0  0  0  0  0
  148.5690  136.8215  154.8547 H   0  0  0  0  0  0  0  0  0  0  0  0
  150.7119  135.3357  156.3866 H   0  0  0  0  0  0  0  0  0  0  0  0
  150.1345  136.0748  153.7580 H   0  0  0  0  0  0  0  0  0  0  0  0
  148.7586  133.6527  156.1057 H   0  0  0  0  0  0  0  0  0  0  0  0
  147.8274  133.9897  153.8845 H   0  0  0  0  0  0  0  0  0  0  0  0
  149.4327  134.1824  153.1799 H   0  0  0  0  0  0  0  0  0  0  0  0
  148.0617  131.6360  153.8800 H   0  0  0  0  0  0  0  0  0  0  0  0
  149.3874  131.9303  152.7534 H   0  0  0  0  0  0  0  0  0  0  0  0
  149.5001  131.2109  155.6473 H   0  0  0  0  0  0  0  0  0  0  0  0
  150.7984  131.0887  154.4554 H   0  0  0  0  0  0  0  0  0  0  0  0
  154.4618  141.2407  161.3258 H   0  0  0  0  0  0  0  0  0  0  0  0
  153.9055  139.7043  161.9782 H   0  0  0  0  0  0  0  0  0  0  0  0
  156.3750  139.6220  161.2164 H   0  0  0  0  0  0  0  0  0  0  0  0
  1  2  2  0  0  0  0
  2 29  1  0  0  0  0
  2  3  1  0  0  0  0
  3  4  1  0  0  0  0
  3 30  1  0  0  0  0
  3 31  1  0  0  0  0
  4  5  1  0  0  0  0
  4 28  1  0  0  0  0
  4 32  1  0  0  0  0
  5 10  1  0  0  0  0
  5  6  1  0  0  0  0
  5 33  1  0  0  0  0
  6  7  1  0  0  0  0
  6 34  1  0  0  0  0
  6 35  1  0  0  0  0
  7  8  1  0  0  0  0
  7 36  1  0  0  0  0
  7 37  1  0  0  0  0
  8  9  1  0  0  0  0
  8 38  1  0  0  0  0
  8 39  1  0  0  0  0
  9 10  1  0  0  0  0
  9 40  1  0  0  0  0
  9 41  1  0  0  0  0
 10 11  1  0  0  0  0
 11 16  1  0  0  0  0
 11 12  2  0  0  0  0
 12 13  1  0  0  0  0
 13 14  2  0  0  0  0
 13 42  1  0  0  0  0
 14 15  1  0  0  0  0
 15 19  1  0  0  0  0
 15 16  2  0  0  0  0
 16 17  1  0  0  0  0
 17 18  2  0  0  0  0
 18 19  1  0  0  0  0
 18 43  1  0  0  0  0
 19 20  1  0  0  0  0
 20 21  1  0  0  0  0
 20 44  1  0  0  0  0
 20 45  1  0  0  0  0
 21 22  1  0  0  0  0
 21 23  1  0  0  0  0
 21 46  1  0  0  0  0
 22 47  1  0  0  0  0
 23 27  1  0  0  0  0
 23 24  1  0  0  0  0
 23 48  1  0  0  0  0
 24 25  1  0  0  0  0
 24 49  1  0  0  0  0
 24 50  1  0  0  0  0
 25 26  1  0  0  0  0
 25 51  1  0  0  0  0
 25 52  1  0  0  0  0
 26 27  1  0  0  0  0
 26 53  1  0  0  0  0
 26 54  1  0  0  0  0
 28 29  1  0  0  0  0
 28 55  1  0  0  0  0
 28 56  1  0  0  0  0
 29 57  1  0  0  0  0
M  END
> <s_m_source_file>
AV-unprocessed.smi

> <i_m_source_file_index>
203

> <i_lp_mmshare_version>
43012

> <i_f3d_flags>
0

> <s_epik_input>
Tz1DMVtDSDJdW0NASF0oW0NIMl1bTkhdMSlbQ0BASF0yW0NIMl1bQ0gyXVtDSDJdW0NIMl1OMmMobltjSF1uMyljKGMzNCluW2NIXW40W0NIMl1bQ0BIXShbT0hdKVtDQEBIXTVbQ0gyXVtDSDJdW0NIMl1PNQ==

> <s_epik_cmdline>
J2VwaWtfcHl0aG9uJywgJy1waCcsICc3LjAnLCAnLXRuJywgJzgnLCAnLW1hJywgJzIwMCcsICctbWV0YWxfYmluZGluZycsICctaW1hZScsICc8aW5maWxlLm1hZT4nLCAnLW9tYWUnLCAnPG91dGZpbGUubWFlPic=

> <r_lp_tautomer_probability>
1

> <r_epik_Ionization_Penalty>
0.00175146

> <r_epik_Ionization_Penalty_Charging>
0

> <r_epik_Ionization_Penalty_Neutral>
0.00175146

> <r_epik_State_Penalty>
0.00109045

> <r_epik_Charging_Adjusted_Penalty>
0.00109045

> <i_epik_Tot_Q>
0

> <i_epik_Tot_abs_Q>
0

> <r_epik_Metal_State_Penalty>
-0

> <b_epik_Metal_Only>
0

> <s_lp_Force_Field>
OPLS_2005

> <r_lp_Energy>
54.7877

> <b_lp_Chiralities_Consistent>
1

> <s_lp_Variant>
AV-unprocessed.smi:203-10

> <Gold.Version>
5.8.1

> <Gold.Id.Protein>
6NUR|6NUR_protein|mol2

> <Gold.PLP.Fitness>
45.2969

> <Gold.PLP.PLP>
-42.1713

> <Gold.PLP.part.hbond>
-3.4657

> <Gold.PLP.part.metal>
0.0000

> <Gold.PLP.part.buried>
-3.7754

> <Gold.PLP.part.nonpolar>
-34.4955

> <Gold.PLP.part.repulsive>
0.0916

> <Gold.PLP.ligand.clash>
0.0024

> <Gold.PLP.ligand.torsion>
1.5352

> <Gold.PLP.Chemscore.Hbond>
1.9643

> <Gold.PLP.Chemscore.CHOScore>
0.0000

> <Gold.PLP.Chemscore.Metal>
0.0000

> <Gold.Chemscore.Hbonds>
donor molecule, donor type, donor heavy atom, donor atom, acceptor molecule, acceptor atom, score
      L1  H    22    47       P1  7948  0.36
      P1  H  7997  8008       L1    12  0.94
      P1  H 10752 10765       L1    22  0.63

> <Gold.PLP.Chemscore.Internal.Correction>
0.3057

> <Gold.Rescore>
     Score         DG    S(hbond)    S(metal)    S(lipo)     H(rot)  DE(clash)    DE(int)     intcor
     11.54     -14.14       1.02        0.00     104.30       2.72       0.01       2.59       ----

> <Gold.Chemscore.Fitness>
11.5415

> <Gold.Chemscore.DG>
-14.1414

> <Gold.Chemscore.ZeroCoef>
-5.4800

> <Gold.Chemscore.Hbond>
1.0220

> <Gold.Chemscore.Metal>
0.0000

> <Gold.Chemscore.Lipo>
104.3043

> <Gold.Chemscore.Internal_Hbond>
0.0000

> <Gold.Chemscore.DEClash>
0.0127

> <Gold.Chemscore.DEInternal>
2.5872

> <Gold.Chemscore.Rot>
2.7171

> <Gold.Chemscore.Internal.Correction>
   9.000000E+99

> <Gold.Chemscore.Hbonds>
donor molecule, donor type, donor heavy atom, donor atom, acceptor molecule, acceptor atom, score
      L1  H    22    47       P1  7948  0.03
      P1  H  7997  8008       L1    12  0.23
      P1  H 10752 10765       L1    22  0.58

> <Gold.Chemscore.Hbond.Weighted>
-3.4135

> <Gold.Chemscore.Metal.Weighted>
-0.0000

> <Gold.Chemscore.Lipo.Weighted>
-12.2036

> <Gold.Chemscore.Internal_Hbond.Weighted>
0.0000

> <Gold.Chemscore.DEClash.Weighted>
0.0127

> <Gold.Chemscore.DEInternal.Weighted>
2.5872

> <Gold.Chemscore.Rot.Weighted>
6.9557

> <Gold.Chemscore.Internal.Correction.Weighted>
   9.000000E+99

> <Gold.Protein.RotatedTorsions>
[ 6907 6896 6895 6894 ] final   51.00 input  -60.11 | X-H torsion
[ 7974 7965 7964 7962 ] final  -27.44 input  175.53 | X-H torsion
[ 8008 7997 7996 7995 ] final  -71.84 input   59.86 | X-H torsion
[ 10167 10162 10161 10158 ] final   12.34 input  -65.29 | X-H torsion
[ 10718 10713 10712 10709 ] final  166.66 input   66.30 | X-H torsion
[ 10763 10752 10751 10750 ] final  174.93 input  -60.55 | X-H torsion
[ 11005 11000 10999 10996 ] final  164.64 input  -57.11 | X-H torsion

> <Gold.Protein.ActiveResidues>
 VAL166  LYS551  ARG553  GLY616  TRP617  ASP618  TYR619  PRO620  LYS621  CYS622 
 ASP623  PHE694  ASN695  SER759  ASP760  ASP761  ALA762  ILE779  LEU786  VAL792 
 PHE793  MET794  SER795  GLU796  ALA797  LYS798  CYS799  TRP800  GLU811  SER814 

> <Gold.Protein.RotatedAtoms>
  152.3079  134.7532  160.0342 H   0  0  0  0  0  0  0  0  0  0  0  0  # atno 6907 bound_to 6896
  151.8023  133.3366  159.3538 H   0  0  0  0  0  0  0  0  0  0  0  0  # atno 6908 bound_to 6896
  150.7306  134.5672  159.5916 H   0  0  0  0  0  0  0  0  0  0  0  0  # atno 6909 bound_to 6896
  146.1357  140.5152  142.8674 H   0  0  0  0  0  0  0  0  0  0  0  0  # atno 7974 bound_to 7965
  154.5119  140.0808  156.8006 H   0  0  0  0  0  0  0  0  0  0  0  0  # atno 8008 bound_to 7997
  155.3766  140.3425  155.4227 H   0  0  0  0  0  0  0  0  0  0  0  0  # atno 8009 bound_to 7997
  156.1583  140.1580  156.8642 H   0  0  0  0  0  0  0  0  0  0  0  0  # atno 8010 bound_to 7997
  140.6074  143.8479  150.7028 H   0  0  0  0  0  0  0  0  0  0  0  0  # atno 10167 bound_to 10162
  157.0627  131.0344  151.2641 H   0  0  0  0  0  0  0  0  0  0  0  0  # atno 10718 bound_to 10713
  154.4607  135.2767  155.1715 H   0  0  0  0  0  0  0  0  0  0  0  0  # atno 10763 bound_to 10752
  154.3504  135.6151  153.5643 H   0  0  0  0  0  0  0  0  0  0  0  0  # atno 10764 bound_to 10752
  152.9854  135.5810  154.4969 H   0  0  0  0  0  0  0  0  0  0  0  0  # atno 10765 bound_to 10752
  140.2480  134.7999  157.3475 H   0  0  0  0  0  0  0  0  0  0  0  0  # atno 11005 bound_to 11000
  144.7737  140.5694  143.6652 LP  0  0  0  0  0  0  0  0  0  0  0  0  # atno 17320 bound_to 7965
  145.5161  139.1478  143.3578 LP  0  0  0  0  0  0  0  0  0  0  0  0  # atno 17321 bound_to 7965
  140.2040  143.3937  152.1770 LP  0  0  0  0  0  0  0  0  0  0  0  0  # atno 17342 bound_to 10162
  139.5335  144.7185  151.4973 LP  0  0  0  0  0  0  0  0  0  0  0  0  # atno 17343 bound_to 10162
  157.4942  130.7840  149.7538 LP  0  0  0  0  0  0  0  0  0  0  0  0  # atno 17370 bound_to 10713
  155.9974  130.3900  150.2743 LP  0  0  0  0  0  0  0  0  0  0  0  0  # atno 17371 bound_to 10713
  140.1586  134.4757  155.7910 LP  0  0  0  0  0  0  0  0  0  0  0  0  # atno 17394 bound_to 11000
  141.2204  133.6892  156.7505 LP  0  0  0  0  0  0  0  0  0  0  0  0  # atno 17395 bound_to 11000

$$$$
