AV-unprocessed.smi:2596|AV-procd|sdf|10169|dock3
  -GOLD-   2272014183D 1   1.00000     0.00000
 Structure written by MMmdl.
 32 33  0  0  0  0  0  0  0  0  1 V2000
  149.9285  142.5053  158.3896 O   0  0  0  0  0  0  0  0  0  0  0  0
  151.0211  142.4669  157.8249 C   0  0  0  0  0  0  0  0  0  0  0  0
  152.1503  143.3979  158.2781 C   0  0  0  0  0  0  0  0  0  0  0  0
  152.4706  143.2138  159.7029 N   0  0  0  0  0  0  0  0  0  0  0  0
  153.1573  142.0353  160.0581 C   0  0  0  0  0  0  0  0  0  0  0  0
  153.5076  141.7799  161.3279 C   0  0  0  0  0  0  0  0  0  0  0  0
  154.1673  140.6534  161.6426 F   0  0  0  0  0  0  0  0  0  0  0  0
  153.1661  142.7413  162.3479 C   0  0  0  0  0  0  0  0  0  0  0  0
  152.5107  143.8717  162.0169 C   0  0  0  0  0  0  0  0  0  0  0  0
  152.1253  144.1614  160.6300 C   0  0  0  0  0  0  0  0  0  0  0  0
  151.5293  145.1935  160.3218 O   0  0  0  0  0  0  0  0  0  0  0  0
  151.2950  141.6552  156.7916 N   0  0  0  0  0  0  0  0  0  0  0  0
  150.3411  140.7636  156.1437 C   0  0  0  0  0  0  0  0  0  0  0  0
  151.0398  139.8969  155.0999 C   0  0  0  0  0  0  0  0  0  0  0  0
  150.3274  138.6668  154.5151 C   0  0  0  0  0  0  0  0  0  0  0  0
  151.6885  137.9694  154.4481 C   0  0  0  0  0  0  0  0  0  0  0  0
  152.1632  138.9425  155.5311 C   0  0  0  0  0  0  0  0  0  0  0  0
  153.0344  143.2242  157.6616 H   0  0  0  0  0  0  0  0  0  0  0  0
  151.8599  144.4298  158.0741 H   0  0  0  0  0  0  0  0  0  0  0  0
  153.3833  141.3672  159.2396 H   0  0  0  0  0  0  0  0  0  0  0  0
  153.4360  142.5553  163.3771 H   0  0  0  0  0  0  0  0  0  0  0  0
  152.2610  144.5835  162.7901 H   0  0  0  0  0  0  0  0  0  0  0  0
  152.2229  141.6908  156.3953 H   0  0  0  0  0  0  0  0  0  0  0  0
  149.8921  140.1353  156.9130 H   0  0  0  0  0  0  0  0  0  0  0  0
  149.5206  141.3277  155.6970 H   0  0  0  0  0  0  0  0  0  0  0  0
  151.4062  140.5110  154.2742 H   0  0  0  0  0  0  0  0  0  0  0  0
  149.6467  138.1935  155.2247 H   0  0  0  0  0  0  0  0  0  0  0  0
  149.8477  138.8345  153.5502 H   0  0  0  0  0  0  0  0  0  0  0  0
  151.6806  136.9207  154.7461 H   0  0  0  0  0  0  0  0  0  0  0  0
  152.1940  138.1182  153.4927 H   0  0  0  0  0  0  0  0  0  0  0  0
  153.1721  139.3303  155.3877 H   0  0  0  0  0  0  0  0  0  0  0  0
  152.0231  138.5493  156.5394 H   0  0  0  0  0  0  0  0  0  0  0  0
  1  2  2  0  0  0  0
  2  3  1  0  0  0  0
  2 12  1  0  0  0  0
  3  4  1  0  0  0  0
  3 18  1  0  0  0  0
  3 19  1  0  0  0  0
  4 10  1  0  0  0  0
  4  5  1  0  0  0  0
  5  6  2  0  0  0  0
  5 20  1  0  0  0  0
  6  7  1  0  0  0  0
  6  8  1  0  0  0  0
  8  9  2  0  0  0  0
  8 21  1  0  0  0  0
  9 10  1  0  0  0  0
  9 22  1  0  0  0  0
 10 11  2  0  0  0  0
 12 13  1  0  0  0  0
 12 23  1  0  0  0  0
 13 14  1  0  0  0  0
 13 24  1  0  0  0  0
 13 25  1  0  0  0  0
 14 17  1  0  0  0  0
 14 15  1  0  0  0  0
 14 26  1  0  0  0  0
 15 16  1  0  0  0  0
 15 27  1  0  0  0  0
 15 28  1  0  0  0  0
 16 17  1  0  0  0  0
 16 29  1  0  0  0  0
 16 30  1  0  0  0  0
 17 31  1  0  0  0  0
 17 32  1  0  0  0  0
M  END
> <s_m_source_file>
AV-unprocessed.smi

> <i_m_source_file_index>
2596

> <i_lp_mmshare_version>
43012

> <i_f3d_flags>
0

> <s_epik_input>
W0NIMl0xW0NIMl1bQ0gyXVtDSF0xW0NIMl1bTkhdQyg9TylbQ0gyXW4yW2NIXWMoRilbY0hdW2NIXWMyPU8=

> <s_epik_cmdline>
J2VwaWtfcHl0aG9uJywgJy1waCcsICc3LjAnLCAnLXRuJywgJzgnLCAnLW1hJywgJzIwMCcsICctbWV0YWxfYmluZGluZycsICctaW1hZScsICc8aW5maWxlLm1hZT4nLCAnLW9tYWUnLCAnPG91dGZpbGUubWFlPic=

> <r_lp_tautomer_probability>
1

> <r_epik_Ionization_Penalty>
2.75493e-07

> <r_epik_Ionization_Penalty_Charging>
2.56191e-07

> <r_epik_Ionization_Penalty_Neutral>
1.93017e-08

> <r_epik_State_Penalty>
-0

> <r_epik_Charging_Adjusted_Penalty>
2.56191e-07

> <i_epik_Tot_Q>
0

> <i_epik_Tot_abs_Q>
0

> <r_epik_Metal_State_Penalty>
-0

> <b_epik_Metal_Only>
0

> <s_lp_Force_Field>
OPLS_2005

> <r_lp_Energy>
22.7993

> <b_lp_Chiralities_Consistent>
1

> <s_lp_Variant>
AV-unprocessed.smi:2596-1

> <Gold.Version>
5.8.1

> <Gold.Id.Protein>
6NUR|6NUR_protein|mol2

> <Gold.PLP.Fitness>
46.3625

> <Gold.PLP.PLP>
-46.7029

> <Gold.PLP.part.hbond>
0.0000

> <Gold.PLP.part.metal>
0.0000

> <Gold.PLP.part.buried>
-3.2884

> <Gold.PLP.part.nonpolar>
-42.9417

> <Gold.PLP.part.repulsive>
0.3863

> <Gold.PLP.ligand.clash>
0.0000

> <Gold.PLP.ligand.torsion>
0.2123

> <Gold.PLP.Chemscore.Hbond>
0.0000

> <Gold.PLP.Chemscore.CHOScore>
0.0000

> <Gold.PLP.Chemscore.Metal>
0.0000

> <Gold.PLP.Chemscore.Internal.Correction>
0.0842

> <Gold.Rescore>
     Score         DG    S(hbond)    S(metal)    S(lipo)     H(rot)  DE(clash)    DE(int)     intcor
     11.99     -12.29       0.00        0.00      95.53       1.71       0.06       0.23       ----

> <Gold.Chemscore.Fitness>
11.9943

> <Gold.Chemscore.DG>
-12.2856

> <Gold.Chemscore.ZeroCoef>
-5.4800

> <Gold.Chemscore.Hbond>
0.0000

> <Gold.Chemscore.Metal>
0.0000

> <Gold.Chemscore.Lipo>
95.5349

> <Gold.Chemscore.Internal_Hbond>
0.0000

> <Gold.Chemscore.DEClash>
0.0577

> <Gold.Chemscore.DEInternal>
0.2337

> <Gold.Chemscore.Rot>
1.7078

> <Gold.Chemscore.Internal.Correction>
   9.000000E+99

> <Gold.Chemscore.Hbond.Weighted>
-0.0000

> <Gold.Chemscore.Metal.Weighted>
-0.0000

> <Gold.Chemscore.Lipo.Weighted>
-11.1776

> <Gold.Chemscore.Internal_Hbond.Weighted>
0.0000

> <Gold.Chemscore.DEClash.Weighted>
0.0577

> <Gold.Chemscore.DEInternal.Weighted>
0.2337

> <Gold.Chemscore.Rot.Weighted>
4.3719

> <Gold.Chemscore.Internal.Correction.Weighted>
   9.000000E+99

> <Gold.Protein.RotatedTorsions>
[ 6907 6896 6895 6894 ] final    2.58 input  -60.11 | X-H torsion
[ 7974 7965 7964 7962 ] final -167.85 input  175.53 | X-H torsion
[ 8008 7997 7996 7995 ] final   66.64 input   59.86 | X-H torsion
[ 10167 10162 10161 10158 ] final  -77.40 input  -65.29 | X-H torsion
[ 10718 10713 10712 10709 ] final  145.00 input   66.30 | X-H torsion
[ 10763 10752 10751 10750 ] final  100.98 input  -60.55 | X-H torsion
[ 11005 11000 10999 10996 ] final   11.20 input  -57.11 | X-H torsion

> <Gold.Protein.ActiveResidues>
 VAL166  LYS551  ARG553  GLY616  TRP617  ASP618  TYR619  PRO620  LYS621  CYS622 
 ASP623  PHE694  ASN695  SER759  ASP760  ASP761  ALA762  ILE779  LEU786  VAL792 
 PHE793  MET794  SER795  GLU796  ALA797  LYS798  CYS799  TRP800  GLU811  SER814 

> <Gold.Protein.RotatedAtoms>
  151.6111  135.1040  160.0081 H   0  0  0  0  0  0  0  0  0  0  0  0  # atno 6907 bound_to 6896
  152.4208  133.7108  159.6488 H   0  0  0  0  0  0  0  0  0  0  0  0  # atno 6908 bound_to 6896
  150.8095  133.8374  159.3211 H   0  0  0  0  0  0  0  0  0  0  0  0  # atno 6909 bound_to 6896
  144.7214  140.2457  143.6285 H   0  0  0  0  0  0  0  0  0  0  0  0  # atno 7974 bound_to 7965
  155.6805  140.3496  155.4853 H   0  0  0  0  0  0  0  0  0  0  0  0  # atno 8008 bound_to 7997
  155.9611  140.1137  157.0918 H   0  0  0  0  0  0  0  0  0  0  0  0  # atno 8009 bound_to 7997
  154.4143  140.1175  156.5166 H   0  0  0  0  0  0  0  0  0  0  0  0  # atno 8010 bound_to 7997
  140.4774  143.2411  151.8112 H   0  0  0  0  0  0  0  0  0  0  0  0  # atno 10167 bound_to 10162
  157.3505  131.0950  151.1004 H   0  0  0  0  0  0  0  0  0  0  0  0  # atno 10718 bound_to 10713
  153.3208  135.4060  155.1415 H   0  0  0  0  0  0  0  0  0  0  0  0  # atno 10763 bound_to 10752
  154.8600  135.3587  154.5599 H   0  0  0  0  0  0  0  0  0  0  0  0  # atno 10764 bound_to 10752
  153.6032  135.7070  153.5435 H   0  0  0  0  0  0  0  0  0  0  0  0  # atno 10765 bound_to 10752
  140.5059  134.0700  155.7805 H   0  0  0  0  0  0  0  0  0  0  0  0  # atno 11005 bound_to 11000
  145.8276  139.2071  143.1901 LP  0  0  0  0  0  0  0  0  0  0  0  0  # atno 17320 bound_to 7965
  146.0459  140.8118  142.9805 LP  0  0  0  0  0  0  0  0  0  0  0  0  # atno 17321 bound_to 7965
  139.4828  144.4816  151.9299 LP  0  0  0  0  0  0  0  0  0  0  0  0  # atno 17342 bound_to 10162
  140.3901  144.2626  150.5900 LP  0  0  0  0  0  0  0  0  0  0  0  0  # atno 17343 bound_to 10162
  157.2182  130.6469  149.5800 LP  0  0  0  0  0  0  0  0  0  0  0  0  # atno 17370 bound_to 10713
  155.9721  130.4638  150.6194 LP  0  0  0  0  0  0  0  0  0  0  0  0  # atno 17371 bound_to 10713
  141.1411  133.9136  157.2323 LP  0  0  0  0  0  0  0  0  0  0  0  0  # atno 17394 bound_to 11000
  139.9686  135.0134  156.9454 LP  0  0  0  0  0  0  0  0  0  0  0  0  # atno 17395 bound_to 11000

$$$$
