AV-unprocessed.smi:1128|AV-procd|sdf|4845|dock8
  -GOLD-   22720 3413D 1   1.00000     0.00000
 Structure written by MMmdl.
 37 38  0  0  0  0  0  0  0  0  2 V2000
  151.5845  138.1816  158.1256 O   0  0  0  0  0  0  0  0  0  0  0  0
  150.5253  138.7290  157.8209 C   0  0  0  0  0  0  0  0  0  0  0  0
  150.4661  139.9248  157.2180 N   0  0  0  0  0  0  0  0  0  0  0  0
  151.6202  140.7334  156.8388 C   0  0  0  0  0  0  0  0  0  0  0  0
  151.8481  141.9246  157.7928 C   0  0  1  0  0  0  0  0  0  0  0  0
  150.6468  142.8997  157.8152 C   0  0  0  0  0  0  0  0  0  0  0  0
  150.7271  143.9040  158.9512 C   0  0  0  0  0  0  0  0  0  0  0  0
  151.5647  143.7780  159.9939 C   0  0  0  0  0  0  0  0  0  0  0  0
  152.5204  142.6113  160.1584 C   0  0  0  0  0  0  0  0  0  0  0  0
  152.1781  141.4412  159.2176 C   0  0  0  0  0  0  0  0  0  0  0  0
  149.2888  138.2474  158.0428 N   0  0  0  0  0  0  0  0  0  0  0  0
  148.8842  137.0416  158.6421 C   0  0  0  0  0  0  0  0  0  0  0  0
  148.0027  136.9363  159.6755 C   0  0  0  0  0  0  0  0  0  0  0  0
  147.6279  135.6518  160.2540 C   0  0  0  0  0  0  0  0  0  0  0  0
  146.7129  135.5036  161.4567 C   0  0  0  0  0  0  0  0  0  0  0  0
  145.4843  135.9425  161.1817 F   0  0  0  0  0  0  0  0  0  0  0  0
  146.6280  134.2292  161.8390 F   0  0  0  0  0  0  0  0  0  0  0  0
  147.1883  136.2136  162.4787 F   0  0  0  0  0  0  0  0  0  0  0  0
  148.2831  134.5947  159.6528 C   0  0  0  0  0  0  0  0  0  0  0  0
  149.1580  134.6107  158.6239 N   0  5  0  0  0  0  0  0  0  0  0  0
  149.4984  135.8168  158.0880 C   0  0  0  0  0  0  0  0  0  0  0  0
  150.3008  135.9039  157.1577 O   0  0  0  0  0  0  0  0  0  0  0  0
  149.5551  140.3056  157.0084 H   0  0  0  0  0  0  0  0  0  0  0  0
  152.4974  140.0858  156.8368 H   0  0  0  0  0  0  0  0  0  0  0  0
  151.4987  141.0853  155.8130 H   0  0  0  0  0  0  0  0  0  0  0  0
  152.7184  142.4777  157.4352 H   0  0  0  0  0  0  0  0  0  0  0  0
  150.5897  143.4452  156.8727 H   0  0  0  0  0  0  0  0  0  0  0  0
  149.7107  142.3504  157.9208 H   0  0  0  0  0  0  0  0  0  0  0  0
  150.0591  144.7512  158.8993 H   0  0  0  0  0  0  0  0  0  0  0  0
  151.5852  144.5371  160.7623 H   0  0  0  0  0  0  0  0  0  0  0  0
  153.5303  142.9718  159.9606 H   0  0  0  0  0  0  0  0  0  0  0  0
  152.5009  142.2724  161.1945 H   0  0  0  0  0  0  0  0  0  0  0  0
  151.3226  140.8947  159.6168 H   0  0  0  0  0  0  0  0  0  0  0  0
  153.0100  140.7363  159.1988 H   0  0  0  0  0  0  0  0  0  0  0  0
  148.5228  138.8440  157.7663 H   0  0  0  0  0  0  0  0  0  0  0  0
  147.5508  137.8103  160.1131 H   0  0  0  0  0  0  0  0  0  0  0  0
  148.0770  133.5836  160.0647 H   0  0  0  0  0  0  0  0  0  0  0  0
  1  2  2  0  0  0  0
  2  3  1  0  0  0  0
  2 11  1  0  0  0  0
  3  4  1  0  0  0  0
  3 23  1  0  0  0  0
  4  5  1  0  0  0  0
  4 24  1  0  0  0  0
  4 25  1  0  0  0  0
  5 10  1  0  0  0  0
  5  6  1  0  0  0  0
  5 26  1  0  0  0  0
  6  7  1  0  0  0  0
  6 27  1  0  0  0  0
  6 28  1  0  0  0  0
  7  8  2  0  0  0  0
  7 29  1  0  0  0  0
  8  9  1  0  0  0  0
  8 30  1  0  0  0  0
  9 10  1  0  0  0  0
  9 31  1  0  0  0  0
  9 32  1  0  0  0  0
 10 33  1  0  0  0  0
 10 34  1  0  0  0  0
 11 12  1  0  0  0  0
 11 35  1  0  0  0  0
 12 21  1  0  0  0  0
 12 13  2  0  0  0  0
 13 14  1  0  0  0  0
 13 36  1  0  0  0  0
 14 15  1  0  0  0  0
 14 19  2  0  0  0  0
 15 16  1  0  0  0  0
 15 17  1  0  0  0  0
 15 18  1  0  0  0  0
 19 20  1  0  0  0  0
 19 37  1  0  0  0  0
 20 21  1  0  0  0  0
 21 22  2  0  0  0  0
M  CHG  1  20  -1
M  END
> <s_m_source_file>
AV-unprocessed.smi

> <i_m_source_file_index>
1128

> <i_lp_mmshare_version>
43012

> <i_f3d_flags>
0

> <s_epik_input>
Tz1jMVtuSF1bY0hdYyhDKEYpKEYpRilbY0hdYzFbTkhdQyg9TylbTkhdW0NIMl1bQ0BASF0yW0NIMl1bQ0hdPVtDSF1bQ0gyXVtDSDJdMg==

> <s_epik_cmdline>
J2VwaWtfcHl0aG9uJywgJy1waCcsICc3LjAnLCAnLXRuJywgJzgnLCAnLW1hJywgJzIwMCcsICctbWV0YWxfYmluZGluZycsICctaW1hZScsICc8aW5maWxlLm1hZT4nLCAnLW9tYWUnLCAnPG91dGZpbGUubWFlPic=

> <r_lp_tautomer_probability>
1

> <r_epik_Ionization_Penalty>
3.16664

> <r_epik_Ionization_Penalty_Charging>
0.172425

> <r_epik_Ionization_Penalty_Neutral>
2.99422

> <r_epik_State_Penalty>
2.99038

> <r_epik_Charging_Adjusted_Penalty>
3.16281

> <i_epik_Tot_Q>
-1

> <i_epik_Tot_abs_Q>
1

> <r_epik_Metal_State_Penalty>
0.453031

> <b_epik_Metal_Only>
1

> <s_lp_Force_Field>
OPLS_2005

> <r_lp_Energy>
22.2299

> <b_lp_Chiralities_Consistent>
1

> <s_lp_Variant>
AV-unprocessed.smi:1128-4

> <Gold.Version>
5.8.1

> <Gold.Id.Protein>
6NUR|6NUR_protein|mol2

> <Gold.PLP.Fitness>
44.5157

> <Gold.PLP.PLP>
-39.6811

> <Gold.PLP.part.hbond>
-1.0000

> <Gold.PLP.part.metal>
0.0000

> <Gold.PLP.part.buried>
-3.3104

> <Gold.PLP.part.nonpolar>
-35.2475

> <Gold.PLP.part.repulsive>
0.2572

> <Gold.PLP.ligand.clash>
0.0000

> <Gold.PLP.ligand.torsion>
0.6145

> <Gold.PLP.Chemscore.Hbond>
2.0000

> <Gold.PLP.Chemscore.CHOScore>
0.0000

> <Gold.PLP.Chemscore.Metal>
0.0000

> <Gold.Chemscore.Hbonds>
donor molecule, donor type, donor heavy atom, donor atom, acceptor molecule, acceptor atom, score
      P1  H  6896  6908       L1    20  2.00

> <Gold.PLP.Chemscore.Internal.Correction>
0.0635

> <Gold.Rescore>
     Score         DG    S(hbond)    S(metal)    S(lipo)     H(rot)  DE(clash)    DE(int)     intcor
     12.22     -12.97       0.00        0.00      92.36       1.29       0.02       0.73       ----

> <Gold.Chemscore.Fitness>
12.2235

> <Gold.Chemscore.DG>
-12.9726

> <Gold.Chemscore.ZeroCoef>
-5.4800

> <Gold.Chemscore.Hbond>
0.0000

> <Gold.Chemscore.Metal>
0.0000

> <Gold.Chemscore.Lipo>
92.3583

> <Gold.Chemscore.Internal_Hbond>
0.0000

> <Gold.Chemscore.DEClash>
0.0184

> <Gold.Chemscore.DEInternal>
0.7307

> <Gold.Chemscore.Rot>
1.2943

> <Gold.Chemscore.Internal.Correction>
   9.000000E+99

> <Gold.Chemscore.Hbonds>
donor molecule, donor type, donor heavy atom, donor atom, acceptor molecule, acceptor atom, score
      P1  H  6896  6908       L1    20  0.12

> <Gold.Chemscore.Hbond.Weighted>
-0.0000

> <Gold.Chemscore.Metal.Weighted>
-0.0000

> <Gold.Chemscore.Lipo.Weighted>
-10.8059

> <Gold.Chemscore.Internal_Hbond.Weighted>
0.0000

> <Gold.Chemscore.DEClash.Weighted>
0.0184

> <Gold.Chemscore.DEInternal.Weighted>
0.7307

> <Gold.Chemscore.Rot.Weighted>
3.3133

> <Gold.Chemscore.Internal.Correction.Weighted>
   9.000000E+99

> <Gold.Protein.RotatedTorsions>
[ 6907 6896 6895 6894 ] final  141.96 input  -60.11 | X-H torsion
[ 7974 7965 7964 7962 ] final  -56.82 input  175.53 | X-H torsion
[ 8008 7997 7996 7995 ] final  141.15 input   59.86 | X-H torsion
[ 10167 10162 10161 10158 ] final   47.48 input  -65.29 | X-H torsion
[ 10718 10713 10712 10709 ] final  134.83 input   66.30 | X-H torsion
[ 10763 10752 10751 10750 ] final  112.35 input  -60.55 | X-H torsion
[ 11005 11000 10999 10996 ] final   10.39 input  -57.11 | X-H torsion

> <Gold.Protein.ActiveResidues>
 VAL166  LYS551  ARG553  GLY616  TRP617  ASP618  TYR619  PRO620  LYS621  CYS622 
 ASP623  PHE694  ASN695  SER759  ASP760  ASP761  ALA762  ILE779  LEU786  VAL792 
 PHE793  MET794  SER795  GLU796  ALA797  LYS798  CYS799  TRP800  GLU811  SER814 

> <Gold.Protein.RotatedAtoms>
  152.2246  133.5010  159.5181 H   0  0  0  0  0  0  0  0  0  0  0  0  # atno 6907 bound_to 6896
  150.7021  134.1297  159.4074 H   0  0  0  0  0  0  0  0  0  0  0  0  # atno 6908 bound_to 6896
  151.9218  135.0295  160.0573 H   0  0  0  0  0  0  0  0  0  0  0  0  # atno 6909 bound_to 6896
  145.8583  140.8304  142.9950 H   0  0  0  0  0  0  0  0  0  0  0  0  # atno 7974 bound_to 7965
  156.2970  140.2323  156.4517 H   0  0  0  0  0  0  0  0  0  0  0  0  # atno 8008 bound_to 7997
  154.8096  140.0444  157.1353 H   0  0  0  0  0  0  0  0  0  0  0  0  # atno 8009 bound_to 7997
  154.9439  140.3033  155.5111 H   0  0  0  0  0  0  0  0  0  0  0  0  # atno 8010 bound_to 7997
  140.3032  144.2909  150.6214 H   0  0  0  0  0  0  0  0  0  0  0  0  # atno 10167 bound_to 10162
  157.4633  131.1075  150.9893 H   0  0  0  0  0  0  0  0  0  0  0  0  # atno 10718 bound_to 10713
  153.4766  135.3689  155.2419 H   0  0  0  0  0  0  0  0  0  0  0  0  # atno 10763 bound_to 10752
  154.8756  135.3944  154.3749 H   0  0  0  0  0  0  0  0  0  0  0  0  # atno 10764 bound_to 10752
  153.4346  135.7083  153.6273 H   0  0  0  0  0  0  0  0  0  0  0  0  # atno 10765 bound_to 10752
  140.5150  134.0615  155.7828 H   0  0  0  0  0  0  0  0  0  0  0  0  # atno 11005 bound_to 11000
  144.6727  140.1056  143.7458 LP  0  0  0  0  0  0  0  0  0  0  0  0  # atno 17320 bound_to 7965
  145.9278  139.2587  143.1343 LP  0  0  0  0  0  0  0  0  0  0  0  0  # atno 17321 bound_to 7965
  140.5633  143.2189  151.7728 LP  0  0  0  0  0  0  0  0  0  0  0  0  # atno 17342 bound_to 10162
  139.4910  144.4319  151.9863 LP  0  0  0  0  0  0  0  0  0  0  0  0  # atno 17343 bound_to 10162
  157.0683  130.5853  149.5398 LP  0  0  0  0  0  0  0  0  0  0  0  0  # atno 17370 bound_to 10713
  156.0039  130.5122  150.7760 LP  0  0  0  0  0  0  0  0  0  0  0  0  # atno 17371 bound_to 10713
  141.1365  133.9212  157.2422 LP  0  0  0  0  0  0  0  0  0  0  0  0  # atno 17394 bound_to 11000
  139.9637  135.0147  156.9331 LP  0  0  0  0  0  0  0  0  0  0  0  0  # atno 17395 bound_to 11000

$$$$
