AV-unprocessed.smi:2953|AV-procd|sdf|11295|dock1
  -GOLD-   2272016183D 1   1.00000     0.00000
 Structure written by MMmdl.
 46 48  0  0  0  0  0  0  0  0  2 V2000
  153.5703  141.0929  160.4597 C   0  0  0  0  0  0  0  0  0  0  0  0
  152.7605  142.2704  159.9502 C   0  0  0  0  0  0  0  0  0  0  0  0
  152.7338  143.4694  160.6932 C   0  0  0  0  0  0  0  0  0  0  0  0
  151.9866  144.5700  160.2371 C   0  0  0  0  0  0  0  0  0  0  0  0
  151.2632  144.4744  159.0352 C   0  0  0  0  0  0  0  0  0  0  0  0
  151.2861  143.2803  158.2900 C   0  0  0  0  0  0  0  0  0  0  0  0
  152.0353  142.1630  158.7403 C   0  0  0  0  0  0  0  0  0  0  0  0
  152.1003  140.9619  158.0636 O   0  0  0  0  0  0  0  0  0  0  0  0
  150.9831  140.5639  157.2833 C   0  0  0  0  0  0  0  0  0  0  0  0
  151.3249  140.7756  155.8037 C   0  0  0  0  0  0  0  0  0  0  0  0
  150.3674  140.0975  154.9201 N   0  0  0  0  0  0  0  0  0  0  0  0
  150.4904  138.9431  154.2027 C   0  0  0  0  0  0  0  0  0  0  0  0
  151.6876  138.0341  154.1744 C   0  0  2  0  0  0  0  0  0  0  0  0
  152.9745  138.7650  153.7463 C   0  0  0  0  0  0  0  0  0  0  0  0
  151.4592  136.8379  153.3669 N   0  0  0  0  0  0  0  0  0  0  0  0
  151.2590  135.6021  153.8453 C   0  0  0  0  0  0  0  0  0  0  0  0
  151.2478  135.3400  155.0448 O   0  0  0  0  0  0  0  0  0  0  0  0
  149.3035  138.7471  153.5574 N   0  3  0  0  0  0  0  0  0  0  0  0
  148.4261  139.7922  153.8479 C   0  0  0  0  0  0  0  0  0  0  0  0
  147.1229  140.0337  153.4242 C   0  0  0  0  0  0  0  0  0  0  0  0
  146.5059  141.2044  153.9124 C   0  0  0  0  0  0  0  0  0  0  0  0
  147.1819  142.0816  154.7853 C   0  0  0  0  0  0  0  0  0  0  0  0
  148.5028  141.8251  155.2089 C   0  0  0  0  0  0  0  0  0  0  0  0
  149.1044  140.6650  154.7222 C   0  0  0  0  0  0  0  0  0  0  0  0
  154.1661  141.3653  161.3310 H   0  0  0  0  0  0  0  0  0  0  0  0
  154.2500  140.7338  159.6866 H   0  0  0  0  0  0  0  0  0  0  0  0
  152.9080  140.2747  160.7431 H   0  0  0  0  0  0  0  0  0  0  0  0
  153.2866  143.5497  161.6178 H   0  0  0  0  0  0  0  0  0  0  0  0
  151.9679  145.4861  160.8088 H   0  0  0  0  0  0  0  0  0  0  0  0
  150.6885  145.3187  158.6840 H   0  0  0  0  0  0  0  0  0  0  0  0
  150.7168  143.2482  157.3737 H   0  0  0  0  0  0  0  0  0  0  0  0
  150.7515  139.5130  157.4640 H   0  0  0  0  0  0  0  0  0  0  0  0
  150.1069  141.1586  157.5473 H   0  0  0  0  0  0  0  0  0  0  0  0
  151.3123  141.8388  155.5630 H   0  0  0  0  0  0  0  0  0  0  0  0
  152.3305  140.4202  155.5762 H   0  0  0  0  0  0  0  0  0  0  0  0
  151.8448  137.6811  155.1942 H   0  0  0  0  0  0  0  0  0  0  0  0
  153.1899  139.5994  154.4146 H   0  0  0  0  0  0  0  0  0  0  0  0
  152.9025  139.1618  152.7331 H   0  0  0  0  0  0  0  0  0  0  0  0
  153.8330  138.0932  153.7764 H   0  0  0  0  0  0  0  0  0  0  0  0
  151.4689  136.9572  152.3641 H   0  0  0  0  0  0  0  0  0  0  0  0
  151.1103  134.8668  153.0390 H   0  0  0  0  0  0  0  0  0  0  0  0
  146.6030  139.3635  152.7554 H   0  0  0  0  0  0  0  0  0  0  0  0
  145.4940  141.4340  153.6112 H   0  0  0  0  0  0  0  0  0  0  0  0
  146.6773  142.9695  155.1381 H   0  0  0  0  0  0  0  0  0  0  0  0
  149.0123  142.5036  155.8773 H   0  0  0  0  0  0  0  0  0  0  0  0
  149.1118  137.9528  152.9603 H   0  0  0  0  0  0  0  0  0  0  0  0
  1  2  1  0  0  0  0
  1 25  1  0  0  0  0
  1 26  1  0  0  0  0
  1 27  1  0  0  0  0
  2  7  1  0  0  0  0
  2  3  2  0  0  0  0
  3  4  1  0  0  0  0
  3 28  1  0  0  0  0
  4  5  2  0  0  0  0
  4 29  1  0  0  0  0
  5  6  1  0  0  0  0
  5 30  1  0  0  0  0
  6  7  2  0  0  0  0
  6 31  1  0  0  0  0
  7  8  1  0  0  0  0
  8  9  1  0  0  0  0
  9 10  1  0  0  0  0
  9 32  1  0  0  0  0
  9 33  1  0  0  0  0
 10 11  1  0  0  0  0
 10 34  1  0  0  0  0
 10 35  1  0  0  0  0
 11 24  1  0  0  0  0
 11 12  1  0  0  0  0
 12 13  1  0  0  0  0
 12 18  2  0  0  0  0
 13 14  1  0  0  0  0
 13 15  1  0  0  0  0
 13 36  1  0  0  0  0
 14 37  1  0  0  0  0
 14 38  1  0  0  0  0
 14 39  1  0  0  0  0
 15 16  1  0  0  0  0
 15 40  1  0  0  0  0
 16 17  2  0  0  0  0
 16 41  1  0  0  0  0
 18 19  1  0  0  0  0
 18 46  1  0  0  0  0
 19 24  2  0  0  0  0
 19 20  1  0  0  0  0
 20 21  2  0  0  0  0
 20 42  1  0  0  0  0
 21 22  1  0  0  0  0
 21 43  1  0  0  0  0
 22 23  2  0  0  0  0
 22 44  1  0  0  0  0
 23 24  1  0  0  0  0
 23 45  1  0  0  0  0
M  CHG  1  18   1
M  END
> <s_m_source_file>
AV-unprocessed.smi

> <i_m_source_file_index>
2953

> <i_lp_mmshare_version>
43012

> <i_f3d_flags>
0

> <s_epik_input>
W0NIM11jMVtjSF1bY0hdW2NIXVtjSF1jMU9bQ0gyXVtDSDJdbihjKG4yKVtDQEhdKFtDSDNdKVtOSF1bQ0hdPU8pYyhjMjMpW2NIXVtjSF1bY0hdW2NIXTM=

> <s_epik_cmdline>
J2VwaWtfcHl0aG9uJywgJy1waCcsICc3LjAnLCAnLXRuJywgJzgnLCAnLW1hJywgJzIwMCcsICctbWV0YWxfYmluZGluZycsICctaW1hZScsICc8aW5maWxlLm1hZT4nLCAnLW9tYWUnLCAnPG91dGZpbGUubWFlPic=

> <r_lp_tautomer_probability>
1

> <r_epik_Ionization_Penalty>
1.14644

> <r_epik_Ionization_Penalty_Charging>
1.14644

> <r_epik_Ionization_Penalty_Neutral>
5.5802e-08

> <r_epik_State_Penalty>
1.20743

> <r_epik_Charging_Adjusted_Penalty>
2.35387

> <i_epik_Tot_Q>
1

> <i_epik_Tot_abs_Q>
1

> <r_epik_Metal_State_Penalty>
1.28856

> <b_epik_Metal_Only>
0

> <s_lp_Force_Field>
OPLS_2005

> <r_lp_Energy>
18.7543

> <b_lp_Chiralities_Consistent>
1

> <s_lp_Variant>
AV-unprocessed.smi:2953-3

> <Gold.Version>
5.8.1

> <Gold.Id.Protein>
6NUR|6NUR_protein|mol2

> <Gold.PLP.Fitness>
63.0862

> <Gold.PLP.PLP>
-56.0187

> <Gold.PLP.part.hbond>
-3.8964

> <Gold.PLP.part.metal>
0.0000

> <Gold.PLP.part.buried>
1.4557

> <Gold.PLP.part.nonpolar>
-53.0104

> <Gold.PLP.part.repulsive>
0.4353

> <Gold.PLP.ligand.clash>
0.0000

> <Gold.PLP.ligand.torsion>
1.0837

> <Gold.PLP.Chemscore.Hbond>
2.9825

> <Gold.PLP.Chemscore.CHOScore>
0.0000

> <Gold.PLP.Chemscore.Metal>
0.0000

> <Gold.Chemscore.Hbonds>
donor molecule, donor type, donor heavy atom, donor atom, acceptor molecule, acceptor atom, score
      L1  H    15    40       P1  7949  0.25
      L1  H    18    46       P1  7948  2.00

> <Gold.PLP.Chemscore.Internal.Correction>
0.2874

> <Gold.Rescore>
     Score         DG    S(hbond)    S(metal)    S(lipo)     H(rot)  DE(clash)    DE(int)     intcor
     19.05     -22.52       1.73        0.00     147.06       2.32       2.52       0.95       ----

> <Gold.Chemscore.Fitness>
19.0522

> <Gold.Chemscore.DG>
-22.5242

> <Gold.Chemscore.ZeroCoef>
-5.4800

> <Gold.Chemscore.Hbond>
1.7315

> <Gold.Chemscore.Metal>
0.0000

> <Gold.Chemscore.Lipo>
147.0604

> <Gold.Chemscore.Internal_Hbond>
0.0000

> <Gold.Chemscore.DEClash>
2.5182

> <Gold.Chemscore.DEInternal>
0.9538

> <Gold.Chemscore.Rot>
2.3223

> <Gold.Chemscore.Internal.Correction>
   9.000000E+99

> <Gold.Chemscore.Hbonds>
donor molecule, donor type, donor heavy atom, donor atom, acceptor molecule, acceptor atom, score
      L1  H    15    40       P1  7949  0.24
      L1  H    18    46       P1  7948  0.94

> <Gold.Chemscore.Hbond.Weighted>
-5.7831

> <Gold.Chemscore.Metal.Weighted>
-0.0000

> <Gold.Chemscore.Lipo.Weighted>
-17.2061

> <Gold.Chemscore.Internal_Hbond.Weighted>
0.0000

> <Gold.Chemscore.DEClash.Weighted>
2.5182

> <Gold.Chemscore.DEInternal.Weighted>
0.9538

> <Gold.Chemscore.Rot.Weighted>
5.9450

> <Gold.Chemscore.Internal.Correction.Weighted>
   9.000000E+99

> <Gold.Protein.RotatedTorsions>
[ 6907 6896 6895 6894 ] final -119.96 input  -60.11 | X-H torsion
[ 7974 7965 7964 7962 ] final  -35.29 input  175.53 | X-H torsion
[ 8008 7997 7996 7995 ] final   19.69 input   59.86 | X-H torsion
[ 10167 10162 10161 10158 ] final  130.67 input  -65.29 | X-H torsion
[ 10718 10713 10712 10709 ] final  -30.60 input   66.30 | X-H torsion
[ 10763 10752 10751 10750 ] final -118.94 input  -60.55 | X-H torsion
[ 11005 11000 10999 10996 ] final  174.89 input  -57.11 | X-H torsion

> <Gold.Protein.ActiveResidues>
 VAL166  LYS551  ARG553  GLY616  TRP617  ASP618  TYR619  PRO620  LYS621  CYS622 
 ASP623  PHE694  ASN695  SER759  ASP760  ASP761  ALA762  ILE779  LEU786  VAL792 
 PHE793  MET794  SER795  GLU796  ALA797  LYS798  CYS799  TRP800  GLU811  SER814 

> <Gold.Protein.RotatedAtoms>
  150.8351  133.8027  159.3082 H   0  0  0  0  0  0  0  0  0  0  0  0  # atno 6907 bound_to 6896
  151.5746  135.1059  160.0012 H   0  0  0  0  0  0  0  0  0  0  0  0  # atno 6908 bound_to 6896
  152.4424  133.7431  159.6708 H   0  0  0  0  0  0  0  0  0  0  0  0  # atno 6909 bound_to 6896
  146.0759  140.6141  142.8931 H   0  0  0  0  0  0  0  0  0  0  0  0  # atno 7974 bound_to 7965
  154.9245  140.3032  155.5199 H   0  0  0  0  0  0  0  0  0  0  0  0  # atno 8008 bound_to 7997
  156.3007  140.2365  156.4235 H   0  0  0  0  0  0  0  0  0  0  0  0  # atno 8009 bound_to 7997
  154.8298  140.0419  157.1457 H   0  0  0  0  0  0  0  0  0  0  0  0  # atno 8010 bound_to 7997
  139.5419  144.6738  151.4596 H   0  0  0  0  0  0  0  0  0  0  0  0  # atno 10167 bound_to 10162
  156.3977  130.4384  149.7346 H   0  0  0  0  0  0  0  0  0  0  0  0  # atno 10718 bound_to 10713
  154.8603  135.4256  154.2220 H   0  0  0  0  0  0  0  0  0  0  0  0  # atno 10763 bound_to 10752
  153.3223  135.6983  153.7025 H   0  0  0  0  0  0  0  0  0  0  0  0  # atno 10764 bound_to 10752
  153.6075  135.3525  155.2941 H   0  0  0  0  0  0  0  0  0  0  0  0  # atno 10765 bound_to 10752
  140.3562  134.7152  157.4301 H   0  0  0  0  0  0  0  0  0  0  0  0  # atno 11005 bound_to 11000
  144.7261  140.4529  143.6972 LP  0  0  0  0  0  0  0  0  0  0  0  0  # atno 17320 bound_to 7965
  145.6307  139.1536  143.2971 LP  0  0  0  0  0  0  0  0  0  0  0  0  # atno 17321 bound_to 7965
  140.6653  143.8412  150.6934 LP  0  0  0  0  0  0  0  0  0  0  0  0  # atno 17342 bound_to 10162
  140.1819  143.4108  152.1927 LP  0  0  0  0  0  0  0  0  0  0  0  0  # atno 17343 bound_to 10162
  156.4374  130.7845  151.2865 LP  0  0  0  0  0  0  0  0  0  0  0  0  # atno 17370 bound_to 10713
  157.7502  131.0135  150.3427 LP  0  0  0  0  0  0  0  0  0  0  0  0  # atno 17371 bound_to 10713
  140.0663  134.5925  155.8692 LP  0  0  0  0  0  0  0  0  0  0  0  0  # atno 17394 bound_to 11000
  141.1997  133.6608  156.5860 LP  0  0  0  0  0  0  0  0  0  0  0  0  # atno 17395 bound_to 11000

$$$$
