AV-unprocessed.smi:3201|AV-procd|sdf|12239|dock1
  -GOLD-   2272018 73D 1   1.00000     0.00000
 Structure written by MMmdl.
 41 43  0  0  0  0  0  0  0  0  2 V2000
  147.3466  142.0412  154.8427 C   0  0  0  0  0  0  0  0  0  0  0  0
  148.2954  140.9554  154.4491 C   0  0  0  0  0  0  0  0  0  0  0  0
  148.1428  139.9032  153.5863 C   0  0  0  0  0  0  0  0  0  0  0  0
  146.9453  139.5209  152.7604 C   0  0  0  0  0  0  0  0  0  0  0  0
  146.4381  138.1186  153.1212 C   0  0  0  0  0  0  0  0  0  0  0  0
  146.4116  137.2429  151.9321 N   0  3  0  0  0  0  0  0  0  0  0  0
  145.3075  136.2578  151.9111 C   0  0  2  0  0  0  0  0  0  0  0  0
  145.3773  135.3078  153.1277 C   0  0  0  0  0  0  0  0  0  0  0  0
  145.4338  133.9137  152.4768 C   0  0  1  0  0  0  0  0  0  0  0  0
  144.0771  133.5931  151.8231 C   0  0  0  0  0  0  0  0  0  0  0  0
  144.0666  134.5194  150.5924 C   0  0  0  0  0  0  0  0  0  0  0  0
  145.4041  135.2729  150.7214 C   0  0  2  0  0  0  0  0  0  0  0  0
  146.3164  134.1764  151.2635 C   0  0  0  0  0  0  0  0  0  0  0  0
  149.3973  139.2332  153.6468 C   0  0  0  0  0  0  0  0  0  0  0  0
  150.2500  139.8139  154.4715 N   0  0  0  0  0  0  0  0  0  0  0  0
  149.5760  140.8737  154.9636 N   0  0  0  0  0  0  0  0  0  0  0  0
  150.2267  141.7501  155.9182 C   0  0  0  0  0  0  0  0  0  0  0  0
  146.3572  141.8757  154.4173 H   0  0  0  0  0  0  0  0  0  0  0  0
  147.7029  143.0107  154.4942 H   0  0  0  0  0  0  0  0  0  0  0  0
  147.2392  142.0896  155.9265 H   0  0  0  0  0  0  0  0  0  0  0  0
  146.1406  140.2442  152.8984 H   0  0  0  0  0  0  0  0  0  0  0  0
  147.1905  139.5525  151.6980 H   0  0  0  0  0  0  0  0  0  0  0  0
  147.0836  137.6736  153.8797 H   0  0  0  0  0  0  0  0  0  0  0  0
  145.4384  138.1868  153.5502 H   0  0  0  0  0  0  0  0  0  0  0  0
  146.3540  137.8122  151.0999 H   0  0  0  0  0  0  0  0  0  0  0  0
  144.3572  136.7944  151.9050 H   0  0  0  0  0  0  0  0  0  0  0  0
  146.2742  135.4825  153.7243 H   0  0  0  0  0  0  0  0  0  0  0  0
  144.5167  135.4187  153.7886 H   0  0  0  0  0  0  0  0  0  0  0  0
  145.7924  133.1322  153.1474 H   0  0  0  0  0  0  0  0  0  0  0  0
  144.0297  132.5476  151.5157 H   0  0  0  0  0  0  0  0  0  0  0  0
  143.2390  133.7826  152.4949 H   0  0  0  0  0  0  0  0  0  0  0  0
  144.0403  133.9323  149.6735 H   0  0  0  0  0  0  0  0  0  0  0  0
  143.2076  135.1914  150.5822 H   0  0  0  0  0  0  0  0  0  0  0  0
  145.7320  135.7196  149.7828 H   0  0  0  0  0  0  0  0  0  0  0  0
  147.3162  134.5292  151.5224 H   0  0  0  0  0  0  0  0  0  0  0  0
  146.4027  133.3160  150.5973 H   0  0  0  0  0  0  0  0  0  0  0  0
  149.7107  138.3447  153.1187 H   0  0  0  0  0  0  0  0  0  0  0  0
  150.1596  142.7827  155.5748 H   0  0  0  0  0  0  0  0  0  0  0  0
  151.2792  141.4853  156.0301 H   0  0  0  0  0  0  0  0  0  0  0  0
  149.7357  141.6640  156.8877 H   0  0  0  0  0  0  0  0  0  0  0  0
  147.2829  136.7324  151.9123 H   0  0  0  0  0  0  0  0  0  0  0  0
  1  2  1  0  0  0  0
  1 18  1  0  0  0  0
  1 19  1  0  0  0  0
  1 20  1  0  0  0  0
  2 16  1  0  0  0  0
  2  3  2  0  0  0  0
  3  4  1  0  0  0  0
  3 14  1  0  0  0  0
  4  5  1  0  0  0  0
  4 21  1  0  0  0  0
  4 22  1  0  0  0  0
  5  6  1  0  0  0  0
  5 23  1  0  0  0  0
  5 24  1  0  0  0  0
  6  7  1  0  0  0  0
  6 25  1  0  0  0  0
  6 41  1  0  0  0  0
  7 12  1  0  0  0  0
  7  8  1  0  0  0  0
  7 26  1  0  0  0  0
  8  9  1  0  0  0  0
  8 27  1  0  0  0  0
  8 28  1  0  0  0  0
  9 13  1  0  0  0  0
  9 10  1  0  0  0  0
  9 29  1  0  0  0  0
 10 11  1  0  0  0  0
 10 30  1  0  0  0  0
 10 31  1  0  0  0  0
 11 12  1  0  0  0  0
 11 32  1  0  0  0  0
 11 33  1  0  0  0  0
 12 13  1  0  0  0  0
 12 34  1  0  0  0  0
 13 35  1  0  0  0  0
 13 36  1  0  0  0  0
 14 15  2  0  0  0  0
 14 37  1  0  0  0  0
 15 16  1  0  0  0  0
 16 17  1  0  0  0  0
 17 38  1  0  0  0  0
 17 39  1  0  0  0  0
 17 40  1  0  0  0  0
M  CHG  1   6   1
M  END
> <s_m_source_file>
AV-unprocessed.smi

> <i_m_source_file_index>
3201

> <i_lp_mmshare_version>
43012

> <i_f3d_flags>
0

> <s_epik_input>
W0NIM11uMW5bY0hdYyhjMVtDSDNdKVtDSDJdW0NIMl1bTkhdW0NASF0oW0NIMl1bQ0BIXTIzKVtDQEhdKFtDSDJdMylbQ0gyXVtDSDJdMg==

> <s_epik_cmdline>
J2VwaWtfcHl0aG9uJywgJy1waCcsICc3LjAnLCAnLXRuJywgJzgnLCAnLW1hJywgJzIwMCcsICctbWV0YWxfYmluZGluZycsICctaW1hZScsICc8aW5maWxlLm1hZT4nLCAnLW9tYWUnLCAnPG91dGZpbGUubWFlPic=

> <r_lp_tautomer_probability>
1

> <r_epik_Ionization_Penalty>
0.000331174

> <r_epik_Ionization_Penalty_Charging>
0.000242709

> <r_epik_Ionization_Penalty_Neutral>
8.84659e-05

> <r_epik_State_Penalty>
-0

> <r_epik_Charging_Adjusted_Penalty>
0.000242709

> <i_epik_Tot_Q>
1

> <i_epik_Tot_abs_Q>
1

> <r_epik_Metal_State_Penalty>
-0

> <b_epik_Metal_Only>
0

> <s_lp_Force_Field>
OPLS_2005

> <r_lp_Energy>
49.8246

> <b_lp_Chiralities_Consistent>
1

> <s_lp_Variant>
AV-unprocessed.smi:3201-3

> <Gold.Version>
5.8.1

> <Gold.Id.Protein>
6NUR|6NUR_protein|mol2

> <Gold.PLP.Fitness>
39.6917

> <Gold.PLP.PLP>
-28.9995

> <Gold.PLP.part.hbond>
-2.0000

> <Gold.PLP.part.metal>
0.0000

> <Gold.PLP.part.buried>
3.0414

> <Gold.PLP.part.nonpolar>
-30.4643

> <Gold.PLP.part.repulsive>
0.1741

> <Gold.PLP.ligand.clash>
0.0000

> <Gold.PLP.ligand.torsion>
0.6078

> <Gold.PLP.Chemscore.Hbond>
3.0000

> <Gold.PLP.Chemscore.CHOScore>
0.9592

> <Gold.PLP.Chemscore.Metal>
0.0000

> <Gold.Chemscore.Hbonds>
donor molecule, donor type, donor heavy atom, donor atom, acceptor molecule, acceptor atom, score
      L1  H     6    41       P1  7948  2.00
      P1  H  7989  7998       L1    15  0.80
      L1  C    14    37       P1  7948  1.00
      L1  C    14    37       P1  7957  0.01

> <Gold.PLP.Chemscore.Internal.Correction>
0.0301

> <Gold.Rescore>
     Score         DG    S(hbond)    S(metal)    S(lipo)     H(rot)  DE(clash)    DE(int)     intcor
     13.69     -14.40       1.02        0.00      76.73       1.36       0.07       0.64       ----

> <Gold.Chemscore.Fitness>
13.6949

> <Gold.Chemscore.DG>
-14.3996

> <Gold.Chemscore.ZeroCoef>
-5.4800

> <Gold.Chemscore.Hbond>
1.0241

> <Gold.Chemscore.Metal>
0.0000

> <Gold.Chemscore.Lipo>
76.7329

> <Gold.Chemscore.Internal_Hbond>
0.0000

> <Gold.Chemscore.DEClash>
0.0669

> <Gold.Chemscore.DEInternal>
0.6377

> <Gold.Chemscore.Rot>
1.3588

> <Gold.Chemscore.Internal.Correction>
   9.000000E+99

> <Gold.Chemscore.Hbonds>
donor molecule, donor type, donor heavy atom, donor atom, acceptor molecule, acceptor atom, score
      L1  H     6    41       P1  7948  1.00
      P1  H  7989  7998       L1    15  0.09

> <Gold.Chemscore.Hbond.Weighted>
-3.4204

> <Gold.Chemscore.Metal.Weighted>
-0.0000

> <Gold.Chemscore.Lipo.Weighted>
-8.9777

> <Gold.Chemscore.Internal_Hbond.Weighted>
0.0000

> <Gold.Chemscore.DEClash.Weighted>
0.0669

> <Gold.Chemscore.DEInternal.Weighted>
0.6377

> <Gold.Chemscore.Rot.Weighted>
3.4786

> <Gold.Chemscore.Internal.Correction.Weighted>
   9.000000E+99

> <Gold.Protein.RotatedTorsions>
[ 6907 6896 6895 6894 ] final  141.71 input  -60.11 | X-H torsion
[ 7974 7965 7964 7962 ] final   37.67 input  175.53 | X-H torsion
[ 8008 7997 7996 7995 ] final   50.83 input   59.86 | X-H torsion
[ 10167 10162 10161 10158 ] final  -52.26 input  -65.29 | X-H torsion
[ 10718 10713 10712 10709 ] final   75.66 input   66.30 | X-H torsion
[ 10763 10752 10751 10750 ] final  157.09 input  -60.55 | X-H torsion
[ 11005 11000 10999 10996 ] final  -61.32 input  -57.11 | X-H torsion

> <Gold.Protein.ActiveResidues>
 VAL166  LYS551  ARG553  GLY616  TRP617  ASP618  TYR619  PRO620  LYS621  CYS622 
 ASP623  PHE694  ASN695  SER759  ASP760  ASP761  ALA762  ILE779  LEU786  VAL792 
 PHE793  MET794  SER795  GLU796  ALA797  LYS798  CYS799  TRP800  GLU811  SER814 

> <Gold.Protein.RotatedAtoms>
  152.2277  133.5033  159.5197 H   0  0  0  0  0  0  0  0  0  0  0  0  # atno 6907 bound_to 6896
  150.7029  134.1258  159.4060 H   0  0  0  0  0  0  0  0  0  0  0  0  # atno 6908 bound_to 6896
  151.9179  135.0311  160.0570 H   0  0  0  0  0  0  0  0  0  0  0  0  # atno 6909 bound_to 6896
  146.1120  139.5866  142.9346 H   0  0  0  0  0  0  0  0  0  0  0  0  # atno 7974 bound_to 7965
  155.4252  140.3448  155.4275 H   0  0  0  0  0  0  0  0  0  0  0  0  # atno 8008 bound_to 7997
  156.1369  140.1530  156.9011 H   0  0  0  0  0  0  0  0  0  0  0  0  # atno 8009 bound_to 7997
  154.4939  140.0833  156.7635 H   0  0  0  0  0  0  0  0  0  0  0  0  # atno 8010 bound_to 7997
  140.6547  143.2590  151.4622 H   0  0  0  0  0  0  0  0  0  0  0  0  # atno 10167 bound_to 10162
  157.6643  130.9737  150.1386 H   0  0  0  0  0  0  0  0  0  0  0  0  # atno 10718 bound_to 10713
  154.1946  135.2793  155.3011 H   0  0  0  0  0  0  0  0  0  0  0  0  # atno 10763 bound_to 10752
  154.5902  135.5562  153.7274 H   0  0  0  0  0  0  0  0  0  0  0  0  # atno 10764 bound_to 10752
  153.0103  135.6366  154.2085 H   0  0  0  0  0  0  0  0  0  0  0  0  # atno 10765 bound_to 10752
  141.1320  133.6629  156.5357 H   0  0  0  0  0  0  0  0  0  0  0  0  # atno 11005 bound_to 11000
  145.5644  141.0401  143.2208 LP  0  0  0  0  0  0  0  0  0  0  0  0  # atno 17320 bound_to 7965
  144.7520  139.7170  143.7269 LP  0  0  0  0  0  0  0  0  0  0  0  0  # atno 17321 bound_to 7965
  139.5767  144.1803  152.1913 LP  0  0  0  0  0  0  0  0  0  0  0  0  # atno 17342 bound_to 10162
  140.1115  144.5453  150.6922 LP  0  0  0  0  0  0  0  0  0  0  0  0  # atno 17343 bound_to 10162
  156.2214  130.3674  149.8551 LP  0  0  0  0  0  0  0  0  0  0  0  0  # atno 17370 bound_to 10713
  156.6403  130.8702  151.3512 LP  0  0  0  0  0  0  0  0  0  0  0  0  # atno 17371 bound_to 10713
  140.4180  134.7213  157.4873 LP  0  0  0  0  0  0  0  0  0  0  0  0  # atno 17394 bound_to 11000
  140.0380  134.6309  155.9018 LP  0  0  0  0  0  0  0  0  0  0  0  0  # atno 17395 bound_to 11000

$$$$
