AV-unprocessed.smi:3032|AV-procd|sdf|11570|dock7
  -GOLD-   2272016533D 1   1.00000     0.00000
 Structure written by MMmdl.
 36 37  0  0  0  0  0  0  0  0  2 V2000
  153.5170  141.6067  160.6325 C   0  0  0  0  0  0  0  0  0  0  0  0
  152.4950  142.3814  159.7885 C   0  0  1  0  0  0  0  0  0  0  0  0
  153.0119  143.7866  159.4242 C   0  0  0  0  0  0  0  0  0  0  0  0
  151.9920  144.5601  158.5731 C   0  0  0  0  0  0  0  0  0  0  0  0
  151.6093  143.7736  157.3093 C   0  0  0  0  0  0  0  0  0  0  0  0
  151.0755  142.3716  157.6675 C   0  0  1  0  0  0  0  0  0  0  0  0
  150.7099  141.5752  156.4081 C   0  0  0  0  0  0  0  0  0  0  0  0
  151.3016  140.5281  156.1437 O   0  0  0  0  0  0  0  0  0  0  0  0
  149.7187  142.0783  155.6558 N   0  0  0  0  0  0  0  0  0  0  0  0
  149.0977  141.4183  154.5103 C   0  0  0  0  0  0  0  0  0  0  0  0
  148.5753  140.0184  154.8807 C   0  0  0  0  0  0  0  0  0  0  0  0
  147.6900  139.4033  153.8140 C   0  0  0  0  0  0  0  0  0  0  0  0
  147.2639  138.1239  153.7875 N   0  5  0  0  0  0  0  0  0  0  0  0
  146.4712  137.9310  152.7513 N   0  0  0  0  0  0  0  0  0  0  0  0
  146.4207  139.1256  152.1505 C   0  0  0  0  0  0  0  0  0  0  0  0
  147.1564  140.0484  152.7787 N   0  0  0  0  0  0  0  0  0  0  0  0
  152.1122  141.6033  158.5146 C   0  0  0  0  0  0  0  0  0  0  0  0
  154.4476  141.4520  160.0856 H   0  0  0  0  0  0  0  0  0  0  0  0
  153.1299  140.6270  160.9139 H   0  0  0  0  0  0  0  0  0  0  0  0
  153.7551  142.1431  161.5513 H   0  0  0  0  0  0  0  0  0  0  0  0
  151.5944  142.5000  160.3929 H   0  0  0  0  0  0  0  0  0  0  0  0
  153.2331  144.3502  160.3312 H   0  0  0  0  0  0  0  0  0  0  0  0
  153.9514  143.7027  158.8761 H   0  0  0  0  0  0  0  0  0  0  0  0
  151.0976  144.7579  159.1650 H   0  0  0  0  0  0  0  0  0  0  0  0
  152.4009  145.5320  158.2961 H   0  0  0  0  0  0  0  0  0  0  0  0
  150.8577  144.3298  156.7473 H   0  0  0  0  0  0  0  0  0  0  0  0
  152.4825  143.6910  156.6600 H   0  0  0  0  0  0  0  0  0  0  0  0
  150.1722  142.4957  158.2679 H   0  0  0  0  0  0  0  0  0  0  0  0
  149.2958  142.9433  155.9590 H   0  0  0  0  0  0  0  0  0  0  0  0
  148.2742  142.0388  154.1572 H   0  0  0  0  0  0  0  0  0  0  0  0
  149.7966  141.3340  153.6767 H   0  0  0  0  0  0  0  0  0  0  0  0
  149.4157  139.3466  155.0581 H   0  0  0  0  0  0  0  0  0  0  0  0
  148.0168  140.0670  155.8158 H   0  0  0  0  0  0  0  0  0  0  0  0
  145.8445  139.3235  151.2552 H   0  0  0  0  0  0  0  0  0  0  0  0
  153.0094  141.4111  157.9235 H   0  0  0  0  0  0  0  0  0  0  0  0
  151.7121  140.6261  158.7892 H   0  0  0  0  0  0  0  0  0  0  0  0
  1  2  1  0  0  0  0
  1 18  1  0  0  0  0
  1 19  1  0  0  0  0
  1 20  1  0  0  0  0
  2 17  1  0  0  0  0
  2  3  1  0  0  0  0
  2 21  1  0  0  0  0
  3  4  1  0  0  0  0
  3 22  1  0  0  0  0
  3 23  1  0  0  0  0
  4  5  1  0  0  0  0
  4 24  1  0  0  0  0
  4 25  1  0  0  0  0
  5  6  1  0  0  0  0
  5 26  1  0  0  0  0
  5 27  1  0  0  0  0
  6  7  1  0  0  0  0
  6 17  1  0  0  0  0
  6 28  1  0  0  0  0
  7  8  2  0  0  0  0
  7  9  1  0  0  0  0
  9 10  1  0  0  0  0
  9 29  1  0  0  0  0
 10 11  1  0  0  0  0
 10 30  1  0  0  0  0
 10 31  1  0  0  0  0
 11 32  1  0  0  0  0
 11 33  1  0  0  0  0
 11 12  1  0  0  0  0
 12 16  2  0  0  0  0
 12 13  1  0  0  0  0
 13 14  1  0  0  0  0
 14 15  2  0  0  0  0
 15 16  1  0  0  0  0
 15 34  1  0  0  0  0
 17 35  1  0  0  0  0
 17 36  1  0  0  0  0
M  CHG  1  13  -1
M  END
> <s_m_source_file>
AV-unprocessed.smi

> <i_m_source_file_index>
3032

> <i_lp_mmshare_version>
43012

> <i_f3d_flags>
0

> <s_epik_input>
W0NIM11bQ0BASF0xW0NIMl1bQ0gyXVtDSDJdW0NASF0oW0NIMl0xKUMoPU8pW05IXVtDSDJdW0NIMl1jMm5uW2NIXVtuSF0y

> <s_epik_cmdline>
J2VwaWtfcHl0aG9uJywgJy1waCcsICc3LjAnLCAnLXRuJywgJzgnLCAnLW1hJywgJzIwMCcsICctbWV0YWxfYmluZGluZycsICctaW1hZScsICc8aW5maWxlLm1hZT4nLCAnLW9tYWUnLCAnPG91dGZpbGUubWFlPic=

> <r_lp_tautomer_probability>
0.948284

> <r_epik_Ionization_Penalty>
12.042

> <r_epik_Ionization_Penalty_Charging>
12.042

> <r_epik_Ionization_Penalty_Neutral>
4.36781e-08

> <r_epik_State_Penalty>
4.67286

> <r_epik_Charging_Adjusted_Penalty>
16.7149

> <i_epik_Tot_Q>
-1

> <i_epik_Tot_abs_Q>
1

> <r_epik_Metal_State_Penalty>
0.981637

> <b_epik_Metal_Only>
1

> <s_lp_Force_Field>
OPLS_2005

> <r_lp_Energy>
10.6668

> <b_lp_Chiralities_Consistent>
1

> <s_lp_Variant>
AV-unprocessed.smi:3032-14

> <Gold.Version>
5.8.1

> <Gold.Id.Protein>
6NUR|6NUR_protein|mol2

> <Gold.PLP.Fitness>
41.8696

> <Gold.PLP.PLP>
-35.7017

> <Gold.PLP.part.hbond>
-1.0000

> <Gold.PLP.part.metal>
0.0000

> <Gold.PLP.part.buried>
-4.4630

> <Gold.PLP.part.nonpolar>
-33.5516

> <Gold.PLP.part.repulsive>
2.2891

> <Gold.PLP.ligand.clash>
0.0000

> <Gold.PLP.ligand.torsion>
0.2205

> <Gold.PLP.Chemscore.Hbond>
0.9920

> <Gold.PLP.Chemscore.CHOScore>
1.2041

> <Gold.PLP.Chemscore.Metal>
0.0000

> <Gold.Chemscore.Hbonds>
donor molecule, donor type, donor heavy atom, donor atom, acceptor molecule, acceptor atom, score
      L1  H     9    29       P1  8028  1.00
      L1  C    15    34       P1 10171  1.00
      L1  C    15    34       P1 10175  0.21

> <Gold.PLP.Chemscore.Internal.Correction>
0.0206

> <Gold.Rescore>
     Score         DG    S(hbond)    S(metal)    S(lipo)     H(rot)  DE(clash)    DE(int)     intcor
     13.43     -13.91       0.99        0.00      92.29       2.21       0.25       0.24       ----

> <Gold.Chemscore.Fitness>
13.4290

> <Gold.Chemscore.DG>
-13.9095

> <Gold.Chemscore.ZeroCoef>
-5.4800

> <Gold.Chemscore.Hbond>
0.9885

> <Gold.Chemscore.Metal>
0.0000

> <Gold.Chemscore.Lipo>
92.2913

> <Gold.Chemscore.Internal_Hbond>
0.0000

> <Gold.Chemscore.DEClash>
0.2455

> <Gold.Chemscore.DEInternal>
0.2351

> <Gold.Chemscore.Rot>
2.2149

> <Gold.Chemscore.Internal.Correction>
   9.000000E+99

> <Gold.Chemscore.Hbonds>
donor molecule, donor type, donor heavy atom, donor atom, acceptor molecule, acceptor atom, score
      L1  H     9    29       P1  8028  0.94

> <Gold.Chemscore.Hbond.Weighted>
-3.3017

> <Gold.Chemscore.Metal.Weighted>
-0.0000

> <Gold.Chemscore.Lipo.Weighted>
-10.7981

> <Gold.Chemscore.Internal_Hbond.Weighted>
0.0000

> <Gold.Chemscore.DEClash.Weighted>
0.2455

> <Gold.Chemscore.DEInternal.Weighted>
0.2351

> <Gold.Chemscore.Rot.Weighted>
5.6702

> <Gold.Chemscore.Internal.Correction.Weighted>
   9.000000E+99

> <Gold.Protein.RotatedTorsions>
[ 6907 6896 6895 6894 ] final -123.28 input  -60.11 | X-H torsion
[ 7974 7965 7964 7962 ] final  -70.81 input  175.53 | X-H torsion
[ 8008 7997 7996 7995 ] final -176.22 input   59.86 | X-H torsion
[ 10167 10162 10161 10158 ] final  -24.56 input  -65.29 | X-H torsion
[ 10718 10713 10712 10709 ] final  105.92 input   66.30 | X-H torsion
[ 10763 10752 10751 10750 ] final -160.61 input  -60.55 | X-H torsion
[ 11005 11000 10999 10996 ] final   92.92 input  -57.11 | X-H torsion

> <Gold.Protein.ActiveResidues>
 VAL166  LYS551  ARG553  GLY616  TRP617  ASP618  TYR619  PRO620  LYS621  CYS622 
 ASP623  PHE694  ASN695  SER759  ASP760  ASP761  ALA762  ILE779  LEU786  VAL792 
 PHE793  MET794  SER795  GLU796  ALA797  LYS798  CYS799  TRP800  GLU811  SER814 

> <Gold.Protein.RotatedAtoms>
  150.8655  133.7580  159.2977 H   0  0  0  0  0  0  0  0  0  0  0  0  # atno 6907 bound_to 6896
  151.5209  135.1065  159.9888 H   0  0  0  0  0  0  0  0  0  0  0  0  # atno 6908 bound_to 6896
  152.4658  133.7875  159.6940 H   0  0  0  0  0  0  0  0  0  0  0  0  # atno 6909 bound_to 6896
  145.6862  140.9170  143.0806 H   0  0  0  0  0  0  0  0  0  0  0  0  # atno 7974 bound_to 7965
  155.9922  140.1203  157.0627 H   0  0  0  0  0  0  0  0  0  0  0  0  # atno 8008 bound_to 7997
  154.4215  140.1123  156.5649 H   0  0  0  0  0  0  0  0  0  0  0  0  # atno 8009 bound_to 7997
  155.6327  140.3473  155.4690 H   0  0  0  0  0  0  0  0  0  0  0  0  # atno 8010 bound_to 7997
  140.7288  143.4342  151.0755 H   0  0  0  0  0  0  0  0  0  0  0  0  # atno 10167 bound_to 10162
  157.6687  131.0839  150.5930 H   0  0  0  0  0  0  0  0  0  0  0  0  # atno 10718 bound_to 10713
  154.7376  135.3061  154.8785 H   0  0  0  0  0  0  0  0  0  0  0  0  # atno 10763 bound_to 10752
  153.9609  135.6753  153.4749 H   0  0  0  0  0  0  0  0  0  0  0  0  # atno 10764 bound_to 10752
  153.0977  135.4927  154.8733 H   0  0  0  0  0  0  0  0  0  0  0  0  # atno 10765 bound_to 10752
  139.8817  134.8760  156.3643 H   0  0  0  0  0  0  0  0  0  0  0  0  # atno 11005 bound_to 11000
  144.7010  139.8762  143.7444 LP  0  0  0  0  0  0  0  0  0  0  0  0  # atno 17320 bound_to 7965
  146.0921  139.3912  143.0399 LP  0  0  0  0  0  0  0  0  0  0  0  0  # atno 17321 bound_to 7965
  139.8002  143.8094  152.3162 LP  0  0  0  0  0  0  0  0  0  0  0  0  # atno 17342 bound_to 10162
  139.8108  144.7336  150.9699 LP  0  0  0  0  0  0  0  0  0  0  0  0  # atno 17343 bound_to 10162
  156.6230  130.4411  149.5815 LP  0  0  0  0  0  0  0  0  0  0  0  0  # atno 17370 bound_to 10713
  156.2341  130.6812  151.1492 LP  0  0  0  0  0  0  0  0  0  0  0  0  # atno 17371 bound_to 10713
  140.9508  133.7452  156.0269 LP  0  0  0  0  0  0  0  0  0  0  0  0  # atno 17394 bound_to 11000
  140.8108  134.3402  157.5412 LP  0  0  0  0  0  0  0  0  0  0  0  0  # atno 17395 bound_to 11000

$$$$
