AV-unprocessed.smi:1824|AV-procd|sdf|7411|dock6
  -GOLD-   22720 9 83D 1   1.00000     0.00000
 Structure written by MMmdl.
 45 47  0  0  0  0  0  0  0  0  2 V2000
  145.0185  139.4861  156.5645 C   0  0  0  0  0  0  0  0  0  0  0  0
  146.3265  139.8837  155.8724 C   0  0  1  0  0  0  0  0  0  0  0  0
  147.3222  138.7112  155.8009 C   0  0  0  0  0  0  0  0  0  0  0  0
  148.5301  139.0622  155.0584 N   0  0  0  0  0  0  0  0  0  0  0  0
  149.4914  137.9603  154.9867 C   0  0  0  0  0  0  0  0  0  0  0  0
  150.9445  138.3681  154.6728 C   0  0  2  0  0  0  0  0  0  0  0  0
  151.6176  137.2399  154.1496 O   0  0  0  0  0  0  0  0  0  0  0  0
  151.6752  138.8672  155.9346 C   0  0  0  0  0  0  0  0  0  0  0  0
  151.3106  140.2439  156.3000 N   0  0  0  0  0  0  0  0  0  0  0  0
  150.5315  141.1407  155.6365 C   0  0  0  0  0  0  0  0  0  0  0  0
  150.4953  142.2824  156.3782 N   0  3  0  0  0  0  0  0  0  0  0  0
  151.2645  142.1140  157.5320 C   0  0  0  0  0  0  0  0  0  0  0  0
  151.5336  142.9847  158.5831 C   0  0  0  0  0  0  0  0  0  0  0  0
  152.3674  142.4998  159.6123 C   0  0  0  0  0  0  0  0  0  0  0  0
  152.6632  143.3068  160.6587 F   0  0  0  0  0  0  0  0  0  0  0  0
  152.8990  141.1934  159.5720 C   0  0  0  0  0  0  0  0  0  0  0  0
  153.6968  140.7680  160.5800 F   0  0  0  0  0  0  0  0  0  0  0  0
  152.6174  140.3194  158.5015 C   0  0  0  0  0  0  0  0  0  0  0  0
  151.7920  140.8064  157.4885 C   0  0  0  0  0  0  0  0  0  0  0  0
  148.1486  139.5043  153.7211 C   0  0  0  0  0  0  0  0  0  0  0  0
  147.1368  140.6671  153.7414 C   0  0  2  0  0  0  0  0  0  0  0  0
  147.7587  142.0100  154.1621 C   0  0  0  0  0  0  0  0  0  0  0  0
  146.0123  140.3249  154.5529 O   0  0  0  0  0  0  0  0  0  0  0  0
  145.2006  139.1551  157.5872 H   0  0  0  0  0  0  0  0  0  0  0  0
  144.5216  138.6742  156.0326 H   0  0  0  0  0  0  0  0  0  0  0  0
  144.3279  140.3289  156.6061 H   0  0  0  0  0  0  0  0  0  0  0  0
  146.7732  140.7063  156.4315 H   0  0  0  0  0  0  0  0  0  0  0  0
  147.5731  138.4139  156.8179 H   0  0  0  0  0  0  0  0  0  0  0  0
  146.8398  137.8509  155.3340 H   0  0  0  0  0  0  0  0  0  0  0  0
  149.4680  137.4076  155.9274 H   0  0  0  0  0  0  0  0  0  0  0  0
  149.1702  137.2510  154.2221 H   0  0  0  0  0  0  0  0  0  0  0  0
  150.9748  139.1610  153.9266 H   0  0  0  0  0  0  0  0  0  0  0  0
  151.2336  137.0289  153.3117 H   0  0  0  0  0  0  0  0  0  0  0  0
  151.4188  138.2334  156.7845 H   0  0  0  0  0  0  0  0  0  0  0  0
  152.7572  138.7988  155.8209 H   0  0  0  0  0  0  0  0  0  0  0  0
  150.0326  140.9763  154.6920 H   0  0  0  0  0  0  0  0  0  0  0  0
  151.1300  143.9858  158.6180 H   0  0  0  0  0  0  0  0  0  0  0  0
  153.0365  139.3245  158.4786 H   0  0  0  0  0  0  0  0  0  0  0  0
  149.0342  139.8043  153.1593 H   0  0  0  0  0  0  0  0  0  0  0  0
  147.7097  138.6672  153.1756 H   0  0  0  0  0  0  0  0  0  0  0  0
  146.7549  140.7970  152.7285 H   0  0  0  0  0  0  0  0  0  0  0  0
  148.5377  142.3122  153.4620 H   0  0  0  0  0  0  0  0  0  0  0  0
  148.2125  141.9603  155.1518 H   0  0  0  0  0  0  0  0  0  0  0  0
  147.0059  142.7984  154.1789 H   0  0  0  0  0  0  0  0  0  0  0  0
  149.9837  143.1143  156.1125 H   0  0  0  0  0  0  0  0  0  0  0  0
  1  2  1  0  0  0  0
  1 24  1  0  0  0  0
  1 25  1  0  0  0  0
  1 26  1  0  0  0  0
  2 23  1  0  0  0  0
  2  3  1  0  0  0  0
  2 27  1  0  0  0  0
  3  4  1  0  0  0  0
  3 28  1  0  0  0  0
  3 29  1  0  0  0  0
  4  5  1  0  0  0  0
  4 20  1  0  0  0  0
  5  6  1  0  0  0  0
  5 30  1  0  0  0  0
  5 31  1  0  0  0  0
  6  7  1  0  0  0  0
  6  8  1  0  0  0  0
  6 32  1  0  0  0  0
  7 33  1  0  0  0  0
  8  9  1  0  0  0  0
  8 34  1  0  0  0  0
  8 35  1  0  0  0  0
  9 19  1  0  0  0  0
  9 10  1  0  0  0  0
 10 11  2  0  0  0  0
 10 36  1  0  0  0  0
 11 12  1  0  0  0  0
 11 45  1  0  0  0  0
 12 19  2  0  0  0  0
 12 13  1  0  0  0  0
 13 14  2  0  0  0  0
 13 37  1  0  0  0  0
 14 15  1  0  0  0  0
 14 16  1  0  0  0  0
 16 17  1  0  0  0  0
 16 18  2  0  0  0  0
 18 19  1  0  0  0  0
 18 38  1  0  0  0  0
 20 21  1  0  0  0  0
 20 39  1  0  0  0  0
 20 40  1  0  0  0  0
 21 22  1  0  0  0  0
 21 23  1  0  0  0  0
 21 41  1  0  0  0  0
 22 42  1  0  0  0  0
 22 43  1  0  0  0  0
 22 44  1  0  0  0  0
M  CHG  1  11   1
M  END
> <s_m_source_file>
AV-unprocessed.smi

> <i_m_source_file_index>
1824

> <i_lp_mmshare_version>
43012

> <i_f3d_flags>
0

> <s_epik_input>
W0NIM11bQ0BASF0xW0NIMl1OKFtDSDJdW0NASF0oTzEpW0NIM10pW0NIMl1bQ0BIXShbT0hdKVtDSDJdbihbY0hdbjIpYyhjMjMpW2NIXWMoRiljKEYpW2NIXTM=

> <s_epik_cmdline>
J2VwaWtfcHl0aG9uJywgJy1waCcsICc3LjAnLCAnLXRuJywgJzgnLCAnLW1hJywgJzIwMCcsICctbWV0YWxfYmluZGluZycsICctaW1hZScsICc8aW5maWxlLm1hZT4nLCAnLW9tYWUnLCAnPG91dGZpbGUubWFlPic=

> <r_epik_Ionization_Penalty>
2.58709

> <r_epik_Ionization_Penalty_Charging>
2.37273

> <r_epik_Ionization_Penalty_Neutral>
0.214359

> <r_epik_State_Penalty>
2.71799

> <r_epik_Charging_Adjusted_Penalty>
5.09071

> <i_epik_Tot_Q>
1

> <i_epik_Tot_abs_Q>
1

> <r_epik_Metal_State_Penalty>
6.80217

> <b_epik_Metal_Only>
0

> <s_lp_Force_Field>
OPLS_2005

> <r_lp_Energy>
35.2196

> <b_lp_Chiralities_Consistent>
1

> <s_lp_Variant>
AV-unprocessed.smi:1824-19

> <Gold.Version>
5.8.1

> <Gold.Id.Protein>
6NUR|6NUR_protein|mol2

> <Gold.PLP.Fitness>
52.2105

> <Gold.PLP.PLP>
-42.1836

> <Gold.PLP.part.hbond>
-3.0000

> <Gold.PLP.part.metal>
0.0000

> <Gold.PLP.part.buried>
-4.4279

> <Gold.PLP.part.nonpolar>
-35.4000

> <Gold.PLP.part.repulsive>
0.2686

> <Gold.PLP.ligand.clash>
0.0000

> <Gold.PLP.ligand.torsion>
0.5768

> <Gold.PLP.Chemscore.Hbond>
3.7069

> <Gold.PLP.Chemscore.CHOScore>
0.0000

> <Gold.PLP.Chemscore.Metal>
0.0000

> <Gold.Chemscore.Hbonds>
donor molecule, donor type, donor heavy atom, donor atom, acceptor molecule, acceptor atom, score
      L1  H     7    33       P1  7949  0.83
      L1  H    11    45       P1  8028  2.00
      P1  H 10752 10763       L1     7  0.56

> <Gold.PLP.Chemscore.Internal.Correction>
0.0598

> <Gold.Rescore>
     Score         DG    S(hbond)    S(metal)    S(lipo)     H(rot)  DE(clash)    DE(int)     intcor
     14.99     -15.88       1.73        0.00      90.37       2.32       0.18       0.71       ----

> <Gold.Chemscore.Fitness>
14.9907

> <Gold.Chemscore.DG>
-15.8820

> <Gold.Chemscore.ZeroCoef>
-5.4800

> <Gold.Chemscore.Hbond>
1.7275

> <Gold.Chemscore.Metal>
0.0000

> <Gold.Chemscore.Lipo>
90.3748

> <Gold.Chemscore.Internal_Hbond>
0.0000

> <Gold.Chemscore.DEClash>
0.1794

> <Gold.Chemscore.DEInternal>
0.7119

> <Gold.Chemscore.Rot>
2.3210

> <Gold.Chemscore.Internal.Correction>
   9.000000E+99

> <Gold.Chemscore.Hbonds>
donor molecule, donor type, donor heavy atom, donor atom, acceptor molecule, acceptor atom, score
      L1  H     7    33       P1  7949  0.48
      L1  H    11    45       P1  8028  0.97
      P1  H 10752 10763       L1     7  0.05

> <Gold.Chemscore.Hbond.Weighted>
-5.7698

> <Gold.Chemscore.Metal.Weighted>
-0.0000

> <Gold.Chemscore.Lipo.Weighted>
-10.5739

> <Gold.Chemscore.Internal_Hbond.Weighted>
0.0000

> <Gold.Chemscore.DEClash.Weighted>
0.1794

> <Gold.Chemscore.DEInternal.Weighted>
0.7119

> <Gold.Chemscore.Rot.Weighted>
5.9416

> <Gold.Chemscore.Internal.Correction.Weighted>
   9.000000E+99

> <Gold.Protein.RotatedTorsions>
[ 6907 6896 6895 6894 ] final  113.47 input  -60.11 | X-H torsion
[ 7974 7965 7964 7962 ] final  -33.63 input  175.53 | X-H torsion
[ 8008 7997 7996 7995 ] final -150.06 input   59.86 | X-H torsion
[ 10167 10162 10161 10158 ] final  118.27 input  -65.29 | X-H torsion
[ 10718 10713 10712 10709 ] final  -56.76 input   66.30 | X-H torsion
[ 10763 10752 10751 10750 ] final   24.90 input  -60.55 | X-H torsion
[ 11005 11000 10999 10996 ] final   77.50 input  -57.11 | X-H torsion

> <Gold.Protein.ActiveResidues>
 VAL166  LYS551  ARG553  GLY616  TRP617  ASP618  TYR619  PRO620  LYS621  CYS622 
 ASP623  PHE694  ASN695  SER759  ASP760  ASP761  ALA762  ILE779  LEU786  VAL792 
 PHE793  MET794  SER795  GLU796  ALA797  LYS798  CYS799  TRP800  GLU811  SER814 

> <Gold.Protein.RotatedAtoms>
  152.4859  133.8372  159.7133 H   0  0  0  0  0  0  0  0  0  0  0  0  # atno 6907 bound_to 6896
  150.8945  133.7189  159.2902 H   0  0  0  0  0  0  0  0  0  0  0  0  # atno 6908 bound_to 6896
  151.4651  135.1045  159.9788 H   0  0  0  0  0  0  0  0  0  0  0  0  # atno 6909 bound_to 6896
  146.0895  140.5940  142.8871 H   0  0  0  0  0  0  0  0  0  0  0  0  # atno 7974 bound_to 7965
  155.6175  140.0678  157.2688 H   0  0  0  0  0  0  0  0  0  0  0  0  # atno 8008 bound_to 7997
  154.4237  140.1790  156.1385 H   0  0  0  0  0  0  0  0  0  0  0  0  # atno 8009 bound_to 7997
  156.0036  140.3333  155.6873 H   0  0  0  0  0  0  0  0  0  0  0  0  # atno 8010 bound_to 7997
  139.6122  144.7084  151.2818 H   0  0  0  0  0  0  0  0  0  0  0  0  # atno 10167 bound_to 10162
  156.1263  130.4162  150.0349 H   0  0  0  0  0  0  0  0  0  0  0  0  # atno 10718 bound_to 10713
  153.0731  135.6595  154.0205 H   0  0  0  0  0  0  0  0  0  0  0  0  # atno 10763 bound_to 10752
  153.9846  135.2952  155.3419 H   0  0  0  0  0  0  0  0  0  0  0  0  # atno 10764 bound_to 10752
  154.7111  135.5205  153.8738 H   0  0  0  0  0  0  0  0  0  0  0  0  # atno 10765 bound_to 10752
  139.9252  134.7688  156.1530 H   0  0  0  0  0  0  0  0  0  0  0  0  # atno 11005 bound_to 11000
  144.7350  140.4781  143.6910 LP  0  0  0  0  0  0  0  0  0  0  0  0  # atno 17320 bound_to 7965
  145.6066  139.1509  143.3099 LP  0  0  0  0  0  0  0  0  0  0  0  0  # atno 17321 bound_to 7965
  140.7327  143.6816  150.7996 LP  0  0  0  0  0  0  0  0  0  0  0  0  # atno 17342 bound_to 10162
  140.0412  143.5344  152.2717 LP  0  0  0  0  0  0  0  0  0  0  0  0  # atno 17343 bound_to 10162
  156.8273  130.9380  151.3638 LP  0  0  0  0  0  0  0  0  0  0  0  0  # atno 17370 bound_to 10713
  157.6444  130.8832  149.9511 LP  0  0  0  0  0  0  0  0  0  0  0  0  # atno 17371 bound_to 10713
  141.0804  133.6757  156.2324 LP  0  0  0  0  0  0  0  0  0  0  0  0  # atno 17394 bound_to 11000
  140.6357  134.5217  157.5564 LP  0  0  0  0  0  0  0  0  0  0  0  0  # atno 17395 bound_to 11000

$$$$
