AV-unprocessed.smi:1807|AV-procd|sdf|7304|dock5
  -GOLD-   22720 8563D 1   1.00000     0.00000
 Structure written by MMmdl.
 44 45  0  0  0  0  0  0  0  0  1 V2000
  147.7820  133.6499  152.9297 C   0  0  0  0  0  0  0  0  0  0  0  0
  146.8037  133.6062  151.7422 C   0  0  1  0  0  0  0  0  0  0  0  0
  146.2363  132.1834  151.5627 C   0  0  0  0  0  0  0  0  0  0  0  0
  145.2575  132.1007  150.3820 C   0  0  0  0  0  0  0  0  0  0  0  0
  144.1175  133.1161  150.5396 C   0  0  0  0  0  0  0  0  0  0  0  0
  144.6670  134.5407  150.7018 C   0  0  0  0  0  0  0  0  0  0  0  0
  145.6566  134.6381  151.8819 C   0  0  2  0  0  0  0  0  0  0  0  0
  146.2000  135.9918  151.9630 N   0  0  0  0  0  0  0  0  0  0  0  0
  145.5071  137.0907  152.2962 C   0  0  0  0  0  0  0  0  0  0  0  0
  144.2977  137.0847  152.5296 O   0  0  0  0  0  0  0  0  0  0  0  0
  146.3055  138.3979  152.3557 C   0  0  0  0  0  0  0  0  0  0  0  0
  147.5770  138.2384  153.0527 N   0  0  0  0  0  0  0  0  0  0  0  0
  148.1829  139.3500  153.6533 C   0  0  0  0  0  0  0  0  0  0  0  0
  147.5953  140.6436  153.6113 C   0  0  0  0  0  0  0  0  0  0  0  0
  148.4813  141.4119  154.3124 C   0  0  0  0  0  0  0  0  0  0  0  0
  149.5133  140.5895  154.7212 N   0  0  0  0  0  0  0  0  0  0  0  0
  150.6882  140.9362  155.5010 C   0  0  0  0  0  0  0  0  0  0  0  0
  151.7129  139.7996  155.4915 C   0  0  0  0  0  0  0  0  0  0  0  0
  151.4300  138.7152  156.2179 N   0  0  0  0  0  0  0  0  0  0  0  0
  152.7476  139.8973  154.8357 O   0  0  0  0  0  0  0  0  0  0  0  0
  149.3337  139.3154  154.3089 N   0  0  0  0  0  0  0  0  0  0  0  0
  147.2700  133.4322  153.8671 H   0  0  0  0  0  0  0  0  0  0  0  0
  148.2572  134.6261  153.0300 H   0  0  0  0  0  0  0  0  0  0  0  0
  148.5782  132.9151  152.8090 H   0  0  0  0  0  0  0  0  0  0  0  0
  147.3703  133.8507  150.8424 H   0  0  0  0  0  0  0  0  0  0  0  0
  147.0501  131.4741  151.4088 H   0  0  0  0  0  0  0  0  0  0  0  0
  145.7275  131.8727  152.4765 H   0  0  0  0  0  0  0  0  0  0  0  0
  145.7907  132.2886  149.4493 H   0  0  0  0  0  0  0  0  0  0  0  0
  144.8493  131.0923  150.3082 H   0  0  0  0  0  0  0  0  0  0  0  0
  143.4546  133.0695  149.6753 H   0  0  0  0  0  0  0  0  0  0  0  0
  143.5122  132.8561  151.4089 H   0  0  0  0  0  0  0  0  0  0  0  0
  145.1625  134.8437  149.7783 H   0  0  0  0  0  0  0  0  0  0  0  0
  143.8380  135.2341  150.8483 H   0  0  0  0  0  0  0  0  0  0  0  0
  145.1177  134.4165  152.8056 H   0  0  0  0  0  0  0  0  0  0  0  0
  147.1880  136.0951  151.7825 H   0  0  0  0  0  0  0  0  0  0  0  0
  146.4705  138.7994  151.3543 H   0  0  0  0  0  0  0  0  0  0  0  0
  145.7122  139.1382  152.8924 H   0  0  0  0  0  0  0  0  0  0  0  0
  148.1423  137.4299  152.8374 H   0  0  0  0  0  0  0  0  0  0  0  0
  146.6711  140.9572  153.1492 H   0  0  0  0  0  0  0  0  0  0  0  0
  148.4626  142.4642  154.5547 H   0  0  0  0  0  0  0  0  0  0  0  0
  151.1425  141.8404  155.0924 H   0  0  0  0  0  0  0  0  0  0  0  0
  150.3759  141.1671  156.5206 H   0  0  0  0  0  0  0  0  0  0  0  0
  152.0730  137.9374  156.2390 H   0  0  0  0  0  0  0  0  0  0  0  0
  150.5671  138.6764  156.7414 H   0  0  0  0  0  0  0  0  0  0  0  0
  1  2  1  0  0  0  0
  1 22  1  0  0  0  0
  1 23  1  0  0  0  0
  1 24  1  0  0  0  0
  2  7  1  0  0  0  0
  2  3  1  0  0  0  0
  2 25  1  0  0  0  0
  3  4  1  0  0  0  0
  3 26  1  0  0  0  0
  3 27  1  0  0  0  0
  4  5  1  0  0  0  0
  4 28  1  0  0  0  0
  4 29  1  0  0  0  0
  5  6  1  0  0  0  0
  5 30  1  0  0  0  0
  5 31  1  0  0  0  0
  6  7  1  0  0  0  0
  6 32  1  0  0  0  0
  6 33  1  0  0  0  0
  7  8  1  0  0  0  0
  7 34  1  0  0  0  0
  8  9  1  0  0  0  0
  8 35  1  0  0  0  0
  9 10  2  0  0  0  0
  9 11  1  0  0  0  0
 11 12  1  0  0  0  0
 11 36  1  0  0  0  0
 11 37  1  0  0  0  0
 12 13  1  0  0  0  0
 12 38  1  0  0  0  0
 13 21  2  0  0  0  0
 13 14  1  0  0  0  0
 14 15  2  0  0  0  0
 14 39  1  0  0  0  0
 15 16  1  0  0  0  0
 15 40  1  0  0  0  0
 16 17  1  0  0  0  0
 16 21  1  0  0  0  0
 17 18  1  0  0  0  0
 17 41  1  0  0  0  0
 17 42  1  0  0  0  0
 18 19  1  0  0  0  0
 18 20  2  0  0  0  0
 19 43  1  0  0  0  0
 19 44  1  0  0  0  0
M  END
> <s_m_source_file>
AV-unprocessed.smi

> <i_m_source_file_index>
1807

> <i_lp_mmshare_version>
43012

> <i_f3d_flags>
0

> <s_epik_input>
W0NIM11bQ0BASF0xW0NIMl1bQ0gyXVtDSDJdW0NIMl1bQ0BIXTFbTkhdQyg9TylbQ0gyXVtOSF1jMltjSF1bY0hdbihuMilbQ0gyXUMoPU8pW05IMl0=

> <s_epik_cmdline>
J2VwaWtfcHl0aG9uJywgJy1waCcsICc3LjAnLCAnLXRuJywgJzgnLCAnLW1hJywgJzIwMCcsICctbWV0YWxfYmluZGluZycsICctaW1hZScsICc8aW5maWxlLm1hZT4nLCAnLW9tYWUnLCAnPG91dGZpbGUubWFlPic=

> <r_lp_tautomer_probability>
1

> <r_epik_Ionization_Penalty>
0.000167642

> <r_epik_Ionization_Penalty_Charging>
0

> <r_epik_Ionization_Penalty_Neutral>
0.000167642

> <r_epik_State_Penalty>
-0

> <r_epik_Charging_Adjusted_Penalty>
0

> <i_epik_Tot_Q>
0

> <i_epik_Tot_abs_Q>
0

> <r_epik_Metal_State_Penalty>
-0

> <b_epik_Metal_Only>
0

> <s_lp_Force_Field>
OPLS_2005

> <r_lp_Energy>
6.04908

> <b_lp_Chiralities_Consistent>
1

> <s_lp_Variant>
AV-unprocessed.smi:1807-4

> <Gold.Version>
5.8.1

> <Gold.Id.Protein>
6NUR|6NUR_protein|mol2

> <Gold.PLP.Fitness>
51.9685

> <Gold.PLP.PLP>
-40.7004

> <Gold.PLP.part.hbond>
-4.0000

> <Gold.PLP.part.metal>
0.0000

> <Gold.PLP.part.buried>
-2.6088

> <Gold.PLP.part.nonpolar>
-35.1445

> <Gold.PLP.part.repulsive>
0.6933

> <Gold.PLP.ligand.clash>
0.0000

> <Gold.PLP.ligand.torsion>
0.7310

> <Gold.PLP.Chemscore.Hbond>
3.2371

> <Gold.PLP.Chemscore.CHOScore>
1.0000

> <Gold.PLP.Chemscore.Metal>
0.0000

> <Gold.Chemscore.Hbonds>
donor molecule, donor type, donor heavy atom, donor atom, acceptor molecule, acceptor atom, score
      L1  H     8    35       P1  7948  1.00
      L1  H    12    38       P1  7948  1.00
      P1  H  7989  7998       L1    20  0.16
      P1  H  7997  8009       L1    20  1.00
      L1  C    15    40       P1  8028  1.00

> <Gold.PLP.Chemscore.Internal.Correction>
0.0188

> <Gold.Rescore>
     Score         DG    S(hbond)    S(metal)    S(lipo)     H(rot)  DE(clash)    DE(int)     intcor
     15.31     -17.38       2.99        0.00      73.90       2.64       0.09       1.98       ----

> <Gold.Chemscore.Fitness>
15.3103

> <Gold.Chemscore.DG>
-17.3795

> <Gold.Chemscore.ZeroCoef>
-5.4800

> <Gold.Chemscore.Hbond>
2.9950

> <Gold.Chemscore.Metal>
0.0000

> <Gold.Chemscore.Lipo>
73.9032

> <Gold.Chemscore.Internal_Hbond>
0.0000

> <Gold.Chemscore.DEClash>
0.0880

> <Gold.Chemscore.DEInternal>
1.9813

> <Gold.Chemscore.Rot>
2.6369

> <Gold.Chemscore.Internal.Correction>
   9.000000E+99

> <Gold.Chemscore.Hbonds>
donor molecule, donor type, donor heavy atom, donor atom, acceptor molecule, acceptor atom, score
      L1  H     8    35       P1  7948  1.00
      L1  H    12    38       P1  7948  0.99
      P1  H  7997  8009       L1    20  0.88

> <Gold.Chemscore.Hbond.Weighted>
-10.0032

> <Gold.Chemscore.Metal.Weighted>
-0.0000

> <Gold.Chemscore.Lipo.Weighted>
-8.6467

> <Gold.Chemscore.Internal_Hbond.Weighted>
0.0000

> <Gold.Chemscore.DEClash.Weighted>
0.0880

> <Gold.Chemscore.DEInternal.Weighted>
1.9813

> <Gold.Chemscore.Rot.Weighted>
6.7504

> <Gold.Chemscore.Internal.Correction.Weighted>
   9.000000E+99

> <Gold.Protein.RotatedTorsions>
[ 6907 6896 6895 6894 ] final  -53.66 input  -60.11 | X-H torsion
[ 7974 7965 7964 7962 ] final -164.28 input  175.53 | X-H torsion
[ 8008 7997 7996 7995 ] final -136.68 input   59.86 | X-H torsion
[ 10167 10162 10161 10158 ] final   43.41 input  -65.29 | X-H torsion
[ 10718 10713 10712 10709 ] final  144.10 input   66.30 | X-H torsion
[ 10763 10752 10751 10750 ] final -102.90 input  -60.55 | X-H torsion
[ 11005 11000 10999 10996 ] final  -15.89 input  -57.11 | X-H torsion

> <Gold.Protein.ActiveResidues>
 VAL166  LYS551  ARG553  GLY616  TRP617  ASP618  TYR619  PRO620  LYS621  CYS622 
 ASP623  PHE694  ASN695  SER759  ASP760  ASP761  ALA762  ILE779  LEU786  VAL792 
 PHE793  MET794  SER795  GLU796  ALA797  LYS798  CYS799  TRP800  GLU811  SER814 

> <Gold.Protein.RotatedAtoms>
  150.8406  134.7697  159.6929 H   0  0  0  0  0  0  0  0  0  0  0  0  # atno 6907 bound_to 6896
  152.4494  134.5422  159.9852 H   0  0  0  0  0  0  0  0  0  0  0  0  # atno 6908 bound_to 6896
  151.5562  133.3372  159.2998 H   0  0  0  0  0  0  0  0  0  0  0  0  # atno 6909 bound_to 6896
  144.7301  140.2984  143.6208 H   0  0  0  0  0  0  0  0  0  0  0  0  # atno 7974 bound_to 7965
  155.3992  140.0505  157.3037 H   0  0  0  0  0  0  0  0  0  0  0  0  # atno 8008 bound_to 7997
  154.4999  140.2152  155.9330 H   0  0  0  0  0  0  0  0  0  0  0  0  # atno 8009 bound_to 7997
  156.1453  140.3146  155.8566 H   0  0  0  0  0  0  0  0  0  0  0  0  # atno 8010 bound_to 7997
  140.3447  144.2426  150.6152 H   0  0  0  0  0  0  0  0  0  0  0  0  # atno 10167 bound_to 10162
  157.3612  131.0965  151.0914 H   0  0  0  0  0  0  0  0  0  0  0  0  # atno 10718 bound_to 10713
  154.7768  135.4843  153.9761 H   0  0  0  0  0  0  0  0  0  0  0  0  # atno 10763 bound_to 10752
  153.1439  135.6778  153.8991 H   0  0  0  0  0  0  0  0  0  0  0  0  # atno 10764 bound_to 10752
  153.8657  135.3150  155.3418 H   0  0  0  0  0  0  0  0  0  0  0  0  # atno 10765 bound_to 10752
  140.8012  133.8212  155.9472 H   0  0  0  0  0  0  0  0  0  0  0  0  # atno 11005 bound_to 11000
  145.7785  139.1882  143.2171 LP  0  0  0  0  0  0  0  0  0  0  0  0  # atno 17320 bound_to 7965
  146.0853  140.7717  142.9621 LP  0  0  0  0  0  0  0  0  0  0  0  0  # atno 17321 bound_to 7965
  140.5276  143.2251  151.8290 LP  0  0  0  0  0  0  0  0  0  0  0  0  # atno 17342 bound_to 10162
  139.4835  144.4760  151.9366 LP  0  0  0  0  0  0  0  0  0  0  0  0  # atno 17343 bound_to 10162
  157.2053  130.6413  149.5753 LP  0  0  0  0  0  0  0  0  0  0  0  0  # atno 17370 bound_to 10713
  155.9738  130.4678  150.6336 LP  0  0  0  0  0  0  0  0  0  0  0  0  # atno 17371 bound_to 10713
  140.9292  134.2043  157.4875 LP  0  0  0  0  0  0  0  0  0  0  0  0  # atno 17394 bound_to 11000
  139.8721  134.9826  156.5162 LP  0  0  0  0  0  0  0  0  0  0  0  0  # atno 17395 bound_to 11000

$$$$
