AV-unprocessed.smi:2209|AV-procd|sdf|8947|dock4
  -GOLD-   2272012163D 1   1.00000     0.00000
 Structure written by MMmdl.
 26 27  0  0  0  0  0  0  0  0  2 V2000
  150.6395  137.5147  159.3073 C   0  0  0  0  0  0  0  0  0  0  0  0
  151.4747  138.6786  158.8944 C   0  0  0  0  0  0  0  0  0  0  0  0
  152.7013  138.5144  158.4147 N   0  0  0  0  0  0  0  0  0  0  0  0
  153.1268  139.8256  158.1570 O   0  0  0  0  0  0  0  0  0  0  0  0
  152.0954  140.6270  158.5166 C   0  0  0  0  0  0  0  0  0  0  0  0
  152.2392  142.1081  158.3567 C   0  0  2  0  0  0  0  0  0  0  0  0
  152.3236  142.8317  159.7141 C   0  0  0  0  0  0  0  0  0  0  0  0
  152.4562  144.3486  159.5086 C   0  0  0  0  0  0  0  0  0  0  0  0
  151.3225  144.8848  158.6189 C   0  0  0  0  0  0  0  0  0  0  0  0
  151.2904  144.1685  157.3251 N   0  3  0  0  0  0  0  0  0  0  0  0
  151.1226  142.7057  157.4764 C   0  0  0  0  0  0  0  0  0  0  0  0
  151.0372  139.9650  158.9805 N   0  0  0  0  0  0  0  0  0  0  0  0
  151.1762  136.5764  159.1618 H   0  0  0  0  0  0  0  0  0  0  0  0
  149.7226  137.4815  158.7185 H   0  0  0  0  0  0  0  0  0  0  0  0
  150.3725  137.5983  160.3609 H   0  0  0  0  0  0  0  0  0  0  0  0
  153.1854  142.2784  157.8400 H   0  0  0  0  0  0  0  0  0  0  0  0
  151.4297  142.6227  160.3034 H   0  0  0  0  0  0  0  0  0  0  0  0
  153.1709  142.4581  160.2902 H   0  0  0  0  0  0  0  0  0  0  0  0
  152.4470  144.8578  160.4729 H   0  0  0  0  0  0  0  0  0  0  0  0
  153.4196  144.5737  159.0491 H   0  0  0  0  0  0  0  0  0  0  0  0
  150.3597  144.7698  159.1189 H   0  0  0  0  0  0  0  0  0  0  0  0
  151.4598  145.9502  158.4323 H   0  0  0  0  0  0  0  0  0  0  0  0
  150.5283  144.5300  156.7693 H   0  0  0  0  0  0  0  0  0  0  0  0
  151.1313  142.2469  156.4872 H   0  0  0  0  0  0  0  0  0  0  0  0
  150.1426  142.5049  157.9119 H   0  0  0  0  0  0  0  0  0  0  0  0
  152.1587  144.3449  156.8399 H   0  0  0  0  0  0  0  0  0  0  0  0
  1  2  1  0  0  0  0
  1 13  1  0  0  0  0
  1 14  1  0  0  0  0
  1 15  1  0  0  0  0
  2 12  1  0  0  0  0
  2  3  2  0  0  0  0
  3  4  1  0  0  0  0
  4  5  1  0  0  0  0
  5  6  1  0  0  0  0
  5 12  2  0  0  0  0
  6 11  1  0  0  0  0
  6  7  1  0  0  0  0
  6 16  1  0  0  0  0
  7  8  1  0  0  0  0
  7 17  1  0  0  0  0
  7 18  1  0  0  0  0
  8  9  1  0  0  0  0
  8 19  1  0  0  0  0
  8 20  1  0  0  0  0
  9 10  1  0  0  0  0
  9 21  1  0  0  0  0
  9 22  1  0  0  0  0
 10 11  1  0  0  0  0
 10 23  1  0  0  0  0
 10 26  1  0  0  0  0
 11 24  1  0  0  0  0
 11 25  1  0  0  0  0
M  CHG  1  10   1
M  END
> <s_m_source_file>
AV-unprocessed.smi

> <i_m_source_file_index>
2209

> <i_lp_mmshare_version>
43012

> <i_f3d_flags>
0

> <s_epik_input>
W0NIM11jMW5vYyhuMSlbQ0BASF0yW0NIMl1bQ0gyXVtDSDJdW05IXVtDSDJdMg==

> <s_epik_cmdline>
J2VwaWtfcHl0aG9uJywgJy1waCcsICc3LjAnLCAnLXRuJywgJzgnLCAnLW1hJywgJzIwMCcsICctbWV0YWxfYmluZGluZycsICctaW1hZScsICc8aW5maWxlLm1hZT4nLCAnLW9tYWUnLCAnPG91dGZpbGUubWFlPic=

> <r_lp_tautomer_probability>
1

> <r_epik_Ionization_Penalty>
0.000532935

> <r_epik_Ionization_Penalty_Charging>
0.000532935

> <r_epik_Ionization_Penalty_Neutral>
4.97553e-13

> <r_epik_State_Penalty>
0.000332992

> <r_epik_Charging_Adjusted_Penalty>
0.000865928

> <i_epik_Tot_Q>
1

> <i_epik_Tot_abs_Q>
1

> <r_epik_Metal_State_Penalty>
-0

> <b_epik_Metal_Only>
0

> <s_lp_Force_Field>
OPLS_2005

> <r_lp_Energy>
10.4199

> <b_lp_Chiralities_Consistent>
1

> <s_lp_Variant>
AV-unprocessed.smi:2209-1

> <Gold.Version>
5.8.1

> <Gold.Id.Protein>
6NUR|6NUR_protein|mol2

> <Gold.PLP.Fitness>
33.6569

> <Gold.PLP.PLP>
-24.8181

> <Gold.PLP.part.hbond>
-2.0000

> <Gold.PLP.part.metal>
0.0000

> <Gold.PLP.part.buried>
-4.2833

> <Gold.PLP.part.nonpolar>
-18.1326

> <Gold.PLP.part.repulsive>
0.0262

> <Gold.PLP.ligand.clash>
0.0000

> <Gold.PLP.ligand.torsion>
0.0973

> <Gold.PLP.Chemscore.Hbond>
3.0000

> <Gold.PLP.Chemscore.CHOScore>
0.0000

> <Gold.PLP.Chemscore.Metal>
0.0000

> <Gold.Chemscore.Hbonds>
donor molecule, donor type, donor heavy atom, donor atom, acceptor molecule, acceptor atom, score
      L1  H    10    23       P1  8028  2.00
      P1  H  7997  8008       L1     4  1.00

> <Gold.PLP.Chemscore.Internal.Correction>
0.0335

> <Gold.Rescore>
     Score         DG    S(hbond)    S(metal)    S(lipo)     H(rot)  DE(clash)    DE(int)     intcor
     16.64     -16.77       1.98        0.00      61.95       1.00       0.08       0.05       ----

> <Gold.Chemscore.Fitness>
16.6448

> <Gold.Chemscore.DG>
-16.7702

> <Gold.Chemscore.ZeroCoef>
-5.4800

> <Gold.Chemscore.Hbond>
1.9766

> <Gold.Chemscore.Metal>
0.0000

> <Gold.Chemscore.Lipo>
61.9510

> <Gold.Chemscore.Internal_Hbond>
0.0000

> <Gold.Chemscore.DEClash>
0.0772

> <Gold.Chemscore.DEInternal>
0.0482

> <Gold.Chemscore.Rot>
1.0000

> <Gold.Chemscore.Internal.Correction>
   9.000000E+99

> <Gold.Chemscore.Hbonds>
donor molecule, donor type, donor heavy atom, donor atom, acceptor molecule, acceptor atom, score
      L1  H    10    23       P1  8028  0.91
      P1  H  7997  8008       L1     4  0.95

> <Gold.Chemscore.Hbond.Weighted>
-6.6019

> <Gold.Chemscore.Metal.Weighted>
-0.0000

> <Gold.Chemscore.Lipo.Weighted>
-7.2483

> <Gold.Chemscore.Internal_Hbond.Weighted>
0.0000

> <Gold.Chemscore.DEClash.Weighted>
0.0772

> <Gold.Chemscore.DEInternal.Weighted>
0.0482

> <Gold.Chemscore.Rot.Weighted>
2.5600

> <Gold.Chemscore.Internal.Correction.Weighted>
   9.000000E+99

> <Gold.Protein.RotatedTorsions>
[ 6907 6896 6895 6894 ] final   65.61 input  -60.11 | X-H torsion
[ 7974 7965 7964 7962 ] final   65.93 input  175.53 | X-H torsion
[ 8008 7997 7996 7995 ] final  -77.11 input   59.86 | X-H torsion
[ 10167 10162 10161 10158 ] final  103.43 input  -65.29 | X-H torsion
[ 10718 10713 10712 10709 ] final   88.45 input   66.30 | X-H torsion
[ 10763 10752 10751 10750 ] final   16.79 input  -60.55 | X-H torsion
[ 11005 11000 10999 10996 ] final  124.64 input  -57.11 | X-H torsion

> <Gold.Protein.ActiveResidues>
 VAL166  LYS551  ARG553  GLY616  TRP617  ASP618  TYR619  PRO620  LYS621  CYS622 
 ASP623  PHE694  ASN695  SER759  ASP760  ASP761  ALA762  ILE779  LEU786  VAL792 
 PHE793  MET794  SER795  GLU796  ALA797  LYS798  CYS799  TRP800  GLU811  SER814 

> <Gold.Protein.RotatedAtoms>
  152.4420  134.5572  159.9883 H   0  0  0  0  0  0  0  0  0  0  0  0  # atno 6907 bound_to 6896
  151.5667  133.3390  159.2989 H   0  0  0  0  0  0  0  0  0  0  0  0  # atno 6908 bound_to 6896
  150.8328  134.7622  159.6932 H   0  0  0  0  0  0  0  0  0  0  0  0  # atno 6909 bound_to 6896
  145.8326  139.3148  143.0978 H   0  0  0  0  0  0  0  0  0  0  0  0  # atno 7974 bound_to 7965
  154.5566  140.0716  156.8753 H   0  0  0  0  0  0  0  0  0  0  0  0  # atno 8008 bound_to 7997
  155.2891  140.3377  155.4235 H   0  0  0  0  0  0  0  0  0  0  0  0  # atno 8009 bound_to 7997
  156.2007  140.1720  156.7891 H   0  0  0  0  0  0  0  0  0  0  0  0  # atno 8010 bound_to 7997
  139.7264  144.7046  151.0791 H   0  0  0  0  0  0  0  0  0  0  0  0  # atno 10167 bound_to 10162
  157.6949  131.0295  150.3277 H   0  0  0  0  0  0  0  0  0  0  0  0  # atno 10718 bound_to 10713
  153.1398  135.6757  153.9045 H   0  0  0  0  0  0  0  0  0  0  0  0  # atno 10763 bound_to 10752
  153.8506  135.3094  155.3433 H   0  0  0  0  0  0  0  0  0  0  0  0  # atno 10764 bound_to 10752
  154.7778  135.4905  153.9864 H   0  0  0  0  0  0  0  0  0  0  0  0  # atno 10765 bound_to 10752
  139.9368  134.9639  156.8439 H   0  0  0  0  0  0  0  0  0  0  0  0  # atno 11005 bound_to 11000
  145.9554  140.8877  143.0238 LP  0  0  0  0  0  0  0  0  0  0  0  0  # atno 17320 bound_to 7965
  144.6738  140.1738  143.7412 LP  0  0  0  0  0  0  0  0  0  0  0  0  # atno 17321 bound_to 7965
  140.7763  143.5100  150.9664 LP  0  0  0  0  0  0  0  0  0  0  0  0  # atno 17342 bound_to 10162
  139.8787  143.7099  152.3159 LP  0  0  0  0  0  0  0  0  0  0  0  0  # atno 17343 bound_to 10162
  156.3755  130.3871  149.7142 LP  0  0  0  0  0  0  0  0  0  0  0  0  # atno 17370 bound_to 10713
  156.4542  130.7921  151.2942 LP  0  0  0  0  0  0  0  0  0  0  0  0  # atno 17371 bound_to 10713
  140.6055  134.0132  155.7555 LP  0  0  0  0  0  0  0  0  0  0  0  0  # atno 17394 bound_to 11000
  141.0985  133.9805  157.3119 LP  0  0  0  0  0  0  0  0  0  0  0  0  # atno 17395 bound_to 11000

$$$$
