AV-unprocessed.smi:2254|AV-procd|sdf|9124|dock1
  -GOLD-   2272012323D 1   1.00000     0.00000
 Structure written by MMmdl.
 41 42  0  0  0  0  0  0  0  0  1 V2000
  152.1540  143.8963  161.2609 C   0  0  0  0  0  0  0  0  0  0  0  0
  151.9336  143.1234  159.9726 C   0  0  0  0  0  0  0  0  0  0  0  0
  150.9919  143.6684  159.0949 N   0  0  0  0  0  0  0  0  0  0  0  0
  150.7338  143.0742  157.9761 C   0  0  0  0  0  0  0  0  0  0  0  0
  151.3772  141.8803  157.6084 N   0  0  0  0  0  0  0  0  0  0  0  0
  150.9913  141.3003  156.3109 C   0  0  0  0  0  0  0  0  0  0  0  0
  149.6859  140.4779  156.4040 C   0  0  1  0  0  0  0  0  0  0  0  0
  149.8214  139.4309  157.3436 O   0  0  0  0  0  0  0  0  0  0  0  0
  148.4732  141.3236  156.8297 C   0  0  0  0  0  0  0  0  0  0  0  0
  147.2962  140.8238  156.2146 O   0  0  0  0  0  0  0  0  0  0  0  0
  147.1290  141.2752  154.8812 C   0  0  0  0  0  0  0  0  0  0  0  0
  146.1474  142.4282  154.8005 C   0  0  0  0  0  0  0  0  0  0  0  0
  145.4537  142.8529  155.9535 C   0  0  0  0  0  0  0  0  0  0  0  0
  144.5337  143.9168  155.8745 C   0  0  0  0  0  0  0  0  0  0  0  0
  144.2987  144.5559  154.6414 C   0  0  0  0  0  0  0  0  0  0  0  0
  143.1723  145.8593  154.5455 Cl  0  0  0  0  0  0  0  0  0  0  0  0
  144.9822  144.1283  153.4864 C   0  0  0  0  0  0  0  0  0  0  0  0
  145.9022  143.0647  153.5651 C   0  0  0  0  0  0  0  0  0  0  0  0
  152.3206  141.2910  158.3980 C   0  0  0  0  0  0  0  0  0  0  0  0
  152.8963  140.2562  158.0567 O   0  0  0  0  0  0  0  0  0  0  0  0
  152.5980  141.9742  159.6720 C   0  0  0  0  0  0  0  0  0  0  0  0
  153.6327  141.3337  160.5888 C   0  0  0  0  0  0  0  0  0  0  0  0
  153.1963  144.2046  161.3486 H   0  0  0  0  0  0  0  0  0  0  0  0
  151.8978  143.2811  162.1238 H   0  0  0  0  0  0  0  0  0  0  0  0
  151.5368  144.7949  161.2959 H   0  0  0  0  0  0  0  0  0  0  0  0
  150.0122  143.4607  157.2543 H   0  0  0  0  0  0  0  0  0  0  0  0
  150.9099  142.0661  155.5368 H   0  0  0  0  0  0  0  0  0  0  0  0
  151.7971  140.6532  155.9577 H   0  0  0  0  0  0  0  0  0  0  0  0
  149.4567  140.0240  155.4390 H   0  0  0  0  0  0  0  0  0  0  0  0
  149.0756  138.8555  157.2641 H   0  0  0  0  0  0  0  0  0  0  0  0
  148.3566  141.2600  157.9127 H   0  0  0  0  0  0  0  0  0  0  0  0
  148.6264  142.3764  156.5854 H   0  0  0  0  0  0  0  0  0  0  0  0
  148.0853  141.6102  154.4768 H   0  0  0  0  0  0  0  0  0  0  0  0
  146.7805  140.4509  154.2569 H   0  0  0  0  0  0  0  0  0  0  0  0
  145.6264  142.3672  156.9026 H   0  0  0  0  0  0  0  0  0  0  0  0
  144.0088  144.2411  156.7611 H   0  0  0  0  0  0  0  0  0  0  0  0
  144.8012  144.6143  152.5388 H   0  0  0  0  0  0  0  0  0  0  0  0
  146.4206  142.7402  152.6745 H   0  0  0  0  0  0  0  0  0  0  0  0
  153.3286  140.3190  160.8482 H   0  0  0  0  0  0  0  0  0  0  0  0
  153.7783  141.8789  161.5198 H   0  0  0  0  0  0  0  0  0  0  0  0
  154.5983  141.2790  160.0851 H   0  0  0  0  0  0  0  0  0  0  0  0
  1  2  1  0  0  0  0
  1 23  1  0  0  0  0
  1 24  1  0  0  0  0
  1 25  1  0  0  0  0
  2 21  2  0  0  0  0
  2  3  1  0  0  0  0
  3  4  2  0  0  0  0
  4  5  1  0  0  0  0
  4 26  1  0  0  0  0
  5  6  1  0  0  0  0
  5 19  1  0  0  0  0
  6  7  1  0  0  0  0
  6 27  1  0  0  0  0
  6 28  1  0  0  0  0
  7  8  1  0  0  0  0
  7  9  1  0  0  0  0
  7 29  1  0  0  0  0
  8 30  1  0  0  0  0
  9 10  1  0  0  0  0
  9 31  1  0  0  0  0
  9 32  1  0  0  0  0
 10 11  1  0  0  0  0
 11 12  1  0  0  0  0
 11 33  1  0  0  0  0
 11 34  1  0  0  0  0
 12 18  1  0  0  0  0
 12 13  2  0  0  0  0
 13 14  1  0  0  0  0
 13 35  1  0  0  0  0
 14 15  2  0  0  0  0
 14 36  1  0  0  0  0
 15 16  1  0  0  0  0
 15 17  1  0  0  0  0
 17 18  2  0  0  0  0
 17 37  1  0  0  0  0
 18 38  1  0  0  0  0
 19 20  2  0  0  0  0
 19 21  1  0  0  0  0
 21 22  1  0  0  0  0
 22 39  1  0  0  0  0
 22 40  1  0  0  0  0
 22 41  1  0  0  0  0
M  END
> <s_m_source_file>
AV-unprocessed.smi

> <i_m_source_file_index>
2254

> <i_lp_mmshare_version>
43012

> <i_f3d_flags>
0

> <s_epik_input>
W0NIM11jMW5bY0hdbihjKD1PKWMxW0NIM10pW0NIMl1bQ0BIXShbT0hdKVtDSDJdT1tDSDJdYzJbY0hdW2NIXWMoQ2wpW2NIXVtjSF0y

> <s_epik_cmdline>
J2VwaWtfcHl0aG9uJywgJy1waCcsICc3LjAnLCAnLXRuJywgJzgnLCAnLW1hJywgJzIwMCcsICctbWV0YWxfYmluZGluZycsICctaW1hZScsICc8aW5maWxlLm1hZT4nLCAnLW9tYWUnLCAnPG91dGZpbGUubWFlPic=

> <r_lp_tautomer_probability>
1

> <r_epik_Ionization_Penalty>
5.36e-05

> <r_epik_Ionization_Penalty_Charging>
1.17753e-07

> <r_epik_Ionization_Penalty_Neutral>
5.34822e-05

> <r_epik_State_Penalty>
-0

> <r_epik_Charging_Adjusted_Penalty>
1.17753e-07

> <i_epik_Tot_Q>
0

> <i_epik_Tot_abs_Q>
0

> <r_epik_Metal_State_Penalty>
-0

> <b_epik_Metal_Only>
0

> <s_lp_Force_Field>
OPLS_2005

> <r_lp_Energy>
22.8907

> <b_lp_Chiralities_Consistent>
1

> <s_lp_Variant>
AV-unprocessed.smi:2254-2

> <Gold.Version>
5.8.1

> <Gold.Id.Protein>
6NUR|6NUR_protein|mol2

> <Gold.PLP.Fitness>
48.8492

> <Gold.PLP.PLP>
-44.7507

> <Gold.PLP.part.hbond>
-1.0000

> <Gold.PLP.part.metal>
0.0000

> <Gold.PLP.part.buried>
-7.0546

> <Gold.PLP.part.nonpolar>
-37.2837

> <Gold.PLP.part.repulsive>
0.1324

> <Gold.PLP.ligand.clash>
0.0000

> <Gold.PLP.ligand.torsion>
1.1169

> <Gold.PLP.Chemscore.Hbond>
0.9760

> <Gold.PLP.Chemscore.CHOScore>
1.0000

> <Gold.PLP.Chemscore.Metal>
0.0000

> <Gold.Chemscore.Hbonds>
donor molecule, donor type, donor heavy atom, donor atom, acceptor molecule, acceptor atom, score
      P1  H  7997  8008       L1    20  0.94
      L1  C     4    26       P1  8028  1.00

> <Gold.PLP.Chemscore.Internal.Correction>
0.4044

> <Gold.Rescore>
     Score         DG    S(hbond)    S(metal)    S(lipo)     H(rot)  DE(clash)    DE(int)     intcor
     13.65     -14.83       0.92        0.00     108.64       2.52       0.05       1.13       ----

> <Gold.Chemscore.Fitness>
13.6480

> <Gold.Chemscore.DG>
-14.8267

> <Gold.Chemscore.ZeroCoef>
-5.4800

> <Gold.Chemscore.Hbond>
0.9214

> <Gold.Chemscore.Metal>
0.0000

> <Gold.Chemscore.Lipo>
108.6374

> <Gold.Chemscore.Internal_Hbond>
0.0000

> <Gold.Chemscore.DEClash>
0.0521

> <Gold.Chemscore.DEInternal>
1.1266

> <Gold.Chemscore.Rot>
2.5162

> <Gold.Chemscore.Internal.Correction>
   9.000000E+99

> <Gold.Chemscore.Hbonds>
donor molecule, donor type, donor heavy atom, donor atom, acceptor molecule, acceptor atom, score
      P1  H  7997  8008       L1    20  0.90

> <Gold.Chemscore.Hbond.Weighted>
-3.0775

> <Gold.Chemscore.Metal.Weighted>
-0.0000

> <Gold.Chemscore.Lipo.Weighted>
-12.7106

> <Gold.Chemscore.Internal_Hbond.Weighted>
0.0000

> <Gold.Chemscore.DEClash.Weighted>
0.0521

> <Gold.Chemscore.DEInternal.Weighted>
1.1266

> <Gold.Chemscore.Rot.Weighted>
6.4414

> <Gold.Chemscore.Internal.Correction.Weighted>
   9.000000E+99

> <Gold.Protein.RotatedTorsions>
[ 6907 6896 6895 6894 ] final -161.00 input  -60.11 | X-H torsion
[ 7974 7965 7964 7962 ] final   59.41 input  175.53 | X-H torsion
[ 8008 7997 7996 7995 ] final  -75.52 input   59.86 | X-H torsion
[ 10167 10162 10161 10158 ] final -104.78 input  -65.29 | X-H torsion
[ 10718 10713 10712 10709 ] final  -38.44 input   66.30 | X-H torsion
[ 10763 10752 10751 10750 ] final   79.58 input  -60.55 | X-H torsion
[ 11005 11000 10999 10996 ] final   31.19 input  -57.11 | X-H torsion

> <Gold.Protein.ActiveResidues>
 VAL166  LYS551  ARG553  GLY616  TRP617  ASP618  TYR619  PRO620  LYS621  CYS622 
 ASP623  PHE694  ASN695  SER759  ASP760  ASP761  ALA762  ILE779  LEU786  VAL792 
 PHE793  MET794  SER795  GLU796  ALA797  LYS798  CYS799  TRP800  GLU811  SER814 

> <Gold.Protein.RotatedAtoms>
  151.3578  133.3901  159.2686 H   0  0  0  0  0  0  0  0  0  0  0  0  # atno 6907 bound_to 6896
  150.9750  134.9117  159.7821 H   0  0  0  0  0  0  0  0  0  0  0  0  # atno 6908 bound_to 6896
  152.5197  134.3541  159.9314 H   0  0  0  0  0  0  0  0  0  0  0  0  # atno 6909 bound_to 6896
  145.9074  139.3627  143.0556 H   0  0  0  0  0  0  0  0  0  0  0  0  # atno 7974 bound_to 7965
  154.5424  140.0742  156.8532 H   0  0  0  0  0  0  0  0  0  0  0  0  # atno 8008 bound_to 7997
  155.3155  140.3393  155.4224 H   0  0  0  0  0  0  0  0  0  0  0  0  # atno 8009 bound_to 7997
  156.1887  140.1678  156.8122 H   0  0  0  0  0  0  0  0  0  0  0  0  # atno 8010 bound_to 7997
  140.2056  143.3785  152.1093 H   0  0  0  0  0  0  0  0  0  0  0  0  # atno 10167 bound_to 10162
  156.3038  130.4243  149.8117 H   0  0  0  0  0  0  0  0  0  0  0  0  # atno 10718 bound_to 10713
  153.0964  135.4834  154.8786 H   0  0  0  0  0  0  0  0  0  0  0  0  # atno 10763 bound_to 10752
  154.7329  135.3064  154.8863 H   0  0  0  0  0  0  0  0  0  0  0  0  # atno 10764 bound_to 10752
  153.9493  135.6825  153.4797 H   0  0  0  0  0  0  0  0  0  0  0  0  # atno 10765 bound_to 10752
  140.2865  134.2913  155.7787 H   0  0  0  0  0  0  0  0  0  0  0  0  # atno 11005 bound_to 11000
  145.8715  140.9417  143.0648 LP  0  0  0  0  0  0  0  0  0  0  0  0  # atno 17320 bound_to 7965
  144.6740  140.0660  143.7474 LP  0  0  0  0  0  0  0  0  0  0  0  0  # atno 17321 bound_to 7965
  139.5200  144.7027  151.5447 LP  0  0  0  0  0  0  0  0  0  0  0  0  # atno 17342 bound_to 10162
  140.6360  143.8984  150.6647 LP  0  0  0  0  0  0  0  0  0  0  0  0  # atno 17343 bound_to 10162
  156.5486  130.8331  151.3292 LP  0  0  0  0  0  0  0  0  0  0  0  0  # atno 17370 bound_to 10713
  157.7374  130.9796  150.2194 LP  0  0  0  0  0  0  0  0  0  0  0  0  # atno 17371 bound_to 10713
  141.2154  133.7558  156.9560 LP  0  0  0  0  0  0  0  0  0  0  0  0  # atno 17394 bound_to 11000
  140.1235  134.9402  157.2236 LP  0  0  0  0  0  0  0  0  0  0  0  0  # atno 17395 bound_to 11000

$$$$
