AV-unprocessed.smi:13|AV-procd|sdf|73|dock10
  -GOLD-   2262015193D 1   1.00000     0.00000
 Structure written by MMmdl.
 54 58  0  0  0  0  0  0  0  0  1 V2000
  154.0040  139.5874  161.8147 C   0  0  0  0  0  0  0  0  0  0  0  0
  154.4785  139.8405  160.3770 C   0  0  0  0  0  0  0  0  0  0  0  0
  155.9936  140.0310  160.4440 C   0  0  0  0  0  0  0  0  0  0  0  0
  153.9810  138.8182  159.3433 C   0  0  0  0  0  0  0  0  0  0  0  0
  152.9312  139.7657  159.0132 N   0  0  0  0  0  0  0  0  0  0  0  0
  152.5689  139.7778  157.6341 C   0  0  0  0  0  0  0  0  0  0  0  0
  153.1571  138.9215  156.7565 N   0  0  0  0  0  0  0  0  0  0  0  0
  152.8403  138.9330  155.4592 C   0  0  0  0  0  0  0  0  0  0  0  0
  151.9680  139.7141  154.8225 N   0  0  0  0  0  0  0  0  0  0  0  0
  151.3715  140.5841  155.6856 C   0  0  0  0  0  0  0  0  0  0  0  0
  151.6155  140.6831  157.0854 C   0  0  0  0  0  0  0  0  0  0  0  0
  150.8322  141.6949  157.6279 N   0  0  0  0  0  0  0  0  0  0  0  0
  150.1612  142.1616  156.6110 C   0  0  0  0  0  0  0  0  0  0  0  0
  150.4165  141.5465  155.4064 N   0  0  0  0  0  0  0  0  0  0  0  0
  149.8165  141.8674  154.1199 C   0  0  0  0  0  0  0  0  0  0  0  0
  148.2697  141.8054  154.1201 C   0  0  1  0  0  0  0  0  0  0  0  0
  147.7630  143.0517  154.5624 O   0  0  0  0  0  0  0  0  0  0  0  0
  147.6991  141.4995  152.7334 C   0  0  0  0  0  0  0  0  0  0  0  0
  147.1857  140.0706  152.8653 C   0  0  0  0  0  0  0  0  0  0  0  0
  146.7146  140.0347  154.2004 O   0  0  0  0  0  0  0  0  0  0  0  0
  147.6916  140.6809  155.0036 C   0  0  0  0  0  0  0  0  0  0  0  0
  153.7085  140.8854  159.5340 C   0  0  1  0  0  0  0  0  0  0  0  0
  152.8331  141.9605  160.1893 C   0  0  1  0  0  0  0  0  0  0  0  0
  153.5376  142.7401  161.3031 C   0  0  0  0  0  0  0  0  0  0  0  0
  152.8954  144.1200  161.2612 C   0  0  0  0  0  0  0  0  0  0  0  0
  152.0167  144.0858  160.0109 C   0  0  0  0  0  0  0  0  0  0  0  0
  152.5140  142.9879  159.2641 O   0  0  0  0  0  0  0  0  0  0  0  0
  154.4179  138.6595  162.2100 H   0  0  0  0  0  0  0  0  0  0  0  0
  152.9186  139.5010  161.8735 H   0  0  0  0  0  0  0  0  0  0  0  0
  154.3040  140.3883  162.4902 H   0  0  0  0  0  0  0  0  0  0  0  0
  156.4202  140.1905  159.4535 H   0  0  0  0  0  0  0  0  0  0  0  0
  156.4891  139.1584  160.8709 H   0  0  0  0  0  0  0  0  0  0  0  0
  156.2612  140.8956  161.0524 H   0  0  0  0  0  0  0  0  0  0  0  0
  154.6807  138.6540  158.5213 H   0  0  0  0  0  0  0  0  0  0  0  0
  153.6132  137.8833  159.7669 H   0  0  0  0  0  0  0  0  0  0  0  0
  153.3617  138.2138  154.8450 H   0  0  0  0  0  0  0  0  0  0  0  0
  149.4542  142.9722  156.7129 H   0  0  0  0  0  0  0  0  0  0  0  0
  150.1552  142.8620  153.8263 H   0  0  0  0  0  0  0  0  0  0  0  0
  150.2168  141.1785  153.3749 H   0  0  0  0  0  0  0  0  0  0  0  0
  148.4231  143.7115  154.4131 H   0  0  0  0  0  0  0  0  0  0  0  0
  146.8599  142.1572  152.4998 H   0  0  0  0  0  0  0  0  0  0  0  0
  148.4285  141.6054  151.9296 H   0  0  0  0  0  0  0  0  0  0  0  0
  146.3960  139.8374  152.1510 H   0  0  0  0  0  0  0  0  0  0  0  0
  147.9942  139.3486  152.7382 H   0  0  0  0  0  0  0  0  0  0  0  0
  148.4524  139.9397  155.2482 H   0  0  0  0  0  0  0  0  0  0  0  0
  147.2651  141.0365  155.9426 H   0  0  0  0  0  0  0  0  0  0  0  0
  154.3712  141.2936  158.7679 H   0  0  0  0  0  0  0  0  0  0  0  0
  151.9036  141.5357  160.5733 H   0  0  0  0  0  0  0  0  0  0  0  0
  153.4311  142.2637  162.2772 H   0  0  0  0  0  0  0  0  0  0  0  0
  154.6037  142.8277  161.0894 H   0  0  0  0  0  0  0  0  0  0  0  0
  152.3033  144.3268  162.1532 H   0  0  0  0  0  0  0  0  0  0  0  0
  153.6620  144.8913  161.1797 H   0  0  0  0  0  0  0  0  0  0  0  0
  150.9749  143.8975  160.2756 H   0  0  0  0  0  0  0  0  0  0  0  0
  152.0627  145.0119  159.4377 H   0  0  0  0  0  0  0  0  0  0  0  0
  1  2  1  0  0  0  0
  1 28  1  0  0  0  0
  1 29  1  0  0  0  0
  1 30  1  0  0  0  0
  2 22  1  0  0  0  0
  2  3  1  0  0  0  0
  2  4  1  0  0  0  0
  3 31  1  0  0  0  0
  3 32  1  0  0  0  0
  3 33  1  0  0  0  0
  4  5  1  0  0  0  0
  4 34  1  0  0  0  0
  4 35  1  0  0  0  0
  5  6  1  0  0  0  0
  5 22  1  0  0  0  0
  6 11  1  0  0  0  0
  6  7  2  0  0  0  0
  7  8  1  0  0  0  0
  8  9  2  0  0  0  0
  8 36  1  0  0  0  0
  9 10  1  0  0  0  0
 10 14  1  0  0  0  0
 10 11  2  0  0  0  0
 11 12  1  0  0  0  0
 12 13  2  0  0  0  0
 13 14  1  0  0  0  0
 13 37  1  0  0  0  0
 14 15  1  0  0  0  0
 15 16  1  0  0  0  0
 15 38  1  0  0  0  0
 15 39  1  0  0  0  0
 16 21  1  0  0  0  0
 16 17  1  0  0  0  0
 16 18  1  0  0  0  0
 17 40  1  0  0  0  0
 18 19  1  0  0  0  0
 18 41  1  0  0  0  0
 18 42  1  0  0  0  0
 19 20  1  0  0  0  0
 19 43  1  0  0  0  0
 19 44  1  0  0  0  0
 20 21  1  0  0  0  0
 21 45  1  0  0  0  0
 21 46  1  0  0  0  0
 22 23  1  0  0  0  0
 22 47  1  0  0  0  0
 23 27  1  0  0  0  0
 23 24  1  0  0  0  0
 23 48  1  0  0  0  0
 24 25  1  0  0  0  0
 24 49  1  0  0  0  0
 24 50  1  0  0  0  0
 25 26  1  0  0  0  0
 25 51  1  0  0  0  0
 25 52  1  0  0  0  0
 26 27  1  0  0  0  0
 26 53  1  0  0  0  0
 26 54  1  0  0  0  0
M  END
> <s_m_source_file>
AV-unprocessed.smi

> <i_m_source_file_index>
13

> <i_lp_mmshare_version>
43012

> <i_f3d_flags>
0

> <s_epik_input>
TzFbQ0gyXVtDSDJdW0NIMl1bQ0BIXTFbQ0BASF0yTihbQ0gyXUMyKFtDSDNdKVtDSDNdKWMobltjSF1uMyljKGMzNCluW2NIXW40W0NIMl1bQ0BAXTUoW09IXSlbQ0gyXVtDSDJdT1tDSDJdNQ==

> <s_epik_cmdline>
J2VwaWtfcHl0aG9uJywgJy1waCcsICc3LjAnLCAnLXRuJywgJzgnLCAnLW1hJywgJzIwMCcsICctbWV0YWxfYmluZGluZycsICctaW1hZScsICc8aW5maWxlLm1hZT4nLCAnLW9tYWUnLCAnPG91dGZpbGUubWFlPic=

> <r_lp_tautomer_probability>
1

> <r_epik_Ionization_Penalty>
0.00202764

> <r_epik_Ionization_Penalty_Charging>
0

> <r_epik_Ionization_Penalty_Neutral>
0.00202764

> <r_epik_State_Penalty>
0.00134017

> <r_epik_Charging_Adjusted_Penalty>
0.00134017

> <i_epik_Tot_Q>
0

> <i_epik_Tot_abs_Q>
0

> <r_epik_Metal_State_Penalty>
-0

> <b_epik_Metal_Only>
0

> <s_lp_Force_Field>
OPLS_2005

> <r_lp_Energy>
61.4884

> <b_lp_Chiralities_Consistent>
1

> <s_lp_Variant>
AV-unprocessed.smi:13-5

> <Gold.Version>
5.8.1

> <Gold.Id.Protein>
6NUR|6NUR_protein|mol2

> <Gold.PLP.Fitness>
56.2077

> <Gold.PLP.PLP>
-48.2273

> <Gold.PLP.part.hbond>
-3.0000

> <Gold.PLP.part.metal>
0.0000

> <Gold.PLP.part.buried>
-2.7663

> <Gold.PLP.part.nonpolar>
-40.0567

> <Gold.PLP.part.repulsive>
0.1748

> <Gold.PLP.ligand.clash>
0.0000

> <Gold.PLP.ligand.torsion>
1.0388

> <Gold.PLP.Chemscore.Hbond>
2.6400

> <Gold.PLP.Chemscore.CHOScore>
0.5770

> <Gold.PLP.Chemscore.Metal>
0.0000

> <Gold.Chemscore.Hbonds>
donor molecule, donor type, donor heavy atom, donor atom, acceptor molecule, acceptor atom, score
      L1  H    17    40       P1  8028  0.42
      P1  H  7989  7998       L1     9  0.42
      P1  H  7997  8010       L1     7  0.22
      L1  C    13    37       P1  8028  1.00

> <Gold.PLP.Chemscore.Internal.Correction>
0.4071

> <Gold.Rescore>
     Score         DG    S(hbond)    S(metal)    S(lipo)     H(rot)  DE(clash)    DE(int)     intcor
     13.16     -15.76       0.87        0.00     113.26       2.30       0.04       2.57       ----

> <Gold.Chemscore.Fitness>
13.1599

> <Gold.Chemscore.DG>
-15.7634

> <Gold.Chemscore.ZeroCoef>
-5.4800

> <Gold.Chemscore.Hbond>
0.8739

> <Gold.Chemscore.Metal>
0.0000

> <Gold.Chemscore.Lipo>
113.2596

> <Gold.Chemscore.Internal_Hbond>
0.0000

> <Gold.Chemscore.DEClash>
0.0370

> <Gold.Chemscore.DEInternal>
2.5664

> <Gold.Chemscore.Rot>
2.2996

> <Gold.Chemscore.Internal.Correction>
   9.000000E+99

> <Gold.Chemscore.Hbonds>
donor molecule, donor type, donor heavy atom, donor atom, acceptor molecule, acceptor atom, score
      L1  H    17    40       P1  8028  0.41
      P1  H  7989  7998       L1     9  0.01

> <Gold.Chemscore.Hbond.Weighted>
-2.9189

> <Gold.Chemscore.Metal.Weighted>
-0.0000

> <Gold.Chemscore.Lipo.Weighted>
-13.2514

> <Gold.Chemscore.Internal_Hbond.Weighted>
0.0000

> <Gold.Chemscore.DEClash.Weighted>
0.0370

> <Gold.Chemscore.DEInternal.Weighted>
2.5664

> <Gold.Chemscore.Rot.Weighted>
5.8869

> <Gold.Chemscore.Internal.Correction.Weighted>
   9.000000E+99

> <Gold.Protein.RotatedTorsions>
[ 6907 6896 6895 6894 ] final   74.55 input  -60.11 | X-H torsion
[ 7974 7965 7964 7962 ] final  -93.07 input  175.53 | X-H torsion
[ 8008 7997 7996 7995 ] final   69.55 input   59.86 | X-H torsion
[ 10167 10162 10161 10158 ] final  -91.14 input  -65.29 | X-H torsion
[ 10718 10713 10712 10709 ] final  116.58 input   66.30 | X-H torsion
[ 10763 10752 10751 10750 ] final  -67.28 input  -60.55 | X-H torsion
[ 11005 11000 10999 10996 ] final   57.94 input  -57.11 | X-H torsion

> <Gold.Protein.ActiveResidues>
 VAL166  LYS551  ARG553  GLY616  TRP617  ASP618  TYR619  PRO620  LYS621  CYS622 
 ASP623  PHE694  ASN695  SER759  ASP760  ASP761  ALA762  ILE779  LEU786  VAL792 
 PHE793  MET794  SER795  GLU796  ALA797  LYS798  CYS799  TRP800  GLU811  SER814 

> <Gold.Protein.RotatedAtoms>
  152.4981  134.4255  159.9494 H   0  0  0  0  0  0  0  0  0  0  0  0  # atno 6907 bound_to 6896
  151.4230  133.3686  159.2766 H   0  0  0  0  0  0  0  0  0  0  0  0  # atno 6908 bound_to 6896
  150.9209  134.8649  159.7548 H   0  0  0  0  0  0  0  0  0  0  0  0  # atno 6909 bound_to 6896
  145.3914  140.9528  143.2338 H   0  0  0  0  0  0  0  0  0  0  0  0  # atno 7974 bound_to 7965
  155.7253  140.3492  155.5034 H   0  0  0  0  0  0  0  0  0  0  0  0  # atno 8008 bound_to 7997
  155.9232  140.1071  157.1212 H   0  0  0  0  0  0  0  0  0  0  0  0  # atno 8009 bound_to 7997
  154.4073  140.1245  156.4694 H   0  0  0  0  0  0  0  0  0  0  0  0  # atno 8010 bound_to 7997
  140.3479  143.2907  151.9760 H   0  0  0  0  0  0  0  0  0  0  0  0  # atno 10167 bound_to 10162
  157.6151  131.1027  150.7492 H   0  0  0  0  0  0  0  0  0  0  0  0  # atno 10718 bound_to 10713
  154.3721  135.6093  153.5746 H   0  0  0  0  0  0  0  0  0  0  0  0  # atno 10763 bound_to 10752
  152.9790  135.5840  154.4509 H   0  0  0  0  0  0  0  0  0  0  0  0  # atno 10764 bound_to 10752
  154.4265  135.2847  155.1919 H   0  0  0  0  0  0  0  0  0  0  0  0  # atno 10765 bound_to 10752
  140.0414  134.5867  155.9377 H   0  0  0  0  0  0  0  0  0  0  0  0  # atno 11005 bound_to 11000
  144.8437  139.5430  143.6888 LP  0  0  0  0  0  0  0  0  0  0  0  0  # atno 17320 bound_to 7965
  146.2796  139.6841  142.9239 LP  0  0  0  0  0  0  0  0  0  0  0  0  # atno 17321 bound_to 7965
  139.4830  144.6101  151.7449 LP  0  0  0  0  0  0  0  0  0  0  0  0  # atno 17342 bound_to 10162
  140.5247  144.0824  150.6034 LP  0  0  0  0  0  0  0  0  0  0  0  0  # atno 17343 bound_to 10162
  156.7861  130.4875  149.5392 LP  0  0  0  0  0  0  0  0  0  0  0  0  # atno 17370 bound_to 10713
  156.1270  130.6151  151.0278 LP  0  0  0  0  0  0  0  0  0  0  0  0  # atno 17371 bound_to 10713
  141.1885  133.6562  156.5327 LP  0  0  0  0  0  0  0  0  0  0  0  0  # atno 17394 bound_to 11000
  140.4063  134.7312  157.4809 LP  0  0  0  0  0  0  0  0  0  0  0  0  # atno 17395 bound_to 11000

$$$$
