AV-unprocessed.smi:2510|AV-procd|sdf|9882|dock6
  -GOLD-   2272013513D 1   1.00000     0.00000
 Structure written by MMmdl.
 48 49  0  0  0  0  0  0  0  0  1 V2000
  147.9776  141.2568  157.3598 C   0  0  0  0  0  0  0  0  0  0  0  0
  149.0085  140.1192  157.4722 C   0  0  0  0  0  0  0  0  0  0  0  0
  150.2190  140.1557  156.4964 C   0  0  0  0  0  0  0  0  0  0  0  0
  150.9618  141.4864  156.7711 C   0  0  0  0  0  0  0  0  0  0  0  0
  151.4720  141.6602  158.2128 C   0  0  0  0  0  0  0  0  0  0  0  0
  151.1646  138.9184  156.4365 C   0  0  1  0  0  0  0  0  0  0  0  0
  150.5161  137.6569  156.7878 N   0  0  0  0  0  0  0  0  0  0  0  0
  151.0422  136.4344  156.6159 C   0  0  0  0  0  0  0  0  0  0  0  0
  152.1688  136.2436  156.1594 O   0  0  0  0  0  0  0  0  0  0  0  0
  150.1799  135.2408  157.0423 C   0  0  0  0  0  0  0  0  0  0  0  0
  149.7848  134.3831  155.8791 C   0  0  0  0  0  0  0  0  0  0  0  0
  149.0766  134.6667  154.7446 C   0  0  0  0  0  0  0  0  0  0  0  0
  149.0116  133.4241  154.0488 C   0  0  0  0  0  0  0  0  0  0  0  0
  148.3448  133.1307  152.7374 C   0  0  0  0  0  0  0  0  0  0  0  0
  149.6340  132.4496  154.6952 N   0  0  0  0  0  0  0  0  0  0  0  0
  150.1034  133.0455  155.8067 N   0  0  0  0  0  0  0  0  0  0  0  0
  151.2768  139.0898  154.9104 C   0  0  1  0  0  0  0  0  0  0  0  0
  151.3963  137.8664  154.0023 C   0  0  0  0  0  0  0  0  0  0  0  0
  149.9496  139.8588  154.9931 C   0  0  2  0  0  0  0  0  0  0  0  0
  149.8834  141.0386  154.2052 O   0  0  0  0  0  0  0  0  0  0  0  0
  148.6835  141.7688  154.3906 C   0  0  0  0  0  0  0  0  0  0  0  0
  150.6307  132.5331  156.4997 H   0  0  0  0  0  0  0  0  0  0  0  0
  147.1591  141.0955  158.0615 H   0  0  0  0  0  0  0  0  0  0  0  0
  147.5389  141.3278  156.3656 H   0  0  0  0  0  0  0  0  0  0  0  0
  148.4232  142.2211  157.6051 H   0  0  0  0  0  0  0  0  0  0  0  0
  149.3541  140.1255  158.5066 H   0  0  0  0  0  0  0  0  0  0  0  0
  148.4816  139.1712  157.3588 H   0  0  0  0  0  0  0  0  0  0  0  0
  151.8204  141.5847  156.1065 H   0  0  0  0  0  0  0  0  0  0  0  0
  150.3211  142.3331  156.5215 H   0  0  0  0  0  0  0  0  0  0  0  0
  152.0170  142.5990  158.3130 H   0  0  0  0  0  0  0  0  0  0  0  0
  152.1501  140.8584  158.5029 H   0  0  0  0  0  0  0  0  0  0  0  0
  150.6552  141.6837  158.9338 H   0  0  0  0  0  0  0  0  0  0  0  0
  152.1271  139.0645  156.9283 H   0  0  0  0  0  0  0  0  0  0  0  0
  149.5851  137.7186  157.1743 H   0  0  0  0  0  0  0  0  0  0  0  0
  150.7292  134.6417  157.7696 H   0  0  0  0  0  0  0  0  0  0  0  0
  149.2936  135.6181  157.5540 H   0  0  0  0  0  0  0  0  0  0  0  0
  148.6573  135.6200  154.4584 H   0  0  0  0  0  0  0  0  0  0  0  0
  147.8045  134.0019  152.3665 H   0  0  0  0  0  0  0  0  0  0  0  0
  147.6291  132.3138  152.8339 H   0  0  0  0  0  0  0  0  0  0  0  0
  149.0763  132.8470  151.9804 H   0  0  0  0  0  0  0  0  0  0  0  0
  152.0888  139.7883  154.7022 H   0  0  0  0  0  0  0  0  0  0  0  0
  150.5089  137.2347  154.0537 H   0  0  0  0  0  0  0  0  0  0  0  0
  152.2532  137.2526  154.2807 H   0  0  0  0  0  0  0  0  0  0  0  0
  151.5284  138.1573  152.9605 H   0  0  0  0  0  0  0  0  0  0  0  0
  149.1027  139.1943  154.8182 H   0  0  0  0  0  0  0  0  0  0  0  0
  148.7162  142.6798  153.7932 H   0  0  0  0  0  0  0  0  0  0  0  0
  148.5522  142.0564  155.4344 H   0  0  0  0  0  0  0  0  0  0  0  0
  147.8143  141.1936  154.0721 H   0  0  0  0  0  0  0  0  0  0  0  0
  1  2  1  0  0  0  0
  1 23  1  0  0  0  0
  1 24  1  0  0  0  0
  1 25  1  0  0  0  0
  2  3  1  0  0  0  0
  2 26  1  0  0  0  0
  2 27  1  0  0  0  0
  3 19  1  0  0  0  0
  3  4  1  0  0  0  0
  3  6  1  0  0  0  0
  4  5  1  0  0  0  0
  4 28  1  0  0  0  0
  4 29  1  0  0  0  0
  5 30  1  0  0  0  0
  5 31  1  0  0  0  0
  5 32  1  0  0  0  0
  6  7  1  0  0  0  0
  6 17  1  0  0  0  0
  6 33  1  0  0  0  0
  7  8  1  0  0  0  0
  7 34  1  0  0  0  0
  8  9  2  0  0  0  0
  8 10  1  0  0  0  0
 10 35  1  0  0  0  0
 10 36  1  0  0  0  0
 10 11  1  0  0  0  0
 11 16  1  0  0  0  0
 11 12  2  0  0  0  0
 12 13  1  0  0  0  0
 12 37  1  0  0  0  0
 13 14  1  0  0  0  0
 13 15  2  0  0  0  0
 14 38  1  0  0  0  0
 14 39  1  0  0  0  0
 14 40  1  0  0  0  0
 15 16  1  0  0  0  0
 16 22  1  0  0  0  0
 17 18  1  0  0  0  0
 17 19  1  0  0  0  0
 17 41  1  0  0  0  0
 18 42  1  0  0  0  0
 18 43  1  0  0  0  0
 18 44  1  0  0  0  0
 19 20  1  0  0  0  0
 19 45  1  0  0  0  0
 20 21  1  0  0  0  0
 21 46  1  0  0  0  0
 21 47  1  0  0  0  0
 21 48  1  0  0  0  0
M  END
> <s_m_source_file>
AV-unprocessed.smi

> <i_m_source_file_index>
2510

> <i_lp_mmshare_version>
43012

> <i_f3d_flags>
0

> <s_epik_input>
W0NIM11PW0NAQEhdMVtDQEhdKFtDSDNdKVtDQEBIXShDMShbQ0gyXVtDSDNdKVtDSDJdW0NIM10pW05IXUMoPU8pW0NIMl1jMltjSF1jKFtDSDNdKVtuSF1uMg==

> <s_epik_cmdline>
J2VwaWtfcHl0aG9uJywgJy1waCcsICc3LjAnLCAnLXRuJywgJzgnLCAnLW1hJywgJzIwMCcsICctbWV0YWxfYmluZGluZycsICctaW1hZScsICc8aW5maWxlLm1hZT4nLCAnLW9tYWUnLCAnPG91dGZpbGUubWFlPic=

> <r_lp_tautomer_probability>
0.5

> <r_epik_Ionization_Penalty>
0.000134763

> <r_epik_Ionization_Penalty_Charging>
0

> <r_epik_Ionization_Penalty_Neutral>
0.000134763

> <r_epik_State_Penalty>
0.41068

> <r_epik_Charging_Adjusted_Penalty>
0.41068

> <i_epik_Tot_Q>
0

> <i_epik_Tot_abs_Q>
0

> <r_epik_Metal_State_Penalty>
0.410661

> <b_epik_Metal_Only>
0

> <s_lp_Force_Field>
OPLS_2005

> <r_lp_Energy>
26.4004

> <b_lp_Chiralities_Consistent>
1

> <s_lp_Variant>
AV-unprocessed.smi:2510-13

> <Gold.Version>
5.8.1

> <Gold.Id.Protein>
6NUR|6NUR_protein|mol2

> <Gold.PLP.Fitness>
36.6786

> <Gold.PLP.PLP>
-32.1470

> <Gold.PLP.part.hbond>
-2.3755

> <Gold.PLP.part.metal>
0.0000

> <Gold.PLP.part.buried>
-2.4813

> <Gold.PLP.part.nonpolar>
-27.8807

> <Gold.PLP.part.repulsive>
0.2554

> <Gold.PLP.ligand.clash>
0.0000

> <Gold.PLP.ligand.torsion>
0.3095

> <Gold.PLP.Chemscore.Hbond>
1.5320

> <Gold.PLP.Chemscore.CHOScore>
0.0000

> <Gold.PLP.Chemscore.Metal>
0.0000

> <Gold.Chemscore.Hbonds>
donor molecule, donor type, donor heavy atom, donor atom, acceptor molecule, acceptor atom, score
      P1  H  7989  7998       L1    20  0.42
      P1  H 10752 10763       L1     9  1.00

> <Gold.PLP.Chemscore.Internal.Correction>
0.5546

> <Gold.Rescore>
     Score         DG    S(hbond)    S(metal)    S(lipo)     H(rot)  DE(clash)    DE(int)     intcor
     14.67     -16.53       1.80        0.00      82.79       1.81       1.44       0.42       ----

> <Gold.Chemscore.Fitness>
14.6728

> <Gold.Chemscore.DG>
-16.5330

> <Gold.Chemscore.ZeroCoef>
-5.4800

> <Gold.Chemscore.Hbond>
1.7967

> <Gold.Chemscore.Metal>
0.0000

> <Gold.Chemscore.Lipo>
82.7872

> <Gold.Chemscore.Internal_Hbond>
0.0000

> <Gold.Chemscore.DEClash>
1.4412

> <Gold.Chemscore.DEInternal>
0.4191

> <Gold.Chemscore.Rot>
1.8102

> <Gold.Chemscore.Internal.Correction>
   9.000000E+99

> <Gold.Chemscore.Hbonds>
donor molecule, donor type, donor heavy atom, donor atom, acceptor molecule, acceptor atom, score
      P1  H  7989  7998       L1    20  0.07
      P1  H 10752 10763       L1     9  1.00

> <Gold.Chemscore.Hbond.Weighted>
-6.0010

> <Gold.Chemscore.Metal.Weighted>
-0.0000

> <Gold.Chemscore.Lipo.Weighted>
-9.6861

> <Gold.Chemscore.Internal_Hbond.Weighted>
0.0000

> <Gold.Chemscore.DEClash.Weighted>
1.4412

> <Gold.Chemscore.DEInternal.Weighted>
0.4191

> <Gold.Chemscore.Rot.Weighted>
4.6341

> <Gold.Chemscore.Internal.Correction.Weighted>
   9.000000E+99

> <Gold.Protein.RotatedTorsions>
[ 6907 6896 6895 6894 ] final  125.54 input  -60.11 | X-H torsion
[ 7974 7965 7964 7962 ] final  -16.85 input  175.53 | X-H torsion
[ 8008 7997 7996 7995 ] final   89.46 input   59.86 | X-H torsion
[ 10167 10162 10161 10158 ] final  -96.95 input  -65.29 | X-H torsion
[ 10718 10713 10712 10709 ] final -162.96 input   66.30 | X-H torsion
[ 10763 10752 10751 10750 ] final   88.20 input  -60.55 | X-H torsion
[ 11005 11000 10999 10996 ] final  -29.00 input  -57.11 | X-H torsion

> <Gold.Protein.ActiveResidues>
 VAL166  LYS551  ARG553  GLY616  TRP617  ASP618  TYR619  PRO620  LYS621  CYS622 
 ASP623  PHE694  ASN695  SER759  ASP760  ASP761  ALA762  ILE779  LEU786  VAL792 
 PHE793  MET794  SER795  GLU796  ALA797  LYS798  CYS799  TRP800  GLU811  SER814 

> <Gold.Protein.RotatedAtoms>
  152.3983  133.6780  159.6294 H   0  0  0  0  0  0  0  0  0  0  0  0  # atno 6907 bound_to 6896
  150.7878  133.8835  159.3301 H   0  0  0  0  0  0  0  0  0  0  0  0  # atno 6908 bound_to 6896
  151.6606  135.0991  160.0230 H   0  0  0  0  0  0  0  0  0  0  0  0  # atno 6909 bound_to 6896
  146.1969  140.3695  142.8437 H   0  0  0  0  0  0  0  0  0  0  0  0  # atno 7974 bound_to 7965
  156.0003  140.3360  155.6838 H   0  0  0  0  0  0  0  0  0  0  0  0  # atno 8008 bound_to 7997
  155.6300  140.0684  157.2670 H   0  0  0  0  0  0  0  0  0  0  0  0  # atno 8009 bound_to 7997
  154.4247  140.1761  156.1450 H   0  0  0  0  0  0  0  0  0  0  0  0  # atno 8010 bound_to 7997
  140.2884  143.3237  152.0370 H   0  0  0  0  0  0  0  0  0  0  0  0  # atno 10167 bound_to 10162
  156.6178  130.8878  151.2951 H   0  0  0  0  0  0  0  0  0  0  0  0  # atno 10718 bound_to 10713
  153.1745  135.4515  154.9946 H   0  0  0  0  0  0  0  0  0  0  0  0  # atno 10763 bound_to 10752
  154.7988  135.3248  154.7603 H   0  0  0  0  0  0  0  0  0  0  0  0  # atno 10764 bound_to 10752
  153.8075  135.6957  153.4901 H   0  0  0  0  0  0  0  0  0  0  0  0  # atno 10765 bound_to 10752
  140.9258  133.7370  156.0865 H   0  0  0  0  0  0  0  0  0  0  0  0  # atno 11005 bound_to 11000
  144.8599  140.7124  143.6114 LP  0  0  0  0  0  0  0  0  0  0  0  0  # atno 17320 bound_to 7965
  145.3615  139.1680  143.4381 LP  0  0  0  0  0  0  0  0  0  0  0  0  # atno 17321 bound_to 7965
  139.4944  144.6542  151.6609 LP  0  0  0  0  0  0  0  0  0  0  0  0  # atno 17342 bound_to 10162
  140.5753  144.0040  150.6238 LP  0  0  0  0  0  0  0  0  0  0  0  0  # atno 17343 bound_to 10162
  157.7236  130.9592  150.1540 LP  0  0  0  0  0  0  0  0  0  0  0  0  # atno 17370 bound_to 10713
  156.2336  130.3684  149.8416 LP  0  0  0  0  0  0  0  0  0  0  0  0  # atno 17371 bound_to 10713
  140.7928  134.3598  157.5460 LP  0  0  0  0  0  0  0  0  0  0  0  0  # atno 17394 bound_to 11000
  139.8785  134.9150  156.3122 LP  0  0  0  0  0  0  0  0  0  0  0  0  # atno 17395 bound_to 11000

$$$$
