AV-unprocessed.smi:283|AV-procd|sdf|2156|dock9
  -GOLD-   2262021503D 1   1.00000     0.00000
 Structure written by MMmdl.
 48 51  0  0  0  0  0  0  0  0  1 V2000
  154.5913  140.4652  159.8350 C   0  0  0  0  0  0  0  0  0  0  0  0
  153.3396  141.1270  159.2307 C   0  0  1  0  0  0  0  0  0  0  0  0
  152.2625  140.1550  159.0463 N   0  0  0  0  0  0  0  0  0  0  0  0
  152.4126  139.0643  158.2625 C   0  0  0  0  0  0  0  0  0  0  0  0
  153.5699  138.8275  157.5914 N   0  0  0  0  0  0  0  0  0  0  0  0
  153.6870  137.7410  156.8225 C   0  0  0  0  0  0  0  0  0  0  0  0
  152.7844  136.7870  156.5834 N   0  0  0  0  0  0  0  0  0  0  0  0
  151.6159  137.0260  157.2464 C   0  0  0  0  0  0  0  0  0  0  0  0
  151.3566  138.1301  158.1047 C   0  0  0  0  0  0  0  0  0  0  0  0
  150.0710  138.0329  158.6194 N   0  0  0  0  0  0  0  0  0  0  0  0
  149.6050  136.9303  158.0975 C   0  0  0  0  0  0  0  0  0  0  0  0
  150.4574  136.2771  157.2307 N   0  0  0  0  0  0  0  0  0  0  0  0
  150.2458  134.9924  156.4855 C   0  0  1  0  0  0  0  0  0  0  0  0
  149.8029  134.0304  157.3996 O   0  0  0  0  0  0  0  0  0  0  0  0
  148.4051  133.7857  157.2555 C   0  0  1  0  0  0  0  0  0  0  0  0
  147.5961  134.7162  158.1804 C   0  0  0  0  0  0  0  0  0  0  0  0
  147.9957  134.5442  159.5234 O   0  0  0  0  0  0  0  0  0  0  0  0
  148.1594  134.0292  155.7645 C   0  0  2  0  0  0  0  0  0  0  0  0
  148.4141  132.8230  155.0640 O   0  0  0  0  0  0  0  0  0  0  0  0
  149.1431  135.1458  155.4184 C   0  0  2  0  0  0  0  0  0  0  0  0
  149.6263  135.0340  154.0929 O   0  0  0  0  0  0  0  0  0  0  0  0
  152.9134  142.3164  160.0894 C   0  0  0  0  0  0  0  0  0  0  0  0
  153.0596  142.2598  161.4957 C   0  0  0  0  0  0  0  0  0  0  0  0
  152.6792  143.3489  162.3022 C   0  0  0  0  0  0  0  0  0  0  0  0
  152.1525  144.5109  161.7113 C   0  0  0  0  0  0  0  0  0  0  0  0
  152.0135  144.5839  160.3131 C   0  0  0  0  0  0  0  0  0  0  0  0
  152.3945  143.4975  159.5000 C   0  0  0  0  0  0  0  0  0  0  0  0
  152.2185  143.6548  157.7867 Cl  0  0  0  0  0  0  0  0  0  0  0  0
  151.2304  134.7379  156.0913 H   0  0  0  0  0  0  0  0  0  0  0  0
  148.1987  132.7514  157.5364 H   0  0  0  0  0  0  0  0  0  0  0  0
  147.1298  134.3216  155.5562 H   0  0  0  0  0  0  0  0  0  0  0  0
  148.6456  136.1091  155.5408 H   0  0  0  0  0  0  0  0  0  0  0  0
  155.4054  141.1845  159.9283 H   0  0  0  0  0  0  0  0  0  0  0  0
  154.9556  139.6440  159.2186 H   0  0  0  0  0  0  0  0  0  0  0  0
  154.3869  140.0662  160.8290 H   0  0  0  0  0  0  0  0  0  0  0  0
  153.5911  141.5091  158.2422 H   0  0  0  0  0  0  0  0  0  0  0  0
  151.4194  140.3365  159.5716 H   0  0  0  0  0  0  0  0  0  0  0  0
  154.6385  137.6201  156.3260 H   0  0  0  0  0  0  0  0  0  0  0  0
  148.6148  136.5689  158.3334 H   0  0  0  0  0  0  0  0  0  0  0  0
  147.7716  135.7570  157.9084 H   0  0  0  0  0  0  0  0  0  0  0  0
  146.5241  134.5352  158.0976 H   0  0  0  0  0  0  0  0  0  0  0  0
  148.8513  134.1428  159.5337 H   0  0  0  0  0  0  0  0  0  0  0  0
  147.6145  132.3199  155.0368 H   0  0  0  0  0  0  0  0  0  0  0  0
  149.2742  135.7509  153.5875 H   0  0  0  0  0  0  0  0  0  0  0  0
  153.4705  141.3800  161.9687 H   0  0  0  0  0  0  0  0  0  0  0  0
  152.7941  143.2930  163.3748 H   0  0  0  0  0  0  0  0  0  0  0  0
  151.8596  145.3473  162.3285 H   0  0  0  0  0  0  0  0  0  0  0  0
  151.6146  145.4806  159.8619 H   0  0  0  0  0  0  0  0  0  0  0  0
  1  2  1  0  0  0  0
  1 33  1  0  0  0  0
  1 34  1  0  0  0  0
  1 35  1  0  0  0  0
  2  3  1  0  0  0  0
  2 22  1  0  0  0  0
  2 36  1  0  0  0  0
  3  4  1  0  0  0  0
  3 37  1  0  0  0  0
  4  9  1  0  0  0  0
  4  5  2  0  0  0  0
  5  6  1  0  0  0  0
  6  7  2  0  0  0  0
  6 38  1  0  0  0  0
  7  8  1  0  0  0  0
  8 12  1  0  0  0  0
  8  9  2  0  0  0  0
  9 10  1  0  0  0  0
 10 11  2  0  0  0  0
 11 12  1  0  0  0  0
 11 39  1  0  0  0  0
 12 13  1  0  0  0  0
 13 29  1  0  0  0  0
 13 20  1  0  0  0  0
 13 14  1  0  0  0  0
 14 15  1  0  0  0  0
 15 30  1  0  0  0  0
 15 16  1  0  0  0  0
 15 18  1  0  0  0  0
 16 17  1  0  0  0  0
 16 40  1  0  0  0  0
 16 41  1  0  0  0  0
 17 42  1  0  0  0  0
 18 31  1  0  0  0  0
 18 19  1  0  0  0  0
 18 20  1  0  0  0  0
 19 43  1  0  0  0  0
 20 32  1  0  0  0  0
 20 21  1  0  0  0  0
 21 44  1  0  0  0  0
 22 27  1  0  0  0  0
 22 23  2  0  0  0  0
 23 24  1  0  0  0  0
 23 45  1  0  0  0  0
 24 25  2  0  0  0  0
 24 46  1  0  0  0  0
 25 26  1  0  0  0  0
 25 47  1  0  0  0  0
 26 27  2  0  0  0  0
 26 48  1  0  0  0  0
 27 28  1  0  0  0  0
M  END
> <s_m_source_file>
AV-unprocessed.smi

> <i_m_source_file_index>
283

> <i_lp_mmshare_version>
43012

> <i_f3d_flags>
0

> <s_epik_input>
Q2xjMVtjSF1bY0hdW2NIXVtjSF1jMVtDQEhdKFtDSDNdKVtOSF1jKG5bY0hdbjIpYyhjMjMpbltjSF1uM1tDQEBIXTRPW0NASF0oW0NIMl1bT0hdKVtDQEBIXShbT0hdKVtDQEhdNFtPSF0=

> <s_epik_cmdline>
J2VwaWtfcHl0aG9uJywgJy1waCcsICc3LjAnLCAnLXRuJywgJzgnLCAnLW1hJywgJzIwMCcsICctbWV0YWxfYmluZGluZycsICctaW1hZScsICc8aW5maWxlLm1hZT4nLCAnLW9tYWUnLCAnPG91dGZpbGUubWFlPic=

> <r_lp_tautomer_probability>
1

> <r_epik_Ionization_Penalty>
0.000266407

> <r_epik_Ionization_Penalty_Charging>
0

> <r_epik_Ionization_Penalty_Neutral>
0.000266407

> <r_epik_State_Penalty>
-0

> <r_epik_Charging_Adjusted_Penalty>
0

> <i_epik_Tot_Q>
0

> <i_epik_Tot_abs_Q>
0

> <r_epik_Metal_State_Penalty>
-0

> <b_epik_Metal_Only>
0

> <s_epik_Chemistry_Notes>
This compound contains an acetal/aminal-like group ( X-CH(R)-Y where X, Y are N, S, or O) that may be acid/base labile, releasing an aldehyde.

> <s_lp_Force_Field>
OPLS_2005

> <r_lp_Energy>
46.4468

> <b_lp_Chiralities_Consistent>
1

> <s_lp_Variant>
AV-unprocessed.smi:283-32

> <Gold.Version>
5.8.1

> <Gold.Id.Protein>
6NUR|6NUR_protein|mol2

> <Gold.PLP.Fitness>
52.9641

> <Gold.PLP.PLP>
-43.6247

> <Gold.PLP.part.hbond>
-4.3427

> <Gold.PLP.part.metal>
0.0000

> <Gold.PLP.part.buried>
-3.6524

> <Gold.PLP.part.nonpolar>
-34.6381

> <Gold.PLP.part.repulsive>
0.1304

> <Gold.PLP.ligand.clash>
0.3070

> <Gold.PLP.ligand.torsion>
0.8183

> <Gold.PLP.Chemscore.Hbond>
3.7213

> <Gold.PLP.Chemscore.CHOScore>
0.0000

> <Gold.PLP.Chemscore.Metal>
0.0000

> <Gold.Chemscore.Hbonds>
donor molecule, donor type, donor heavy atom, donor atom, acceptor molecule, acceptor atom, score
      L1  H    21    44       P1  7948  0.78
      P1  H  6896  6907       L1    14  0.81
      P1  H  7997  8008       L1     5  1.00
      P1  H 10752 10763       L1     7  0.96

> <Gold.PLP.Chemscore.Internal.Correction>
0.1191

> <Gold.Rescore>
     Score         DG    S(hbond)    S(metal)    S(lipo)     H(rot)  DE(clash)    DE(int)     intcor
     15.54     -18.74       3.11        0.00     114.26       4.10       1.19       2.02       ----

> <Gold.Chemscore.Fitness>
15.5394

> <Gold.Chemscore.DG>
-18.7432

> <Gold.Chemscore.ZeroCoef>
-5.4800

> <Gold.Chemscore.Hbond>
3.1088

> <Gold.Chemscore.Metal>
0.0000

> <Gold.Chemscore.Lipo>
114.2554

> <Gold.Chemscore.Internal_Hbond>
0.0000

> <Gold.Chemscore.DEClash>
1.1878

> <Gold.Chemscore.DEInternal>
2.0161

> <Gold.Chemscore.Rot>
4.0968

> <Gold.Chemscore.Internal.Correction>
   9.000000E+99

> <Gold.Chemscore.Hbonds>
donor molecule, donor type, donor heavy atom, donor atom, acceptor molecule, acceptor atom, score
      L1  H    21    44       P1  7948  0.47
      P1  H  6896  6907       L1    14  0.72
      P1  H  7997  8008       L1     5  0.60
      P1  H 10752 10763       L1     7  0.82

> <Gold.Chemscore.Hbond.Weighted>
-10.3833

> <Gold.Chemscore.Metal.Weighted>
-0.0000

> <Gold.Chemscore.Lipo.Weighted>
-13.3679

> <Gold.Chemscore.Internal_Hbond.Weighted>
0.0000

> <Gold.Chemscore.DEClash.Weighted>
1.1878

> <Gold.Chemscore.DEInternal.Weighted>
2.0161

> <Gold.Chemscore.Rot.Weighted>
10.4879

> <Gold.Chemscore.Internal.Correction.Weighted>
   9.000000E+99

> <Gold.Protein.RotatedTorsions>
[ 6907 6896 6895 6894 ] final -118.18 input  -60.11 | X-H torsion
[ 7974 7965 7964 7962 ] final   17.34 input  175.53 | X-H torsion
[ 8008 7997 7996 7995 ] final  -75.79 input   59.86 | X-H torsion
[ 10167 10162 10161 10158 ] final  109.16 input  -65.29 | X-H torsion
[ 10718 10713 10712 10709 ] final  159.79 input   66.30 | X-H torsion
[ 10763 10752 10751 10750 ] final   97.66 input  -60.55 | X-H torsion
[ 11005 11000 10999 10996 ] final   93.17 input  -57.11 | X-H torsion

> <Gold.Protein.ActiveResidues>
 VAL166  LYS551  ARG553  GLY616  TRP617  ASP618  TYR619  PRO620  LYS621  CYS622 
 ASP623  PHE694  ASN695  SER759  ASP760  ASP761  ALA762  ILE779  LEU786  VAL792 
 PHE793  MET794  SER795  GLU796  ALA797  LYS798  CYS799  TRP800  GLU811  SER814 

> <Gold.Protein.RotatedAtoms>
  150.8198  133.8272  159.3143 H   0  0  0  0  0  0  0  0  0  0  0  0  # atno 6907 bound_to 6896
  151.6034  135.1044  160.0074 H   0  0  0  0  0  0  0  0  0  0  0  0  # atno 6908 bound_to 6896
  152.4288  133.7200  159.6585 H   0  0  0  0  0  0  0  0  0  0  0  0  # atno 6909 bound_to 6896
  146.2221  139.8616  142.8603 H   0  0  0  0  0  0  0  0  0  0  0  0  # atno 7974 bound_to 7965
  154.5448  140.0738  156.8570 H   0  0  0  0  0  0  0  0  0  0  0  0  # atno 8008 bound_to 7997
  155.3110  140.3390  155.4226 H   0  0  0  0  0  0  0  0  0  0  0  0  # atno 8009 bound_to 7997
  156.1907  140.1685  156.8083 H   0  0  0  0  0  0  0  0  0  0  0  0  # atno 8010 bound_to 7997
  139.6789  144.7120  151.1552 H   0  0  0  0  0  0  0  0  0  0  0  0  # atno 10167 bound_to 10162
  157.1593  131.0583  151.2240 H   0  0  0  0  0  0  0  0  0  0  0  0  # atno 10718 bound_to 10713
  153.2796  135.4175  155.1065 H   0  0  0  0  0  0  0  0  0  0  0  0  # atno 10763 bound_to 10752
  154.8484  135.3492  154.6131 H   0  0  0  0  0  0  0  0  0  0  0  0  # atno 10764 bound_to 10752
  153.6552  135.7051  153.5253 H   0  0  0  0  0  0  0  0  0  0  0  0  # atno 10765 bound_to 10752
  139.8813  134.8775  156.3680 H   0  0  0  0  0  0  0  0  0  0  0  0  # atno 11005 bound_to 11000
  145.2698  141.0105  143.3778 LP  0  0  0  0  0  0  0  0  0  0  0  0  # atno 17320 bound_to 7965
  144.9232  139.4386  143.6531 LP  0  0  0  0  0  0  0  0  0  0  0  0  # atno 17321 bound_to 7965
  140.7645  143.5730  150.8976 LP  0  0  0  0  0  0  0  0  0  0  0  0  # atno 17342 bound_to 10162
  139.9400  143.6393  152.3056 LP  0  0  0  0  0  0  0  0  0  0  0  0  # atno 17343 bound_to 10162
  157.4148  130.7405  149.6867 LP  0  0  0  0  0  0  0  0  0  0  0  0  # atno 17370 bound_to 10713
  155.9756  130.4086  150.3834 LP  0  0  0  0  0  0  0  0  0  0  0  0  # atno 17371 bound_to 10713
  140.9484  133.7467  156.0239 LP  0  0  0  0  0  0  0  0  0  0  0  0  # atno 17394 bound_to 11000
  140.8135  134.3371  157.5404 LP  0  0  0  0  0  0  0  0  0  0  0  0  # atno 17395 bound_to 11000

$$$$
