AV-unprocessed.smi:1533|AV-procd|sdf|6165|dock7
  -GOLD-   22720 6313D 1   1.00000     0.00000
 Structure written by MMmdl.
 37 39  0  0  0  0  0  0  0  0  1 V2000
  147.1547  135.6021  160.8987 C   0  0  0  0  0  0  0  0  0  0  0  0
  147.9909  136.4712  160.0226 C   0  0  0  0  0  0  0  0  0  0  0  0
  147.4964  137.5665  159.4586 N   0  0  0  0  0  0  0  0  0  0  0  0
  148.5862  138.0812  158.7415 O   0  0  0  0  0  0  0  0  0  0  0  0
  149.6074  137.2160  158.9505 C   0  0  0  0  0  0  0  0  0  0  0  0
  150.9401  137.5126  158.3492 C   0  0  0  0  0  0  0  0  0  0  0  0
  150.8912  138.6978  157.3717 C   0  0  0  0  0  0  0  0  0  0  0  0
  150.8603  139.9747  158.0762 N   0  0  0  0  0  0  0  0  0  0  0  0
  151.9428  140.6928  158.4142 C   0  0  0  0  0  0  0  0  0  0  0  0
  153.0914  140.3311  158.1568 O   0  0  0  0  0  0  0  0  0  0  0  0
  151.6780  142.0177  159.1514 C   0  0  1  0  0  0  0  0  0  0  0  0
  152.9501  142.8822  159.3343 C   0  0  0  0  0  0  0  0  0  0  0  0
  152.5541  144.2321  158.7039 C   0  0  2  0  0  0  0  0  0  0  0  0
  151.4918  144.9177  159.5843 C   0  0  0  0  0  0  0  0  0  0  0  0
  150.2338  144.0661  159.3241 C   0  0  0  0  0  0  0  0  0  0  0  0
  150.7553  142.9815  158.3620 C   0  0  1  0  0  0  0  0  0  0  0  0
  151.7270  143.7917  157.5042 C   0  0  0  0  0  0  0  0  0  0  0  0
  149.2986  136.2037  159.7572 N   0  0  0  0  0  0  0  0  0  0  0  0
  146.0985  135.8580  160.8082 H   0  0  0  0  0  0  0  0  0  0  0  0
  147.4523  135.7223  161.9406 H   0  0  0  0  0  0  0  0  0  0  0  0
  147.2792  134.5552  160.6211 H   0  0  0  0  0  0  0  0  0  0  0  0
  151.6444  137.7143  159.1575 H   0  0  0  0  0  0  0  0  0  0  0  0
  151.2987  136.6180  157.8389 H   0  0  0  0  0  0  0  0  0  0  0  0
  151.7721  138.6859  156.7289 H   0  0  0  0  0  0  0  0  0  0  0  0
  150.0251  138.6136  156.7127 H   0  0  0  0  0  0  0  0  0  0  0  0
  149.9517  140.3380  158.3259 H   0  0  0  0  0  0  0  0  0  0  0  0
  151.2354  141.7923  160.1235 H   0  0  0  0  0  0  0  0  0  0  0  0
  153.2241  142.9885  160.3845 H   0  0  0  0  0  0  0  0  0  0  0  0
  153.8139  142.4624  158.8158 H   0  0  0  0  0  0  0  0  0  0  0  0
  153.4056  144.8707  158.4676 H   0  0  0  0  0  0  0  0  0  0  0  0
  151.7751  144.9318  160.6375 H   0  0  0  0  0  0  0  0  0  0  0  0
  151.3289  145.9487  159.2671 H   0  0  0  0  0  0  0  0  0  0  0  0
  149.8134  143.6491  160.2399 H   0  0  0  0  0  0  0  0  0  0  0  0
  149.4585  144.6664  158.8457 H   0  0  0  0  0  0  0  0  0  0  0  0
  149.9630  142.4830  157.8017 H   0  0  0  0  0  0  0  0  0  0  0  0
  151.2511  144.6223  156.9797 H   0  0  0  0  0  0  0  0  0  0  0  0
  152.2919  143.2008  156.7830 H   0  0  0  0  0  0  0  0  0  0  0  0
  1  2  1  0  0  0  0
  1 19  1  0  0  0  0
  1 20  1  0  0  0  0
  1 21  1  0  0  0  0
  2 18  1  0  0  0  0
  2  3  2  0  0  0  0
  3  4  1  0  0  0  0
  4  5  1  0  0  0  0
  5  6  1  0  0  0  0
  5 18  2  0  0  0  0
  6  7  1  0  0  0  0
  6 22  1  0  0  0  0
  6 23  1  0  0  0  0
  7  8  1  0  0  0  0
  7 24  1  0  0  0  0
  7 25  1  0  0  0  0
  8  9  1  0  0  0  0
  8 26  1  0  0  0  0
  9 10  2  0  0  0  0
  9 11  1  0  0  0  0
 11 16  1  0  0  0  0
 11 12  1  0  0  0  0
 11 27  1  0  0  0  0
 12 13  1  0  0  0  0
 12 28  1  0  0  0  0
 12 29  1  0  0  0  0
 13 17  1  0  0  0  0
 13 14  1  0  0  0  0
 13 30  1  0  0  0  0
 14 15  1  0  0  0  0
 14 31  1  0  0  0  0
 14 32  1  0  0  0  0
 15 16  1  0  0  0  0
 15 33  1  0  0  0  0
 15 34  1  0  0  0  0
 16 17  1  0  0  0  0
 16 35  1  0  0  0  0
 17 36  1  0  0  0  0
 17 37  1  0  0  0  0
M  END
> <s_m_source_file>
AV-unprocessed.smi

> <i_m_source_file_index>
1533

> <i_lp_mmshare_version>
43012

> <i_f3d_flags>
0

> <s_epik_input>
W0NIM11jMW5vYyhuMSlbQ0gyXVtDSDJdW05IXUMoPU8pW0NASF0oW0NIMl1bQ0BASF0yMylbQ0BASF0oW0NIMl0zKVtDSDJdW0NIMl0y

> <s_epik_cmdline>
J2VwaWtfcHl0aG9uJywgJy1waCcsICc3LjAnLCAnLXRuJywgJzgnLCAnLW1hJywgJzIwMCcsICctbWV0YWxfYmluZGluZycsICctaW1hZScsICc8aW5maWxlLm1hZT4nLCAnLW9tYWUnLCAnPG91dGZpbGUubWFlPic=

> <r_lp_tautomer_probability>
1

> <r_epik_Ionization_Penalty>
1.90116e-08

> <r_epik_Ionization_Penalty_Charging>
0

> <r_epik_Ionization_Penalty_Neutral>
1.90116e-08

> <r_epik_State_Penalty>
-0

> <r_epik_Charging_Adjusted_Penalty>
0

> <i_epik_Tot_Q>
0

> <i_epik_Tot_abs_Q>
0

> <r_epik_Metal_State_Penalty>
-0

> <b_epik_Metal_Only>
0

> <s_lp_Force_Field>
OPLS_2005

> <r_lp_Energy>
42.7172

> <b_lp_Chiralities_Consistent>
1

> <s_lp_Variant>
AV-unprocessed.smi:1533-4

> <Gold.Version>
5.8.1

> <Gold.Id.Protein>
6NUR|6NUR_protein|mol2

> <Gold.PLP.Fitness>
42.6132

> <Gold.PLP.PLP>
-35.3008

> <Gold.PLP.part.hbond>
-4.2314

> <Gold.PLP.part.metal>
0.0000

> <Gold.PLP.part.buried>
-3.0829

> <Gold.PLP.part.nonpolar>
-28.7000

> <Gold.PLP.part.repulsive>
0.1282

> <Gold.PLP.ligand.clash>
0.0000

> <Gold.PLP.ligand.torsion>
0.3824

> <Gold.PLP.Chemscore.Hbond>
2.6800

> <Gold.PLP.Chemscore.CHOScore>
0.0000

> <Gold.PLP.Chemscore.Metal>
0.0000

> <Gold.Chemscore.Hbonds>
donor molecule, donor type, donor heavy atom, donor atom, acceptor molecule, acceptor atom, score
      P1  H  6896  6909       L1    18  0.98
      P1  H  6934  6947       L1     3  0.63
      P1  H  7997  8009       L1    10  0.90

> <Gold.PLP.Chemscore.Internal.Correction>
0.0372

> <Gold.Rescore>
     Score         DG    S(hbond)    S(metal)    S(lipo)     H(rot)  DE(clash)    DE(int)     intcor
     18.04     -18.51       2.19        0.00      89.42       1.85       0.05       0.42       ----

> <Gold.Chemscore.Fitness>
18.0400

> <Gold.Chemscore.DG>
-18.5099

> <Gold.Chemscore.ZeroCoef>
-5.4800

> <Gold.Chemscore.Hbond>
2.1858

> <Gold.Chemscore.Metal>
0.0000

> <Gold.Chemscore.Lipo>
89.4247

> <Gold.Chemscore.Internal_Hbond>
0.0000

> <Gold.Chemscore.DEClash>
0.0462

> <Gold.Chemscore.DEInternal>
0.4237

> <Gold.Chemscore.Rot>
1.8490

> <Gold.Chemscore.Internal.Correction>
   9.000000E+99

> <Gold.Chemscore.Hbonds>
donor molecule, donor type, donor heavy atom, donor atom, acceptor molecule, acceptor atom, score
      P1  H  6896  6909       L1    18  0.69
      P1  H  6934  6947       L1     3  0.15
      P1  H  7997  8009       L1    10  0.88

> <Gold.Chemscore.Hbond.Weighted>
-7.3006

> <Gold.Chemscore.Metal.Weighted>
-0.0000

> <Gold.Chemscore.Lipo.Weighted>
-10.4627

> <Gold.Chemscore.Internal_Hbond.Weighted>
0.0000

> <Gold.Chemscore.DEClash.Weighted>
0.0462

> <Gold.Chemscore.DEInternal.Weighted>
0.4237

> <Gold.Chemscore.Rot.Weighted>
4.7334

> <Gold.Chemscore.Internal.Correction.Weighted>
   9.000000E+99

> <Gold.Protein.RotatedTorsions>
[ 6907 6896 6895 6894 ] final   65.02 input  -60.11 | X-H torsion
[ 7974 7965 7964 7962 ] final  -23.50 input  175.53 | X-H torsion
[ 8008 7997 7996 7995 ] final  156.21 input   59.86 | X-H torsion
[ 10167 10162 10161 10158 ] final  -87.72 input  -65.29 | X-H torsion
[ 10718 10713 10712 10709 ] final   97.50 input   66.30 | X-H torsion
[ 10763 10752 10751 10750 ] final  -47.77 input  -60.55 | X-H torsion
[ 11005 11000 10999 10996 ] final -170.96 input  -57.11 | X-H torsion

> <Gold.Protein.ActiveResidues>
 VAL166  LYS551  ARG553  GLY616  TRP617  ASP618  TYR619  PRO620  LYS621  CYS622 
 ASP623  PHE694  ASN695  SER759  ASP760  ASP761  ALA762  ILE779  LEU786  VAL792 
 PHE793  MET794  SER795  GLU796  ALA797  LYS798  CYS799  TRP800  GLU811  SER814 

> <Gold.Protein.RotatedAtoms>
  152.4376  134.5656  159.9906 H   0  0  0  0  0  0  0  0  0  0  0  0  # atno 6907 bound_to 6896
  151.5762  133.3378  159.3007 H   0  0  0  0  0  0  0  0  0  0  0  0  # atno 6908 bound_to 6896
  150.8276  134.7549  159.6891 H   0  0  0  0  0  0  0  0  0  0  0  0  # atno 6909 bound_to 6896
  146.1612  140.4624  142.8570 H   0  0  0  0  0  0  0  0  0  0  0  0  # atno 7974 bound_to 7965
  156.2435  140.1918  156.6921 H   0  0  0  0  0  0  0  0  0  0  0  0  # atno 8008 bound_to 7997
  154.6244  140.0604  156.9681 H   0  0  0  0  0  0  0  0  0  0  0  0  # atno 8009 bound_to 7997
  155.1810  140.3276  155.4378 H   0  0  0  0  0  0  0  0  0  0  0  0  # atno 8010 bound_to 7997
  140.3817  143.2745  151.9375 H   0  0  0  0  0  0  0  0  0  0  0  0  # atno 10167 bound_to 10162
  157.6911  131.0611  150.4654 H   0  0  0  0  0  0  0  0  0  0  0  0  # atno 10718 bound_to 10713
  154.0669  135.6610  153.4819 H   0  0  0  0  0  0  0  0  0  0  0  0  # atno 10763 bound_to 10752
  153.0405  135.5148  154.7604 H   0  0  0  0  0  0  0  0  0  0  0  0  # atno 10764 bound_to 10752
  154.6658  135.3022  154.9774 H   0  0  0  0  0  0  0  0  0  0  0  0  # atno 10765 bound_to 10752
  140.5136  134.5777  157.5026 H   0  0  0  0  0  0  0  0  0  0  0  0  # atno 11005 bound_to 11000
  144.8030  140.6248  143.6465 LP  0  0  0  0  0  0  0  0  0  0  0  0  # atno 17320 bound_to 7965
  145.4582  139.1515  143.3881 LP  0  0  0  0  0  0  0  0  0  0  0  0  # atno 17321 bound_to 7965
  139.4795  144.5812  151.7929 LP  0  0  0  0  0  0  0  0  0  0  0  0  # atno 17342 bound_to 10162
  140.4931  144.1281  150.5954 LP  0  0  0  0  0  0  0  0  0  0  0  0  # atno 17343 bound_to 10162
  156.4995  130.4114  149.6361 LP  0  0  0  0  0  0  0  0  0  0  0  0  # atno 17370 bound_to 10713
  156.3341  130.7347  151.2282 LP  0  0  0  0  0  0  0  0  0  0  0  0  # atno 17371 bound_to 10713
  139.9645  134.7397  156.0168 LP  0  0  0  0  0  0  0  0  0  0  0  0  # atno 17394 bound_to 11000
  141.1372  133.6572  156.3627 LP  0  0  0  0  0  0  0  0  0  0  0  0  # atno 17395 bound_to 11000

$$$$
