AV-unprocessed.smi:3028|AV-procd|sdf|11522|dock10
  -GOLD-   2272016463D 1   1.00000     0.00000
 Structure written by MMmdl.
 47 48  0  0  0  0  0  0  0  0  1 V2000
  151.2386  145.1771  159.4869 C   0  0  0  0  0  0  0  0  0  0  0  0
  151.9847  144.0159  160.0770 C   0  0  0  0  0  0  0  0  0  0  0  0
  152.2047  143.7257  161.4532 C   0  0  0  0  0  0  0  0  0  0  0  0
  152.9088  142.6220  161.6400 N   0  0  0  0  0  0  0  0  0  0  0  0
  153.1607  142.1631  160.3949 N   0  0  0  0  0  0  0  0  0  0  0  0
  153.9325  140.9388  160.2142 C   0  0  1  0  0  0  0  0  0  0  0  0
  154.5749  140.5457  161.5581 C   0  0  0  0  0  0  0  0  0  0  0  0
  153.0747  139.8034  159.5854 C   0  0  2  0  0  0  0  0  0  0  0  0
  153.7230  138.4144  159.7194 C   0  0  0  0  0  0  0  0  0  0  0  0
  152.9105  140.0278  158.1505 N   0  0  0  0  0  0  0  0  0  0  0  0
  151.7400  139.3353  157.5941 C   0  0  0  0  0  0  0  0  0  0  0  0
  150.8793  140.2459  156.7046 C   0  0  0  0  0  0  0  0  0  0  0  0
  151.3236  140.6655  155.6368 O   0  0  0  0  0  0  0  0  0  0  0  0
  149.6347  140.5651  157.0993 N   0  0  0  0  0  0  0  0  0  0  0  0
  148.6658  141.4089  156.4033 C   0  0  0  0  0  0  0  0  0  0  0  0
  147.3032  141.3279  157.1075 C   0  0  0  0  0  0  0  0  0  0  0  0
  146.2328  142.0859  156.3054 C   0  0  0  0  0  0  0  0  0  0  0  0
  146.1604  141.5720  154.9795 O   0  0  0  0  0  0  0  0  0  0  0  0
  147.3742  141.7349  154.2542 C   0  0  0  0  0  0  0  0  0  0  0  0
  148.5057  140.9557  154.9425 C   0  0  0  0  0  0  0  0  0  0  0  0
  152.6132  142.9885  159.4328 C   0  0  0  0  0  0  0  0  0  0  0  0
  151.1662  146.0091  160.1874 H   0  0  0  0  0  0  0  0  0  0  0  0
  150.2216  144.9011  159.2087 H   0  0  0  0  0  0  0  0  0  0  0  0
  151.7274  145.5569  158.5895 H   0  0  0  0  0  0  0  0  0  0  0  0
  151.8781  144.2847  162.3176 H   0  0  0  0  0  0  0  0  0  0  0  0
  154.7516  141.1630  159.5278 H   0  0  0  0  0  0  0  0  0  0  0  0
  155.3085  139.7491  161.4360 H   0  0  0  0  0  0  0  0  0  0  0  0
  153.8269  140.2058  162.2749 H   0  0  0  0  0  0  0  0  0  0  0  0
  155.0998  141.3925  162.0017 H   0  0  0  0  0  0  0  0  0  0  0  0
  152.1031  139.7579  160.0809 H   0  0  0  0  0  0  0  0  0  0  0  0
  153.7828  138.0985  160.7608 H   0  0  0  0  0  0  0  0  0  0  0  0
  154.7328  138.4027  159.3072 H   0  0  0  0  0  0  0  0  0  0  0  0
  153.1411  137.6551  159.1952 H   0  0  0  0  0  0  0  0  0  0  0  0
  153.7540  139.7394  157.6755 H   0  0  0  0  0  0  0  0  0  0  0  0
  152.0699  138.4855  156.9953 H   0  0  0  0  0  0  0  0  0  0  0  0
  151.1336  138.9460  158.4088 H   0  0  0  0  0  0  0  0  0  0  0  0
  149.3259  140.1739  157.9775 H   0  0  0  0  0  0  0  0  0  0  0  0
  148.9863  142.4514  156.4243 H   0  0  0  0  0  0  0  0  0  0  0  0
  146.9989  140.2855  157.2129 H   0  0  0  0  0  0  0  0  0  0  0  0
  147.3730  141.7369  158.1158 H   0  0  0  0  0  0  0  0  0  0  0  0
  145.2583  141.9714  156.7805 H   0  0  0  0  0  0  0  0  0  0  0  0
  146.4506  143.1548  156.2804 H   0  0  0  0  0  0  0  0  0  0  0  0
  147.2304  141.3666  153.2384 H   0  0  0  0  0  0  0  0  0  0  0  0
  147.6238  142.7940  154.1764 H   0  0  0  0  0  0  0  0  0  0  0  0
  149.4372  141.0902  154.3940 H   0  0  0  0  0  0  0  0  0  0  0  0
  148.2778  139.8893  154.9074 H   0  0  0  0  0  0  0  0  0  0  0  0
  152.7183  142.7793  158.3785 H   0  0  0  0  0  0  0  0  0  0  0  0
  1  2  1  0  0  0  0
  1 22  1  0  0  0  0
  1 23  1  0  0  0  0
  1 24  1  0  0  0  0
  2 21  2  0  0  0  0
  2  3  1  0  0  0  0
  3  4  2  0  0  0  0
  3 25  1  0  0  0  0
  4  5  1  0  0  0  0
  5  6  1  0  0  0  0
  5 21  1  0  0  0  0
  6  7  1  0  0  0  0
  6  8  1  0  0  0  0
  6 26  1  0  0  0  0
  7 27  1  0  0  0  0
  7 28  1  0  0  0  0
  7 29  1  0  0  0  0
  8  9  1  0  0  0  0
  8 10  1  0  0  0  0
  8 30  1  0  0  0  0
  9 31  1  0  0  0  0
  9 32  1  0  0  0  0
  9 33  1  0  0  0  0
 10 11  1  0  0  0  0
 10 34  1  0  0  0  0
 11 12  1  0  0  0  0
 11 35  1  0  0  0  0
 11 36  1  0  0  0  0
 12 13  2  0  0  0  0
 12 14  1  0  0  0  0
 14 15  1  0  0  0  0
 14 37  1  0  0  0  0
 15 20  1  0  0  0  0
 15 16  1  0  0  0  0
 15 38  1  0  0  0  0
 16 17  1  0  0  0  0
 16 39  1  0  0  0  0
 16 40  1  0  0  0  0
 17 18  1  0  0  0  0
 17 41  1  0  0  0  0
 17 42  1  0  0  0  0
 18 19  1  0  0  0  0
 19 20  1  0  0  0  0
 19 43  1  0  0  0  0
 19 44  1  0  0  0  0
 20 45  1  0  0  0  0
 20 46  1  0  0  0  0
 21 47  1  0  0  0  0
M  END
> <s_m_source_file>
AV-unprocessed.smi

> <i_m_source_file_index>
3028

> <i_lp_mmshare_version>
43012

> <i_f3d_flags>
0

> <s_epik_input>
W0NIM11jMVtjSF1ubihbY0hdMSlbQ0BIXShbQ0gzXSlbQ0BIXShbQ0gzXSlbTkhdW0NIMl1DKD1PKVtOSF1bQ0hdMltDSDJdW0NIMl1PW0NIMl1bQ0gyXTI=

> <s_epik_cmdline>
J2VwaWtfcHl0aG9uJywgJy1waCcsICc3LjAnLCAnLXRuJywgJzgnLCAnLW1hJywgJzIwMCcsICctbWV0YWxfYmluZGluZycsICctaW1hZScsICc8aW5maWxlLm1hZT4nLCAnLW9tYWUnLCAnPG91dGZpbGUubWFlPic=

> <r_lp_tautomer_probability>
1

> <r_epik_Ionization_Penalty>
0.88617

> <r_epik_Ionization_Penalty_Charging>
0

> <r_epik_Ionization_Penalty_Neutral>
0.88617

> <r_epik_State_Penalty>
0.921066

> <r_epik_Charging_Adjusted_Penalty>
0.921066

> <i_epik_Tot_Q>
0

> <i_epik_Tot_abs_Q>
0

> <r_epik_Metal_State_Penalty>
0.917309

> <b_epik_Metal_Only>
0

> <s_lp_Force_Field>
OPLS_2005

> <r_lp_Energy>
17.6671

> <b_lp_Chiralities_Consistent>
1

> <s_lp_Variant>
AV-unprocessed.smi:3028-6

> <Gold.Version>
5.8.1

> <Gold.Id.Protein>
6NUR|6NUR_protein|mol2

> <Gold.PLP.Fitness>
45.2746

> <Gold.PLP.PLP>
-45.0435

> <Gold.PLP.part.hbond>
-2.0000

> <Gold.PLP.part.metal>
0.0000

> <Gold.PLP.part.buried>
-6.4813

> <Gold.PLP.part.nonpolar>
-36.4415

> <Gold.PLP.part.repulsive>
0.2295

> <Gold.PLP.ligand.clash>
0.0000

> <Gold.PLP.ligand.torsion>
1.1256

> <Gold.PLP.Chemscore.Hbond>
0.8000

> <Gold.PLP.Chemscore.CHOScore>
0.0000

> <Gold.PLP.Chemscore.Metal>
0.0000

> <Gold.Chemscore.Hbonds>
donor molecule, donor type, donor heavy atom, donor atom, acceptor molecule, acceptor atom, score
      P1  H  7989  7998       L1    13  0.54

> <Gold.PLP.Chemscore.Internal.Correction>
0.0823

> <Gold.Rescore>
     Score         DG    S(hbond)    S(metal)    S(lipo)     H(rot)  DE(clash)    DE(int)     intcor
     14.36     -16.70       0.88        0.00     112.86       1.92       0.24       2.10       ----

> <Gold.Chemscore.Fitness>
14.3641

> <Gold.Chemscore.DG>
-16.7001

> <Gold.Chemscore.ZeroCoef>
-5.4800

> <Gold.Chemscore.Hbond>
0.8800

> <Gold.Chemscore.Metal>
0.0000

> <Gold.Chemscore.Lipo>
112.8578

> <Gold.Chemscore.Internal_Hbond>
0.0000

> <Gold.Chemscore.DEClash>
0.2405

> <Gold.Chemscore.DEInternal>
2.0954

> <Gold.Chemscore.Rot>
1.9233

> <Gold.Chemscore.Internal.Correction>
   9.000000E+99

> <Gold.Chemscore.Hbonds>
donor molecule, donor type, donor heavy atom, donor atom, acceptor molecule, acceptor atom, score
      P1  H  7989  7998       L1    13  0.52

> <Gold.Chemscore.Hbond.Weighted>
-2.9392

> <Gold.Chemscore.Metal.Weighted>
-0.0000

> <Gold.Chemscore.Lipo.Weighted>
-13.2044

> <Gold.Chemscore.Internal_Hbond.Weighted>
0.0000

> <Gold.Chemscore.DEClash.Weighted>
0.2405

> <Gold.Chemscore.DEInternal.Weighted>
2.0954

> <Gold.Chemscore.Rot.Weighted>
4.9235

> <Gold.Chemscore.Internal.Correction.Weighted>
   9.000000E+99

> <Gold.Protein.RotatedTorsions>
[ 6907 6896 6895 6894 ] final   65.36 input  -60.11 | X-H torsion
[ 7974 7965 7964 7962 ] final    8.62 input  175.53 | X-H torsion
[ 8008 7997 7996 7995 ] final -117.07 input   59.86 | X-H torsion
[ 10167 10162 10161 10158 ] final  176.13 input  -65.29 | X-H torsion
[ 10718 10713 10712 10709 ] final  148.18 input   66.30 | X-H torsion
[ 10763 10752 10751 10750 ] final -156.61 input  -60.55 | X-H torsion
[ 11005 11000 10999 10996 ] final  106.03 input  -57.11 | X-H torsion

> <Gold.Protein.ActiveResidues>
 VAL166  LYS551  ARG553  GLY616  TRP617  ASP618  TYR619  PRO620  LYS621  CYS622 
 ASP623  PHE694  ASN695  SER759  ASP760  ASP761  ALA762  ILE779  LEU786  VAL792 
 PHE793  MET794  SER795  GLU796  ALA797  LYS798  CYS799  TRP800  GLU811  SER814 

> <Gold.Protein.RotatedAtoms>
  152.4401  134.5607  159.9893 H   0  0  0  0  0  0  0  0  0  0  0  0  # atno 6907 bound_to 6896
  151.5707  133.3384  159.2997 H   0  0  0  0  0  0  0  0  0  0  0  0  # atno 6908 bound_to 6896
  150.8306  134.7591  159.6914 H   0  0  0  0  0  0  0  0  0  0  0  0  # atno 6909 bound_to 6896
  146.2414  139.9906  142.8426 H   0  0  0  0  0  0  0  0  0  0  0  0  # atno 7974 bound_to 7965
  155.0778  140.0394  157.2629 H   0  0  0  0  0  0  0  0  0  0  0  0  # atno 8008 bound_to 7997
  154.6931  140.2657  155.6768 H   0  0  0  0  0  0  0  0  0  0  0  0  # atno 8009 bound_to 7997
  156.2735  140.2755  156.1516 H   0  0  0  0  0  0  0  0  0  0  0  0  # atno 8010 bound_to 7997
  139.5203  144.2951  152.0429 H   0  0  0  0  0  0  0  0  0  0  0  0  # atno 10167 bound_to 10162
  157.3118  131.0889  151.1310 H   0  0  0  0  0  0  0  0  0  0  0  0  # atno 10718 bound_to 10713
  154.7699  135.3142  154.8209 H   0  0  0  0  0  0  0  0  0  0  0  0  # atno 10763 bound_to 10752
  153.8948  135.6822  153.4763 H   0  0  0  0  0  0  0  0  0  0  0  0  # atno 10764 bound_to 10752
  153.1312  135.4779  154.9285 H   0  0  0  0  0  0  0  0  0  0  0  0  # atno 10765 bound_to 10752
  139.8809  134.9356  156.5604 H   0  0  0  0  0  0  0  0  0  0  0  0  # atno 11005 bound_to 11000
  145.1507  140.9621  143.4434 LP  0  0  0  0  0  0  0  0  0  0  0  0  # atno 17320 bound_to 7965
  145.0208  139.3426  143.6073 LP  0  0  0  0  0  0  0  0  0  0  0  0  # atno 17321 bound_to 7965
  140.2400  144.4279  150.6264 LP  0  0  0  0  0  0  0  0  0  0  0  0  # atno 17342 bound_to 10162
  140.6297  143.2186  151.6522 LP  0  0  0  0  0  0  0  0  0  0  0  0  # atno 17343 bound_to 10162
  157.2629  130.6667  149.5983 LP  0  0  0  0  0  0  0  0  0  0  0  0  # atno 17370 bound_to 10713
  155.9678  130.4503  150.5691 LP  0  0  0  0  0  0  0  0  0  0  0  0  # atno 17371 bound_to 10713
  140.8173  133.8381  155.8864 LP  0  0  0  0  0  0  0  0  0  0  0  0  # atno 17394 bound_to 11000
  140.9451  134.1851  157.4769 LP  0  0  0  0  0  0  0  0  0  0  0  0  # atno 17395 bound_to 11000

$$$$
