AV-unprocessed.smi:1796|AV-procd|sdf|7254|dock5
  -GOLD-   22720 8503D 1   1.00000     0.00000
 Structure written by MMmdl.
 42 43  0  0  0  0  0  0  0  0  1 V2000
  151.1714  137.6577  154.4485 C   0  0  0  0  0  0  0  0  0  0  0  0
  150.8011  139.1218  154.6969 C   0  0  0  0  0  0  0  0  0  0  0  0
  151.7110  139.9505  154.7301 O   0  0  0  0  0  0  0  0  0  0  0  0
  149.4998  139.4552  154.8737 N   0  0  0  0  0  0  0  0  0  0  0  0
  148.9883  140.8213  155.0450 C   0  0  0  0  0  0  0  0  0  0  0  0
  148.2188  141.2226  153.7742 C   0  0  0  0  0  0  0  0  0  0  0  0
  147.0918  140.2163  153.4731 C   0  0  0  0  0  0  0  0  0  0  0  0
  147.6106  138.7584  153.4723 C   0  0  2  0  0  0  0  0  0  0  0  0
  146.4644  137.7504  153.3259 C   0  0  0  0  0  0  0  0  0  0  0  0
  145.3049  138.0910  153.5636 O   0  0  0  0  0  0  0  0  0  0  0  0
  146.8083  136.5039  152.9634 N   0  0  0  0  0  0  0  0  0  0  0  0
  145.9007  135.3603  152.8802 C   0  0  1  0  0  0  0  0  0  0  0  0
  144.9278  135.4043  154.0661 C   0  0  0  0  0  0  0  0  0  0  0  0
  145.1463  135.3580  151.5328 C   0  0  0  0  0  0  0  0  0  0  0  0
  145.2341  134.0820  150.8430 N   0  0  0  0  0  0  0  0  0  0  0  0
  144.3879  133.5676  149.8835 C   0  0  0  0  0  0  0  0  0  0  0  0
  144.8584  132.3307  149.5476 C   0  0  0  0  0  0  0  0  0  0  0  0
  146.0140  132.1756  150.3632 C   0  0  0  0  0  0  0  0  0  0  0  0
  146.2398  133.2275  151.1333 N   0  0  0  0  0  0  0  0  0  0  0  0
  148.4098  138.4776  154.7651 C   0  0  0  0  0  0  0  0  0  0  0  0
  150.8416  137.0286  155.2757 H   0  0  0  0  0  0  0  0  0  0  0  0
  152.2522  137.5448  154.3556 H   0  0  0  0  0  0  0  0  0  0  0  0
  150.7184  137.2967  153.5249 H   0  0  0  0  0  0  0  0  0  0  0  0
  148.3203  140.8472  155.9072 H   0  0  0  0  0  0  0  0  0  0  0  0
  149.7633  141.5563  155.2574 H   0  0  0  0  0  0  0  0  0  0  0  0
  147.8034  142.2241  153.8875 H   0  0  0  0  0  0  0  0  0  0  0  0
  148.9075  141.2656  152.9292 H   0  0  0  0  0  0  0  0  0  0  0  0
  146.3120  140.3347  154.2273 H   0  0  0  0  0  0  0  0  0  0  0  0
  146.6302  140.4544  152.5140 H   0  0  0  0  0  0  0  0  0  0  0  0
  148.2853  138.6397  152.6221 H   0  0  0  0  0  0  0  0  0  0  0  0
  147.7855  136.3188  152.7890 H   0  0  0  0  0  0  0  0  0  0  0  0
  146.4665  134.4307  152.9642 H   0  0  0  0  0  0  0  0  0  0  0  0
  144.2500  134.5503  154.0481 H   0  0  0  0  0  0  0  0  0  0  0  0
  144.3202  136.3097  154.0498 H   0  0  0  0  0  0  0  0  0  0  0  0
  145.4635  135.3781  155.0156 H   0  0  0  0  0  0  0  0  0  0  0  0
  144.0898  135.5732  151.6968 H   0  0  0  0  0  0  0  0  0  0  0  0
  145.5250  136.1461  150.8794 H   0  0  0  0  0  0  0  0  0  0  0  0
  143.5266  134.1156  149.5307 H   0  0  0  0  0  0  0  0  0  0  0  0
  144.4390  131.6405  148.8309 H   0  0  0  0  0  0  0  0  0  0  0  0
  146.6909  131.3359  150.4180 H   0  0  0  0  0  0  0  0  0  0  0  0
  148.7723  137.4481  154.7674 H   0  0  0  0  0  0  0  0  0  0  0  0
  147.7661  138.5626  155.6424 H   0  0  0  0  0  0  0  0  0  0  0  0
  1  2  1  0  0  0  0
  1 21  1  0  0  0  0
  1 22  1  0  0  0  0
  1 23  1  0  0  0  0
  2  3  2  0  0  0  0
  2  4  1  0  0  0  0
  4 20  1  0  0  0  0
  4  5  1  0  0  0  0
  5  6  1  0  0  0  0
  5 24  1  0  0  0  0
  5 25  1  0  0  0  0
  6  7  1  0  0  0  0
  6 26  1  0  0  0  0
  6 27  1  0  0  0  0
  7  8  1  0  0  0  0
  7 28  1  0  0  0  0
  7 29  1  0  0  0  0
  8  9  1  0  0  0  0
  8 20  1  0  0  0  0
  8 30  1  0  0  0  0
  9 10  2  0  0  0  0
  9 11  1  0  0  0  0
 11 12  1  0  0  0  0
 11 31  1  0  0  0  0
 12 13  1  0  0  0  0
 12 14  1  0  0  0  0
 12 32  1  0  0  0  0
 13 33  1  0  0  0  0
 13 34  1  0  0  0  0
 13 35  1  0  0  0  0
 14 15  1  0  0  0  0
 14 36  1  0  0  0  0
 14 37  1  0  0  0  0
 15 19  1  0  0  0  0
 15 16  1  0  0  0  0
 16 17  2  0  0  0  0
 16 38  1  0  0  0  0
 17 18  1  0  0  0  0
 17 39  1  0  0  0  0
 18 19  2  0  0  0  0
 18 40  1  0  0  0  0
 20 41  1  0  0  0  0
 20 42  1  0  0  0  0
M  END
> <s_m_source_file>
AV-unprocessed.smi

> <i_m_source_file_index>
1796

> <i_lp_mmshare_version>
43012

> <i_f3d_flags>
0

> <s_epik_input>
W0NIM11DKD1PKU4xW0NIMl1bQ0gyXVtDSDJdW0NASF0oW0NIMl0xKUMoPU8pW05IXVtDQEhdKFtDSDNdKVtDSDJdbjJbY0hdW2NIXVtjSF1uMg==

> <s_epik_cmdline>
J2VwaWtfcHl0aG9uJywgJy1waCcsICc3LjAnLCAnLXRuJywgJzgnLCAnLW1hJywgJzIwMCcsICctbWV0YWxfYmluZGluZycsICctaW1hZScsICc8aW5maWxlLm1hZT4nLCAnLW9tYWUnLCAnPG91dGZpbGUubWFlPic=

> <r_lp_tautomer_probability>
1

> <r_epik_Ionization_Penalty>
0.000315051

> <r_epik_Ionization_Penalty_Charging>
0

> <r_epik_Ionization_Penalty_Neutral>
0.000315051

> <r_epik_State_Penalty>
-0

> <r_epik_Charging_Adjusted_Penalty>
0

> <i_epik_Tot_Q>
0

> <i_epik_Tot_abs_Q>
0

> <r_epik_Metal_State_Penalty>
-0

> <b_epik_Metal_Only>
0

> <s_lp_Force_Field>
OPLS_2005

> <r_lp_Energy>
22.8322

> <b_lp_Chiralities_Consistent>
1

> <s_lp_Variant>
AV-unprocessed.smi:1796-4

> <Gold.Version>
5.8.1

> <Gold.Id.Protein>
6NUR|6NUR_protein|mol2

> <Gold.PLP.Fitness>
43.4817

> <Gold.PLP.PLP>
-34.9748

> <Gold.PLP.part.hbond>
-1.6009

> <Gold.PLP.part.metal>
0.0000

> <Gold.PLP.part.buried>
-4.7807

> <Gold.PLP.part.nonpolar>
-29.9771

> <Gold.PLP.part.repulsive>
0.8516

> <Gold.PLP.ligand.clash>
0.0000

> <Gold.PLP.ligand.torsion>
1.7504

> <Gold.PLP.Chemscore.Hbond>
1.9913

> <Gold.PLP.Chemscore.CHOScore>
2.0000

> <Gold.PLP.Chemscore.Metal>
0.0000

> <Gold.Chemscore.Hbonds>
donor molecule, donor type, donor heavy atom, donor atom, acceptor molecule, acceptor atom, score
      L1  H    11    31       P1  7948  0.91
      P1  H  7989  7998       L1     3  0.99
      L1  C    16    38       P1 10186  0.99
      L1  C    18    40       P1 10747  1.00

> <Gold.PLP.Chemscore.Internal.Correction>
0.0340

> <Gold.Rescore>
     Score         DG    S(hbond)    S(metal)    S(lipo)     H(rot)  DE(clash)    DE(int)     intcor
     13.71     -17.20       1.99        0.00      79.23       1.63       0.05       3.44       ----

> <Gold.Chemscore.Fitness>
13.7077

> <Gold.Chemscore.DG>
-17.1997

> <Gold.Chemscore.ZeroCoef>
-5.4800

> <Gold.Chemscore.Hbond>
1.9855

> <Gold.Chemscore.Metal>
0.0000

> <Gold.Chemscore.Lipo>
79.2321

> <Gold.Chemscore.Internal_Hbond>
0.0000

> <Gold.Chemscore.DEClash>
0.0482

> <Gold.Chemscore.DEInternal>
3.4438

> <Gold.Chemscore.Rot>
1.6336

> <Gold.Chemscore.Internal.Correction>
   9.000000E+99

> <Gold.Chemscore.Hbonds>
donor molecule, donor type, donor heavy atom, donor atom, acceptor molecule, acceptor atom, score
      L1  H    11    31       P1  7948  0.83
      P1  H  7989  7998       L1     3  0.71

> <Gold.Chemscore.Hbond.Weighted>
-6.6317

> <Gold.Chemscore.Metal.Weighted>
-0.0000

> <Gold.Chemscore.Lipo.Weighted>
-9.2702

> <Gold.Chemscore.Internal_Hbond.Weighted>
0.0000

> <Gold.Chemscore.DEClash.Weighted>
0.0482

> <Gold.Chemscore.DEInternal.Weighted>
3.4438

> <Gold.Chemscore.Rot.Weighted>
4.1821

> <Gold.Chemscore.Internal.Correction.Weighted>
   9.000000E+99

> <Gold.Protein.RotatedTorsions>
[ 6907 6896 6895 6894 ] final    5.35 input  -60.11 | X-H torsion
[ 7974 7965 7964 7962 ] final  157.10 input  175.53 | X-H torsion
[ 8008 7997 7996 7995 ] final  121.76 input   59.86 | X-H torsion
[ 10167 10162 10161 10158 ] final  120.98 input  -65.29 | X-H torsion
[ 10718 10713 10712 10709 ] final   -7.01 input   66.30 | X-H torsion
[ 10763 10752 10751 10750 ] final   45.35 input  -60.55 | X-H torsion
[ 11005 11000 10999 10996 ] final   71.62 input  -57.11 | X-H torsion

> <Gold.Protein.ActiveResidues>
 VAL166  LYS551  ARG553  GLY616  TRP617  ASP618  TYR619  PRO620  LYS621  CYS622 
 ASP623  PHE694  ASN695  SER759  ASP760  ASP761  ALA762  ILE779  LEU786  VAL792 
 PHE793  MET794  SER795  GLU796  ALA797  LYS798  CYS799  TRP800  GLU811  SER814 

> <Gold.Protein.RotatedAtoms>
  151.6561  135.0995  160.0169 H   0  0  0  0  0  0  0  0  0  0  0  0  # atno 6907 bound_to 6896
  152.3973  133.6762  159.6296 H   0  0  0  0  0  0  0  0  0  0  0  0  # atno 6908 bound_to 6896
  150.7878  133.8768  159.3315 H   0  0  0  0  0  0  0  0  0  0  0  0  # atno 6909 bound_to 6896
  144.7923  139.7294  143.6216 H   0  0  0  0  0  0  0  0  0  0  0  0  # atno 7974 bound_to 7965
  156.2700  140.2801  156.1360 H   0  0  0  0  0  0  0  0  0  0  0  0  # atno 8008 bound_to 7997
  155.1004  140.0389  157.2713 H   0  0  0  0  0  0  0  0  0  0  0  0  # atno 8009 bound_to 7997
  154.6820  140.2610  155.6905 H   0  0  0  0  0  0  0  0  0  0  0  0  # atno 8010 bound_to 7997
  139.5948  144.7038  151.3203 H   0  0  0  0  0  0  0  0  0  0  0  0  # atno 10167 bound_to 10162
  156.7235  130.5158  149.5862 H   0  0  0  0  0  0  0  0  0  0  0  0  # atno 10718 bound_to 10713
  152.9826  135.6042  154.3423 H   0  0  0  0  0  0  0  0  0  0  0  0  # atno 10763 bound_to 10752
  154.3118  135.2771  155.2564 H   0  0  0  0  0  0  0  0  0  0  0  0  # atno 10764 bound_to 10752
  154.4770  135.5927  153.6418 H   0  0  0  0  0  0  0  0  0  0  0  0  # atno 10765 bound_to 10752
  139.9534  134.7187  156.0810 H   0  0  0  0  0  0  0  0  0  0  0  0  # atno 11005 bound_to 11000
  146.2180  139.5584  142.9637 LP  0  0  0  0  0  0  0  0  0  0  0  0  # atno 17320 bound_to 7965
  145.5762  141.0388  143.2147 LP  0  0  0  0  0  0  0  0  0  0  0  0  # atno 17321 bound_to 7965
  140.7203  143.7155  150.7736 LP  0  0  0  0  0  0  0  0  0  0  0  0  # atno 17342 bound_to 10162
  140.0719  143.5053  152.2575 LP  0  0  0  0  0  0  0  0  0  0  0  0  # atno 17343 bound_to 10162
  156.1578  130.6354  151.0680 LP  0  0  0  0  0  0  0  0  0  0  0  0  # atno 17370 bound_to 10713
  157.6888  131.0816  150.7166 LP  0  0  0  0  0  0  0  0  0  0  0  0  # atno 17371 bound_to 10713
  141.1201  133.6615  156.3193 LP  0  0  0  0  0  0  0  0  0  0  0  0  # atno 17394 bound_to 11000
  140.5666  134.5881  157.5447 LP  0  0  0  0  0  0  0  0  0  0  0  0  # atno 17395 bound_to 11000

$$$$
