AV-unprocessed.smi:1808|AV-procd|sdf|7305|dock1
  -GOLD-   22720 8563D 1   1.00000     0.00000
 Structure written by MMmdl.
 28 29  0  0  0  0  0  0  0  0  1 V2000
  151.1737  141.0366  156.0690 O   0  0  0  0  0  0  0  0  0  0  0  0
  150.4306  142.0187  156.0622 C   0  0  0  0  0  0  0  0  0  0  0  0
  150.7097  143.1604  156.7072 N   0  0  0  0  0  0  0  0  0  0  0  0
  151.9165  143.4053  157.4884 C   0  0  0  0  0  0  0  0  0  0  0  0
  151.6381  143.3181  158.9977 C   0  0  2  0  0  0  0  0  0  0  0  0
  151.9042  144.6214  159.7481 C   0  0  0  0  0  0  0  0  0  0  0  0
  152.1526  144.1162  161.1505 C   0  0  0  0  0  0  0  0  0  0  0  0
  152.9394  142.8365  160.8832 C   0  0  0  0  0  0  0  0  0  0  0  0
  152.4979  142.3613  159.6136 O   0  0  0  0  0  0  0  0  0  0  0  0
  149.2532  142.0989  155.4180 N   0  0  0  0  0  0  0  0  0  0  0  0
  148.5998  141.0951  154.6556 C   0  0  0  0  0  0  0  0  0  0  0  0
  147.4812  141.2929  153.9483 N   0  0  0  0  0  0  0  0  0  0  0  0
  147.0641  140.1326  153.2910 C   0  0  0  0  0  0  0  0  0  0  0  0
  147.8830  139.0529  153.5102 C   0  0  0  0  0  0  0  0  0  0  0  0
  149.2183  139.4528  154.5575 S   0  0  0  0  0  0  0  0  0  0  0  0
  150.0482  143.9202  156.6438 H   0  0  0  0  0  0  0  0  0  0  0  0
  152.6680  142.6691  157.2022 H   0  0  0  0  0  0  0  0  0  0  0  0
  152.3297  144.3836  157.2363 H   0  0  0  0  0  0  0  0  0  0  0  0
  150.6067  143.0121  159.1811 H   0  0  0  0  0  0  0  0  0  0  0  0
  152.7995  145.1132  159.3649 H   0  0  0  0  0  0  0  0  0  0  0  0
  151.0729  145.3244  159.6866 H   0  0  0  0  0  0  0  0  0  0  0  0
  152.6918  144.8275  161.7765 H   0  0  0  0  0  0  0  0  0  0  0  0
  151.2045  143.8808  161.6362 H   0  0  0  0  0  0  0  0  0  0  0  0
  154.0064  143.0522  160.8182 H   0  0  0  0  0  0  0  0  0  0  0  0
  152.7924  142.0887  161.6626 H   0  0  0  0  0  0  0  0  0  0  0  0
  148.7614  142.9772  155.4905 H   0  0  0  0  0  0  0  0  0  0  0  0
  146.1710  140.1652  152.6847 H   0  0  0  0  0  0  0  0  0  0  0  0
  147.7821  138.0512  153.1196 H   0  0  0  0  0  0  0  0  0  0  0  0
  1  2  2  0  0  0  0
  2  3  1  0  0  0  0
  2 10  1  0  0  0  0
  3  4  1  0  0  0  0
  3 16  1  0  0  0  0
  4  5  1  0  0  0  0
  4 17  1  0  0  0  0
  4 18  1  0  0  0  0
  5  9  1  0  0  0  0
  5  6  1  0  0  0  0
  5 19  1  0  0  0  0
  6  7  1  0  0  0  0
  6 20  1  0  0  0  0
  6 21  1  0  0  0  0
  7  8  1  0  0  0  0
  7 22  1  0  0  0  0
  7 23  1  0  0  0  0
  8  9  1  0  0  0  0
  8 24  1  0  0  0  0
  8 25  1  0  0  0  0
 10 11  1  0  0  0  0
 10 26  1  0  0  0  0
 11 15  1  0  0  0  0
 11 12  2  0  0  0  0
 12 13  1  0  0  0  0
 13 14  2  0  0  0  0
 13 27  1  0  0  0  0
 14 15  1  0  0  0  0
 14 28  1  0  0  0  0
M  END
> <s_m_source_file>
AV-unprocessed.smi

> <i_m_source_file_index>
1808

> <i_lp_mmshare_version>
43012

> <i_f3d_flags>
0

> <s_epik_input>
czFbY0hdW2NIXW5jMVtOSF1DKD1PKVtOSF1bQ0gyXVtDQEBIXTJbQ0gyXVtDSDJdW0NIMl1PMg==

> <s_epik_cmdline>
J2VwaWtfcHl0aG9uJywgJy1waCcsICc3LjAnLCAnLXRuJywgJzgnLCAnLW1hJywgJzIwMCcsICctbWV0YWxfYmluZGluZycsICctaW1hZScsICc8aW5maWxlLm1hZT4nLCAnLW9tYWUnLCAnPG91dGZpbGUubWFlPic=

> <r_lp_tautomer_probability>
0.999

> <r_epik_Ionization_Penalty>
0.000333847

> <r_epik_Ionization_Penalty_Charging>
0

> <r_epik_Ionization_Penalty_Neutral>
0.000333847

> <r_epik_State_Penalty>
0.000177984

> <r_epik_Charging_Adjusted_Penalty>
0.000177984

> <i_epik_Tot_Q>
0

> <i_epik_Tot_abs_Q>
0

> <r_epik_Metal_State_Penalty>
0.00767616

> <b_epik_Metal_Only>
0

> <s_lp_Force_Field>
OPLS_2005

> <r_lp_Energy>
15.026

> <b_lp_Chiralities_Consistent>
1

> <s_lp_Variant>
AV-unprocessed.smi:1808-1

> <Gold.Version>
5.8.1

> <Gold.Id.Protein>
6NUR|6NUR_protein|mol2

> <Gold.PLP.Fitness>
41.8193

> <Gold.PLP.PLP>
-31.6519

> <Gold.PLP.part.hbond>
-2.0000

> <Gold.PLP.part.metal>
0.0000

> <Gold.PLP.part.buried>
-4.7497

> <Gold.PLP.part.nonpolar>
-25.0762

> <Gold.PLP.part.repulsive>
0.4164

> <Gold.PLP.ligand.clash>
0.0000

> <Gold.PLP.ligand.torsion>
0.8632

> <Gold.PLP.Chemscore.Hbond>
1.9600

> <Gold.PLP.Chemscore.CHOScore>
2.0000

> <Gold.PLP.Chemscore.Metal>
0.0000

> <Gold.Chemscore.Hbonds>
donor molecule, donor type, donor heavy atom, donor atom, acceptor molecule, acceptor atom, score
      L1  H     3    16       P1  8028  0.94
      L1  H    10    26       P1  8028  0.96
      L1  C    13    27       P1 10175  1.00
      L1  C    14    28       P1  7948  1.00

> <Gold.PLP.Chemscore.Internal.Correction>
0.0137

> <Gold.Rescore>
     Score         DG    S(hbond)    S(metal)    S(lipo)     H(rot)  DE(clash)    DE(int)     intcor
     14.95     -17.38       1.87        0.00      77.25       1.32       0.41       2.02       ----

> <Gold.Chemscore.Fitness>
14.9485

> <Gold.Chemscore.DG>
-17.3835

> <Gold.Chemscore.ZeroCoef>
-5.4800

> <Gold.Chemscore.Hbond>
1.8667

> <Gold.Chemscore.Metal>
0.0000

> <Gold.Chemscore.Lipo>
77.2521

> <Gold.Chemscore.Internal_Hbond>
0.0000

> <Gold.Chemscore.DEClash>
0.4131

> <Gold.Chemscore.DEInternal>
2.0219

> <Gold.Chemscore.Rot>
1.3163

> <Gold.Chemscore.Internal.Correction>
   9.000000E+99

> <Gold.Chemscore.Hbonds>
donor molecule, donor type, donor heavy atom, donor atom, acceptor molecule, acceptor atom, score
      L1  H     3    16       P1  8028  0.91
      L1  H    10    26       P1  8028  0.92

> <Gold.Chemscore.Hbond.Weighted>
-6.2348

> <Gold.Chemscore.Metal.Weighted>
-0.0000

> <Gold.Chemscore.Lipo.Weighted>
-9.0385

> <Gold.Chemscore.Internal_Hbond.Weighted>
0.0000

> <Gold.Chemscore.DEClash.Weighted>
0.4131

> <Gold.Chemscore.DEInternal.Weighted>
2.0219

> <Gold.Chemscore.Rot.Weighted>
3.3698

> <Gold.Chemscore.Internal.Correction.Weighted>
   9.000000E+99

> <Gold.Protein.RotatedTorsions>
[ 6907 6896 6895 6894 ] final   66.76 input  -60.11 | X-H torsion
[ 7974 7965 7964 7962 ] final  -78.57 input  175.53 | X-H torsion
[ 8008 7997 7996 7995 ] final -179.88 input   59.86 | X-H torsion
[ 10167 10162 10161 10158 ] final -148.10 input  -65.29 | X-H torsion
[ 10718 10713 10712 10709 ] final   79.60 input   66.30 | X-H torsion
[ 10763 10752 10751 10750 ] final -100.81 input  -60.55 | X-H torsion
[ 11005 11000 10999 10996 ] final  -43.43 input  -57.11 | X-H torsion

> <Gold.Protein.ActiveResidues>
 VAL166  LYS551  ARG553  GLY616  TRP617  ASP618  TYR619  PRO620  LYS621  CYS622 
 ASP623  PHE694  ASN695  SER759  ASP760  ASP761  ALA762  ILE779  LEU786  VAL792 
 PHE793  MET794  SER795  GLU796  ALA797  LYS798  CYS799  TRP800  GLU811  SER814 

> <Gold.Protein.RotatedAtoms>
  152.4504  134.5406  159.9837 H   0  0  0  0  0  0  0  0  0  0  0  0  # atno 6907 bound_to 6896
  151.5480  133.3416  159.2955 H   0  0  0  0  0  0  0  0  0  0  0  0  # atno 6908 bound_to 6896
  150.8431  134.7762  159.7012 H   0  0  0  0  0  0  0  0  0  0  0  0  # atno 6909 bound_to 6896
  145.5847  140.9441  143.1324 H   0  0  0  0  0  0  0  0  0  0  0  0  # atno 7974 bound_to 7965
  156.0356  140.1292  157.0211 H   0  0  0  0  0  0  0  0  0  0  0  0  # atno 8008 bound_to 7997
  154.4368  140.1040  156.6233 H   0  0  0  0  0  0  0  0  0  0  0  0  # atno 8009 bound_to 7997
  155.5742  140.3467  155.4525 H   0  0  0  0  0  0  0  0  0  0  0  0  # atno 8010 bound_to 7997
  139.7562  143.8444  152.2597 H   0  0  0  0  0  0  0  0  0  0  0  0  # atno 10167 bound_to 10162
  157.6781  130.9921  150.1956 H   0  0  0  0  0  0  0  0  0  0  0  0  # atno 10718 bound_to 10713
  154.7609  135.4921  153.9462 H   0  0  0  0  0  0  0  0  0  0  0  0  # atno 10763 bound_to 10752
  153.1250  135.6740  153.9280 H   0  0  0  0  0  0  0  0  0  0  0  0  # atno 10764 bound_to 10752
  153.9000  135.3111  155.3427 H   0  0  0  0  0  0  0  0  0  0  0  0  # atno 10765 bound_to 10752
  141.0383  133.6790  156.2732 H   0  0  0  0  0  0  0  0  0  0  0  0  # atno 11005 bound_to 11000
  144.7378  139.7536  143.7322 LP  0  0  0  0  0  0  0  0  0  0  0  0  # atno 17320 bound_to 7965
  146.1690  139.4833  142.9939 LP  0  0  0  0  0  0  0  0  0  0  0  0  # atno 17321 bound_to 7965
  139.8437  144.7198  150.9299 LP  0  0  0  0  0  0  0  0  0  0  0  0  # atno 17342 bound_to 10162
  140.7803  143.3960  151.1228 LP  0  0  0  0  0  0  0  0  0  0  0  0  # atno 17343 bound_to 10162
  156.2658  130.3716  149.8083 LP  0  0  0  0  0  0  0  0  0  0  0  0  # atno 17370 bound_to 10713
  156.5815  130.8467  151.3384 LP  0  0  0  0  0  0  0  0  0  0  0  0  # atno 17371 bound_to 10713
  140.6281  134.5292  157.5556 LP  0  0  0  0  0  0  0  0  0  0  0  0  # atno 17394 bound_to 11000
  139.9257  134.8061  156.1076 LP  0  0  0  0  0  0  0  0  0  0  0  0  # atno 17395 bound_to 11000

$$$$
