AV-unprocessed.smi:697|AV-procd|sdf|3393|dock6
  -GOLD-   22720 0373D 1   1.00000     0.00000
 Structure written by MMmdl.
 43 44  0  0  0  0  0  0  0  0  2 V2000
  150.9576  141.5065  156.5047 C   0  0  0  0  0  0  0  0  0  0  0  0
  151.0277  140.7373  155.3111 O   0  0  0  0  0  0  0  0  0  0  0  0
  151.0715  139.3188  155.4739 C   0  0  1  0  0  0  0  0  0  0  0  0
  152.0147  138.7004  154.4300 C   0  0  0  0  0  0  0  0  0  0  0  0
  151.2545  138.9049  156.9458 C   0  0  0  0  0  0  0  0  0  0  0  0
  150.1817  137.8494  156.6895 C   0  0  1  0  0  0  0  0  0  0  0  0
  149.3062  137.6466  157.8383 N   0  0  0  0  0  0  0  0  0  0  0  0
  149.2021  136.4966  158.5173 C   0  0  0  0  0  0  0  0  0  0  0  0
  149.8520  135.4897  158.2369 O   0  0  0  0  0  0  0  0  0  0  0  0
  148.3181  136.6160  159.5241 N   0  0  0  0  0  0  0  0  0  0  0  0
  147.8937  135.6588  160.4618 C   0  0  0  0  0  0  0  0  0  0  0  0
  147.9307  134.3106  160.2713 C   0  0  0  0  0  0  0  0  0  0  0  0
  147.4658  133.3670  161.2801 C   0  0  0  0  0  0  0  0  0  0  0  0
  147.5831  131.8593  161.1430 C   0  0  0  0  0  0  0  0  0  0  0  0
  146.4181  131.2630  161.3973 F   0  0  0  0  0  0  0  0  0  0  0  0
  147.9485  131.5437  159.9014 F   0  0  0  0  0  0  0  0  0  0  0  0
  148.4970  131.3719  161.9820 F   0  0  0  0  0  0  0  0  0  0  0  0
  147.0081  134.0003  162.4190 C   0  0  0  0  0  0  0  0  0  0  0  0
  146.9117  135.3231  162.6765 N   0  5  0  0  0  0  0  0  0  0  0  0
  147.3466  136.1967  161.7249 C   0  0  0  0  0  0  0  0  0  0  0  0
  147.2911  137.4152  161.8960 O   0  0  0  0  0  0  0  0  0  0  0  0
  149.6092  138.7770  155.5870 C   0  0  0  0  0  0  0  0  0  0  0  0
  148.5381  139.7974  156.0236 C   0  0  0  0  0  0  0  0  0  0  0  0
  149.0351  138.0714  154.3545 C   0  0  0  0  0  0  0  0  0  0  0  0
  150.8415  142.5583  156.2441 H   0  0  0  0  0  0  0  0  0  0  0  0
  151.8665  141.4200  157.0990 H   0  0  0  0  0  0  0  0  0  0  0  0
  150.1049  141.2251  157.1228 H   0  0  0  0  0  0  0  0  0  0  0  0
  151.9690  137.6116  154.4350 H   0  0  0  0  0  0  0  0  0  0  0  0
  153.0558  138.9625  154.6161 H   0  0  0  0  0  0  0  0  0  0  0  0
  151.7632  139.0326  153.4225 H   0  0  0  0  0  0  0  0  0  0  0  0
  152.2366  138.4986  157.1893 H   0  0  0  0  0  0  0  0  0  0  0  0
  150.9523  139.6737  157.6596 H   0  0  0  0  0  0  0  0  0  0  0  0
  150.6096  136.9260  156.2926 H   0  0  0  0  0  0  0  0  0  0  0  0
  148.7423  138.4305  158.1328 H   0  0  0  0  0  0  0  0  0  0  0  0
  147.9135  137.5313  159.6580 H   0  0  0  0  0  0  0  0  0  0  0  0
  148.2933  133.8907  159.3480 H   0  0  0  0  0  0  0  0  0  0  0  0
  146.6717  133.3446  163.2503 H   0  0  0  0  0  0  0  0  0  0  0  0
  147.5927  139.3107  156.2657 H   0  0  0  0  0  0  0  0  0  0  0  0
  148.3329  140.5215  155.2343 H   0  0  0  0  0  0  0  0  0  0  0  0
  148.8393  140.3641  156.9046 H   0  0  0  0  0  0  0  0  0  0  0  0
  148.0496  137.6510  154.5569 H   0  0  0  0  0  0  0  0  0  0  0  0
  149.6642  137.2441  154.0271 H   0  0  0  0  0  0  0  0  0  0  0  0
  148.9342  138.7575  153.5129 H   0  0  0  0  0  0  0  0  0  0  0  0
  1  2  1  0  0  0  0
  1 25  1  0  0  0  0
  1 26  1  0  0  0  0
  1 27  1  0  0  0  0
  2  3  1  0  0  0  0
  3 22  1  0  0  0  0
  3  4  1  0  0  0  0
  3  5  1  0  0  0  0
  4 28  1  0  0  0  0
  4 29  1  0  0  0  0
  4 30  1  0  0  0  0
  5  6  1  0  0  0  0
  5 31  1  0  0  0  0
  5 32  1  0  0  0  0
  6  7  1  0  0  0  0
  6 22  1  0  0  0  0
  6 33  1  0  0  0  0
  7  8  1  0  0  0  0
  7 34  1  0  0  0  0
  8  9  2  0  0  0  0
  8 10  1  0  0  0  0
 10 11  1  0  0  0  0
 10 35  1  0  0  0  0
 11 20  1  0  0  0  0
 11 12  2  0  0  0  0
 12 13  1  0  0  0  0
 12 36  1  0  0  0  0
 13 14  1  0  0  0  0
 13 18  2  0  0  0  0
 14 15  1  0  0  0  0
 14 16  1  0  0  0  0
 14 17  1  0  0  0  0
 18 19  1  0  0  0  0
 18 37  1  0  0  0  0
 19 20  1  0  0  0  0
 20 21  2  0  0  0  0
 22 23  1  0  0  0  0
 22 24  1  0  0  0  0
 23 38  1  0  0  0  0
 23 39  1  0  0  0  0
 23 40  1  0  0  0  0
 24 41  1  0  0  0  0
 24 42  1  0  0  0  0
 24 43  1  0  0  0  0
M  CHG  1  19  -1
M  END
> <s_m_source_file>
AV-unprocessed.smi

> <i_m_source_file_index>
697

> <i_lp_mmshare_version>
43012

> <i_f3d_flags>
0

> <s_epik_input>
W0NIM11PW0NAQF0xKFtDSDNdKVtDSDJdW0NASF0oQzEoW0NIM10pW0NIM10pW05IXUMoPU8pW05IXWMyW2NIXWMoQyhGKShGKUYpW2NIXVtuSF1jMj1P

> <s_epik_cmdline>
J2VwaWtfcHl0aG9uJywgJy1waCcsICc3LjAnLCAnLXRuJywgJzgnLCAnLW1hJywgJzIwMCcsICctbWV0YWxfYmluZGluZycsICctaW1hZScsICc8aW5maWxlLm1hZT4nLCAnLW9tYWUnLCAnPG91dGZpbGUubWFlPic=

> <r_lp_tautomer_probability>
1

> <r_epik_Ionization_Penalty>
3.20094

> <r_epik_Ionization_Penalty_Charging>
0.180017

> <r_epik_Ionization_Penalty_Neutral>
3.02092

> <r_epik_State_Penalty>
3.01726

> <r_epik_Charging_Adjusted_Penalty>
3.19727

> <i_epik_Tot_Q>
-1

> <i_epik_Tot_abs_Q>
1

> <r_epik_Metal_State_Penalty>
0.455096

> <b_epik_Metal_Only>
1

> <s_lp_Force_Field>
OPLS_2005

> <r_lp_Energy>
36.1164

> <b_lp_Chiralities_Consistent>
1

> <s_lp_Variant>
AV-unprocessed.smi:697-5

> <Gold.Version>
5.8.1

> <Gold.Id.Protein>
6NUR|6NUR_protein|mol2

> <Gold.PLP.Fitness>
39.3986

> <Gold.PLP.PLP>
-35.1641

> <Gold.PLP.part.hbond>
-4.0000

> <Gold.PLP.part.metal>
0.0000

> <Gold.PLP.part.buried>
-2.8695

> <Gold.PLP.part.nonpolar>
-27.5640

> <Gold.PLP.part.repulsive>
0.3212

> <Gold.PLP.ligand.clash>
3.3813

> <Gold.PLP.ligand.torsion>
1.2550

> <Gold.PLP.Chemscore.Hbond>
3.2320

> <Gold.PLP.Chemscore.CHOScore>
0.0000

> <Gold.PLP.Chemscore.Metal>
0.0000

> <Gold.Chemscore.Hbonds>
donor molecule, donor type, donor heavy atom, donor atom, acceptor molecule, acceptor atom, score
      P1  H  6896  6909       L1     9  0.98
      P1  H  6931  6943       L1    21  0.77
      P1  H  6934  6947       L1    21  0.74
      P1  H  7989  7998       L1     2  0.83

> <Gold.PLP.Chemscore.Internal.Correction>
0.4298

> <Gold.Rescore>
     Score         DG    S(hbond)    S(metal)    S(lipo)     H(rot)  DE(clash)    DE(int)     intcor
     18.46     -22.11       3.55        0.00      69.09       1.30       1.43       2.22       ----

> <Gold.Chemscore.Fitness>
18.4598

> <Gold.Chemscore.DG>
-22.1099

> <Gold.Chemscore.ZeroCoef>
-5.4800

> <Gold.Chemscore.Hbond>
3.5531

> <Gold.Chemscore.Metal>
0.0000

> <Gold.Chemscore.Lipo>
69.0903

> <Gold.Chemscore.Internal_Hbond>
0.0000

> <Gold.Chemscore.DEClash>
1.4263

> <Gold.Chemscore.DEInternal>
2.2237

> <Gold.Chemscore.Rot>
1.2973

> <Gold.Chemscore.Internal.Correction>
   9.000000E+99

> <Gold.Chemscore.Hbonds>
donor molecule, donor type, donor heavy atom, donor atom, acceptor molecule, acceptor atom, score
      P1  H  6896  6909       L1     9  0.93
      P1  H  6931  6943       L1    21  0.67
      P1  H  6934  6947       L1    21  0.74
      P1  H  7989  7998       L1     2  0.21

> <Gold.Chemscore.Hbond.Weighted>
-11.8673

> <Gold.Chemscore.Metal.Weighted>
-0.0000

> <Gold.Chemscore.Lipo.Weighted>
-8.0836

> <Gold.Chemscore.Internal_Hbond.Weighted>
0.0000

> <Gold.Chemscore.DEClash.Weighted>
1.4263

> <Gold.Chemscore.DEInternal.Weighted>
2.2237

> <Gold.Chemscore.Rot.Weighted>
3.3210

> <Gold.Chemscore.Internal.Correction.Weighted>
   9.000000E+99

> <Gold.Protein.RotatedTorsions>
[ 6907 6896 6895 6894 ] final   40.39 input  -60.11 | X-H torsion
[ 7974 7965 7964 7962 ] final   23.45 input  175.53 | X-H torsion
[ 8008 7997 7996 7995 ] final  102.10 input   59.86 | X-H torsion
[ 10167 10162 10161 10158 ] final   12.71 input  -65.29 | X-H torsion
[ 10718 10713 10712 10709 ] final   92.55 input   66.30 | X-H torsion
[ 10763 10752 10751 10750 ] final -122.03 input  -60.55 | X-H torsion
[ 11005 11000 10999 10996 ] final   26.20 input  -57.11 | X-H torsion

> <Gold.Protein.ActiveResidues>
 VAL166  LYS551  ARG553  GLY616  TRP617  ASP618  TYR619  PRO620  LYS621  CYS622 
 ASP623  PHE694  ASN695  SER759  ASP760  ASP761  ALA762  ILE779  LEU786  VAL792 
 PHE793  MET794  SER795  GLU796  ALA797  LYS798  CYS799  TRP800  GLU811  SER814 

> <Gold.Protein.RotatedAtoms>
  152.1819  134.8747  160.0525 H   0  0  0  0  0  0  0  0  0  0  0  0  # atno 6907 bound_to 6896
  151.9668  133.3708  159.4064 H   0  0  0  0  0  0  0  0  0  0  0  0  # atno 6908 bound_to 6896
  150.6919  134.4106  159.5204 H   0  0  0  0  0  0  0  0  0  0  0  0  # atno 6909 bound_to 6896
  146.1984  139.7743  142.8780 H   0  0  0  0  0  0  0  0  0  0  0  0  # atno 7974 bound_to 7965
  156.1362  140.3187  155.8424 H   0  0  0  0  0  0  0  0  0  0  0  0  # atno 8008 bound_to 7997
  155.4241  140.0514  157.3040 H   0  0  0  0  0  0  0  0  0  0  0  0  # atno 8009 bound_to 7997
  154.4938  140.2103  155.9503 H   0  0  0  0  0  0  0  0  0  0  0  0  # atno 8010 bound_to 7997
  140.6050  143.8526  150.7004 H   0  0  0  0  0  0  0  0  0  0  0  0  # atno 10167 bound_to 10162
  157.6958  131.0447  150.3899 H   0  0  0  0  0  0  0  0  0  0  0  0  # atno 10718 bound_to 10713
  154.8681  135.4147  154.2715 H   0  0  0  0  0  0  0  0  0  0  0  0  # atno 10763 bound_to 10752
  153.3624  135.7004  153.6707 H   0  0  0  0  0  0  0  0  0  0  0  0  # atno 10764 bound_to 10752
  153.5602  135.3611  155.2768 H   0  0  0  0  0  0  0  0  0  0  0  0  # atno 10765 bound_to 10752
  140.3396  134.2348  155.7691 H   0  0  0  0  0  0  0  0  0  0  0  0  # atno 11005 bound_to 11000
  145.3567  141.0318  143.3307 LP  0  0  0  0  0  0  0  0  0  0  0  0  # atno 17320 bound_to 7965
  144.8629  139.5150  143.6804 LP  0  0  0  0  0  0  0  0  0  0  0  0  # atno 17321 bound_to 7965
  140.2081  143.3905  152.1739 LP  0  0  0  0  0  0  0  0  0  0  0  0  # atno 17342 bound_to 10162
  139.5318  144.7167  151.5029 LP  0  0  0  0  0  0  0  0  0  0  0  0  # atno 17343 bound_to 10162
  156.4303  130.3971  149.6765 LP  0  0  0  0  0  0  0  0  0  0  0  0  # atno 17370 bound_to 10713
  156.3984  130.7662  151.2668 LP  0  0  0  0  0  0  0  0  0  0  0  0  # atno 17371 bound_to 10713
  141.2042  133.7892  157.0300 LP  0  0  0  0  0  0  0  0  0  0  0  0  # atno 17394 bound_to 11000
  140.0792  134.9658  157.1596 LP  0  0  0  0  0  0  0  0  0  0  0  0  # atno 17395 bound_to 11000

$$$$
