AV-unprocessed.smi:2998|AV-procd|sdf|11416|dock4
  -GOLD-   2272016343D 1   1.00000     0.00000
 Structure written by MMmdl.
 41 43  0  0  0  0  0  0  0  0  1 V2000
  153.2273  137.5659  154.8664 O   0  0  0  0  0  0  0  0  0  0  0  0
  152.2077  137.6887  154.1862 C   0  0  0  0  0  0  0  0  0  0  0  0
  151.7466  139.0708  153.6999 C   0  0  0  0  0  0  0  0  0  0  0  0
  151.5242  140.0332  154.7949 N   0  0  0  0  0  0  0  0  0  0  0  0
  152.4590  140.0194  155.8487 C   0  0  0  0  0  0  0  0  0  0  0  0
  152.3635  140.8279  156.8557 N   0  0  0  0  0  0  0  0  0  0  0  0
  151.3056  141.7424  156.9165 C   0  0  0  0  0  0  0  0  0  0  0  0
  151.2268  142.6541  158.1334 C   0  0  0  0  0  0  0  0  0  0  0  0
  151.3199  144.1656  157.8629 C   0  0  0  0  0  0  0  0  0  0  0  0
  152.1653  144.2753  159.1368 C   0  0  0  0  0  0  0  0  0  0  0  0
  152.5234  142.7971  158.9470 C   0  0  0  0  0  0  0  0  0  0  0  0
  150.3743  141.7845  155.9343 C   0  0  0  0  0  0  0  0  0  0  0  0
  150.4595  140.8886  154.7811 C   0  0  0  0  0  0  0  0  0  0  0  0
  149.6356  140.9044  153.8663 O   0  0  0  0  0  0  0  0  0  0  0  0
  151.4454  136.6508  153.8115 N   0  0  0  0  0  0  0  0  0  0  0  0
  151.6924  135.2558  154.1657 C   0  0  0  0  0  0  0  0  0  0  0  0
  150.5492  134.3610  153.6545 C   0  0  0  0  0  0  0  0  0  0  0  0
  149.7372  133.9751  154.8907 C   0  0  0  0  0  0  0  0  0  0  0  0
  150.7728  133.9126  156.0088 C   0  0  0  0  0  0  0  0  0  0  0  0
  151.7408  135.0559  155.6958 C   0  0  0  0  0  0  0  0  0  0  0  0
  152.4833  139.4399  152.9840 H   0  0  0  0  0  0  0  0  0  0  0  0
  150.8266  138.9582  153.1230 H   0  0  0  0  0  0  0  0  0  0  0  0
  153.2594  139.2832  155.7578 H   0  0  0  0  0  0  0  0  0  0  0  0
  150.3742  142.4069  158.7685 H   0  0  0  0  0  0  0  0  0  0  0  0
  151.8896  144.4175  156.9663 H   0  0  0  0  0  0  0  0  0  0  0  0
  150.3678  144.6958  157.8989 H   0  0  0  0  0  0  0  0  0  0  0  0
  153.0086  144.9630  159.0685 H   0  0  0  0  0  0  0  0  0  0  0  0
  151.5653  144.4550  160.0304 H   0  0  0  0  0  0  0  0  0  0  0  0
  152.5534  142.2116  159.8663 H   0  0  0  0  0  0  0  0  0  0  0  0
  153.4280  142.6612  158.3514 H   0  0  0  0  0  0  0  0  0  0  0  0
  149.5561  142.4875  155.9936 H   0  0  0  0  0  0  0  0  0  0  0  0
  150.6280  136.8402  153.2495 H   0  0  0  0  0  0  0  0  0  0  0  0
  152.6287  134.9278  153.7102 H   0  0  0  0  0  0  0  0  0  0  0  0
  149.9341  134.8355  152.8886 H   0  0  0  0  0  0  0  0  0  0  0  0
  150.9717  133.4588  153.2104 H   0  0  0  0  0  0  0  0  0  0  0  0
  149.0062  134.7544  155.1100 H   0  0  0  0  0  0  0  0  0  0  0  0
  149.1974  133.0362  154.7634 H   0  0  0  0  0  0  0  0  0  0  0  0
  150.3269  133.9990  157.0002 H   0  0  0  0  0  0  0  0  0  0  0  0
  151.3020  132.9599  155.9638 H   0  0  0  0  0  0  0  0  0  0  0  0
  152.7497  134.8395  156.0483 H   0  0  0  0  0  0  0  0  0  0  0  0
  151.4074  135.9564  156.2145 H   0  0  0  0  0  0  0  0  0  0  0  0
  1  2  2  0  0  0  0
  2  3  1  0  0  0  0
  2 15  1  0  0  0  0
  3  4  1  0  0  0  0
  3 21  1  0  0  0  0
  3 22  1  0  0  0  0
  4 13  1  0  0  0  0
  4  5  1  0  0  0  0
  5  6  2  0  0  0  0
  5 23  1  0  0  0  0
  6  7  1  0  0  0  0
  7  8  1  0  0  0  0
  7 12  2  0  0  0  0
  8 11  1  0  0  0  0
  8  9  1  0  0  0  0
  8 24  1  0  0  0  0
  9 10  1  0  0  0  0
  9 25  1  0  0  0  0
  9 26  1  0  0  0  0
 10 11  1  0  0  0  0
 10 27  1  0  0  0  0
 10 28  1  0  0  0  0
 11 29  1  0  0  0  0
 11 30  1  0  0  0  0
 12 13  1  0  0  0  0
 12 31  1  0  0  0  0
 13 14  2  0  0  0  0
 15 16  1  0  0  0  0
 15 32  1  0  0  0  0
 16 20  1  0  0  0  0
 16 17  1  0  0  0  0
 16 33  1  0  0  0  0
 17 18  1  0  0  0  0
 17 34  1  0  0  0  0
 17 35  1  0  0  0  0
 18 19  1  0  0  0  0
 18 36  1  0  0  0  0
 18 37  1  0  0  0  0
 19 20  1  0  0  0  0
 19 38  1  0  0  0  0
 19 39  1  0  0  0  0
 20 40  1  0  0  0  0
 20 41  1  0  0  0  0
M  END
> <s_m_source_file>
AV-unprocessed.smi

> <i_m_source_file_index>
2998

> <i_lp_mmshare_version>
43012

> <i_f3d_flags>
0

> <s_epik_input>
W0NIMl0xW0NIMl1bQ0gyXVtDSDJdW0NIXTFbTkhdQyg9TylbQ0gyXW4yW2NIXW5jKFtjSF1jMj1PKVtDSF0zW0NIMl1bQ0gyXVtDSDJdMw==

> <s_epik_cmdline>
J2VwaWtfcHl0aG9uJywgJy1waCcsICc3LjAnLCAnLXRuJywgJzgnLCAnLW1hJywgJzIwMCcsICctbWV0YWxfYmluZGluZycsICctaW1hZScsICc8aW5maWxlLm1hZT4nLCAnLW9tYWUnLCAnPG91dGZpbGUubWFlPic=

> <r_lp_tautomer_probability>
1

> <r_epik_Ionization_Penalty>
7.51496e-06

> <r_epik_Ionization_Penalty_Charging>
8.69507e-09

> <r_epik_Ionization_Penalty_Neutral>
7.50627e-06

> <r_epik_State_Penalty>
-0

> <r_epik_Charging_Adjusted_Penalty>
8.69507e-09

> <i_epik_Tot_Q>
0

> <i_epik_Tot_abs_Q>
0

> <r_epik_Metal_State_Penalty>
-0

> <b_epik_Metal_Only>
0

> <s_lp_Force_Field>
OPLS_2005

> <r_lp_Energy>
32.6408

> <b_lp_Chiralities_Consistent>
1

> <s_lp_Variant>
AV-unprocessed.smi:2998-1

> <Gold.Version>
5.8.1

> <Gold.Id.Protein>
6NUR|6NUR_protein|mol2

> <Gold.PLP.Fitness>
44.8715

> <Gold.PLP.PLP>
-39.7761

> <Gold.PLP.part.hbond>
-4.4688

> <Gold.PLP.part.metal>
0.0000

> <Gold.PLP.part.buried>
0.4555

> <Gold.PLP.part.nonpolar>
-35.2261

> <Gold.PLP.part.repulsive>
1.2636

> <Gold.PLP.ligand.clash>
0.0000

> <Gold.PLP.ligand.torsion>
0.5379

> <Gold.PLP.Chemscore.Hbond>
1.9312

> <Gold.PLP.Chemscore.CHOScore>
0.0000

> <Gold.PLP.Chemscore.Metal>
0.0000

> <Gold.Chemscore.Hbonds>
donor molecule, donor type, donor heavy atom, donor atom, acceptor molecule, acceptor atom, score
      L1  H    15    32       P1  7948  0.09
      P1  H  8011  8017       L1    14  0.66
      P1  H 10752 10765       L1     1  0.07

> <Gold.PLP.Chemscore.Internal.Correction>
0.3775

> <Gold.Rescore>
     Score         DG    S(hbond)    S(metal)    S(lipo)     H(rot)  DE(clash)    DE(int)     intcor
     14.04     -18.61       2.08        0.00      88.46       1.63       2.21       2.37       ----

> <Gold.Chemscore.Fitness>
14.0396

> <Gold.Chemscore.DG>
-18.6125

> <Gold.Chemscore.ZeroCoef>
-5.4800

> <Gold.Chemscore.Hbond>
2.0817

> <Gold.Chemscore.Metal>
0.0000

> <Gold.Chemscore.Lipo>
88.4600

> <Gold.Chemscore.Internal_Hbond>
0.0000

> <Gold.Chemscore.DEClash>
2.2068

> <Gold.Chemscore.DEInternal>
2.3661

> <Gold.Chemscore.Rot>
1.6290

> <Gold.Chemscore.Internal.Correction>
   9.000000E+99

> <Gold.Chemscore.Hbonds>
donor molecule, donor type, donor heavy atom, donor atom, acceptor molecule, acceptor atom, score
      P1  H  8011  8017       L1    14  0.61

> <Gold.Chemscore.Hbond.Weighted>
-6.9528

> <Gold.Chemscore.Metal.Weighted>
-0.0000

> <Gold.Chemscore.Lipo.Weighted>
-10.3498

> <Gold.Chemscore.Internal_Hbond.Weighted>
0.0000

> <Gold.Chemscore.DEClash.Weighted>
2.2068

> <Gold.Chemscore.DEInternal.Weighted>
2.3661

> <Gold.Chemscore.Rot.Weighted>
4.1702

> <Gold.Chemscore.Internal.Correction.Weighted>
   9.000000E+99

> <Gold.Protein.RotatedTorsions>
[ 6907 6896 6895 6894 ] final  -84.77 input  -60.11 | X-H torsion
[ 7974 7965 7964 7962 ] final   70.63 input  175.53 | X-H torsion
[ 8008 7997 7996 7995 ] final -131.99 input   59.86 | X-H torsion
[ 10167 10162 10161 10158 ] final   -1.32 input  -65.29 | X-H torsion
[ 10718 10713 10712 10709 ] final   23.14 input   66.30 | X-H torsion
[ 10763 10752 10751 10750 ] final -168.79 input  -60.55 | X-H torsion
[ 11005 11000 10999 10996 ] final   25.70 input  -57.11 | X-H torsion

> <Gold.Protein.ActiveResidues>
 VAL166  LYS551  ARG553  GLY616  TRP617  ASP618  TYR619  PRO620  LYS621  CYS622 
 ASP623  PHE694  ASN695  SER759  ASP760  ASP761  ALA762  ILE779  LEU786  VAL792 
 PHE793  MET794  SER795  GLU796  ALA797  LYS798  CYS799  TRP800  GLU811  SER814 

> <Gold.Protein.RotatedAtoms>
  150.6874  134.3307  159.4825 H   0  0  0  0  0  0  0  0  0  0  0  0  # atno 6907 bound_to 6896
  152.1172  134.9229  160.0573 H   0  0  0  0  0  0  0  0  0  0  0  0  # atno 6908 bound_to 6896
  152.0449  133.3959  159.4389 H   0  0  0  0  0  0  0  0  0  0  0  0  # atno 6909 bound_to 6896
  145.7758  139.2864  143.1294 H   0  0  0  0  0  0  0  0  0  0  0  0  # atno 7974 bound_to 7965
  155.3214  140.0462  157.3039 H   0  0  0  0  0  0  0  0  0  0  0  0  # atno 8008 bound_to 7997
  154.5378  140.2278  155.8659 H   0  0  0  0  0  0  0  0  0  0  0  0  # atno 8009 bound_to 7997
  156.1852  140.3064  155.9230 H   0  0  0  0  0  0  0  0  0  0  0  0  # atno 8010 bound_to 7997
  140.6805  143.6789  150.8122 H   0  0  0  0  0  0  0  0  0  0  0  0  # atno 10167 bound_to 10162
  157.1620  130.6721  149.6047 H   0  0  0  0  0  0  0  0  0  0  0  0  # atno 10718 bound_to 10713
  154.6591  135.2922  154.9889 H   0  0  0  0  0  0  0  0  0  0  0  0  # atno 10763 bound_to 10752
  154.0955  135.6584  153.4863 H   0  0  0  0  0  0  0  0  0  0  0  0  # atno 10764 bound_to 10752
  153.0419  135.5230  154.7534 H   0  0  0  0  0  0  0  0  0  0  0  0  # atno 10765 bound_to 10752
  140.3450  134.2292  155.7686 H   0  0  0  0  0  0  0  0  0  0  0  0  # atno 11005 bound_to 11000
  146.0124  140.8424  142.9964 LP  0  0  0  0  0  0  0  0  0  0  0  0  # atno 17320 bound_to 7965
  144.6804  140.2509  143.7332 LP  0  0  0  0  0  0  0  0  0  0  0  0  # atno 17321 bound_to 7965
  140.0489  143.5270  152.2683 LP  0  0  0  0  0  0  0  0  0  0  0  0  # atno 17342 bound_to 10162
  139.6125  144.7612  151.2921 LP  0  0  0  0  0  0  0  0  0  0  0  0  # atno 17343 bound_to 10162
  155.9752  130.4708  150.6443 LP  0  0  0  0  0  0  0  0  0  0  0  0  # atno 17370 bound_to 10713
  157.4123  131.0825  151.1209 LP  0  0  0  0  0  0  0  0  0  0  0  0  # atno 17371 bound_to 10713
  141.2028  133.7928  157.0372 LP  0  0  0  0  0  0  0  0  0  0  0  0  # atno 17394 bound_to 11000
  140.0750  134.9681  157.1530 LP  0  0  0  0  0  0  0  0  0  0  0  0  # atno 17395 bound_to 11000

$$$$
