AV-unprocessed.smi:3328|AV-procd|sdf|12791|dock7
  -GOLD-   2272019143D 1   1.00000     0.00000
 Structure written by MMmdl.
 41 42  0  0  0  0  0  0  0  0  2 V2000
  151.0402  145.4852  160.0480 C   0  0  0  0  0  0  0  0  0  0  0  0
  151.8683  144.2706  160.3527 C   0  0  0  0  0  0  0  0  0  0  0  0
  152.1241  143.6836  161.6244 C   0  0  0  0  0  0  0  0  0  0  0  0
  152.9059  142.6188  161.5509 N   0  0  0  0  0  0  0  0  0  0  0  0
  153.1739  142.4879  160.2342 N   0  0  0  0  0  0  0  0  0  0  0  0
  154.0426  141.4175  159.7793 C   0  0  0  0  0  0  0  0  0  0  0  0
  153.7323  140.0635  160.4543 C   0  0  2  0  0  0  0  0  0  0  0  0
  154.6506  139.8386  161.6632 C   0  0  0  0  0  0  0  0  0  0  0  0
  153.8894  138.9413  159.5007 N   0  3  0  0  0  0  0  0  0  0  0  0
  152.7749  138.7738  158.5448 C   0  0  0  0  0  0  0  0  0  0  0  0
  153.2622  138.1139  157.2465 C   0  0  0  0  0  0  0  0  0  0  0  0
  152.2519  138.1808  156.1942 N   0  0  0  0  0  0  0  0  0  0  0  0
  151.8104  139.4609  155.6668 C   0  0  0  0  0  0  0  0  0  0  0  0
  150.8728  139.1122  154.5014 C   0  0  0  0  0  0  0  0  0  0  0  0
  150.5779  137.6138  154.6338 C   0  0  0  0  0  0  0  0  0  0  0  0
  151.5886  137.1448  155.6662 C   0  0  0  0  0  0  0  0  0  0  0  0
  151.7467  135.9598  155.9561 O   0  0  0  0  0  0  0  0  0  0  0  0
  152.5554  143.4676  159.4870 C   0  0  0  0  0  0  0  0  0  0  0  0
  150.7876  146.0405  160.9516 H   0  0  0  0  0  0  0  0  0  0  0  0
  150.1018  145.2191  159.5610 H   0  0  0  0  0  0  0  0  0  0  0  0
  151.5640  146.1738  159.3849 H   0  0  0  0  0  0  0  0  0  0  0  0
  151.7721  144.0032  162.5943 H   0  0  0  0  0  0  0  0  0  0  0  0
  153.9622  141.3325  158.6940 H   0  0  0  0  0  0  0  0  0  0  0  0
  155.0716  141.7118  159.9896 H   0  0  0  0  0  0  0  0  0  0  0  0
  152.7059  140.0771  160.8257 H   0  0  0  0  0  0  0  0  0  0  0  0
  154.5338  140.6355  162.3985 H   0  0  0  0  0  0  0  0  0  0  0  0
  155.6999  139.8120  161.3666 H   0  0  0  0  0  0  0  0  0  0  0  0
  154.4207  138.8965  162.1621 H   0  0  0  0  0  0  0  0  0  0  0  0
  154.7448  139.0881  158.9834 H   0  0  0  0  0  0  0  0  0  0  0  0
  151.9953  138.1688  159.0091 H   0  0  0  0  0  0  0  0  0  0  0  0
  152.3310  139.7435  158.3227 H   0  0  0  0  0  0  0  0  0  0  0  0
  154.1729  138.6031  156.8963 H   0  0  0  0  0  0  0  0  0  0  0  0
  153.5243  137.0715  157.4334 H   0  0  0  0  0  0  0  0  0  0  0  0
  151.2787  140.0089  156.4459 H   0  0  0  0  0  0  0  0  0  0  0  0
  152.6556  140.0671  155.3378 H   0  0  0  0  0  0  0  0  0  0  0  0
  149.9610  139.7100  154.5269 H   0  0  0  0  0  0  0  0  0  0  0  0
  151.3669  139.3107  153.5493 H   0  0  0  0  0  0  0  0  0  0  0  0
  149.5686  137.4375  155.0067 H   0  0  0  0  0  0  0  0  0  0  0  0
  150.6997  137.0847  153.6882 H   0  0  0  0  0  0  0  0  0  0  0  0
  152.6619  143.5177  158.4133 H   0  0  0  0  0  0  0  0  0  0  0  0
  153.9753  138.0829  160.0261 H   0  0  0  0  0  0  0  0  0  0  0  0
  1  2  1  0  0  0  0
  1 19  1  0  0  0  0
  1 20  1  0  0  0  0
  1 21  1  0  0  0  0
  2 18  2  0  0  0  0
  2  3  1  0  0  0  0
  3  4  2  0  0  0  0
  3 22  1  0  0  0  0
  4  5  1  0  0  0  0
  5  6  1  0  0  0  0
  5 18  1  0  0  0  0
  6  7  1  0  0  0  0
  6 23  1  0  0  0  0
  6 24  1  0  0  0  0
  7  8  1  0  0  0  0
  7  9  1  0  0  0  0
  7 25  1  0  0  0  0
  8 26  1  0  0  0  0
  8 27  1  0  0  0  0
  8 28  1  0  0  0  0
  9 10  1  0  0  0  0
  9 29  1  0  0  0  0
  9 41  1  0  0  0  0
 10 11  1  0  0  0  0
 10 30  1  0  0  0  0
 10 31  1  0  0  0  0
 11 12  1  0  0  0  0
 11 32  1  0  0  0  0
 11 33  1  0  0  0  0
 12 16  1  0  0  0  0
 12 13  1  0  0  0  0
 13 14  1  0  0  0  0
 13 34  1  0  0  0  0
 13 35  1  0  0  0  0
 14 15  1  0  0  0  0
 14 36  1  0  0  0  0
 14 37  1  0  0  0  0
 15 16  1  0  0  0  0
 15 38  1  0  0  0  0
 15 39  1  0  0  0  0
 16 17  2  0  0  0  0
 18 40  1  0  0  0  0
M  CHG  1   9   1
M  END
> <s_m_source_file>
AV-unprocessed.smi

> <i_m_source_file_index>
3328

> <i_lp_mmshare_version>
43012

> <i_f3d_flags>
0

> <s_epik_input>
W0NIM11jMVtjSF1ubihbY0hdMSlbQ0gyXVtDQEhdKFtDSDNdKVtOSF1bQ0gyXVtDSDJdTjJbQ0gyXVtDSDJdW0NIMl1DMj1P

> <s_epik_cmdline>
J2VwaWtfcHl0aG9uJywgJy1waCcsICc3LjAnLCAnLXRuJywgJzgnLCAnLW1hJywgJzIwMCcsICctbWV0YWxfYmluZGluZycsICctaW1hZScsICc8aW5maWxlLm1hZT4nLCAnLW9tYWUnLCAnPG91dGZpbGUubWFlPic=

> <r_lp_tautomer_probability>
1

> <r_epik_Ionization_Penalty>
0.00826719

> <r_epik_Ionization_Penalty_Charging>
0.00825899

> <r_epik_Ionization_Penalty_Neutral>
8.19932e-06

> <r_epik_State_Penalty>
0.00621436

> <r_epik_Charging_Adjusted_Penalty>
0.0144734

> <i_epik_Tot_Q>
1

> <i_epik_Tot_abs_Q>
1

> <r_epik_Metal_State_Penalty>
0.00621509

> <b_epik_Metal_Only>
0

> <s_lp_Force_Field>
OPLS_2005

> <r_lp_Energy>
18.6505

> <b_lp_Chiralities_Consistent>
1

> <s_lp_Variant>
AV-unprocessed.smi:3328-1

> <Gold.Version>
5.8.1

> <Gold.Id.Protein>
6NUR|6NUR_protein|mol2

> <Gold.PLP.Fitness>
42.9489

> <Gold.PLP.PLP>
-42.0735

> <Gold.PLP.part.hbond>
-1.0000

> <Gold.PLP.part.metal>
0.0000

> <Gold.PLP.part.buried>
-3.3548

> <Gold.PLP.part.nonpolar>
-37.2007

> <Gold.PLP.part.repulsive>
0.1386

> <Gold.PLP.ligand.clash>
0.0000

> <Gold.PLP.ligand.torsion>
1.1016

> <Gold.PLP.Chemscore.Hbond>
1.0000

> <Gold.PLP.Chemscore.CHOScore>
0.0000

> <Gold.PLP.Chemscore.Metal>
0.0000

> <Gold.Chemscore.Hbonds>
donor molecule, donor type, donor heavy atom, donor atom, acceptor molecule, acceptor atom, score
      P1  H 10752 10764       L1    17  1.00

> <Gold.PLP.Chemscore.Internal.Correction>
0.0787

> <Gold.Rescore>
     Score         DG    S(hbond)    S(metal)    S(lipo)     H(rot)  DE(clash)    DE(int)     intcor
     14.93     -15.89       0.97        0.00     104.53       1.97       0.01       0.95       ----

> <Gold.Chemscore.Fitness>
14.9286

> <Gold.Chemscore.DG>
-15.8865

> <Gold.Chemscore.ZeroCoef>
-5.4800

> <Gold.Chemscore.Hbond>
0.9652

> <Gold.Chemscore.Metal>
0.0000

> <Gold.Chemscore.Lipo>
104.5256

> <Gold.Chemscore.Internal_Hbond>
0.0000

> <Gold.Chemscore.DEClash>
0.0126

> <Gold.Chemscore.DEInternal>
0.9453

> <Gold.Chemscore.Rot>
1.9714

> <Gold.Chemscore.Internal.Correction>
   9.000000E+99

> <Gold.Chemscore.Hbonds>
donor molecule, donor type, donor heavy atom, donor atom, acceptor molecule, acceptor atom, score
      P1  H 10752 10764       L1    17  0.59

> <Gold.Chemscore.Hbond.Weighted>
-3.2238

> <Gold.Chemscore.Metal.Weighted>
-0.0000

> <Gold.Chemscore.Lipo.Weighted>
-12.2295

> <Gold.Chemscore.Internal_Hbond.Weighted>
0.0000

> <Gold.Chemscore.DEClash.Weighted>
0.0126

> <Gold.Chemscore.DEInternal.Weighted>
0.9453

> <Gold.Chemscore.Rot.Weighted>
5.0468

> <Gold.Chemscore.Internal.Correction.Weighted>
   9.000000E+99

> <Gold.Protein.RotatedTorsions>
[ 6907 6896 6895 6894 ] final  -91.29 input  -60.11 | X-H torsion
[ 7974 7965 7964 7962 ] final   41.37 input  175.53 | X-H torsion
[ 8008 7997 7996 7995 ] final  -79.60 input   59.86 | X-H torsion
[ 10167 10162 10161 10158 ] final    6.50 input  -65.29 | X-H torsion
[ 10718 10713 10712 10709 ] final    5.33 input   66.30 | X-H torsion
[ 10763 10752 10751 10750 ] final  -19.15 input  -60.55 | X-H torsion
[ 11005 11000 10999 10996 ] final  -30.80 input  -57.11 | X-H torsion

> <Gold.Protein.ActiveResidues>
 VAL166  LYS551  ARG553  GLY616  TRP617  ASP618  TYR619  PRO620  LYS621  CYS622 
 ASP623  PHE694  ASN695  SER759  ASP760  ASP761  ALA762  ILE779  LEU786  VAL792 
 PHE793  MET794  SER795  GLU796  ALA797  LYS798  CYS799  TRP800  GLU811  SER814 

> <Gold.Protein.RotatedAtoms>
  150.6891  134.2300  159.4430 H   0  0  0  0  0  0  0  0  0  0  0  0  # atno 6907 bound_to 6896
  152.0251  134.9798  160.0580 H   0  0  0  0  0  0  0  0  0  0  0  0  # atno 6908 bound_to 6896
  152.1359  133.4400  159.4780 H   0  0  0  0  0  0  0  0  0  0  0  0  # atno 6909 bound_to 6896
  146.0829  139.5424  142.9525 H   0  0  0  0  0  0  0  0  0  0  0  0  # atno 7974 bound_to 7965
  154.5801  140.0676  156.9091 H   0  0  0  0  0  0  0  0  0  0  0  0  # atno 8008 bound_to 7997
  155.2478  140.3349  155.4267 H   0  0  0  0  0  0  0  0  0  0  0  0  # atno 8009 bound_to 7997
  156.2183  140.1788  156.7522 H   0  0  0  0  0  0  0  0  0  0  0  0  # atno 8010 bound_to 7997
  140.6424  143.7742  150.7448 H   0  0  0  0  0  0  0  0  0  0  0  0  # atno 10167 bound_to 10162
  156.9057  130.5738  149.5647 H   0  0  0  0  0  0  0  0  0  0  0  0  # atno 10718 bound_to 10713
  153.6004  135.6999  153.5387 H   0  0  0  0  0  0  0  0  0  0  0  0  # atno 10763 bound_to 10752
  153.3102  135.4103  155.1329 H   0  0  0  0  0  0  0  0  0  0  0  0  # atno 10764 bound_to 10752
  154.8583  135.3670  154.5539 H   0  0  0  0  0  0  0  0  0  0  0  0  # atno 10765 bound_to 10752
  140.9413  133.7277  156.1081 H   0  0  0  0  0  0  0  0  0  0  0  0  # atno 11005 bound_to 11000
  145.6184  141.0327  143.1928 LP  0  0  0  0  0  0  0  0  0  0  0  0  # atno 17320 bound_to 7965
  144.7306  139.7739  143.7349 LP  0  0  0  0  0  0  0  0  0  0  0  0  # atno 17321 bound_to 7965
  140.1376  143.4469  152.2214 LP  0  0  0  0  0  0  0  0  0  0  0  0  # atno 17342 bound_to 10162
  139.5634  144.7420  151.4092 LP  0  0  0  0  0  0  0  0  0  0  0  0  # atno 17343 bound_to 10162
  156.0560  130.5621  150.9092 LP  0  0  0  0  0  0  0  0  0  0  0  0  # atno 17370 bound_to 10713
  157.5998  131.0941  150.8979 LP  0  0  0  0  0  0  0  0  0  0  0  0  # atno 17371 bound_to 10713
  140.7729  134.3812  157.5504 LP  0  0  0  0  0  0  0  0  0  0  0  0  # atno 17394 bound_to 11000
  139.8821  134.9034  156.2853 LP  0  0  0  0  0  0  0  0  0  0  0  0  # atno 17395 bound_to 11000

$$$$
