AV-unprocessed.smi:1323|AV-procd|sdf|5467|dock10
  -GOLD-   22720 5 33D 1   1.00000     0.00000
 Structure written by MMmdl.
 45 46  0  0  0  0  0  0  0  0  1 V2000
  151.6267  137.9984  154.5399 C   0  0  0  0  0  0  0  0  0  0  0  0
  150.6516  139.1704  154.3548 C   0  0  2  0  0  0  0  0  0  0  0  0
  150.7873  140.2123  155.4834 C   0  0  0  0  0  0  0  0  0  0  0  0
  149.8571  141.4138  155.2549 C   0  0  0  0  0  0  0  0  0  0  0  0
  148.3966  140.9659  155.0951 C   0  0  0  0  0  0  0  0  0  0  0  0
  148.2513  139.9175  153.9785 C   0  0  0  0  0  0  0  0  0  0  0  0
  149.1820  138.7107  154.1989 C   0  0  2  0  0  0  0  0  0  0  0  0
  148.7483  138.0500  155.3811 O   0  0  0  0  0  0  0  0  0  0  0  0
  147.8347  136.9847  155.1734 C   0  0  0  0  0  0  0  0  0  0  0  0
  148.5830  135.6505  155.3055 C   0  0  0  0  0  0  0  0  0  0  0  0
  148.4674  134.8460  154.0929 N   0  0  0  0  0  0  0  0  0  0  0  0
  147.8316  133.6674  154.0024 C   0  0  0  0  0  0  0  0  0  0  0  0
  147.2493  133.1403  154.9513 O   0  0  0  0  0  0  0  0  0  0  0  0
  147.8380  133.0012  152.6192 C   0  0  0  0  0  0  0  0  0  0  0  0
  146.5500  133.1206  151.9156 N   0  0  0  0  0  0  0  0  0  0  0  0
  146.1360  134.4185  151.5549 C   0  0  0  0  0  0  0  0  0  0  0  0
  144.9724  134.6436  150.9247 C   0  0  0  0  0  0  0  0  0  0  0  0
  144.1328  133.5100  150.6167 C   0  0  0  0  0  0  0  0  0  0  0  0
  144.5196  132.2643  150.9562 C   0  0  0  0  0  0  0  0  0  0  0  0
  145.7936  132.0137  151.6398 C   0  0  0  0  0  0  0  0  0  0  0  0
  146.1573  130.8777  151.9432 O   0  0  0  0  0  0  0  0  0  0  0  0
  151.4347  137.4623  155.4692 H   0  0  0  0  0  0  0  0  0  0  0  0
  152.6586  138.3492  154.5705 H   0  0  0  0  0  0  0  0  0  0  0  0
  151.5449  137.2858  153.7192 H   0  0  0  0  0  0  0  0  0  0  0  0
  150.9344  139.6638  153.4238 H   0  0  0  0  0  0  0  0  0  0  0  0
  150.5546  139.7513  156.4437 H   0  0  0  0  0  0  0  0  0  0  0  0
  151.8190  140.5583  155.5521 H   0  0  0  0  0  0  0  0  0  0  0  0
  149.9419  142.1120  156.0879 H   0  0  0  0  0  0  0  0  0  0  0  0
  150.1729  141.9559  154.3630 H   0  0  0  0  0  0  0  0  0  0  0  0
  148.0379  140.5505  156.0379 H   0  0  0  0  0  0  0  0  0  0  0  0
  147.7652  141.8280  154.8794 H   0  0  0  0  0  0  0  0  0  0  0  0
  147.2154  139.5823  153.9164 H   0  0  0  0  0  0  0  0  0  0  0  0
  148.4817  140.3804  153.0182 H   0  0  0  0  0  0  0  0  0  0  0  0
  149.0939  138.0525  153.3322 H   0  0  0  0  0  0  0  0  0  0  0  0
  147.0435  137.0439  155.9219 H   0  0  0  0  0  0  0  0  0  0  0  0
  147.3597  137.0539  154.1941 H   0  0  0  0  0  0  0  0  0  0  0  0
  149.6294  135.8192  155.5654 H   0  0  0  0  0  0  0  0  0  0  0  0
  148.1518  135.0742  156.1240 H   0  0  0  0  0  0  0  0  0  0  0  0
  148.9128  135.2082  153.2623 H   0  0  0  0  0  0  0  0  0  0  0  0
  148.6334  133.4563  152.0276 H   0  0  0  0  0  0  0  0  0  0  0  0
  148.1240  131.9524  152.7206 H   0  0  0  0  0  0  0  0  0  0  0  0
  146.8172  135.2109  151.8297 H   0  0  0  0  0  0  0  0  0  0  0  0
  144.6701  135.6460  150.6598 H   0  0  0  0  0  0  0  0  0  0  0  0
  143.1890  133.6620  150.1139 H   0  0  0  0  0  0  0  0  0  0  0  0
  143.8776  131.4283  150.7202 H   0  0  0  0  0  0  0  0  0  0  0  0
  1  2  1  0  0  0  0
  1 22  1  0  0  0  0
  1 23  1  0  0  0  0
  1 24  1  0  0  0  0
  2  7  1  0  0  0  0
  2  3  1  0  0  0  0
  2 25  1  0  0  0  0
  3  4  1  0  0  0  0
  3 26  1  0  0  0  0
  3 27  1  0  0  0  0
  4  5  1  0  0  0  0
  4 28  1  0  0  0  0
  4 29  1  0  0  0  0
  5  6  1  0  0  0  0
  5 30  1  0  0  0  0
  5 31  1  0  0  0  0
  6  7  1  0  0  0  0
  6 32  1  0  0  0  0
  6 33  1  0  0  0  0
  7  8  1  0  0  0  0
  7 34  1  0  0  0  0
  8  9  1  0  0  0  0
  9 10  1  0  0  0  0
  9 35  1  0  0  0  0
  9 36  1  0  0  0  0
 10 11  1  0  0  0  0
 10 37  1  0  0  0  0
 10 38  1  0  0  0  0
 11 12  1  0  0  0  0
 11 39  1  0  0  0  0
 12 13  2  0  0  0  0
 12 14  1  0  0  0  0
 14 15  1  0  0  0  0
 14 40  1  0  0  0  0
 14 41  1  0  0  0  0
 15 20  1  0  0  0  0
 15 16  1  0  0  0  0
 16 17  2  0  0  0  0
 16 42  1  0  0  0  0
 17 18  1  0  0  0  0
 17 43  1  0  0  0  0
 18 19  2  0  0  0  0
 18 44  1  0  0  0  0
 19 20  1  0  0  0  0
 19 45  1  0  0  0  0
 20 21  2  0  0  0  0
M  END
> <s_m_source_file>
AV-unprocessed.smi

> <i_m_source_file_index>
1323

> <i_lp_mmshare_version>
43012

> <i_f3d_flags>
0

> <s_epik_input>
W0NIM11bQ0BASF0xW0NIMl1bQ0gyXVtDSDJdW0NIMl1bQ0BIXTFPW0NIMl1bQ0gyXVtOSF1DKD1PKVtDSDJdbjJbY0hdW2NIXVtjSF1bY0hdYzI9Tw==

> <s_epik_cmdline>
J2VwaWtfcHl0aG9uJywgJy1waCcsICc3LjAnLCAnLXRuJywgJzgnLCAnLW1hJywgJzIwMCcsICctbWV0YWxfYmluZGluZycsICctaW1hZScsICc8aW5maWxlLm1hZT4nLCAnLW9tYWUnLCAnPG91dGZpbGUubWFlPic=

> <r_lp_tautomer_probability>
1

> <r_epik_Ionization_Penalty>
4.02412e-07

> <r_epik_Ionization_Penalty_Charging>
3.74552e-07

> <r_epik_Ionization_Penalty_Neutral>
2.78599e-08

> <r_epik_State_Penalty>
-0

> <r_epik_Charging_Adjusted_Penalty>
3.74552e-07

> <i_epik_Tot_Q>
0

> <i_epik_Tot_abs_Q>
0

> <r_epik_Metal_State_Penalty>
-0

> <b_epik_Metal_Only>
0

> <s_lp_Force_Field>
OPLS_2005

> <r_lp_Energy>
19.1209

> <b_lp_Chiralities_Consistent>
1

> <s_lp_Variant>
AV-unprocessed.smi:1323-3

> <Gold.Version>
5.8.1

> <Gold.Id.Protein>
6NUR|6NUR_protein|mol2

> <Gold.PLP.Fitness>
41.5897

> <Gold.PLP.PLP>
-38.2579

> <Gold.PLP.part.hbond>
-1.0000

> <Gold.PLP.part.metal>
0.0000

> <Gold.PLP.part.buried>
-3.4179

> <Gold.PLP.part.nonpolar>
-34.0930

> <Gold.PLP.part.repulsive>
0.2348

> <Gold.PLP.ligand.clash>
0.0000

> <Gold.PLP.ligand.torsion>
1.3584

> <Gold.PLP.Chemscore.Hbond>
1.0000

> <Gold.PLP.Chemscore.CHOScore>
1.0000

> <Gold.PLP.Chemscore.Metal>
0.0000

> <Gold.Chemscore.Hbonds>
donor molecule, donor type, donor heavy atom, donor atom, acceptor molecule, acceptor atom, score
      L1  H    11    39       P1  7948  1.00
      L1  C    16    42       P1  7948  1.00

> <Gold.PLP.Chemscore.Internal.Correction>
0.0487

> <Gold.Rescore>
     Score         DG    S(hbond)    S(metal)    S(lipo)     H(rot)  DE(clash)    DE(int)     intcor
     11.69     -13.06       0.84        0.00      83.11       1.94       0.00       1.36       ----

> <Gold.Chemscore.Fitness>
11.6921

> <Gold.Chemscore.DG>
-13.0582

> <Gold.Chemscore.ZeroCoef>
-5.4800

> <Gold.Chemscore.Hbond>
0.8444

> <Gold.Chemscore.Metal>
0.0000

> <Gold.Chemscore.Lipo>
83.1089

> <Gold.Chemscore.Internal_Hbond>
0.0000

> <Gold.Chemscore.DEClash>
0.0029

> <Gold.Chemscore.DEInternal>
1.3631

> <Gold.Chemscore.Rot>
1.9398

> <Gold.Chemscore.Internal.Correction>
   9.000000E+99

> <Gold.Chemscore.Hbonds>
donor molecule, donor type, donor heavy atom, donor atom, acceptor molecule, acceptor atom, score
      L1  H    11    39       P1  7948  0.49

> <Gold.Chemscore.Hbond.Weighted>
-2.8204

> <Gold.Chemscore.Metal.Weighted>
-0.0000

> <Gold.Chemscore.Lipo.Weighted>
-9.7237

> <Gold.Chemscore.Internal_Hbond.Weighted>
0.0000

> <Gold.Chemscore.DEClash.Weighted>
0.0029

> <Gold.Chemscore.DEInternal.Weighted>
1.3631

> <Gold.Chemscore.Rot.Weighted>
4.9659

> <Gold.Chemscore.Internal.Correction.Weighted>
   9.000000E+99

> <Gold.Protein.RotatedTorsions>
[ 6907 6896 6895 6894 ] final  -13.15 input  -60.11 | X-H torsion
[ 7974 7965 7964 7962 ] final   66.96 input  175.53 | X-H torsion
[ 8008 7997 7996 7995 ] final  -46.54 input   59.86 | X-H torsion
[ 10167 10162 10161 10158 ] final  -90.31 input  -65.29 | X-H torsion
[ 10718 10713 10712 10709 ] final   -2.20 input   66.30 | X-H torsion
[ 10763 10752 10751 10750 ] final  -17.39 input  -60.55 | X-H torsion
[ 11005 11000 10999 10996 ] final  -88.53 input  -57.11 | X-H torsion

> <Gold.Protein.ActiveResidues>
 VAL166  LYS551  ARG553  GLY616  TRP617  ASP618  TYR619  PRO620  LYS621  CYS622 
 ASP623  PHE694  ASN695  SER759  ASP760  ASP761  ALA762  ILE779  LEU786  VAL792 
 PHE793  MET794  SER795  GLU796  ALA797  LYS798  CYS799  TRP800  GLU811  SER814 

> <Gold.Protein.RotatedAtoms>
  151.3594  135.0901  159.9429 H   0  0  0  0  0  0  0  0  0  0  0  0  # atno 6907 bound_to 6896
  152.5166  133.9274  159.7574 H   0  0  0  0  0  0  0  0  0  0  0  0  # atno 6908 bound_to 6896
  150.9665  133.6335  159.2774 H   0  0  0  0  0  0  0  0  0  0  0  0  # atno 6909 bound_to 6896
  145.8204  139.3081  143.1047 H   0  0  0  0  0  0  0  0  0  0  0  0  # atno 7974 bound_to 7965
  154.4008  140.1369  156.4028 H   0  0  0  0  0  0  0  0  0  0  0  0  # atno 8008 bound_to 7997
  155.7808  140.3481  155.5276 H   0  0  0  0  0  0  0  0  0  0  0  0  # atno 8009 bound_to 7997
  155.8676  140.0966  157.1562 H   0  0  0  0  0  0  0  0  0  0  0  0  # atno 8010 bound_to 7997
  140.3562  143.2865  151.9668 H   0  0  0  0  0  0  0  0  0  0  0  0  # atno 10167 bound_to 10162
  156.7944  130.5372  149.5731 H   0  0  0  0  0  0  0  0  0  0  0  0  # atno 10718 bound_to 10713
  153.5732  135.7007  153.5495 H   0  0  0  0  0  0  0  0  0  0  0  0  # atno 10763 bound_to 10752
  153.3326  135.4043  155.1507 H   0  0  0  0  0  0  0  0  0  0  0  0  # atno 10764 bound_to 10752
  154.8630  135.3722  154.5256 H   0  0  0  0  0  0  0  0  0  0  0  0  # atno 10765 bound_to 10752
  141.1600  133.7575  156.9465 H   0  0  0  0  0  0  0  0  0  0  0  0  # atno 11005 bound_to 11000
  145.9681  140.8782  143.0176 LP  0  0  0  0  0  0  0  0  0  0  0  0  # atno 17320 bound_to 7965
  144.6748  140.1907  143.7397 LP  0  0  0  0  0  0  0  0  0  0  0  0  # atno 17321 bound_to 7965
  139.4820  144.6033  151.7567 LP  0  0  0  0  0  0  0  0  0  0  0  0  # atno 17342 bound_to 10162
  140.5171  144.0936  150.6011 LP  0  0  0  0  0  0  0  0  0  0  0  0  # atno 17343 bound_to 10162
  156.1139  130.6061  151.0091 LP  0  0  0  0  0  0  0  0  0  0  0  0  # atno 17370 bound_to 10713
  157.6585  131.0885  150.7893 LP  0  0  0  0  0  0  0  0  0  0  0  0  # atno 17371 bound_to 10713
  140.1286  134.9370  157.2305 LP  0  0  0  0  0  0  0  0  0  0  0  0  # atno 17394 bound_to 11000
  140.2981  134.3163  155.7297 LP  0  0  0  0  0  0  0  0  0  0  0  0  # atno 17395 bound_to 11000

$$$$
