AV-unprocessed.smi:1401|AV-procd|sdf|5693|dock4
  -GOLD-   22720 5323D 1   1.00000     0.00000
 Structure written by MMmdl.
 48 50  0  0  0  0  0  0  0  0  1 V2000
  153.9187  137.3621  162.6398 C   0  0  0  0  0  0  0  0  0  0  0  0
  153.8730  137.0598  161.1662 C   0  0  0  0  0  0  0  0  0  0  0  0
  152.8814  137.5566  160.5023 N   0  0  0  0  0  0  0  0  0  0  0  0
  152.7415  137.3350  159.1461 N   0  0  0  0  0  0  0  0  0  0  0  0
  151.5330  137.9304  158.5590 C   0  0  0  0  0  0  0  0  0  0  0  0
  151.8556  139.1857  157.7388 C   0  0  0  0  0  0  0  0  0  0  0  0
  152.7246  139.1480  156.8673 O   0  0  0  0  0  0  0  0  0  0  0  0
  151.1499  140.2881  158.0370 N   0  0  0  0  0  0  0  0  0  0  0  0
  151.3274  141.6083  157.4351 C   0  0  1  0  0  0  0  0  0  0  0  0
  150.3033  141.7581  156.2981 C   0  0  0  0  0  0  0  0  0  0  0  0
  151.1783  142.7206  158.5064 C   0  0  2  0  0  0  0  0  0  0  0  0
  151.1536  144.1480  157.9059 C   0  0  0  0  0  0  0  0  0  0  0  0
  152.2608  144.8824  158.6828 C   0  0  1  0  0  0  0  0  0  0  0  0
  151.8137  145.0946  160.1402 C   0  0  0  0  0  0  0  0  0  0  0  0
  151.8958  143.6736  160.7268 C   0  0  0  0  0  0  0  0  0  0  0  0
  152.3500  142.8321  159.5189 C   0  0  2  0  0  0  0  0  0  0  0  0
  153.3119  143.7898  158.8255 C   0  0  0  0  0  0  0  0  0  0  0  0
  153.6147  136.6162  158.3822 C   0  0  0  0  0  0  0  0  0  0  0  0
  153.4606  136.4590  157.1697 O   0  0  0  0  0  0  0  0  0  0  0  0
  154.7333  136.0541  159.1413 C   0  0  0  0  0  0  0  0  0  0  0  0
  155.6627  135.2822  158.3813 C   0  0  0  0  0  0  0  0  0  0  0  0
  156.4053  134.6584  157.7490 N   0  0  0  0  0  0  0  0  0  0  0  0
  154.8731  136.2509  160.4761 C   0  0  0  0  0  0  0  0  0  0  0  0
  156.0156  135.6871  161.3096 C   0  0  0  0  0  0  0  0  0  0  0  0
  154.8628  137.8356  162.9097 H   0  0  0  0  0  0  0  0  0  0  0  0
  153.8184  136.4475  163.2244 H   0  0  0  0  0  0  0  0  0  0  0  0
  153.1150  138.0356  162.9419 H   0  0  0  0  0  0  0  0  0  0  0  0
  151.0351  137.2153  157.9019 H   0  0  0  0  0  0  0  0  0  0  0  0
  150.8093  138.1617  159.3431 H   0  0  0  0  0  0  0  0  0  0  0  0
  150.4577  140.2165  158.7687 H   0  0  0  0  0  0  0  0  0  0  0  0
  152.3214  141.6784  156.9904 H   0  0  0  0  0  0  0  0  0  0  0  0
  150.4213  142.7051  155.7716 H   0  0  0  0  0  0  0  0  0  0  0  0
  149.2814  141.7153  156.6762 H   0  0  0  0  0  0  0  0  0  0  0  0
  150.4182  140.9632  155.5604 H   0  0  0  0  0  0  0  0  0  0  0  0
  150.2522  142.5357  159.0536 H   0  0  0  0  0  0  0  0  0  0  0  0
  151.3972  144.1404  156.8429 H   0  0  0  0  0  0  0  0  0  0  0  0
  150.1803  144.6275  158.0168 H   0  0  0  0  0  0  0  0  0  0  0  0
  152.6070  145.7933  158.1937 H   0  0  0  0  0  0  0  0  0  0  0  0
  152.4959  145.7654  160.6640 H   0  0  0  0  0  0  0  0  0  0  0  0
  150.8103  145.5166  160.2076 H   0  0  0  0  0  0  0  0  0  0  0  0
  152.6376  143.6326  161.5255 H   0  0  0  0  0  0  0  0  0  0  0  0
  150.9449  143.3348  161.1395 H   0  0  0  0  0  0  0  0  0  0  0  0
  152.7921  141.8847  159.8217 H   0  0  0  0  0  0  0  0  0  0  0  0
  153.6858  143.4167  157.8707 H   0  0  0  0  0  0  0  0  0  0  0  0
  154.1578  144.0816  159.4506 H   0  0  0  0  0  0  0  0  0  0  0  0
  156.6556  135.0196  160.7337 H   0  0  0  0  0  0  0  0  0  0  0  0
  155.6316  135.1164  162.1557 H   0  0  0  0  0  0  0  0  0  0  0  0
  156.6405  136.4938  161.6936 H   0  0  0  0  0  0  0  0  0  0  0  0
  1  2  1  0  0  0  0
  1 25  1  0  0  0  0
  1 26  1  0  0  0  0
  1 27  1  0  0  0  0
  2 23  1  0  0  0  0
  2  3  2  0  0  0  0
  3  4  1  0  0  0  0
  4  5  1  0  0  0  0
  4 18  1  0  0  0  0
  5  6  1  0  0  0  0
  5 28  1  0  0  0  0
  5 29  1  0  0  0  0
  6  7  2  0  0  0  0
  6  8  1  0  0  0  0
  8  9  1  0  0  0  0
  8 30  1  0  0  0  0
  9 10  1  0  0  0  0
  9 11  1  0  0  0  0
  9 31  1  0  0  0  0
 10 32  1  0  0  0  0
 10 33  1  0  0  0  0
 10 34  1  0  0  0  0
 11 16  1  0  0  0  0
 11 12  1  0  0  0  0
 11 35  1  0  0  0  0
 12 13  1  0  0  0  0
 12 36  1  0  0  0  0
 12 37  1  0  0  0  0
 13 17  1  0  0  0  0
 13 14  1  0  0  0  0
 13 38  1  0  0  0  0
 14 15  1  0  0  0  0
 14 39  1  0  0  0  0
 14 40  1  0  0  0  0
 15 16  1  0  0  0  0
 15 41  1  0  0  0  0
 15 42  1  0  0  0  0
 16 17  1  0  0  0  0
 16 43  1  0  0  0  0
 17 44  1  0  0  0  0
 17 45  1  0  0  0  0
 18 19  2  0  0  0  0
 18 20  1  0  0  0  0
 20 21  1  0  0  0  0
 20 23  2  0  0  0  0
 21 22  3  0  0  0  0
 23 24  1  0  0  0  0
 24 46  1  0  0  0  0
 24 47  1  0  0  0  0
 24 48  1  0  0  0  0
M  END
> <s_m_source_file>
AV-unprocessed.smi

> <i_m_source_file_index>
1401

> <i_lp_mmshare_version>
43012

> <i_f3d_flags>
0

> <s_epik_input>
TiNDYyhjMVtDSDNdKWMoPU8pbihuYzFbQ0gzXSlbQ0gyXUMoPU8pW05IXVtDQEhdKFtDSDNdKVtDQEhdKFtDSDJdW0NASF0yMylbQ0BIXShbQ0gyXTMpW0NIMl1bQ0gyXTI=

> <s_epik_cmdline>
J2VwaWtfcHl0aG9uJywgJy1waCcsICc3LjAnLCAnLXRuJywgJzgnLCAnLW1hJywgJzIwMCcsICctbWV0YWxfYmluZGluZycsICctaW1hZScsICc8aW5maWxlLm1hZT4nLCAnLW9tYWUnLCAnPG91dGZpbGUubWFlPic=

> <r_lp_tautomer_probability>
1

> <r_epik_Ionization_Penalty>
2.16501e-08

> <r_epik_Ionization_Penalty_Charging>
2.29436e-11

> <r_epik_Ionization_Penalty_Neutral>
2.16271e-08

> <r_epik_State_Penalty>
-0

> <r_epik_Charging_Adjusted_Penalty>
2.29436e-11

> <i_epik_Tot_Q>
0

> <i_epik_Tot_abs_Q>
0

> <r_epik_Metal_State_Penalty>
-0

> <b_epik_Metal_Only>
0

> <s_lp_Force_Field>
OPLS_2005

> <r_lp_Energy>
65.2014

> <b_lp_Chiralities_Consistent>
1

> <s_lp_Variant>
AV-unprocessed.smi:1401-6

> <Gold.Version>
5.8.1

> <Gold.Id.Protein>
6NUR|6NUR_protein|mol2

> <Gold.PLP.Fitness>
48.9463

> <Gold.PLP.PLP>
-44.2901

> <Gold.PLP.part.hbond>
-2.0000

> <Gold.PLP.part.metal>
0.0000

> <Gold.PLP.part.buried>
-6.3884

> <Gold.PLP.part.nonpolar>
-35.9473

> <Gold.PLP.part.repulsive>
0.0892

> <Gold.PLP.ligand.clash>
0.0000

> <Gold.PLP.ligand.torsion>
0.6828

> <Gold.PLP.Chemscore.Hbond>
2.0000

> <Gold.PLP.Chemscore.CHOScore>
0.0000

> <Gold.PLP.Chemscore.Metal>
0.0000

> <Gold.Chemscore.Hbonds>
donor molecule, donor type, donor heavy atom, donor atom, acceptor molecule, acceptor atom, score
      P1  H  7997  8009       L1     7  1.00
      P1  H 10752 10764       L1    19  0.78

> <Gold.PLP.Chemscore.Internal.Correction>
0.0219

> <Gold.Rescore>
     Score         DG    S(hbond)    S(metal)    S(lipo)     H(rot)  DE(clash)    DE(int)     intcor
     21.92     -22.70       2.00        0.00     125.77       1.63       0.01       0.77       ----

> <Gold.Chemscore.Fitness>
21.9219

> <Gold.Chemscore.DG>
-22.7007

> <Gold.Chemscore.ZeroCoef>
-5.4800

> <Gold.Chemscore.Hbond>
1.9980

> <Gold.Chemscore.Metal>
0.0000

> <Gold.Chemscore.Lipo>
125.7721

> <Gold.Chemscore.Internal_Hbond>
0.0000

> <Gold.Chemscore.DEClash>
0.0052

> <Gold.Chemscore.DEInternal>
0.7736

> <Gold.Chemscore.Rot>
1.6281

> <Gold.Chemscore.Internal.Correction>
   9.000000E+99

> <Gold.Chemscore.Hbonds>
donor molecule, donor type, donor heavy atom, donor atom, acceptor molecule, acceptor atom, score
      P1  H  7997  8009       L1     7  1.00
      P1  H 10752 10764       L1    19  0.75

> <Gold.Chemscore.Hbond.Weighted>
-6.6732

> <Gold.Chemscore.Metal.Weighted>
-0.0000

> <Gold.Chemscore.Lipo.Weighted>
-14.7153

> <Gold.Chemscore.Internal_Hbond.Weighted>
0.0000

> <Gold.Chemscore.DEClash.Weighted>
0.0052

> <Gold.Chemscore.DEInternal.Weighted>
0.7736

> <Gold.Chemscore.Rot.Weighted>
4.1678

> <Gold.Chemscore.Internal.Correction.Weighted>
   9.000000E+99

> <Gold.Protein.RotatedTorsions>
[ 6907 6896 6895 6894 ] final   70.62 input  -60.11 | X-H torsion
[ 7974 7965 7964 7962 ] final  159.17 input  175.53 | X-H torsion
[ 8008 7997 7996 7995 ] final -177.50 input   59.86 | X-H torsion
[ 10167 10162 10161 10158 ] final  158.54 input  -65.29 | X-H torsion
[ 10718 10713 10712 10709 ] final -133.34 input   66.30 | X-H torsion
[ 10763 10752 10751 10750 ] final   15.90 input  -60.55 | X-H torsion
[ 11005 11000 10999 10996 ] final -160.56 input  -57.11 | X-H torsion

> <Gold.Protein.ActiveResidues>
 VAL166  LYS551  ARG553  GLY616  TRP617  ASP618  TYR619  PRO620  LYS621  CYS622 
 ASP623  PHE694  ASN695  SER759  ASP760  ASP761  ALA762  ILE779  LEU786  VAL792 
 PHE793  MET794  SER795  GLU796  ALA797  LYS798  CYS799  TRP800  GLU811  SER814 

> <Gold.Protein.RotatedAtoms>
  152.4760  134.4841  159.9674 H   0  0  0  0  0  0  0  0  0  0  0  0  # atno 6907 bound_to 6896
  151.4857  133.3530  159.2853 H   0  0  0  0  0  0  0  0  0  0  0  0  # atno 6908 bound_to 6896
  150.8800  134.8216  159.7279 H   0  0  0  0  0  0  0  0  0  0  0  0  # atno 6909 bound_to 6896
  144.7805  139.7580  143.6262 H   0  0  0  0  0  0  0  0  0  0  0  0  # atno 7974 bound_to 7965
  156.0077  140.1234  157.0485 H   0  0  0  0  0  0  0  0  0  0  0  0  # atno 8008 bound_to 7997
  154.4264  140.1094  156.5855 H   0  0  0  0  0  0  0  0  0  0  0  0  # atno 8009 bound_to 7997
  155.6123  140.3471  155.4628 H   0  0  0  0  0  0  0  0  0  0  0  0  # atno 8010 bound_to 7997
  139.4827  144.4814  151.8438 H   0  0  0  0  0  0  0  0  0  0  0  0  # atno 10167 bound_to 10162
  156.2439  130.7112  151.0984 H   0  0  0  0  0  0  0  0  0  0  0  0  # atno 10718 bound_to 10713
  153.1481  135.6773  153.8924 H   0  0  0  0  0  0  0  0  0  0  0  0  # atno 10763 bound_to 10752
  153.8359  135.3111  155.3423 H   0  0  0  0  0  0  0  0  0  0  0  0  # atno 10764 bound_to 10752
  154.7841  135.4872  153.9993 H   0  0  0  0  0  0  0  0  0  0  0  0  # atno 10765 bound_to 10752
  140.6301  134.4660  157.5229 H   0  0  0  0  0  0  0  0  0  0  0  0  # atno 11005 bound_to 11000
  146.2010  139.5305  142.9743 LP  0  0  0  0  0  0  0  0  0  0  0  0  # atno 17320 bound_to 7965
  145.6064  141.0347  143.1990 LP  0  0  0  0  0  0  0  0  0  0  0  0  # atno 17321 bound_to 7965
  140.4291  144.2140  150.5887 LP  0  0  0  0  0  0  0  0  0  0  0  0  # atno 17342 bound_to 10162
  140.4797  143.2383  151.8972 LP  0  0  0  0  0  0  0  0  0  0  0  0  # atno 17343 bound_to 10162
  157.7187  131.0695  150.6225 LP  0  0  0  0  0  0  0  0  0  0  0  0  # atno 17370 bound_to 10713
  156.6300  130.4429  149.5790 LP  0  0  0  0  0  0  0  0  0  0  0  0  # atno 17371 bound_to 10713
  139.9119  134.8326  156.1498 LP  0  0  0  0  0  0  0  0  0  0  0  0  # atno 17394 bound_to 11000
  141.0681  133.6809  156.2086 LP  0  0  0  0  0  0  0  0  0  0  0  0  # atno 17395 bound_to 11000

$$$$
