AV-unprocessed.smi:2089|AV-procd|sdf|8529|dock5
  -GOLD-   2272011253D 1   1.00000     0.00000
 Structure written by MMmdl.
 39 40  0  0  0  0  0  0  0  0  1 V2000
  148.3078  140.6834  156.0131 C   0  0  0  0  0  0  0  0  0  0  0  0
  149.4307  140.5859  154.5597 S   0  0  0  0  0  0  0  0  0  0  0  0
  148.8136  141.2862  153.4230 O   0  0  0  0  0  0  0  0  0  0  0  0
  150.7838  140.9572  155.0015 O   0  0  0  0  0  0  0  0  0  0  0  0
  149.4406  138.8927  154.1927 N   0  0  0  0  0  0  0  0  0  0  0  0
  150.7386  138.2305  154.0018 C   0  0  0  0  0  0  0  0  0  0  0  0
  150.7696  137.0880  155.0116 C   0  0  0  0  0  0  0  0  0  0  0  0
  149.3078  136.6813  155.1113 C   0  0  0  0  0  0  0  0  0  0  0  0
  148.5529  138.0144  154.9757 C   0  0  2  0  0  0  0  0  0  0  0  0
  147.1560  137.8533  154.3632 C   0  0  0  0  0  0  0  0  0  0  0  0
  146.1506  138.1026  155.0294 O   0  0  0  0  0  0  0  0  0  0  0  0
  147.1057  137.4131  153.0979 N   0  0  0  0  0  0  0  0  0  0  0  0
  145.8737  137.1714  152.3610 C   0  0  0  0  0  0  0  0  0  0  0  0
  145.1370  135.9461  152.9190 C   0  0  0  0  0  0  0  0  0  0  0  0
  145.1855  134.7673  151.9655 C   0  0  0  0  0  0  0  0  0  0  0  0
  146.4164  134.1710  151.6181 C   0  0  0  0  0  0  0  0  0  0  0  0
  146.4042  133.0705  150.7394 C   0  0  0  0  0  0  0  0  0  0  0  0
  145.1683  132.6103  150.2455 C   0  0  0  0  0  0  0  0  0  0  0  0
  143.9945  133.2748  150.6532 C   0  0  0  0  0  0  0  0  0  0  0  0
  143.9952  134.3311  151.4948 N   0  0  0  0  0  0  0  0  0  0  0  0
  148.2558  141.7151  156.3603 H   0  0  0  0  0  0  0  0  0  0  0  0
  148.6931  140.0516  156.8131 H   0  0  0  0  0  0  0  0  0  0  0  0
  147.3097  140.3475  155.7335 H   0  0  0  0  0  0  0  0  0  0  0  0
  150.7858  137.8444  152.9832 H   0  0  0  0  0  0  0  0  0  0  0  0
  151.5719  138.9194  154.1418 H   0  0  0  0  0  0  0  0  0  0  0  0
  151.4192  136.2681  154.7045 H   0  0  0  0  0  0  0  0  0  0  0  0
  151.1200  137.4555  155.9770 H   0  0  0  0  0  0  0  0  0  0  0  0
  149.0660  135.9930  154.2998 H   0  0  0  0  0  0  0  0  0  0  0  0
  149.0893  136.1747  156.0520 H   0  0  0  0  0  0  0  0  0  0  0  0
  148.4597  138.4447  155.9750 H   0  0  0  0  0  0  0  0  0  0  0  0
  147.9749  137.2156  152.6235 H   0  0  0  0  0  0  0  0  0  0  0  0
  145.2359  138.0543  152.4293 H   0  0  0  0  0  0  0  0  0  0  0  0
  146.1055  137.0203  151.3053 H   0  0  0  0  0  0  0  0  0  0  0  0
  145.5752  135.6474  153.8724 H   0  0  0  0  0  0  0  0  0  0  0  0
  144.0958  136.1983  153.1253 H   0  0  0  0  0  0  0  0  0  0  0  0
  147.3481  134.5442  152.0172 H   0  0  0  0  0  0  0  0  0  0  0  0
  147.3256  132.5870  150.4507 H   0  0  0  0  0  0  0  0  0  0  0  0
  145.1205  131.7679  149.5715 H   0  0  0  0  0  0  0  0  0  0  0  0
  143.0294  132.9487  150.2947 H   0  0  0  0  0  0  0  0  0  0  0  0
  1  2  1  0  0  0  0
  1 21  1  0  0  0  0
  1 22  1  0  0  0  0
  1 23  1  0  0  0  0
  2  3  2  0  0  0  0
  2  4  2  0  0  0  0
  2  5  1  0  0  0  0
  5  9  1  0  0  0  0
  5  6  1  0  0  0  0
  6  7  1  0  0  0  0
  6 24  1  0  0  0  0
  6 25  1  0  0  0  0
  7  8  1  0  0  0  0
  7 26  1  0  0  0  0
  7 27  1  0  0  0  0
  8  9  1  0  0  0  0
  8 28  1  0  0  0  0
  8 29  1  0  0  0  0
  9 10  1  0  0  0  0
  9 30  1  0  0  0  0
 10 11  2  0  0  0  0
 10 12  1  0  0  0  0
 12 13  1  0  0  0  0
 12 31  1  0  0  0  0
 13 14  1  0  0  0  0
 13 32  1  0  0  0  0
 13 33  1  0  0  0  0
 14 15  1  0  0  0  0
 14 34  1  0  0  0  0
 14 35  1  0  0  0  0
 15 20  1  0  0  0  0
 15 16  2  0  0  0  0
 16 17  1  0  0  0  0
 16 36  1  0  0  0  0
 17 18  2  0  0  0  0
 17 37  1  0  0  0  0
 18 19  1  0  0  0  0
 18 38  1  0  0  0  0
 19 20  2  0  0  0  0
 19 39  1  0  0  0  0
M  END
> <s_m_source_file>
AV-unprocessed.smi

> <i_m_source_file_index>
2089

> <i_lp_mmshare_version>
43012

> <i_f3d_flags>
0

> <s_epik_input>
W0NIM11TKD1PKSg9TylOMVtDSDJdW0NIMl1bQ0gyXVtDQEhdMUMoPU8pW05IXVtDSDJdW0NIMl1jMltjSF1bY0hdW2NIXVtjSF1uMg==

> <s_epik_cmdline>
J2VwaWtfcHl0aG9uJywgJy1waCcsICc3LjAnLCAnLXRuJywgJzgnLCAnLW1hJywgJzIwMCcsICctbWV0YWxfYmluZGluZycsICctaW1hZScsICc8aW5maWxlLm1hZT4nLCAnLW9tYWUnLCAnPG91dGZpbGUubWFlPic=

> <r_epik_Ionization_Penalty>
0.0244371

> <r_epik_Ionization_Penalty_Charging>
0

> <r_epik_Ionization_Penalty_Neutral>
0.0244371

> <r_epik_State_Penalty>
0.0198365

> <r_epik_Charging_Adjusted_Penalty>
0.0198365

> <i_epik_Tot_Q>
0

> <i_epik_Tot_abs_Q>
0

> <r_epik_Metal_State_Penalty>
0.0190441

> <b_epik_Metal_Only>
0

> <s_lp_Force_Field>
OPLS_2005

> <r_lp_Energy>
5.6995

> <b_lp_Chiralities_Consistent>
1

> <s_lp_Variant>
AV-unprocessed.smi:2089-2

> <Gold.Version>
5.8.1

> <Gold.Id.Protein>
6NUR|6NUR_protein|mol2

> <Gold.PLP.Fitness>
36.4602

> <Gold.PLP.PLP>
-26.6406

> <Gold.PLP.part.hbond>
-2.8474

> <Gold.PLP.part.metal>
0.0000

> <Gold.PLP.part.buried>
-4.2936

> <Gold.PLP.part.nonpolar>
-20.5863

> <Gold.PLP.part.repulsive>
2.2588

> <Gold.PLP.ligand.clash>
0.0000

> <Gold.PLP.ligand.torsion>
0.6783

> <Gold.PLP.Chemscore.Hbond>
2.6078

> <Gold.PLP.Chemscore.CHOScore>
0.9734

> <Gold.PLP.Chemscore.Metal>
0.0000

> <Gold.Chemscore.Hbonds>
donor molecule, donor type, donor heavy atom, donor atom, acceptor molecule, acceptor atom, score
      L1  H    12    31       P1  7948  1.00
      P1  H  7989  7998       L1     4  0.74
      P1  H  8011  8017       L1     3  0.93
      L1  C    19    39       P1 10186  0.78

> <Gold.PLP.Chemscore.Internal.Correction>
0.4324

> <Gold.Rescore>
     Score         DG    S(hbond)    S(metal)    S(lipo)     H(rot)  DE(clash)    DE(int)     intcor
     12.27     -14.03       1.86        0.00      61.43       1.90       1.02       0.73       ----

> <Gold.Chemscore.Fitness>
12.2726

> <Gold.Chemscore.DG>
-14.0255

> <Gold.Chemscore.ZeroCoef>
-5.4800

> <Gold.Chemscore.Hbond>
1.8623

> <Gold.Chemscore.Metal>
0.0000

> <Gold.Chemscore.Lipo>
61.4264

> <Gold.Chemscore.Internal_Hbond>
0.0000

> <Gold.Chemscore.DEClash>
1.0184

> <Gold.Chemscore.DEInternal>
0.7345

> <Gold.Chemscore.Rot>
1.8990

> <Gold.Chemscore.Internal.Correction>
   9.000000E+99

> <Gold.Chemscore.Hbonds>
donor molecule, donor type, donor heavy atom, donor atom, acceptor molecule, acceptor atom, score
      L1  H    12    31       P1  7948  0.94
      P1  H  7989  7998       L1     4  0.22
      P1  H  8011  8017       L1     3  0.89

> <Gold.Chemscore.Hbond.Weighted>
-6.2199

> <Gold.Chemscore.Metal.Weighted>
-0.0000

> <Gold.Chemscore.Lipo.Weighted>
-7.1869

> <Gold.Chemscore.Internal_Hbond.Weighted>
0.0000

> <Gold.Chemscore.DEClash.Weighted>
1.0184

> <Gold.Chemscore.DEInternal.Weighted>
0.7345

> <Gold.Chemscore.Rot.Weighted>
4.8613

> <Gold.Chemscore.Internal.Correction.Weighted>
   9.000000E+99

> <Gold.Protein.RotatedTorsions>
[ 6907 6896 6895 6894 ] final    5.81 input  -60.11 | X-H torsion
[ 7974 7965 7964 7962 ] final  -94.78 input  175.53 | X-H torsion
[ 8008 7997 7996 7995 ] final  145.67 input   59.86 | X-H torsion
[ 10167 10162 10161 10158 ] final   71.31 input  -65.29 | X-H torsion
[ 10718 10713 10712 10709 ] final    4.93 input   66.30 | X-H torsion
[ 10763 10752 10751 10750 ] final  115.15 input  -60.55 | X-H torsion
[ 11005 11000 10999 10996 ] final  -53.04 input  -57.11 | X-H torsion

> <Gold.Protein.ActiveResidues>
 VAL166  LYS551  ARG553  GLY616  TRP617  ASP618  TYR619  PRO620  LYS621  CYS622 
 ASP623  PHE694  ASN695  SER759  ASP760  ASP761  ALA762  ILE779  LEU786  VAL792 
 PHE793  MET794  SER795  GLU796  ALA797  LYS798  CYS799  TRP800  GLU811  SER814 

> <Gold.Protein.RotatedAtoms>
  151.6636  135.0986  160.0184 H   0  0  0  0  0  0  0  0  0  0  0  0  # atno 6907 bound_to 6896
  152.3932  133.6705  159.6263 H   0  0  0  0  0  0  0  0  0  0  0  0  # atno 6908 bound_to 6896
  150.7844  133.8835  159.3334 H   0  0  0  0  0  0  0  0  0  0  0  0  # atno 6909 bound_to 6896
  145.3687  140.9502  143.2459 H   0  0  0  0  0  0  0  0  0  0  0  0  # atno 7974 bound_to 7965
  156.2877  140.2203  156.5253 H   0  0  0  0  0  0  0  0  0  0  0  0  # atno 8008 bound_to 7997
  154.7494  140.0481  157.0902 H   0  0  0  0  0  0  0  0  0  0  0  0  # atno 8009 bound_to 7997
  155.0129  140.3115  155.4826 H   0  0  0  0  0  0  0  0  0  0  0  0  # atno 8010 bound_to 7997
  140.0475  144.5339  150.7388 H   0  0  0  0  0  0  0  0  0  0  0  0  # atno 10167 bound_to 10162
  156.8998  130.5717  149.5648 H   0  0  0  0  0  0  0  0  0  0  0  0  # atno 10718 bound_to 10713
  153.5179  135.3604  155.2618 H   0  0  0  0  0  0  0  0  0  0  0  0  # atno 10763 bound_to 10752
  154.8737  135.4038  154.3294 H   0  0  0  0  0  0  0  0  0  0  0  0  # atno 10764 bound_to 10752
  153.3959  135.7073  153.6528 H   0  0  0  0  0  0  0  0  0  0  0  0  # atno 10765 bound_to 10752
  141.0955  133.6625  156.4112 H   0  0  0  0  0  0  0  0  0  0  0  0  # atno 11005 bound_to 11000
  144.8592  139.5203  143.6820 LP  0  0  0  0  0  0  0  0  0  0  0  0  # atno 17320 bound_to 7965
  146.2895  139.7098  142.9171 LP  0  0  0  0  0  0  0  0  0  0  0  0  # atno 17321 bound_to 7965
  140.7232  143.2609  151.4208 LP  0  0  0  0  0  0  0  0  0  0  0  0  # atno 17342 bound_to 10162
  139.5974  144.1367  152.2160 LP  0  0  0  0  0  0  0  0  0  0  0  0  # atno 17343 bound_to 10162
  156.0587  130.5644  150.9147 LP  0  0  0  0  0  0  0  0  0  0  0  0  # atno 17370 bound_to 10713
  157.6033  131.0940  150.8923 LP  0  0  0  0  0  0  0  0  0  0  0  0  # atno 17371 bound_to 10713
  140.5150  134.6359  157.5298 LP  0  0  0  0  0  0  0  0  0  0  0  0  # atno 17394 bound_to 11000
  139.9791  134.7167  155.9893 LP  0  0  0  0  0  0  0  0  0  0  0  0  # atno 17395 bound_to 11000

$$$$
