AV-unprocessed.smi:1875|AV-procd|sdf|7618|dock2
  -GOLD-   22720 9343D 1   1.00000     0.00000
 Structure written by MMmdl.
 48 50  0  0  0  0  0  0  0  0  2 V2000
  151.0109  130.7317  156.1733 C   0  0  0  0  0  0  0  0  0  0  0  0
  150.0294  131.5066  155.3186 C   0  0  0  0  0  0  0  0  0  0  0  0
  149.4573  130.8502  154.3042 N   0  0  0  0  0  0  0  0  0  0  0  0
  148.5830  131.5446  153.5434 C   0  0  0  0  0  0  0  0  0  0  0  0
  148.2841  132.8976  153.8030 C   0  0  0  0  0  0  0  0  0  0  0  0
  148.9498  133.4826  154.9011 C   0  0  0  0  0  0  0  0  0  0  0  0
  148.7200  134.9315  155.2806 C   0  0  0  0  0  0  0  0  0  0  0  0
  149.7514  135.8112  154.7394 N   0  0  0  0  0  0  0  0  0  0  0  0
  150.1230  136.8903  155.6502 C   0  0  0  0  0  0  0  0  0  0  0  0
  150.8314  138.0337  154.9053 C   0  0  2  0  0  0  0  0  0  0  0  0
  151.6627  137.4709  153.9091 O   0  0  0  0  0  0  0  0  0  0  0  0
  151.7011  138.8785  155.8571 C   0  0  0  0  0  0  0  0  0  0  0  0
  151.1922  140.2449  156.0382 N   0  0  0  0  0  0  0  0  0  0  0  0
  150.3049  140.9535  155.2884 C   0  0  0  0  0  0  0  0  0  0  0  0
  150.1600  142.1759  155.8709 N   0  3  0  0  0  0  0  0  0  0  0  0
  150.9677  142.2487  157.0079 C   0  0  0  0  0  0  0  0  0  0  0  0
  151.1644  143.2774  157.9215 C   0  0  0  0  0  0  0  0  0  0  0  0
  152.0638  143.0332  158.9839 C   0  0  0  0  0  0  0  0  0  0  0  0
  152.3047  144.1386  159.9982 C   0  0  0  0  0  0  0  0  0  0  0  0
  152.7297  141.7858  159.1051 C   0  0  0  0  0  0  0  0  0  0  0  0
  153.6937  141.5345  160.2523 C   0  0  0  0  0  0  0  0  0  0  0  0
  152.5154  140.7515  158.1659 C   0  0  0  0  0  0  0  0  0  0  0  0
  151.6297  141.0109  157.1231 C   0  0  0  0  0  0  0  0  0  0  0  0
  149.8236  132.7826  155.6583 N   0  0  0  0  0  0  0  0  0  0  0  0
  151.1149  129.7013  155.8305 H   0  0  0  0  0  0  0  0  0  0  0  0
  150.6756  130.7119  157.2107 H   0  0  0  0  0  0  0  0  0  0  0  0
  151.9945  131.2013  156.1400 H   0  0  0  0  0  0  0  0  0  0  0  0
  148.1191  131.0179  152.7226 H   0  0  0  0  0  0  0  0  0  0  0  0
  147.5853  133.4517  153.1941 H   0  0  0  0  0  0  0  0  0  0  0  0
  147.7379  135.2326  154.9143 H   0  0  0  0  0  0  0  0  0  0  0  0
  148.6873  135.0159  156.3680 H   0  0  0  0  0  0  0  0  0  0  0  0
  149.4261  136.2076  153.8635 H   0  0  0  0  0  0  0  0  0  0  0  0
  149.2188  137.2812  156.1189 H   0  0  0  0  0  0  0  0  0  0  0  0
  150.7515  136.5156  156.4595 H   0  0  0  0  0  0  0  0  0  0  0  0
  150.0943  138.6792  154.4252 H   0  0  0  0  0  0  0  0  0  0  0  0
  151.1160  137.1919  153.1899 H   0  0  0  0  0  0  0  0  0  0  0  0
  151.7825  138.4071  156.8372 H   0  0  0  0  0  0  0  0  0  0  0  0
  152.7178  138.9588  155.4692 H   0  0  0  0  0  0  0  0  0  0  0  0
  149.8043  140.6076  154.3953 H   0  0  0  0  0  0  0  0  0  0  0  0
  150.6530  144.2239  157.8235 H   0  0  0  0  0  0  0  0  0  0  0  0
  153.3549  144.4305  160.0041 H   0  0  0  0  0  0  0  0  0  0  0  0
  152.0317  143.8061  160.9997 H   0  0  0  0  0  0  0  0  0  0  0  0
  151.7137  145.0259  159.7697 H   0  0  0  0  0  0  0  0  0  0  0  0
  154.1170  140.5308  160.2056 H   0  0  0  0  0  0  0  0  0  0  0  0
  153.1846  141.6366  161.2109 H   0  0  0  0  0  0  0  0  0  0  0  0
  154.5195  142.2455  160.2205 H   0  0  0  0  0  0  0  0  0  0  0  0
  153.0214  139.8016  158.2568 H   0  0  0  0  0  0  0  0  0  0  0  0
  149.5530  142.9040  155.5165 H   0  0  0  0  0  0  0  0  0  0  0  0
  1  2  1  0  0  0  0
  1 25  1  0  0  0  0
  1 26  1  0  0  0  0
  1 27  1  0  0  0  0
  2 24  1  0  0  0  0
  2  3  2  0  0  0  0
  3  4  1  0  0  0  0
  4  5  2  0  0  0  0
  4 28  1  0  0  0  0
  5  6  1  0  0  0  0
  5 29  1  0  0  0  0
  6  7  1  0  0  0  0
  6 24  2  0  0  0  0
  7  8  1  0  0  0  0
  7 30  1  0  0  0  0
  7 31  1  0  0  0  0
  8  9  1  0  0  0  0
  8 32  1  0  0  0  0
  9 10  1  0  0  0  0
  9 33  1  0  0  0  0
  9 34  1  0  0  0  0
 10 11  1  0  0  0  0
 10 12  1  0  0  0  0
 10 35  1  0  0  0  0
 11 36  1  0  0  0  0
 12 13  1  0  0  0  0
 12 37  1  0  0  0  0
 12 38  1  0  0  0  0
 13 23  1  0  0  0  0
 13 14  1  0  0  0  0
 14 15  2  0  0  0  0
 14 39  1  0  0  0  0
 15 16  1  0  0  0  0
 15 48  1  0  0  0  0
 16 23  2  0  0  0  0
 16 17  1  0  0  0  0
 17 18  2  0  0  0  0
 17 40  1  0  0  0  0
 18 19  1  0  0  0  0
 18 20  1  0  0  0  0
 19 41  1  0  0  0  0
 19 42  1  0  0  0  0
 19 43  1  0  0  0  0
 20 21  1  0  0  0  0
 20 22  2  0  0  0  0
 21 44  1  0  0  0  0
 21 45  1  0  0  0  0
 21 46  1  0  0  0  0
 22 23  1  0  0  0  0
 22 47  1  0  0  0  0
M  CHG  1  15   1
M  END
> <s_m_source_file>
AV-unprocessed.smi

> <i_m_source_file_index>
1875

> <i_lp_mmshare_version>
43012

> <i_f3d_flags>
0

> <s_epik_input>
W0NIM11jMW5bY0hdW2NIXWMobjEpW0NIMl1bTkhdW0NIMl1bQ0BIXShbT0hdKVtDSDJdbihbY0hdbjIpYyhjMjMpW2NIXWMoW0NIM10pYyhbY0hdMylbQ0gzXQ==

> <s_epik_cmdline>
J2VwaWtfcHl0aG9uJywgJy1waCcsICc3LjAnLCAnLXRuJywgJzgnLCAnLW1hJywgJzIwMCcsICctbWV0YWxfYmluZGluZycsICctaW1hZScsICc8aW5maWxlLm1hZT4nLCAnLW9tYWUnLCAnPG91dGZpbGUubWFlPic=

> <r_epik_Ionization_Penalty>
2.02862

> <r_epik_Ionization_Penalty_Charging>
1.0004

> <r_epik_Ionization_Penalty_Neutral>
1.02823

> <r_epik_State_Penalty>
2.23022

> <r_epik_Charging_Adjusted_Penalty>
3.23062

> <i_epik_Tot_Q>
1

> <i_epik_Tot_abs_Q>
1

> <r_epik_Metal_State_Penalty>
2.31249

> <b_epik_Metal_Only>
0

> <s_epik_Chemistry_Notes>
This compound contains an electron-poor aromatic ring that is susceptible to covalent hydrolysis at low pH, typically resulting in measured values for nitrogen ring protonation that are around two units higher than predicted values.

> <s_lp_Force_Field>
OPLS_2005

> <r_lp_Energy>
18.1078

> <b_lp_Chiralities_Consistent>
1

> <s_lp_Variant>
AV-unprocessed.smi:1875-7

> <Gold.Version>
5.8.1

> <Gold.Id.Protein>
6NUR|6NUR_protein|mol2

> <Gold.PLP.Fitness>
61.4126

> <Gold.PLP.PLP>
-48.5835

> <Gold.PLP.part.hbond>
-3.9991

> <Gold.PLP.part.metal>
0.0000

> <Gold.PLP.part.buried>
-4.3522

> <Gold.PLP.part.nonpolar>
-40.4556

> <Gold.PLP.part.repulsive>
0.2092

> <Gold.PLP.ligand.clash>
0.0000

> <Gold.PLP.ligand.torsion>
1.8557

> <Gold.PLP.Chemscore.Hbond>
4.4767

> <Gold.PLP.Chemscore.CHOScore>
1.0000

> <Gold.PLP.Chemscore.Metal>
0.0000

> <Gold.Chemscore.Hbonds>
donor molecule, donor type, donor heavy atom, donor atom, acceptor molecule, acceptor atom, score
      L1  H     8    32       P1  7948  1.00
      L1  H    11    36       P1  7949  0.72
      L1  H    15    48       P1  8028  1.95
      P1  H 10752 10763       L1    11  0.52
      L1  C     4    28       P1 10747  0.81

> <Gold.PLP.Chemscore.Internal.Correction>
0.1105

> <Gold.Rescore>
     Score         DG    S(hbond)    S(metal)    S(lipo)     H(rot)  DE(clash)    DE(int)     intcor
     19.15     -20.93       2.75        0.00     114.92       2.80       0.25       1.53       ----

> <Gold.Chemscore.Fitness>
19.1461

> <Gold.Chemscore.DG>
-20.9271

> <Gold.Chemscore.ZeroCoef>
-5.4800

> <Gold.Chemscore.Hbond>
2.7477

> <Gold.Chemscore.Metal>
0.0000

> <Gold.Chemscore.Lipo>
114.9221

> <Gold.Chemscore.Internal_Hbond>
0.0000

> <Gold.Chemscore.DEClash>
0.2467

> <Gold.Chemscore.DEInternal>
1.5342

> <Gold.Chemscore.Rot>
2.8032

> <Gold.Chemscore.Internal.Correction>
   9.000000E+99

> <Gold.Chemscore.Hbonds>
donor molecule, donor type, donor heavy atom, donor atom, acceptor molecule, acceptor atom, score
      L1  H     8    32       P1  7948  0.69
      L1  H    11    36       P1  7949  0.31
      L1  H    15    48       P1  8028  0.93
      P1  H 10752 10763       L1    11  0.13

> <Gold.Chemscore.Hbond.Weighted>
-9.1773

> <Gold.Chemscore.Metal.Weighted>
-0.0000

> <Gold.Chemscore.Lipo.Weighted>
-13.4459

> <Gold.Chemscore.Internal_Hbond.Weighted>
0.0000

> <Gold.Chemscore.DEClash.Weighted>
0.2467

> <Gold.Chemscore.DEInternal.Weighted>
1.5342

> <Gold.Chemscore.Rot.Weighted>
7.1761

> <Gold.Chemscore.Internal.Correction.Weighted>
   9.000000E+99

> <Gold.Protein.RotatedTorsions>
[ 6907 6896 6895 6894 ] final   75.15 input  -60.11 | X-H torsion
[ 7974 7965 7964 7962 ] final  -49.35 input  175.53 | X-H torsion
[ 8008 7997 7996 7995 ] final  -40.62 input   59.86 | X-H torsion
[ 10167 10162 10161 10158 ] final  -21.36 input  -65.29 | X-H torsion
[ 10718 10713 10712 10709 ] final   78.41 input   66.30 | X-H torsion
[ 10763 10752 10751 10750 ] final   30.62 input  -60.55 | X-H torsion
[ 11005 11000 10999 10996 ] final   64.01 input  -57.11 | X-H torsion

> <Gold.Protein.ActiveResidues>
 VAL166  LYS551  ARG553  GLY616  TRP617  ASP618  TYR619  PRO620  LYS621  CYS622 
 ASP623  PHE694  ASN695  SER759  ASP760  ASP761  ALA762  ILE779  LEU786  VAL792 
 PHE793  MET794  SER795  GLU796  ALA797  LYS798  CYS799  TRP800  GLU811  SER814 

> <Gold.Protein.RotatedAtoms>
  152.5011  134.4164  159.9465 H   0  0  0  0  0  0  0  0  0  0  0  0  # atno 6907 bound_to 6896
  151.4135  133.3714  159.2755 H   0  0  0  0  0  0  0  0  0  0  0  0  # atno 6908 bound_to 6896
  150.9274  134.8713  159.7588 H   0  0  0  0  0  0  0  0  0  0  0  0  # atno 6909 bound_to 6896
  145.9414  140.7658  142.9550 H   0  0  0  0  0  0  0  0  0  0  0  0  # atno 7974 bound_to 7965
  154.4010  140.1521  156.3056 H   0  0  0  0  0  0  0  0  0  0  0  0  # atno 8008 bound_to 7997
  155.8661  140.3451  155.5768 H   0  0  0  0  0  0  0  0  0  0  0  0  # atno 8009 bound_to 7997
  155.7826  140.0845  157.2042 H   0  0  0  0  0  0  0  0  0  0  0  0  # atno 8010 bound_to 7997
  140.7281  143.4636  151.0345 H   0  0  0  0  0  0  0  0  0  0  0  0  # atno 10167 bound_to 10162
  157.6744  130.9867  150.1782 H   0  0  0  0  0  0  0  0  0  0  0  0  # atno 10718 bound_to 10713
  153.0361  135.6459  154.1073 H   0  0  0  0  0  0  0  0  0  0  0  0  # atno 10763 bound_to 10752
  154.0788  135.2875  155.3296 H   0  0  0  0  0  0  0  0  0  0  0  0  # atno 10764 bound_to 10752
  154.6544  135.5414  153.8005 H   0  0  0  0  0  0  0  0  0  0  0  0  # atno 10765 bound_to 10752
  139.9987  134.6477  155.9967 H   0  0  0  0  0  0  0  0  0  0  0  0  # atno 11005 bound_to 11000
  144.6780  140.2287  143.7358 LP  0  0  0  0  0  0  0  0  0  0  0  0  # atno 17320 bound_to 7965
  145.8294  139.2079  143.1891 LP  0  0  0  0  0  0  0  0  0  0  0  0  # atno 17321 bound_to 7965
  139.8322  143.7676  152.3180 LP  0  0  0  0  0  0  0  0  0  0  0  0  # atno 17342 bound_to 10162
  139.7795  144.7449  151.0108 LP  0  0  0  0  0  0  0  0  0  0  0  0  # atno 17343 bound_to 10162
  156.2521  130.3701  149.8221 LP  0  0  0  0  0  0  0  0  0  0  0  0  # atno 17370 bound_to 10713
  156.5991  130.8539  151.3427 LP  0  0  0  0  0  0  0  0  0  0  0  0  # atno 17371 bound_to 10713
  141.1625  133.6538  156.4365 LP  0  0  0  0  0  0  0  0  0  0  0  0  # atno 17394 bound_to 11000
  140.4769  134.6701  157.5154 LP  0  0  0  0  0  0  0  0  0  0  0  0  # atno 17395 bound_to 11000

$$$$
