AV-unprocessed.smi:1072|AV-procd|sdf|4688|dock3
  -GOLD-   22720 3203D 1   1.00000     0.00000
 Structure written by MMmdl.
 45 46  0  0  0  0  0  0  0  0  2 V2000
  146.1404  136.8619  162.1655 C   0  0  0  0  0  0  0  0  0  0  0  0
  146.8234  136.9042  160.8154 C   0  0  0  0  0  0  0  0  0  0  0  0
  146.1111  136.8774  159.7541 N   0  0  0  0  0  0  0  0  0  0  0  0
  146.7400  136.9165  158.4981 C   0  0  0  0  0  0  0  0  0  0  0  0
  145.8169  136.8782  157.2925 C   0  0  0  0  0  0  0  0  0  0  0  0
  148.0980  136.9846  158.3903 C   0  0  0  0  0  0  0  0  0  0  0  0
  148.8271  137.0250  157.0473 C   0  0  0  0  0  0  0  0  0  0  0  0
  149.5073  138.3501  156.6941 C   0  0  0  0  0  0  0  0  0  0  0  0
  149.3526  138.8466  155.5785 O   0  0  0  0  0  0  0  0  0  0  0  0
  150.2618  138.8961  157.6653 N   0  0  0  0  0  0  0  0  0  0  0  0
  151.0610  140.1295  157.6453 C   0  0  1  0  0  0  0  0  0  0  0  0
  152.0724  139.9413  156.4942 C   0  0  0  0  0  0  0  0  0  0  0  0
  150.1515  141.3575  157.3634 C   0  0  0  0  0  0  0  0  0  0  0  0
  150.8913  142.7014  157.4894 C   0  0  0  0  0  0  0  0  0  0  0  0
  151.5808  142.8455  158.8580 C   0  0  2  0  0  0  0  0  0  0  0  0
  152.3065  144.1927  158.9808 C   0  0  0  0  0  0  0  0  0  0  0  0
  152.5377  141.6652  159.1042 C   0  0  0  0  0  0  0  0  0  0  0  0
  151.8117  140.3123  158.9934 C   0  0  0  0  0  0  0  0  0  0  0  0
  148.8826  137.0174  159.6378 C   0  0  0  0  0  0  0  0  0  0  0  0
  150.1103  137.0906  159.5984 O   0  0  0  0  0  0  0  0  0  0  0  0
  148.1989  136.9669  160.8167 N   0  5  0  0  0  0  0  0  0  0  0  0
  145.0721  137.0617  162.0712 H   0  0  0  0  0  0  0  0  0  0  0  0
  146.5675  137.6104  162.8340 H   0  0  0  0  0  0  0  0  0  0  0  0
  146.2674  135.8789  162.6196 H   0  0  0  0  0  0  0  0  0  0  0  0
  145.9975  135.9805  156.7013 H   0  0  0  0  0  0  0  0  0  0  0  0
  145.9751  137.7507  156.6586 H   0  0  0  0  0  0  0  0  0  0  0  0
  144.7697  136.8734  157.5973 H   0  0  0  0  0  0  0  0  0  0  0  0
  149.5736  136.2330  156.9857 H   0  0  0  0  0  0  0  0  0  0  0  0
  148.1056  136.7835  156.2660 H   0  0  0  0  0  0  0  0  0  0  0  0
  150.2963  138.3819  158.5334 H   0  0  0  0  0  0  0  0  0  0  0  0
  152.7343  140.7977  156.3741 H   0  0  0  0  0  0  0  0  0  0  0  0
  151.5631  139.7940  155.5409 H   0  0  0  0  0  0  0  0  0  0  0  0
  152.7046  139.0686  156.6629 H   0  0  0  0  0  0  0  0  0  0  0  0
  149.7050  141.2753  156.3717 H   0  0  0  0  0  0  0  0  0  0  0  0
  149.3154  141.3823  158.0618 H   0  0  0  0  0  0  0  0  0  0  0  0
  151.6249  142.8021  156.6894 H   0  0  0  0  0  0  0  0  0  0  0  0
  150.1802  143.5160  157.3484 H   0  0  0  0  0  0  0  0  0  0  0  0
  150.8084  142.8170  159.6280 H   0  0  0  0  0  0  0  0  0  0  0  0
  153.0962  144.2877  158.2348 H   0  0  0  0  0  0  0  0  0  0  0  0
  152.7624  144.3050  159.9648 H   0  0  0  0  0  0  0  0  0  0  0  0
  151.6152  145.0243  158.8422 H   0  0  0  0  0  0  0  0  0  0  0  0
  153.3686  141.7046  158.3995 H   0  0  0  0  0  0  0  0  0  0  0  0
  152.9822  141.7527  160.0963 H   0  0  0  0  0  0  0  0  0  0  0  0
  151.1158  140.2510  159.8294 H   0  0  0  0  0  0  0  0  0  0  0  0
  152.5237  139.4994  159.1415 H   0  0  0  0  0  0  0  0  0  0  0  0
  1  2  1  0  0  0  0
  1 22  1  0  0  0  0
  1 23  1  0  0  0  0
  1 24  1  0  0  0  0
  2 21  1  0  0  0  0
  2  3  2  0  0  0  0
  3  4  1  0  0  0  0
  4  5  1  0  0  0  0
  4  6  2  0  0  0  0
  5 25  1  0  0  0  0
  5 26  1  0  0  0  0
  5 27  1  0  0  0  0
  6  7  1  0  0  0  0
  6 19  1  0  0  0  0
  7  8  1  0  0  0  0
  7 28  1  0  0  0  0
  7 29  1  0  0  0  0
  8  9  2  0  0  0  0
  8 10  1  0  0  0  0
 10 11  1  0  0  0  0
 10 30  1  0  0  0  0
 11 18  1  0  0  0  0
 11 12  1  0  0  0  0
 11 13  1  0  0  0  0
 12 31  1  0  0  0  0
 12 32  1  0  0  0  0
 12 33  1  0  0  0  0
 13 14  1  0  0  0  0
 13 34  1  0  0  0  0
 13 35  1  0  0  0  0
 14 15  1  0  0  0  0
 14 36  1  0  0  0  0
 14 37  1  0  0  0  0
 15 16  1  0  0  0  0
 15 17  1  0  0  0  0
 15 38  1  0  0  0  0
 16 39  1  0  0  0  0
 16 40  1  0  0  0  0
 16 41  1  0  0  0  0
 17 18  1  0  0  0  0
 17 42  1  0  0  0  0
 17 43  1  0  0  0  0
 18 44  1  0  0  0  0
 18 45  1  0  0  0  0
 19 20  2  0  0  0  0
 19 21  1  0  0  0  0
M  CHG  1  21  -1
M  END
> <s_m_source_file>
AV-unprocessed.smi

> <i_m_source_file_index>
1072

> <i_lp_mmshare_version>
43012

> <i_f3d_flags>
0

> <s_epik_input>
W0NIM11jMW5jKFtDSDNdKWMoYyg9TylbbkhdMSlbQ0gyXUMoPU8pW05IXVtDQEBdMihbQ0gzXSlbQ0gyXVtDSDJdW0NAQEhdKFtDSDNdKVtDSDJdW0NIMl0y

> <s_epik_cmdline>
J2VwaWtfcHl0aG9uJywgJy1waCcsICc3LjAnLCAnLXRuJywgJzgnLCAnLW1hJywgJzIwMCcsICctbWV0YWxfYmluZGluZycsICctaW1hZScsICc8aW5maWxlLm1hZT4nLCAnLW9tYWUnLCAnPG91dGZpbGUubWFlPic=

> <r_lp_tautomer_probability>
0.839158

> <r_epik_Ionization_Penalty>
6.73882

> <r_epik_Ionization_Penalty_Charging>
8.02239e-08

> <r_epik_Ionization_Penalty_Neutral>
6.73882

> <r_epik_State_Penalty>
4.55873

> <r_epik_Charging_Adjusted_Penalty>
4.55873

> <i_epik_Tot_Q>
-1

> <i_epik_Tot_abs_Q>
1

> <r_epik_Metal_State_Penalty>
0.872514

> <b_epik_Metal_Only>
1

> <s_lp_Force_Field>
OPLS_2005

> <r_lp_Energy>
18.4266

> <b_lp_Chiralities_Consistent>
1

> <s_lp_Variant>
AV-unprocessed.smi:1072-6

> <Gold.Version>
5.8.1

> <Gold.Id.Protein>
6NUR|6NUR_protein|mol2

> <Gold.PLP.Fitness>
38.8027

> <Gold.PLP.PLP>
-30.2472

> <Gold.PLP.part.hbond>
-2.0000

> <Gold.PLP.part.metal>
0.0000

> <Gold.PLP.part.buried>
-5.2306

> <Gold.PLP.part.nonpolar>
-24.5289

> <Gold.PLP.part.repulsive>
0.0775

> <Gold.PLP.ligand.clash>
0.0000

> <Gold.PLP.ligand.torsion>
0.2258

> <Gold.PLP.Chemscore.Hbond>
3.0000

> <Gold.PLP.Chemscore.CHOScore>
0.0000

> <Gold.PLP.Chemscore.Metal>
0.0000

> <Gold.Chemscore.Hbonds>
donor molecule, donor type, donor heavy atom, donor atom, acceptor molecule, acceptor atom, score
      P1  H  6896  6908       L1    20  0.42
      P1  H  6931  6943       L1    21  1.95

> <Gold.PLP.Chemscore.Internal.Correction>
0.0072

> <Gold.Rescore>
     Score         DG    S(hbond)    S(metal)    S(lipo)     H(rot)  DE(clash)    DE(int)     intcor
     13.15     -14.84       1.27        0.00      75.01       1.43       0.00       1.68       ----

> <Gold.Chemscore.Fitness>
13.1544

> <Gold.Chemscore.DG>
-14.8393

> <Gold.Chemscore.ZeroCoef>
-5.4800

> <Gold.Chemscore.Hbond>
1.2736

> <Gold.Chemscore.Metal>
0.0000

> <Gold.Chemscore.Lipo>
75.0109

> <Gold.Chemscore.Internal_Hbond>
0.0000

> <Gold.Chemscore.DEClash>
0.0038

> <Gold.Chemscore.DEInternal>
1.6811

> <Gold.Chemscore.Rot>
1.4339

> <Gold.Chemscore.Internal.Correction>
   9.000000E+99

> <Gold.Chemscore.Hbonds>
donor molecule, donor type, donor heavy atom, donor atom, acceptor molecule, acceptor atom, score
      P1  H  6896  6908       L1    20  0.32
      P1  H  6931  6943       L1    21  0.40

> <Gold.Chemscore.Hbond.Weighted>
-4.2538

> <Gold.Chemscore.Metal.Weighted>
-0.0000

> <Gold.Chemscore.Lipo.Weighted>
-8.7763

> <Gold.Chemscore.Internal_Hbond.Weighted>
0.0000

> <Gold.Chemscore.DEClash.Weighted>
0.0038

> <Gold.Chemscore.DEInternal.Weighted>
1.6811

> <Gold.Chemscore.Rot.Weighted>
3.6708

> <Gold.Chemscore.Internal.Correction.Weighted>
   9.000000E+99

> <Gold.Protein.RotatedTorsions>
[ 6907 6896 6895 6894 ] final -153.25 input  -60.11 | X-H torsion
[ 7974 7965 7964 7962 ] final -131.49 input  175.53 | X-H torsion
[ 8008 7997 7996 7995 ] final    4.14 input   59.86 | X-H torsion
[ 10167 10162 10161 10158 ] final -128.72 input  -65.29 | X-H torsion
[ 10718 10713 10712 10709 ] final -171.16 input   66.30 | X-H torsion
[ 10763 10752 10751 10750 ] final -125.91 input  -60.55 | X-H torsion
[ 11005 11000 10999 10996 ] final   83.77 input  -57.11 | X-H torsion

> <Gold.Protein.ActiveResidues>
 VAL166  LYS551  ARG553  GLY616  TRP617  ASP618  TYR619  PRO620  LYS621  CYS622 
 ASP623  PHE694  ASN695  SER759  ASP760  ASP761  ALA762  ILE779  LEU786  VAL792 
 PHE793  MET794  SER795  GLU796  ALA797  LYS798  CYS799  TRP800  GLU811  SER814 

> <Gold.Protein.RotatedAtoms>
  151.2398  133.4406  159.2606 H   0  0  0  0  0  0  0  0  0  0  0  0  # atno 6907 bound_to 6896
  151.0716  134.9802  159.8322 H   0  0  0  0  0  0  0  0  0  0  0  0  # atno 6908 bound_to 6896
  152.5413  134.2343  159.8890 H   0  0  0  0  0  0  0  0  0  0  0  0  # atno 6909 bound_to 6896
  144.9374  140.7199  143.4868 H   0  0  0  0  0  0  0  0  0  0  0  0  # atno 7974 bound_to 7965
  154.7123  140.2695  155.6618 H   0  0  0  0  0  0  0  0  0  0  0  0  # atno 8008 bound_to 7997
  156.2799  140.2751  156.1693 H   0  0  0  0  0  0  0  0  0  0  0  0  # atno 8009 bound_to 7997
  155.0618  140.0371  157.2569 H   0  0  0  0  0  0  0  0  0  0  0  0  # atno 8010 bound_to 7997
  139.9473  143.6095  152.2486 H   0  0  0  0  0  0  0  0  0  0  0  0  # atno 10167 bound_to 10162
  156.7368  130.9327  151.3108 H   0  0  0  0  0  0  0  0  0  0  0  0  # atno 10718 bound_to 10713
  154.8741  135.4013  154.3345 H   0  0  0  0  0  0  0  0  0  0  0  0  # atno 10763 bound_to 10752
  153.4154  135.7022  153.6336 H   0  0  0  0  0  0  0  0  0  0  0  0  # atno 10764 bound_to 10752
  153.5021  135.3725  155.2515 H   0  0  0  0  0  0  0  0  0  0  0  0  # atno 10765 bound_to 10752
  139.9021  134.8168  156.2354 H   0  0  0  0  0  0  0  0  0  0  0  0  # atno 11005 bound_to 11000
  145.3045  139.1839  143.4672 LP  0  0  0  0  0  0  0  0  0  0  0  0  # atno 17320 bound_to 7965
  146.3272  140.3040  142.8622 LP  0  0  0  0  0  0  0  0  0  0  0  0  # atno 17321 bound_to 7965
  139.6656  144.7662  151.1879 LP  0  0  0  0  0  0  0  0  0  0  0  0  # atno 17342 bound_to 10162
  140.7593  143.5943  150.8765 LP  0  0  0  0  0  0  0  0  0  0  0  0  # atno 17343 bound_to 10162
  157.6835  130.9163  150.0328 LP  0  0  0  0  0  0  0  0  0  0  0  0  # atno 17370 bound_to 10713
  156.1491  130.3642  149.9465 LP  0  0  0  0  0  0  0  0  0  0  0  0  # atno 17371 bound_to 10713
  141.0319  133.6984  156.1444 LP  0  0  0  0  0  0  0  0  0  0  0  0  # atno 17394 bound_to 11000
  140.7084  134.4488  157.5583 LP  0  0  0  0  0  0  0  0  0  0  0  0  # atno 17395 bound_to 11000

$$$$
