AV-unprocessed.smi:550|AV-procd|sdf|2895|dock3
  -GOLD-   2262023393D 1   1.00000     0.00000
 Structure written by MMmdl.
 45 47  0  0  0  0  0  0  0  0  1 V2000
  147.5334  140.7376  154.0447 O   0  0  0  0  0  0  0  0  0  0  0  0
  148.2378  139.7852  153.7097 C   0  0  0  0  0  0  0  0  0  0  0  0
  147.8797  138.8972  152.7727 N   0  0  0  0  0  0  0  0  0  0  0  0
  146.6178  138.9339  152.0427 C   0  0  0  0  0  0  0  0  0  0  0  0
  145.8018  137.6498  152.2702 C   0  0  1  0  0  0  0  0  0  0  0  0
  146.0023  136.6214  151.1397 C   0  0  0  0  0  0  0  0  0  0  0  0
  145.3809  135.2911  151.5745 C   0  0  0  0  0  0  0  0  0  0  0  0
  145.6695  135.1842  153.3790 S   0  0  0  0  0  0  0  0  0  0  0  0
  144.3931  134.9046  154.0541 O   0  0  0  0  0  0  0  0  0  0  0  0
  146.8591  134.3587  153.6362 O   0  0  0  0  0  0  0  0  0  0  0  0
  146.1129  136.9500  153.6057 C   0  0  0  0  0  0  0  0  0  0  0  0
  149.4568  139.5111  154.2053 N   0  0  0  0  0  0  0  0  0  0  0  0
  150.1445  140.1766  155.2558 C   0  0  0  0  0  0  0  0  0  0  0  0
  149.6628  141.3367  155.9048 C   0  0  0  0  0  0  0  0  0  0  0  0
  150.4182  141.8955  156.9530 C   0  0  0  0  0  0  0  0  0  0  0  0
  151.6322  141.2773  157.3350 C   0  0  0  0  0  0  0  0  0  0  0  0
  152.4186  141.8103  158.3758 N   0  0  0  0  0  0  0  0  0  0  0  0
  153.0415  140.9622  159.3799 C   0  0  0  0  0  0  0  0  0  0  0  0
  153.6686  141.9389  160.3736 C   0  0  0  0  0  0  0  0  0  0  0  0
  152.7127  143.1313  160.3373 C   0  0  0  0  0  0  0  0  0  0  0  0
  152.1924  143.1521  158.8951 C   0  0  0  0  0  0  0  0  0  0  0  0
  152.0885  140.1623  156.7160 N   0  0  0  0  0  0  0  0  0  0  0  0
  151.3593  139.6284  155.7138 C   0  0  0  0  0  0  0  0  0  0  0  0
  148.5183  138.1478  152.5504 H   0  0  0  0  0  0  0  0  0  0  0  0
  146.0312  139.7971  152.3621 H   0  0  0  0  0  0  0  0  0  0  0  0
  146.8284  139.0683  150.9809 H   0  0  0  0  0  0  0  0  0  0  0  0
  144.7426  137.9126  152.2776 H   0  0  0  0  0  0  0  0  0  0  0  0
  145.5786  136.9687  150.1970 H   0  0  0  0  0  0  0  0  0  0  0  0
  147.0702  136.4731  150.9738 H   0  0  0  0  0  0  0  0  0  0  0  0
  144.3041  135.2938  151.4036 H   0  0  0  0  0  0  0  0  0  0  0  0
  145.8145  134.4284  151.0689 H   0  0  0  0  0  0  0  0  0  0  0  0
  147.1776  136.9973  153.8362 H   0  0  0  0  0  0  0  0  0  0  0  0
  145.5580  137.3695  154.4448 H   0  0  0  0  0  0  0  0  0  0  0  0
  149.9667  138.7642  153.7563 H   0  0  0  0  0  0  0  0  0  0  0  0
  148.7269  141.7985  155.6305 H   0  0  0  0  0  0  0  0  0  0  0  0
  150.0581  142.7867  157.4449 H   0  0  0  0  0  0  0  0  0  0  0  0
  152.2785  140.3534  159.8669 H   0  0  0  0  0  0  0  0  0  0  0  0
  153.7871  140.2986  158.9407 H   0  0  0  0  0  0  0  0  0  0  0  0
  153.7856  141.5135  161.3707 H   0  0  0  0  0  0  0  0  0  0  0  0
  154.6536  142.2459  160.0192 H   0  0  0  0  0  0  0  0  0  0  0  0
  151.8830  142.9520  161.0223 H   0  0  0  0  0  0  0  0  0  0  0  0
  153.1892  144.0679  160.6278 H   0  0  0  0  0  0  0  0  0  0  0  0
  152.7552  143.8635  158.2902 H   0  0  0  0  0  0  0  0  0  0  0  0
  151.1388  143.4325  158.8660 H   0  0  0  0  0  0  0  0  0  0  0  0
  151.7644  138.7360  155.2595 H   0  0  0  0  0  0  0  0  0  0  0  0
  1  2  2  0  0  0  0
  2  3  1  0  0  0  0
  2 12  1  0  0  0  0
  3  4  1  0  0  0  0
  3 24  1  0  0  0  0
  4  5  1  0  0  0  0
  4 25  1  0  0  0  0
  4 26  1  0  0  0  0
  5 11  1  0  0  0  0
  5  6  1  0  0  0  0
  5 27  1  0  0  0  0
  6  7  1  0  0  0  0
  6 28  1  0  0  0  0
  6 29  1  0  0  0  0
  7  8  1  0  0  0  0
  7 30  1  0  0  0  0
  7 31  1  0  0  0  0
  8  9  2  0  0  0  0
  8 10  2  0  0  0  0
  8 11  1  0  0  0  0
 11 32  1  0  0  0  0
 11 33  1  0  0  0  0
 12 13  1  0  0  0  0
 12 34  1  0  0  0  0
 13 23  1  0  0  0  0
 13 14  2  0  0  0  0
 14 15  1  0  0  0  0
 14 35  1  0  0  0  0
 15 16  2  0  0  0  0
 15 36  1  0  0  0  0
 16 17  1  0  0  0  0
 16 22  1  0  0  0  0
 17 21  1  0  0  0  0
 17 18  1  0  0  0  0
 18 19  1  0  0  0  0
 18 37  1  0  0  0  0
 18 38  1  0  0  0  0
 19 20  1  0  0  0  0
 19 39  1  0  0  0  0
 19 40  1  0  0  0  0
 20 21  1  0  0  0  0
 20 41  1  0  0  0  0
 20 42  1  0  0  0  0
 21 43  1  0  0  0  0
 21 44  1  0  0  0  0
 22 23  2  0  0  0  0
 23 45  1  0  0  0  0
M  END
> <s_m_source_file>
AV-unprocessed.smi

> <i_m_source_file_index>
550

> <i_lp_mmshare_version>
43012

> <i_f3d_flags>
0

> <s_epik_input>
Tz1TMSg9TylbQ0gyXVtDSDJdW0NASF0oW0NIMl0xKVtDSDJdW05IXUMoPU8pW05IXWMyW2NIXVtjSF1jKG5bY0hdMilOM1tDSDJdW0NIMl1bQ0gyXVtDSDJdMw==

> <s_epik_cmdline>
J2VwaWtfcHl0aG9uJywgJy1waCcsICc3LjAnLCAnLXRuJywgJzgnLCAnLW1hJywgJzIwMCcsICctbWV0YWxfYmluZGluZycsICctaW1hZScsICc8aW5maWxlLm1hZT4nLCAnLW9tYWUnLCAnPG91dGZpbGUubWFlPic=

> <r_lp_tautomer_probability>
1

> <r_epik_Ionization_Penalty>
0.0965651

> <r_epik_Ionization_Penalty_Charging>
0

> <r_epik_Ionization_Penalty_Neutral>
0.0965651

> <r_epik_State_Penalty>
0.0861592

> <r_epik_Charging_Adjusted_Penalty>
0.0861592

> <i_epik_Tot_Q>
0

> <i_epik_Tot_abs_Q>
0

> <r_epik_Metal_State_Penalty>
0.0740405

> <b_epik_Metal_Only>
0

> <s_lp_Force_Field>
OPLS_2005

> <r_lp_Energy>
33.1318

> <b_lp_Chiralities_Consistent>
1

> <s_lp_Variant>
AV-unprocessed.smi:550-2

> <Gold.Version>
5.8.1

> <Gold.Id.Protein>
6NUR|6NUR_protein|mol2

> <Gold.PLP.Fitness>
44.3302

> <Gold.PLP.PLP>
-41.1263

> <Gold.PLP.part.hbond>
-3.6045

> <Gold.PLP.part.metal>
0.0000

> <Gold.PLP.part.buried>
0.1106

> <Gold.PLP.part.nonpolar>
-37.5632

> <Gold.PLP.part.repulsive>
0.4941

> <Gold.PLP.ligand.clash>
0.0000

> <Gold.PLP.ligand.torsion>
0.8755

> <Gold.PLP.Chemscore.Hbond>
1.5850

> <Gold.PLP.Chemscore.CHOScore>
0.0000

> <Gold.PLP.Chemscore.Metal>
0.0000

> <Gold.Chemscore.Hbonds>
donor molecule, donor type, donor heavy atom, donor atom, acceptor molecule, acceptor atom, score
      L1  H     3    24       P1  7948  0.94
      P1  H  7997  8009       L1    22  0.42

> <Gold.PLP.Chemscore.Internal.Correction>
0.1999

> <Gold.Rescore>
     Score         DG    S(hbond)    S(metal)    S(lipo)     H(rot)  DE(clash)    DE(int)     intcor
     16.16     -19.00       1.63        0.00      96.45       1.25       0.80       2.04       ----

> <Gold.Chemscore.Fitness>
16.1636

> <Gold.Chemscore.DG>
-19.0036

> <Gold.Chemscore.ZeroCoef>
-5.4800

> <Gold.Chemscore.Hbond>
1.6289

> <Gold.Chemscore.Metal>
0.0000

> <Gold.Chemscore.Lipo>
96.4502

> <Gold.Chemscore.Internal_Hbond>
0.0000

> <Gold.Chemscore.DEClash>
0.8042

> <Gold.Chemscore.DEInternal>
2.0358

> <Gold.Chemscore.Rot>
1.2506

> <Gold.Chemscore.Internal.Correction>
   9.000000E+99

> <Gold.Chemscore.Hbonds>
donor molecule, donor type, donor heavy atom, donor atom, acceptor molecule, acceptor atom, score
      L1  H     3    24       P1  7948  0.87
      P1  H  7997  8009       L1    22  0.35

> <Gold.Chemscore.Hbond.Weighted>
-5.4405

> <Gold.Chemscore.Metal.Weighted>
-0.0000

> <Gold.Chemscore.Lipo.Weighted>
-11.2847

> <Gold.Chemscore.Internal_Hbond.Weighted>
0.0000

> <Gold.Chemscore.DEClash.Weighted>
0.8042

> <Gold.Chemscore.DEInternal.Weighted>
2.0358

> <Gold.Chemscore.Rot.Weighted>
3.2016

> <Gold.Chemscore.Internal.Correction.Weighted>
   9.000000E+99

> <Gold.Protein.RotatedTorsions>
[ 6907 6896 6895 6894 ] final   93.75 input  -60.11 | X-H torsion
[ 7974 7965 7964 7962 ] final   54.90 input  175.53 | X-H torsion
[ 8008 7997 7996 7995 ] final -169.33 input   59.86 | X-H torsion
[ 10167 10162 10161 10158 ] final -179.33 input  -65.29 | X-H torsion
[ 10718 10713 10712 10709 ] final   43.67 input   66.30 | X-H torsion
[ 10763 10752 10751 10750 ] final -148.38 input  -60.55 | X-H torsion
[ 11005 11000 10999 10996 ] final   23.91 input  -57.11 | X-H torsion

> <Gold.Protein.ActiveResidues>
 VAL166  LYS551  ARG553  GLY616  TRP617  ASP618  TYR619  PRO620  LYS621  CYS622 
 ASP623  PHE694  ASN695  SER759  ASP760  ASP761  ALA762  ILE779  LEU786  VAL792 
 PHE793  MET794  SER795  GLU796  ALA797  LYS798  CYS799  TRP800  GLU811  SER814 

> <Gold.Protein.RotatedAtoms>
  152.5452  134.1300  159.8434 H   0  0  0  0  0  0  0  0  0  0  0  0  # atno 6907 bound_to 6896
  151.1347  133.5005  159.2605 H   0  0  0  0  0  0  0  0  0  0  0  0  # atno 6908 bound_to 6896
  151.1637  135.0296  159.8776 H   0  0  0  0  0  0  0  0  0  0  0  0  # atno 6909 bound_to 6896
  145.9560  139.4015  143.0277 H   0  0  0  0  0  0  0  0  0  0  0  0  # atno 7974 bound_to 7965
  155.9035  140.1045  157.1332 H   0  0  0  0  0  0  0  0  0  0  0  0  # atno 8008 bound_to 7997
  154.4029  140.1288  156.4531 H   0  0  0  0  0  0  0  0  0  0  0  0  # atno 8009 bound_to 7997
  155.7395  140.3467  155.5099 H   0  0  0  0  0  0  0  0  0  0  0  0  # atno 8010 bound_to 7997
  139.5391  144.2413  152.0858 H   0  0  0  0  0  0  0  0  0  0  0  0  # atno 10167 bound_to 10162
  157.4184  130.7955  149.7493 H   0  0  0  0  0  0  0  0  0  0  0  0  # atno 10718 bound_to 10713
  154.8236  135.3336  154.6965 H   0  0  0  0  0  0  0  0  0  0  0  0  # atno 10763 bound_to 10752
  153.7594  135.6933  153.4933 H   0  0  0  0  0  0  0  0  0  0  0  0  # atno 10764 bound_to 10752
  153.2120  135.4478  155.0341 H   0  0  0  0  0  0  0  0  0  0  0  0  # atno 10765 bound_to 10752
  140.3645  134.2090  155.7670 H   0  0  0  0  0  0  0  0  0  0  0  0  # atno 11005 bound_to 11000
  145.8105  140.9728  143.0951 LP  0  0  0  0  0  0  0  0  0  0  0  0  # atno 17320 bound_to 7965
  144.6805  139.9915  143.7484 LP  0  0  0  0  0  0  0  0  0  0  0  0  # atno 17321 bound_to 7965
  140.1889  144.4772  150.6489 LP  0  0  0  0  0  0  0  0  0  0  0  0  # atno 17342 bound_to 10162
  140.6612  143.2253  151.5850 LP  0  0  0  0  0  0  0  0  0  0  0  0  # atno 17343 bound_to 10162
  155.9872  130.3968  150.3174 LP  0  0  0  0  0  0  0  0  0  0  0  0  # atno 17370 bound_to 10713
  157.1319  131.0274  151.2965 LP  0  0  0  0  0  0  0  0  0  0  0  0  # atno 17371 bound_to 10713
  141.1974  133.8060  157.0630 LP  0  0  0  0  0  0  0  0  0  0  0  0  # atno 17394 bound_to 11000
  140.0600  134.9759  157.1289 LP  0  0  0  0  0  0  0  0  0  0  0  0  # atno 17395 bound_to 11000

$$$$
