AV-unprocessed.smi:2878|AV-procd|sdf|11045|dock8
  -GOLD-   2272015513D 1   1.00000     0.00000
 Structure written by MMmdl.
 42 43  0  0  0  0  0  0  0  0  1 V2000
  151.3762  145.4326  159.2589 C   0  0  0  0  0  0  0  0  0  0  0  0
  151.9392  144.1156  158.1465 S   0  0  0  0  0  0  0  0  0  0  0  0
  152.1241  142.7250  159.3088 C   0  0  2  0  0  0  0  0  0  0  0  0
  153.1077  143.1199  160.4266 C   0  0  0  0  0  0  0  0  0  0  0  0
  153.3342  141.9736  161.4225 C   0  0  0  0  0  0  0  0  0  0  0  0
  153.8285  140.7130  160.7010 C   0  0  0  0  0  0  0  0  0  0  0  0
  152.8485  140.2921  159.5966 C   0  0  0  0  0  0  0  0  0  0  0  0
  152.5888  141.4329  158.5913 C   0  0  1  0  0  0  0  0  0  0  0  0
  151.5819  140.9933  157.6278 N   0  0  0  0  0  0  0  0  0  0  0  0
  151.7969  140.1650  156.5965 C   0  0  0  0  0  0  0  0  0  0  0  0
  152.8807  139.6399  156.3422 O   0  0  0  0  0  0  0  0  0  0  0  0
  150.6870  139.9848  155.8669 N   0  0  0  0  0  0  0  0  0  0  0  0
  150.6036  139.1609  154.6665 C   0  0  0  0  0  0  0  0  0  0  0  0
  151.4353  137.8755  154.8041 C   0  0  0  0  0  0  0  0  0  0  0  0
  150.5832  136.6611  154.9606 C   0  0  0  0  0  0  0  0  0  0  0  0
  150.9882  135.3937  154.9983 N   0  0  0  0  0  0  0  0  0  0  0  0
  149.7964  134.7423  155.0925 C   0  0  0  0  0  0  0  0  0  0  0  0
  149.6910  133.2574  155.1719 C   0  0  0  0  0  0  0  0  0  0  0  0
  148.7136  135.5101  155.0968 N   0  0  0  0  0  0  0  0  0  0  0  0
  149.2368  136.8073  154.9967 O   0  0  0  0  0  0  0  0  0  0  0  0
  151.2396  146.3583  158.7001 H   0  0  0  0  0  0  0  0  0  0  0  0
  152.1124  145.6103  160.0428 H   0  0  0  0  0  0  0  0  0  0  0  0
  150.4263  145.1729  159.7248 H   0  0  0  0  0  0  0  0  0  0  0  0
  151.1534  142.5461  159.7735 H   0  0  0  0  0  0  0  0  0  0  0  0
  154.0637  143.4111  159.9887 H   0  0  0  0  0  0  0  0  0  0  0  0
  152.7339  143.9956  160.9583 H   0  0  0  0  0  0  0  0  0  0  0  0
  154.0576  142.2765  162.1797 H   0  0  0  0  0  0  0  0  0  0  0  0
  152.4049  141.7560  161.9506 H   0  0  0  0  0  0  0  0  0  0  0  0
  154.8115  140.8992  160.2668 H   0  0  0  0  0  0  0  0  0  0  0  0
  153.9545  139.8998  161.4162 H   0  0  0  0  0  0  0  0  0  0  0  0
  153.2409  139.4183  159.0747 H   0  0  0  0  0  0  0  0  0  0  0  0
  151.9078  139.9807  160.0535 H   0  0  0  0  0  0  0  0  0  0  0  0
  153.5264  141.6556  158.0784 H   0  0  0  0  0  0  0  0  0  0  0  0
  150.6520  141.3675  157.7464 H   0  0  0  0  0  0  0  0  0  0  0  0
  149.8434  140.4576  156.1560 H   0  0  0  0  0  0  0  0  0  0  0  0
  149.5613  138.9206  154.4494 H   0  0  0  0  0  0  0  0  0  0  0  0
  150.9684  139.7496  153.8243 H   0  0  0  0  0  0  0  0  0  0  0  0
  152.0717  137.7444  153.9280 H   0  0  0  0  0  0  0  0  0  0  0  0
  152.1002  137.9421  155.6659 H   0  0  0  0  0  0  0  0  0  0  0  0
  148.7855  132.9621  155.7032 H   0  0  0  0  0  0  0  0  0  0  0  0
  150.5491  132.8413  155.7001 H   0  0  0  0  0  0  0  0  0  0  0  0
  149.6598  132.8301  154.1694 H   0  0  0  0  0  0  0  0  0  0  0  0
  1  2  1  0  0  0  0
  1 21  1  0  0  0  0
  1 22  1  0  0  0  0
  1 23  1  0  0  0  0
  2  3  1  0  0  0  0
  3  8  1  0  0  0  0
  3  4  1  0  0  0  0
  3 24  1  0  0  0  0
  4  5  1  0  0  0  0
  4 25  1  0  0  0  0
  4 26  1  0  0  0  0
  5  6  1  0  0  0  0
  5 27  1  0  0  0  0
  5 28  1  0  0  0  0
  6  7  1  0  0  0  0
  6 29  1  0  0  0  0
  6 30  1  0  0  0  0
  7  8  1  0  0  0  0
  7 31  1  0  0  0  0
  7 32  1  0  0  0  0
  8  9  1  0  0  0  0
  8 33  1  0  0  0  0
  9 10  1  0  0  0  0
  9 34  1  0  0  0  0
 10 11  2  0  0  0  0
 10 12  1  0  0  0  0
 12 13  1  0  0  0  0
 12 35  1  0  0  0  0
 13 14  1  0  0  0  0
 13 36  1  0  0  0  0
 13 37  1  0  0  0  0
 14 15  1  0  0  0  0
 14 38  1  0  0  0  0
 14 39  1  0  0  0  0
 15 20  1  0  0  0  0
 15 16  2  0  0  0  0
 16 17  1  0  0  0  0
 17 18  1  0  0  0  0
 17 19  2  0  0  0  0
 18 40  1  0  0  0  0
 18 41  1  0  0  0  0
 18 42  1  0  0  0  0
 19 20  1  0  0  0  0
M  END
> <s_m_source_file>
AV-unprocessed.smi

> <i_m_source_file_index>
2878

> <i_lp_mmshare_version>
43012

> <i_f3d_flags>
0

> <s_epik_input>
W0NIM11TW0NAQEhdMVtDSDJdW0NIMl1bQ0gyXVtDSDJdW0NASF0xW05IXUMoPU8pW05IXVtDSDJdW0NIMl1jMm5jKFtDSDNdKW5vMg==

> <s_epik_cmdline>
J2VwaWtfcHl0aG9uJywgJy1waCcsICc3LjAnLCAnLXRuJywgJzgnLCAnLW1hJywgJzIwMCcsICctbWV0YWxfYmluZGluZycsICctaW1hZScsICc8aW5maWxlLm1hZT4nLCAnLW9tYWUnLCAnPG91dGZpbGUubWFlPic=

> <r_lp_tautomer_probability>
1

> <r_epik_Ionization_Penalty>
4.9299e-05

> <r_epik_Ionization_Penalty_Charging>
0

> <r_epik_Ionization_Penalty_Neutral>
4.9299e-05

> <r_epik_State_Penalty>
-0

> <r_epik_Charging_Adjusted_Penalty>
0

> <i_epik_Tot_Q>
0

> <i_epik_Tot_abs_Q>
0

> <r_epik_Metal_State_Penalty>
-0

> <b_epik_Metal_Only>
0

> <s_lp_Force_Field>
OPLS_2005

> <r_lp_Energy>
1.6378

> <b_lp_Chiralities_Consistent>
1

> <s_lp_Variant>
AV-unprocessed.smi:2878-1

> <Gold.Version>
5.8.1

> <Gold.Id.Protein>
6NUR|6NUR_protein|mol2

> <Gold.PLP.Fitness>
46.4699

> <Gold.PLP.PLP>
-41.9539

> <Gold.PLP.part.hbond>
-2.0000

> <Gold.PLP.part.metal>
0.0000

> <Gold.PLP.part.buried>
-4.3093

> <Gold.PLP.part.nonpolar>
-35.9742

> <Gold.PLP.part.repulsive>
0.5665

> <Gold.PLP.ligand.clash>
0.0000

> <Gold.PLP.ligand.torsion>
0.7621

> <Gold.PLP.Chemscore.Hbond>
2.0000

> <Gold.PLP.Chemscore.CHOScore>
0.0000

> <Gold.PLP.Chemscore.Metal>
0.0000

> <Gold.Chemscore.Hbonds>
donor molecule, donor type, donor heavy atom, donor atom, acceptor molecule, acceptor atom, score
      P1  H  7997  8010       L1    11  1.00
      P1  H 10752 10764       L1    16  1.00

> <Gold.PLP.Chemscore.Internal.Correction>
0.0402

> <Gold.Rescore>
     Score         DG    S(hbond)    S(metal)    S(lipo)     H(rot)  DE(clash)    DE(int)     intcor
     16.16     -18.46       1.86        0.00     103.49       2.09       0.01       2.28       ----

> <Gold.Chemscore.Fitness>
16.1637

> <Gold.Chemscore.DG>
-18.4555

> <Gold.Chemscore.ZeroCoef>
-5.4800

> <Gold.Chemscore.Hbond>
1.8634

> <Gold.Chemscore.Metal>
0.0000

> <Gold.Chemscore.Lipo>
103.4880

> <Gold.Chemscore.Internal_Hbond>
0.0000

> <Gold.Chemscore.DEClash>
0.0150

> <Gold.Chemscore.DEInternal>
2.2768

> <Gold.Chemscore.Rot>
2.0923

> <Gold.Chemscore.Internal.Correction>
   9.000000E+99

> <Gold.Chemscore.Hbonds>
donor molecule, donor type, donor heavy atom, donor atom, acceptor molecule, acceptor atom, score
      P1  H  7997  8010       L1    11  0.93
      P1  H 10752 10764       L1    16  0.32

> <Gold.Chemscore.Hbond.Weighted>
-6.2236

> <Gold.Chemscore.Metal.Weighted>
-0.0000

> <Gold.Chemscore.Lipo.Weighted>
-12.1081

> <Gold.Chemscore.Internal_Hbond.Weighted>
0.0000

> <Gold.Chemscore.DEClash.Weighted>
0.0150

> <Gold.Chemscore.DEInternal.Weighted>
2.2768

> <Gold.Chemscore.Rot.Weighted>
5.3562

> <Gold.Chemscore.Internal.Correction.Weighted>
   9.000000E+99

> <Gold.Protein.RotatedTorsions>
[ 6907 6896 6895 6894 ] final   60.56 input  -60.11 | X-H torsion
[ 7974 7965 7964 7962 ] final   42.14 input  175.53 | X-H torsion
[ 8008 7997 7996 7995 ] final   75.15 input   59.86 | X-H torsion
[ 10167 10162 10161 10158 ] final  127.78 input  -65.29 | X-H torsion
[ 10718 10713 10712 10709 ] final   15.43 input   66.30 | X-H torsion
[ 10763 10752 10751 10750 ] final  -63.59 input  -60.55 | X-H torsion
[ 11005 11000 10999 10996 ] final  101.03 input  -57.11 | X-H torsion

> <Gold.Protein.ActiveResidues>
 VAL166  LYS551  ARG553  GLY616  TRP617  ASP618  TYR619  PRO620  LYS621  CYS622 
 ASP623  PHE694  ASN695  SER759  ASP760  ASP761  ALA762  ILE779  LEU786  VAL792 
 PHE793  MET794  SER795  GLU796  ALA797  LYS798  CYS799  TRP800  GLU811  SER814 

> <Gold.Protein.RotatedAtoms>
  152.4013  134.6281  160.0068 H   0  0  0  0  0  0  0  0  0  0  0  0  # atno 6907 bound_to 6896
  151.6485  133.3316  159.3154 H   0  0  0  0  0  0  0  0  0  0  0  0  # atno 6908 bound_to 6896
  150.7913  134.6982  159.6579 H   0  0  0  0  0  0  0  0  0  0  0  0  # atno 6909 bound_to 6896
  146.0765  139.5335  142.9564 H   0  0  0  0  0  0  0  0  0  0  0  0  # atno 7974 bound_to 7965
  155.8087  140.3474  155.5445 H   0  0  0  0  0  0  0  0  0  0  0  0  # atno 8008 bound_to 7997
  155.8463  140.0949  157.1723 H   0  0  0  0  0  0  0  0  0  0  0  0  # atno 8009 bound_to 7997
  154.4006  140.1385  156.3778 H   0  0  0  0  0  0  0  0  0  0  0  0  # atno 8010 bound_to 7997
  139.5560  144.6849  151.4180 H   0  0  0  0  0  0  0  0  0  0  0  0  # atno 10167 bound_to 10162
  157.0534  130.6279  149.5772 H   0  0  0  0  0  0  0  0  0  0  0  0  # atno 10718 bound_to 10713
  154.3173  135.6203  153.5492 H   0  0  0  0  0  0  0  0  0  0  0  0  # atno 10763 bound_to 10752
  152.9823  135.5715  154.5109 H   0  0  0  0  0  0  0  0  0  0  0  0  # atno 10764 bound_to 10752
  154.4771  135.2861  155.1576 H   0  0  0  0  0  0  0  0  0  0  0  0  # atno 10765 bound_to 10752
  139.8772  134.9165  156.4845 H   0  0  0  0  0  0  0  0  0  0  0  0  # atno 11005 bound_to 11000
  145.6296  141.0307  143.1871 LP  0  0  0  0  0  0  0  0  0  0  0  0  # atno 17320 bound_to 7965
  144.7265  139.7859  143.7363 LP  0  0  0  0  0  0  0  0  0  0  0  0  # atno 17321 bound_to 7965
  140.6833  143.8031  150.7151 LP  0  0  0  0  0  0  0  0  0  0  0  0  # atno 17342 bound_to 10162
  140.1491  143.4373  152.2143 LP  0  0  0  0  0  0  0  0  0  0  0  0  # atno 17343 bound_to 10162
  156.0000  130.5078  150.7629 LP  0  0  0  0  0  0  0  0  0  0  0  0  # atno 17370 bound_to 10713
  157.5012  131.0918  151.0312 LP  0  0  0  0  0  0  0  0  0  0  0  0  # atno 17371 bound_to 10713
  140.8703  133.7993  155.9358 LP  0  0  0  0  0  0  0  0  0  0  0  0  # atno 17394 bound_to 11000
  140.8959  134.2438  157.5069 LP  0  0  0  0  0  0  0  0  0  0  0  0  # atno 17395 bound_to 11000

$$$$
