AV-unprocessed.smi:907|AV-procd|sdf|4106|dock10
  -GOLD-   22720 2 03D 1   1.00000     0.00000
 Structure written by MMmdl.
 53 56  0  0  0  0  0  0  0  0  2 V2000
  150.0238  140.5355  154.2759 O   0  0  0  0  0  0  0  0  0  0  0  0
  149.0586  141.0338  154.8565 C   0  0  0  0  0  0  0  0  0  0  0  0
  149.1690  141.6035  156.0688 N   0  0  0  0  0  0  0  0  0  0  0  0
  150.4101  141.7275  156.8252 C   0  0  0  0  0  0  0  0  0  0  0  0
  150.9990  143.1442  156.7189 C   0  0  0  0  0  0  0  0  0  0  0  0
  151.4112  143.6970  158.0697 C   0  0  0  0  0  0  0  0  0  0  0  0
  150.9982  144.9841  158.4749 C   0  0  0  0  0  0  0  0  0  0  0  0
  151.4011  145.4504  159.7411 C   0  0  0  0  0  0  0  0  0  0  0  0
  152.1958  144.6151  160.5496 C   0  0  0  0  0  0  0  0  0  0  0  0
  152.5536  143.3454  160.0537 C   0  0  0  0  0  0  0  0  0  0  0  0
  152.1728  142.8886  158.8411 N   0  0  0  0  0  0  0  0  0  0  0  0
  147.7972  140.9969  154.3594 N   0  0  0  0  0  0  0  0  0  0  0  0
  147.4064  140.5235  153.0252 C   0  0  0  0  0  0  0  0  0  0  0  0
  146.7667  139.1289  153.1596 C   0  0  0  0  0  0  0  0  0  0  0  0
  145.6134  139.1358  154.1062 N   0  3  0  0  0  0  0  0  0  0  0  0
  144.9835  137.7917  154.2499 C   0  0  2  0  0  0  0  0  0  0  0  0
  144.2772  137.2780  152.9711 C   0  0  0  0  0  0  0  0  0  0  0  0
  142.8949  136.8355  153.4877 C   0  0  2  0  0  0  0  0  0  0  0  0
  142.0397  138.0871  153.7486 C   0  0  0  0  0  0  0  0  0  0  0  0
  142.7079  138.6932  154.9954 C   0  0  0  0  0  0  0  0  0  0  0  0
  143.8473  137.6956  155.2993 C   0  0  1  0  0  0  0  0  0  0  0  0
  143.2032  136.3703  154.9059 C   0  0  0  0  0  0  0  0  0  0  0  0
  145.9626  139.7654  155.4125 C   0  0  0  0  0  0  0  0  0  0  0  0
  146.6212  141.1429  155.2199 C   0  0  0  0  0  0  0  0  0  0  0  0
  148.3334  141.9693  156.5014 H   0  0  0  0  0  0  0  0  0  0  0  0
  150.2380  141.4632  157.8700 H   0  0  0  0  0  0  0  0  0  0  0  0
  151.1205  140.9982  156.4348 H   0  0  0  0  0  0  0  0  0  0  0  0
  151.8667  143.1405  156.0577 H   0  0  0  0  0  0  0  0  0  0  0  0
  150.2741  143.8227  156.2672 H   0  0  0  0  0  0  0  0  0  0  0  0
  150.3858  145.6005  157.8331 H   0  0  0  0  0  0  0  0  0  0  0  0
  151.1054  146.4301  160.0856 H   0  0  0  0  0  0  0  0  0  0  0  0
  152.5226  144.9391  161.5266 H   0  0  0  0  0  0  0  0  0  0  0  0
  153.1620  142.6792  160.6471 H   0  0  0  0  0  0  0  0  0  0  0  0
  146.6884  141.2229  152.5945 H   0  0  0  0  0  0  0  0  0  0  0  0
  148.2310  140.4800  152.3137 H   0  0  0  0  0  0  0  0  0  0  0  0
  146.4510  138.7904  152.1736 H   0  0  0  0  0  0  0  0  0  0  0  0
  147.5150  138.4161  153.5100 H   0  0  0  0  0  0  0  0  0  0  0  0
  145.7666  137.0845  154.5308 H   0  0  0  0  0  0  0  0  0  0  0  0
  144.1754  138.0365  152.1941 H   0  0  0  0  0  0  0  0  0  0  0  0
  144.8254  136.4372  152.5441 H   0  0  0  0  0  0  0  0  0  0  0  0
  142.4043  136.0966  152.8535 H   0  0  0  0  0  0  0  0  0  0  0  0
  142.0332  138.7741  152.9015 H   0  0  0  0  0  0  0  0  0  0  0  0
  141.0059  137.8125  153.9629 H   0  0  0  0  0  0  0  0  0  0  0  0
  143.0647  139.7085  154.8229 H   0  0  0  0  0  0  0  0  0  0  0  0
  141.9992  138.7307  155.8238 H   0  0  0  0  0  0  0  0  0  0  0  0
  144.1957  137.7274  156.3319 H   0  0  0  0  0  0  0  0  0  0  0  0
  142.3101  136.1318  155.4866 H   0  0  0  0  0  0  0  0  0  0  0  0
  143.8902  135.5229  154.9438 H   0  0  0  0  0  0  0  0  0  0  0  0
  145.0711  139.8929  156.0257 H   0  0  0  0  0  0  0  0  0  0  0  0
  146.6358  139.1064  155.9632 H   0  0  0  0  0  0  0  0  0  0  0  0
  146.8617  141.5829  156.1890 H   0  0  0  0  0  0  0  0  0  0  0  0
  145.9167  141.8326  154.7523 H   0  0  0  0  0  0  0  0  0  0  0  0
  144.9128  139.7337  153.6917 H   0  0  0  0  0  0  0  0  0  0  0  0
  1  2  2  0  0  0  0
  2  3  1  0  0  0  0
  2 12  1  0  0  0  0
  3  4  1  0  0  0  0
  3 25  1  0  0  0  0
  4  5  1  0  0  0  0
  4 26  1  0  0  0  0
  4 27  1  0  0  0  0
  5  6  1  0  0  0  0
  5 28  1  0  0  0  0
  5 29  1  0  0  0  0
  6 11  1  0  0  0  0
  6  7  2  0  0  0  0
  7  8  1  0  0  0  0
  7 30  1  0  0  0  0
  8  9  2  0  0  0  0
  8 31  1  0  0  0  0
  9 10  1  0  0  0  0
  9 32  1  0  0  0  0
 10 11  2  0  0  0  0
 10 33  1  0  0  0  0
 12 24  1  0  0  0  0
 12 13  1  0  0  0  0
 13 14  1  0  0  0  0
 13 34  1  0  0  0  0
 13 35  1  0  0  0  0
 14 15  1  0  0  0  0
 14 36  1  0  0  0  0
 14 37  1  0  0  0  0
 15 16  1  0  0  0  0
 15 23  1  0  0  0  0
 15 53  1  0  0  0  0
 16 21  1  0  0  0  0
 16 17  1  0  0  0  0
 16 38  1  0  0  0  0
 17 18  1  0  0  0  0
 17 39  1  0  0  0  0
 17 40  1  0  0  0  0
 18 22  1  0  0  0  0
 18 19  1  0  0  0  0
 18 41  1  0  0  0  0
 19 20  1  0  0  0  0
 19 42  1  0  0  0  0
 19 43  1  0  0  0  0
 20 21  1  0  0  0  0
 20 44  1  0  0  0  0
 20 45  1  0  0  0  0
 21 22  1  0  0  0  0
 21 46  1  0  0  0  0
 22 47  1  0  0  0  0
 22 48  1  0  0  0  0
 23 24  1  0  0  0  0
 23 49  1  0  0  0  0
 23 50  1  0  0  0  0
 24 51  1  0  0  0  0
 24 52  1  0  0  0  0
M  CHG  1  15   1
M  END
> <s_m_source_file>
AV-unprocessed.smi

> <i_m_source_file_index>
907

> <i_lp_mmshare_version>
43012

> <i_f3d_flags>
0

> <s_epik_input>
W0NIMl0xW0NIMl1bQ0BASF0oW0NIMl0yKVtDQEBIXShbQ0gyXVtDQEhdMTIpTihbQ0gyXVtDSDJdMylbQ0gyXVtDSDJdTjNDKD1PKVtOSF1bQ0gyXVtDSDJdYzRbY0hdW2NIXVtjSF1bY0hdbjQ=

> <s_epik_cmdline>
J2VwaWtfcHl0aG9uJywgJy1waCcsICc3LjAnLCAnLXRuJywgJzgnLCAnLW1hJywgJzIwMCcsICctbWV0YWxfYmluZGluZycsICctaW1hZScsICc8aW5maWxlLm1hZT4nLCAnLW9tYWUnLCAnPG91dGZpbGUubWFlPic=

> <r_epik_Ionization_Penalty>
0.0419258

> <r_epik_Ionization_Penalty_Charging>
0.00262064

> <r_epik_Ionization_Penalty_Neutral>
0.0393052

> <r_epik_State_Penalty>
0.0329887

> <r_epik_Charging_Adjusted_Penalty>
0.0356093

> <i_epik_Tot_Q>
1

> <i_epik_Tot_abs_Q>
1

> <r_epik_Metal_State_Penalty>
0.0309172

> <b_epik_Metal_Only>
0

> <s_lp_Force_Field>
OPLS_2005

> <r_lp_Energy>
94.5265

> <b_lp_Chiralities_Consistent>
1

> <s_lp_Variant>
AV-unprocessed.smi:907-1

> <Gold.Version>
5.8.1

> <Gold.Id.Protein>
6NUR|6NUR_protein|mol2

> <Gold.PLP.Fitness>
46.9748

> <Gold.PLP.PLP>
-40.9170

> <Gold.PLP.part.hbond>
-2.5114

> <Gold.PLP.part.metal>
0.0000

> <Gold.PLP.part.buried>
-1.3262

> <Gold.PLP.part.nonpolar>
-37.0742

> <Gold.PLP.part.repulsive>
0.1909

> <Gold.PLP.ligand.clash>
0.9150

> <Gold.PLP.ligand.torsion>
0.7906

> <Gold.PLP.Chemscore.Hbond>
2.8160

> <Gold.PLP.Chemscore.CHOScore>
0.0000

> <Gold.PLP.Chemscore.Metal>
0.0000

> <Gold.Chemscore.Hbonds>
donor molecule, donor type, donor heavy atom, donor atom, acceptor molecule, acceptor atom, score
      L1  H    15    53       P1 10175  2.00
      P1  H  7989  7998       L1     1  0.80

> <Gold.PLP.Chemscore.Internal.Correction>
0.1059

> <Gold.Rescore>
     Score         DG    S(hbond)    S(metal)    S(lipo)     H(rot)  DE(clash)    DE(int)     intcor
     19.59     -20.93       1.86        0.00     108.89       1.37       0.57       0.77       ----

> <Gold.Chemscore.Fitness>
19.5928

> <Gold.Chemscore.DG>
-20.9327

> <Gold.Chemscore.ZeroCoef>
-5.4800

> <Gold.Chemscore.Hbond>
1.8646

> <Gold.Chemscore.Metal>
0.0000

> <Gold.Chemscore.Lipo>
108.8906

> <Gold.Chemscore.Internal_Hbond>
0.0000

> <Gold.Chemscore.DEClash>
0.5721

> <Gold.Chemscore.DEInternal>
0.7678

> <Gold.Chemscore.Rot>
1.3731

> <Gold.Chemscore.Internal.Correction>
   9.000000E+99

> <Gold.Chemscore.Hbonds>
donor molecule, donor type, donor heavy atom, donor atom, acceptor molecule, acceptor atom, score
      L1  H    15    53       P1 10175  1.00
      P1  H  7989  7998       L1     1  0.80

> <Gold.Chemscore.Hbond.Weighted>
-6.2276

> <Gold.Chemscore.Metal.Weighted>
-0.0000

> <Gold.Chemscore.Lipo.Weighted>
-12.7402

> <Gold.Chemscore.Internal_Hbond.Weighted>
0.0000

> <Gold.Chemscore.DEClash.Weighted>
0.5721

> <Gold.Chemscore.DEInternal.Weighted>
0.7678

> <Gold.Chemscore.Rot.Weighted>
3.5152

> <Gold.Chemscore.Internal.Correction.Weighted>
   9.000000E+99

> <Gold.Protein.RotatedTorsions>
[ 6907 6896 6895 6894 ] final  -34.20 input  -60.11 | X-H torsion
[ 7974 7965 7964 7962 ] final  -69.33 input  175.53 | X-H torsion
[ 8008 7997 7996 7995 ] final  -65.42 input   59.86 | X-H torsion
[ 10167 10162 10161 10158 ] final  -62.59 input  -65.29 | X-H torsion
[ 10718 10713 10712 10709 ] final   89.43 input   66.30 | X-H torsion
[ 10763 10752 10751 10750 ] final -103.43 input  -60.55 | X-H torsion
[ 11005 11000 10999 10996 ] final  -52.30 input  -57.11 | X-H torsion

> <Gold.Protein.ActiveResidues>
 VAL166  LYS551  ARG553  GLY616  TRP617  ASP618  TYR619  PRO620  LYS621  CYS622 
 ASP623  PHE694  ASN695  SER759  ASP760  ASP761  ALA762  ILE779  LEU786  VAL792 
 PHE793  MET794  SER795  GLU796  ALA797  LYS798  CYS799  TRP800  GLU811  SER814 

> <Gold.Protein.RotatedAtoms>
  151.0558  134.9703  159.8234 H   0  0  0  0  0  0  0  0  0  0  0  0  # atno 6907 bound_to 6896
  152.5388  134.2480  159.8898 H   0  0  0  0  0  0  0  0  0  0  0  0  # atno 6908 bound_to 6896
  151.2498  133.4313  159.2644 H   0  0  0  0  0  0  0  0  0  0  0  0  # atno 6909 bound_to 6896
  145.7051  140.9101  143.0710 H   0  0  0  0  0  0  0  0  0  0  0  0  # atno 7974 bound_to 7965
  154.4671  140.0933  156.7048 H   0  0  0  0  0  0  0  0  0  0  0  0  # atno 8008 bound_to 7997
  155.4828  140.3468  155.4324 H   0  0  0  0  0  0  0  0  0  0  0  0  # atno 8009 bound_to 7997
  156.0975  140.1413  156.9500 H   0  0  0  0  0  0  0  0  0  0  0  0  # atno 8010 bound_to 7997
  140.5928  143.2345  151.6101 H   0  0  0  0  0  0  0  0  0  0  0  0  # atno 10167 bound_to 10162
  157.6955  131.0333  150.3425 H   0  0  0  0  0  0  0  0  0  0  0  0  # atno 10718 bound_to 10713
  154.7807  135.4823  153.9838 H   0  0  0  0  0  0  0  0  0  0  0  0  # atno 10763 bound_to 10752
  153.1490  135.6787  153.8919 H   0  0  0  0  0  0  0  0  0  0  0  0  # atno 10764 bound_to 10752
  153.8569  135.3160  155.3414 H   0  0  0  0  0  0  0  0  0  0  0  0  # atno 10765 bound_to 10752
  141.0917  133.6631  156.4004 H   0  0  0  0  0  0  0  0  0  0  0  0  # atno 11005 bound_to 11000
  144.6957  139.9000  143.7458 LP  0  0  0  0  0  0  0  0  0  0  0  0  # atno 17320 bound_to 7965
  146.0763  139.3751  143.0492 LP  0  0  0  0  0  0  0  0  0  0  0  0  # atno 17321 bound_to 7965
  139.5239  144.3120  152.0984 LP  0  0  0  0  0  0  0  0  0  0  0  0  # atno 17342 bound_to 10162
  140.2288  144.4390  150.6309 LP  0  0  0  0  0  0  0  0  0  0  0  0  # atno 17343 bound_to 10162
  156.3884  130.3893  149.7048 LP  0  0  0  0  0  0  0  0  0  0  0  0  # atno 17370 bound_to 10713
  156.4407  130.7859  151.2881 LP  0  0  0  0  0  0  0  0  0  0  0  0  # atno 17371 bound_to 10713
  140.5236  134.6280  157.5326 LP  0  0  0  0  0  0  0  0  0  0  0  0  # atno 17394 bound_to 11000
  139.9744  134.7239  155.9977 LP  0  0  0  0  0  0  0  0  0  0  0  0  # atno 17395 bound_to 11000

$$$$
