AV-unprocessed.smi:1760|AV-procd|sdf|7094|dock9
  -GOLD-   22720 8313D 1   1.00000     0.00000
 Structure written by MMmdl.
 42 44  0  0  0  0  0  0  0  0  2 V2000
  146.4142  134.0319  157.0166 O   0  0  0  0  0  0  0  0  0  0  0  0
  147.5599  133.8489  157.4270 C   0  0  0  0  0  0  0  0  0  0  0  0
  148.0545  134.2691  158.6057 N   0  0  0  0  0  0  0  0  0  0  0  0
  147.4260  134.9848  159.6399 C   0  0  0  0  0  0  0  0  0  0  0  0
  146.2671  134.6163  160.2538 C   0  0  0  0  0  0  0  0  0  0  0  0
  145.6672  135.4023  161.3249 C   0  0  0  0  0  0  0  0  0  0  0  0
  144.3265  135.0794  161.9603 C   0  0  0  0  0  0  0  0  0  0  0  0
  143.3985  134.8530  161.0302 F   0  0  0  0  0  0  0  0  0  0  0  0
  144.4126  134.0009  162.7391 F   0  0  0  0  0  0  0  0  0  0  0  0
  143.9210  136.1032  162.7101 F   0  0  0  0  0  0  0  0  0  0  0  0
  146.4016  136.5345  161.6190 C   0  0  0  0  0  0  0  0  0  0  0  0
  147.5682  136.9549  161.0829 N   0  5  0  0  0  0  0  0  0  0  0  0
  148.1196  136.2132  160.0814 C   0  0  0  0  0  0  0  0  0  0  0  0
  149.1766  136.5444  159.5429 O   0  0  0  0  0  0  0  0  0  0  0  0
  148.5011  133.2039  156.7225 N   0  0  0  0  0  0  0  0  0  0  0  0
  148.3349  132.6371  155.3864 C   0  0  0  0  0  0  0  0  0  0  0  0
  148.3438  133.7538  154.3309 C   0  0  0  0  0  0  0  0  0  0  0  0
  148.0114  133.1956  152.9358 C   0  0  0  0  0  0  0  0  0  0  0  0
  146.7036  132.5400  152.9519 N   0  0  0  0  0  0  0  0  0  0  0  0
  146.4003  132.0638  151.6122 C   0  0  0  0  0  0  0  0  0  0  0  0
  146.4531  133.0689  150.4843 C   0  0  0  0  0  0  0  0  0  0  0  0
  145.1212  132.5507  150.9702 C   0  0  0  0  0  0  0  0  0  0  0  0
  146.7310  131.3966  153.8644 C   0  0  0  0  0  0  0  0  0  0  0  0
  147.0061  131.8701  155.3027 C   0  0  0  0  0  0  0  0  0  0  0  0
  149.0331  134.0834  158.7713 H   0  0  0  0  0  0  0  0  0  0  0  0
  145.7544  133.7111  159.9752 H   0  0  0  0  0  0  0  0  0  0  0  0
  145.9854  137.2074  162.3989 H   0  0  0  0  0  0  0  0  0  0  0  0
  149.4144  133.1066  157.1414 H   0  0  0  0  0  0  0  0  0  0  0  0
  149.1446  131.9418  155.1576 H   0  0  0  0  0  0  0  0  0  0  0  0
  147.6172  134.5244  154.5937 H   0  0  0  0  0  0  0  0  0  0  0  0
  149.3191  134.2411  154.3109 H   0  0  0  0  0  0  0  0  0  0  0  0
  148.0009  134.0110  152.2116 H   0  0  0  0  0  0  0  0  0  0  0  0
  148.7821  132.4926  152.6153 H   0  0  0  0  0  0  0  0  0  0  0  0
  146.6972  131.0515  151.3425 H   0  0  0  0  0  0  0  0  0  0  0  0
  146.7101  134.0979  150.7290 H   0  0  0  0  0  0  0  0  0  0  0  0
  146.8075  132.7180  149.5173 H   0  0  0  0  0  0  0  0  0  0  0  0
  144.5871  131.8548  150.3263 H   0  0  0  0  0  0  0  0  0  0  0  0
  144.4937  133.2364  151.5367 H   0  0  0  0  0  0  0  0  0  0  0  0
  145.7712  130.8799  153.8295 H   0  0  0  0  0  0  0  0  0  0  0  0
  147.4918  130.6803  153.5496 H   0  0  0  0  0  0  0  0  0  0  0  0
  147.0280  131.0123  155.9757 H   0  0  0  0  0  0  0  0  0  0  0  0
  146.1844  132.5055  155.6371 H   0  0  0  0  0  0  0  0  0  0  0  0
  1  2  2  0  0  0  0
  2  3  1  0  0  0  0
  2 15  1  0  0  0  0
  3  4  1  0  0  0  0
  3 25  1  0  0  0  0
  4 13  1  0  0  0  0
  4  5  2  0  0  0  0
  5  6  1  0  0  0  0
  5 26  1  0  0  0  0
  6  7  1  0  0  0  0
  6 11  2  0  0  0  0
  7  8  1  0  0  0  0
  7  9  1  0  0  0  0
  7 10  1  0  0  0  0
 11 12  1  0  0  0  0
 11 27  1  0  0  0  0
 12 13  1  0  0  0  0
 13 14  2  0  0  0  0
 15 16  1  0  0  0  0
 15 28  1  0  0  0  0
 16 24  1  0  0  0  0
 16 17  1  0  0  0  0
 16 29  1  0  0  0  0
 17 18  1  0  0  0  0
 17 30  1  0  0  0  0
 17 31  1  0  0  0  0
 18 19  1  0  0  0  0
 18 32  1  0  0  0  0
 18 33  1  0  0  0  0
 19 20  1  0  0  0  0
 19 23  1  0  0  0  0
 20 22  1  0  0  0  0
 20 21  1  0  0  0  0
 20 34  1  0  0  0  0
 21 22  1  0  0  0  0
 21 35  1  0  0  0  0
 21 36  1  0  0  0  0
 22 37  1  0  0  0  0
 22 38  1  0  0  0  0
 23 24  1  0  0  0  0
 23 39  1  0  0  0  0
 23 40  1  0  0  0  0
 24 41  1  0  0  0  0
 24 42  1  0  0  0  0
M  CHG  1  12  -1
M  END
> <s_m_source_file>
AV-unprocessed.smi

> <i_m_source_file_index>
1760

> <i_lp_mmshare_version>
43012

> <i_f3d_flags>
0

> <s_epik_input>
W0NIMl0xW0NIMl1bQ0hdMU4oW0NIMl1bQ0gyXTIpW0NIMl1bQ0gyXVtDSF0yW05IXUMoPU8pW05IXWMzW2NIXWMoQyhGKShGKUYpW2NIXVtuSF1jMz1P

> <s_epik_cmdline>
J2VwaWtfcHl0aG9uJywgJy1waCcsICc3LjAnLCAnLXRuJywgJzgnLCAnLW1hJywgJzIwMCcsICctbWV0YWxfYmluZGluZycsICctaW1hZScsICc8aW5maWxlLm1hZT4nLCAnLW9tYWUnLCAnPG91dGZpbGUubWFlPic=

> <r_lp_tautomer_probability>
0.999

> <r_epik_Ionization_Penalty>
4.20788

> <r_epik_Ionization_Penalty_Charging>
0.176783

> <r_epik_Ionization_Penalty_Neutral>
4.0311

> <r_epik_State_Penalty>
4.02505

> <r_epik_Charging_Adjusted_Penalty>
4.20183

> <i_epik_Tot_Q>
-1

> <i_epik_Tot_abs_Q>
1

> <r_epik_Metal_State_Penalty>
1.4828

> <b_epik_Metal_Only>
1

> <s_lp_Force_Field>
OPLS_2005

> <r_lp_Energy>
35.3535

> <b_lp_Chiralities_Consistent>
1

> <s_lp_Variant>
AV-unprocessed.smi:1760-6

> <Gold.Version>
5.8.1

> <Gold.Id.Protein>
6NUR|6NUR_protein|mol2

> <Gold.PLP.Fitness>
38.7392

> <Gold.PLP.PLP>
-29.5461

> <Gold.PLP.part.hbond>
-2.0000

> <Gold.PLP.part.metal>
0.0000

> <Gold.PLP.part.buried>
-3.7077

> <Gold.PLP.part.nonpolar>
-23.3097

> <Gold.PLP.part.repulsive>
0.2217

> <Gold.PLP.ligand.clash>
0.2134

> <Gold.PLP.ligand.torsion>
1.7014

> <Gold.PLP.Chemscore.Hbond>
3.8599

> <Gold.PLP.Chemscore.CHOScore>
0.0000

> <Gold.PLP.Chemscore.Metal>
0.0000

> <Gold.Chemscore.Hbonds>
donor molecule, donor type, donor heavy atom, donor atom, acceptor molecule, acceptor atom, score
      P1  H  6896  6908       L1    14  0.18
      P1  H  6931  6943       L1    12  1.55
      P1  H  6934  6947       L1    12  1.59

> <Gold.PLP.Chemscore.Internal.Correction>
1.2296

> <Gold.Rescore>
     Score         DG    S(hbond)    S(metal)    S(lipo)     H(rot)  DE(clash)    DE(int)     intcor
     13.95     -16.72       1.96        0.00      67.72       1.26       0.01       2.76       ----

> <Gold.Chemscore.Fitness>
13.9487

> <Gold.Chemscore.DG>
-16.7159

> <Gold.Chemscore.ZeroCoef>
-5.4800

> <Gold.Chemscore.Hbond>
1.9610

> <Gold.Chemscore.Metal>
0.0000

> <Gold.Chemscore.Lipo>
67.7157

> <Gold.Chemscore.Internal_Hbond>
0.0000

> <Gold.Chemscore.DEClash>
0.0121

> <Gold.Chemscore.DEInternal>
2.7550

> <Gold.Chemscore.Rot>
1.2644

> <Gold.Chemscore.Internal.Correction>
   9.000000E+99

> <Gold.Chemscore.Hbonds>
donor molecule, donor type, donor heavy atom, donor atom, acceptor molecule, acceptor atom, score
      P1  H  6896  6908       L1    14  0.16
      P1  H  6931  6943       L1    12  0.54
      P1  H  6934  6947       L1    12  0.19

> <Gold.Chemscore.Hbond.Weighted>
-6.5499

> <Gold.Chemscore.Metal.Weighted>
-0.0000

> <Gold.Chemscore.Lipo.Weighted>
-7.9227

> <Gold.Chemscore.Internal_Hbond.Weighted>
0.0000

> <Gold.Chemscore.DEClash.Weighted>
0.0121

> <Gold.Chemscore.DEInternal.Weighted>
2.7550

> <Gold.Chemscore.Rot.Weighted>
3.2367

> <Gold.Chemscore.Internal.Correction.Weighted>
   9.000000E+99

> <Gold.Protein.RotatedTorsions>
[ 6907 6896 6895 6894 ] final -168.57 input  -60.11 | X-H torsion
[ 7974 7965 7964 7962 ] final   48.92 input  175.53 | X-H torsion
[ 8008 7997 7996 7995 ] final   48.08 input   59.86 | X-H torsion
[ 10167 10162 10161 10158 ] final -149.00 input  -65.29 | X-H torsion
[ 10718 10713 10712 10709 ] final   46.29 input   66.30 | X-H torsion
[ 10763 10752 10751 10750 ] final  -22.08 input  -60.55 | X-H torsion
[ 11005 11000 10999 10996 ] final  179.61 input  -57.11 | X-H torsion

> <Gold.Protein.ActiveResidues>
 VAL166  LYS551  ARG553  GLY616  TRP617  ASP618  TYR619  PRO620  LYS621  CYS622 
 ASP623  PHE694  ASN695  SER759  ASP760  ASP761  ALA762  ILE779  LEU786  VAL792 
 PHE793  MET794  SER795  GLU796  ALA797  LYS798  CYS799  TRP800  GLU811  SER814 

> <Gold.Protein.RotatedAtoms>
  151.4777  133.3554  159.2832 H   0  0  0  0  0  0  0  0  0  0  0  0  # atno 6907 bound_to 6896
  150.8918  134.8325  159.7310 H   0  0  0  0  0  0  0  0  0  0  0  0  # atno 6908 bound_to 6896
  152.4828  134.4687  159.9680 H   0  0  0  0  0  0  0  0  0  0  0  0  # atno 6909 bound_to 6896
  146.0158  139.4595  142.9927 H   0  0  0  0  0  0  0  0  0  0  0  0  # atno 7974 bound_to 7965
  155.3797  140.3428  155.4246 H   0  0  0  0  0  0  0  0  0  0  0  0  # atno 8008 bound_to 7997
  156.1617  140.1603  156.8634 H   0  0  0  0  0  0  0  0  0  0  0  0  # atno 8009 bound_to 7997
  154.5146  140.0781  156.8038 H   0  0  0  0  0  0  0  0  0  0  0  0  # atno 8010 bound_to 7997
  139.7481  143.8560  152.2579 H   0  0  0  0  0  0  0  0  0  0  0  0  # atno 10167 bound_to 10162
  157.4466  130.8113  149.7746 H   0  0  0  0  0  0  0  0  0  0  0  0  # atno 10718 bound_to 10713
  153.6463  135.6983  153.5224 H   0  0  0  0  0  0  0  0  0  0  0  0  # atno 10763 bound_to 10752
  153.2742  135.4205  155.1016 H   0  0  0  0  0  0  0  0  0  0  0  0  # atno 10764 bound_to 10752
  154.8487  135.3586  154.6008 H   0  0  0  0  0  0  0  0  0  0  0  0  # atno 10765 bound_to 10752
  140.4080  134.6717  157.4598 H   0  0  0  0  0  0  0  0  0  0  0  0  # atno 11005 bound_to 11000
  145.7270  141.0055  143.1372 LP  0  0  0  0  0  0  0  0  0  0  0  0  # atno 17320 bound_to 7965
  144.6970  139.8939  143.7454 LP  0  0  0  0  0  0  0  0  0  0  0  0  # atno 17321 bound_to 7965
  139.8530  144.7155  150.9191 LP  0  0  0  0  0  0  0  0  0  0  0  0  # atno 17342 bound_to 10162
  140.7794  143.3883  151.1355 LP  0  0  0  0  0  0  0  0  0  0  0  0  # atno 17343 bound_to 10162
  155.9970  130.3903  150.2758 LP  0  0  0  0  0  0  0  0  0  0  0  0  # atno 17370 bound_to 10713
  157.0927  131.0174  151.3115 LP  0  0  0  0  0  0  0  0  0  0  0  0  # atno 17371 bound_to 10713
  140.0288  134.6437  155.9136 LP  0  0  0  0  0  0  0  0  0  0  0  0  # atno 17394 bound_to 11000
  141.1832  133.6550  156.5106 LP  0  0  0  0  0  0  0  0  0  0  0  0  # atno 17395 bound_to 11000

$$$$
