AV-unprocessed.smi:3316|AV-procd|sdf|12757|dock3
  -GOLD-   2272019 93D 1   1.00000     0.00000
 Structure written by MMmdl.
 41 43  0  0  0  0  0  0  0  0  2 V2000
  147.8759  139.2972  156.5238 C   0  0  0  0  0  0  0  0  0  0  0  0
  149.2219  140.0363  156.4618 C   0  0  2  0  0  0  0  0  0  0  0  0
  149.0683  141.4369  155.8379 C   0  0  0  0  0  0  0  0  0  0  0  0
  149.5069  142.4985  156.7668 N   0  3  0  0  0  0  0  0  0  0  0  0
  150.9374  142.4314  157.1226 C   0  0  0  0  0  0  0  0  0  0  0  0
  151.1789  142.9352  158.5572 C   0  0  2  0  0  0  0  0  0  0  0  0
  150.6124  144.3653  158.8294 C   0  0  0  0  0  0  0  0  0  0  0  0
  151.8465  145.1411  159.3449 C   0  0  1  0  0  0  0  0  0  0  0  0
  152.2698  144.5308  160.6641 C   0  0  0  0  0  0  0  0  0  0  0  0
  152.7751  143.3247  160.3989 C   0  0  0  0  0  0  0  0  0  0  0  0
  152.6806  143.1161  158.9013 C   0  0  2  0  0  0  0  0  0  0  0  0
  152.9195  144.5546  158.4235 C   0  0  0  0  0  0  0  0  0  0  0  0
  150.2779  139.2013  155.7477 C   0  0  0  0  0  0  0  0  0  0  0  0
  151.6280  139.6112  155.7368 C   0  0  0  0  0  0  0  0  0  0  0  0
  152.5712  138.8113  155.0610 C   0  0  0  0  0  0  0  0  0  0  0  0
  152.2487  137.6693  154.4176 N   0  0  0  0  0  0  0  0  0  0  0  0
  150.9563  137.2796  154.4314 C   0  0  0  0  0  0  0  0  0  0  0  0
  149.9360  138.0069  155.0767 C   0  0  0  0  0  0  0  0  0  0  0  0
  147.9833  138.3309  157.0176 H   0  0  0  0  0  0  0  0  0  0  0  0
  147.4671  139.1182  155.5288 H   0  0  0  0  0  0  0  0  0  0  0  0
  147.1385  139.8718  157.0849 H   0  0  0  0  0  0  0  0  0  0  0  0
  149.5531  140.1742  157.4925 H   0  0  0  0  0  0  0  0  0  0  0  0
  149.6401  141.5088  154.9117 H   0  0  0  0  0  0  0  0  0  0  0  0
  148.0232  141.6107  155.5789 H   0  0  0  0  0  0  0  0  0  0  0  0
  149.3257  143.3956  156.3395 H   0  0  0  0  0  0  0  0  0  0  0  0
  151.2679  141.3953  157.0388 H   0  0  0  0  0  0  0  0  0  0  0  0
  151.5170  143.0098  156.4028 H   0  0  0  0  0  0  0  0  0  0  0  0
  150.7380  142.2170  159.2514 H   0  0  0  0  0  0  0  0  0  0  0  0
  150.2282  144.8257  157.9180 H   0  0  0  0  0  0  0  0  0  0  0  0
  149.8030  144.3547  159.5605 H   0  0  0  0  0  0  0  0  0  0  0  0
  151.7712  146.2288  159.3441 H   0  0  0  0  0  0  0  0  0  0  0  0
  152.1442  144.9984  161.6296 H   0  0  0  0  0  0  0  0  0  0  0  0
  153.1482  142.5946  161.1018 H   0  0  0  0  0  0  0  0  0  0  0  0
  153.3671  142.3675  158.5047 H   0  0  0  0  0  0  0  0  0  0  0  0
  152.7269  144.7156  157.3618 H   0  0  0  0  0  0  0  0  0  0  0  0
  153.9233  144.9181  158.6534 H   0  0  0  0  0  0  0  0  0  0  0  0
  151.9424  140.5162  156.2358 H   0  0  0  0  0  0  0  0  0  0  0  0
  153.6122  139.0977  155.0355 H   0  0  0  0  0  0  0  0  0  0  0  0
  150.7272  136.3614  153.9114 H   0  0  0  0  0  0  0  0  0  0  0  0
  148.9173  137.6485  155.0559 H   0  0  0  0  0  0  0  0  0  0  0  0
  148.9610  142.4289  157.6140 H   0  0  0  0  0  0  0  0  0  0  0  0
  1  2  1  0  0  0  0
  1 19  1  0  0  0  0
  1 20  1  0  0  0  0
  1 21  1  0  0  0  0
  2  3  1  0  0  0  0
  2 13  1  0  0  0  0
  2 22  1  0  0  0  0
  3  4  1  0  0  0  0
  3 23  1  0  0  0  0
  3 24  1  0  0  0  0
  4  5  1  0  0  0  0
  4 25  1  0  0  0  0
  4 41  1  0  0  0  0
  5  6  1  0  0  0  0
  5 26  1  0  0  0  0
  5 27  1  0  0  0  0
  6 11  1  0  0  0  0
  6  7  1  0  0  0  0
  6 28  1  0  0  0  0
  7  8  1  0  0  0  0
  7 29  1  0  0  0  0
  7 30  1  0  0  0  0
  8 12  1  0  0  0  0
  8  9  1  0  0  0  0
  8 31  1  0  0  0  0
  9 10  2  0  0  0  0
  9 32  1  0  0  0  0
 10 11  1  0  0  0  0
 10 33  1  0  0  0  0
 11 12  1  0  0  0  0
 11 34  1  0  0  0  0
 12 35  1  0  0  0  0
 12 36  1  0  0  0  0
 13 18  1  0  0  0  0
 13 14  2  0  0  0  0
 14 15  1  0  0  0  0
 14 37  1  0  0  0  0
 15 16  2  0  0  0  0
 15 38  1  0  0  0  0
 16 17  1  0  0  0  0
 17 18  2  0  0  0  0
 17 39  1  0  0  0  0
 18 40  1  0  0  0  0
M  CHG  1   4   1
M  END
> <s_m_source_file>
AV-unprocessed.smi

> <i_m_source_file_index>
3316

> <i_lp_mmshare_version>
43012

> <i_f3d_flags>
0

> <s_epik_input>
W2NIXTFbY0hdbltjSF1bY0hdYzFbQ0BIXShbQ0gzXSlbQ0gyXVtOSF1bQ0gyXVtDQEhdKFtDSDJdW0NASF0yMylbQ0BIXShbQ0gyXTMpW0NIXT1bQ0hdMg==

> <s_epik_cmdline>
J2VwaWtfcHl0aG9uJywgJy1waCcsICc3LjAnLCAnLXRuJywgJzgnLCAnLW1hJywgJzIwMCcsICctbWV0YWxfYmluZGluZycsICctaW1hZScsICc8aW5maWxlLm1hZT4nLCAnLW9tYWUnLCAnPG91dGZpbGUubWFlPic=

> <r_lp_tautomer_probability>
1

> <r_epik_Ionization_Penalty>
0.00280406

> <r_epik_Ionization_Penalty_Charging>
0.000446589

> <r_epik_Ionization_Penalty_Neutral>
0.00235747

> <r_epik_State_Penalty>
-0

> <r_epik_Charging_Adjusted_Penalty>
0.000446589

> <i_epik_Tot_Q>
1

> <i_epik_Tot_abs_Q>
1

> <r_epik_Metal_State_Penalty>
-0

> <b_epik_Metal_Only>
0

> <s_lp_Force_Field>
OPLS_2005

> <r_lp_Energy>
65.5539

> <b_lp_Chiralities_Consistent>
1

> <s_lp_Variant>
AV-unprocessed.smi:3316-5

> <Gold.Version>
5.8.1

> <Gold.Id.Protein>
6NUR|6NUR_protein|mol2

> <Gold.PLP.Fitness>
51.1036

> <Gold.PLP.PLP>
-43.7484

> <Gold.PLP.part.hbond>
-2.0000

> <Gold.PLP.part.metal>
0.0000

> <Gold.PLP.part.buried>
-5.2909

> <Gold.PLP.part.nonpolar>
-37.2470

> <Gold.PLP.part.repulsive>
0.1200

> <Gold.PLP.ligand.clash>
0.0000

> <Gold.PLP.ligand.torsion>
1.0625

> <Gold.PLP.Chemscore.Hbond>
2.1051

> <Gold.PLP.Chemscore.CHOScore>
1.0111

> <Gold.PLP.Chemscore.Metal>
0.0000

> <Gold.Chemscore.Hbonds>
donor molecule, donor type, donor heavy atom, donor atom, acceptor molecule, acceptor atom, score
      L1  H     4    25       P1  8028  2.00
      P1  H 10752 10765       L1    16  0.35
      L1  C    17    39       P1  7948  0.17
      L1  C    17    39       P1  7949  0.62

> <Gold.PLP.Chemscore.Internal.Correction>
0.1316

> <Gold.Rescore>
     Score         DG    S(hbond)    S(metal)    S(lipo)     H(rot)  DE(clash)    DE(int)     intcor
     20.13     -21.14       1.01        0.00     134.96       1.36       0.03       0.97       ----

> <Gold.Chemscore.Fitness>
20.1292

> <Gold.Chemscore.DG>
-21.1360

> <Gold.Chemscore.ZeroCoef>
-5.4800

> <Gold.Chemscore.Hbond>
1.0053

> <Gold.Chemscore.Metal>
0.0000

> <Gold.Chemscore.Lipo>
134.9607

> <Gold.Chemscore.Internal_Hbond>
0.0000

> <Gold.Chemscore.DEClash>
0.0348

> <Gold.Chemscore.DEInternal>
0.9721

> <Gold.Chemscore.Rot>
1.3640

> <Gold.Chemscore.Internal.Correction>
   9.000000E+99

> <Gold.Chemscore.Hbonds>
donor molecule, donor type, donor heavy atom, donor atom, acceptor molecule, acceptor atom, score
      L1  H     4    25       P1  8028  0.95
      P1  H 10752 10765       L1    16  0.06

> <Gold.Chemscore.Hbond.Weighted>
-3.3576

> <Gold.Chemscore.Metal.Weighted>
-0.0000

> <Gold.Chemscore.Lipo.Weighted>
-15.7904

> <Gold.Chemscore.Internal_Hbond.Weighted>
0.0000

> <Gold.Chemscore.DEClash.Weighted>
0.0348

> <Gold.Chemscore.DEInternal.Weighted>
0.9721

> <Gold.Chemscore.Rot.Weighted>
3.4919

> <Gold.Chemscore.Internal.Correction.Weighted>
   9.000000E+99

> <Gold.Protein.RotatedTorsions>
[ 6907 6896 6895 6894 ] final   51.83 input  -60.11 | X-H torsion
[ 7974 7965 7964 7962 ] final  157.31 input  175.53 | X-H torsion
[ 8008 7997 7996 7995 ] final  -99.99 input   59.86 | X-H torsion
[ 10167 10162 10161 10158 ] final  -93.65 input  -65.29 | X-H torsion
[ 10718 10713 10712 10709 ] final  151.76 input   66.30 | X-H torsion
[ 10763 10752 10751 10750 ] final  137.99 input  -60.55 | X-H torsion
[ 11005 11000 10999 10996 ] final  -17.13 input  -57.11 | X-H torsion

> <Gold.Protein.ActiveResidues>
 VAL166  LYS551  ARG553  GLY616  TRP617  ASP618  TYR619  PRO620  LYS621  CYS622 
 ASP623  PHE694  ASN695  SER759  ASP760  ASP761  ALA762  ILE779  LEU786  VAL792 
 PHE793  MET794  SER795  GLU796  ALA797  LYS798  CYS799  TRP800  GLU811  SER814 

> <Gold.Protein.RotatedAtoms>
  152.3168  134.7430  160.0323 H   0  0  0  0  0  0  0  0  0  0  0  0  # atno 6907 bound_to 6896
  151.7892  133.3352  159.3502 H   0  0  0  0  0  0  0  0  0  0  0  0  # atno 6908 bound_to 6896
  150.7349  134.5789  159.5973 H   0  0  0  0  0  0  0  0  0  0  0  0  # atno 6909 bound_to 6896
  144.7911  139.7322  143.6221 H   0  0  0  0  0  0  0  0  0  0  0  0  # atno 7974 bound_to 7965
  154.8225  140.0444  157.1420 H   0  0  0  0  0  0  0  0  0  0  0  0  # atno 8008 bound_to 7997
  154.9244  140.3031  155.5179 H   0  0  0  0  0  0  0  0  0  0  0  0  # atno 8009 bound_to 7997
  156.2981  140.2334  156.4297 H   0  0  0  0  0  0  0  0  0  0  0  0  # atno 8010 bound_to 7997
  140.3225  143.3041  152.0031 H   0  0  0  0  0  0  0  0  0  0  0  0  # atno 10167 bound_to 10162
  157.2665  131.0808  151.1629 H   0  0  0  0  0  0  0  0  0  0  0  0  # atno 10718 bound_to 10713
  153.8822  135.3043  155.3445 H   0  0  0  0  0  0  0  0  0  0  0  0  # atno 10763 bound_to 10752
  154.7756  135.4863  153.9741 H   0  0  0  0  0  0  0  0  0  0  0  0  # atno 10764 bound_to 10752
  153.1345  135.6811  153.9222 H   0  0  0  0  0  0  0  0  0  0  0  0  # atno 10765 bound_to 10752
  140.8137  133.8121  155.9589 H   0  0  0  0  0  0  0  0  0  0  0  0  # atno 11005 bound_to 11000
  146.2163  139.5555  142.9648 LP  0  0  0  0  0  0  0  0  0  0  0  0  # atno 17320 bound_to 7965
  145.5792  141.0384  143.2131 LP  0  0  0  0  0  0  0  0  0  0  0  0  # atno 17321 bound_to 7965
  139.4871  144.6300  151.7090 LP  0  0  0  0  0  0  0  0  0  0  0  0  # atno 17342 bound_to 10162
  140.5471  144.0486  150.6111 LP  0  0  0  0  0  0  0  0  0  0  0  0  # atno 17343 bound_to 10162
  157.3118  130.6893  149.6220 LP  0  0  0  0  0  0  0  0  0  0  0  0  # atno 17370 bound_to 10713
  155.9663  130.4361  150.5120 LP  0  0  0  0  0  0  0  0  0  0  0  0  # atno 17371 bound_to 10713
  140.9171  134.2188  157.4950 LP  0  0  0  0  0  0  0  0  0  0  0  0  # atno 17394 bound_to 11000
  139.8712  134.9776  156.4965 LP  0  0  0  0  0  0  0  0  0  0  0  0  # atno 17395 bound_to 11000

$$$$
