AV-unprocessed.smi:3328|AV-procd|sdf|12794|dock3
  -GOLD-   2272019143D 1   1.00000     0.00000
 Structure written by MMmdl.
 40 41  0  0  0  0  0  0  0  0  1 V2000
  146.1034  143.4733  153.5149 C   0  0  0  0  0  0  0  0  0  0  0  0
  146.7901  142.2518  154.0541 C   0  0  0  0  0  0  0  0  0  0  0  0
  146.7415  141.7374  155.3806 C   0  0  0  0  0  0  0  0  0  0  0  0
  147.4602  140.6380  155.5317 N   0  0  0  0  0  0  0  0  0  0  0  0
  147.9983  140.4136  154.3139 N   0  0  0  0  0  0  0  0  0  0  0  0
  148.8623  139.2615  154.1055 C   0  0  0  0  0  0  0  0  0  0  0  0
  150.1080  139.2307  155.0285 C   0  0  1  0  0  0  0  0  0  0  0  0
  151.0688  138.0786  154.6933 C   0  0  0  0  0  0  0  0  0  0  0  0
  150.8716  140.4717  154.9627 N   0  0  0  0  0  0  0  0  0  0  0  0
  151.4814  140.8246  156.2373 C   0  0  0  0  0  0  0  0  0  0  0  0
  150.7943  142.0742  156.8137 C   0  0  0  0  0  0  0  0  0  0  0  0
  151.5690  142.6730  157.9003 N   0  0  0  0  0  0  0  0  0  0  0  0
  151.8906  144.0902  157.8854 C   0  0  0  0  0  0  0  0  0  0  0  0
  152.5828  144.3651  159.2284 C   0  0  0  0  0  0  0  0  0  0  0  0
  152.8128  142.9955  159.8776 C   0  0  0  0  0  0  0  0  0  0  0  0
  152.0704  142.0354  158.9643 C   0  0  0  0  0  0  0  0  0  0  0  0
  151.9650  140.8338  159.2059 O   0  0  0  0  0  0  0  0  0  0  0  0
  147.6024  141.3683  153.4010 C   0  0  0  0  0  0  0  0  0  0  0  0
  146.0521  144.2680  154.2596 H   0  0  0  0  0  0  0  0  0  0  0  0
  145.0812  143.2553  153.2058 H   0  0  0  0  0  0  0  0  0  0  0  0
  146.6229  143.8804  152.6471 H   0  0  0  0  0  0  0  0  0  0  0  0
  146.2062  142.1279  156.2333 H   0  0  0  0  0  0  0  0  0  0  0  0
  148.2671  138.3541  154.2077 H   0  0  0  0  0  0  0  0  0  0  0  0
  149.1889  139.2766  153.0651 H   0  0  0  0  0  0  0  0  0  0  0  0
  149.7743  139.0886  156.0574 H   0  0  0  0  0  0  0  0  0  0  0  0
  150.5506  137.1197  154.7165 H   0  0  0  0  0  0  0  0  0  0  0  0
  151.8845  138.0260  155.4153 H   0  0  0  0  0  0  0  0  0  0  0  0
  151.5132  138.1931  153.7039 H   0  0  0  0  0  0  0  0  0  0  0  0
  151.5962  140.3882  154.2643 H   0  0  0  0  0  0  0  0  0  0  0  0
  151.4171  140.0039  156.9502 H   0  0  0  0  0  0  0  0  0  0  0  0
  152.5409  141.0260  156.0762 H   0  0  0  0  0  0  0  0  0  0  0  0
  150.6720  142.8175  156.0245 H   0  0  0  0  0  0  0  0  0  0  0  0
  149.7880  141.8324  157.1593 H   0  0  0  0  0  0  0  0  0  0  0  0
  152.5556  144.3060  157.0483 H   0  0  0  0  0  0  0  0  0  0  0  0
  150.9886  144.6929  157.7707 H   0  0  0  0  0  0  0  0  0  0  0  0
  153.5205  144.9041  159.0886 H   0  0  0  0  0  0  0  0  0  0  0  0
  151.9447  144.9808  159.8631 H   0  0  0  0  0  0  0  0  0  0  0  0
  153.8716  142.7360  159.9034 H   0  0  0  0  0  0  0  0  0  0  0  0
  152.4160  142.9530  160.8924 H   0  0  0  0  0  0  0  0  0  0  0  0
  147.9325  141.3422  152.3729 H   0  0  0  0  0  0  0  0  0  0  0  0
  1  2  1  0  0  0  0
  1 19  1  0  0  0  0
  1 20  1  0  0  0  0
  1 21  1  0  0  0  0
  2 18  2  0  0  0  0
  2  3  1  0  0  0  0
  3  4  2  0  0  0  0
  3 22  1  0  0  0  0
  4  5  1  0  0  0  0
  5  6  1  0  0  0  0
  5 18  1  0  0  0  0
  6  7  1  0  0  0  0
  6 23  1  0  0  0  0
  6 24  1  0  0  0  0
  7  8  1  0  0  0  0
  7  9  1  0  0  0  0
  7 25  1  0  0  0  0
  8 26  1  0  0  0  0
  8 27  1  0  0  0  0
  8 28  1  0  0  0  0
  9 10  1  0  0  0  0
  9 29  1  0  0  0  0
 10 11  1  0  0  0  0
 10 30  1  0  0  0  0
 10 31  1  0  0  0  0
 11 12  1  0  0  0  0
 11 32  1  0  0  0  0
 11 33  1  0  0  0  0
 12 16  1  0  0  0  0
 12 13  1  0  0  0  0
 13 14  1  0  0  0  0
 13 34  1  0  0  0  0
 13 35  1  0  0  0  0
 14 15  1  0  0  0  0
 14 36  1  0  0  0  0
 14 37  1  0  0  0  0
 15 16  1  0  0  0  0
 15 38  1  0  0  0  0
 15 39  1  0  0  0  0
 16 17  2  0  0  0  0
 18 40  1  0  0  0  0
M  END
> <s_m_source_file>
AV-unprocessed.smi

> <i_m_source_file_index>
3328

> <i_lp_mmshare_version>
43012

> <i_f3d_flags>
0

> <s_epik_input>
W0NIM11jMVtjSF1ubihbY0hdMSlbQ0gyXVtDQEhdKFtDSDNdKVtOSF1bQ0gyXVtDSDJdTjJbQ0gyXVtDSDJdW0NIMl1DMj1P

> <s_epik_cmdline>
J2VwaWtfcHl0aG9uJywgJy1waCcsICc3LjAnLCAnLXRuJywgJzgnLCAnLW1hJywgJzIwMCcsICctbWV0YWxfYmluZGluZycsICctaW1hZScsICc8aW5maWxlLm1hZT4nLCAnLW9tYWUnLCAnPG91dGZpbGUubWFlPic=

> <r_lp_tautomer_probability>
1

> <r_epik_Ionization_Penalty>
2.53591

> <r_epik_Ionization_Penalty_Charging>
0

> <r_epik_Ionization_Penalty_Neutral>
2.53591

> <r_epik_State_Penalty>
2.70334

> <r_epik_Charging_Adjusted_Penalty>
2.70334

> <i_epik_Tot_Q>
0

> <i_epik_Tot_abs_Q>
0

> <r_epik_Metal_State_Penalty>
2.70327

> <b_epik_Metal_Only>
0

> <s_lp_Force_Field>
OPLS_2005

> <r_lp_Energy>
23.1303

> <b_lp_Chiralities_Consistent>
1

> <s_lp_Variant>
AV-unprocessed.smi:3328-4

> <Gold.Version>
5.8.1

> <Gold.Id.Protein>
6NUR|6NUR_protein|mol2

> <Gold.PLP.Fitness>
45.0889

> <Gold.PLP.PLP>
-43.7601

> <Gold.PLP.part.hbond>
-1.0000

> <Gold.PLP.part.metal>
0.0000

> <Gold.PLP.part.buried>
-5.5310

> <Gold.PLP.part.nonpolar>
-37.2841

> <Gold.PLP.part.repulsive>
0.0321

> <Gold.PLP.ligand.clash>
0.0000

> <Gold.PLP.ligand.torsion>
0.9245

> <Gold.PLP.Chemscore.Hbond>
0.0000

> <Gold.PLP.Chemscore.CHOScore>
1.0000

> <Gold.PLP.Chemscore.Metal>
0.0000

> <Gold.Chemscore.Hbonds>
donor molecule, donor type, donor heavy atom, donor atom, acceptor molecule, acceptor atom, score
      L1  C    18    40       P1  7957  1.00

> <Gold.PLP.Chemscore.Internal.Correction>
0.1778

> <Gold.Rescore>
     Score         DG    S(hbond)    S(metal)    S(lipo)     H(rot)  DE(clash)    DE(int)     intcor
     11.57     -12.48       0.00        0.00     101.25       1.89       0.13       0.78       ----

> <Gold.Chemscore.Fitness>
11.5681

> <Gold.Chemscore.DG>
-12.4823

> <Gold.Chemscore.ZeroCoef>
-5.4800

> <Gold.Chemscore.Hbond>
0.0000

> <Gold.Chemscore.Metal>
0.0000

> <Gold.Chemscore.Lipo>
101.2461

> <Gold.Chemscore.Internal_Hbond>
0.0000

> <Gold.Chemscore.DEClash>
0.1316

> <Gold.Chemscore.DEInternal>
0.7826

> <Gold.Chemscore.Rot>
1.8920

> <Gold.Chemscore.Internal.Correction>
   9.000000E+99

> <Gold.Chemscore.Hbond.Weighted>
-0.0000

> <Gold.Chemscore.Metal.Weighted>
-0.0000

> <Gold.Chemscore.Lipo.Weighted>
-11.8458

> <Gold.Chemscore.Internal_Hbond.Weighted>
0.0000

> <Gold.Chemscore.DEClash.Weighted>
0.1316

> <Gold.Chemscore.DEInternal.Weighted>
0.7826

> <Gold.Chemscore.Rot.Weighted>
4.8435

> <Gold.Chemscore.Internal.Correction.Weighted>
   9.000000E+99

> <Gold.Protein.RotatedTorsions>
[ 6907 6896 6895 6894 ] final -149.29 input  -60.11 | X-H torsion
[ 7974 7965 7964 7962 ] final -122.19 input  175.53 | X-H torsion
[ 8008 7997 7996 7995 ] final   22.87 input   59.86 | X-H torsion
[ 10167 10162 10161 10158 ] final   26.50 input  -65.29 | X-H torsion
[ 10718 10713 10712 10709 ] final  -13.92 input   66.30 | X-H torsion
[ 10763 10752 10751 10750 ] final -171.95 input  -60.55 | X-H torsion
[ 11005 11000 10999 10996 ] final -175.62 input  -57.11 | X-H torsion

> <Gold.Protein.ActiveResidues>
 VAL166  LYS551  ARG553  GLY616  TRP617  ASP618  TYR619  PRO620  LYS621  CYS622 
 ASP623  PHE694  ASN695  SER759  ASP760  ASP761  ALA762  ILE779  LEU786  VAL792 
 PHE793  MET794  SER795  GLU796  ALA797  LYS798  CYS799  TRP800  GLU811  SER814 

> <Gold.Protein.RotatedAtoms>
  151.1820  133.4719  159.2593 H   0  0  0  0  0  0  0  0  0  0  0  0  # atno 6907 bound_to 6896
  151.1250  135.0099  159.8566 H   0  0  0  0  0  0  0  0  0  0  0  0  # atno 6908 bound_to 6896
  152.5457  134.1727  159.8656 H   0  0  0  0  0  0  0  0  0  0  0  0  # atno 6909 bound_to 6896
  145.0322  140.8077  143.4317 H   0  0  0  0  0  0  0  0  0  0  0  0  # atno 7974 bound_to 7965
  154.9722  140.3091  155.4983 H   0  0  0  0  0  0  0  0  0  0  0  0  # atno 8008 bound_to 7997
  156.2964  140.2282  156.4755 H   0  0  0  0  0  0  0  0  0  0  0  0  # atno 8009 bound_to 7997
  154.7866  140.0442  157.1157 H   0  0  0  0  0  0  0  0  0  0  0  0  # atno 8010 bound_to 7997
  140.5018  144.0303  150.6336 H   0  0  0  0  0  0  0  0  0  0  0  0  # atno 10167 bound_to 10162
  156.6234  130.4881  149.6156 H   0  0  0  0  0  0  0  0  0  0  0  0  # atno 10718 bound_to 10713
  154.6248  135.2879  155.0285 H   0  0  0  0  0  0  0  0  0  0  0  0  # atno 10763 bound_to 10752
  154.1467  135.6510  153.4958 H   0  0  0  0  0  0  0  0  0  0  0  0  # atno 10764 bound_to 10752
  153.0252  135.5346  154.7052 H   0  0  0  0  0  0  0  0  0  0  0  0  # atno 10765 bound_to 10752
  140.4613  134.6252  157.4843 H   0  0  0  0  0  0  0  0  0  0  0  0  # atno 11005 bound_to 11000
  145.1756  139.2380  143.5319 LP  0  0  0  0  0  0  0  0  0  0  0  0  # atno 17320 bound_to 7965
  146.3500  140.1517  142.8592 LP  0  0  0  0  0  0  0  0  0  0  0  0  # atno 17321 bound_to 7965
  140.3601  143.2913  152.0393 LP  0  0  0  0  0  0  0  0  0  0  0  0  # atno 17342 bound_to 10162
  139.4874  144.6309  151.7071 LP  0  0  0  0  0  0  0  0  0  0  0  0  # atno 17343 bound_to 10162
  156.2293  130.6785  151.1448 LP  0  0  0  0  0  0  0  0  0  0  0  0  # atno 17370 bound_to 10713
  157.7221  131.0674  150.6091 LP  0  0  0  0  0  0  0  0  0  0  0  0  # atno 17371 bound_to 10713
  139.9944  134.6935  155.9635 LP  0  0  0  0  0  0  0  0  0  0  0  0  # atno 17394 bound_to 11000
  141.1620  133.6538  156.4351 LP  0  0  0  0  0  0  0  0  0  0  0  0  # atno 17395 bound_to 11000

$$$$
