AV-unprocessed.smi:2124|AV-procd|sdf|8656|dock8
  -GOLD-   2272011403D 1   1.00000     0.00000
 Structure written by MMmdl.
 47 49  0  0  0  0  0  0  0  0  1 V2000
  149.7711  136.1094  156.1662 C   0  0  0  0  0  0  0  0  0  0  0  0
  149.6495  134.6826  155.6749 C   0  0  0  0  0  0  0  0  0  0  0  0
  150.1805  133.6671  156.2718 N   0  0  0  0  0  0  0  0  0  0  0  0
  149.9919  132.3900  155.7260 C   0  0  0  0  0  0  0  0  0  0  0  0
  150.6257  131.2479  156.5014 C   0  0  0  0  0  0  0  0  0  0  0  0
  149.2702  132.1991  154.5826 C   0  0  0  0  0  0  0  0  0  0  0  0
  149.0095  130.8144  153.9875 C   0  0  0  0  0  0  0  0  0  0  0  0
  147.5316  130.4367  153.8846 C   0  0  0  0  0  0  0  0  0  0  0  0
  146.8284  130.3999  154.8936 O   0  0  0  0  0  0  0  0  0  0  0  0
  147.0718  130.2053  152.6461 N   0  0  0  0  0  0  0  0  0  0  0  0
  145.6686  130.1061  152.2612 C   0  0  2  0  0  0  0  0  0  0  0  0
  145.3475  128.6633  151.8418 C   0  0  0  0  0  0  0  0  0  0  0  0
  145.3807  131.1257  151.1335 C   0  0  1  0  0  0  0  0  0  0  0  0
  143.8904  131.2660  150.7515 C   0  0  0  0  0  0  0  0  0  0  0  0
  143.6657  132.7897  150.7897 C   0  0  1  0  0  0  0  0  0  0  0  0
  143.6357  133.2596  152.2561 C   0  0  0  0  0  0  0  0  0  0  0  0
  145.1125  133.1514  152.6767 C   0  0  0  0  0  0  0  0  0  0  0  0
  145.7881  132.5979  151.4055 C   0  0  2  0  0  0  0  0  0  0  0  0
  145.0110  133.3271  150.3152 C   0  0  0  0  0  0  0  0  0  0  0  0
  148.6741  133.3676  153.9058 C   0  0  0  0  0  0  0  0  0  0  0  0
  147.9984  133.3092  152.8798 O   0  0  0  0  0  0  0  0  0  0  0  0
  148.9026  134.5573  154.5050 N   0  0  0  0  0  0  0  0  0  0  0  0
  148.5114  135.3869  154.0827 H   0  0  0  0  0  0  0  0  0  0  0  0
  149.3593  136.1955  157.1719 H   0  0  0  0  0  0  0  0  0  0  0  0
  149.2376  136.8062  155.5182 H   0  0  0  0  0  0  0  0  0  0  0  0
  150.8194  136.4071  156.1982 H   0  0  0  0  0  0  0  0  0  0  0  0
  149.8646  130.5495  156.8491 H   0  0  0  0  0  0  0  0  0  0  0  0
  151.1637  131.6142  157.3765 H   0  0  0  0  0  0  0  0  0  0  0  0
  151.3362  130.7066  155.8768 H   0  0  0  0  0  0  0  0  0  0  0  0
  149.4602  130.7227  152.9986 H   0  0  0  0  0  0  0  0  0  0  0  0
  149.5192  130.0674  154.5967 H   0  0  0  0  0  0  0  0  0  0  0  0
  147.7417  130.2293  151.8907 H   0  0  0  0  0  0  0  0  0  0  0  0
  145.0395  130.3522  153.1181 H   0  0  0  0  0  0  0  0  0  0  0  0
  144.2985  128.5559  151.5657 H   0  0  0  0  0  0  0  0  0  0  0  0
  145.5437  127.9656  152.6566 H   0  0  0  0  0  0  0  0  0  0  0  0
  145.9499  128.3540  150.9870 H   0  0  0  0  0  0  0  0  0  0  0  0
  145.9292  130.8022  150.2468 H   0  0  0  0  0  0  0  0  0  0  0  0
  143.7150  130.8698  149.7506 H   0  0  0  0  0  0  0  0  0  0  0  0
  143.2218  130.7418  151.4352 H   0  0  0  0  0  0  0  0  0  0  0  0
  142.8046  133.1190  150.2079 H   0  0  0  0  0  0  0  0  0  0  0  0
  143.2918  134.2920  152.3283 H   0  0  0  0  0  0  0  0  0  0  0  0
  142.9813  132.6443  152.8745 H   0  0  0  0  0  0  0  0  0  0  0  0
  145.5111  134.1373  152.9198 H   0  0  0  0  0  0  0  0  0  0  0  0
  145.2564  132.5212  153.5534 H   0  0  0  0  0  0  0  0  0  0  0  0
  146.8650  132.7676  151.3778 H   0  0  0  0  0  0  0  0  0  0  0  0
  145.2739  133.0077  149.3053 H   0  0  0  0  0  0  0  0  0  0  0  0
  145.0906  134.4139  150.3782 H   0  0  0  0  0  0  0  0  0  0  0  0
  1  2  1  0  0  0  0
  1 24  1  0  0  0  0
  1 25  1  0  0  0  0
  1 26  1  0  0  0  0
  2 22  1  0  0  0  0
  2  3  2  0  0  0  0
  3  4  1  0  0  0  0
  4  5  1  0  0  0  0
  4  6  2  0  0  0  0
  5 27  1  0  0  0  0
  5 28  1  0  0  0  0
  5 29  1  0  0  0  0
  6  7  1  0  0  0  0
  6 20  1  0  0  0  0
  7  8  1  0  0  0  0
  7 30  1  0  0  0  0
  7 31  1  0  0  0  0
  8  9  2  0  0  0  0
  8 10  1  0  0  0  0
 10 11  1  0  0  0  0
 10 32  1  0  0  0  0
 11 12  1  0  0  0  0
 11 13  1  0  0  0  0
 11 33  1  0  0  0  0
 12 34  1  0  0  0  0
 12 35  1  0  0  0  0
 12 36  1  0  0  0  0
 13 18  1  0  0  0  0
 13 14  1  0  0  0  0
 13 37  1  0  0  0  0
 14 15  1  0  0  0  0
 14 38  1  0  0  0  0
 14 39  1  0  0  0  0
 15 19  1  0  0  0  0
 15 16  1  0  0  0  0
 15 40  1  0  0  0  0
 16 17  1  0  0  0  0
 16 41  1  0  0  0  0
 16 42  1  0  0  0  0
 17 18  1  0  0  0  0
 17 43  1  0  0  0  0
 17 44  1  0  0  0  0
 18 19  1  0  0  0  0
 18 45  1  0  0  0  0
 19 46  1  0  0  0  0
 19 47  1  0  0  0  0
 20 21  2  0  0  0  0
 20 22  1  0  0  0  0
 22 23  1  0  0  0  0
M  END
> <s_m_source_file>
AV-unprocessed.smi

> <i_m_source_file_index>
2124

> <i_lp_mmshare_version>
43012

> <i_f3d_flags>
0

> <s_epik_input>
W0NIM11jMW5jKFtDSDNdKWMoYyg9TylbbkhdMSlbQ0gyXUMoPU8pW05IXVtDQEhdKFtDSDNdKVtDQEhdKFtDSDJdW0NASF0yMylbQ0BIXShbQ0gyXTMpW0NIMl1bQ0gyXTI=

> <s_epik_cmdline>
J2VwaWtfcHl0aG9uJywgJy1waCcsICc3LjAnLCAnLXRuJywgJzgnLCAnLW1hJywgJzIwMCcsICctbWV0YWxfYmluZGluZycsICctaW1hZScsICc8aW5maWxlLm1hZT4nLCAnLW9tYWUnLCAnPG91dGZpbGUubWFlPic=

> <r_lp_tautomer_probability>
0.839158

> <r_epik_Ionization_Penalty>
0.000383628

> <r_epik_Ionization_Penalty_Charging>
0.00035045

> <r_epik_Ionization_Penalty_Neutral>
3.31781e-05

> <r_epik_State_Penalty>
0.09125

> <r_epik_Charging_Adjusted_Penalty>
0.0916005

> <i_epik_Tot_Q>
0

> <i_epik_Tot_abs_Q>
0

> <r_epik_Metal_State_Penalty>
0.255229

> <b_epik_Metal_Only>
0

> <s_lp_Force_Field>
OPLS_2005

> <r_lp_Energy>
50.9321

> <b_lp_Chiralities_Consistent>
1

> <s_lp_Variant>
AV-unprocessed.smi:2124-7

> <Gold.Version>
5.8.1

> <Gold.Id.Protein>
6NUR|6NUR_protein|mol2

> <Gold.PLP.Fitness>
45.4994

> <Gold.PLP.PLP>
-40.0024

> <Gold.PLP.part.hbond>
-2.0000

> <Gold.PLP.part.metal>
0.0000

> <Gold.PLP.part.buried>
-4.1495

> <Gold.PLP.part.nonpolar>
-34.0063

> <Gold.PLP.part.repulsive>
0.8188

> <Gold.PLP.ligand.clash>
0.0000

> <Gold.PLP.ligand.torsion>
0.0831

> <Gold.PLP.Chemscore.Hbond>
1.8800

> <Gold.PLP.Chemscore.CHOScore>
0.0000

> <Gold.PLP.Chemscore.Metal>
0.0000

> <Gold.Chemscore.Hbonds>
donor molecule, donor type, donor heavy atom, donor atom, acceptor molecule, acceptor atom, score
      L1  H    10    32       P1 10747  0.80
      L1  H    22    23       P1  7948  0.04

> <Gold.PLP.Chemscore.Internal.Correction>
0.0233

> <Gold.Rescore>
     Score         DG    S(hbond)    S(metal)    S(lipo)     H(rot)  DE(clash)    DE(int)     intcor
     13.21     -14.70       0.99        0.00      86.77       1.65       1.36       0.13       ----

> <Gold.Chemscore.Fitness>
13.2110

> <Gold.Chemscore.DG>
-14.7046

> <Gold.Chemscore.ZeroCoef>
-5.4800

> <Gold.Chemscore.Hbond>
0.9896

> <Gold.Chemscore.Metal>
0.0000

> <Gold.Chemscore.Lipo>
86.7680

> <Gold.Chemscore.Internal_Hbond>
0.0000

> <Gold.Chemscore.DEClash>
1.3601

> <Gold.Chemscore.DEInternal>
0.1336

> <Gold.Chemscore.Rot>
1.6534

> <Gold.Chemscore.Internal.Correction>
   9.000000E+99

> <Gold.Chemscore.Hbonds>
donor molecule, donor type, donor heavy atom, donor atom, acceptor molecule, acceptor atom, score
      L1  H    10    32       P1 10747  0.78
      L1  H    22    23       P1  7948  0.06

> <Gold.Chemscore.Hbond.Weighted>
-3.3054

> <Gold.Chemscore.Metal.Weighted>
-0.0000

> <Gold.Chemscore.Lipo.Weighted>
-10.1519

> <Gold.Chemscore.Internal_Hbond.Weighted>
0.0000

> <Gold.Chemscore.DEClash.Weighted>
1.3601

> <Gold.Chemscore.DEInternal.Weighted>
0.1336

> <Gold.Chemscore.Rot.Weighted>
4.2326

> <Gold.Chemscore.Internal.Correction.Weighted>
   9.000000E+99

> <Gold.Protein.RotatedTorsions>
[ 6907 6896 6895 6894 ] final  151.58 input  -60.11 | X-H torsion
[ 7974 7965 7964 7962 ] final  -12.83 input  175.53 | X-H torsion
[ 8008 7997 7996 7995 ] final  -18.29 input   59.86 | X-H torsion
[ 10167 10162 10161 10158 ] final  179.79 input  -65.29 | X-H torsion
[ 10718 10713 10712 10709 ] final  -68.35 input   66.30 | X-H torsion
[ 10763 10752 10751 10750 ] final    1.68 input  -60.55 | X-H torsion
[ 11005 11000 10999 10996 ] final -121.34 input  -57.11 | X-H torsion

> <Gold.Protein.ActiveResidues>
 VAL166  LYS551  ARG553  GLY616  TRP617  ASP618  TYR619  PRO620  LYS621  CYS622 
 ASP623  PHE694  ASN695  SER759  ASP760  ASP761  ALA762  ILE779  LEU786  VAL792 
 PHE793  MET794  SER795  GLU796  ALA797  LYS798  CYS799  TRP800  GLU811  SER814 

> <Gold.Protein.RotatedAtoms>
  152.0986  133.4238  159.4576 H   0  0  0  0  0  0  0  0  0  0  0  0  # atno 6907 bound_to 6896
  150.6863  134.2787  159.4627 H   0  0  0  0  0  0  0  0  0  0  0  0  # atno 6908 bound_to 6896
  152.0645  134.9572  160.0625 H   0  0  0  0  0  0  0  0  0  0  0  0  # atno 6909 bound_to 6896
  146.2137  140.3115  142.8383 H   0  0  0  0  0  0  0  0  0  0  0  0  # atno 7974 bound_to 7965
  154.4917  140.2120  155.9534 H   0  0  0  0  0  0  0  0  0  0  0  0  # atno 8008 bound_to 7997
  156.1314  140.3196  155.8323 H   0  0  0  0  0  0  0  0  0  0  0  0  # atno 8009 bound_to 7997
  155.4289  140.0502  157.3011 H   0  0  0  0  0  0  0  0  0  0  0  0  # atno 8010 bound_to 7997
  139.5352  144.2519  152.0777 H   0  0  0  0  0  0  0  0  0  0  0  0  # atno 10167 bound_to 10162
  156.0510  130.4293  150.1988 H   0  0  0  0  0  0  0  0  0  0  0  0  # atno 10718 bound_to 10713
  153.3050  135.6958  153.7168 H   0  0  0  0  0  0  0  0  0  0  0  0  # atno 10763 bound_to 10752
  153.6068  135.3452  155.2965 H   0  0  0  0  0  0  0  0  0  0  0  0  # atno 10764 bound_to 10752
  154.8560  135.4354  154.2172 H   0  0  0  0  0  0  0  0  0  0  0  0  # atno 10765 bound_to 10752
  141.0077  134.0310  157.3455 H   0  0  0  0  0  0  0  0  0  0  0  0  # atno 11005 bound_to 11000
  144.8985  140.7612  143.5882 LP  0  0  0  0  0  0  0  0  0  0  0  0  # atno 17320 bound_to 7965
  145.3040  139.1840  143.4674 LP  0  0  0  0  0  0  0  0  0  0  0  0  # atno 17321 bound_to 7965
  140.1989  144.4678  150.6441 LP  0  0  0  0  0  0  0  0  0  0  0  0  # atno 17342 bound_to 10162
  140.6554  143.2236  151.5982 LP  0  0  0  0  0  0  0  0  0  0  0  0  # atno 17343 bound_to 10162
  157.0072  130.9940  151.3375 LP  0  0  0  0  0  0  0  0  0  0  0  0  # atno 17370 bound_to 10713
  157.5435  130.8135  149.8057 LP  0  0  0  0  0  0  0  0  0  0  0  0  # atno 17371 bound_to 10713
  139.9073  135.0182  156.7539 LP  0  0  0  0  0  0  0  0  0  0  0  0  # atno 17394 bound_to 11000
  140.6785  133.9496  155.7896 LP  0  0  0  0  0  0  0  0  0  0  0  0  # atno 17395 bound_to 11000

$$$$
