AV-unprocessed.smi:1795|AV-procd|sdf|7237|dock9
  -GOLD-   22720 8483D 1   1.00000     0.00000
 Structure written by MMmdl.
 47 48  0  0  0  0  0  0  0  0  1 V2000
  145.6727  143.2786  158.1047 C   0  0  0  0  0  0  0  0  0  0  0  0
  145.0586  142.3948  157.0051 C   0  0  2  0  0  0  0  0  0  0  0  0
  146.1127  141.6774  156.1385 C   0  0  0  0  0  0  0  0  0  0  0  0
  146.8069  142.5655  155.1986 N   0  0  0  0  0  0  0  0  0  0  0  0
  147.7975  141.8459  154.3631 C   0  0  2  0  0  0  0  0  0  0  0  0
  147.1733  140.6678  153.5715 C   0  0  0  0  0  0  0  0  0  0  0  0
  149.0159  141.3160  155.1758 C   0  0  0  0  0  0  0  0  0  0  0  0
  149.8713  142.3754  155.7033 N   0  0  0  0  0  0  0  0  0  0  0  0
  150.8203  142.2083  156.6364 C   0  0  0  0  0  0  0  0  0  0  0  0
  151.0944  141.1144  157.1316 O   0  0  0  0  0  0  0  0  0  0  0  0
  151.5819  143.4731  157.0560 C   0  0  0  0  0  0  0  0  0  0  0  0
  151.6283  143.6621  158.5153 N   0  0  0  0  0  0  0  0  0  0  0  0
  150.9957  144.8088  159.0361 C   0  0  0  0  0  0  0  0  0  0  0  0
  150.9787  145.0744  160.3519 C   0  0  0  0  0  0  0  0  0  0  0  0
  151.6327  144.1465  161.2439 C   0  0  0  0  0  0  0  0  0  0  0  0
  152.2444  143.0488  160.7561 C   0  0  0  0  0  0  0  0  0  0  0  0
  152.2668  142.7553  159.3183 C   0  0  0  0  0  0  0  0  0  0  0  0
  152.8245  141.7558  158.8635 O   0  0  0  0  0  0  0  0  0  0  0  0
  145.7899  143.2592  154.4023 C   0  0  0  0  0  0  0  0  0  0  0  0
  144.7688  144.0215  155.2661 C   0  0  1  0  0  0  0  0  0  0  0  0
  143.6667  144.6664  154.4188 C   0  0  0  0  0  0  0  0  0  0  0  0
  144.1513  143.1231  156.1815 O   0  0  0  0  0  0  0  0  0  0  0  0
  146.2646  142.6796  158.7973 H   0  0  0  0  0  0  0  0  0  0  0  0
  144.8944  143.7777  158.6820 H   0  0  0  0  0  0  0  0  0  0  0  0
  146.3305  144.0453  157.6960 H   0  0  0  0  0  0  0  0  0  0  0  0
  144.4654  141.6310  157.5086 H   0  0  0  0  0  0  0  0  0  0  0  0
  146.8179  141.2021  156.8179 H   0  0  0  0  0  0  0  0  0  0  0  0
  145.6258  140.8745  155.5829 H   0  0  0  0  0  0  0  0  0  0  0  0
  148.1843  142.5511  153.6256 H   0  0  0  0  0  0  0  0  0  0  0  0
  147.9135  140.1116  152.9971 H   0  0  0  0  0  0  0  0  0  0  0  0
  146.4446  141.0037  152.8352 H   0  0  0  0  0  0  0  0  0  0  0  0
  146.6789  139.9619  154.2397 H   0  0  0  0  0  0  0  0  0  0  0  0
  148.7091  140.7126  156.0289 H   0  0  0  0  0  0  0  0  0  0  0  0
  149.6281  140.6700  154.5456 H   0  0  0  0  0  0  0  0  0  0  0  0
  149.7154  143.3065  155.3451 H   0  0  0  0  0  0  0  0  0  0  0  0
  152.5895  143.4141  156.6421 H   0  0  0  0  0  0  0  0  0  0  0  0
  151.1301  144.3476  156.5835 H   0  0  0  0  0  0  0  0  0  0  0  0
  150.5358  145.4551  158.3026 H   0  0  0  0  0  0  0  0  0  0  0  0
  150.4922  145.9603  160.7328 H   0  0  0  0  0  0  0  0  0  0  0  0
  151.6338  144.3343  162.3076 H   0  0  0  0  0  0  0  0  0  0  0  0
  152.7301  142.3671  161.4388 H   0  0  0  0  0  0  0  0  0  0  0  0
  146.2491  143.9940  153.7450 H   0  0  0  0  0  0  0  0  0  0  0  0
  145.2703  142.5428  153.7638 H   0  0  0  0  0  0  0  0  0  0  0  0
  145.2782  144.8110  155.8194 H   0  0  0  0  0  0  0  0  0  0  0  0
  144.0845  145.3777  153.7056 H   0  0  0  0  0  0  0  0  0  0  0  0
  142.9572  145.2048  155.0474 H   0  0  0  0  0  0  0  0  0  0  0  0
  143.1106  143.9156  153.8567 H   0  0  0  0  0  0  0  0  0  0  0  0
  1  2  1  0  0  0  0
  1 23  1  0  0  0  0
  1 24  1  0  0  0  0
  1 25  1  0  0  0  0
  2 22  1  0  0  0  0
  2  3  1  0  0  0  0
  2 26  1  0  0  0  0
  3  4  1  0  0  0  0
  3 27  1  0  0  0  0
  3 28  1  0  0  0  0
  4  5  1  0  0  0  0
  4 19  1  0  0  0  0
  5  6  1  0  0  0  0
  5  7  1  0  0  0  0
  5 29  1  0  0  0  0
  6 30  1  0  0  0  0
  6 31  1  0  0  0  0
  6 32  1  0  0  0  0
  7  8  1  0  0  0  0
  7 33  1  0  0  0  0
  7 34  1  0  0  0  0
  8  9  1  0  0  0  0
  8 35  1  0  0  0  0
  9 10  2  0  0  0  0
  9 11  1  0  0  0  0
 11 12  1  0  0  0  0
 11 36  1  0  0  0  0
 11 37  1  0  0  0  0
 12 17  1  0  0  0  0
 12 13  1  0  0  0  0
 13 14  2  0  0  0  0
 13 38  1  0  0  0  0
 14 15  1  0  0  0  0
 14 39  1  0  0  0  0
 15 16  2  0  0  0  0
 15 40  1  0  0  0  0
 16 17  1  0  0  0  0
 16 41  1  0  0  0  0
 17 18  2  0  0  0  0
 19 20  1  0  0  0  0
 19 42  1  0  0  0  0
 19 43  1  0  0  0  0
 20 21  1  0  0  0  0
 20 22  1  0  0  0  0
 20 44  1  0  0  0  0
 21 45  1  0  0  0  0
 21 46  1  0  0  0  0
 21 47  1  0  0  0  0
M  END
> <s_m_source_file>
AV-unprocessed.smi

> <i_m_source_file_index>
1795

> <i_lp_mmshare_version>
43012

> <i_f3d_flags>
0

> <s_epik_input>
W0NIM11bQ0BASF0xW0NIMl1OKFtDSDJdW0NASF0oTzEpW0NIM10pW0NASF0oW0NIM10pW0NIMl1bTkhdQyg9TylbQ0gyXW4yW2NIXVtjSF1bY0hdW2NIXWMyPU8=

> <s_epik_cmdline>
J2VwaWtfcHl0aG9uJywgJy1waCcsICc3LjAnLCAnLXRuJywgJzgnLCAnLW1hJywgJzIwMCcsICctbWV0YWxfYmluZGluZycsICctaW1hZScsICc8aW5maWxlLm1hZT4nLCAnLW9tYWUnLCAnPG91dGZpbGUubWFlPic=

> <r_lp_tautomer_probability>
1

> <r_epik_Ionization_Penalty>
0.237383

> <r_epik_Ionization_Penalty_Charging>
3.58805e-07

> <r_epik_Ionization_Penalty_Neutral>
0.237382

> <r_epik_State_Penalty>
0.228245

> <r_epik_Charging_Adjusted_Penalty>
0.228245

> <i_epik_Tot_Q>
0

> <i_epik_Tot_abs_Q>
0

> <r_epik_Metal_State_Penalty>
0.228221

> <b_epik_Metal_Only>
0

> <s_lp_Force_Field>
OPLS_2005

> <r_lp_Energy>
40.3044

> <b_lp_Chiralities_Consistent>
1

> <s_lp_Variant>
AV-unprocessed.smi:1795-1

> <Gold.Version>
5.8.1

> <Gold.Id.Protein>
6NUR|6NUR_protein|mol2

> <Gold.PLP.Fitness>
45.8446

> <Gold.PLP.PLP>
-43.4172

> <Gold.PLP.part.hbond>
-0.9290

> <Gold.PLP.part.metal>
0.0000

> <Gold.PLP.part.buried>
-5.2935

> <Gold.PLP.part.nonpolar>
-39.3141

> <Gold.PLP.part.repulsive>
1.3784

> <Gold.PLP.ligand.clash>
0.0000

> <Gold.PLP.ligand.torsion>
0.2800

> <Gold.PLP.Chemscore.Hbond>
0.7520

> <Gold.PLP.Chemscore.CHOScore>
0.2273

> <Gold.PLP.Chemscore.Metal>
0.0000

> <Gold.Chemscore.Hbonds>
donor molecule, donor type, donor heavy atom, donor atom, acceptor molecule, acceptor atom, score
      L1  H     8    35       P1  8028  0.86
      L1  C    13    38       P1  8029  0.19

> <Gold.PLP.Chemscore.Internal.Correction>
0.0495

> <Gold.Rescore>
     Score         DG    S(hbond)    S(metal)    S(lipo)     H(rot)  DE(clash)    DE(int)     intcor
     11.33     -14.22       0.95        0.00      87.40       1.83       0.07       2.82       ----

> <Gold.Chemscore.Fitness>
11.3306

> <Gold.Chemscore.DG>
-14.2170

> <Gold.Chemscore.ZeroCoef>
-5.4800

> <Gold.Chemscore.Hbond>
0.9533

> <Gold.Chemscore.Metal>
0.0000

> <Gold.Chemscore.Lipo>
87.3969

> <Gold.Chemscore.Internal_Hbond>
0.0000

> <Gold.Chemscore.DEClash>
0.0661

> <Gold.Chemscore.DEInternal>
2.8203

> <Gold.Chemscore.Rot>
1.8251

> <Gold.Chemscore.Internal.Correction>
   9.000000E+99

> <Gold.Chemscore.Hbonds>
donor molecule, donor type, donor heavy atom, donor atom, acceptor molecule, acceptor atom, score
      L1  H     8    35       P1  8028  0.85

> <Gold.Chemscore.Hbond.Weighted>
-3.1839

> <Gold.Chemscore.Metal.Weighted>
-0.0000

> <Gold.Chemscore.Lipo.Weighted>
-10.2254

> <Gold.Chemscore.Internal_Hbond.Weighted>
0.0000

> <Gold.Chemscore.DEClash.Weighted>
0.0661

> <Gold.Chemscore.DEInternal.Weighted>
2.8203

> <Gold.Chemscore.Rot.Weighted>
4.6724

> <Gold.Chemscore.Internal.Correction.Weighted>
   9.000000E+99

> <Gold.Protein.RotatedTorsions>
[ 6907 6896 6895 6894 ] final  -77.20 input  -60.11 | X-H torsion
[ 7974 7965 7964 7962 ] final  152.54 input  175.53 | X-H torsion
[ 8008 7997 7996 7995 ] final    4.64 input   59.86 | X-H torsion
[ 10167 10162 10161 10158 ] final -113.51 input  -65.29 | X-H torsion
[ 10718 10713 10712 10709 ] final  -11.85 input   66.30 | X-H torsion
[ 10763 10752 10751 10750 ] final   11.87 input  -60.55 | X-H torsion
[ 11005 11000 10999 10996 ] final -148.02 input  -57.11 | X-H torsion

> <Gold.Protein.ActiveResidues>
 VAL166  LYS551  ARG553  GLY616  TRP617  ASP618  TYR619  PRO620  LYS621  CYS622 
 ASP623  PHE694  ASN695  SER759  ASP760  ASP761  ALA762  ILE779  LEU786  VAL792 
 PHE793  MET794  SER795  GLU796  ALA797  LYS798  CYS799  TRP800  GLU811  SER814 

> <Gold.Protein.RotatedAtoms>
  150.7005  134.4458  159.5313 H   0  0  0  0  0  0  0  0  0  0  0  0  # atno 6907 bound_to 6896
  152.2160  134.8455  160.0501 H   0  0  0  0  0  0  0  0  0  0  0  0  # atno 6908 bound_to 6896
  151.9322  133.3579  159.3972 H   0  0  0  0  0  0  0  0  0  0  0  0  # atno 6909 bound_to 6896
  144.8215  139.6682  143.6098 H   0  0  0  0  0  0  0  0  0  0  0  0  # atno 7974 bound_to 7965
  154.7184  140.2707  155.6564 H   0  0  0  0  0  0  0  0  0  0  0  0  # atno 8008 bound_to 7997
  156.2816  140.2739  156.1772 H   0  0  0  0  0  0  0  0  0  0  0  0  # atno 8009 bound_to 7997
  155.0540  140.0371  157.2544 H   0  0  0  0  0  0  0  0  0  0  0  0  # atno 8010 bound_to 7997
  140.1111  143.4527  152.1752 H   0  0  0  0  0  0  0  0  0  0  0  0  # atno 10167 bound_to 10162
  156.6530  130.4960  149.6055 H   0  0  0  0  0  0  0  0  0  0  0  0  # atno 10718 bound_to 10713
  153.1881  135.6838  153.8388 H   0  0  0  0  0  0  0  0  0  0  0  0  # atno 10763 bound_to 10752
  153.7697  135.3198  155.3351 H   0  0  0  0  0  0  0  0  0  0  0  0  # atno 10764 bound_to 10752
  154.8101  135.4723  154.0591 H   0  0  0  0  0  0  0  0  0  0  0  0  # atno 10765 bound_to 10752
  140.7656  134.3248  157.5089 H   0  0  0  0  0  0  0  0  0  0  0  0  # atno 11005 bound_to 11000
  146.2520  139.6221  142.9420 LP  0  0  0  0  0  0  0  0  0  0  0  0  # atno 17320 bound_to 7965
  145.5094  141.0436  143.2496 LP  0  0  0  0  0  0  0  0  0  0  0  0  # atno 17321 bound_to 7965
  139.5619  144.7411  151.4131 LP  0  0  0  0  0  0  0  0  0  0  0  0  # atno 17342 bound_to 10162
  140.6925  143.7827  150.7277 LP  0  0  0  0  0  0  0  0  0  0  0  0  # atno 17343 bound_to 10162
  156.2069  130.6655  151.1228 LP  0  0  0  0  0  0  0  0  0  0  0  0  # atno 17370 bound_to 10713
  157.7135  131.0722  150.6415 LP  0  0  0  0  0  0  0  0  0  0  0  0  # atno 17371 bound_to 10713
  139.8763  134.9229  156.3312 LP  0  0  0  0  0  0  0  0  0  0  0  0  # atno 17394 bound_to 11000
  140.9622  133.7381  156.0417 LP  0  0  0  0  0  0  0  0  0  0  0  0  # atno 17395 bound_to 11000

$$$$
