AV-unprocessed.smi:34|AV-procd|sdf|234|dock9
  -GOLD-   2262015573D 1   1.00000     0.00000
 Structure written by MMmdl.
 54 58  0  0  0  0  0  0  0  0  2 V2000
  143.2216  134.9922  153.3083 O   0  0  0  0  0  0  0  0  0  0  0  0
  144.3553  134.5659  153.0771 C   0  0  0  0  0  0  0  0  0  0  0  0
  145.4816  134.7542  153.8106 N   0  5  0  0  0  0  0  0  0  0  0  0
  145.6139  135.8618  154.5560 C   0  0  0  0  0  0  0  0  0  0  0  0
  144.5258  136.6060  154.8822 N   0  0  0  0  0  0  0  0  0  0  0  0
  144.6600  137.7126  155.6233 C   0  0  0  0  0  0  0  0  0  0  0  0
  145.7702  138.2488  156.1404 N   0  0  0  0  0  0  0  0  0  0  0  0
  146.8678  137.5005  155.8287 C   0  0  0  0  0  0  0  0  0  0  0  0
  146.8700  136.3063  155.0525 C   0  0  0  0  0  0  0  0  0  0  0  0
  148.1574  135.8036  154.9301 N   0  0  0  0  0  0  0  0  0  0  0  0
  148.8635  136.6994  155.6179 C   0  0  0  0  0  0  0  0  0  0  0  0
  148.1875  137.7275  156.1730 N   0  0  0  0  0  0  0  0  0  0  0  0
  148.7021  138.8780  156.9823 C   0  0  1  0  0  0  0  0  0  0  0  0
  150.0892  138.7465  157.1090 O   0  0  0  0  0  0  0  0  0  0  0  0
  150.7395  139.6960  156.2711 C   0  0  2  0  0  0  0  0  0  0  0  0
  152.1577  139.9702  156.7808 C   0  0  0  0  0  0  0  0  0  0  0  0
  152.0893  140.8642  157.8793 O   0  0  0  0  0  0  0  0  0  0  0  0
  152.9835  140.7706  158.8821 C   0  0  0  0  0  0  0  0  0  0  0  0
  153.8578  139.9033  158.9378 O   0  0  0  0  0  0  0  0  0  0  0  0
  152.8059  141.8279  159.9189 C   0  0  0  0  0  0  0  0  0  0  0  0
  152.0940  143.0058  159.5921 C   0  0  0  0  0  0  0  0  0  0  0  0
  151.9102  144.0221  160.5497 C   0  0  0  0  0  0  0  0  0  0  0  0
  152.4361  143.8729  161.8460 C   0  0  0  0  0  0  0  0  0  0  0  0
  153.1456  142.7058  162.1841 C   0  0  0  0  0  0  0  0  0  0  0  0
  153.3302  141.6879  161.2278 C   0  0  0  0  0  0  0  0  0  0  0  0
  149.8025  140.8923  156.3920 C   0  0  1  0  0  0  0  0  0  0  0  0
  150.0044  141.8352  155.4699 F   0  0  0  0  0  0  0  0  0  0  0  0
  148.4297  140.2446  156.3086 C   0  0  1  0  0  0  0  0  0  0  0  0
  147.9911  140.1445  154.9628 O   0  0  0  0  0  0  0  0  0  0  0  0
  144.5642  133.6727  151.8837 C   0  0  0  0  0  0  0  0  0  0  0  0
  145.8769  133.3900  151.4415 C   0  0  0  0  0  0  0  0  0  0  0  0
  146.0946  132.5327  150.3453 C   0  0  0  0  0  0  0  0  0  0  0  0
  145.0015  131.9409  149.6851 C   0  0  0  0  0  0  0  0  0  0  0  0
  143.6905  132.2044  150.1240 C   0  0  0  0  0  0  0  0  0  0  0  0
  143.4720  133.0619  151.2199 C   0  0  0  0  0  0  0  0  0  0  0  0
  143.7444  138.2460  155.8317 H   0  0  0  0  0  0  0  0  0  0  0  0
  149.9343  136.6010  155.7191 H   0  0  0  0  0  0  0  0  0  0  0  0
  148.2278  138.7667  157.9582 H   0  0  0  0  0  0  0  0  0  0  0  0
  150.7570  139.3371  155.2404 H   0  0  0  0  0  0  0  0  0  0  0  0
  152.6218  139.0406  157.1128 H   0  0  0  0  0  0  0  0  0  0  0  0
  152.7755  140.3812  155.9810 H   0  0  0  0  0  0  0  0  0  0  0  0
  151.6808  143.1431  158.6031 H   0  0  0  0  0  0  0  0  0  0  0  0
  151.3649  144.9169  160.2882 H   0  0  0  0  0  0  0  0  0  0  0  0
  152.2953  144.6526  162.5800 H   0  0  0  0  0  0  0  0  0  0  0  0
  153.5492  142.5903  163.1792 H   0  0  0  0  0  0  0  0  0  0  0  0
  153.8791  140.8047  161.5205 H   0  0  0  0  0  0  0  0  0  0  0  0
  149.9276  141.3662  157.3669 H   0  0  0  0  0  0  0  0  0  0  0  0
  147.6857  140.7986  156.8818 H   0  0  0  0  0  0  0  0  0  0  0  0
  147.0462  140.1625  154.9527 H   0  0  0  0  0  0  0  0  0  0  0  0
  146.7268  133.8330  151.9404 H   0  0  0  0  0  0  0  0  0  0  0  0
  147.1015  132.3275  150.0135 H   0  0  0  0  0  0  0  0  0  0  0  0
  145.1684  131.2822  148.8457 H   0  0  0  0  0  0  0  0  0  0  0  0
  142.8506  131.7456  149.6237 H   0  0  0  0  0  0  0  0  0  0  0  0
  142.4586  133.2417  151.5484 H   0  0  0  0  0  0  0  0  0  0  0  0
  1  2  2  0  0  0  0
  2  3  1  0  0  0  0
  2 30  1  0  0  0  0
  3  4  1  0  0  0  0
  4  9  1  0  0  0  0
  4  5  2  0  0  0  0
  5  6  1  0  0  0  0
  6  7  2  0  0  0  0
  6 36  1  0  0  0  0
  7  8  1  0  0  0  0
  8 12  1  0  0  0  0
  8  9  2  0  0  0  0
  9 10  1  0  0  0  0
 10 11  2  0  0  0  0
 11 12  1  0  0  0  0
 11 37  1  0  0  0  0
 12 13  1  0  0  0  0
 13 28  1  0  0  0  0
 13 14  1  0  0  0  0
 13 38  1  0  0  0  0
 14 15  1  0  0  0  0
 15 16  1  0  0  0  0
 15 26  1  0  0  0  0
 15 39  1  0  0  0  0
 16 17  1  0  0  0  0
 16 40  1  0  0  0  0
 16 41  1  0  0  0  0
 17 18  1  0  0  0  0
 18 19  2  0  0  0  0
 18 20  1  0  0  0  0
 20 25  1  0  0  0  0
 20 21  2  0  0  0  0
 21 22  1  0  0  0  0
 21 42  1  0  0  0  0
 22 23  2  0  0  0  0
 22 43  1  0  0  0  0
 23 24  1  0  0  0  0
 23 44  1  0  0  0  0
 24 25  2  0  0  0  0
 24 45  1  0  0  0  0
 25 46  1  0  0  0  0
 26 27  1  0  0  0  0
 26 28  1  0  0  0  0
 26 47  1  0  0  0  0
 28 29  1  0  0  0  0
 28 48  1  0  0  0  0
 29 49  1  0  0  0  0
 30 35  1  0  0  0  0
 30 31  2  0  0  0  0
 31 32  1  0  0  0  0
 31 50  1  0  0  0  0
 32 33  2  0  0  0  0
 32 51  1  0  0  0  0
 33 34  1  0  0  0  0
 33 52  1  0  0  0  0
 34 35  2  0  0  0  0
 34 53  1  0  0  0  0
 35 54  1  0  0  0  0
M  CHG  1   3  -1
M  END
> <s_m_source_file>
AV-unprocessed.smi

> <i_m_source_file_index>
34

> <i_lp_mmshare_version>
43012

> <i_f3d_flags>
0

> <s_epik_input>
W2NIXTFbY0hdW2NIXVtjSF1bY0hdYzFDKD1PKVtOSF1jKG5bY0hdbjIpYyhjMjMpbltjSF1uM1tDQEBIXTRPW0NASF0oW0NAQEhdKEYpW0NASF00W09IXSlbQ0gyXU9DKD1PKWM1W2NIXVtjSF1bY0hdW2NIXVtjSF01

> <s_epik_cmdline>
J2VwaWtfcHl0aG9uJywgJy1waCcsICc3LjAnLCAnLXRuJywgJzgnLCAnLW1hJywgJzIwMCcsICctbWV0YWxfYmluZGluZycsICctaW1hZScsICc8aW5maWxlLm1hZT4nLCAnLW9tYWUnLCAnPG91dGZpbGUubWFlPic=

> <r_lp_tautomer_probability>
1

> <r_epik_Ionization_Penalty>
4.33227

> <r_epik_Ionization_Penalty_Charging>
3.41027

> <r_epik_Ionization_Penalty_Neutral>
0.922001

> <r_epik_State_Penalty>
3.41358

> <r_epik_Charging_Adjusted_Penalty>
6.82385

> <i_epik_Tot_Q>
-1

> <i_epik_Tot_abs_Q>
1

> <r_epik_Metal_State_Penalty>
0.496292

> <b_epik_Metal_Only>
1

> <s_epik_Chemistry_Notes>
This compound has an ester and may undergo hydrolysis at high or low pH. This compound contains an acetal/aminal-like group ( X-CH(R)-Y where X, Y are N, S, or O) that may be acid/base labile, releasing an aldehyde.

> <s_lp_Force_Field>
OPLS_2005

> <r_lp_Energy>
50.8657

> <b_lp_Chiralities_Consistent>
1

> <s_lp_Variant>
AV-unprocessed.smi:34-20

> <Gold.Version>
5.8.1

> <Gold.Id.Protein>
6NUR|6NUR_protein|mol2

> <Gold.PLP.Fitness>
52.6086

> <Gold.PLP.PLP>
-51.1030

> <Gold.PLP.part.hbond>
-1.0000

> <Gold.PLP.part.metal>
0.0000

> <Gold.PLP.part.buried>
-4.4772

> <Gold.PLP.part.nonpolar>
-44.2047

> <Gold.PLP.part.repulsive>
0.5938

> <Gold.PLP.ligand.clash>
0.0000

> <Gold.PLP.ligand.torsion>
0.9648

> <Gold.PLP.Chemscore.Hbond>
1.0000

> <Gold.PLP.Chemscore.CHOScore>
0.0000

> <Gold.PLP.Chemscore.Metal>
0.0000

> <Gold.Chemscore.Hbonds>
donor molecule, donor type, donor heavy atom, donor atom, acceptor molecule, acceptor atom, score
      P1  H  7997  8010       L1    19  1.00

> <Gold.PLP.Chemscore.Internal.Correction>
0.4353

> <Gold.Rescore>
     Score         DG    S(hbond)    S(metal)    S(lipo)     H(rot)  DE(clash)    DE(int)     intcor
     13.55     -17.19       0.81        0.00     135.90       2.69       0.12       3.52       ----

> <Gold.Chemscore.Fitness>
13.5502

> <Gold.Chemscore.DG>
-17.1922

> <Gold.Chemscore.ZeroCoef>
-5.4800

> <Gold.Chemscore.Hbond>
0.8112

> <Gold.Chemscore.Metal>
0.0000

> <Gold.Chemscore.Lipo>
135.9001

> <Gold.Chemscore.Internal_Hbond>
0.0000

> <Gold.Chemscore.DEClash>
0.1247

> <Gold.Chemscore.DEInternal>
3.5173

> <Gold.Chemscore.Rot>
2.6944

> <Gold.Chemscore.Internal.Correction>
   9.000000E+99

> <Gold.Chemscore.Hbonds>
donor molecule, donor type, donor heavy atom, donor atom, acceptor molecule, acceptor atom, score
      P1  H  7997  8010       L1    19  0.62

> <Gold.Chemscore.Hbond.Weighted>
-2.7095

> <Gold.Chemscore.Metal.Weighted>
-0.0000

> <Gold.Chemscore.Lipo.Weighted>
-15.9003

> <Gold.Chemscore.Internal_Hbond.Weighted>
0.0000

> <Gold.Chemscore.DEClash.Weighted>
0.1247

> <Gold.Chemscore.DEInternal.Weighted>
3.5173

> <Gold.Chemscore.Rot.Weighted>
6.8975

> <Gold.Chemscore.Internal.Correction.Weighted>
   9.000000E+99

> <Gold.Protein.RotatedTorsions>
[ 6907 6896 6895 6894 ] final  -52.73 input  -60.11 | X-H torsion
[ 7974 7965 7964 7962 ] final -109.83 input  175.53 | X-H torsion
[ 8008 7997 7996 7995 ] final    9.79 input   59.86 | X-H torsion
[ 10167 10162 10161 10158 ] final   89.23 input  -65.29 | X-H torsion
[ 10718 10713 10712 10709 ] final   96.77 input   66.30 | X-H torsion
[ 10763 10752 10751 10750 ] final   12.26 input  -60.55 | X-H torsion
[ 11005 11000 10999 10996 ] final -145.31 input  -57.11 | X-H torsion

> <Gold.Protein.ActiveResidues>
 VAL166  LYS551  ARG553  GLY616  TRP617  ASP618  TYR619  PRO620  LYS621  CYS622 
 ASP623  PHE694  ASN695  SER759  ASP760  ASP761  ALA762  ILE779  LEU786  VAL792 
 PHE793  MET794  SER795  GLU796  ALA797  LYS798  CYS799  TRP800  GLU811  SER814 

> <Gold.Protein.RotatedAtoms>
  150.8491  134.7810  159.6994 H   0  0  0  0  0  0  0  0  0  0  0  0  # atno 6907 bound_to 6896
  152.4560  134.5286  159.9814 H   0  0  0  0  0  0  0  0  0  0  0  0  # atno 6908 bound_to 6896
  151.5411  133.3395  159.2971 H   0  0  0  0  0  0  0  0  0  0  0  0  # atno 6909 bound_to 6896
  145.1757  140.8947  143.3509 H   0  0  0  0  0  0  0  0  0  0  0  0  # atno 7974 bound_to 7965
  154.7847  140.2825  155.6037 H   0  0  0  0  0  0  0  0  0  0  0  0  # atno 8008 bound_to 7997
  156.2955  140.2616  156.2609 H   0  0  0  0  0  0  0  0  0  0  0  0  # atno 8009 bound_to 7997
  154.9742  140.0375  157.2238 H   0  0  0  0  0  0  0  0  0  0  0  0  # atno 8010 bound_to 7997
  139.8594  144.6552  150.9076 H   0  0  0  0  0  0  0  0  0  0  0  0  # atno 10167 bound_to 10162
  157.6922  131.0588  150.4542 H   0  0  0  0  0  0  0  0  0  0  0  0  # atno 10718 bound_to 10713
  153.1841  135.6832  153.8439 H   0  0  0  0  0  0  0  0  0  0  0  0  # atno 10763 bound_to 10752
  153.7760  135.3189  155.3360 H   0  0  0  0  0  0  0  0  0  0  0  0  # atno 10764 bound_to 10752
  154.8078  135.4737  154.0532 H   0  0  0  0  0  0  0  0  0  0  0  0  # atno 10765 bound_to 10752
  140.7936  134.2940  157.5004 H   0  0  0  0  0  0  0  0  0  0  0  0  # atno 11005 bound_to 11000
  145.0187  139.3444  143.6083 LP  0  0  0  0  0  0  0  0  0  0  0  0  # atno 17320 bound_to 7965
  146.3461  139.9479  142.8732 LP  0  0  0  0  0  0  0  0  0  0  0  0  # atno 17321 bound_to 7965
  140.7777  143.3758  151.1566 LP  0  0  0  0  0  0  0  0  0  0  0  0  # atno 17342 bound_to 10162
  139.7389  143.8956  152.3043 LP  0  0  0  0  0  0  0  0  0  0  0  0  # atno 17343 bound_to 10162
  156.4891  130.4091  149.6417 LP  0  0  0  0  0  0  0  0  0  0  0  0  # atno 17370 bound_to 10713
  156.3434  130.7394  151.2343 LP  0  0  0  0  0  0  0  0  0  0  0  0  # atno 17371 bound_to 10713
  139.8728  134.9389  156.3726 LP  0  0  0  0  0  0  0  0  0  0  0  0  # atno 17394 bound_to 11000
  140.9365  133.7543  156.0092 LP  0  0  0  0  0  0  0  0  0  0  0  0  # atno 17395 bound_to 11000

$$$$
