AV-unprocessed.smi:2224|AV-procd|sdf|8998|dock2
  -GOLD-   2272012203D 1   1.00000     0.00000
 Structure written by MMmdl.
 44 46  0  0  0  0  0  0  0  0  1 V2000
  152.0690  145.9130  160.3925 C   0  0  0  0  0  0  0  0  0  0  0  0
  152.0831  144.5348  159.7656 C   0  0  0  0  0  0  0  0  0  0  0  0
  152.8594  143.4965  160.3152 C   0  0  0  0  0  0  0  0  0  0  0  0
  152.8268  142.2371  159.6846 C   0  0  0  0  0  0  0  0  0  0  0  0
  153.6394  141.0763  160.2191 C   0  0  0  0  0  0  0  0  0  0  0  0
  152.0872  141.9830  158.5837 N   0  0  0  0  0  0  0  0  0  0  0  0
  151.3348  142.9753  158.0471 C   0  0  0  0  0  0  0  0  0  0  0  0
  150.5229  142.8131  156.8935 N   0  0  0  0  0  0  0  0  0  0  0  0
  150.3005  141.6932  156.1835 C   0  0  0  0  0  0  0  0  0  0  0  0
  150.7778  140.5849  156.4291 O   0  0  0  0  0  0  0  0  0  0  0  0
  149.4725  141.9294  155.1570 N   0  0  0  0  0  0  0  0  0  0  0  0
  149.0168  140.9172  154.2115 C   0  0  1  0  0  0  0  0  0  0  0  0
  148.7038  139.5846  154.8925 C   0  0  2  0  0  0  0  0  0  0  0  0
  149.3014  138.2234  154.8520 C   0  0  0  0  0  0  0  0  0  0  0  0
  147.9840  137.4175  154.6944 C   0  0  0  0  0  0  0  0  0  0  0  0
  146.9516  138.3941  154.4127 O   0  0  0  0  0  0  0  0  0  0  0  0
  147.6537  139.4598  153.8061 C   0  0  1  0  0  0  0  0  0  0  0  0
  147.4749  140.9890  153.8948 C   0  0  0  0  0  0  0  0  0  0  0  0
  146.5012  141.5387  154.9572 C   0  0  0  0  0  0  0  0  0  0  0  0
  147.1094  141.6778  152.5796 C   0  0  0  0  0  0  0  0  0  0  0  0
  151.3138  144.2688  158.6153 C   0  0  0  0  0  0  0  0  0  0  0  0
  152.6706  145.9425  161.3015 H   0  0  0  0  0  0  0  0  0  0  0  0
  151.0493  146.2010  160.6496 H   0  0  0  0  0  0  0  0  0  0  0  0
  152.4685  146.6490  159.6943 H   0  0  0  0  0  0  0  0  0  0  0  0
  153.4634  143.6610  161.1958 H   0  0  0  0  0  0  0  0  0  0  0  0
  154.1376  141.3382  161.1529 H   0  0  0  0  0  0  0  0  0  0  0  0
  154.4016  140.7851  159.4960 H   0  0  0  0  0  0  0  0  0  0  0  0
  152.9961  140.2160  160.4068 H   0  0  0  0  0  0  0  0  0  0  0  0
  150.0441  143.6442  156.5806 H   0  0  0  0  0  0  0  0  0  0  0  0
  149.1275  142.8686  155.0240 H   0  0  0  0  0  0  0  0  0  0  0  0
  149.6536  140.8093  153.3286 H   0  0  0  0  0  0  0  0  0  0  0  0
  148.2764  139.7564  155.8831 H   0  0  0  0  0  0  0  0  0  0  0  0
  149.9654  138.0939  153.9961 H   0  0  0  0  0  0  0  0  0  0  0  0
  149.8411  137.9692  155.7646 H   0  0  0  0  0  0  0  0  0  0  0  0
  148.0633  136.6997  153.8771 H   0  0  0  0  0  0  0  0  0  0  0  0
  147.7300  136.8701  155.6024 H   0  0  0  0  0  0  0  0  0  0  0  0
  148.0573  139.1515  152.8347 H   0  0  0  0  0  0  0  0  0  0  0  0
  145.4670  141.3169  154.6929 H   0  0  0  0  0  0  0  0  0  0  0  0
  146.5850  142.6221  155.0477 H   0  0  0  0  0  0  0  0  0  0  0  0
  146.6608  141.1297  155.9531 H   0  0  0  0  0  0  0  0  0  0  0  0
  146.0896  141.4420  152.2743 H   0  0  0  0  0  0  0  0  0  0  0  0
  147.7686  141.3675  151.7685 H   0  0  0  0  0  0  0  0  0  0  0  0
  147.1885  142.7625  152.6584 H   0  0  0  0  0  0  0  0  0  0  0  0
  150.7110  145.0515  158.1776 H   0  0  0  0  0  0  0  0  0  0  0  0
  1  2  1  0  0  0  0
  1 22  1  0  0  0  0
  1 23  1  0  0  0  0
  1 24  1  0  0  0  0
  2 21  1  0  0  0  0
  2  3  2  0  0  0  0
  3  4  1  0  0  0  0
  3 25  1  0  0  0  0
  4  5  1  0  0  0  0
  4  6  2  0  0  0  0
  5 26  1  0  0  0  0
  5 27  1  0  0  0  0
  5 28  1  0  0  0  0
  6  7  1  0  0  0  0
  7  8  1  0  0  0  0
  7 21  2  0  0  0  0
  8  9  1  0  0  0  0
  8 29  1  0  0  0  0
  9 10  2  0  0  0  0
  9 11  1  0  0  0  0
 11 12  1  0  0  0  0
 11 30  1  0  0  0  0
 12 18  1  0  0  0  0
 12 13  1  0  0  0  0
 12 31  1  0  0  0  0
 13 17  1  0  0  0  0
 13 14  1  0  0  0  0
 13 32  1  0  0  0  0
 14 15  1  0  0  0  0
 14 33  1  0  0  0  0
 14 34  1  0  0  0  0
 15 16  1  0  0  0  0
 15 35  1  0  0  0  0
 15 36  1  0  0  0  0
 16 17  1  0  0  0  0
 17 18  1  0  0  0  0
 17 37  1  0  0  0  0
 18 19  1  0  0  0  0
 18 20  1  0  0  0  0
 19 38  1  0  0  0  0
 19 39  1  0  0  0  0
 19 40  1  0  0  0  0
 20 41  1  0  0  0  0
 20 42  1  0  0  0  0
 20 43  1  0  0  0  0
 21 44  1  0  0  0  0
M  END
> <s_m_source_file>
AV-unprocessed.smi

> <i_m_source_file_index>
2224

> <i_lp_mmshare_version>
43012

> <i_f3d_flags>
0

> <s_epik_input>
W0NIM11jMVtjSF1jKFtDSDNdKW5jKFtjSF0xKVtOSF1DKD1PKVtOSF1bQ0BIXTJDKFtDSDNdKShbQ0gzXSlbQ0BIXShbQ0BASF0yMylPW0NIMl1bQ0gyXTM=

> <s_epik_cmdline>
J2VwaWtfcHl0aG9uJywgJy1waCcsICc3LjAnLCAnLXRuJywgJzgnLCAnLW1hJywgJzIwMCcsICctbWV0YWxfYmluZGluZycsICctaW1hZScsICc8aW5maWxlLm1hZT4nLCAnLW9tYWUnLCAnPG91dGZpbGUubWFlPic=

> <r_lp_tautomer_probability>
1

> <r_epik_Ionization_Penalty>
0.000276544

> <r_epik_Ionization_Penalty_Charging>
0

> <r_epik_Ionization_Penalty_Neutral>
0.000276544

> <r_epik_State_Penalty>
-0

> <r_epik_Charging_Adjusted_Penalty>
0

> <i_epik_Tot_Q>
0

> <i_epik_Tot_abs_Q>
0

> <r_epik_Metal_State_Penalty>
-0

> <b_epik_Metal_Only>
0

> <s_lp_Force_Field>
OPLS_2005

> <r_lp_Energy>
62.2425

> <b_lp_Chiralities_Consistent>
1

> <s_lp_Variant>
AV-unprocessed.smi:2224-8

> <Gold.Version>
5.8.1

> <Gold.Id.Protein>
6NUR|6NUR_protein|mol2

> <Gold.PLP.Fitness>
44.8702

> <Gold.PLP.PLP>
-39.0890

> <Gold.PLP.part.hbond>
-2.0000

> <Gold.PLP.part.metal>
0.0000

> <Gold.PLP.part.buried>
-6.5893

> <Gold.PLP.part.nonpolar>
-31.8939

> <Gold.PLP.part.repulsive>
0.3647

> <Gold.PLP.ligand.clash>
0.0000

> <Gold.PLP.ligand.torsion>
0.2428

> <Gold.PLP.Chemscore.Hbond>
2.0000

> <Gold.PLP.Chemscore.CHOScore>
0.0000

> <Gold.PLP.Chemscore.Metal>
0.0000

> <Gold.Chemscore.Hbonds>
donor molecule, donor type, donor heavy atom, donor atom, acceptor molecule, acceptor atom, score
      L1  H     8    29       P1  8028  1.00
      L1  H    11    30       P1  8028  1.00

> <Gold.PLP.Chemscore.Internal.Correction>
0.2668

> <Gold.Rescore>
     Score         DG    S(hbond)    S(metal)    S(lipo)     H(rot)  DE(clash)    DE(int)     intcor
     18.25     -22.63       1.93        0.00     113.52       1.00       1.41       2.97       ----

> <Gold.Chemscore.Fitness>
18.2485

> <Gold.Chemscore.DG>
-22.6334

> <Gold.Chemscore.ZeroCoef>
-5.4800

> <Gold.Chemscore.Hbond>
1.9256

> <Gold.Chemscore.Metal>
0.0000

> <Gold.Chemscore.Lipo>
113.5197

> <Gold.Chemscore.Internal_Hbond>
0.0000

> <Gold.Chemscore.DEClash>
1.4117

> <Gold.Chemscore.DEInternal>
2.9732

> <Gold.Chemscore.Rot>
1.0000

> <Gold.Chemscore.Internal.Correction>
   9.000000E+99

> <Gold.Chemscore.Hbonds>
donor molecule, donor type, donor heavy atom, donor atom, acceptor molecule, acceptor atom, score
      L1  H     8    29       P1  8028  1.00
      L1  H    11    30       P1  8028  0.95

> <Gold.Chemscore.Hbond.Weighted>
-6.4316

> <Gold.Chemscore.Metal.Weighted>
-0.0000

> <Gold.Chemscore.Lipo.Weighted>
-13.2818

> <Gold.Chemscore.Internal_Hbond.Weighted>
0.0000

> <Gold.Chemscore.DEClash.Weighted>
1.4117

> <Gold.Chemscore.DEInternal.Weighted>
2.9732

> <Gold.Chemscore.Rot.Weighted>
2.5600

> <Gold.Chemscore.Internal.Correction.Weighted>
   9.000000E+99

> <Gold.Protein.RotatedTorsions>
[ 6907 6896 6895 6894 ] final  -17.87 input  -60.11 | X-H torsion
[ 7974 7965 7964 7962 ] final  -13.06 input  175.53 | X-H torsion
[ 8008 7997 7996 7995 ] final   18.90 input   59.86 | X-H torsion
[ 10167 10162 10161 10158 ] final   72.95 input  -65.29 | X-H torsion
[ 10718 10713 10712 10709 ] final  145.39 input   66.30 | X-H torsion
[ 10763 10752 10751 10750 ] final  128.82 input  -60.55 | X-H torsion
[ 11005 11000 10999 10996 ] final   23.25 input  -57.11 | X-H torsion

> <Gold.Protein.ActiveResidues>
 VAL166  LYS551  ARG553  GLY616  TRP617  ASP618  TYR619  PRO620  LYS621  CYS622 
 ASP623  PHE694  ASN695  SER759  ASP760  ASP761  ALA762  ILE779  LEU786  VAL792 
 PHE793  MET794  SER795  GLU796  ALA797  LYS798  CYS799  TRP800  GLU811  SER814 

> <Gold.Protein.RotatedAtoms>
  151.2868  135.0730  159.9189 H   0  0  0  0  0  0  0  0  0  0  0  0  # atno 6907 bound_to 6896
  152.5324  133.9973  159.7889 H   0  0  0  0  0  0  0  0  0  0  0  0  # atno 6908 bound_to 6896
  151.0236  133.5803  159.2699 H   0  0  0  0  0  0  0  0  0  0  0  0  # atno 6909 bound_to 6896
  146.2128  140.3148  142.8385 H   0  0  0  0  0  0  0  0  0  0  0  0  # atno 7974 bound_to 7965
  154.9128  140.3016  155.5257 H   0  0  0  0  0  0  0  0  0  0  0  0  # atno 8008 bound_to 7997
  156.3014  140.2386  156.4104 H   0  0  0  0  0  0  0  0  0  0  0  0  # atno 8009 bound_to 7997
  154.8408  140.0414  157.1529 H   0  0  0  0  0  0  0  0  0  0  0  0  # atno 8010 bound_to 7997
  140.0298  144.5475  150.7516 H   0  0  0  0  0  0  0  0  0  0  0  0  # atno 10167 bound_to 10162
  157.3458  131.0943  151.1043 H   0  0  0  0  0  0  0  0  0  0  0  0  # atno 10718 bound_to 10713
  153.7318  135.3237  155.3287 H   0  0  0  0  0  0  0  0  0  0  0  0  # atno 10763 bound_to 10752
  154.8323  135.4524  154.1114 H   0  0  0  0  0  0  0  0  0  0  0  0  # atno 10764 bound_to 10752
  153.2264  135.6954  153.8022 H   0  0  0  0  0  0  0  0  0  0  0  0  # atno 10765 bound_to 10752
  140.3717  134.2016  155.7666 H   0  0  0  0  0  0  0  0  0  0  0  0  # atno 11005 bound_to 11000
  144.8962  140.7586  143.5896 LP  0  0  0  0  0  0  0  0  0  0  0  0  # atno 17320 bound_to 7965
  145.3073  139.1830  143.4658 LP  0  0  0  0  0  0  0  0  0  0  0  0  # atno 17321 bound_to 7965
  140.7307  143.2686  151.3962 LP  0  0  0  0  0  0  0  0  0  0  0  0  # atno 17342 bound_to 10162
  139.6084  144.1150  152.2273 LP  0  0  0  0  0  0  0  0  0  0  0  0  # atno 17343 bound_to 10162
  157.2237  130.6493  149.5821 LP  0  0  0  0  0  0  0  0  0  0  0  0  # atno 17370 bound_to 10713
  155.9714  130.4621  150.6133 LP  0  0  0  0  0  0  0  0  0  0  0  0  # atno 17371 bound_to 10713
  141.1952  133.8110  157.0723 LP  0  0  0  0  0  0  0  0  0  0  0  0  # atno 17394 bound_to 11000
  140.0547  134.9787  157.1199 LP  0  0  0  0  0  0  0  0  0  0  0  0  # atno 17395 bound_to 11000

$$$$
