AV-unprocessed.smi:2698|AV-procd|sdf|10421|dock9
  -GOLD-   2272014463D 1   1.00000     0.00000
 Structure written by MMmdl.
 33 33  0  0  0  0  0  0  0  0  2 V2000
  152.5475  144.3558  159.7080 C   0  0  0  0  0  0  0  0  0  0  0  0
  152.2540  143.0143  160.4065 C   0  0  0  0  0  0  0  0  0  0  0  0
  152.8475  143.0205  161.8242 C   0  0  0  0  0  0  0  0  0  0  0  0
  152.7621  141.7876  159.6096 C   0  0  0  0  0  0  0  0  0  0  0  0
  151.7139  141.1219  158.7060 C   0  0  0  0  0  0  0  0  0  0  0  0
  150.5501  141.5218  158.6849 O   0  0  0  0  0  0  0  0  0  0  0  0
  152.1506  140.0989  157.9548 N   0  0  0  0  0  0  0  0  0  0  0  0
  151.3512  139.3271  157.0067 C   0  0  2  0  0  0  0  0  0  0  0  0
  151.5112  137.8121  157.2587 C   0  0  0  0  0  0  0  0  0  0  0  0
  150.6674  136.9337  156.3676 C   0  0  0  0  0  0  0  0  0  0  0  0
  149.2952  136.9220  156.2183 C   0  0  0  0  0  0  0  0  0  0  0  0
  149.0134  135.9283  155.2983 N   0  0  0  0  0  0  0  0  0  0  0  0
  150.1790  135.3921  154.9342 C   0  0  0  0  0  0  0  0  0  0  0  0
  151.2196  135.9513  155.5374 N   0  0  0  0  0  0  0  0  0  0  0  0
  151.6745  139.7736  155.5756 C   0  0  0  0  0  0  0  0  0  0  0  0
  150.7812  140.3910  154.9541 O   0  0  0  0  0  0  0  0  0  0  0  0
  152.8081  139.4951  155.1271 O   0  5  0  0  0  0  0  0  0  0  0  0
  148.0981  135.6550  154.9708 H   0  0  0  0  0  0  0  0  0  0  0  0
  153.6171  144.4888  159.5428 H   0  0  0  0  0  0  0  0  0  0  0  0
  152.2011  145.1938  160.3135 H   0  0  0  0  0  0  0  0  0  0  0  0
  152.0508  144.4378  158.7424 H   0  0  0  0  0  0  0  0  0  0  0  0
  151.1718  142.9267  160.5159 H   0  0  0  0  0  0  0  0  0  0  0  0
  153.9348  143.1008  161.7971 H   0  0  0  0  0  0  0  0  0  0  0  0
  152.5943  142.1069  162.3630 H   0  0  0  0  0  0  0  0  0  0  0  0
  152.4659  143.8588  162.4078 H   0  0  0  0  0  0  0  0  0  0  0  0
  153.6247  142.0632  159.0021 H   0  0  0  0  0  0  0  0  0  0  0  0
  153.1214  141.0330  160.3114 H   0  0  0  0  0  0  0  0  0  0  0  0
  153.1237  139.8385  158.0269 H   0  0  0  0  0  0  0  0  0  0  0  0
  150.3013  139.5759  157.1764 H   0  0  0  0  0  0  0  0  0  0  0  0
  152.5556  137.5286  157.1221 H   0  0  0  0  0  0  0  0  0  0  0  0
  151.2659  137.5731  158.2940 H   0  0  0  0  0  0  0  0  0  0  0  0
  148.5236  137.5160  156.6859 H   0  0  0  0  0  0  0  0  0  0  0  0
  150.2672  134.5848  154.2222 H   0  0  0  0  0  0  0  0  0  0  0  0
  1  2  1  0  0  0  0
  1 19  1  0  0  0  0
  1 20  1  0  0  0  0
  1 21  1  0  0  0  0
  2  3  1  0  0  0  0
  2  4  1  0  0  0  0
  2 22  1  0  0  0  0
  3 23  1  0  0  0  0
  3 24  1  0  0  0  0
  3 25  1  0  0  0  0
  4  5  1  0  0  0  0
  4 26  1  0  0  0  0
  4 27  1  0  0  0  0
  5  6  2  0  0  0  0
  5  7  1  0  0  0  0
  7  8  1  0  0  0  0
  7 28  1  0  0  0  0
  8  9  1  0  0  0  0
  8 15  1  0  0  0  0
  8 29  1  0  0  0  0
  9 10  1  0  0  0  0
  9 30  1  0  0  0  0
  9 31  1  0  0  0  0
 10 14  1  0  0  0  0
 10 11  2  0  0  0  0
 11 12  1  0  0  0  0
 11 32  1  0  0  0  0
 12 18  1  0  0  0  0
 12 13  1  0  0  0  0
 13 14  2  0  0  0  0
 13 33  1  0  0  0  0
 15 16  2  0  0  0  0
 15 17  1  0  0  0  0
M  CHG  1  17  -1
M  END
> <s_m_source_file>
AV-unprocessed.smi

> <i_m_source_file_index>
2698

> <i_lp_mmshare_version>
43012

> <i_f3d_flags>
0

> <s_epik_input>
W0NIM11bQ0hdKFtDSDNdKVtDSDJdQyg9TylbTkhdW0NAQEhdKEMoPU8pW09IXSlbQ0gyXWMxW2NIXVtuSF1bY0hdbjE=

> <s_epik_cmdline>
J2VwaWtfcHl0aG9uJywgJy1waCcsICc3LjAnLCAnLXRuJywgJzgnLCAnLW1hJywgJzIwMCcsICctbWV0YWxfYmluZGluZycsICctaW1hZScsICc8aW5maWxlLm1hZT4nLCAnLW9tYWUnLCAnPG91dGZpbGUubWFlPic=

> <r_lp_tautomer_probability>
0.5

> <r_epik_Ionization_Penalty>
0.818672

> <r_epik_Ionization_Penalty_Charging>
0.818672

> <r_epik_Ionization_Penalty_Neutral>
7.99661e-08

> <r_epik_State_Penalty>
0.927032

> <r_epik_Charging_Adjusted_Penalty>
1.7457

> <i_epik_Tot_Q>
-1

> <i_epik_Tot_abs_Q>
1

> <r_epik_Metal_State_Penalty>
0.525537

> <b_epik_Metal_Only>
0

> <s_lp_Force_Field>
OPLS_2005

> <r_lp_Energy>
1.77679

> <b_lp_Chiralities_Consistent>
1

> <s_lp_Variant>
AV-unprocessed.smi:2698-5

> <Gold.Version>
5.8.1

> <Gold.Id.Protein>
6NUR|6NUR_protein|mol2

> <Gold.PLP.Fitness>
41.4081

> <Gold.PLP.PLP>
-30.8269

> <Gold.PLP.part.hbond>
-4.0000

> <Gold.PLP.part.metal>
0.0000

> <Gold.PLP.part.buried>
-4.6405

> <Gold.PLP.part.nonpolar>
-21.7587

> <Gold.PLP.part.repulsive>
0.2705

> <Gold.PLP.ligand.clash>
0.0000

> <Gold.PLP.ligand.torsion>
0.7694

> <Gold.PLP.Chemscore.Hbond>
4.0000

> <Gold.PLP.Chemscore.CHOScore>
0.0000

> <Gold.PLP.Chemscore.Metal>
0.0000

> <Gold.Chemscore.Hbonds>
donor molecule, donor type, donor heavy atom, donor atom, acceptor molecule, acceptor atom, score
      P1  H  7989  7998       L1    16  1.00
      P1  H  7997  8009       L1    17  2.00
      P1  H 10752 10765       L1    14  1.00

> <Gold.PLP.Chemscore.Internal.Correction>
0.1199

> <Gold.Rescore>
     Score         DG    S(hbond)    S(metal)    S(lipo)     H(rot)  DE(clash)    DE(int)     intcor
     14.02     -14.60       2.92        0.00      60.48       3.01       0.00       0.58       ----

> <Gold.Chemscore.Fitness>
14.0224

> <Gold.Chemscore.DG>
-14.5997

> <Gold.Chemscore.ZeroCoef>
-5.4800

> <Gold.Chemscore.Hbond>
2.9223

> <Gold.Chemscore.Metal>
0.0000

> <Gold.Chemscore.Lipo>
60.4805

> <Gold.Chemscore.Internal_Hbond>
0.0000

> <Gold.Chemscore.DEClash>
0.0000

> <Gold.Chemscore.DEInternal>
0.5773

> <Gold.Chemscore.Rot>
3.0145

> <Gold.Chemscore.Internal.Correction>
   9.000000E+99

> <Gold.Chemscore.Hbonds>
donor molecule, donor type, donor heavy atom, donor atom, acceptor molecule, acceptor atom, score
      P1  H  7989  7998       L1    16  0.34
      P1  H  7997  8009       L1    17  0.93
      P1  H 10752 10765       L1    14  0.95

> <Gold.Chemscore.Hbond.Weighted>
-9.7605

> <Gold.Chemscore.Metal.Weighted>
-0.0000

> <Gold.Chemscore.Lipo.Weighted>
-7.0762

> <Gold.Chemscore.Internal_Hbond.Weighted>
0.0000

> <Gold.Chemscore.DEClash.Weighted>
0.0000

> <Gold.Chemscore.DEInternal.Weighted>
0.5773

> <Gold.Chemscore.Rot.Weighted>
7.7171

> <Gold.Chemscore.Internal.Correction.Weighted>
   9.000000E+99

> <Gold.Protein.RotatedTorsions>
[ 6907 6896 6895 6894 ] final  -51.49 input  -60.11 | X-H torsion
[ 7974 7965 7964 7962 ] final  -26.25 input  175.53 | X-H torsion
[ 8008 7997 7996 7995 ] final -152.50 input   59.86 | X-H torsion
[ 10167 10162 10161 10158 ] final -162.16 input  -65.29 | X-H torsion
[ 10718 10713 10712 10709 ] final -115.83 input   66.30 | X-H torsion
[ 10763 10752 10751 10750 ] final -160.79 input  -60.55 | X-H torsion
[ 11005 11000 10999 10996 ] final   25.37 input  -57.11 | X-H torsion

> <Gold.Protein.ActiveResidues>
 VAL166  LYS551  ARG553  GLY616  TRP617  ASP618  TYR619  PRO620  LYS621  CYS622 
 ASP623  PHE694  ASN695  SER759  ASP760  ASP761  ALA762  ILE779  LEU786  VAL792 
 PHE793  MET794  SER795  GLU796  ALA797  LYS798  CYS799  TRP800  GLU811  SER814 

> <Gold.Protein.RotatedAtoms>
  150.8606  134.7957  159.7079 H   0  0  0  0  0  0  0  0  0  0  0  0  # atno 6907 bound_to 6896
  152.4644  134.5106  159.9762 H   0  0  0  0  0  0  0  0  0  0  0  0  # atno 6908 bound_to 6896
  151.5210  133.3428  159.2937 H   0  0  0  0  0  0  0  0  0  0  0  0  # atno 6909 bound_to 6896
  146.1437  140.4995  142.8641 H   0  0  0  0  0  0  0  0  0  0  0  0  # atno 7974 bound_to 7965
  155.6562  140.0717  157.2570 H   0  0  0  0  0  0  0  0  0  0  0  0  # atno 8008 bound_to 7997
  154.4152  140.1724  156.1778 H   0  0  0  0  0  0  0  0  0  0  0  0  # atno 8009 bound_to 7997
  155.9735  140.3360  155.6601 H   0  0  0  0  0  0  0  0  0  0  0  0  # atno 8010 bound_to 7997
  139.6412  144.0255  152.2093 H   0  0  0  0  0  0  0  0  0  0  0  0  # atno 10167 bound_to 10162
  156.0922  130.6102  150.8957 H   0  0  0  0  0  0  0  0  0  0  0  0  # atno 10718 bound_to 10713
  154.7360  135.3057  154.8811 H   0  0  0  0  0  0  0  0  0  0  0  0  # atno 10763 bound_to 10752
  153.9639  135.6749  153.4750 H   0  0  0  0  0  0  0  0  0  0  0  0  # atno 10764 bound_to 10752
  153.0963  135.4934  154.8707 H   0  0  0  0  0  0  0  0  0  0  0  0  # atno 10765 bound_to 10752
  140.3486  134.2254  155.7682 H   0  0  0  0  0  0  0  0  0  0  0  0  # atno 11005 bound_to 11000
  144.7822  140.5864  143.6598 LP  0  0  0  0  0  0  0  0  0  0  0  0  # atno 17320 bound_to 7965
  145.4986  139.1484  143.3670 LP  0  0  0  0  0  0  0  0  0  0  0  0  # atno 17321 bound_to 7965
  139.9945  144.6337  150.7784 LP  0  0  0  0  0  0  0  0  0  0  0  0  # atno 17342 bound_to 10162
  140.7492  143.2934  151.3268 LP  0  0  0  0  0  0  0  0  0  0  0  0  # atno 17343 bound_to 10162
  157.6074  131.0938  150.8855 LP  0  0  0  0  0  0  0  0  0  0  0  0  # atno 17370 bound_to 10713
  156.9001  130.5243  149.5283 LP  0  0  0  0  0  0  0  0  0  0  0  0  # atno 17371 bound_to 10713
  141.2018  133.7952  157.0420 LP  0  0  0  0  0  0  0  0  0  0  0  0  # atno 17394 bound_to 11000
  140.0722  134.9696  157.1486 LP  0  0  0  0  0  0  0  0  0  0  0  0  # atno 17395 bound_to 11000

$$$$
