AV-unprocessed.smi:1254|AV-procd|sdf|5272|dock5
  -GOLD-   22720 4383D 1   1.00000     0.00000
 Structure written by MMmdl.
 46 47  0  0  0  0  0  0  0  0  2 V2000
  152.3153  139.8989  155.7610 C   0  0  0  0  0  0  0  0  0  0  0  0
  151.8083  138.5280  155.4699 C   0  0  0  0  0  0  0  0  0  0  0  0
  150.7288  138.0652  154.7716 C   0  0  0  0  0  0  0  0  0  0  0  0
  150.8464  136.6557  154.8983 C   0  0  0  0  0  0  0  0  0  0  0  0
  149.8980  135.7892  154.2977 N   0  0  0  0  0  0  0  0  0  0  0  0
  149.4659  134.6040  154.7601 C   0  0  0  0  0  0  0  0  0  0  0  0
  149.8225  134.0802  155.8160 O   0  0  0  0  0  0  0  0  0  0  0  0
  148.5861  134.0413  153.9192 N   0  0  0  0  0  0  0  0  0  0  0  0
  147.9405  132.7498  154.1295 C   0  0  0  0  0  0  0  0  0  0  0  0
  147.4629  132.1228  152.8070 C   0  0  1  0  0  0  0  0  0  0  0  0
  147.3637  130.5881  152.8995 C   0  0  0  0  0  0  0  0  0  0  0  0
  146.8507  130.0248  151.6258 N   0  3  1  0  0  0  0  0  0  0  0  0
  146.7762  128.5411  151.6136 C   0  0  0  0  0  0  0  0  0  0  0  0
  148.1530  127.8618  151.4466 C   0  0  0  0  0  0  0  0  0  0  0  0
  148.0388  126.4944  150.7521 C   0  0  0  0  0  0  0  0  0  0  0  0
  148.8486  127.7140  152.8078 C   0  0  0  0  0  0  0  0  0  0  0  0
  145.5596  130.6576  151.2657 C   0  0  0  0  0  0  0  0  0  0  0  0
  145.6986  132.1885  151.2389 C   0  0  0  0  0  0  0  0  0  0  0  0
  146.1744  132.6448  152.4985 O   0  0  0  0  0  0  0  0  0  0  0  0
  151.9029  136.2905  155.6085 N   0  0  0  0  0  0  0  0  0  0  0  0
  152.5240  137.4889  155.9795 O   0  0  0  0  0  0  0  0  0  0  0  0
  151.9291  140.6178  155.0383 H   0  0  0  0  0  0  0  0  0  0  0  0
  153.4042  139.9291  155.7176 H   0  0  0  0  0  0  0  0  0  0  0  0
  152.0065  140.2200  156.7559 H   0  0  0  0  0  0  0  0  0  0  0  0
  149.9784  138.6448  154.2553 H   0  0  0  0  0  0  0  0  0  0  0  0
  149.5148  136.1022  153.4182 H   0  0  0  0  0  0  0  0  0  0  0  0
  148.3477  134.5376  153.0730 H   0  0  0  0  0  0  0  0  0  0  0  0
  148.6329  132.0779  154.6393 H   0  0  0  0  0  0  0  0  0  0  0  0
  147.0958  132.8931  154.8038 H   0  0  0  0  0  0  0  0  0  0  0  0
  148.1606  132.3851  152.0094 H   0  0  0  0  0  0  0  0  0  0  0  0
  148.3485  130.1805  153.1241 H   0  0  0  0  0  0  0  0  0  0  0  0
  146.7040  130.3009  153.7198 H   0  0  0  0  0  0  0  0  0  0  0  0
  146.2881  128.2000  152.5280 H   0  0  0  0  0  0  0  0  0  0  0  0
  146.1360  128.2203  150.7903 H   0  0  0  0  0  0  0  0  0  0  0  0
  148.7948  128.4962  150.8361 H   0  0  0  0  0  0  0  0  0  0  0  0
  147.4013  125.8139  151.3175 H   0  0  0  0  0  0  0  0  0  0  0  0
  149.0173  126.0236  150.6503 H   0  0  0  0  0  0  0  0  0  0  0  0
  147.6199  126.5880  149.7501 H   0  0  0  0  0  0  0  0  0  0  0  0
  148.2725  127.0786  153.4814 H   0  0  0  0  0  0  0  0  0  0  0  0
  148.9769  128.6825  153.2921 H   0  0  0  0  0  0  0  0  0  0  0  0
  149.8386  127.2700  152.6984 H   0  0  0  0  0  0  0  0  0  0  0  0
  145.2321  130.3039  150.2874 H   0  0  0  0  0  0  0  0  0  0  0  0
  144.7948  130.3639  151.9867 H   0  0  0  0  0  0  0  0  0  0  0  0
  146.3739  132.5062  150.4428 H   0  0  0  0  0  0  0  0  0  0  0  0
  144.7317  132.6500  151.0380 H   0  0  0  0  0  0  0  0  0  0  0  0
  147.5050  130.2864  150.9019 H   0  0  0  0  0  0  0  0  0  0  0  0
  1  2  1  0  0  0  0
  1 22  1  0  0  0  0
  1 23  1  0  0  0  0
  1 24  1  0  0  0  0
  2 21  1  0  0  0  0
  2  3  2  0  0  0  0
  3  4  1  0  0  0  0
  3 25  1  0  0  0  0
  4  5  1  0  0  0  0
  4 20  2  0  0  0  0
  5  6  1  0  0  0  0
  5 26  1  0  0  0  0
  6  7  2  0  0  0  0
  6  8  1  0  0  0  0
  8  9  1  0  0  0  0
  8 27  1  0  0  0  0
  9 10  1  0  0  0  0
  9 28  1  0  0  0  0
  9 29  1  0  0  0  0
 10 19  1  0  0  0  0
 10 11  1  0  0  0  0
 10 30  1  0  0  0  0
 11 12  1  0  0  0  0
 11 31  1  0  0  0  0
 11 32  1  0  0  0  0
 12 13  1  0  0  0  0
 12 17  1  0  0  0  0
 12 46  1  0  0  0  0
 13 14  1  0  0  0  0
 13 33  1  0  0  0  0
 13 34  1  0  0  0  0
 14 15  1  0  0  0  0
 14 16  1  0  0  0  0
 14 35  1  0  0  0  0
 15 36  1  0  0  0  0
 15 37  1  0  0  0  0
 15 38  1  0  0  0  0
 16 39  1  0  0  0  0
 16 40  1  0  0  0  0
 16 41  1  0  0  0  0
 17 18  1  0  0  0  0
 17 42  1  0  0  0  0
 17 43  1  0  0  0  0
 18 19  1  0  0  0  0
 18 44  1  0  0  0  0
 18 45  1  0  0  0  0
 20 21  1  0  0  0  0
M  CHG  1  12   1
M  END
> <s_m_source_file>
AV-unprocessed.smi

> <i_m_source_file_index>
1254

> <i_lp_mmshare_version>
43012

> <i_f3d_flags>
0

> <s_epik_input>
W0NIM11jMVtjSF1jKG5vMSlbTkhdQyg9TylbTkhdW0NIMl1bQ0BASF0yW0NIMl1OKFtDSDJdW0NIMl1PMilbQ0gyXVtDSF0oW0NIM10pW0NIM10=

> <s_epik_cmdline>
J2VwaWtfcHl0aG9uJywgJy1waCcsICc3LjAnLCAnLXRuJywgJzgnLCAnLW1hJywgJzIwMCcsICctbWV0YWxfYmluZGluZycsICctaW1hZScsICc8aW5maWxlLm1hZT4nLCAnLW9tYWUnLCAnPG91dGZpbGUubWFlPic=

> <r_epik_Ionization_Penalty>
0.0986825

> <r_epik_Ionization_Penalty_Charging>
0.0986478

> <r_epik_Ionization_Penalty_Neutral>
3.46838e-05

> <r_epik_State_Penalty>
0.0887259

> <r_epik_Charging_Adjusted_Penalty>
0.187374

> <i_epik_Tot_Q>
1

> <i_epik_Tot_abs_Q>
1

> <r_epik_Metal_State_Penalty>
0.103424

> <b_epik_Metal_Only>
0

> <s_lp_Force_Field>
OPLS_2005

> <r_lp_Energy>
13.7393

> <b_lp_Chiralities_Consistent>
1

> <s_lp_Variant>
AV-unprocessed.smi:1254-4

> <Gold.Version>
5.8.1

> <Gold.Id.Protein>
6NUR|6NUR_protein|mol2

> <Gold.PLP.Fitness>
47.7099

> <Gold.PLP.PLP>
-38.9720

> <Gold.PLP.part.hbond>
-5.6251

> <Gold.PLP.part.metal>
0.0000

> <Gold.PLP.part.buried>
-0.5751

> <Gold.PLP.part.nonpolar>
-32.1733

> <Gold.PLP.part.repulsive>
0.3109

> <Gold.PLP.ligand.clash>
0.0000

> <Gold.PLP.ligand.torsion>
1.1588

> <Gold.PLP.Chemscore.Hbond>
3.6760

> <Gold.PLP.Chemscore.CHOScore>
0.0000

> <Gold.PLP.Chemscore.Metal>
0.0000

> <Gold.Chemscore.Hbonds>
donor molecule, donor type, donor heavy atom, donor atom, acceptor molecule, acceptor atom, score
      L1  H     5    26       P1  7948  1.00
      L1  H     8    27       P1  7948  0.62
      L1  H    12    46       P1 10747  1.00
      P1  H 10752 10765       L1    20  1.00

> <Gold.PLP.Chemscore.Internal.Correction>
0.0275

> <Gold.Rescore>
     Score         DG    S(hbond)    S(metal)    S(lipo)     H(rot)  DE(clash)    DE(int)     intcor
     15.49     -18.36       2.18        0.00      85.83       1.73       0.10       2.77       ----

> <Gold.Chemscore.Fitness>
15.4917

> <Gold.Chemscore.DG>
-18.3631

> <Gold.Chemscore.ZeroCoef>
-5.4800

> <Gold.Chemscore.Hbond>
2.1759

> <Gold.Chemscore.Metal>
0.0000

> <Gold.Chemscore.Lipo>
85.8288

> <Gold.Chemscore.Internal_Hbond>
0.0000

> <Gold.Chemscore.DEClash>
0.0993

> <Gold.Chemscore.DEInternal>
2.7720

> <Gold.Chemscore.Rot>
1.7291

> <Gold.Chemscore.Internal.Correction>
   9.000000E+99

> <Gold.Chemscore.Hbonds>
donor molecule, donor type, donor heavy atom, donor atom, acceptor molecule, acceptor atom, score
      L1  H     5    26       P1  7948  0.39
      L1  H     8    27       P1  7948  0.28
      L1  H    12    46       P1 10747  0.98
      P1  H 10752 10765       L1    20  0.35

> <Gold.Chemscore.Hbond.Weighted>
-7.2676

> <Gold.Chemscore.Metal.Weighted>
-0.0000

> <Gold.Chemscore.Lipo.Weighted>
-10.0420

> <Gold.Chemscore.Internal_Hbond.Weighted>
0.0000

> <Gold.Chemscore.DEClash.Weighted>
0.0993

> <Gold.Chemscore.DEInternal.Weighted>
2.7720

> <Gold.Chemscore.Rot.Weighted>
4.4265

> <Gold.Chemscore.Internal.Correction.Weighted>
   9.000000E+99

> <Gold.Protein.RotatedTorsions>
[ 6907 6896 6895 6894 ] final -136.49 input  -60.11 | X-H torsion
[ 7974 7965 7964 7962 ] final   36.01 input  175.53 | X-H torsion
[ 8008 7997 7996 7995 ] final -111.93 input   59.86 | X-H torsion
[ 10167 10162 10161 10158 ] final   20.14 input  -65.29 | X-H torsion
[ 10718 10713 10712 10709 ] final -108.46 input   66.30 | X-H torsion
[ 10763 10752 10751 10750 ] final -163.43 input  -60.55 | X-H torsion
[ 11005 11000 10999 10996 ] final  136.73 input  -57.11 | X-H torsion

> <Gold.Protein.ActiveResidues>
 VAL166  LYS551  ARG553  GLY616  TRP617  ASP618  TYR619  PRO620  LYS621  CYS622 
 ASP623  PHE694  ASN695  SER759  ASP760  ASP761  ALA762  ILE779  LEU786  VAL792 
 PHE793  MET794  SER795  GLU796  ALA797  LYS798  CYS799  TRP800  GLU811  SER814 

> <Gold.Protein.RotatedAtoms>
  151.0107  133.5968  159.2682 H   0  0  0  0  0  0  0  0  0  0  0  0  # atno 6907 bound_to 6896
  151.3121  135.0796  159.9286 H   0  0  0  0  0  0  0  0  0  0  0  0  # atno 6908 bound_to 6896
  152.5298  133.9770  159.7843 H   0  0  0  0  0  0  0  0  0  0  0  0  # atno 6909 bound_to 6896
  146.1242  139.6070  142.9270 H   0  0  0  0  0  0  0  0  0  0  0  0  # atno 7974 bound_to 7965
  154.9974  140.0394  157.2345 H   0  0  0  0  0  0  0  0  0  0  0  0  # atno 8008 bound_to 7997
  154.7574  140.2778  155.6219 H   0  0  0  0  0  0  0  0  0  0  0  0  # atno 8009 bound_to 7997
  156.2897  140.2635  156.2344 H   0  0  0  0  0  0  0  0  0  0  0  0  # atno 8010 bound_to 7997
  140.5526  143.9482  150.6588 H   0  0  0  0  0  0  0  0  0  0  0  0  # atno 10167 bound_to 10162
  156.0487  130.5714  150.7964 H   0  0  0  0  0  0  0  0  0  0  0  0  # atno 10718 bound_to 10713
  154.7123  135.3009  154.9177 H   0  0  0  0  0  0  0  0  0  0  0  0  # atno 10763 bound_to 10752
  154.0075  135.6699  153.4767 H   0  0  0  0  0  0  0  0  0  0  0  0  # atno 10764 bound_to 10752
  153.0765  135.5032  154.8329 H   0  0  0  0  0  0  0  0  0  0  0  0  # atno 10765 bound_to 10752
  140.0066  134.9456  157.0188 H   0  0  0  0  0  0  0  0  0  0  0  0  # atno 11005 bound_to 11000
  145.5402  141.0421  143.2335 LP  0  0  0  0  0  0  0  0  0  0  0  0  # atno 17320 bound_to 7965
  144.7626  139.6921  143.7228 LP  0  0  0  0  0  0  0  0  0  0  0  0  # atno 17321 bound_to 7965
  140.2912  143.3323  152.1061 LP  0  0  0  0  0  0  0  0  0  0  0  0  # atno 17342 bound_to 10162
  139.5034  144.6754  151.6141 LP  0  0  0  0  0  0  0  0  0  0  0  0  # atno 17343 bound_to 10162
  157.5390  131.0940  150.9853 LP  0  0  0  0  0  0  0  0  0  0  0  0  # atno 17370 bound_to 10713
  157.0141  130.5648  149.5324 LP  0  0  0  0  0  0  0  0  0  0  0  0  # atno 17371 bound_to 10713
  140.4630  134.1464  155.7193 LP  0  0  0  0  0  0  0  0  0  0  0  0  # atno 17394 bound_to 11000
  141.1681  133.8663  157.1654 LP  0  0  0  0  0  0  0  0  0  0  0  0  # atno 17395 bound_to 11000

$$$$
