AV-unprocessed.smi:490|AV-procd|sdf|2704|dock7
  -GOLD-   2262023143D 1   1.00000     0.00000
 Structure written by MMmdl.
 49 51  0  0  0  0  0  0  0  0  1 V2000
  151.4837  144.5302  157.7281 C   0  0  0  0  0  0  0  0  0  0  0  0
  152.0142  143.3165  158.4718 C   0  0  0  0  0  0  0  0  0  0  0  0
  153.2063  143.4366  159.2147 C   0  0  0  0  0  0  0  0  0  0  0  0
  153.7232  142.3330  159.9154 C   0  0  0  0  0  0  0  0  0  0  0  0
  153.0459  141.0988  159.8901 C   0  0  0  0  0  0  0  0  0  0  0  0
  153.6100  139.9143  160.6521 C   0  0  0  0  0  0  0  0  0  0  0  0
  151.8422  140.9710  159.1610 C   0  0  0  0  0  0  0  0  0  0  0  0
  151.1917  139.7630  159.1610 O   0  0  0  0  0  0  0  0  0  0  0  0
  151.2911  139.0572  157.9311 C   0  0  0  0  0  0  0  0  0  0  0  0
  150.7570  137.6269  158.1340 C   0  0  1  0  0  0  0  0  0  0  0  0
  151.6077  136.9549  159.0392 O   0  0  0  0  0  0  0  0  0  0  0  0
  149.3210  137.5624  158.6978 C   0  0  0  0  0  0  0  0  0  0  0  0
  148.8599  136.1975  158.9259 N   0  0  0  0  0  0  0  0  0  0  0  0
  148.8779  135.1530  158.0587 C   0  0  0  0  0  0  0  0  0  0  0  0
  149.4372  135.2675  156.6731 C   0  0  0  0  0  0  0  0  0  0  0  0
  149.3640  134.0545  155.9553 O   0  0  0  0  0  0  0  0  0  0  0  0
  148.3766  134.0067  158.5193 N   0  0  0  0  0  0  0  0  0  0  0  0
  148.0153  134.3304  159.8117 C   0  0  0  0  0  0  0  0  0  0  0  0
  147.4214  133.5411  160.8224 C   0  0  0  0  0  0  0  0  0  0  0  0
  147.1392  134.0955  162.0878 C   0  0  0  0  0  0  0  0  0  0  0  0
  147.4486  135.4435  162.3611 C   0  0  0  0  0  0  0  0  0  0  0  0
  148.0406  136.2472  161.3681 C   0  0  0  0  0  0  0  0  0  0  0  0
  148.3147  135.6914  160.1034 C   0  0  0  0  0  0  0  0  0  0  0  0
  151.3313  142.0754  158.4303 C   0  0  0  0  0  0  0  0  0  0  0  0
  150.0584  141.9348  157.6044 C   0  0  0  0  0  0  0  0  0  0  0  0
  152.0717  145.4212  157.9504 H   0  0  0  0  0  0  0  0  0  0  0  0
  150.4510  144.7338  158.0132 H   0  0  0  0  0  0  0  0  0  0  0  0
  151.5214  144.3645  156.6514 H   0  0  0  0  0  0  0  0  0  0  0  0
  153.7345  144.3782  159.2482 H   0  0  0  0  0  0  0  0  0  0  0  0
  154.6410  142.4407  160.4749 H   0  0  0  0  0  0  0  0  0  0  0  0
  153.7120  139.0520  159.9929 H   0  0  0  0  0  0  0  0  0  0  0  0
  152.9482  139.6429  161.4744 H   0  0  0  0  0  0  0  0  0  0  0  0
  154.5927  140.1392  161.0669 H   0  0  0  0  0  0  0  0  0  0  0  0
  150.7508  139.5800  157.1406 H   0  0  0  0  0  0  0  0  0  0  0  0
  152.3320  139.0299  157.6162 H   0  0  0  0  0  0  0  0  0  0  0  0
  150.7896  137.0938  157.1842 H   0  0  0  0  0  0  0  0  0  0  0  0
  152.4720  136.9097  158.6592 H   0  0  0  0  0  0  0  0  0  0  0  0
  149.2610  138.1064  159.6408 H   0  0  0  0  0  0  0  0  0  0  0  0
  148.6260  138.0597  158.0202 H   0  0  0  0  0  0  0  0  0  0  0  0
  148.8832  136.0296  156.1236 H   0  0  0  0  0  0  0  0  0  0  0  0
  150.4723  135.6031  156.7108 H   0  0  0  0  0  0  0  0  0  0  0  0
  149.9968  134.0823  155.2541 H   0  0  0  0  0  0  0  0  0  0  0  0
  147.1826  132.5069  160.6231 H   0  0  0  0  0  0  0  0  0  0  0  0
  146.6842  133.4835  162.8527 H   0  0  0  0  0  0  0  0  0  0  0  0
  147.2294  135.8606  163.3330 H   0  0  0  0  0  0  0  0  0  0  0  0
  148.2731  137.2816  161.5741 H   0  0  0  0  0  0  0  0  0  0  0  0
  149.7518  140.8963  157.4840 H   0  0  0  0  0  0  0  0  0  0  0  0
  150.1997  142.3419  156.6034 H   0  0  0  0  0  0  0  0  0  0  0  0
  149.2407  142.4742  158.0823 H   0  0  0  0  0  0  0  0  0  0  0  0
  1  2  1  0  0  0  0
  1 26  1  0  0  0  0
  1 27  1  0  0  0  0
  1 28  1  0  0  0  0
  2 24  1  0  0  0  0
  2  3  2  0  0  0  0
  3  4  1  0  0  0  0
  3 29  1  0  0  0  0
  4  5  2  0  0  0  0
  4 30  1  0  0  0  0
  5  6  1  0  0  0  0
  5  7  1  0  0  0  0
  6 31  1  0  0  0  0
  6 32  1  0  0  0  0
  6 33  1  0  0  0  0
  7  8  1  0  0  0  0
  7 24  2  0  0  0  0
  8  9  1  0  0  0  0
  9 10  1  0  0  0  0
  9 34  1  0  0  0  0
  9 35  1  0  0  0  0
 10 11  1  0  0  0  0
 10 12  1  0  0  0  0
 10 36  1  0  0  0  0
 11 37  1  0  0  0  0
 12 13  1  0  0  0  0
 12 38  1  0  0  0  0
 12 39  1  0  0  0  0
 13 23  1  0  0  0  0
 13 14  1  0  0  0  0
 14 15  1  0  0  0  0
 14 17  2  0  0  0  0
 15 16  1  0  0  0  0
 15 40  1  0  0  0  0
 15 41  1  0  0  0  0
 16 42  1  0  0  0  0
 17 18  1  0  0  0  0
 18 23  2  0  0  0  0
 18 19  1  0  0  0  0
 19 20  2  0  0  0  0
 19 43  1  0  0  0  0
 20 21  1  0  0  0  0
 20 44  1  0  0  0  0
 21 22  2  0  0  0  0
 21 45  1  0  0  0  0
 22 23  1  0  0  0  0
 22 46  1  0  0  0  0
 24 25  1  0  0  0  0
 25 47  1  0  0  0  0
 25 48  1  0  0  0  0
 25 49  1  0  0  0  0
M  END
> <s_m_source_file>
AV-unprocessed.smi

> <i_m_source_file_index>
490

> <i_lp_mmshare_version>
43012

> <i_f3d_flags>
0

> <s_epik_input>
W0NIM11jMVtjSF1bY0hdYyhbQ0gzXSljKGMxW0NIM10pT1tDSDJdW0NASF0oW09IXSlbQ0gyXW4oYyhuMilbQ0gyXVtPSF0pYyhjMjMpW2NIXVtjSF1bY0hdW2NIXTM=

> <s_epik_cmdline>
J2VwaWtfcHl0aG9uJywgJy1waCcsICc3LjAnLCAnLXRuJywgJzgnLCAnLW1hJywgJzIwMCcsICctbWV0YWxfYmluZGluZycsICctaW1hZScsICc8aW5maWxlLm1hZT4nLCAnLW9tYWUnLCAnPG91dGZpbGUubWFlPic=

> <r_lp_tautomer_probability>
1

> <r_epik_Ionization_Penalty>
0.0555874

> <r_epik_Ionization_Penalty_Charging>
0

> <r_epik_Ionization_Penalty_Neutral>
0.0555874

> <r_epik_State_Penalty>
0.0478234

> <r_epik_Charging_Adjusted_Penalty>
0.0478234

> <i_epik_Tot_Q>
0

> <i_epik_Tot_abs_Q>
0

> <r_epik_Metal_State_Penalty>
4.98044e-05

> <b_epik_Metal_Only>
0

> <s_lp_Force_Field>
OPLS_2005

> <r_lp_Energy>
21.221

> <b_lp_Chiralities_Consistent>
1

> <s_lp_Variant>
AV-unprocessed.smi:490-2

> <Gold.Version>
5.8.1

> <Gold.Id.Protein>
6NUR|6NUR_protein|mol2

> <Gold.PLP.Fitness>
52.2648

> <Gold.PLP.PLP>
-49.5967

> <Gold.PLP.part.hbond>
-1.1211

> <Gold.PLP.part.metal>
0.0000

> <Gold.PLP.part.buried>
-5.2172

> <Gold.PLP.part.nonpolar>
-43.0968

> <Gold.PLP.part.repulsive>
0.0000

> <Gold.PLP.ligand.clash>
0.0000

> <Gold.PLP.ligand.torsion>
0.2461

> <Gold.PLP.Chemscore.Hbond>
1.0000

> <Gold.PLP.Chemscore.CHOScore>
0.0000

> <Gold.PLP.Chemscore.Metal>
0.0000

> <Gold.Chemscore.Hbonds>
donor molecule, donor type, donor heavy atom, donor atom, acceptor molecule, acceptor atom, score
      P1  H  6896  6907       L1    11  0.96

> <Gold.PLP.Chemscore.Internal.Correction>
0.1603

> <Gold.Rescore>
     Score         DG    S(hbond)    S(metal)    S(lipo)     H(rot)  DE(clash)    DE(int)     intcor
     17.30     -17.54       0.70        0.00     147.18       2.93       0.01       0.24       ----

> <Gold.Chemscore.Fitness>
17.2999

> <Gold.Chemscore.DG>
-17.5448

> <Gold.Chemscore.ZeroCoef>
-5.4800

> <Gold.Chemscore.Hbond>
0.7007

> <Gold.Chemscore.Metal>
0.0000

> <Gold.Chemscore.Lipo>
147.1780

> <Gold.Chemscore.Internal_Hbond>
0.0000

> <Gold.Chemscore.DEClash>
0.0068

> <Gold.Chemscore.DEInternal>
0.2380

> <Gold.Chemscore.Rot>
2.9279

> <Gold.Chemscore.Internal.Correction>
   9.000000E+99

> <Gold.Chemscore.Hbonds>
donor molecule, donor type, donor heavy atom, donor atom, acceptor molecule, acceptor atom, score
      P1  H  6896  6907       L1    11  0.43

> <Gold.Chemscore.Hbond.Weighted>
-2.3403

> <Gold.Chemscore.Metal.Weighted>
-0.0000

> <Gold.Chemscore.Lipo.Weighted>
-17.2198

> <Gold.Chemscore.Internal_Hbond.Weighted>
0.0000

> <Gold.Chemscore.DEClash.Weighted>
0.0068

> <Gold.Chemscore.DEInternal.Weighted>
0.2380

> <Gold.Chemscore.Rot.Weighted>
7.4954

> <Gold.Chemscore.Internal.Correction.Weighted>
   9.000000E+99

> <Gold.Protein.RotatedTorsions>
[ 6907 6896 6895 6894 ] final  -17.16 input  -60.11 | X-H torsion
[ 7974 7965 7964 7962 ] final  -60.56 input  175.53 | X-H torsion
[ 8008 7997 7996 7995 ] final  -61.10 input   59.86 | X-H torsion
[ 10167 10162 10161 10158 ] final  -51.58 input  -65.29 | X-H torsion
[ 10718 10713 10712 10709 ] final -129.95 input   66.30 | X-H torsion
[ 10763 10752 10751 10750 ] final  -28.03 input  -60.55 | X-H torsion
[ 11005 11000 10999 10996 ] final  148.91 input  -57.11 | X-H torsion

> <Gold.Protein.ActiveResidues>
 VAL166  LYS551  ARG553  GLY616  TRP617  ASP618  TYR619  PRO620  LYS621  CYS622 
 ASP623  PHE694  ASN695  SER759  ASP760  ASP761  ALA762  ILE779  LEU786  VAL792 
 PHE793  MET794  SER795  GLU796  ALA797  LYS798  CYS799  TRP800  GLU811  SER814 

> <Gold.Protein.RotatedAtoms>
  151.2975  135.0759  159.9226 H   0  0  0  0  0  0  0  0  0  0  0  0  # atno 6907 bound_to 6896
  152.5304  133.9867  159.7842 H   0  0  0  0  0  0  0  0  0  0  0  0  # atno 6908 bound_to 6896
  151.0148  133.5880  159.2708 H   0  0  0  0  0  0  0  0  0  0  0  0  # atno 6909 bound_to 6896
  145.8141  140.8581  143.0167 H   0  0  0  0  0  0  0  0  0  0  0  0  # atno 7974 bound_to 7965
  154.4431  140.1025  156.6377 H   0  0  0  0  0  0  0  0  0  0  0  0  # atno 8008 bound_to 7997
  155.5536  140.3486  155.4455 H   0  0  0  0  0  0  0  0  0  0  0  0  # atno 8009 bound_to 7997
  156.0511  140.1304  157.0038 H   0  0  0  0  0  0  0  0  0  0  0  0  # atno 8010 bound_to 7997
  140.6581  143.2614  151.4525 H   0  0  0  0  0  0  0  0  0  0  0  0  # atno 10167 bound_to 10162
  156.2096  130.6910  151.0634 H   0  0  0  0  0  0  0  0  0  0  0  0  # atno 10718 bound_to 10713
  153.7418  135.6932  153.4965 H   0  0  0  0  0  0  0  0  0  0  0  0  # atno 10763 bound_to 10752
  153.2064  135.4418  155.0326 H   0  0  0  0  0  0  0  0  0  0  0  0  # atno 10764 bound_to 10752
  154.8218  135.3426  154.6943 H   0  0  0  0  0  0  0  0  0  0  0  0  # atno 10765 bound_to 10752
  140.1000  134.8989  157.1781 H   0  0  0  0  0  0  0  0  0  0  0  0  # atno 11005 bound_to 11000
  144.6754  140.0438  143.7480 LP  0  0  0  0  0  0  0  0  0  0  0  0  # atno 17320 bound_to 7965
  145.9746  139.2895  143.1078 LP  0  0  0  0  0  0  0  0  0  0  0  0  # atno 17321 bound_to 7965
  139.5808  144.1715  152.1965 LP  0  0  0  0  0  0  0  0  0  0  0  0  # atno 17342 bound_to 10162
  140.1039  144.5515  150.6970 LP  0  0  0  0  0  0  0  0  0  0  0  0  # atno 17343 bound_to 10162
  157.7031  131.0768  150.6755 LP  0  0  0  0  0  0  0  0  0  0  0  0  # atno 17370 bound_to 10713
  156.6814  130.4568  149.5626 LP  0  0  0  0  0  0  0  0  0  0  0  0  # atno 17371 bound_to 10713
  140.3233  134.2892  155.7242 LP  0  0  0  0  0  0  0  0  0  0  0  0  # atno 17394 bound_to 11000
  141.2103  133.7724  156.9941 LP  0  0  0  0  0  0  0  0  0  0  0  0  # atno 17395 bound_to 11000

$$$$
