AV-unprocessed.smi:789|AV-procd|sdf|3739|dock5
  -GOLD-   22720 1173D 1   1.00000     0.00000
 Structure written by MMmdl.
 34 35  0  0  0  0  0  0  0  0  1 V2000
  147.3915  138.0952  153.4496 C   0  0  0  0  0  0  0  0  0  0  0  0
  147.6155  139.4515  154.0500 C   0  0  0  0  0  0  0  0  0  0  0  0
  148.7270  139.8965  154.8229 C   0  0  0  0  0  0  0  0  0  0  0  0
  148.4000  141.1956  155.1002 C   0  0  0  0  0  0  0  0  0  0  0  0
  149.0997  142.1178  155.8119 N   0  0  0  0  0  0  0  0  0  0  0  0
  150.2831  141.9858  156.4430 C   0  0  0  0  0  0  0  0  0  0  0  0
  150.9609  140.9601  156.4603 O   0  0  0  0  0  0  0  0  0  0  0  0
  150.6845  143.0960  157.0888 N   0  0  0  0  0  0  0  0  0  0  0  0
  151.9096  143.2962  157.8680 C   0  0  0  0  0  0  0  0  0  0  0  0
  151.9497  142.3383  159.0743 C   0  0  0  0  0  0  0  0  0  0  0  0
  152.3373  143.1925  160.2823 C   0  0  0  0  0  0  0  0  0  0  0  0
  151.7788  144.5744  159.9602 C   0  0  0  0  0  0  0  0  0  0  0  0
  151.9909  144.7220  158.4535 C   0  0  0  0  0  0  0  0  0  0  0  0
  147.1811  141.4812  154.5235 N   0  0  0  0  0  0  0  0  0  0  0  0
  146.4088  142.7090  154.5273 C   0  0  0  0  0  0  0  0  0  0  0  0
  146.7011  140.3988  153.8746 N   0  0  0  0  0  0  0  0  0  0  0  0
  148.1881  137.4049  153.7278 H   0  0  0  0  0  0  0  0  0  0  0  0
  147.3630  138.1478  152.3611 H   0  0  0  0  0  0  0  0  0  0  0  0
  146.4484  137.6661  153.7889 H   0  0  0  0  0  0  0  0  0  0  0  0
  149.6049  139.3395  155.1130 H   0  0  0  0  0  0  0  0  0  0  0  0
  148.6584  143.0219  155.8929 H   0  0  0  0  0  0  0  0  0  0  0  0
  150.0587  143.8875  157.0489 H   0  0  0  0  0  0  0  0  0  0  0  0
  152.7823  143.1086  157.2396 H   0  0  0  0  0  0  0  0  0  0  0  0
  150.9655  141.9017  159.2525 H   0  0  0  0  0  0  0  0  0  0  0  0
  152.6441  141.5117  158.9207 H   0  0  0  0  0  0  0  0  0  0  0  0
  151.9534  142.7915  161.2208 H   0  0  0  0  0  0  0  0  0  0  0  0
  153.4238  143.2458  160.3621 H   0  0  0  0  0  0  0  0  0  0  0  0
  150.7118  144.6006  160.1858 H   0  0  0  0  0  0  0  0  0  0  0  0
  152.2608  145.3674  160.5325 H   0  0  0  0  0  0  0  0  0  0  0  0
  152.9862  145.1282  158.2683 H   0  0  0  0  0  0  0  0  0  0  0  0
  151.2766  145.4176  158.0110 H   0  0  0  0  0  0  0  0  0  0  0  0
  146.8731  143.4555  155.1717 H   0  0  0  0  0  0  0  0  0  0  0  0
  145.4014  142.5091  154.8933 H   0  0  0  0  0  0  0  0  0  0  0  0
  146.3477  143.1062  153.5138 H   0  0  0  0  0  0  0  0  0  0  0  0
  1  2  1  0  0  0  0
  1 17  1  0  0  0  0
  1 18  1  0  0  0  0
  1 19  1  0  0  0  0
  2 16  2  0  0  0  0
  2  3  1  0  0  0  0
  3  4  2  0  0  0  0
  3 20  1  0  0  0  0
  4  5  1  0  0  0  0
  4 14  1  0  0  0  0
  5  6  1  0  0  0  0
  5 21  1  0  0  0  0
  6  7  2  0  0  0  0
  6  8  1  0  0  0  0
  8  9  1  0  0  0  0
  8 22  1  0  0  0  0
  9 13  1  0  0  0  0
  9 10  1  0  0  0  0
  9 23  1  0  0  0  0
 10 11  1  0  0  0  0
 10 24  1  0  0  0  0
 10 25  1  0  0  0  0
 11 12  1  0  0  0  0
 11 26  1  0  0  0  0
 11 27  1  0  0  0  0
 12 13  1  0  0  0  0
 12 28  1  0  0  0  0
 12 29  1  0  0  0  0
 13 30  1  0  0  0  0
 13 31  1  0  0  0  0
 14 15  1  0  0  0  0
 14 16  1  0  0  0  0
 15 32  1  0  0  0  0
 15 33  1  0  0  0  0
 15 34  1  0  0  0  0
M  END
> <s_m_source_file>
AV-unprocessed.smi

> <i_m_source_file_index>
789

> <i_lp_mmshare_version>
43012

> <i_f3d_flags>
0

> <s_epik_input>
W0NIM11jMVtjSF1jKG4objEpW0NIM10pW05IXUMoPU8pW05IXVtDSF0yW0NIMl1bQ0gyXVtDSDJdW0NIMl0y

> <s_epik_cmdline>
J2VwaWtfcHl0aG9uJywgJy1waCcsICc3LjAnLCAnLXRuJywgJzgnLCAnLW1hJywgJzIwMCcsICctbWV0YWxfYmluZGluZycsICctaW1hZScsICc8aW5maWxlLm1hZT4nLCAnLW9tYWUnLCAnPG91dGZpbGUubWFlPic=

> <r_lp_tautomer_probability>
1

> <r_epik_Ionization_Penalty>
0.000101808

> <r_epik_Ionization_Penalty_Charging>
0

> <r_epik_Ionization_Penalty_Neutral>
0.000101808

> <r_epik_State_Penalty>
-0

> <r_epik_Charging_Adjusted_Penalty>
0

> <i_epik_Tot_Q>
0

> <i_epik_Tot_abs_Q>
0

> <r_epik_Metal_State_Penalty>
-0

> <b_epik_Metal_Only>
0

> <s_lp_Force_Field>
OPLS_2005

> <r_lp_Energy>
29.7198

> <b_lp_Chiralities_Consistent>
1

> <s_lp_Variant>
AV-unprocessed.smi:789-1

> <Gold.Version>
5.8.1

> <Gold.Id.Protein>
6NUR|6NUR_protein|mol2

> <Gold.PLP.Fitness>
38.7489

> <Gold.PLP.PLP>
-33.0627

> <Gold.PLP.part.hbond>
-2.0000

> <Gold.PLP.part.metal>
0.0000

> <Gold.PLP.part.buried>
-3.9359

> <Gold.PLP.part.nonpolar>
-27.7012

> <Gold.PLP.part.repulsive>
0.3388

> <Gold.PLP.ligand.clash>
0.0000

> <Gold.PLP.ligand.torsion>
0.0020

> <Gold.PLP.Chemscore.Hbond>
1.8960

> <Gold.PLP.Chemscore.CHOScore>
0.0000

> <Gold.PLP.Chemscore.Metal>
0.0000

> <Gold.Chemscore.Hbonds>
donor molecule, donor type, donor heavy atom, donor atom, acceptor molecule, acceptor atom, score
      L1  H     5    21       P1  8028  0.90
      L1  H     8    22       P1  8028  0.74

> <Gold.PLP.Chemscore.Internal.Correction>
0.0022

> <Gold.Rescore>
     Score         DG    S(hbond)    S(metal)    S(lipo)     H(rot)  DE(clash)    DE(int)     intcor
     17.09     -18.31       1.83        0.00      79.25       1.00       0.09       1.14       ----

> <Gold.Chemscore.Fitness>
17.0851

> <Gold.Chemscore.DG>
-18.3147

> <Gold.Chemscore.ZeroCoef>
-5.4800

> <Gold.Chemscore.Hbond>
1.8331

> <Gold.Chemscore.Metal>
0.0000

> <Gold.Chemscore.Lipo>
79.2495

> <Gold.Chemscore.Internal_Hbond>
0.0000

> <Gold.Chemscore.DEClash>
0.0943

> <Gold.Chemscore.DEInternal>
1.1353

> <Gold.Chemscore.Rot>
1.0000

> <Gold.Chemscore.Internal.Correction>
   9.000000E+99

> <Gold.Chemscore.Hbonds>
donor molecule, donor type, donor heavy atom, donor atom, acceptor molecule, acceptor atom, score
      L1  H     5    21       P1  8028  0.88
      L1  H     8    22       P1  8028  0.69

> <Gold.Chemscore.Hbond.Weighted>
-6.1225

> <Gold.Chemscore.Metal.Weighted>
-0.0000

> <Gold.Chemscore.Lipo.Weighted>
-9.2722

> <Gold.Chemscore.Internal_Hbond.Weighted>
0.0000

> <Gold.Chemscore.DEClash.Weighted>
0.0943

> <Gold.Chemscore.DEInternal.Weighted>
1.1353

> <Gold.Chemscore.Rot.Weighted>
2.5600

> <Gold.Chemscore.Internal.Correction.Weighted>
   9.000000E+99

> <Gold.Protein.RotatedTorsions>
[ 6907 6896 6895 6894 ] final -157.79 input  -60.11 | X-H torsion
[ 7974 7965 7964 7962 ] final  -16.88 input  175.53 | X-H torsion
[ 8008 7997 7996 7995 ] final -130.50 input   59.86 | X-H torsion
[ 10167 10162 10161 10158 ] final  113.93 input  -65.29 | X-H torsion
[ 10718 10713 10712 10709 ] final    6.23 input   66.30 | X-H torsion
[ 10763 10752 10751 10750 ] final  -39.52 input  -60.55 | X-H torsion
[ 11005 11000 10999 10996 ] final  126.38 input  -57.11 | X-H torsion

> <Gold.Protein.ActiveResidues>
 VAL166  LYS551  ARG553  GLY616  TRP617  ASP618  TYR619  PRO620  LYS621  CYS622 
 ASP623  PHE694  ASN695  SER759  ASP760  ASP761  ALA762  ILE779  LEU786  VAL792 
 PHE793  MET794  SER795  GLU796  ALA797  LYS798  CYS799  TRP800  GLU811  SER814 

> <Gold.Protein.RotatedAtoms>
  151.3083  133.4092  159.2644 H   0  0  0  0  0  0  0  0  0  0  0  0  # atno 6907 bound_to 6896
  151.0136  134.9416  159.8031 H   0  0  0  0  0  0  0  0  0  0  0  0  # atno 6908 bound_to 6896
  152.5307  134.3047  159.9144 H   0  0  0  0  0  0  0  0  0  0  0  0  # atno 6909 bound_to 6896
  146.1967  140.3700  142.8438 H   0  0  0  0  0  0  0  0  0  0  0  0  # atno 7974 bound_to 7965
  155.2968  140.0451  157.3027 H   0  0  0  0  0  0  0  0  0  0  0  0  # atno 8008 bound_to 7997
  154.5509  140.2317  155.8453 H   0  0  0  0  0  0  0  0  0  0  0  0  # atno 8009 bound_to 7997
  156.1966  140.3037  155.9447 H   0  0  0  0  0  0  0  0  0  0  0  0  # atno 8010 bound_to 7997
  139.6425  144.7124  151.2208 H   0  0  0  0  0  0  0  0  0  0  0  0  # atno 10167 bound_to 10162
  156.9192  130.5784  149.5647 H   0  0  0  0  0  0  0  0  0  0  0  0  # atno 10718 bound_to 10713
  153.9307  135.6772  153.4745 H   0  0  0  0  0  0  0  0  0  0  0  0  # atno 10763 bound_to 10752
  153.0981  135.4841  154.8813 H   0  0  0  0  0  0  0  0  0  0  0  0  # atno 10764 bound_to 10752
  154.7429  135.3165  154.8653 H   0  0  0  0  0  0  0  0  0  0  0  0  # atno 10765 bound_to 10752
  139.9453  134.9630  156.8698 H   0  0  0  0  0  0  0  0  0  0  0  0  # atno 11005 bound_to 11000
  144.8595  140.7119  143.6116 LP  0  0  0  0  0  0  0  0  0  0  0  0  # atno 17320 bound_to 7965
  145.3620  139.1679  143.4378 LP  0  0  0  0  0  0  0  0  0  0  0  0  # atno 17321 bound_to 7965
  140.7498  143.6287  150.8443 LP  0  0  0  0  0  0  0  0  0  0  0  0  # atno 17342 bound_to 10162
  139.9926  143.5830  152.2904 LP  0  0  0  0  0  0  0  0  0  0  0  0  # atno 17343 bound_to 10162
  156.0499  130.5570  150.8966 LP  0  0  0  0  0  0  0  0  0  0  0  0  # atno 17370 bound_to 10713
  157.5919  131.0944  150.9105 LP  0  0  0  0  0  0  0  0  0  0  0  0  # atno 17371 bound_to 10713
  140.5849  134.0316  155.7478 LP  0  0  0  0  0  0  0  0  0  0  0  0  # atno 17394 bound_to 11000
  141.1102  133.9629  157.2925 LP  0  0  0  0  0  0  0  0  0  0  0  0  # atno 17395 bound_to 11000

$$$$
