AV-unprocessed.smi:1772|AV-procd|sdf|7162|dock2
  -GOLD-   22720 8403D 1   1.00000     0.00000
 Structure written by MMmdl.
 34 35  0  0  0  0  0  0  0  0  2 V2000
  146.6641  131.5216  153.9323 O   0  0  0  0  0  0  0  0  0  0  0  0
  147.3596  131.3178  152.9376 C   0  0  0  0  0  0  0  0  0  0  0  0
  148.5858  130.7787  152.9929 N   0  0  0  0  0  0  0  0  0  0  0  0
  149.2679  130.3735  154.2180 C   0  0  0  0  0  0  0  0  0  0  0  0
  149.5841  131.5729  155.1330 C   0  0  1  0  0  0  0  0  0  0  0  0
  149.8034  132.8756  154.3396 C   0  0  0  0  0  0  0  0  0  0  0  0
  149.8415  134.0478  155.3253 C   0  0  0  0  0  0  0  0  0  0  0  0
  148.6771  133.6030  156.6673 S   0  0  0  0  0  0  0  0  0  0  0  0
  149.3770  133.6911  157.9577 O   0  0  0  0  0  0  0  0  0  0  0  0
  147.3944  134.2894  156.4526 O   0  0  0  0  0  0  0  0  0  0  0  0
  148.4966  131.8432  156.1870 C   0  0  0  0  0  0  0  0  0  0  0  0
  147.0005  131.5835  151.6695 N   0  0  0  0  0  0  0  0  0  0  0  0
  145.7901  132.1557  151.1907 C   0  0  0  0  0  0  0  0  0  0  0  0
  144.9522  132.7922  152.1334 C   0  0  0  0  0  0  0  0  0  0  0  0
  143.7346  133.3629  151.7098 C   0  0  0  0  0  0  0  0  0  0  0  0
  143.3736  133.2890  150.4110 N   0  3  0  0  0  0  0  0  0  0  0  0
  144.1330  132.6785  149.4761 C   0  0  0  0  0  0  0  0  0  0  0  0
  145.3613  132.0898  149.8403 C   0  0  0  0  0  0  0  0  0  0  0  0
  149.0877  130.6401  152.1277 H   0  0  0  0  0  0  0  0  0  0  0  0
  148.6639  129.6382  154.7525 H   0  0  0  0  0  0  0  0  0  0  0  0
  150.1906  129.8653  153.9365 H   0  0  0  0  0  0  0  0  0  0  0  0
  150.5131  131.3691  155.6678 H   0  0  0  0  0  0  0  0  0  0  0  0
  150.7108  132.8338  153.7366 H   0  0  0  0  0  0  0  0  0  0  0  0
  148.9700  133.0218  153.6509 H   0  0  0  0  0  0  0  0  0  0  0  0
  150.8349  134.1536  155.7620 H   0  0  0  0  0  0  0  0  0  0  0  0
  149.5544  134.9977  154.8739 H   0  0  0  0  0  0  0  0  0  0  0  0
  147.4995  131.7157  155.7646 H   0  0  0  0  0  0  0  0  0  0  0  0
  148.5865  131.2044  157.0659 H   0  0  0  0  0  0  0  0  0  0  0  0
  147.6504  131.2872  150.9561 H   0  0  0  0  0  0  0  0  0  0  0  0
  145.2393  132.8507  153.1735 H   0  0  0  0  0  0  0  0  0  0  0  0
  143.0437  133.8711  152.3667 H   0  0  0  0  0  0  0  0  0  0  0  0
  143.7355  132.6740  148.4716 H   0  0  0  0  0  0  0  0  0  0  0  0
  145.9414  131.5908  149.0793 H   0  0  0  0  0  0  0  0  0  0  0  0
  142.4879  133.7075  150.1248 H   0  0  0  0  0  0  0  0  0  0  0  0
  1  2  2  0  0  0  0
  2  3  1  0  0  0  0
  2 12  1  0  0  0  0
  3  4  1  0  0  0  0
  3 19  1  0  0  0  0
  4  5  1  0  0  0  0
  4 20  1  0  0  0  0
  4 21  1  0  0  0  0
  5 11  1  0  0  0  0
  5  6  1  0  0  0  0
  5 22  1  0  0  0  0
  6  7  1  0  0  0  0
  6 23  1  0  0  0  0
  6 24  1  0  0  0  0
  7  8  1  0  0  0  0
  7 25  1  0  0  0  0
  7 26  1  0  0  0  0
  8  9  2  0  0  0  0
  8 10  2  0  0  0  0
  8 11  1  0  0  0  0
 11 27  1  0  0  0  0
 11 28  1  0  0  0  0
 12 13  1  0  0  0  0
 12 29  1  0  0  0  0
 13 18  1  0  0  0  0
 13 14  2  0  0  0  0
 14 15  1  0  0  0  0
 14 30  1  0  0  0  0
 15 16  2  0  0  0  0
 15 31  1  0  0  0  0
 16 17  1  0  0  0  0
 16 34  1  0  0  0  0
 17 18  2  0  0  0  0
 17 32  1  0  0  0  0
 18 33  1  0  0  0  0
M  CHG  1  16   1
M  END
> <s_m_source_file>
AV-unprocessed.smi

> <i_m_source_file_index>
1772

> <i_lp_mmshare_version>
43012

> <i_f3d_flags>
0

> <s_epik_input>
W2NIXTFbY0hdbltjSF1bY0hdYzFbTkhdQyg9TylbTkhdW0NIMl1bQ0BASF0oW0NIMl0yKVtDSDJdW0NIMl1TMig9Tyk9Tw==

> <s_epik_cmdline>
J2VwaWtfcHl0aG9uJywgJy1waCcsICc3LjAnLCAnLXRuJywgJzgnLCAnLW1hJywgJzIwMCcsICctbWV0YWxfYmluZGluZycsICctaW1hZScsICc8aW5maWxlLm1hZT4nLCAnLW9tYWUnLCAnPG91dGZpbGUubWFlPic=

> <r_epik_Ionization_Penalty>
1.04917

> <r_epik_Ionization_Penalty_Charging>
1.04915

> <r_epik_Ionization_Penalty_Neutral>
1.90771e-05

> <r_epik_State_Penalty>
1.10185

> <r_epik_Charging_Adjusted_Penalty>
2.151

> <i_epik_Tot_Q>
1

> <i_epik_Tot_abs_Q>
1

> <r_epik_Metal_State_Penalty>
1.19638

> <b_epik_Metal_Only>
0

> <s_lp_Force_Field>
OPLS_2005

> <r_lp_Energy>
14.8117

> <b_lp_Chiralities_Consistent>
1

> <s_lp_Variant>
AV-unprocessed.smi:1772-4

> <Gold.Version>
5.8.1

> <Gold.Id.Protein>
6NUR|6NUR_protein|mol2

> <Gold.PLP.Fitness>
43.3127

> <Gold.PLP.PLP>
-29.4790

> <Gold.PLP.part.hbond>
-4.0000

> <Gold.PLP.part.metal>
0.0000

> <Gold.PLP.part.buried>
-5.2591

> <Gold.PLP.part.nonpolar>
-20.6975

> <Gold.PLP.part.repulsive>
0.1827

> <Gold.PLP.ligand.clash>
0.0000

> <Gold.PLP.ligand.torsion>
0.4776

> <Gold.PLP.Chemscore.Hbond>
4.9280

> <Gold.PLP.Chemscore.CHOScore>
0.0000

> <Gold.PLP.Chemscore.Metal>
0.0000

> <Gold.Chemscore.Hbonds>
donor molecule, donor type, donor heavy atom, donor atom, acceptor molecule, acceptor atom, score
      L1  H     3    19       P1 10747  0.82
      L1  H    12    29       P1 10747  1.00
      L1  H    16    34       P1 10186  2.00
      P1  H  6896  6907       L1     9  1.00

> <Gold.PLP.Chemscore.Internal.Correction>
0.0049

> <Gold.Rescore>
     Score         DG    S(hbond)    S(metal)    S(lipo)     H(rot)  DE(clash)    DE(int)     intcor
     18.49     -21.47       3.50        0.00      65.37       1.32       0.02       2.95       ----

> <Gold.Chemscore.Fitness>
18.4923

> <Gold.Chemscore.DG>
-21.4663

> <Gold.Chemscore.ZeroCoef>
-5.4800

> <Gold.Chemscore.Hbond>
3.5046

> <Gold.Chemscore.Metal>
0.0000

> <Gold.Chemscore.Lipo>
65.3703

> <Gold.Chemscore.Internal_Hbond>
0.0000

> <Gold.Chemscore.DEClash>
0.0234

> <Gold.Chemscore.DEInternal>
2.9506

> <Gold.Chemscore.Rot>
1.3153

> <Gold.Chemscore.Internal.Correction>
   9.000000E+99

> <Gold.Chemscore.Hbonds>
donor molecule, donor type, donor heavy atom, donor atom, acceptor molecule, acceptor atom, score
      L1  H     3    19       P1 10747  0.16
      L1  H    12    29       P1 10747  0.95
      L1  H    16    34       P1 10186  1.00
      P1  H  6896  6907       L1     9  0.99

> <Gold.Chemscore.Hbond.Weighted>
-11.7053

> <Gold.Chemscore.Metal.Weighted>
-0.0000

> <Gold.Chemscore.Lipo.Weighted>
-7.6483

> <Gold.Chemscore.Internal_Hbond.Weighted>
0.0000

> <Gold.Chemscore.DEClash.Weighted>
0.0234

> <Gold.Chemscore.DEInternal.Weighted>
2.9506

> <Gold.Chemscore.Rot.Weighted>
3.3673

> <Gold.Chemscore.Internal.Correction.Weighted>
   9.000000E+99

> <Gold.Protein.RotatedTorsions>
[ 6907 6896 6895 6894 ] final -121.12 input  -60.11 | X-H torsion
[ 7974 7965 7964 7962 ] final -177.80 input  175.53 | X-H torsion
[ 8008 7997 7996 7995 ] final  -73.42 input   59.86 | X-H torsion
[ 10167 10162 10161 10158 ] final  103.93 input  -65.29 | X-H torsion
[ 10718 10713 10712 10709 ] final  -18.43 input   66.30 | X-H torsion
[ 10763 10752 10751 10750 ] final   13.61 input  -60.55 | X-H torsion
[ 11005 11000 10999 10996 ] final  105.31 input  -57.11 | X-H torsion

> <Gold.Protein.ActiveResidues>
 VAL166  LYS551  ARG553  GLY616  TRP617  ASP618  TYR619  PRO620  LYS621  CYS622 
 ASP623  PHE694  ASN695  SER759  ASP760  ASP761  ALA762  ILE779  LEU786  VAL792 
 PHE793  MET794  SER795  GLU796  ALA797  LYS798  CYS799  TRP800  GLU811  SER814 

> <Gold.Protein.RotatedAtoms>
  150.8455  133.7869  159.3044 H   0  0  0  0  0  0  0  0  0  0  0  0  # atno 6907 bound_to 6896
  151.5557  135.1065  159.9970 H   0  0  0  0  0  0  0  0  0  0  0  0  # atno 6908 bound_to 6896
  152.4509  133.7585  159.6790 H   0  0  0  0  0  0  0  0  0  0  0  0  # atno 6909 bound_to 6896
  144.7128  140.0965  143.6418 H   0  0  0  0  0  0  0  0  0  0  0  0  # atno 7974 bound_to 7965
  154.5246  140.0779  156.8235 H   0  0  0  0  0  0  0  0  0  0  0  0  # atno 8008 bound_to 7997
  155.3503  140.3412  155.4221 H   0  0  0  0  0  0  0  0  0  0  0  0  # atno 8009 bound_to 7997
  156.1718  140.1622  156.8421 H   0  0  0  0  0  0  0  0  0  0  0  0  # atno 8010 bound_to 7997
  139.7221  144.7056  151.0856 H   0  0  0  0  0  0  0  0  0  0  0  0  # atno 10167 bound_to 10162
  156.5597  130.4722  149.6412 H   0  0  0  0  0  0  0  0  0  0  0  0  # atno 10718 bound_to 10713
  153.1704  135.6811  153.8616 H   0  0  0  0  0  0  0  0  0  0  0  0  # atno 10763 bound_to 10752
  153.7982  135.3159  155.3388 H   0  0  0  0  0  0  0  0  0  0  0  0  # atno 10764 bound_to 10752
  154.7994  135.4787  154.0330 H   0  0  0  0  0  0  0  0  0  0  0  0  # atno 10765 bound_to 10752
  139.8800  134.9331  156.5494 H   0  0  0  0  0  0  0  0  0  0  0  0  # atno 11005 bound_to 11000
  145.9575  139.2777  143.1175 LP  0  0  0  0  0  0  0  0  0  0  0  0  # atno 17320 bound_to 7965
  145.9256  140.9084  143.0382 LP  0  0  0  0  0  0  0  0  0  0  0  0  # atno 17321 bound_to 7965
  140.7755  143.5153  150.9603 LP  0  0  0  0  0  0  0  0  0  0  0  0  # atno 17342 bound_to 10162
  139.8840  143.7036  152.3153 LP  0  0  0  0  0  0  0  0  0  0  0  0  # atno 17343 bound_to 10162
  156.2810  130.7071  151.1895 LP  0  0  0  0  0  0  0  0  0  0  0  0  # atno 17370 bound_to 10713
  157.7371  131.0555  150.5376 LP  0  0  0  0  0  0  0  0  0  0  0  0  # atno 17371 bound_to 10713
  140.8251  133.8323  155.8932 LP  0  0  0  0  0  0  0  0  0  0  0  0  # atno 17394 bound_to 11000
  140.9381  134.1935  157.4817 LP  0  0  0  0  0  0  0  0  0  0  0  0  # atno 17395 bound_to 11000

$$$$
