AV-unprocessed.smi:1760|AV-procd|sdf|7091|dock1
  -GOLD-   22720 8313D 1   1.00000     0.00000
 Structure written by MMmdl.
 43 45  0  0  0  0  0  0  0  0  1 V2000
  146.8872  137.2174  152.9463 O   0  0  0  0  0  0  0  0  0  0  0  0
  146.1541  138.1785  152.7151 C   0  0  0  0  0  0  0  0  0  0  0  0
  146.4127  139.4600  153.0350 N   0  0  0  0  0  0  0  0  0  0  0  0
  147.5424  140.0108  153.6637 C   0  0  0  0  0  0  0  0  0  0  0  0
  148.6619  139.3173  153.9992 C   0  0  0  0  0  0  0  0  0  0  0  0
  149.7997  139.9533  154.6421 C   0  0  0  0  0  0  0  0  0  0  0  0
  151.0144  139.1519  155.0844 C   0  0  0  0  0  0  0  0  0  0  0  0
  150.9328  137.8845  154.6775 F   0  0  0  0  0  0  0  0  0  0  0  0
  152.1379  139.6769  154.5955 F   0  0  0  0  0  0  0  0  0  0  0  0
  151.0988  139.1561  156.4139 F   0  0  0  0  0  0  0  0  0  0  0  0
  149.6855  141.2691  154.8998 C   0  0  0  0  0  0  0  0  0  0  0  0
  148.5481  141.9939  154.5374 N   0  0  0  0  0  0  0  0  0  0  0  0
  147.4656  141.4567  153.9314 C   0  0  0  0  0  0  0  0  0  0  0  0
  146.5018  142.1646  153.6410 O   0  0  0  0  0  0  0  0  0  0  0  0
  144.9582  138.0700  152.1182 N   0  0  0  0  0  0  0  0  0  0  0  0
  144.3368  136.8279  151.6656 C   0  0  0  0  0  0  0  0  0  0  0  0
  144.0383  135.9158  152.8656 C   0  0  0  0  0  0  0  0  0  0  0  0
  143.5275  134.5415  152.3981 C   0  0  0  0  0  0  0  0  0  0  0  0
  144.5158  133.9055  151.5264 N   0  0  0  0  0  0  0  0  0  0  0  0
  144.0265  132.5929  151.1382 C   0  0  0  0  0  0  0  0  0  0  0  0
  145.0053  131.4417  151.1764 C   0  0  0  0  0  0  0  0  0  0  0  0
  144.5552  132.0046  149.8501 C   0  0  0  0  0  0  0  0  0  0  0  0
  144.7092  134.7121  150.3212 C   0  0  0  0  0  0  0  0  0  0  0  0
  145.2728  136.0951  150.6919 C   0  0  0  0  0  0  0  0  0  0  0  0
  148.5471  142.9819  154.7470 H   0  0  0  0  0  0  0  0  0  0  0  0
  145.6796  140.1259  152.8371 H   0  0  0  0  0  0  0  0  0  0  0  0
  148.7518  138.2662  153.7793 H   0  0  0  0  0  0  0  0  0  0  0  0
  150.4404  141.8594  155.3980 H   0  0  0  0  0  0  0  0  0  0  0  0
  144.4257  138.9157  151.9757 H   0  0  0  0  0  0  0  0  0  0  0  0
  143.3972  137.0309  151.1483 H   0  0  0  0  0  0  0  0  0  0  0  0
  144.9384  135.7807  153.4675 H   0  0  0  0  0  0  0  0  0  0  0  0
  143.2979  136.3833  153.5155 H   0  0  0  0  0  0  0  0  0  0  0  0
  143.3463  133.9071  153.2666 H   0  0  0  0  0  0  0  0  0  0  0  0
  142.5757  134.6483  151.8749 H   0  0  0  0  0  0  0  0  0  0  0  0
  142.9972  132.3314  151.3788 H   0  0  0  0  0  0  0  0  0  0  0  0
  146.0268  131.6505  151.4892 H   0  0  0  0  0  0  0  0  0  0  0  0
  144.6198  130.4664  151.4662 H   0  0  0  0  0  0  0  0  0  0  0  0
  143.8702  131.4045  149.2550 H   0  0  0  0  0  0  0  0  0  0  0  0
  145.2786  132.5867  149.2820 H   0  0  0  0  0  0  0  0  0  0  0  0
  145.4043  134.2046  149.6510 H   0  0  0  0  0  0  0  0  0  0  0  0
  143.7658  134.8195  149.7831 H   0  0  0  0  0  0  0  0  0  0  0  0
  145.4131  136.6906  149.7893 H   0  0  0  0  0  0  0  0  0  0  0  0
  146.2604  135.9741  151.1401 H   0  0  0  0  0  0  0  0  0  0  0  0
  1  2  2  0  0  0  0
  2  3  1  0  0  0  0
  2 15  1  0  0  0  0
  3  4  1  0  0  0  0
  3 26  1  0  0  0  0
  4 13  1  0  0  0  0
  4  5  2  0  0  0  0
  5  6  1  0  0  0  0
  5 27  1  0  0  0  0
  6  7  1  0  0  0  0
  6 11  2  0  0  0  0
  7  8  1  0  0  0  0
  7  9  1  0  0  0  0
  7 10  1  0  0  0  0
 11 12  1  0  0  0  0
 11 28  1  0  0  0  0
 12 25  1  0  0  0  0
 12 13  1  0  0  0  0
 13 14  2  0  0  0  0
 15 16  1  0  0  0  0
 15 29  1  0  0  0  0
 16 24  1  0  0  0  0
 16 17  1  0  0  0  0
 16 30  1  0  0  0  0
 17 18  1  0  0  0  0
 17 31  1  0  0  0  0
 17 32  1  0  0  0  0
 18 19  1  0  0  0  0
 18 33  1  0  0  0  0
 18 34  1  0  0  0  0
 19 20  1  0  0  0  0
 19 23  1  0  0  0  0
 20 22  1  0  0  0  0
 20 21  1  0  0  0  0
 20 35  1  0  0  0  0
 21 22  1  0  0  0  0
 21 36  1  0  0  0  0
 21 37  1  0  0  0  0
 22 38  1  0  0  0  0
 22 39  1  0  0  0  0
 23 24  1  0  0  0  0
 23 40  1  0  0  0  0
 23 41  1  0  0  0  0
 24 42  1  0  0  0  0
 24 43  1  0  0  0  0
M  END
> <s_m_source_file>
AV-unprocessed.smi

> <i_m_source_file_index>
1760

> <i_lp_mmshare_version>
43012

> <i_f3d_flags>
0

> <s_epik_input>
W0NIMl0xW0NIMl1bQ0hdMU4oW0NIMl1bQ0gyXTIpW0NIMl1bQ0gyXVtDSF0yW05IXUMoPU8pW05IXWMzW2NIXWMoQyhGKShGKUYpW2NIXVtuSF1jMz1P

> <s_epik_cmdline>
J2VwaWtfcHl0aG9uJywgJy1waCcsICc3LjAnLCAnLXRuJywgJzgnLCAnLW1hJywgJzIwMCcsICctbWV0YWxfYmluZGluZycsICctaW1hZScsICc8aW5maWxlLm1hZT4nLCAnLW9tYWUnLCAnPG91dGZpbGUubWFlPic=

> <r_lp_tautomer_probability>
0.999

> <r_epik_Ionization_Penalty>
0.980325

> <r_epik_Ionization_Penalty_Charging>
0.0037226

> <r_epik_Ionization_Penalty_Neutral>
0.976602

> <r_epik_State_Penalty>
1.02305

> <r_epik_Charging_Adjusted_Penalty>
1.02677

> <i_epik_Tot_Q>
0

> <i_epik_Tot_abs_Q>
0

> <r_epik_Metal_State_Penalty>
1.39928

> <b_epik_Metal_Only>
0

> <s_lp_Force_Field>
OPLS_2005

> <r_lp_Energy>
33.0511

> <b_lp_Chiralities_Consistent>
1

> <s_lp_Variant>
AV-unprocessed.smi:1760-3

> <Gold.Version>
5.8.1

> <Gold.Id.Protein>
6NUR|6NUR_protein|mol2

> <Gold.PLP.Fitness>
47.9332

> <Gold.PLP.PLP>
-39.6499

> <Gold.PLP.part.hbond>
-4.0000

> <Gold.PLP.part.metal>
0.0000

> <Gold.PLP.part.buried>
0.2095

> <Gold.PLP.part.nonpolar>
-38.8181

> <Gold.PLP.part.repulsive>
3.7103

> <Gold.PLP.ligand.clash>
0.0000

> <Gold.PLP.ligand.torsion>
0.9951

> <Gold.PLP.Chemscore.Hbond>
3.0000

> <Gold.PLP.Chemscore.CHOScore>
0.0000

> <Gold.PLP.Chemscore.Metal>
0.0000

> <Gold.Chemscore.Hbonds>
donor molecule, donor type, donor heavy atom, donor atom, acceptor molecule, acceptor atom, score
      L1  H     3    26       P1 10175  0.92
      L1  H    12    25       P1  8028  1.00
      L1  H    15    29       P1 10175  1.00

> <Gold.PLP.Chemscore.Internal.Correction>
1.2734

> <Gold.Rescore>
     Score         DG    S(hbond)    S(metal)    S(lipo)     H(rot)  DE(clash)    DE(int)     intcor
     15.24     -21.55       2.82        0.00      84.69       1.27       3.16       3.15       ----

> <Gold.Chemscore.Fitness>
15.2417

> <Gold.Chemscore.DG>
-21.5510

> <Gold.Chemscore.ZeroCoef>
-5.4800

> <Gold.Chemscore.Hbond>
2.8211

> <Gold.Chemscore.Metal>
0.0000

> <Gold.Chemscore.Lipo>
84.6862

> <Gold.Chemscore.Internal_Hbond>
0.0000

> <Gold.Chemscore.DEClash>
3.1602

> <Gold.Chemscore.DEInternal>
3.1491

> <Gold.Chemscore.Rot>
1.2734

> <Gold.Chemscore.Internal.Correction>
   9.000000E+99

> <Gold.Chemscore.Hbonds>
donor molecule, donor type, donor heavy atom, donor atom, acceptor molecule, acceptor atom, score
      L1  H     3    26       P1 10175  0.80
      L1  H    12    25       P1  8028  0.98
      L1  H    15    29       P1 10175  0.99

> <Gold.Chemscore.Hbond.Weighted>
-9.4226

> <Gold.Chemscore.Metal.Weighted>
-0.0000

> <Gold.Chemscore.Lipo.Weighted>
-9.9083

> <Gold.Chemscore.Internal_Hbond.Weighted>
0.0000

> <Gold.Chemscore.DEClash.Weighted>
3.1602

> <Gold.Chemscore.DEInternal.Weighted>
3.1491

> <Gold.Chemscore.Rot.Weighted>
3.2598

> <Gold.Chemscore.Internal.Correction.Weighted>
   9.000000E+99

> <Gold.Protein.RotatedTorsions>
[ 6907 6896 6895 6894 ] final  155.76 input  -60.11 | X-H torsion
[ 7974 7965 7964 7962 ] final  130.86 input  175.53 | X-H torsion
[ 8008 7997 7996 7995 ] final  -17.90 input   59.86 | X-H torsion
[ 10167 10162 10161 10158 ] final  -97.35 input  -65.29 | X-H torsion
[ 10718 10713 10712 10709 ] final  110.37 input   66.30 | X-H torsion
[ 10763 10752 10751 10750 ] final  149.49 input  -60.55 | X-H torsion
[ 11005 11000 10999 10996 ] final  -78.58 input  -57.11 | X-H torsion

> <Gold.Protein.ActiveResidues>
 VAL166  LYS551  ARG553  GLY616  TRP617  ASP618  TYR619  PRO620  LYS621  CYS622 
 ASP623  PHE694  ASN695  SER759  ASP760  ASP761  ALA762  ILE779  LEU786  VAL792 
 PHE793  MET794  SER795  GLU796  ALA797  LYS798  CYS799  TRP800  GLU811  SER814 

> <Gold.Protein.RotatedAtoms>
  152.0395  133.3971  159.4330 H   0  0  0  0  0  0  0  0  0  0  0  0  # atno 6907 bound_to 6896
  150.6876  134.3430  159.4885 H   0  0  0  0  0  0  0  0  0  0  0  0  # atno 6908 bound_to 6896
  152.1227  134.9193  160.0613 H   0  0  0  0  0  0  0  0  0  0  0  0  # atno 6909 bound_to 6896
  145.0134  139.4199  143.5233 H   0  0  0  0  0  0  0  0  0  0  0  0  # atno 7974 bound_to 7965
  154.4945  140.2130  155.9477 H   0  0  0  0  0  0  0  0  0  0  0  0  # atno 8008 bound_to 7997
  156.1351  140.3190  155.8376 H   0  0  0  0  0  0  0  0  0  0  0  0  # atno 8009 bound_to 7997
  155.4224  140.0498  157.3015 H   0  0  0  0  0  0  0  0  0  0  0  0  # atno 8010 bound_to 7997
  140.2844  143.3261  152.0409 H   0  0  0  0  0  0  0  0  0  0  0  0  # atno 10167 bound_to 10162
  157.6497  131.0931  150.6592 H   0  0  0  0  0  0  0  0  0  0  0  0  # atno 10718 bound_to 10713
  154.0719  135.2866  155.3306 H   0  0  0  0  0  0  0  0  0  0  0  0  # atno 10763 bound_to 10752
  154.6741  135.5288  153.8179 H   0  0  0  0  0  0  0  0  0  0  0  0  # atno 10764 bound_to 10752
  153.0482  135.6565  154.0900 H   0  0  0  0  0  0  0  0  0  0  0  0  # atno 10765 bound_to 10752
  141.1665  133.7069  156.7994 H   0  0  0  0  0  0  0  0  0  0  0  0  # atno 11005 bound_to 11000
  146.3474  139.9591  142.8719 LP  0  0  0  0  0  0  0  0  0  0  0  0  # atno 17320 bound_to 7965
  145.1992  140.9847  143.4165 LP  0  0  0  0  0  0  0  0  0  0  0  0  # atno 17321 bound_to 7965
  139.4954  144.6569  151.6552 LP  0  0  0  0  0  0  0  0  0  0  0  0  # atno 17342 bound_to 10162
  140.5785  143.9987  150.6255 LP  0  0  0  0  0  0  0  0  0  0  0  0  # atno 17343 bound_to 10162
  156.6904  130.4593  149.5601 LP  0  0  0  0  0  0  0  0  0  0  0  0  # atno 17370 bound_to 10713
  156.1865  130.6533  151.1013 LP  0  0  0  0  0  0  0  0  0  0  0  0  # atno 17371 bound_to 10713
  140.2268  134.8716  157.3434 LP  0  0  0  0  0  0  0  0  0  0  0  0  # atno 17394 bound_to 11000
  140.1932  134.4346  155.7704 LP  0  0  0  0  0  0  0  0  0  0  0  0  # atno 17395 bound_to 11000

$$$$
