AV-unprocessed.smi:1232|AV-procd|sdf|5168|dock6
  -GOLD-   22720 4243D 1   1.00000     0.00000
 Structure written by MMmdl.
 53 54  0  0  0  0  0  0  0  0  1 V2000
  146.3402  134.7675  153.4221 C   0  0  0  0  0  0  0  0  0  0  0  0
  147.3894  134.6951  154.5268 C   0  0  0  0  0  0  0  0  0  0  0  0
  147.1090  134.1517  155.5938 O   0  0  0  0  0  0  0  0  0  0  0  0
  148.5826  135.2531  154.2524 N   0  0  0  0  0  0  0  0  0  0  0  0
  149.7882  135.3103  155.0918 C   0  0  1  0  0  0  0  0  0  0  0  0
  150.5737  136.6121  154.8481 C   0  0  0  0  0  0  0  0  0  0  0  0
  151.7759  136.6723  155.1074 O   0  0  0  0  0  0  0  0  0  0  0  0
  149.8845  137.6400  154.3264 N   0  0  0  0  0  0  0  0  0  0  0  0
  150.4301  138.9541  154.0026 C   0  0  0  0  0  0  0  0  0  0  0  0
  150.9130  139.7167  155.2248 C   0  0  0  0  0  0  0  0  0  0  0  0
  150.2421  140.8751  155.6634 C   0  0  0  0  0  0  0  0  0  0  0  0
  150.7253  141.5572  156.7962 C   0  0  0  0  0  0  0  0  0  0  0  0
  151.8741  141.0660  157.4616 C   0  0  0  0  0  0  0  0  0  0  0  0
  152.3822  141.7395  158.5942 N   0  0  0  0  0  0  0  0  0  0  0  0
  151.6946  142.9507  159.0381 C   0  0  0  0  0  0  0  0  0  0  0  0
  152.5381  143.6912  160.0891 C   0  0  0  0  0  0  0  0  0  0  0  0
  152.8519  142.8083  161.1612 O   0  0  0  0  0  0  0  0  0  0  0  0
  153.6207  141.6897  160.7278 C   0  0  1  0  0  0  0  0  0  0  0  0
  153.9845  140.8504  161.9573 C   0  0  0  0  0  0  0  0  0  0  0  0
  152.8075  140.8820  159.6978 C   0  0  0  0  0  0  0  0  0  0  0  0
  152.5132  139.9470  157.0385 N   0  0  0  0  0  0  0  0  0  0  0  0
  152.0468  139.2975  155.9513 C   0  0  0  0  0  0  0  0  0  0  0  0
  149.5488  134.9393  156.5895 C   0  0  0  0  0  0  0  0  0  0  0  0
  150.0895  136.0043  157.5643 C   0  0  0  0  0  0  0  0  0  0  0  0
  150.1530  133.5684  156.9519 C   0  0  0  0  0  0  0  0  0  0  0  0
  146.6356  135.4599  152.6327 H   0  0  0  0  0  0  0  0  0  0  0  0
  145.3860  135.1035  153.8287 H   0  0  0  0  0  0  0  0  0  0  0  0
  146.1957  133.7822  152.9788 H   0  0  0  0  0  0  0  0  0  0  0  0
  148.6745  135.6801  153.3422 H   0  0  0  0  0  0  0  0  0  0  0  0
  150.4119  134.5116  154.6866 H   0  0  0  0  0  0  0  0  0  0  0  0
  148.9030  137.4992  154.1358 H   0  0  0  0  0  0  0  0  0  0  0  0
  151.2500  138.8737  153.2872 H   0  0  0  0  0  0  0  0  0  0  0  0
  149.6481  139.5247  153.5008 H   0  0  0  0  0  0  0  0  0  0  0  0
  149.3667  141.2376  155.1448 H   0  0  0  0  0  0  0  0  0  0  0  0
  150.2047  142.4364  157.1458 H   0  0  0  0  0  0  0  0  0  0  0  0
  151.5103  143.6134  158.1916 H   0  0  0  0  0  0  0  0  0  0  0  0
  150.7253  142.6826  159.4607 H   0  0  0  0  0  0  0  0  0  0  0  0
  153.4547  144.0850  159.6467 H   0  0  0  0  0  0  0  0  0  0  0  0
  151.9836  144.5434  160.4821 H   0  0  0  0  0  0  0  0  0  0  0  0
  154.5435  142.0471  160.2673 H   0  0  0  0  0  0  0  0  0  0  0  0
  154.5863  139.9853  161.6776 H   0  0  0  0  0  0  0  0  0  0  0  0
  153.0910  140.4866  162.4655 H   0  0  0  0  0  0  0  0  0  0  0  0
  154.5596  141.4375  162.6735 H   0  0  0  0  0  0  0  0  0  0  0  0
  151.9208  140.4566  160.1696 H   0  0  0  0  0  0  0  0  0  0  0  0
  153.4107  140.0455  159.3479 H   0  0  0  0  0  0  0  0  0  0  0  0
  152.6003  138.4195  155.6541 H   0  0  0  0  0  0  0  0  0  0  0  0
  148.4763  134.8827  156.7726 H   0  0  0  0  0  0  0  0  0  0  0  0
  151.1566  136.1724  157.4165 H   0  0  0  0  0  0  0  0  0  0  0  0
  149.9435  135.6968  158.6002 H   0  0  0  0  0  0  0  0  0  0  0  0
  149.5791  136.9605  157.4462 H   0  0  0  0  0  0  0  0  0  0  0  0
  151.2303  133.5551  156.7851 H   0  0  0  0  0  0  0  0  0  0  0  0
  149.7161  132.7610  156.3651 H   0  0  0  0  0  0  0  0  0  0  0  0
  149.9776  133.3273  158.0007 H   0  0  0  0  0  0  0  0  0  0  0  0
  1  2  1  0  0  0  0
  1 26  1  0  0  0  0
  1 27  1  0  0  0  0
  1 28  1  0  0  0  0
  2  3  2  0  0  0  0
  2  4  1  0  0  0  0
  4  5  1  0  0  0  0
  4 29  1  0  0  0  0
  5  6  1  0  0  0  0
  5 23  1  0  0  0  0
  5 30  1  0  0  0  0
  6  7  2  0  0  0  0
  6  8  1  0  0  0  0
  8  9  1  0  0  0  0
  8 31  1  0  0  0  0
  9 10  1  0  0  0  0
  9 32  1  0  0  0  0
  9 33  1  0  0  0  0
 10 22  1  0  0  0  0
 10 11  2  0  0  0  0
 11 12  1  0  0  0  0
 11 34  1  0  0  0  0
 12 13  2  0  0  0  0
 12 35  1  0  0  0  0
 13 14  1  0  0  0  0
 13 21  1  0  0  0  0
 14 20  1  0  0  0  0
 14 15  1  0  0  0  0
 15 16  1  0  0  0  0
 15 36  1  0  0  0  0
 15 37  1  0  0  0  0
 16 17  1  0  0  0  0
 16 38  1  0  0  0  0
 16 39  1  0  0  0  0
 17 18  1  0  0  0  0
 18 19  1  0  0  0  0
 18 20  1  0  0  0  0
 18 40  1  0  0  0  0
 19 41  1  0  0  0  0
 19 42  1  0  0  0  0
 19 43  1  0  0  0  0
 20 44  1  0  0  0  0
 20 45  1  0  0  0  0
 21 22  2  0  0  0  0
 22 46  1  0  0  0  0
 23 24  1  0  0  0  0
 23 25  1  0  0  0  0
 23 47  1  0  0  0  0
 24 48  1  0  0  0  0
 24 49  1  0  0  0  0
 24 50  1  0  0  0  0
 25 51  1  0  0  0  0
 25 52  1  0  0  0  0
 25 53  1  0  0  0  0
M  END
> <s_m_source_file>
AV-unprocessed.smi

> <i_m_source_file_index>
1232

> <i_lp_mmshare_version>
43012

> <i_f3d_flags>
0

> <s_epik_input>
W0NIM11DKD1PKVtOSF1bQ0BASF0oW0NIXShbQ0gzXSlbQ0gzXSlDKD1PKVtOSF1bQ0gyXWMxW2NIXVtjSF1jKG5bY0hdMSlOMltDSDJdW0NIMl1PW0NAQEhdKFtDSDNdKVtDSDJdMg==

> <s_epik_cmdline>
J2VwaWtfcHl0aG9uJywgJy1waCcsICc3LjAnLCAnLXRuJywgJzgnLCAnLW1hJywgJzIwMCcsICctbWV0YWxfYmluZGluZycsICctaW1hZScsICc8aW5maWxlLm1hZT4nLCAnLW9tYWUnLCAnPG91dGZpbGUubWFlPic=

> <r_lp_tautomer_probability>
1

> <r_epik_Ionization_Penalty>
0.00557618

> <r_epik_Ionization_Penalty_Charging>
0

> <r_epik_Ionization_Penalty_Neutral>
0.00557618

> <r_epik_State_Penalty>
0.00408363

> <r_epik_Charging_Adjusted_Penalty>
0.00408363

> <i_epik_Tot_Q>
0

> <i_epik_Tot_abs_Q>
0

> <r_epik_Metal_State_Penalty>
-0

> <b_epik_Metal_Only>
0

> <s_lp_Force_Field>
OPLS_2005

> <r_lp_Energy>
20.4044

> <b_lp_Chiralities_Consistent>
1

> <s_lp_Variant>
AV-unprocessed.smi:1232-2

> <Gold.Version>
5.8.1

> <Gold.Id.Protein>
6NUR|6NUR_protein|mol2

> <Gold.PLP.Fitness>
46.2729

> <Gold.PLP.PLP>
-41.5125

> <Gold.PLP.part.hbond>
-4.0000

> <Gold.PLP.part.metal>
0.0000

> <Gold.PLP.part.buried>
-3.2714

> <Gold.PLP.part.nonpolar>
-34.8254

> <Gold.PLP.part.repulsive>
0.1972

> <Gold.PLP.ligand.clash>
0.0000

> <Gold.PLP.ligand.torsion>
2.4482

> <Gold.PLP.Chemscore.Hbond>
3.0000

> <Gold.PLP.Chemscore.CHOScore>
0.0000

> <Gold.PLP.Chemscore.Metal>
0.0000

> <Gold.Chemscore.Hbonds>
donor molecule, donor type, donor heavy atom, donor atom, acceptor molecule, acceptor atom, score
      L1  H     4    29       P1  7948  1.00
      P1  H  7997  8010       L1    21  0.90
      P1  H 10752 10764       L1     7  1.00

> <Gold.PLP.Chemscore.Internal.Correction>
0.6568

> <Gold.Rescore>
     Score         DG    S(hbond)    S(metal)    S(lipo)     H(rot)  DE(clash)    DE(int)     intcor
     16.07     -21.52       2.77        0.00     104.77       2.13       0.14       5.31       ----

> <Gold.Chemscore.Fitness>
16.0707

> <Gold.Chemscore.DG>
-21.5182

> <Gold.Chemscore.ZeroCoef>
-5.4800

> <Gold.Chemscore.Hbond>
2.7657

> <Gold.Chemscore.Metal>
0.0000

> <Gold.Chemscore.Lipo>
104.7675

> <Gold.Chemscore.Internal_Hbond>
0.0000

> <Gold.Chemscore.DEClash>
0.1383

> <Gold.Chemscore.DEInternal>
5.3092

> <Gold.Chemscore.Rot>
2.1317

> <Gold.Chemscore.Internal.Correction>
   9.000000E+99

> <Gold.Chemscore.Hbonds>
donor molecule, donor type, donor heavy atom, donor atom, acceptor molecule, acceptor atom, score
      L1  H     4    29       P1  7948  0.96
      P1  H  7997  8010       L1    21  0.17
      P1  H 10752 10764       L1     7  0.98

> <Gold.Chemscore.Hbond.Weighted>
-9.2376

> <Gold.Chemscore.Metal.Weighted>
-0.0000

> <Gold.Chemscore.Lipo.Weighted>
-12.2578

> <Gold.Chemscore.Internal_Hbond.Weighted>
0.0000

> <Gold.Chemscore.DEClash.Weighted>
0.1383

> <Gold.Chemscore.DEInternal.Weighted>
5.3092

> <Gold.Chemscore.Rot.Weighted>
5.4572

> <Gold.Chemscore.Internal.Correction.Weighted>
   9.000000E+99

> <Gold.Protein.RotatedTorsions>
[ 6907 6896 6895 6894 ] final   65.42 input  -60.11 | X-H torsion
[ 7974 7965 7964 7962 ] final -159.14 input  175.53 | X-H torsion
[ 8008 7997 7996 7995 ] final   69.62 input   59.86 | X-H torsion
[ 10167 10162 10161 10158 ] final   61.90 input  -65.29 | X-H torsion
[ 10718 10713 10712 10709 ] final  112.67 input   66.30 | X-H torsion
[ 10763 10752 10751 10750 ] final  -46.73 input  -60.55 | X-H torsion
[ 11005 11000 10999 10996 ] final -104.07 input  -57.11 | X-H torsion

> <Gold.Protein.ActiveResidues>
 VAL166  LYS551  ARG553  GLY616  TRP617  ASP618  TYR619  PRO620  LYS621  CYS622 
 ASP623  PHE694  ASN695  SER759  ASP760  ASP761  ALA762  ILE779  LEU786  VAL792 
 PHE793  MET794  SER795  GLU796  ALA797  LYS798  CYS799  TRP800  GLU811  SER814 

> <Gold.Protein.RotatedAtoms>
  152.4406  134.5598  159.9890 H   0  0  0  0  0  0  0  0  0  0  0  0  # atno 6907 bound_to 6896
  151.5696  133.3386  159.2995 H   0  0  0  0  0  0  0  0  0  0  0  0  # atno 6908 bound_to 6896
  150.8312  134.7599  159.6919 H   0  0  0  0  0  0  0  0  0  0  0  0  # atno 6909 bound_to 6896
  144.7477  140.3728  143.6072 H   0  0  0  0  0  0  0  0  0  0  0  0  # atno 7974 bound_to 7965
  155.7263  140.3492  155.5039 H   0  0  0  0  0  0  0  0  0  0  0  0  # atno 8008 bound_to 7997
  155.9223  140.1069  157.1218 H   0  0  0  0  0  0  0  0  0  0  0  0  # atno 8009 bound_to 7997
  154.4072  140.1247  156.4682 H   0  0  0  0  0  0  0  0  0  0  0  0  # atno 8010 bound_to 7997
  140.1497  144.4474  150.6766 H   0  0  0  0  0  0  0  0  0  0  0  0  # atno 10167 bound_to 10162
  157.6380  131.0971  150.6929 H   0  0  0  0  0  0  0  0  0  0  0  0  # atno 10718 bound_to 10713
  154.0498  135.6632  153.4799 H   0  0  0  0  0  0  0  0  0  0  0  0  # atno 10763 bound_to 10752
  153.0468  135.5109  154.7762 H   0  0  0  0  0  0  0  0  0  0  0  0  # atno 10764 bound_to 10752
  154.6765  135.3038  154.9638 H   0  0  0  0  0  0  0  0  0  0  0  0  # atno 10765 bound_to 10752
  141.1117  133.8693  157.1565 H   0  0  0  0  0  0  0  0  0  0  0  0  # atno 11005 bound_to 11000
  145.7060  139.1673  143.2566 LP  0  0  0  0  0  0  0  0  0  0  0  0  # atno 17320 bound_to 7965
  146.1381  140.7094  142.9380 LP  0  0  0  0  0  0  0  0  0  0  0  0  # atno 17321 bound_to 7965
  140.6710  143.2286  151.5626 LP  0  0  0  0  0  0  0  0  0  0  0  0  # atno 17342 bound_to 10162
  139.5431  144.2592  152.1391 LP  0  0  0  0  0  0  0  0  0  0  0  0  # atno 17343 bound_to 10162
  156.7257  130.4694  149.5512 LP  0  0  0  0  0  0  0  0  0  0  0  0  # atno 17370 bound_to 10713
  156.1635  130.6390  151.0749 LP  0  0  0  0  0  0  0  0  0  0  0  0  # atno 17371 bound_to 10713
  140.0015  135.0026  157.0200 LP  0  0  0  0  0  0  0  0  0  0  0  0  # atno 17394 bound_to 11000
  140.4757  134.1341  155.7209 LP  0  0  0  0  0  0  0  0  0  0  0  0  # atno 17395 bound_to 11000

$$$$
