AV-unprocessed.smi:103|AV-procd|sdf|989|dock2
  -GOLD-   2262017563D 1   1.00000     0.00000
 Structure written by MMmdl.
 53 55  0  0  0  0  0  0  0  0  1 V2000
  147.9310  135.2469  161.0061 C   0  0  0  0  0  0  0  0  0  0  0  0
  148.0143  136.2297  159.8461 C   0  0  0  0  0  0  0  0  0  0  0  0
  147.9423  137.4453  160.0279 O   0  0  0  0  0  0  0  0  0  0  0  0
  148.1674  135.6118  158.6606 O   0  0  0  0  0  0  0  0  0  0  0  0
  147.6778  136.2113  157.4694 C   0  0  0  0  0  0  0  0  0  0  0  0
  147.6636  135.1940  156.3068 C   0  0  2  0  0  0  0  0  0  0  0  0
  146.7946  135.6478  155.2762 O   0  0  0  0  0  0  0  0  0  0  0  0
  145.4845  135.2879  155.5843 C   0  0  1  0  0  0  0  0  0  0  0  0
  144.7777  134.9532  154.3098 N   0  0  0  0  0  0  0  0  0  0  0  0
  143.5563  135.3874  153.8333 C   0  0  0  0  0  0  0  0  0  0  0  0
  142.4182  136.4913  154.6645 S   0  0  0  0  0  0  0  0  0  0  0  0
  140.8406  136.1538  153.7811 C   0  0  0  0  0  0  0  0  0  0  0  0
  142.3079  136.0310  156.0570 O   0  0  0  0  0  0  0  0  0  0  0  0
  142.8530  137.8646  154.3640 O   0  0  0  0  0  0  0  0  0  0  0  0
  143.1652  134.8945  152.6893 N   0  0  0  0  0  0  0  0  0  0  0  0
  144.2290  134.0861  152.3146 C   0  0  0  0  0  0  0  0  0  0  0  0
  144.4959  133.2677  151.1882 C   0  0  0  0  0  0  0  0  0  0  0  0
  143.6408  133.1300  150.1656 N   0  0  0  0  0  0  0  0  0  0  0  0
  145.6692  132.5946  151.1411 N   0  0  0  0  0  0  0  0  0  0  0  0
  146.5394  132.7166  152.1488 C   0  0  0  0  0  0  0  0  0  0  0  0
  146.4280  133.4402  153.2661 N   0  0  0  0  0  0  0  0  0  0  0  0
  145.2446  134.1199  153.3127 C   0  0  0  0  0  0  0  0  0  0  0  0
  145.5380  134.0757  156.5257 C   0  0  2  0  0  0  0  0  0  0  0  0
  144.9276  134.4347  157.7617 O   0  0  0  0  0  0  0  0  0  0  0  0
  143.6496  134.1045  158.0143 C   0  0  0  0  0  0  0  0  0  0  0  0
  143.1946  134.5707  159.3903 C   0  0  0  0  0  0  0  0  0  0  0  0
  142.8925  133.4958  157.2584 O   0  0  0  0  0  0  0  0  0  0  0  0
  147.0408  133.8378  156.6618 C   0  0  2  0  0  0  0  0  0  0  0  0
  147.4093  133.3343  157.9421 O   0  0  0  0  0  0  0  0  0  0  0  0
  148.6731  132.9466  158.1812 C   0  0  0  0  0  0  0  0  0  0  0  0
  148.7510  131.8386  159.2227 C   0  0  0  0  0  0  0  0  0  0  0  0
  149.6849  133.4053  157.6515 O   0  0  0  0  0  0  0  0  0  0  0  0
  147.0768  134.5823  160.8780 H   0  0  0  0  0  0  0  0  0  0  0  0
  147.8167  135.7784  161.9510 H   0  0  0  0  0  0  0  0  0  0  0  0
  148.8371  134.6427  161.0570 H   0  0  0  0  0  0  0  0  0  0  0  0
  146.6581  136.5346  157.6779 H   0  0  0  0  0  0  0  0  0  0  0  0
  148.2362  137.1130  157.2151 H   0  0  0  0  0  0  0  0  0  0  0  0
  148.6746  135.0620  155.9202 H   0  0  0  0  0  0  0  0  0  0  0  0
  144.9549  136.1344  156.0137 H   0  0  0  0  0  0  0  0  0  0  0  0
  140.0572  136.7957  154.1825 H   0  0  0  0  0  0  0  0  0  0  0  0
  140.5576  135.1115  153.9169 H   0  0  0  0  0  0  0  0  0  0  0  0
  140.9686  136.3587  152.7185 H   0  0  0  0  0  0  0  0  0  0  0  0
  142.7596  133.6233  150.1777 H   0  0  0  0  0  0  0  0  0  0  0  0
  143.8811  132.5396  149.3826 H   0  0  0  0  0  0  0  0  0  0  0  0
  147.4551  132.1530  152.0465 H   0  0  0  0  0  0  0  0  0  0  0  0
  145.0427  133.2206  156.0627 H   0  0  0  0  0  0  0  0  0  0  0  0
  143.2444  135.6576  159.4562 H   0  0  0  0  0  0  0  0  0  0  0  0
  143.8342  134.1458  160.1640 H   0  0  0  0  0  0  0  0  0  0  0  0
  142.1674  134.2593  159.5810 H   0  0  0  0  0  0  0  0  0  0  0  0
  147.3247  133.1189  155.8921 H   0  0  0  0  0  0  0  0  0  0  0  0
  148.1507  130.9837  158.9113 H   0  0  0  0  0  0  0  0  0  0  0  0
  148.3766  132.1947  160.1827 H   0  0  0  0  0  0  0  0  0  0  0  0
  149.7815  131.5078  159.3542 H   0  0  0  0  0  0  0  0  0  0  0  0
  1  2  1  0  0  0  0
  1 33  1  0  0  0  0
  1 34  1  0  0  0  0
  1 35  1  0  0  0  0
  2  3  2  0  0  0  0
  2  4  1  0  0  0  0
  4  5  1  0  0  0  0
  5  6  1  0  0  0  0
  5 36  1  0  0  0  0
  5 37  1  0  0  0  0
  6 28  1  0  0  0  0
  6  7  1  0  0  0  0
  6 38  1  0  0  0  0
  7  8  1  0  0  0  0
  8  9  1  0  0  0  0
  8 23  1  0  0  0  0
  8 39  1  0  0  0  0
  9 22  1  0  0  0  0
  9 10  1  0  0  0  0
 10 11  1  0  0  0  0
 10 15  2  0  0  0  0
 11 12  1  0  0  0  0
 11 13  2  0  0  0  0
 11 14  2  0  0  0  0
 12 40  1  0  0  0  0
 12 41  1  0  0  0  0
 12 42  1  0  0  0  0
 15 16  1  0  0  0  0
 16 22  2  0  0  0  0
 16 17  1  0  0  0  0
 17 18  1  0  0  0  0
 17 19  2  0  0  0  0
 18 43  1  0  0  0  0
 18 44  1  0  0  0  0
 19 20  1  0  0  0  0
 20 21  2  0  0  0  0
 20 45  1  0  0  0  0
 21 22  1  0  0  0  0
 23 24  1  0  0  0  0
 23 28  1  0  0  0  0
 23 46  1  0  0  0  0
 24 25  1  0  0  0  0
 25 26  1  0  0  0  0
 25 27  2  0  0  0  0
 26 47  1  0  0  0  0
 26 48  1  0  0  0  0
 26 49  1  0  0  0  0
 28 29  1  0  0  0  0
 28 50  1  0  0  0  0
 29 30  1  0  0  0  0
 30 31  1  0  0  0  0
 30 32  2  0  0  0  0
 31 51  1  0  0  0  0
 31 52  1  0  0  0  0
 31 53  1  0  0  0  0
M  END
> <s_m_source_file>
AV-unprocessed.smi

> <i_m_source_file_index>
103

> <i_lp_mmshare_version>
43012

> <i_f3d_flags>
0

> <s_epik_input>
W0NIM11DKD1PKU9bQ0gyXVtDQEBIXTFPW0NASF0oW0NAQEhdKE9DKD1PKVtDSDNdKVtDQEhdMU9DKD1PKVtDSDNdKW4oYyhuMilTKD1PKSg9TylbQ0gzXSljKGMyMyluW2NIXW5jM1tOSDJd

> <s_epik_cmdline>
J2VwaWtfcHl0aG9uJywgJy1waCcsICc3LjAnLCAnLXRuJywgJzgnLCAnLW1hJywgJzIwMCcsICctbWV0YWxfYmluZGluZycsICctaW1hZScsICc8aW5maWxlLm1hZT4nLCAnLW9tYWUnLCAnPG91dGZpbGUubWFlPic=

> <r_lp_tautomer_probability>
1

> <r_epik_Ionization_Penalty>
1.51338e-05

> <r_epik_Ionization_Penalty_Charging>
0

> <r_epik_Ionization_Penalty_Neutral>
1.51338e-05

> <r_epik_State_Penalty>
-0

> <r_epik_Charging_Adjusted_Penalty>
0

> <i_epik_Tot_Q>
0

> <i_epik_Tot_abs_Q>
0

> <r_epik_Metal_State_Penalty>
-0

> <b_epik_Metal_Only>
0

> <s_epik_Chemistry_Notes>
This compound has an ester and may undergo hydrolysis at high or low pH. This compound contains an acetal/aminal-like group ( X-CH(R)-Y where X, Y are N, S, or O) that may be acid/base labile, releasing an aldehyde.

> <s_lp_Force_Field>
OPLS_2005

> <r_lp_Energy>
21.2574

> <b_lp_Chiralities_Consistent>
1

> <s_lp_Variant>
AV-unprocessed.smi:103-13

> <Gold.Version>
5.8.1

> <Gold.Id.Protein>
6NUR|6NUR_protein|mol2

> <Gold.PLP.Fitness>
35.3942

> <Gold.PLP.PLP>
-25.0776

> <Gold.PLP.part.hbond>
-6.0000

> <Gold.PLP.part.metal>
0.0000

> <Gold.PLP.part.buried>
-6.7529

> <Gold.PLP.part.nonpolar>
-14.2526

> <Gold.PLP.part.repulsive>
1.6501

> <Gold.PLP.ligand.clash>
0.0000

> <Gold.PLP.ligand.torsion>
2.8047

> <Gold.PLP.Chemscore.Hbond>
3.8332

> <Gold.PLP.Chemscore.CHOScore>
0.6746

> <Gold.PLP.Chemscore.Metal>
0.0000

> <Gold.Chemscore.Hbonds>
donor molecule, donor type, donor heavy atom, donor atom, acceptor molecule, acceptor atom, score
      L1  H    18    43       P1 10186  1.00
      P1  H  6896  6907       L1    32  1.00
      P1  H  6931  6943       L1     3  0.17
      P1  H  6934  6947       L1     3  0.69
      P1  H 11000 11005       L1    27  1.00
      L1  C    20    45       P1 10747  0.65

> <Gold.PLP.Chemscore.Internal.Correction>
2.4025

> <Gold.Rescore>
     Score         DG    S(hbond)    S(metal)    S(lipo)     H(rot)  DE(clash)    DE(int)     intcor
      5.86     -11.63       4.19        0.00      25.94       4.25       0.00       5.77       ----

> <Gold.Chemscore.Fitness>
5.8558

> <Gold.Chemscore.DG>
-11.6250

> <Gold.Chemscore.ZeroCoef>
-5.4800

> <Gold.Chemscore.Hbond>
4.1851

> <Gold.Chemscore.Metal>
0.0000

> <Gold.Chemscore.Lipo>
25.9449

> <Gold.Chemscore.Internal_Hbond>
0.0000

> <Gold.Chemscore.DEClash>
0.0000

> <Gold.Chemscore.DEInternal>
5.7692

> <Gold.Chemscore.Rot>
4.2456

> <Gold.Chemscore.Internal.Correction>
   9.000000E+99

> <Gold.Chemscore.Hbonds>
donor molecule, donor type, donor heavy atom, donor atom, acceptor molecule, acceptor atom, score
      L1  H    18    43       P1 10186  0.93
      P1  H  6896  6907       L1    32  0.37
      P1  H  6931  6943       L1     3  0.16
      P1  H  6934  6947       L1     3  0.67
      P1  H 11000 11005       L1    27  0.96

> <Gold.Chemscore.Hbond.Weighted>
-13.9781

> <Gold.Chemscore.Metal.Weighted>
-0.0000

> <Gold.Chemscore.Lipo.Weighted>
-3.0355

> <Gold.Chemscore.Internal_Hbond.Weighted>
0.0000

> <Gold.Chemscore.DEClash.Weighted>
0.0000

> <Gold.Chemscore.DEInternal.Weighted>
5.7692

> <Gold.Chemscore.Rot.Weighted>
10.8687

> <Gold.Chemscore.Internal.Correction.Weighted>
   9.000000E+99

> <Gold.Protein.RotatedTorsions>
[ 6907 6896 6895 6894 ] final -134.78 input  -60.11 | X-H torsion
[ 7974 7965 7964 7962 ] final  -63.66 input  175.53 | X-H torsion
[ 8008 7997 7996 7995 ] final  120.40 input   59.86 | X-H torsion
[ 10167 10162 10161 10158 ] final   48.24 input  -65.29 | X-H torsion
[ 10718 10713 10712 10709 ] final   82.23 input   66.30 | X-H torsion
[ 10763 10752 10751 10750 ] final  169.45 input  -60.55 | X-H torsion
[ 11005 11000 10999 10996 ] final -105.39 input  -57.11 | X-H torsion

> <Gold.Protein.ActiveResidues>
 VAL166  LYS551  ARG553  GLY616  TRP617  ASP618  TYR619  PRO620  LYS621  CYS622 
 ASP623  PHE694  ASN695  SER759  ASP760  ASP761  ALA762  ILE779  LEU786  VAL792 
 PHE793  MET794  SER795  GLU796  ALA797  LYS798  CYS799  TRP800  GLU811  SER814 

> <Gold.Protein.RotatedAtoms>
  150.9899  133.6160  159.2709 H   0  0  0  0  0  0  0  0  0  0  0  0  # atno 6907 bound_to 6896
  151.3384  135.0857  159.9372 H   0  0  0  0  0  0  0  0  0  0  0  0  # atno 6908 bound_to 6896
  152.5242  133.9515  159.7728 H   0  0  0  0  0  0  0  0  0  0  0  0  # atno 6909 bound_to 6896
  145.7764  140.8786  143.0353 H   0  0  0  0  0  0  0  0  0  0  0  0  # atno 7974 bound_to 7965
  156.2640  140.2831  156.1143 H   0  0  0  0  0  0  0  0  0  0  0  0  # atno 8008 bound_to 7997
  155.1224  140.0392  157.2771 H   0  0  0  0  0  0  0  0  0  0  0  0  # atno 8009 bound_to 7997
  154.6661  140.2577  155.7063 H   0  0  0  0  0  0  0  0  0  0  0  0  # atno 8010 bound_to 7997
  140.2953  144.2997  150.6231 H   0  0  0  0  0  0  0  0  0  0  0  0  # atno 10167 bound_to 10162
  157.6852  131.0039  150.2344 H   0  0  0  0  0  0  0  0  0  0  0  0  # atno 10718 bound_to 10713
  154.3833  135.2753  155.2198 H   0  0  0  0  0  0  0  0  0  0  0  0  # atno 10763 bound_to 10752
  154.4296  135.5980  153.6064 H   0  0  0  0  0  0  0  0  0  0  0  0  # atno 10764 bound_to 10752
  152.9834  135.5992  154.4078 H   0  0  0  0  0  0  0  0  0  0  0  0  # atno 10765 bound_to 10752
  141.1055  133.8804  157.1729 H   0  0  0  0  0  0  0  0  0  0  0  0  # atno 11005 bound_to 11000
  144.6804  139.9927  143.7484 LP  0  0  0  0  0  0  0  0  0  0  0  0  # atno 17320 bound_to 7965
  146.0119  139.3177  143.0865 LP  0  0  0  0  0  0  0  0  0  0  0  0  # atno 17321 bound_to 7965
  140.5697  143.2182  151.7621 LP  0  0  0  0  0  0  0  0  0  0  0  0  # atno 17342 bound_to 10162
  139.4928  144.4234  151.9953 LP  0  0  0  0  0  0  0  0  0  0  0  0  # atno 17343 bound_to 10162
  156.2971  130.3753  149.7786 LP  0  0  0  0  0  0  0  0  0  0  0  0  # atno 17370 bound_to 10713
  156.5428  130.8307  151.3274 LP  0  0  0  0  0  0  0  0  0  0  0  0  # atno 17371 bound_to 10713
  139.9924  135.0059  157.0005 LP  0  0  0  0  0  0  0  0  0  0  0  0  # atno 17394 bound_to 11000
  140.4912  134.1191  155.7233 LP  0  0  0  0  0  0  0  0  0  0  0  0  # atno 17395 bound_to 11000

$$$$
