AV-unprocessed.smi:3318|AV-procd|sdf|12763|dock5
  -GOLD-   2272019103D 1   1.00000     0.00000
 Structure written by MMmdl.
 45 46  0  0  0  0  0  0  0  0  3 V2000
  144.5607  134.7526  151.3057 C   0  0  0  0  0  0  0  0  0  0  0  0
  145.4003  136.0036  151.5864 C   0  0  0  0  0  0  0  0  0  0  0  0
  144.6748  136.9998  152.5079 C   0  0  0  0  0  0  0  0  0  0  0  0
  145.5527  138.1113  152.9568 N   0  3  2  0  0  0  0  0  0  0  0  0
  146.4330  138.6379  151.8798 C   0  0  0  0  0  0  0  0  0  0  0  0
  147.2337  139.8618  152.3608 C   0  0  0  0  0  0  0  0  0  0  0  0
  148.0606  139.5598  153.6273 C   0  0  2  0  0  0  0  0  0  0  0  0
  149.2180  138.6727  153.3589 N   0  3  0  0  0  0  0  0  0  0  0  0
  149.8438  138.0683  154.5541 C   0  0  0  0  0  0  0  0  0  0  0  0
  151.2806  138.5768  154.7369 C   0  0  0  0  0  0  0  0  0  0  0  0
  151.3440  139.8097  155.6182 C   0  0  0  0  0  0  0  0  0  0  0  0
  152.0331  139.7832  156.8493 C   0  0  0  0  0  0  0  0  0  0  0  0
  152.0640  140.9583  157.6254 C   0  0  0  0  0  0  0  0  0  0  0  0
  151.4102  142.1079  157.1416 C   0  0  0  0  0  0  0  0  0  0  0  0
  150.7513  142.0318  155.8983 C   0  0  0  0  0  0  0  0  0  0  0  0
  150.7161  140.9100  155.1463 N   0  0  0  0  0  0  0  0  0  0  0  0
  147.1402  138.9498  154.6992 C   0  0  0  0  0  0  0  0  0  0  0  0
  146.3351  137.7493  154.1672 C   0  0  0  0  0  0  0  0  0  0  0  0
  145.0979  134.0620  150.6548 H   0  0  0  0  0  0  0  0  0  0  0  0
  143.6217  135.0083  150.8140 H   0  0  0  0  0  0  0  0  0  0  0  0
  144.3232  134.2222  152.2283 H   0  0  0  0  0  0  0  0  0  0  0  0
  146.3467  135.6906  152.0263 H   0  0  0  0  0  0  0  0  0  0  0  0
  145.6437  136.4889  150.6405 H   0  0  0  0  0  0  0  0  0  0  0  0
  143.8331  137.4157  151.9520 H   0  0  0  0  0  0  0  0  0  0  0  0
  144.2494  136.4889  153.3732 H   0  0  0  0  0  0  0  0  0  0  0  0
  147.1099  137.8518  151.5420 H   0  0  0  0  0  0  0  0  0  0  0  0
  145.8392  138.9315  151.0152 H   0  0  0  0  0  0  0  0  0  0  0  0
  147.8650  140.2371  151.5560 H   0  0  0  0  0  0  0  0  0  0  0  0
  146.5339  140.6689  152.5829 H   0  0  0  0  0  0  0  0  0  0  0  0
  148.4562  140.4965  154.0235 H   0  0  0  0  0  0  0  0  0  0  0  0
  148.8899  137.9099  152.7832 H   0  0  0  0  0  0  0  0  0  0  0  0
  149.2586  138.3055  155.4424 H   0  0  0  0  0  0  0  0  0  0  0  0
  149.8453  136.9825  154.4477 H   0  0  0  0  0  0  0  0  0  0  0  0
  151.9019  137.7963  155.1791 H   0  0  0  0  0  0  0  0  0  0  0  0
  151.7218  138.8075  153.7662 H   0  0  0  0  0  0  0  0  0  0  0  0
  152.5264  138.8864  157.1948 H   0  0  0  0  0  0  0  0  0  0  0  0
  152.5799  140.9773  158.5743 H   0  0  0  0  0  0  0  0  0  0  0  0
  151.4132  143.0267  157.7094 H   0  0  0  0  0  0  0  0  0  0  0  0
  150.2400  142.8942  155.4968 H   0  0  0  0  0  0  0  0  0  0  0  0
  147.7207  138.6542  155.5742 H   0  0  0  0  0  0  0  0  0  0  0  0
  146.4432  139.7142  155.0460 H   0  0  0  0  0  0  0  0  0  0  0  0
  145.6600  137.4020  154.9504 H   0  0  0  0  0  0  0  0  0  0  0  0
  147.0015  136.9172  153.9352 H   0  0  0  0  0  0  0  0  0  0  0  0
  144.9374  138.8639  153.2326 H   0  0  0  0  0  0  0  0  0  0  0  0
  149.9183  139.1843  152.8415 H   0  0  0  0  0  0  0  0  0  0  0  0
  1  2  1  0  0  0  0
  1 19  1  0  0  0  0
  1 20  1  0  0  0  0
  1 21  1  0  0  0  0
  2  3  1  0  0  0  0
  2 22  1  0  0  0  0
  2 23  1  0  0  0  0
  3  4  1  0  0  0  0
  3 24  1  0  0  0  0
  3 25  1  0  0  0  0
  4 18  1  0  0  0  0
  4  5  1  0  0  0  0
  4 44  1  0  0  0  0
  5  6  1  0  0  0  0
  5 26  1  0  0  0  0
  5 27  1  0  0  0  0
  6  7  1  0  0  0  0
  6 28  1  0  0  0  0
  6 29  1  0  0  0  0
  7  8  1  0  0  0  0
  7 17  1  0  0  0  0
  7 30  1  0  0  0  0
  8  9  1  0  0  0  0
  8 31  1  0  0  0  0
  8 45  1  0  0  0  0
  9 10  1  0  0  0  0
  9 32  1  0  0  0  0
  9 33  1  0  0  0  0
 10 11  1  0  0  0  0
 10 34  1  0  0  0  0
 10 35  1  0  0  0  0
 11 16  1  0  0  0  0
 11 12  2  0  0  0  0
 12 13  1  0  0  0  0
 12 36  1  0  0  0  0
 13 14  2  0  0  0  0
 13 37  1  0  0  0  0
 14 15  1  0  0  0  0
 14 38  1  0  0  0  0
 15 16  2  0  0  0  0
 15 39  1  0  0  0  0
 17 18  1  0  0  0  0
 17 40  1  0  0  0  0
 17 41  1  0  0  0  0
 18 42  1  0  0  0  0
 18 43  1  0  0  0  0
M  CHG  1   4   1
M  CHG  1   8   1
M  END
> <s_m_source_file>
AV-unprocessed.smi

> <i_m_source_file_index>
3318

> <i_lp_mmshare_version>
43012

> <i_f3d_flags>
0

> <s_epik_input>
W0NIM11bQ0gyXVtDSDJdTjFbQ0gyXVtDSDJdW0NIXShbQ0gyXVtDSDJdMSlbTkhdW0NIMl1bQ0gyXWMyW2NIXVtjSF1bY0hdW2NIXW4y

> <s_epik_cmdline>
J2VwaWtfcHl0aG9uJywgJy1waCcsICc3LjAnLCAnLXRuJywgJzgnLCAnLW1hJywgJzIwMCcsICctbWV0YWxfYmluZGluZycsICctaW1hZScsICc8aW5maWxlLm1hZT4nLCAnLW9tYWUnLCAnPG91dGZpbGUubWFlPic=

> <r_epik_Ionization_Penalty>
0.0638186

> <r_epik_Ionization_Penalty_Charging>
0.0628538

> <r_epik_Ionization_Penalty_Neutral>
0.000964829

> <r_epik_State_Penalty>
0.0518488

> <r_epik_Charging_Adjusted_Penalty>
0.114703

> <i_epik_Tot_Q>
2

> <i_epik_Tot_abs_Q>
2

> <r_epik_Metal_State_Penalty>
0.0535981

> <b_epik_Metal_Only>
0

> <s_lp_Force_Field>
OPLS_2005

> <r_lp_Energy>
29.7366

> <b_lp_Chiralities_Consistent>
1

> <s_lp_Variant>
AV-unprocessed.smi:3318-2

> <Gold.Version>
5.8.1

> <Gold.Id.Protein>
6NUR|6NUR_protein|mol2

> <Gold.PLP.Fitness>
48.8883

> <Gold.PLP.PLP>
-32.0216

> <Gold.PLP.part.hbond>
-4.0000

> <Gold.PLP.part.metal>
0.0000

> <Gold.PLP.part.buried>
2.4998

> <Gold.PLP.part.nonpolar>
-30.5733

> <Gold.PLP.part.repulsive>
0.1446

> <Gold.PLP.ligand.clash>
0.0000

> <Gold.PLP.ligand.torsion>
0.9562

> <Gold.PLP.Chemscore.Hbond>
5.2320

> <Gold.PLP.Chemscore.CHOScore>
1.0000

> <Gold.PLP.Chemscore.Metal>
0.0000

> <Gold.Chemscore.Hbonds>
donor molecule, donor type, donor heavy atom, donor atom, acceptor molecule, acceptor atom, score
      L1  H     4    44       P1 10175  1.12
      L1  H     8    31       P1  7948  2.00
      L1  H     8    45       P1  7957  0.50
      P1  H  7989  7998       L1    16  0.54
      L1  C    15    39       P1  8028  1.00

> <Gold.PLP.Chemscore.Internal.Correction>
0.0832

> <Gold.Rescore>
     Score         DG    S(hbond)    S(metal)    S(lipo)     H(rot)  DE(clash)    DE(int)     intcor
     18.34     -21.28       2.75        0.00      90.57       1.55       1.95       0.98       ----

> <Gold.Chemscore.Fitness>
18.3450

> <Gold.Chemscore.DG>
-21.2833

> <Gold.Chemscore.ZeroCoef>
-5.4800

> <Gold.Chemscore.Hbond>
2.7494

> <Gold.Chemscore.Metal>
0.0000

> <Gold.Chemscore.Lipo>
90.5675

> <Gold.Chemscore.Internal_Hbond>
0.0000

> <Gold.Chemscore.DEClash>
1.9539

> <Gold.Chemscore.DEInternal>
0.9844

> <Gold.Chemscore.Rot>
1.5532

> <Gold.Chemscore.Internal.Correction>
   9.000000E+99

> <Gold.Chemscore.Hbonds>
donor molecule, donor type, donor heavy atom, donor atom, acceptor molecule, acceptor atom, score
      L1  H     4    44       P1 10175  0.56
      L1  H     8    31       P1  7948  0.99
      L1  H     8    45       P1  7957  0.46
      P1  H  7989  7998       L1    16  0.05

> <Gold.Chemscore.Hbond.Weighted>
-9.1831

> <Gold.Chemscore.Metal.Weighted>
-0.0000

> <Gold.Chemscore.Lipo.Weighted>
-10.5964

> <Gold.Chemscore.Internal_Hbond.Weighted>
0.0000

> <Gold.Chemscore.DEClash.Weighted>
1.9539

> <Gold.Chemscore.DEInternal.Weighted>
0.9844

> <Gold.Chemscore.Rot.Weighted>
3.9762

> <Gold.Chemscore.Internal.Correction.Weighted>
   9.000000E+99

> <Gold.Protein.RotatedTorsions>
[ 6907 6896 6895 6894 ] final   72.32 input  -60.11 | X-H torsion
[ 7974 7965 7964 7962 ] final  152.31 input  175.53 | X-H torsion
[ 8008 7997 7996 7995 ] final  141.68 input   59.86 | X-H torsion
[ 10167 10162 10161 10158 ] final -123.08 input  -65.29 | X-H torsion
[ 10718 10713 10712 10709 ] final -158.55 input   66.30 | X-H torsion
[ 10763 10752 10751 10750 ] final  155.11 input  -60.55 | X-H torsion
[ 11005 11000 10999 10996 ] final  179.93 input  -57.11 | X-H torsion

> <Gold.Protein.ActiveResidues>
 VAL166  LYS551  ARG553  GLY616  TRP617  ASP618  TYR619  PRO620  LYS621  CYS622 
 ASP623  PHE694  ASN695  SER759  ASP760  ASP761  ALA762  ILE779  LEU786  VAL792 
 PHE793  MET794  SER795  GLU796  ALA797  LYS798  CYS799  TRP800  GLU811  SER814 

> <Gold.Protein.RotatedAtoms>
  152.4861  134.4589  159.9598 H   0  0  0  0  0  0  0  0  0  0  0  0  # atno 6907 bound_to 6896
  151.4585  133.3593  159.2813 H   0  0  0  0  0  0  0  0  0  0  0  0  # atno 6908 bound_to 6896
  150.8973  134.8407  159.7396 H   0  0  0  0  0  0  0  0  0  0  0  0  # atno 6909 bound_to 6896
  144.8231  139.6651  143.6091 H   0  0  0  0  0  0  0  0  0  0  0  0  # atno 7974 bound_to 7965
  156.2962  140.2309  156.4604 H   0  0  0  0  0  0  0  0  0  0  0  0  # atno 8008 bound_to 7997
  154.8024  140.0447  157.1303 H   0  0  0  0  0  0  0  0  0  0  0  0  # atno 8009 bound_to 7997
  154.9518  140.3043  155.5075 H   0  0  0  0  0  0  0  0  0  0  0  0  # atno 8010 bound_to 7997
  140.0073  143.5478  152.2278 H   0  0  0  0  0  0  0  0  0  0  0  0  # atno 10167 bound_to 10162
  156.5558  130.8625  151.2794 H   0  0  0  0  0  0  0  0  0  0  0  0  # atno 10718 bound_to 10713
  154.1632  135.2808  155.3103 H   0  0  0  0  0  0  0  0  0  0  0  0  # atno 10763 bound_to 10752
  154.6131  135.5492  153.7498 H   0  0  0  0  0  0  0  0  0  0  0  0  # atno 10764 bound_to 10752
  153.0186  135.6420  154.1773 H   0  0  0  0  0  0  0  0  0  0  0  0  # atno 10765 bound_to 10752
  140.4116  134.6686  157.4617 H   0  0  0  0  0  0  0  0  0  0  0  0  # atno 11005 bound_to 11000
  146.2537  139.6255  142.9410 LP  0  0  0  0  0  0  0  0  0  0  0  0  # atno 17320 bound_to 7965
  145.5060  141.0436  143.2514 LP  0  0  0  0  0  0  0  0  0  0  0  0  # atno 17321 bound_to 7965
  139.6229  144.7632  151.2700 LP  0  0  0  0  0  0  0  0  0  0  0  0  # atno 17342 bound_to 10162
  140.7395  143.6615  150.8160 LP  0  0  0  0  0  0  0  0  0  0  0  0  # atno 17343 bound_to 10162
  157.7378  130.9803  150.2217 LP  0  0  0  0  0  0  0  0  0  0  0  0  # atno 17370 bound_to 10713
  156.2843  130.3737  149.7904 LP  0  0  0  0  0  0  0  0  0  0  0  0  # atno 17371 bound_to 10713
  140.0263  134.6472  155.9168 LP  0  0  0  0  0  0  0  0  0  0  0  0  # atno 17394 bound_to 11000
  141.1819  133.6548  156.5054 LP  0  0  0  0  0  0  0  0  0  0  0  0  # atno 17395 bound_to 11000

$$$$
