AV-unprocessed.smi:2835|AV-procd|sdf|10918|dock10
  -GOLD-   2272015363D 1   1.00000     0.00000
 Structure written by MMmdl.
 34 35  0  0  0  0  0  0  0  0  2 V2000
  150.8057  141.7199  157.9693 O   0  0  0  0  0  0  0  0  0  0  0  0
  151.8752  141.1130  157.9731 C   0  0  0  0  0  0  0  0  0  0  0  0
  152.9672  141.5754  158.9526 C   0  0  0  0  0  0  0  0  0  0  0  0
  152.5817  142.7069  159.7848 N   0  0  0  0  0  0  0  0  0  0  0  0
  152.1618  143.9596  159.3874 C   0  0  0  0  0  0  0  0  0  0  0  0
  151.9340  144.6898  160.5184 C   0  0  0  0  0  0  0  0  0  0  0  0
  152.2449  143.7860  161.5725 C   0  0  0  0  0  0  0  0  0  0  0  0
  152.6273  142.5989  161.1307 N   0  0  0  0  0  0  0  0  0  0  0  0
  152.1623  140.0658  157.1729 N   0  0  0  0  0  0  0  0  0  0  0  0
  151.3889  139.3550  156.1430 C   0  0  0  0  0  0  0  0  0  0  0  0
  152.4544  138.7825  155.1726 C   0  0  0  0  0  0  0  0  0  0  0  0
  152.4525  137.5496  154.9576 O   0  0  0  0  0  0  0  0  0  0  0  0
  153.2908  139.5787  154.6894 O   0  5  0  0  0  0  0  0  0  0  0  0
  150.4528  138.2277  156.6853 C   0  0  0  0  0  0  0  0  0  0  0  0
  149.5424  137.6193  155.6002 C   0  0  0  0  0  0  0  0  0  0  0  0
  148.6963  138.7020  154.9152 C   0  0  0  0  0  0  0  0  0  0  0  0
  149.5803  139.8226  154.3492 C   0  0  0  0  0  0  0  0  0  0  0  0
  150.4977  140.4166  155.4363 C   0  0  0  0  0  0  0  0  0  0  0  0
  153.2334  140.7431  159.6050 H   0  0  0  0  0  0  0  0  0  0  0  0
  153.8650  141.8368  158.3906 H   0  0  0  0  0  0  0  0  0  0  0  0
  152.0686  144.2252  158.3444 H   0  0  0  0  0  0  0  0  0  0  0  0
  151.6002  145.7147  160.5831 H   0  0  0  0  0  0  0  0  0  0  0  0
  152.2040  143.9562  162.6382 H   0  0  0  0  0  0  0  0  0  0  0  0
  153.0775  139.6663  157.3229 H   0  0  0  0  0  0  0  0  0  0  0  0
  151.0260  137.4327  157.1647 H   0  0  0  0  0  0  0  0  0  0  0  0
  149.8018  138.6372  157.4584 H   0  0  0  0  0  0  0  0  0  0  0  0
  150.1397  137.0923  154.8554 H   0  0  0  0  0  0  0  0  0  0  0  0
  148.8882  136.8710  156.0479 H   0  0  0  0  0  0  0  0  0  0  0  0
  148.0991  138.2593  154.1176 H   0  0  0  0  0  0  0  0  0  0  0  0
  147.9914  139.1220  155.6337 H   0  0  0  0  0  0  0  0  0  0  0  0
  150.1777  139.4372  153.5224 H   0  0  0  0  0  0  0  0  0  0  0  0
  148.9523  140.6086  153.9289 H   0  0  0  0  0  0  0  0  0  0  0  0
  149.8730  140.9077  156.1840 H   0  0  0  0  0  0  0  0  0  0  0  0
  151.1042  141.2138  155.0036 H   0  0  0  0  0  0  0  0  0  0  0  0
  1  2  2  0  0  0  0
  2  3  1  0  0  0  0
  2  9  1  0  0  0  0
  3  4  1  0  0  0  0
  3 19  1  0  0  0  0
  3 20  1  0  0  0  0
  4  8  1  0  0  0  0
  4  5  1  0  0  0  0
  5  6  2  0  0  0  0
  5 21  1  0  0  0  0
  6  7  1  0  0  0  0
  6 22  1  0  0  0  0
  7  8  2  0  0  0  0
  7 23  1  0  0  0  0
  9 10  1  0  0  0  0
  9 24  1  0  0  0  0
 10 18  1  0  0  0  0
 10 11  1  0  0  0  0
 10 14  1  0  0  0  0
 11 12  2  0  0  0  0
 11 13  1  0  0  0  0
 14 15  1  0  0  0  0
 14 25  1  0  0  0  0
 14 26  1  0  0  0  0
 15 16  1  0  0  0  0
 15 27  1  0  0  0  0
 15 28  1  0  0  0  0
 16 17  1  0  0  0  0
 16 29  1  0  0  0  0
 16 30  1  0  0  0  0
 17 18  1  0  0  0  0
 17 31  1  0  0  0  0
 17 32  1  0  0  0  0
 18 33  1  0  0  0  0
 18 34  1  0  0  0  0
M  CHG  1  13  -1
M  END
> <s_m_source_file>
AV-unprocessed.smi

> <i_m_source_file_index>
2835

> <i_lp_mmshare_version>
43012

> <i_f3d_flags>
0

> <s_epik_input>
bjFbY0hdW2NIXVtjSF1uMVtDSDJdQyg9TylbTkhdQzIoQyg9TylbT0hdKVtDSDJdW0NIMl1bQ0gyXVtDSDJdW0NIMl0y

> <s_epik_cmdline>
J2VwaWtfcHl0aG9uJywgJy1waCcsICc3LjAnLCAnLXRuJywgJzgnLCAnLW1hJywgJzIwMCcsICctbWV0YWxfYmluZGluZycsICctaW1hZScsICc8aW5maWxlLm1hZT4nLCAnLW9tYWUnLCAnPG91dGZpbGUubWFlPic=

> <r_lp_tautomer_probability>
1

> <r_epik_Ionization_Penalty>
0.000342313

> <r_epik_Ionization_Penalty_Charging>
0.000323848

> <r_epik_Ionization_Penalty_Neutral>
1.84652e-05

> <r_epik_State_Penalty>
0.000195685

> <r_epik_Charging_Adjusted_Penalty>
0.000519533

> <i_epik_Tot_Q>
-1

> <i_epik_Tot_abs_Q>
1

> <r_epik_Metal_State_Penalty>
-0

> <b_epik_Metal_Only>
0

> <s_lp_Force_Field>
OPLS_2005

> <r_lp_Energy>
5.56985

> <b_lp_Chiralities_Consistent>
1

> <s_lp_Variant>
AV-unprocessed.smi:2835-1

> <Gold.Version>
5.8.1

> <Gold.Id.Protein>
6NUR|6NUR_protein|mol2

> <Gold.PLP.Fitness>
45.8452

> <Gold.PLP.PLP>
-37.1923

> <Gold.PLP.part.hbond>
-3.0000

> <Gold.PLP.part.metal>
0.0000

> <Gold.PLP.part.buried>
-4.8994

> <Gold.PLP.part.nonpolar>
-29.2225

> <Gold.PLP.part.repulsive>
0.2804

> <Gold.PLP.ligand.clash>
0.0000

> <Gold.PLP.ligand.torsion>
0.5727

> <Gold.PLP.Chemscore.Hbond>
3.2497

> <Gold.PLP.Chemscore.CHOScore>
0.0000

> <Gold.PLP.Chemscore.Metal>
0.0000

> <Gold.Chemscore.Hbonds>
donor molecule, donor type, donor heavy atom, donor atom, acceptor molecule, acceptor atom, score
      P1  H  7989  7998       L1    13  0.03
      P1  H  7997  8010       L1    13  2.00
      P1  H 10752 10764       L1    12  1.22

> <Gold.PLP.Chemscore.Internal.Correction>
0.0492

> <Gold.Rescore>
     Score         DG    S(hbond)    S(metal)    S(lipo)     H(rot)  DE(clash)    DE(int)     intcor
     10.72     -14.90       1.74        0.00      75.24       2.03       0.11       4.06       ----

> <Gold.Chemscore.Fitness>
10.7235

> <Gold.Chemscore.DG>
-14.9000

> <Gold.Chemscore.ZeroCoef>
-5.4800

> <Gold.Chemscore.Hbond>
1.7435

> <Gold.Chemscore.Metal>
0.0000

> <Gold.Chemscore.Lipo>
75.2426

> <Gold.Chemscore.Internal_Hbond>
0.0000

> <Gold.Chemscore.DEClash>
0.1122

> <Gold.Chemscore.DEInternal>
4.0643

> <Gold.Chemscore.Rot>
2.0338

> <Gold.Chemscore.Internal.Correction>
   9.000000E+99

> <Gold.Chemscore.Hbonds>
donor molecule, donor type, donor heavy atom, donor atom, acceptor molecule, acceptor atom, score
      P1  H  7989  7998       L1    13  0.01
      P1  H  7997  8010       L1    13  0.85
      P1  H 10752 10764       L1    12  0.56

> <Gold.Chemscore.Hbond.Weighted>
-5.8232

> <Gold.Chemscore.Metal.Weighted>
-0.0000

> <Gold.Chemscore.Lipo.Weighted>
-8.8034

> <Gold.Chemscore.Internal_Hbond.Weighted>
0.0000

> <Gold.Chemscore.DEClash.Weighted>
0.1122

> <Gold.Chemscore.DEInternal.Weighted>
4.0643

> <Gold.Chemscore.Rot.Weighted>
5.2066

> <Gold.Chemscore.Internal.Correction.Weighted>
   9.000000E+99

> <Gold.Protein.RotatedTorsions>
[ 6907 6896 6895 6894 ] final  -36.68 input  -60.11 | X-H torsion
[ 7974 7965 7964 7962 ] final -144.19 input  175.53 | X-H torsion
[ 8008 7997 7996 7995 ] final  101.47 input   59.86 | X-H torsion
[ 10167 10162 10161 10158 ] final  -90.20 input  -65.29 | X-H torsion
[ 10718 10713 10712 10709 ] final  156.76 input   66.30 | X-H torsion
[ 10763 10752 10751 10750 ] final  -63.84 input  -60.55 | X-H torsion
[ 11005 11000 10999 10996 ] final  -59.47 input  -57.11 | X-H torsion

> <Gold.Protein.ActiveResidues>
 VAL166  LYS551  ARG553  GLY616  TRP617  ASP618  TYR619  PRO620  LYS621  CYS622 
 ASP623  PHE694  ASN695  SER759  ASP760  ASP761  ALA762  ILE779  LEU786  VAL792 
 PHE793  MET794  SER795  GLU796  ALA797  LYS798  CYS799  TRP800  GLU811  SER814 

> <Gold.Protein.RotatedAtoms>
  151.0241  134.9491  159.8075 H   0  0  0  0  0  0  0  0  0  0  0  0  # atno 6907 bound_to 6896
  152.5331  134.2865  159.9037 H   0  0  0  0  0  0  0  0  0  0  0  0  # atno 6908 bound_to 6896
  151.2873  133.4139  159.2665 H   0  0  0  0  0  0  0  0  0  0  0  0  # atno 6909 bound_to 6896
  144.8315  140.5741  143.5512 H   0  0  0  0  0  0  0  0  0  0  0  0  # atno 7974 bound_to 7965
  156.1302  140.3197  155.8337 H   0  0  0  0  0  0  0  0  0  0  0  0  # atno 8008 bound_to 7997
  155.4346  140.0521  157.3033 H   0  0  0  0  0  0  0  0  0  0  0  0  # atno 8009 bound_to 7997
  154.4893  140.2086  155.9597 H   0  0  0  0  0  0  0  0  0  0  0  0  # atno 8010 bound_to 7997
  140.3573  143.2860  151.9656 H   0  0  0  0  0  0  0  0  0  0  0  0  # atno 10167 bound_to 10162
  157.2007  131.0675  151.2027 H   0  0  0  0  0  0  0  0  0  0  0  0  # atno 10718 bound_to 10713
  154.3212  135.6196  153.5508 H   0  0  0  0  0  0  0  0  0  0  0  0  # atno 10763 bound_to 10752
  152.9820  135.5724  154.5068 H   0  0  0  0  0  0  0  0  0  0  0  0  # atno 10764 bound_to 10752
  154.4736  135.2860  155.1600 H   0  0  0  0  0  0  0  0  0  0  0  0  # atno 10765 bound_to 10752
  141.1249  133.6616  156.5076 H   0  0  0  0  0  0  0  0  0  0  0  0  # atno 11005 bound_to 11000
  145.4885  139.1490  143.3723 LP  0  0  0  0  0  0  0  0  0  0  0  0  # atno 17320 bound_to 7965
  146.2618  140.5022  142.8850 LP  0  0  0  0  0  0  0  0  0  0  0  0  # atno 17321 bound_to 7965
  139.4818  144.6024  151.7582 LP  0  0  0  0  0  0  0  0  0  0  0  0  # atno 17342 bound_to 10162
  140.5161  144.0950  150.6009 LP  0  0  0  0  0  0  0  0  0  0  0  0  # atno 17343 bound_to 10162
  157.3770  130.7211  149.6604 LP  0  0  0  0  0  0  0  0  0  0  0  0  # atno 17370 bound_to 10713
  155.9701  130.4183  150.4320 LP  0  0  0  0  0  0  0  0  0  0  0  0  # atno 17371 bound_to 10713
  140.4395  134.7028  157.4984 LP  0  0  0  0  0  0  0  0  0  0  0  0  # atno 17394 bound_to 11000
  140.0239  134.6506  155.9201 LP  0  0  0  0  0  0  0  0  0  0  0  0  # atno 17395 bound_to 11000

$$$$
