AV-unprocessed.smi:1565|AV-procd|sdf|6300|dock8
  -GOLD-   22720 6503D 1   1.00000     0.00000
 Structure written by MMmdl.
 39 40  0  0  0  0  0  0  0  0  2 V2000
  153.0969  142.8601  162.4896 C   0  0  0  0  0  0  0  0  0  0  0  0
  152.1967  143.2130  161.3009 C   0  0  2  0  0  0  0  0  0  0  0  0
  152.3890  142.2367  160.1269 C   0  0  0  0  0  0  0  0  0  0  0  0
  151.6133  142.6748  158.9714 N   0  0  0  0  0  0  0  0  0  0  0  0
  151.4394  141.7119  157.9543 C   0  0  0  0  0  0  0  0  0  0  0  0
  150.6740  142.0237  156.8066 C   0  0  0  0  0  0  0  0  0  0  0  0
  150.5090  141.0483  155.8046 C   0  0  0  0  0  0  0  0  0  0  0  0
  151.1209  139.7843  155.9643 C   0  0  0  0  0  0  0  0  0  0  0  0
  150.9629  138.6837  154.9500 C   0  0  0  0  0  0  0  0  0  0  0  0
  150.7636  139.0049  153.7732 O   0  0  0  0  0  0  0  0  0  0  0  0
  151.0159  137.4440  155.5145 N   0  5  0  0  0  0  0  0  0  0  0  0
  150.7644  136.1968  154.7885 C   0  0  0  0  0  0  0  0  0  0  0  0
  149.7251  135.3239  155.5208 C   0  0  0  0  0  0  0  0  0  0  0  0
  148.5587  135.9686  155.5480 F   0  0  0  0  0  0  0  0  0  0  0  0
  149.5500  134.1645  154.8849 F   0  0  0  0  0  0  0  0  0  0  0  0
  150.1001  135.0821  156.7778 F   0  0  0  0  0  0  0  0  0  0  0  0
  151.8591  139.5657  157.1474 C   0  0  0  0  0  0  0  0  0  0  0  0
  152.0216  140.4980  158.1108 N   0  0  0  0  0  0  0  0  0  0  0  0
  151.9036  144.0500  158.5725 C   0  0  0  0  0  0  0  0  0  0  0  0
  151.7609  145.0142  159.7664 C   0  0  1  0  0  0  0  0  0  0  0  0
  150.2984  145.3108  160.1439 C   0  0  0  0  0  0  0  0  0  0  0  0
  152.5200  144.5378  160.8800 O   0  0  0  0  0  0  0  0  0  0  0  0
  152.8835  141.8569  162.8594 H   0  0  0  0  0  0  0  0  0  0  0  0
  152.9443  143.5572  163.3139 H   0  0  0  0  0  0  0  0  0  0  0  0
  154.1506  142.8981  162.2119 H   0  0  0  0  0  0  0  0  0  0  0  0
  151.1613  143.1767  161.6402 H   0  0  0  0  0  0  0  0  0  0  0  0
  153.4413  142.1925  159.8430 H   0  0  0  0  0  0  0  0  0  0  0  0
  152.1069  141.2344  160.4464 H   0  0  0  0  0  0  0  0  0  0  0  0
  150.2231  142.9964  156.6778 H   0  0  0  0  0  0  0  0  0  0  0  0
  149.9174  141.2785  154.9303 H   0  0  0  0  0  0  0  0  0  0  0  0
  150.4255  136.3753  153.7665 H   0  0  0  0  0  0  0  0  0  0  0  0
  151.6868  135.6245  154.6833 H   0  0  0  0  0  0  0  0  0  0  0  0
  152.3421  138.6171  157.3319 H   0  0  0  0  0  0  0  0  0  0  0  0
  152.9230  144.0940  158.1863 H   0  0  0  0  0  0  0  0  0  0  0  0
  151.2399  144.3642  157.7658 H   0  0  0  0  0  0  0  0  0  0  0  0
  152.2092  145.9656  159.4785 H   0  0  0  0  0  0  0  0  0  0  0  0
  149.7791  145.7985  159.3187 H   0  0  0  0  0  0  0  0  0  0  0  0
  150.2464  145.9765  161.0056 H   0  0  0  0  0  0  0  0  0  0  0  0
  149.7409  144.4059  160.3847 H   0  0  0  0  0  0  0  0  0  0  0  0
  1  2  1  0  0  0  0
  1 23  1  0  0  0  0
  1 24  1  0  0  0  0
  1 25  1  0  0  0  0
  2 22  1  0  0  0  0
  2  3  1  0  0  0  0
  2 26  1  0  0  0  0
  3  4  1  0  0  0  0
  3 27  1  0  0  0  0
  3 28  1  0  0  0  0
  4  5  1  0  0  0  0
  4 19  1  0  0  0  0
  5 18  1  0  0  0  0
  5  6  2  0  0  0  0
  6  7  1  0  0  0  0
  6 29  1  0  0  0  0
  7  8  2  0  0  0  0
  7 30  1  0  0  0  0
  8  9  1  0  0  0  0
  8 17  1  0  0  0  0
  9 10  2  0  0  0  0
  9 11  1  0  0  0  0
 11 12  1  0  0  0  0
 12 13  1  0  0  0  0
 12 31  1  0  0  0  0
 12 32  1  0  0  0  0
 13 14  1  0  0  0  0
 13 15  1  0  0  0  0
 13 16  1  0  0  0  0
 17 18  2  0  0  0  0
 17 33  1  0  0  0  0
 19 20  1  0  0  0  0
 19 34  1  0  0  0  0
 19 35  1  0  0  0  0
 20 21  1  0  0  0  0
 20 22  1  0  0  0  0
 20 36  1  0  0  0  0
 21 37  1  0  0  0  0
 21 38  1  0  0  0  0
 21 39  1  0  0  0  0
M  CHG  1  11  -1
M  END
> <s_m_source_file>
AV-unprocessed.smi

> <i_m_source_file_index>
1565

> <i_lp_mmshare_version>
43012

> <i_f3d_flags>
0

> <s_epik_input>
W0NIM11bQ0BASF0xW0NIMl1OKFtDSDJdW0NASF0oTzEpW0NIM10pYzJbY0hdW2NIXWMoW2NIXW4yKUMoPU8pW05IXVtDSDJdQyhGKShGKUY=

> <s_epik_cmdline>
J2VwaWtfcHl0aG9uJywgJy1waCcsICc3LjAnLCAnLXRuJywgJzgnLCAnLW1hJywgJzIwMCcsICctbWV0YWxfYmluZGluZycsICctaW1hZScsICc8aW5maWxlLm1hZT4nLCAnLW9tYWUnLCAnPG91dGZpbGUubWFlPic=

> <r_lp_tautomer_probability>
1

> <r_epik_Ionization_Penalty>
6.78525

> <r_epik_Ionization_Penalty_Charging>
6.78469

> <r_epik_Ionization_Penalty_Neutral>
0.000559052

> <r_epik_State_Penalty>
6.78469

> <r_epik_Charging_Adjusted_Penalty>
13.5694

> <i_epik_Tot_Q>
-1

> <i_epik_Tot_abs_Q>
1

> <r_epik_Metal_State_Penalty>
2.70441

> <b_epik_Metal_Only>
1

> <s_lp_Force_Field>
OPLS_2005

> <r_lp_Energy>
29.3636

> <b_lp_Chiralities_Consistent>
1

> <s_lp_Variant>
AV-unprocessed.smi:1565-4

> <Gold.Version>
5.8.1

> <Gold.Id.Protein>
6NUR|6NUR_protein|mol2

> <Gold.PLP.Fitness>
43.1477

> <Gold.PLP.PLP>
-41.1039

> <Gold.PLP.part.hbond>
-1.0000

> <Gold.PLP.part.metal>
0.0000

> <Gold.PLP.part.buried>
0.3219

> <Gold.PLP.part.nonpolar>
-40.5455

> <Gold.PLP.part.repulsive>
1.0657

> <Gold.PLP.ligand.clash>
0.0000

> <Gold.PLP.ligand.torsion>
0.6108

> <Gold.PLP.Chemscore.Hbond>
0.9760

> <Gold.PLP.Chemscore.CHOScore>
0.0000

> <Gold.PLP.Chemscore.Metal>
0.0000

> <Gold.Chemscore.Hbonds>
donor molecule, donor type, donor heavy atom, donor atom, acceptor molecule, acceptor atom, score
      P1  H  7989  7998       L1    10  0.90

> <Gold.PLP.Chemscore.Internal.Correction>
0.3374

> <Gold.Rescore>
     Score         DG    S(hbond)    S(metal)    S(lipo)     H(rot)  DE(clash)    DE(int)     intcor
     14.78     -17.31       0.92        0.00     102.97       1.29       1.91       0.62       ----

> <Gold.Chemscore.Fitness>
14.7793

> <Gold.Chemscore.DG>
-17.3082

> <Gold.Chemscore.ZeroCoef>
-5.4800

> <Gold.Chemscore.Hbond>
0.9245

> <Gold.Chemscore.Metal>
0.0000

> <Gold.Chemscore.Lipo>
102.9748

> <Gold.Chemscore.Internal_Hbond>
0.0000

> <Gold.Chemscore.DEClash>
1.9071

> <Gold.Chemscore.DEInternal>
0.6218

> <Gold.Chemscore.Rot>
1.2921

> <Gold.Chemscore.Internal.Correction>
   9.000000E+99

> <Gold.Chemscore.Hbonds>
donor molecule, donor type, donor heavy atom, donor atom, acceptor molecule, acceptor atom, score
      P1  H  7989  7998       L1    10  0.54

> <Gold.Chemscore.Hbond.Weighted>
-3.0879

> <Gold.Chemscore.Metal.Weighted>
-0.0000

> <Gold.Chemscore.Lipo.Weighted>
-12.0480

> <Gold.Chemscore.Internal_Hbond.Weighted>
0.0000

> <Gold.Chemscore.DEClash.Weighted>
1.9071

> <Gold.Chemscore.DEInternal.Weighted>
0.6218

> <Gold.Chemscore.Rot.Weighted>
3.3078

> <Gold.Chemscore.Internal.Correction.Weighted>
   9.000000E+99

> <Gold.Protein.RotatedTorsions>
[ 6907 6896 6895 6894 ] final  -25.83 input  -60.11 | X-H torsion
[ 7974 7965 7964 7962 ] final   66.93 input  175.53 | X-H torsion
[ 8008 7997 7996 7995 ] final   68.47 input   59.86 | X-H torsion
[ 10167 10162 10161 10158 ] final  -48.33 input  -65.29 | X-H torsion
[ 10718 10713 10712 10709 ] final   -7.35 input   66.30 | X-H torsion
[ 10763 10752 10751 10750 ] final  -88.95 input  -60.55 | X-H torsion
[ 11005 11000 10999 10996 ] final  177.62 input  -57.11 | X-H torsion

> <Gold.Protein.ActiveResidues>
 VAL166  LYS551  ARG553  GLY616  TRP617  ASP618  TYR619  PRO620  LYS621  CYS622 
 ASP623  PHE694  ASN695  SER759  ASP760  ASP761  ALA762  ILE779  LEU786  VAL792 
 PHE793  MET794  SER795  GLU796  ALA797  LYS798  CYS799  TRP800  GLU811  SER814 

> <Gold.Protein.RotatedAtoms>
  151.1696  135.0312  159.8745 H   0  0  0  0  0  0  0  0  0  0  0  0  # atno 6907 bound_to 6896
  152.5449  134.1185  159.8399 H   0  0  0  0  0  0  0  0  0  0  0  0  # atno 6908 bound_to 6896
  151.1290  133.5004  159.2632 H   0  0  0  0  0  0  0  0  0  0  0  0  # atno 6909 bound_to 6896
  145.8208  139.3083  143.1044 H   0  0  0  0  0  0  0  0  0  0  0  0  # atno 7974 bound_to 7965
  155.7087  140.3494  155.4964 H   0  0  0  0  0  0  0  0  0  0  0  0  # atno 8008 bound_to 7997
  155.9375  140.1095  157.1105 H   0  0  0  0  0  0  0  0  0  0  0  0  # atno 8009 bound_to 7997
  154.4096  140.1219  156.4870 H   0  0  0  0  0  0  0  0  0  0  0  0  # atno 8010 bound_to 7997
  140.6736  143.2745  151.4055 H   0  0  0  0  0  0  0  0  0  0  0  0  # atno 10167 bound_to 10162
  156.7185  130.5143  149.5874 H   0  0  0  0  0  0  0  0  0  0  0  0  # atno 10718 bound_to 10713
  154.6501  135.5358  153.7892 H   0  0  0  0  0  0  0  0  0  0  0  0  # atno 10763 bound_to 10752
  153.0381  135.6480  154.1029 H   0  0  0  0  0  0  0  0  0  0  0  0  # atno 10764 bound_to 10752
  154.0947  135.2937  155.3244 H   0  0  0  0  0  0  0  0  0  0  0  0  # atno 10765 bound_to 10752
  140.3861  134.6903  157.4480 H   0  0  0  0  0  0  0  0  0  0  0  0  # atno 11005 bound_to 11000
  145.9677  140.8785  143.0178 LP  0  0  0  0  0  0  0  0  0  0  0  0  # atno 17320 bound_to 7965
  144.6748  140.1902  143.7397 LP  0  0  0  0  0  0  0  0  0  0  0  0  # atno 17321 bound_to 7965
  139.6016  144.1284  152.2204 LP  0  0  0  0  0  0  0  0  0  0  0  0  # atno 17342 bound_to 10162
  140.0670  144.5810  150.7220 LP  0  0  0  0  0  0  0  0  0  0  0  0  # atno 17343 bound_to 10162
  156.1611  130.6375  151.0720 LP  0  0  0  0  0  0  0  0  0  0  0  0  # atno 17370 bound_to 10713
  157.6908  131.0810  150.7114 LP  0  0  0  0  0  0  0  0  0  0  0  0  # atno 17371 bound_to 10713
  140.0442  134.6224  155.8942 LP  0  0  0  0  0  0  0  0  0  0  0  0  # atno 17394 bound_to 11000
  141.1907  133.6569  156.5423 LP  0  0  0  0  0  0  0  0  0  0  0  0  # atno 17395 bound_to 11000

$$$$
