AV-unprocessed.smi:3155|AV-procd|sdf|12025|dock1
  -GOLD-   2272017443D 1   1.00000     0.00000
 Structure written by MMmdl.
 38 39  0  0  0  0  0  0  0  0  2 V2000
  154.7314  140.6618  160.4544 C   0  0  0  0  0  0  0  0  0  0  0  0
  153.6078  141.5275  159.8587 C   0  0  2  0  0  0  0  0  0  0  0  0
  153.3977  142.8461  160.6407 C   0  0  0  0  0  0  0  0  0  0  0  0
  152.4265  143.7291  160.0204 N   0  0  0  0  0  0  0  0  0  0  0  0
  152.4043  144.2089  158.7275 C   0  0  0  0  0  0  0  0  0  0  0  0
  151.3045  145.0099  158.6113 C   0  0  0  0  0  0  0  0  0  0  0  0
  150.7148  144.9652  159.9053 C   0  0  0  0  0  0  0  0  0  0  0  0
  151.3911  144.2008  160.7477 N   0  0  0  0  0  0  0  0  0  0  0  0
  152.3613  140.7316  159.8029 N   0  3  0  0  0  0  0  0  0  0  0  0
  151.3823  141.1432  158.7723 C   0  0  0  0  0  0  0  0  0  0  0  0
  151.6692  140.4963  157.4092 C   0  0  0  0  0  0  0  0  0  0  0  0
  152.6942  139.8304  157.2544 O   0  0  0  0  0  0  0  0  0  0  0  0
  150.7788  140.6838  156.4134 N   0  0  0  0  0  0  0  0  0  0  0  0
  150.9232  140.1038  155.0794 C   0  0  0  0  0  0  0  0  0  0  0  0
  149.5837  140.3374  154.3806 C   0  0  0  0  0  0  0  0  0  0  0  0
  149.0097  141.5632  155.0778 C   0  0  0  0  0  0  0  0  0  0  0  0
  149.5489  141.4700  156.5054 C   0  0  0  0  0  0  0  0  0  0  0  0
  155.6949  141.1711  160.4210 H   0  0  0  0  0  0  0  0  0  0  0  0
  154.8435  139.7293  159.8999 H   0  0  0  0  0  0  0  0  0  0  0  0
  154.5251  140.4075  161.4946 H   0  0  0  0  0  0  0  0  0  0  0  0
  153.8930  141.7670  158.8332 H   0  0  0  0  0  0  0  0  0  0  0  0
  153.0585  142.6481  161.6574 H   0  0  0  0  0  0  0  0  0  0  0  0
  154.3421  143.3853  160.7267 H   0  0  0  0  0  0  0  0  0  0  0  0
  153.1614  143.9419  158.0048 H   0  0  0  0  0  0  0  0  0  0  0  0
  150.9727  145.5487  157.7363 H   0  0  0  0  0  0  0  0  0  0  0  0
  149.8225  145.4635  160.2549 H   0  0  0  0  0  0  0  0  0  0  0  0
  152.6174  139.7757  159.6002 H   0  0  0  0  0  0  0  0  0  0  0  0
  150.3792  140.8639  159.0934 H   0  0  0  0  0  0  0  0  0  0  0  0
  151.4085  142.2278  158.6617 H   0  0  0  0  0  0  0  0  0  0  0  0
  151.7260  140.6208  154.5516 H   0  0  0  0  0  0  0  0  0  0  0  0
  151.1701  139.0414  155.1158 H   0  0  0  0  0  0  0  0  0  0  0  0
  149.6856  140.4710  153.3033 H   0  0  0  0  0  0  0  0  0  0  0  0
  148.9290  139.4815  154.5504 H   0  0  0  0  0  0  0  0  0  0  0  0
  149.3926  142.4664  154.6008 H   0  0  0  0  0  0  0  0  0  0  0  0
  147.9206  141.6009  155.0386 H   0  0  0  0  0  0  0  0  0  0  0  0
  148.8371  140.9476  157.1459 H   0  0  0  0  0  0  0  0  0  0  0  0
  149.7217  142.4626  156.9235 H   0  0  0  0  0  0  0  0  0  0  0  0
  151.9141  140.7525  160.7084 H   0  0  0  0  0  0  0  0  0  0  0  0
  1  2  1  0  0  0  0
  1 18  1  0  0  0  0
  1 19  1  0  0  0  0
  1 20  1  0  0  0  0
  2  3  1  0  0  0  0
  2  9  1  0  0  0  0
  2 21  1  0  0  0  0
  3  4  1  0  0  0  0
  3 22  1  0  0  0  0
  3 23  1  0  0  0  0
  4  8  1  0  0  0  0
  4  5  1  0  0  0  0
  5  6  2  0  0  0  0
  5 24  1  0  0  0  0
  6  7  1  0  0  0  0
  6 25  1  0  0  0  0
  7  8  2  0  0  0  0
  7 26  1  0  0  0  0
  9 10  1  0  0  0  0
  9 27  1  0  0  0  0
  9 38  1  0  0  0  0
 10 11  1  0  0  0  0
 10 28  1  0  0  0  0
 10 29  1  0  0  0  0
 11 12  2  0  0  0  0
 11 13  1  0  0  0  0
 13 17  1  0  0  0  0
 13 14  1  0  0  0  0
 14 15  1  0  0  0  0
 14 30  1  0  0  0  0
 14 31  1  0  0  0  0
 15 16  1  0  0  0  0
 15 32  1  0  0  0  0
 15 33  1  0  0  0  0
 16 17  1  0  0  0  0
 16 34  1  0  0  0  0
 16 35  1  0  0  0  0
 17 36  1  0  0  0  0
 17 37  1  0  0  0  0
M  CHG  1   9   1
M  END
> <s_m_source_file>
AV-unprocessed.smi

> <i_m_source_file_index>
3155

> <i_lp_mmshare_version>
43012

> <i_f3d_flags>
0

> <s_epik_input>
bjFbY0hdW2NIXVtjSF1uMVtDSDJdW0NAQEhdKFtDSDNdKVtOSF1bQ0gyXUMoPU8pTjJbQ0gyXVtDSDJdW0NIMl1bQ0gyXTI=

> <s_epik_cmdline>
J2VwaWtfcHl0aG9uJywgJy1waCcsICc3LjAnLCAnLXRuJywgJzgnLCAnLW1hJywgJzIwMCcsICctbWV0YWxfYmluZGluZycsICctaW1hZScsICc8aW5maWxlLm1hZT4nLCAnLW9tYWUnLCAnPG91dGZpbGUubWFlPic=

> <r_lp_tautomer_probability>
1

> <r_epik_Ionization_Penalty>
0.120138

> <r_epik_Ionization_Penalty_Charging>
0.120135

> <r_epik_Ionization_Penalty_Neutral>
3.43791e-06

> <r_epik_State_Penalty>
0.109683

> <r_epik_Charging_Adjusted_Penalty>
0.229818

> <i_epik_Tot_Q>
1

> <i_epik_Tot_abs_Q>
1

> <r_epik_Metal_State_Penalty>
0.109693

> <b_epik_Metal_Only>
0

> <s_lp_Force_Field>
OPLS_2005

> <r_lp_Energy>
27.5308

> <b_lp_Chiralities_Consistent>
1

> <s_lp_Variant>
AV-unprocessed.smi:3155-1

> <Gold.Version>
5.8.1

> <Gold.Id.Protein>
6NUR|6NUR_protein|mol2

> <Gold.PLP.Fitness>
42.9394

> <Gold.PLP.PLP>
-40.8784

> <Gold.PLP.part.hbond>
-1.0000

> <Gold.PLP.part.metal>
0.0000

> <Gold.PLP.part.buried>
-3.6134

> <Gold.PLP.part.nonpolar>
-36.2918

> <Gold.PLP.part.repulsive>
0.2641

> <Gold.PLP.ligand.clash>
0.0000

> <Gold.PLP.ligand.torsion>
0.4813

> <Gold.PLP.Chemscore.Hbond>
1.0000

> <Gold.PLP.Chemscore.CHOScore>
0.0000

> <Gold.PLP.Chemscore.Metal>
0.0000

> <Gold.Chemscore.Hbonds>
donor molecule, donor type, donor heavy atom, donor atom, acceptor molecule, acceptor atom, score
      P1  H  7997  8010       L1    12  1.00

> <Gold.PLP.Chemscore.Internal.Correction>
0.0236

> <Gold.Rescore>
     Score         DG    S(hbond)    S(metal)    S(lipo)     H(rot)  DE(clash)    DE(int)     intcor
     15.33     -16.02       1.00        0.00     101.79       1.84       0.04       0.65       ----

> <Gold.Chemscore.Fitness>
15.3274

> <Gold.Chemscore.DG>
-16.0214

> <Gold.Chemscore.ZeroCoef>
-5.4800

> <Gold.Chemscore.Hbond>
0.9980

> <Gold.Chemscore.Metal>
0.0000

> <Gold.Chemscore.Lipo>
101.7940

> <Gold.Chemscore.Internal_Hbond>
0.0000

> <Gold.Chemscore.DEClash>
0.0437

> <Gold.Chemscore.DEInternal>
0.6504

> <Gold.Chemscore.Rot>
1.8366

> <Gold.Chemscore.Internal.Correction>
   9.000000E+99

> <Gold.Chemscore.Hbonds>
donor molecule, donor type, donor heavy atom, donor atom, acceptor molecule, acceptor atom, score
      P1  H  7997  8010       L1    12  1.00

> <Gold.Chemscore.Hbond.Weighted>
-3.3332

> <Gold.Chemscore.Metal.Weighted>
-0.0000

> <Gold.Chemscore.Lipo.Weighted>
-11.9099

> <Gold.Chemscore.Internal_Hbond.Weighted>
0.0000

> <Gold.Chemscore.DEClash.Weighted>
0.0437

> <Gold.Chemscore.DEInternal.Weighted>
0.6504

> <Gold.Chemscore.Rot.Weighted>
4.7017

> <Gold.Chemscore.Internal.Correction.Weighted>
   9.000000E+99

> <Gold.Protein.RotatedTorsions>
[ 6907 6896 6895 6894 ] final  -14.61 input  -60.11 | X-H torsion
[ 7974 7965 7964 7962 ] final   49.61 input  175.53 | X-H torsion
[ 8008 7997 7996 7995 ] final   59.06 input   59.86 | X-H torsion
[ 10167 10162 10161 10158 ] final  -10.36 input  -65.29 | X-H torsion
[ 10718 10713 10712 10709 ] final  153.06 input   66.30 | X-H torsion
[ 10763 10752 10751 10750 ] final  -85.91 input  -60.55 | X-H torsion
[ 11005 11000 10999 10996 ] final  -94.37 input  -57.11 | X-H torsion

> <Gold.Protein.ActiveResidues>
 VAL166  LYS551  ARG553  GLY616  TRP617  ASP618  TYR619  PRO620  LYS621  CYS622 
 ASP623  PHE694  ASN695  SER759  ASP760  ASP761  ALA762  ILE779  LEU786  VAL792 
 PHE793  MET794  SER795  GLU796  ALA797  LYS798  CYS799  TRP800  GLU811  SER814 

> <Gold.Protein.RotatedAtoms>
  151.3367  135.0854  159.9356 H   0  0  0  0  0  0  0  0  0  0  0  0  # atno 6907 bound_to 6896
  152.5221  133.9488  159.7672 H   0  0  0  0  0  0  0  0  0  0  0  0  # atno 6908 bound_to 6896
  150.9837  133.6166  159.2748 H   0  0  0  0  0  0  0  0  0  0  0  0  # atno 6909 bound_to 6896
  146.0092  139.4524  142.9967 H   0  0  0  0  0  0  0  0  0  0  0  0  # atno 7974 bound_to 7965
  155.5600  140.3488  155.4489 H   0  0  0  0  0  0  0  0  0  0  0  0  # atno 8008 bound_to 7997
  156.0521  140.1320  157.0064 H   0  0  0  0  0  0  0  0  0  0  0  0  # atno 8009 bound_to 7997
  154.4439  140.1002  156.6376 H   0  0  0  0  0  0  0  0  0  0  0  0  # atno 8010 bound_to 7997
  140.7112  143.5757  150.9045 H   0  0  0  0  0  0  0  0  0  0  0  0  # atno 10167 bound_to 10162
  157.2497  131.0776  151.1738 H   0  0  0  0  0  0  0  0  0  0  0  0  # atno 10718 bound_to 10713
  154.6165  135.5468  153.7529 H   0  0  0  0  0  0  0  0  0  0  0  0  # atno 10763 bound_to 10752
  153.0218  135.6402  154.1503 H   0  0  0  0  0  0  0  0  0  0  0  0  # atno 10764 bound_to 10752
  154.1439  135.2906  155.3133 H   0  0  0  0  0  0  0  0  0  0  0  0  # atno 10765 bound_to 10752
  141.1472  133.7951  157.0288 H   0  0  0  0  0  0  0  0  0  0  0  0  # atno 11005 bound_to 11000
  145.7368  141.0022  143.1322 LP  0  0  0  0  0  0  0  0  0  0  0  0  # atno 17320 bound_to 7965
  144.6947  139.9051  143.7460 LP  0  0  0  0  0  0  0  0  0  0  0  0  # atno 17321 bound_to 7965
  139.9483  143.6302  152.3036 LP  0  0  0  0  0  0  0  0  0  0  0  0  # atno 17342 bound_to 10162
  139.6811  144.7655  151.1606 LP  0  0  0  0  0  0  0  0  0  0  0  0  # atno 17343 bound_to 10162
  157.3291  130.6976  149.6314 LP  0  0  0  0  0  0  0  0  0  0  0  0  # atno 17370 bound_to 10713
  155.9666  130.4313  150.4913 LP  0  0  0  0  0  0  0  0  0  0  0  0  # atno 17371 bound_to 10713
  140.0767  134.9671  157.1557 LP  0  0  0  0  0  0  0  0  0  0  0  0  # atno 17394 bound_to 11000
  140.3634  134.2469  155.7185 LP  0  0  0  0  0  0  0  0  0  0  0  0  # atno 17395 bound_to 11000

$$$$
