AV-unprocessed.smi:865|AV-procd|sdf|3990|dock4
  -GOLD-   22720 1463D 1   1.00000     0.00000
 Structure written by MMmdl.
 36 36  0  0  0  0  0  0  0  0  1 V2000
  153.8919  141.6282  160.5851 C   0  0  0  0  0  0  0  0  0  0  0  0
  152.9264  142.8131  160.4310 C   0  0  0  0  0  0  0  0  0  0  0  0
  152.6897  143.2623  158.9655 C   0  0  0  0  0  0  0  0  0  0  0  0
  152.3503  144.7727  158.8816 C   0  0  0  0  0  0  0  0  0  0  0  0
  151.3039  145.2537  159.8984 C   0  0  0  0  0  0  0  0  0  0  0  0
  151.6366  142.3791  158.2382 C   0  0  2  0  0  0  0  0  0  0  0  0
  152.1260  141.0543  158.1502 O   0  0  0  0  0  0  0  0  0  0  0  0
  151.2845  142.8801  156.8189 C   0  0  0  0  0  0  0  0  0  0  0  0
  149.9385  142.4761  156.4297 N   0  0  0  0  0  0  0  0  0  0  0  0
  149.6408  141.4124  155.6679 C   0  0  0  0  0  0  0  0  0  0  0  0
  150.4880  140.6844  155.1516 O   0  0  0  0  0  0  0  0  0  0  0  0
  148.1555  141.1126  155.4706 C   0  0  0  0  0  0  0  0  0  0  0  0
  147.4967  140.9274  156.7498 N   0  0  0  0  0  0  0  0  0  0  0  0
  147.3396  141.7568  157.7836 C   0  0  0  0  0  0  0  0  0  0  0  0
  146.6515  141.1909  158.7636 N   0  0  0  0  0  0  0  0  0  0  0  0
  146.3805  139.9260  158.2686 N   0  0  0  0  0  0  0  0  0  0  0  0
  146.8791  139.7640  157.0739 N   0  0  0  0  0  0  0  0  0  0  0  0
  153.9327  141.3019  161.6245 H   0  0  0  0  0  0  0  0  0  0  0  0
  154.9084  141.8856  160.2900 H   0  0  0  0  0  0  0  0  0  0  0  0
  153.5704  140.7764  159.9854 H   0  0  0  0  0  0  0  0  0  0  0  0
  151.9824  142.5120  160.8829 H   0  0  0  0  0  0  0  0  0  0  0  0
  153.2855  143.6531  161.0264 H   0  0  0  0  0  0  0  0  0  0  0  0
  153.6329  143.1226  158.4350 H   0  0  0  0  0  0  0  0  0  0  0  0
  153.2572  145.3695  158.9824 H   0  0  0  0  0  0  0  0  0  0  0  0
  151.9565  145.0024  157.8929 H   0  0  0  0  0  0  0  0  0  0  0  0
  151.0210  146.2869  159.6956 H   0  0  0  0  0  0  0  0  0  0  0  0
  151.6803  145.2206  160.9203 H   0  0  0  0  0  0  0  0  0  0  0  0
  150.3982  144.6487  159.8497 H   0  0  0  0  0  0  0  0  0  0  0  0
  150.7199  142.3636  158.8270 H   0  0  0  0  0  0  0  0  0  0  0  0
  153.0510  141.0628  158.3430 H   0  0  0  0  0  0  0  0  0  0  0  0
  151.2843  143.9702  156.8064 H   0  0  0  0  0  0  0  0  0  0  0  0
  152.0247  142.5685  156.0796 H   0  0  0  0  0  0  0  0  0  0  0  0
  149.1741  143.0172  156.8074 H   0  0  0  0  0  0  0  0  0  0  0  0
  147.6747  141.9260  154.9247 H   0  0  0  0  0  0  0  0  0  0  0  0
  148.0309  140.2056  154.8775 H   0  0  0  0  0  0  0  0  0  0  0  0
  147.7210  142.7666  157.8151 H   0  0  0  0  0  0  0  0  0  0  0  0
  1  2  1  0  0  0  0
  1 18  1  0  0  0  0
  1 19  1  0  0  0  0
  1 20  1  0  0  0  0
  2  3  1  0  0  0  0
  2 21  1  0  0  0  0
  2 22  1  0  0  0  0
  3  4  1  0  0  0  0
  3  6  1  0  0  0  0
  3 23  1  0  0  0  0
  4  5  1  0  0  0  0
  4 24  1  0  0  0  0
  4 25  1  0  0  0  0
  5 26  1  0  0  0  0
  5 27  1  0  0  0  0
  5 28  1  0  0  0  0
  6  7  1  0  0  0  0
  6  8  1  0  0  0  0
  6 29  1  0  0  0  0
  7 30  1  0  0  0  0
  8  9  1  0  0  0  0
  8 31  1  0  0  0  0
  8 32  1  0  0  0  0
  9 10  1  0  0  0  0
  9 33  1  0  0  0  0
 10 11  2  0  0  0  0
 10 12  1  0  0  0  0
 12 13  1  0  0  0  0
 12 34  1  0  0  0  0
 12 35  1  0  0  0  0
 13 17  1  0  0  0  0
 13 14  1  0  0  0  0
 14 15  2  0  0  0  0
 14 36  1  0  0  0  0
 15 16  1  0  0  0  0
 16 17  2  0  0  0  0
M  END
> <s_m_source_file>
AV-unprocessed.smi

> <i_m_source_file_index>
865

> <i_lp_mmshare_version>
43012

> <i_f3d_flags>
0

> <s_epik_input>
W0NIM11bQ0gyXVtDSF0oW0NIMl1bQ0gzXSlbQ0BIXShbT0hdKVtDSDJdW05IXUMoPU8pW0NIMl1uMVtjSF1ubm4x

> <s_epik_cmdline>
J2VwaWtfcHl0aG9uJywgJy1waCcsICc3LjAnLCAnLXRuJywgJzgnLCAnLW1hJywgJzIwMCcsICctbWV0YWxfYmluZGluZycsICctaW1hZScsICc8aW5maWxlLm1hZT4nLCAnLW9tYWUnLCAnPG91dGZpbGUubWFlPic=

> <r_lp_tautomer_probability>
1

> <r_epik_Ionization_Penalty>
9.39891e-07

> <r_epik_Ionization_Penalty_Charging>
0

> <r_epik_Ionization_Penalty_Neutral>
9.39891e-07

> <r_epik_State_Penalty>
-0

> <r_epik_Charging_Adjusted_Penalty>
0

> <i_epik_Tot_Q>
0

> <i_epik_Tot_abs_Q>
0

> <r_epik_Metal_State_Penalty>
-0

> <b_epik_Metal_Only>
0

> <s_lp_Force_Field>
OPLS_2005

> <r_lp_Energy>
13.4574

> <b_lp_Chiralities_Consistent>
1

> <s_lp_Variant>
AV-unprocessed.smi:865-1

> <Gold.Version>
5.8.1

> <Gold.Id.Protein>
6NUR|6NUR_protein|mol2

> <Gold.PLP.Fitness>
38.5305

> <Gold.PLP.PLP>
-35.1898

> <Gold.PLP.part.hbond>
-3.9661

> <Gold.PLP.part.metal>
0.0000

> <Gold.PLP.part.buried>
-5.7358

> <Gold.PLP.part.nonpolar>
-26.9690

> <Gold.PLP.part.repulsive>
0.1517

> <Gold.PLP.ligand.clash>
0.0000

> <Gold.PLP.ligand.torsion>
0.9596

> <Gold.PLP.Chemscore.Hbond>
1.6409

> <Gold.PLP.Chemscore.CHOScore>
0.0000

> <Gold.PLP.Chemscore.Metal>
0.0000

> <Gold.Chemscore.Hbonds>
donor molecule, donor type, donor heavy atom, donor atom, acceptor molecule, acceptor atom, score
      L1  H     9    33       P1  8028  0.19
      P1  H  6934  6946       L1    15  0.45
      P1  H  7989  7998       L1    11  0.90

> <Gold.PLP.Chemscore.Internal.Correction>
0.3371

> <Gold.Rescore>
     Score         DG    S(hbond)    S(metal)    S(lipo)     H(rot)  DE(clash)    DE(int)     intcor
      9.04     -10.37       1.45        0.00      83.48       3.80       0.14       1.19       ----

> <Gold.Chemscore.Fitness>
9.0392

> <Gold.Chemscore.DG>
-10.3670

> <Gold.Chemscore.ZeroCoef>
-5.4800

> <Gold.Chemscore.Hbond>
1.4488

> <Gold.Chemscore.Metal>
0.0000

> <Gold.Chemscore.Lipo>
83.4768

> <Gold.Chemscore.Internal_Hbond>
0.0000

> <Gold.Chemscore.DEClash>
0.1372

> <Gold.Chemscore.DEInternal>
1.1905

> <Gold.Chemscore.Rot>
3.7964

> <Gold.Chemscore.Internal.Correction>
   9.000000E+99

> <Gold.Chemscore.Hbonds>
donor molecule, donor type, donor heavy atom, donor atom, acceptor molecule, acceptor atom, score
      L1  H     9    33       P1  8028  0.17
      P1  H  6934  6946       L1    15  0.15
      P1  H  7989  7998       L1    11  0.84

> <Gold.Chemscore.Hbond.Weighted>
-4.8390

> <Gold.Chemscore.Metal.Weighted>
-0.0000

> <Gold.Chemscore.Lipo.Weighted>
-9.7668

> <Gold.Chemscore.Internal_Hbond.Weighted>
0.0000

> <Gold.Chemscore.DEClash.Weighted>
0.1372

> <Gold.Chemscore.DEInternal.Weighted>
1.1905

> <Gold.Chemscore.Rot.Weighted>
9.7188

> <Gold.Chemscore.Internal.Correction.Weighted>
   9.000000E+99

> <Gold.Protein.RotatedTorsions>
[ 6907 6896 6895 6894 ] final    5.17 input  -60.11 | X-H torsion
[ 7974 7965 7964 7962 ] final  -43.52 input  175.53 | X-H torsion
[ 8008 7997 7996 7995 ] final  -37.28 input   59.86 | X-H torsion
[ 10167 10162 10161 10158 ] final  -53.86 input  -65.29 | X-H torsion
[ 10718 10713 10712 10709 ] final   78.08 input   66.30 | X-H torsion
[ 10763 10752 10751 10750 ] final  -31.94 input  -60.55 | X-H torsion
[ 11005 11000 10999 10996 ] final   61.05 input  -57.11 | X-H torsion

> <Gold.Protein.ActiveResidues>
 VAL166  LYS551  ARG553  GLY616  TRP617  ASP618  TYR619  PRO620  LYS621  CYS622 
 ASP623  PHE694  ASN695  SER759  ASP760  ASP761  ALA762  ILE779  LEU786  VAL792 
 PHE793  MET794  SER795  GLU796  ALA797  LYS798  CYS799  TRP800  GLU811  SER814 

> <Gold.Protein.RotatedAtoms>
  151.6531  135.0999  160.0164 H   0  0  0  0  0  0  0  0  0  0  0  0  # atno 6907 bound_to 6896
  152.3989  133.6784  159.6308 H   0  0  0  0  0  0  0  0  0  0  0  0  # atno 6908 bound_to 6896
  150.7892  133.8742  159.3308 H   0  0  0  0  0  0  0  0  0  0  0  0  # atno 6909 bound_to 6896
  146.0010  140.7074  142.9270 H   0  0  0  0  0  0  0  0  0  0  0  0  # atno 7974 bound_to 7965
  154.4056  140.1608  156.2512 H   0  0  0  0  0  0  0  0  0  0  0  0  # atno 8008 bound_to 7997
  155.9118  140.3427  155.6082 H   0  0  0  0  0  0  0  0  0  0  0  0  # atno 8009 bound_to 7997
  155.7327  140.0782  157.2272 H   0  0  0  0  0  0  0  0  0  0  0  0  # atno 8010 bound_to 7997
  140.6462  143.2537  151.4853 H   0  0  0  0  0  0  0  0  0  0  0  0  # atno 10167 bound_to 10162
  157.6733  130.9852  150.1735 H   0  0  0  0  0  0  0  0  0  0  0  0  # atno 10718 bound_to 10713
  153.8057  135.6886  153.4848 H   0  0  0  0  0  0  0  0  0  0  0  0  # atno 10763 bound_to 10752
  153.1660  135.4561  154.9836 H   0  0  0  0  0  0  0  0  0  0  0  0  # atno 10764 bound_to 10752
  154.7988  135.3329  154.7541 H   0  0  0  0  0  0  0  0  0  0  0  0  # atno 10765 bound_to 10752
  140.0189  134.6183  155.9669 H   0  0  0  0  0  0  0  0  0  0  0  0  # atno 11005 bound_to 11000
  144.6919  140.3234  143.7228 LP  0  0  0  0  0  0  0  0  0  0  0  0  # atno 17320 bound_to 7965
  145.7487  139.1787  143.2334 LP  0  0  0  0  0  0  0  0  0  0  0  0  # atno 17321 bound_to 7965
  139.5673  144.2012  152.1784 LP  0  0  0  0  0  0  0  0  0  0  0  0  # atno 17342 bound_to 10162
  140.1298  144.5299  150.6810 LP  0  0  0  0  0  0  0  0  0  0  0  0  # atno 17343 bound_to 10162
  156.2483  130.3698  149.8260 LP  0  0  0  0  0  0  0  0  0  0  0  0  # atno 17370 bound_to 10713
  156.6040  130.8558  151.3438 LP  0  0  0  0  0  0  0  0  0  0  0  0  # atno 17371 bound_to 10713
  141.1761  133.6540  156.4833 LP  0  0  0  0  0  0  0  0  0  0  0  0  # atno 17394 bound_to 11000
  140.4423  134.7004  157.4998 LP  0  0  0  0  0  0  0  0  0  0  0  0  # atno 17395 bound_to 11000

$$$$
