AV-unprocessed.smi:3348|AV-procd|sdf|12925|dock8
  -GOLD-   2272019353D 1   1.00000     0.00000
 Structure written by MMmdl.
 46 47  0  0  0  0  0  0  0  0  1 V2000
  145.6063  134.8408  153.2735 C   0  0  0  0  0  0  0  0  0  0  0  0
  145.6132  135.8004  152.0754 C   0  0  2  0  0  0  0  0  0  0  0  0
  145.9189  135.0165  150.7757 C   0  0  0  0  0  0  0  0  0  0  0  0
  145.2943  133.7084  150.7046 N   0  0  0  0  0  0  0  0  0  0  0  0
  145.9017  132.4698  150.6984 C   0  0  0  0  0  0  0  0  0  0  0  0
  144.9119  131.5328  150.6221 C   0  0  0  0  0  0  0  0  0  0  0  0
  143.7172  132.3054  150.5947 C   0  0  0  0  0  0  0  0  0  0  0  0
  143.9487  133.6073  150.6481 N   0  0  0  0  0  0  0  0  0  0  0  0
  146.5980  136.8585  152.3209 N   0  0  0  0  0  0  0  0  0  0  0  0
  146.3802  137.6497  153.5323 C   0  0  0  0  0  0  0  0  0  0  0  0
  147.3813  137.2640  154.6235 C   0  0  0  0  0  0  0  0  0  0  0  0
  148.0030  138.4586  155.0726 O   0  0  0  0  0  0  0  0  0  0  0  0
  148.7127  139.1862  154.0771 C   0  0  1  0  0  0  0  0  0  0  0  0
  148.2175  140.6470  154.0068 C   0  0  0  0  0  0  0  0  0  0  0  0
  148.5034  141.4051  155.3132 C   0  0  0  0  0  0  0  0  0  0  0  0
  149.9968  141.3532  155.6686 C   0  0  0  0  0  0  0  0  0  0  0  0
  150.5045  139.9040  155.7386 C   0  0  0  0  0  0  0  0  0  0  0  0
  150.2166  139.1382  154.4310 C   0  0  1  0  0  0  0  0  0  0  0  0
  150.7530  137.6990  154.4834 C   0  0  0  0  0  0  0  0  0  0  0  0
  144.8589  134.0572  153.1444 H   0  0  0  0  0  0  0  0  0  0  0  0
  145.3698  135.3674  154.1987 H   0  0  0  0  0  0  0  0  0  0  0  0
  146.5756  134.3576  153.4030 H   0  0  0  0  0  0  0  0  0  0  0  0
  144.6151  136.2362  152.0088 H   0  0  0  0  0  0  0  0  0  0  0  0
  145.6095  135.5957  149.9043 H   0  0  0  0  0  0  0  0  0  0  0  0
  146.9951  134.8697  150.6759 H   0  0  0  0  0  0  0  0  0  0  0  0
  146.9753  132.3607  150.7391 H   0  0  0  0  0  0  0  0  0  0  0  0
  145.0246  130.4593  150.5904 H   0  0  0  0  0  0  0  0  0  0  0  0
  142.6950  131.9615  150.5377 H   0  0  0  0  0  0  0  0  0  0  0  0
  147.5307  136.4590  152.3465 H   0  0  0  0  0  0  0  0  0  0  0  0
  146.4529  138.7180  153.3444 H   0  0  0  0  0  0  0  0  0  0  0  0
  145.3669  137.4738  153.8944 H   0  0  0  0  0  0  0  0  0  0  0  0
  146.8489  136.7994  155.4544 H   0  0  0  0  0  0  0  0  0  0  0  0
  148.1044  136.5394  154.2489 H   0  0  0  0  0  0  0  0  0  0  0  0
  148.5712  138.7074  153.1065 H   0  0  0  0  0  0  0  0  0  0  0  0
  148.7207  141.1547  153.1830 H   0  0  0  0  0  0  0  0  0  0  0  0
  147.1539  140.6903  153.7752 H   0  0  0  0  0  0  0  0  0  0  0  0
  148.1798  142.4420  155.2200 H   0  0  0  0  0  0  0  0  0  0  0  0
  147.9178  140.9710  156.1248 H   0  0  0  0  0  0  0  0  0  0  0  0
  150.5689  141.9042  154.9211 H   0  0  0  0  0  0  0  0  0  0  0  0
  150.1698  141.8546  156.6213 H   0  0  0  0  0  0  0  0  0  0  0  0
  151.5758  139.9042  155.9427 H   0  0  0  0  0  0  0  0  0  0  0  0
  150.0331  139.3932  156.5790 H   0  0  0  0  0  0  0  0  0  0  0  0
  150.7555  139.6470  153.6301 H   0  0  0  0  0  0  0  0  0  0  0  0
  150.2799  137.1245  155.2803 H   0  0  0  0  0  0  0  0  0  0  0  0
  151.8283  137.6880  154.6624 H   0  0  0  0  0  0  0  0  0  0  0  0
  150.5698  137.1775  153.5437 H   0  0  0  0  0  0  0  0  0  0  0  0
  1  2  1  0  0  0  0
  1 20  1  0  0  0  0
  1 21  1  0  0  0  0
  1 22  1  0  0  0  0
  2  3  1  0  0  0  0
  2  9  1  0  0  0  0
  2 23  1  0  0  0  0
  3  4  1  0  0  0  0
  3 24  1  0  0  0  0
  3 25  1  0  0  0  0
  4  8  1  0  0  0  0
  4  5  1  0  0  0  0
  5  6  2  0  0  0  0
  5 26  1  0  0  0  0
  6  7  1  0  0  0  0
  6 27  1  0  0  0  0
  7  8  2  0  0  0  0
  7 28  1  0  0  0  0
  9 10  1  0  0  0  0
  9 29  1  0  0  0  0
 10 11  1  0  0  0  0
 10 30  1  0  0  0  0
 10 31  1  0  0  0  0
 11 12  1  0  0  0  0
 11 32  1  0  0  0  0
 11 33  1  0  0  0  0
 12 13  1  0  0  0  0
 13 18  1  0  0  0  0
 13 14  1  0  0  0  0
 13 34  1  0  0  0  0
 14 15  1  0  0  0  0
 14 35  1  0  0  0  0
 14 36  1  0  0  0  0
 15 16  1  0  0  0  0
 15 37  1  0  0  0  0
 15 38  1  0  0  0  0
 16 17  1  0  0  0  0
 16 39  1  0  0  0  0
 16 40  1  0  0  0  0
 17 18  1  0  0  0  0
 17 41  1  0  0  0  0
 17 42  1  0  0  0  0
 18 19  1  0  0  0  0
 18 43  1  0  0  0  0
 19 44  1  0  0  0  0
 19 45  1  0  0  0  0
 19 46  1  0  0  0  0
M  END
> <s_m_source_file>
AV-unprocessed.smi

> <i_m_source_file_index>
3348

> <i_lp_mmshare_version>
43012

> <i_f3d_flags>
0

> <s_epik_input>
bjFbY0hdW2NIXVtjSF1uMVtDSDJdW0NAQEhdKFtDSDNdKVtOSF1bQ0gyXVtDSDJdT1tDQEBIXTJbQ0gyXVtDSDJdW0NIMl1bQ0gyXVtDQEhdMltDSDNd

> <s_epik_cmdline>
J2VwaWtfcHl0aG9uJywgJy1waCcsICc3LjAnLCAnLXRuJywgJzgnLCAnLW1hJywgJzIwMCcsICctbWV0YWxfYmluZGluZycsICctaW1hZScsICc8aW5maWxlLm1hZT4nLCAnLW9tYWUnLCAnPG91dGZpbGUubWFlPic=

> <r_lp_tautomer_probability>
1

> <r_epik_Ionization_Penalty>
2.46945

> <r_epik_Ionization_Penalty_Charging>
0

> <r_epik_Ionization_Penalty_Neutral>
2.46945

> <r_epik_State_Penalty>
2.6322

> <r_epik_Charging_Adjusted_Penalty>
2.6322

> <i_epik_Tot_Q>
0

> <i_epik_Tot_abs_Q>
0

> <r_epik_Metal_State_Penalty>
2.63217

> <b_epik_Metal_Only>
0

> <s_lp_Force_Field>
OPLS_2005

> <r_lp_Energy>
18.1509

> <b_lp_Chiralities_Consistent>
1

> <s_lp_Variant>
AV-unprocessed.smi:3348-11

> <Gold.Version>
5.8.1

> <Gold.Id.Protein>
6NUR|6NUR_protein|mol2

> <Gold.PLP.Fitness>
39.1862

> <Gold.PLP.PLP>
-34.5229

> <Gold.PLP.part.hbond>
-0.8377

> <Gold.PLP.part.metal>
0.0000

> <Gold.PLP.part.buried>
-4.7428

> <Gold.PLP.part.nonpolar>
-30.0350

> <Gold.PLP.part.repulsive>
0.2585

> <Gold.PLP.ligand.clash>
0.0000

> <Gold.PLP.ligand.torsion>
1.6454

> <Gold.PLP.Chemscore.Hbond>
0.9913

> <Gold.PLP.Chemscore.CHOScore>
1.6032

> <Gold.PLP.Chemscore.Metal>
0.0000

> <Gold.Chemscore.Hbonds>
donor molecule, donor type, donor heavy atom, donor atom, acceptor molecule, acceptor atom, score
      L1  H     9    29       P1  7948  0.94
      L1  C     5    26       P1 10747  0.97
      L1  C     7    28       P1 10952  0.70

> <Gold.PLP.Chemscore.Internal.Correction>
0.1708

> <Gold.Rescore>
     Score         DG    S(hbond)    S(metal)    S(lipo)     H(rot)  DE(clash)    DE(int)     intcor
     13.83     -15.66       0.99        0.00      96.57       1.72       0.19       1.64       ----

> <Gold.Chemscore.Fitness>
13.8277

> <Gold.Chemscore.DG>
-15.6564

> <Gold.Chemscore.ZeroCoef>
-5.4800

> <Gold.Chemscore.Hbond>
0.9853

> <Gold.Chemscore.Metal>
0.0000

> <Gold.Chemscore.Lipo>
96.5654

> <Gold.Chemscore.Internal_Hbond>
0.0000

> <Gold.Chemscore.DEClash>
0.1871

> <Gold.Chemscore.DEInternal>
1.6415

> <Gold.Chemscore.Rot>
1.7237

> <Gold.Chemscore.Internal.Correction>
   9.000000E+99

> <Gold.Chemscore.Hbonds>
donor molecule, donor type, donor heavy atom, donor atom, acceptor molecule, acceptor atom, score
      L1  H     9    29       P1  7948  0.88

> <Gold.Chemscore.Hbond.Weighted>
-3.2908

> <Gold.Chemscore.Metal.Weighted>
-0.0000

> <Gold.Chemscore.Lipo.Weighted>
-11.2982

> <Gold.Chemscore.Internal_Hbond.Weighted>
0.0000

> <Gold.Chemscore.DEClash.Weighted>
0.1871

> <Gold.Chemscore.DEInternal.Weighted>
1.6415

> <Gold.Chemscore.Rot.Weighted>
4.4126

> <Gold.Chemscore.Internal.Correction.Weighted>
   9.000000E+99

> <Gold.Protein.RotatedTorsions>
[ 6907 6896 6895 6894 ] final  -55.92 input  -60.11 | X-H torsion
[ 7974 7965 7964 7962 ] final   19.45 input  175.53 | X-H torsion
[ 8008 7997 7996 7995 ] final  -18.91 input   59.86 | X-H torsion
[ 10167 10162 10161 10158 ] final   58.03 input  -65.29 | X-H torsion
[ 10718 10713 10712 10709 ] final  166.10 input   66.30 | X-H torsion
[ 10763 10752 10751 10750 ] final  177.76 input  -60.55 | X-H torsion
[ 11005 11000 10999 10996 ] final   41.28 input  -57.11 | X-H torsion

> <Gold.Protein.ActiveResidues>
 VAL166  LYS551  ARG553  GLY616  TRP617  ASP618  TYR619  PRO620  LYS621  CYS622 
 ASP623  PHE694  ASN695  SER759  ASP760  ASP761  ALA762  ILE779  LEU786  VAL792 
 PHE793  MET794  SER795  GLU796  ALA797  LYS798  CYS799  TRP800  GLU811  SER814 

> <Gold.Protein.RotatedAtoms>
  150.8211  134.7419  159.6772 H   0  0  0  0  0  0  0  0  0  0  0  0  # atno 6907 bound_to 6896
  152.4326  134.5745  159.9940 H   0  0  0  0  0  0  0  0  0  0  0  0  # atno 6908 bound_to 6896
  151.5929  133.3327  159.3067 H   0  0  0  0  0  0  0  0  0  0  0  0  # atno 6909 bound_to 6896
  146.2149  139.8311  142.8660 H   0  0  0  0  0  0  0  0  0  0  0  0  # atno 7974 bound_to 7965
  154.4873  140.2103  155.9627 H   0  0  0  0  0  0  0  0  0  0  0  0  # atno 8008 bound_to 7997
  156.1254  140.3206  155.8239 H   0  0  0  0  0  0  0  0  0  0  0  0  # atno 8009 bound_to 7997
  155.4392  140.0509  157.3002 H   0  0  0  0  0  0  0  0  0  0  0  0  # atno 8010 bound_to 7997
  140.1916  144.4080  150.6568 H   0  0  0  0  0  0  0  0  0  0  0  0  # atno 10167 bound_to 10162
  157.0707  131.0365  151.2612 H   0  0  0  0  0  0  0  0  0  0  0  0  # atno 10718 bound_to 10713
  154.4988  135.2782  155.1438 H   0  0  0  0  0  0  0  0  0  0  0  0  # atno 10763 bound_to 10752
  154.3079  135.6235  153.5456 H   0  0  0  0  0  0  0  0  0  0  0  0  # atno 10764 bound_to 10752
  152.9899  135.5713  154.5426 H   0  0  0  0  0  0  0  0  0  0  0  0  # atno 10765 bound_to 10752
  140.1849  134.4058  155.8179 H   0  0  0  0  0  0  0  0  0  0  0  0  # atno 11005 bound_to 11000
  145.2996  141.0190  143.3616 LP  0  0  0  0  0  0  0  0  0  0  0  0  # atno 17320 bound_to 7965
  144.9016  139.4642  143.6630 LP  0  0  0  0  0  0  0  0  0  0  0  0  # atno 17321 bound_to 7965
  140.6452  143.2212  151.6202 LP  0  0  0  0  0  0  0  0  0  0  0  0  # atno 17342 bound_to 10162
  139.5253  144.3077  152.1020 LP  0  0  0  0  0  0  0  0  0  0  0  0  # atno 17343 bound_to 10162
  157.4880  130.7805  149.7479 LP  0  0  0  0  0  0  0  0  0  0  0  0  # atno 17370 bound_to 10713
  155.9951  130.3914  150.2832 LP  0  0  0  0  0  0  0  0  0  0  0  0  # atno 17371 bound_to 10713
  141.2224  133.7018  156.7995 LP  0  0  0  0  0  0  0  0  0  0  0  0  # atno 17394 bound_to 11000
  140.2225  134.8746  157.3392 LP  0  0  0  0  0  0  0  0  0  0  0  0  # atno 17395 bound_to 11000

$$$$
