AV-unprocessed.smi:3335|AV-procd|sdf|12852|dock2
  -GOLD-   2272019243D 1   1.00000     0.00000
 Structure written by MMmdl.
 46 47  0  0  0  0  0  0  0  0  1 V2000
  150.8564  145.4447  161.2882 C   0  0  0  0  0  0  0  0  0  0  0  0
  151.6802  144.1984  161.1384 C   0  0  0  0  0  0  0  0  0  0  0  0
  152.4472  143.5301  162.1345 C   0  0  0  0  0  0  0  0  0  0  0  0
  153.0608  142.4528  161.6737 N   0  0  0  0  0  0  0  0  0  0  0  0
  152.7075  142.3910  160.3700 N   0  0  0  0  0  0  0  0  0  0  0  0
  153.2046  141.3146  159.5217 C   0  0  1  0  0  0  0  0  0  0  0  0
  154.3754  140.5950  160.2201 C   0  0  0  0  0  0  0  0  0  0  0  0
  152.0775  140.3368  159.0911 C   0  0  1  0  0  0  0  0  0  0  0  0
  150.8614  141.0474  158.4592 C   0  0  0  0  0  0  0  0  0  0  0  0
  152.6397  139.4032  158.1122 N   0  0  0  0  0  0  0  0  0  0  0  0
  151.7987  138.2337  157.7881 C   0  0  1  0  0  0  0  0  0  0  0  0
  152.4779  137.4093  156.6838 C   0  0  0  0  0  0  0  0  0  0  0  0
  151.5158  137.3322  159.0112 C   0  0  0  0  0  0  0  0  0  0  0  0
  152.4699  136.8611  159.6332 O   0  0  0  0  0  0  0  0  0  0  0  0
  150.2386  137.0810  159.3720 N   0  0  0  0  0  0  0  0  0  0  0  0
  149.8830  136.2594  160.5280 C   0  0  0  0  0  0  0  0  0  0  0  0
  148.3736  136.4209  160.7075 C   0  0  0  0  0  0  0  0  0  0  0  0
  147.8715  136.7818  159.3169 C   0  0  0  0  0  0  0  0  0  0  0  0
  149.0335  137.5511  158.6885 C   0  0  0  0  0  0  0  0  0  0  0  0
  151.8761  143.4354  160.0223 C   0  0  0  0  0  0  0  0  0  0  0  0
  150.8322  145.7938  162.3209 H   0  0  0  0  0  0  0  0  0  0  0  0
  149.8235  145.2828  160.9798 H   0  0  0  0  0  0  0  0  0  0  0  0
  151.2493  146.2610  160.6820 H   0  0  0  0  0  0  0  0  0  0  0  0
  152.5759  143.7951  163.1736 H   0  0  0  0  0  0  0  0  0  0  0  0
  153.6006  141.7911  158.6231 H   0  0  0  0  0  0  0  0  0  0  0  0
  154.8506  139.8688  159.5607 H   0  0  0  0  0  0  0  0  0  0  0  0
  154.0432  140.0617  161.1114 H   0  0  0  0  0  0  0  0  0  0  0  0
  155.1443  141.3054  160.5254 H   0  0  0  0  0  0  0  0  0  0  0  0
  151.7398  139.8105  159.9841 H   0  0  0  0  0  0  0  0  0  0  0  0
  150.3835  141.7290  159.1625 H   0  0  0  0  0  0  0  0  0  0  0  0
  150.0928  140.3414  158.1464 H   0  0  0  0  0  0  0  0  0  0  0  0
  151.1543  141.6279  157.5838 H   0  0  0  0  0  0  0  0  0  0  0  0
  153.5524  139.1061  158.4275 H   0  0  0  0  0  0  0  0  0  0  0  0
  150.8623  138.6089  157.3804 H   0  0  0  0  0  0  0  0  0  0  0  0
  151.8677  136.5534  156.3929 H   0  0  0  0  0  0  0  0  0  0  0  0
  153.4490  137.0304  157.0056 H   0  0  0  0  0  0  0  0  0  0  0  0
  152.6383  138.0125  155.7897 H   0  0  0  0  0  0  0  0  0  0  0  0
  150.1342  135.2191  160.3153 H   0  0  0  0  0  0  0  0  0  0  0  0
  150.4225  136.5614  161.4275 H   0  0  0  0  0  0  0  0  0  0  0  0
  147.8972  135.5271  161.1113 H   0  0  0  0  0  0  0  0  0  0  0  0
  148.1724  137.2453  161.3928 H   0  0  0  0  0  0  0  0  0  0  0  0
  147.6873  135.8698  158.7475 H   0  0  0  0  0  0  0  0  0  0  0  0
  146.9452  137.3563  159.3361 H   0  0  0  0  0  0  0  0  0  0  0  0
  148.9191  138.6218  158.8640 H   0  0  0  0  0  0  0  0  0  0  0  0
  149.0741  137.3817  157.6117 H   0  0  0  0  0  0  0  0  0  0  0  0
  151.4945  143.5483  159.0184 H   0  0  0  0  0  0  0  0  0  0  0  0
  1  2  1  0  0  0  0
  1 21  1  0  0  0  0
  1 22  1  0  0  0  0
  1 23  1  0  0  0  0
  2 20  2  0  0  0  0
  2  3  1  0  0  0  0
  3  4  2  0  0  0  0
  3 24  1  0  0  0  0
  4  5  1  0  0  0  0
  5  6  1  0  0  0  0
  5 20  1  0  0  0  0
  6  7  1  0  0  0  0
  6  8  1  0  0  0  0
  6 25  1  0  0  0  0
  7 26  1  0  0  0  0
  7 27  1  0  0  0  0
  7 28  1  0  0  0  0
  8  9  1  0  0  0  0
  8 10  1  0  0  0  0
  8 29  1  0  0  0  0
  9 30  1  0  0  0  0
  9 31  1  0  0  0  0
  9 32  1  0  0  0  0
 10 11  1  0  0  0  0
 10 33  1  0  0  0  0
 11 12  1  0  0  0  0
 11 13  1  0  0  0  0
 11 34  1  0  0  0  0
 12 35  1  0  0  0  0
 12 36  1  0  0  0  0
 12 37  1  0  0  0  0
 13 14  2  0  0  0  0
 13 15  1  0  0  0  0
 15 19  1  0  0  0  0
 15 16  1  0  0  0  0
 16 17  1  0  0  0  0
 16 38  1  0  0  0  0
 16 39  1  0  0  0  0
 17 18  1  0  0  0  0
 17 40  1  0  0  0  0
 17 41  1  0  0  0  0
 18 19  1  0  0  0  0
 18 42  1  0  0  0  0
 18 43  1  0  0  0  0
 19 44  1  0  0  0  0
 19 45  1  0  0  0  0
 20 46  1  0  0  0  0
M  END
> <s_m_source_file>
AV-unprocessed.smi

> <i_m_source_file_index>
3335

> <i_lp_mmshare_version>
43012

> <i_f3d_flags>
0

> <s_epik_input>
W0NIM11jMVtjSF1ubihbY0hdMSlbQ0BIXShbQ0gzXSlbQ0BIXShbQ0gzXSlbTkhdW0NASF0oW0NIM10pQyg9TylOMltDSDJdW0NIMl1bQ0gyXVtDSDJdMg==

> <s_epik_cmdline>
J2VwaWtfcHl0aG9uJywgJy1waCcsICc3LjAnLCAnLXRuJywgJzgnLCAnLW1hJywgJzIwMCcsICctbWV0YWxfYmluZGluZycsICctaW1hZScsICc8aW5maWxlLm1hZT4nLCAnLW9tYWUnLCAnPG91dGZpbGUubWFlPic=

> <r_lp_tautomer_probability>
1

> <r_epik_Ionization_Penalty>
0.918803

> <r_epik_Ionization_Penalty_Charging>
0

> <r_epik_Ionization_Penalty_Neutral>
0.918803

> <r_epik_State_Penalty>
0.958258

> <r_epik_Charging_Adjusted_Penalty>
0.958258

> <i_epik_Tot_Q>
0

> <i_epik_Tot_abs_Q>
0

> <r_epik_Metal_State_Penalty>
0.956786

> <b_epik_Metal_Only>
0

> <s_lp_Force_Field>
OPLS_2005

> <r_lp_Energy>
36.4187

> <b_lp_Chiralities_Consistent>
1

> <s_lp_Variant>
AV-unprocessed.smi:3335-16

> <Gold.Version>
5.8.1

> <Gold.Id.Protein>
6NUR|6NUR_protein|mol2

> <Gold.PLP.Fitness>
46.2093

> <Gold.PLP.PLP>
-40.7960

> <Gold.PLP.part.hbond>
-2.0000

> <Gold.PLP.part.metal>
0.0000

> <Gold.PLP.part.buried>
-5.0999

> <Gold.PLP.part.nonpolar>
-32.6383

> <Gold.PLP.part.repulsive>
0.0587

> <Gold.PLP.ligand.clash>
0.0000

> <Gold.PLP.ligand.torsion>
0.3697

> <Gold.PLP.Chemscore.Hbond>
2.0000

> <Gold.PLP.Chemscore.CHOScore>
0.0000

> <Gold.PLP.Chemscore.Metal>
0.0000

> <Gold.Chemscore.Hbonds>
donor molecule, donor type, donor heavy atom, donor atom, acceptor molecule, acceptor atom, score
      P1  H  6896  6909       L1    14  0.47

> <Gold.PLP.Chemscore.Internal.Correction>
0.1526

> <Gold.Rescore>
     Score         DG    S(hbond)    S(metal)    S(lipo)     H(rot)  DE(clash)    DE(int)     intcor
     15.62     -15.89       1.00        0.00      95.78       1.62       0.00       0.27       ----

> <Gold.Chemscore.Fitness>
15.6151

> <Gold.Chemscore.DG>
-15.8903

> <Gold.Chemscore.ZeroCoef>
-5.4800

> <Gold.Chemscore.Hbond>
1.0036

> <Gold.Chemscore.Metal>
0.0000

> <Gold.Chemscore.Lipo>
95.7817

> <Gold.Chemscore.Internal_Hbond>
0.0000

> <Gold.Chemscore.DEClash>
0.0015

> <Gold.Chemscore.DEInternal>
0.2738

> <Gold.Chemscore.Rot>
1.6204

> <Gold.Chemscore.Internal.Correction>
   9.000000E+99

> <Gold.Chemscore.Hbonds>
donor molecule, donor type, donor heavy atom, donor atom, acceptor molecule, acceptor atom, score
      P1  H  6896  6909       L1    14  0.03

> <Gold.Chemscore.Hbond.Weighted>
-3.3521

> <Gold.Chemscore.Metal.Weighted>
-0.0000

> <Gold.Chemscore.Lipo.Weighted>
-11.2065

> <Gold.Chemscore.Internal_Hbond.Weighted>
0.0000

> <Gold.Chemscore.DEClash.Weighted>
0.0015

> <Gold.Chemscore.DEInternal.Weighted>
0.2738

> <Gold.Chemscore.Rot.Weighted>
4.1482

> <Gold.Chemscore.Internal.Correction.Weighted>
   9.000000E+99

> <Gold.Protein.RotatedTorsions>
[ 6907 6896 6895 6894 ] final  111.94 input  -60.11 | X-H torsion
[ 7974 7965 7964 7962 ] final -177.55 input  175.53 | X-H torsion
[ 8008 7997 7996 7995 ] final  -91.31 input   59.86 | X-H torsion
[ 10167 10162 10161 10158 ] final   98.69 input  -65.29 | X-H torsion
[ 10718 10713 10712 10709 ] final   15.78 input   66.30 | X-H torsion
[ 10763 10752 10751 10750 ] final  -36.31 input  -60.55 | X-H torsion
[ 11005 11000 10999 10996 ] final  -93.43 input  -57.11 | X-H torsion

> <Gold.Protein.ActiveResidues>
 VAL166  LYS551  ARG553  GLY616  TRP617  ASP618  TYR619  PRO620  LYS621  CYS622 
 ASP623  PHE694  ASN695  SER759  ASP760  ASP761  ALA762  ILE779  LEU786  VAL792 
 PHE793  MET794  SER795  GLU796  ALA797  LYS798  CYS799  TRP800  GLU811  SER814 

> <Gold.Protein.RotatedAtoms>
  152.4943  133.8586  159.7238 H   0  0  0  0  0  0  0  0  0  0  0  0  # atno 6907 bound_to 6896
  150.9104  133.6996  159.2863 H   0  0  0  0  0  0  0  0  0  0  0  0  # atno 6908 bound_to 6896
  151.4407  135.1024  159.9722 H   0  0  0  0  0  0  0  0  0  0  0  0  # atno 6909 bound_to 6896
  144.7128  140.1003  143.6417 H   0  0  0  0  0  0  0  0  0  0  0  0  # atno 7974 bound_to 7965
  154.7092  140.0521  157.0534 H   0  0  0  0  0  0  0  0  0  0  0  0  # atno 8008 bound_to 7997
  155.0578  140.3186  155.4652 H   0  0  0  0  0  0  0  0  0  0  0  0  # atno 8009 bound_to 7997
  156.2784  140.2104  156.5704 H   0  0  0  0  0  0  0  0  0  0  0  0  # atno 8010 bound_to 7997
  139.7686  144.6930  151.0189 H   0  0  0  0  0  0  0  0  0  0  0  0  # atno 10167 bound_to 10162
  157.0584  130.6299  149.5781 H   0  0  0  0  0  0  0  0  0  0  0  0  # atno 10718 bound_to 10713
  153.8776  135.6825  153.4769 H   0  0  0  0  0  0  0  0  0  0  0  0  # atno 10763 bound_to 10752
  153.1252  135.4722  154.9258 H   0  0  0  0  0  0  0  0  0  0  0  0  # atno 10764 bound_to 10752
  154.7684  135.3231  154.8191 H   0  0  0  0  0  0  0  0  0  0  0  0  # atno 10765 bound_to 10752
  141.1497  133.7887  157.0158 H   0  0  0  0  0  0  0  0  0  0  0  0  # atno 11005 bound_to 11000
  145.9543  139.2756  143.1193 LP  0  0  0  0  0  0  0  0  0  0  0  0  # atno 17320 bound_to 7965
  145.9289  140.9063  143.0367 LP  0  0  0  0  0  0  0  0  0  0  0  0  # atno 17321 bound_to 7965
  140.7812  143.4615  151.0272 LP  0  0  0  0  0  0  0  0  0  0  0  0  # atno 17342 bound_to 10162
  139.8299  143.7705  152.3179 LP  0  0  0  0  0  0  0  0  0  0  0  0  # atno 17343 bound_to 10162
  155.9986  130.5060  150.7576 LP  0  0  0  0  0  0  0  0  0  0  0  0  # atno 17370 bound_to 10713
  157.4974  131.0916  151.0355 LP  0  0  0  0  0  0  0  0  0  0  0  0  # atno 17371 bound_to 10713
  140.0848  134.9627  157.1682 LP  0  0  0  0  0  0  0  0  0  0  0  0  # atno 17394 bound_to 11000
  140.3527  134.2581  155.7196 LP  0  0  0  0  0  0  0  0  0  0  0  0  # atno 17395 bound_to 11000

$$$$
