AV-unprocessed.smi:1961|AV-procd|sdf|7920|dock3
  -GOLD-   2272010 83D 1   1.00000     0.00000
 Structure written by MMmdl.
 35 36  0  0  0  0  0  0  0  0  2 V2000
  151.1680  141.0502  158.4595 C   0  0  0  0  0  0  0  0  0  0  0  0
  151.1122  141.3169  156.9481 C   0  0  0  0  0  0  0  0  0  0  0  0
  149.8393  142.0566  156.5119 C   0  0  0  0  0  0  0  0  0  0  0  0
  151.3446  140.0748  156.1461 C   0  0  0  0  0  0  0  0  0  0  0  0
  152.4118  139.9008  155.3605 N   0  0  0  0  0  0  0  0  0  0  0  0
  152.3996  138.6684  154.7242 N   0  0  0  0  0  0  0  0  0  0  0  0
  151.3330  137.9226  155.0440 C   0  0  0  0  0  0  0  0  0  0  0  0
  151.1313  136.6964  154.5343 N   0  5  0  0  0  0  0  0  0  0  0  0
  150.2873  135.8384  155.1511 C   0  0  0  0  0  0  0  0  0  0  0  0
  150.3501  135.4705  156.3267 O   0  0  0  0  0  0  0  0  0  0  0  0
  149.3067  135.3823  154.3588 N   0  0  0  0  0  0  0  0  0  0  0  0
  148.2465  134.4623  154.7554 C   0  0  0  0  0  0  0  0  0  0  0  0
  148.0185  133.3713  153.6961 C   0  0  2  0  0  0  0  0  0  0  0  0
  147.0959  133.7966  152.5565 C   0  0  0  0  0  0  0  0  0  0  0  0
  146.5378  132.4780  152.0428 C   0  0  0  0  0  0  0  0  0  0  0  0
  146.8574  131.4769  153.1576 C   0  0  0  0  0  0  0  0  0  0  0  0
  147.3185  132.2657  154.2451 O   0  0  0  0  0  0  0  0  0  0  0  0
  150.2293  138.7184  156.1649 S   0  0  0  0  0  0  0  0  0  0  0  0
  152.1196  140.5990  158.7428 H   0  0  0  0  0  0  0  0  0  0  0  0
  150.3721  140.3736  158.7725 H   0  0  0  0  0  0  0  0  0  0  0  0
  151.0587  141.9754  159.0258 H   0  0  0  0  0  0  0  0  0  0  0  0
  151.9449  141.9852  156.7257 H   0  0  0  0  0  0  0  0  0  0  0  0
  149.8754  142.3040  155.4504 H   0  0  0  0  0  0  0  0  0  0  0  0
  149.7173  142.9885  157.0644 H   0  0  0  0  0  0  0  0  0  0  0  0
  148.9492  141.4500  156.6818 H   0  0  0  0  0  0  0  0  0  0  0  0
  149.2902  135.7125  153.4051 H   0  0  0  0  0  0  0  0  0  0  0  0
  148.5209  134.0106  155.7089 H   0  0  0  0  0  0  0  0  0  0  0  0
  147.3241  135.0182  154.9305 H   0  0  0  0  0  0  0  0  0  0  0  0
  148.9689  133.0246  153.2854 H   0  0  0  0  0  0  0  0  0  0  0  0
  146.2812  134.4120  152.9406 H   0  0  0  0  0  0  0  0  0  0  0  0
  147.6153  134.3681  151.7867 H   0  0  0  0  0  0  0  0  0  0  0  0
  145.4655  132.5530  151.8606 H   0  0  0  0  0  0  0  0  0  0  0  0
  147.0174  132.1779  151.1104 H   0  0  0  0  0  0  0  0  0  0  0  0
  145.9926  130.8790  153.4456 H   0  0  0  0  0  0  0  0  0  0  0  0
  147.6529  130.7981  152.8467 H   0  0  0  0  0  0  0  0  0  0  0  0
  1  2  1  0  0  0  0
  1 19  1  0  0  0  0
  1 20  1  0  0  0  0
  1 21  1  0  0  0  0
  2  3  1  0  0  0  0
  2  4  1  0  0  0  0
  2 22  1  0  0  0  0
  3 23  1  0  0  0  0
  3 24  1  0  0  0  0
  3 25  1  0  0  0  0
  4 18  1  0  0  0  0
  4  5  2  0  0  0  0
  5  6  1  0  0  0  0
  6  7  2  0  0  0  0
  7  8  1  0  0  0  0
  7 18  1  0  0  0  0
  8  9  1  0  0  0  0
  9 10  2  0  0  0  0
  9 11  1  0  0  0  0
 11 12  1  0  0  0  0
 11 26  1  0  0  0  0
 12 13  1  0  0  0  0
 12 27  1  0  0  0  0
 12 28  1  0  0  0  0
 13 17  1  0  0  0  0
 13 14  1  0  0  0  0
 13 29  1  0  0  0  0
 14 15  1  0  0  0  0
 14 30  1  0  0  0  0
 14 31  1  0  0  0  0
 15 16  1  0  0  0  0
 15 32  1  0  0  0  0
 15 33  1  0  0  0  0
 16 17  1  0  0  0  0
 16 34  1  0  0  0  0
 16 35  1  0  0  0  0
M  CHG  1   8  -1
M  END
> <s_m_source_file>
AV-unprocessed.smi

> <i_m_source_file_index>
1961

> <i_lp_mmshare_version>
43012

> <i_f3d_flags>
0

> <s_epik_input>
W0NIM11bQ0hdKFtDSDNdKWMxbm5jKHMxKVtOSF1DKD1PKVtOSF1bQ0gyXVtDQEBIXTJbQ0gyXVtDSDJdW0NIMl1PMg==

> <s_epik_cmdline>
J2VwaWtfcHl0aG9uJywgJy1waCcsICc3LjAnLCAnLXRuJywgJzgnLCAnLW1hJywgJzIwMCcsICctbWV0YWxfYmluZGluZycsICctaW1hZScsICc8aW5maWxlLm1hZT4nLCAnLW9tYWUnLCAnPG91dGZpbGUubWFlPic=

> <r_lp_tautomer_probability>
1

> <r_epik_Ionization_Penalty>
4.36179

> <r_epik_Ionization_Penalty_Charging>
4.21437

> <r_epik_Ionization_Penalty_Neutral>
0.147417

> <r_epik_State_Penalty>
4.21389

> <r_epik_Charging_Adjusted_Penalty>
8.42826

> <i_epik_Tot_Q>
-1

> <i_epik_Tot_abs_Q>
1

> <r_epik_Metal_State_Penalty>
0.693772

> <b_epik_Metal_Only>
1

> <s_lp_Force_Field>
OPLS_2005

> <r_lp_Energy>
8.68115

> <b_lp_Chiralities_Consistent>
1

> <s_lp_Variant>
AV-unprocessed.smi:1961-3

> <Gold.Version>
5.8.1

> <Gold.Id.Protein>
6NUR|6NUR_protein|mol2

> <Gold.PLP.Fitness>
37.1527

> <Gold.PLP.PLP>
-26.7417

> <Gold.PLP.part.hbond>
-4.0000

> <Gold.PLP.part.metal>
0.0000

> <Gold.PLP.part.buried>
-2.6686

> <Gold.PLP.part.nonpolar>
-20.3716

> <Gold.PLP.part.repulsive>
0.8789

> <Gold.PLP.ligand.clash>
0.0000

> <Gold.PLP.ligand.torsion>
0.9529

> <Gold.PLP.Chemscore.Hbond>
4.0512

> <Gold.PLP.Chemscore.CHOScore>
0.0000

> <Gold.PLP.Chemscore.Metal>
0.0000

> <Gold.Chemscore.Hbonds>
donor molecule, donor type, donor heavy atom, donor atom, acceptor molecule, acceptor atom, score
      L1  H    11    26       P1  7948  1.00
      P1  H  7989  7998       L1     5  0.18
      P1  H  7997  8009       L1     5  0.76
      P1  H 10752 10764       L1     8  1.26

> <Gold.PLP.Chemscore.Internal.Correction>
0.1633

> <Gold.Rescore>
     Score         DG    S(hbond)    S(metal)    S(lipo)     H(rot)  DE(clash)    DE(int)     intcor
     13.48     -14.68       2.20        0.00      47.01       1.42       0.03       1.17       ----

> <Gold.Chemscore.Fitness>
13.4800

> <Gold.Chemscore.DG>
-14.6781

> <Gold.Chemscore.ZeroCoef>
-5.4800

> <Gold.Chemscore.Hbond>
2.1951

> <Gold.Chemscore.Metal>
0.0000

> <Gold.Chemscore.Lipo>
47.0067

> <Gold.Chemscore.Internal_Hbond>
0.0000

> <Gold.Chemscore.DEClash>
0.0270

> <Gold.Chemscore.DEInternal>
1.1711

> <Gold.Chemscore.Rot>
1.4193

> <Gold.Chemscore.Internal.Correction>
   9.000000E+99

> <Gold.Chemscore.Hbonds>
donor molecule, donor type, donor heavy atom, donor atom, acceptor molecule, acceptor atom, score
      L1  H    11    26       P1  7948  0.45
      P1  H  7997  8009       L1     5  0.44
      P1  H 10752 10764       L1     8  0.36

> <Gold.Chemscore.Hbond.Weighted>
-7.3317

> <Gold.Chemscore.Metal.Weighted>
-0.0000

> <Gold.Chemscore.Lipo.Weighted>
-5.4998

> <Gold.Chemscore.Internal_Hbond.Weighted>
0.0000

> <Gold.Chemscore.DEClash.Weighted>
0.0270

> <Gold.Chemscore.DEInternal.Weighted>
1.1711

> <Gold.Chemscore.Rot.Weighted>
3.6333

> <Gold.Chemscore.Internal.Correction.Weighted>
   9.000000E+99

> <Gold.Protein.RotatedTorsions>
[ 6907 6896 6895 6894 ] final  -82.52 input  -60.11 | X-H torsion
[ 7974 7965 7964 7962 ] final  -22.05 input  175.53 | X-H torsion
[ 8008 7997 7996 7995 ] final -155.95 input   59.86 | X-H torsion
[ 10167 10162 10161 10158 ] final   32.48 input  -65.29 | X-H torsion
[ 10718 10713 10712 10709 ] final  162.19 input   66.30 | X-H torsion
[ 10763 10752 10751 10750 ] final  -92.86 input  -60.55 | X-H torsion
[ 11005 11000 10999 10996 ] final  -32.31 input  -57.11 | X-H torsion

> <Gold.Protein.ActiveResidues>
 VAL166  LYS551  ARG553  GLY616  TRP617  ASP618  TYR619  PRO620  LYS621  CYS622 
 ASP623  PHE694  ASN695  SER759  ASP760  ASP761  ALA762  ILE779  LEU786  VAL792 
 PHE793  MET794  SER795  GLU796  ALA797  LYS798  CYS799  TRP800  GLU811  SER814 

> <Gold.Protein.RotatedAtoms>
  150.6896  134.3652  159.4967 H   0  0  0  0  0  0  0  0  0  0  0  0  # atno 6907 bound_to 6896
  152.1475  134.9012  160.0559 H   0  0  0  0  0  0  0  0  0  0  0  0  # atno 6908 bound_to 6896
  152.0122  133.3831  159.4261 H   0  0  0  0  0  0  0  0  0  0  0  0  # atno 6909 bound_to 6896
  146.1698  140.4425  142.8537 H   0  0  0  0  0  0  0  0  0  0  0  0  # atno 7974 bound_to 7965
  155.7097  140.0777  157.2376 H   0  0  0  0  0  0  0  0  0  0  0  0  # atno 8008 bound_to 7997
  154.4060  140.1632  156.2335 H   0  0  0  0  0  0  0  0  0  0  0  0  # atno 8009 bound_to 7997
  155.9294  140.3392  155.6240 H   0  0  0  0  0  0  0  0  0  0  0  0  # atno 8010 bound_to 7997
  140.4495  144.1069  150.6189 H   0  0  0  0  0  0  0  0  0  0  0  0  # atno 10167 bound_to 10162
  157.1260  131.0504  151.2393 H   0  0  0  0  0  0  0  0  0  0  0  0  # atno 10718 bound_to 10713
  154.6902  135.5216  153.8382 H   0  0  0  0  0  0  0  0  0  0  0  0  # atno 10763 bound_to 10752
  153.0627  135.6574  154.0435 H   0  0  0  0  0  0  0  0  0  0  0  0  # atno 10764 bound_to 10752
  154.0310  135.2985  155.3348 H   0  0  0  0  0  0  0  0  0  0  0  0  # atno 10765 bound_to 10752
  140.9542  133.7203  156.1267 H   0  0  0  0  0  0  0  0  0  0  0  0  # atno 11005 bound_to 11000
  144.8146  140.6446  143.6393 LP  0  0  0  0  0  0  0  0  0  0  0  0  # atno 17320 bound_to 7965
  145.4370  139.1541  143.3991 LP  0  0  0  0  0  0  0  0  0  0  0  0  # atno 17321 bound_to 7965
  140.4224  143.2605  151.9699 LP  0  0  0  0  0  0  0  0  0  0  0  0  # atno 17342 bound_to 10162
  139.4795  144.5819  151.7919 LP  0  0  0  0  0  0  0  0  0  0  0  0  # atno 17343 bound_to 10162
  157.4435  130.7557  149.7089 LP  0  0  0  0  0  0  0  0  0  0  0  0  # atno 17370 bound_to 10713
  155.9818  130.4016  150.3451 LP  0  0  0  0  0  0  0  0  0  0  0  0  # atno 17371 bound_to 10713
  140.7560  134.3992  157.5534 LP  0  0  0  0  0  0  0  0  0  0  0  0  # atno 17394 bound_to 11000
  139.8857  134.8930  156.2629 LP  0  0  0  0  0  0  0  0  0  0  0  0  # atno 17395 bound_to 11000

$$$$
