AV-unprocessed.smi:1452|AV-procd|sdf|5909|dock8
  -GOLD-   22720 5593D 1   1.00000     0.00000
 Structure written by MMmdl.
 40 42  0  0  0  0  0  0  0  0  2 V2000
  149.8869  134.3515  155.9107 O   0  0  0  0  0  0  0  0  0  0  0  0
  149.5523  134.8208  154.8245 C   0  0  0  0  0  0  0  0  0  0  0  0
  150.0337  136.0071  154.3970 N   0  0  0  0  0  0  0  0  0  0  0  0
  150.9426  136.9232  155.0041 C   0  0  0  0  0  0  0  0  0  0  0  0
  150.9059  138.2301  154.4673 C   0  0  0  0  0  0  0  0  0  0  0  0
  151.7715  139.2168  154.9775 C   0  0  0  0  0  0  0  0  0  0  0  0
  152.6584  138.8708  156.0122 C   0  0  0  0  0  0  0  0  0  0  0  0
  152.6369  137.5475  156.4880 C   0  0  0  0  0  0  0  0  0  0  0  0
  151.8077  136.6003  156.0001 N   0  0  0  0  0  0  0  0  0  0  0  0
  148.6968  134.1991  153.9961 N   0  0  0  0  0  0  0  0  0  0  0  0
  148.0095  132.9379  154.2629 C   0  0  2  0  0  0  0  0  0  0  0  0
  148.9568  131.7229  154.2214 C   0  0  0  0  0  0  0  0  0  0  0  0
  148.1765  130.6456  153.4614 C   0  0  0  0  0  0  0  0  0  0  0  0
  147.3755  131.4277  152.5129 N   0  3  1  0  0  0  0  0  0  0  0  0
  146.3014  130.7433  151.7651 C   0  0  0  0  0  0  0  0  0  0  0  0
  145.7360  131.7240  150.7154 C   0  0  0  0  0  0  0  0  0  0  0  0
  145.3163  133.0736  151.3414 C   0  0  0  0  0  0  0  0  0  0  0  0
  146.4391  133.6733  152.2147 C   0  0  0  0  0  0  0  0  0  0  0  0
  146.8970  132.6173  153.2377 C   0  0  2  0  0  0  0  0  0  0  0  0
  149.7641  136.2527  153.4554 H   0  0  0  0  0  0  0  0  0  0  0  0
  150.2206  138.4799  153.6701 H   0  0  0  0  0  0  0  0  0  0  0  0
  151.7554  140.2209  154.5801 H   0  0  0  0  0  0  0  0  0  0  0  0
  153.3381  139.5995  156.4287 H   0  0  0  0  0  0  0  0  0  0  0  0
  153.3034  137.2396  157.2800 H   0  0  0  0  0  0  0  0  0  0  0  0
  148.4838  134.6584  153.1216 H   0  0  0  0  0  0  0  0  0  0  0  0
  147.5592  132.9772  155.2567 H   0  0  0  0  0  0  0  0  0  0  0  0
  149.8635  131.9678  153.6656 H   0  0  0  0  0  0  0  0  0  0  0  0
  149.2607  131.3926  155.2153 H   0  0  0  0  0  0  0  0  0  0  0  0
  148.8272  129.9315  152.9561 H   0  0  0  0  0  0  0  0  0  0  0  0
  147.5175  130.0990  154.1377 H   0  0  0  0  0  0  0  0  0  0  0  0
  146.7019  129.8558  151.2741 H   0  0  0  0  0  0  0  0  0  0  0  0
  145.5192  130.4107  152.4494 H   0  0  0  0  0  0  0  0  0  0  0  0
  146.4954  131.9077  149.9542 H   0  0  0  0  0  0  0  0  0  0  0  0
  144.8890  131.2715  150.1986 H   0  0  0  0  0  0  0  0  0  0  0  0
  145.0339  133.7783  150.5586 H   0  0  0  0  0  0  0  0  0  0  0  0
  144.4262  132.9235  151.9539 H   0  0  0  0  0  0  0  0  0  0  0  0
  147.2750  133.9835  151.5859 H   0  0  0  0  0  0  0  0  0  0  0  0
  146.0741  134.5663  152.7230 H   0  0  0  0  0  0  0  0  0  0  0  0
  146.0233  132.3158  153.8199 H   0  0  0  0  0  0  0  0  0  0  0  0
  148.0318  131.7680  151.8248 H   0  0  0  0  0  0  0  0  0  0  0  0
  1  2  2  0  0  0  0
  2  3  1  0  0  0  0
  2 10  1  0  0  0  0
  3  4  1  0  0  0  0
  3 20  1  0  0  0  0
  4  9  1  0  0  0  0
  4  5  2  0  0  0  0
  5  6  1  0  0  0  0
  5 21  1  0  0  0  0
  6  7  2  0  0  0  0
  6 22  1  0  0  0  0
  7  8  1  0  0  0  0
  7 23  1  0  0  0  0
  8  9  2  0  0  0  0
  8 24  1  0  0  0  0
 10 11  1  0  0  0  0
 10 25  1  0  0  0  0
 11 19  1  0  0  0  0
 11 12  1  0  0  0  0
 11 26  1  0  0  0  0
 12 13  1  0  0  0  0
 12 27  1  0  0  0  0
 12 28  1  0  0  0  0
 13 14  1  0  0  0  0
 13 29  1  0  0  0  0
 13 30  1  0  0  0  0
 14 19  1  0  0  0  0
 14 15  1  0  0  0  0
 14 40  1  0  0  0  0
 15 16  1  0  0  0  0
 15 31  1  0  0  0  0
 15 32  1  0  0  0  0
 16 17  1  0  0  0  0
 16 33  1  0  0  0  0
 16 34  1  0  0  0  0
 17 18  1  0  0  0  0
 17 35  1  0  0  0  0
 17 36  1  0  0  0  0
 18 19  1  0  0  0  0
 18 37  1  0  0  0  0
 18 38  1  0  0  0  0
 19 39  1  0  0  0  0
M  CHG  1  14   1
M  END
> <s_m_source_file>
AV-unprocessed.smi

> <i_m_source_file_index>
1452

> <i_lp_mmshare_version>
43012

> <i_f3d_flags>
0

> <s_epik_input>
W0NIMl0xW0NIMl1bQ0gyXVtDSDJdW0NASF0oTjEyKVtDQEBIXShbQ0gyXVtDSDJdMilbTkhdQyg9TylbTkhdYzNbY0hdW2NIXVtjSF1bY0hdbjM=

> <s_epik_cmdline>
J2VwaWtfcHl0aG9uJywgJy1waCcsICc3LjAnLCAnLXRuJywgJzgnLCAnLW1hJywgJzIwMCcsICctbWV0YWxfYmluZGluZycsICctaW1hZScsICc8aW5maWxlLm1hZT4nLCAnLW9tYWUnLCAnPG91dGZpbGUubWFlPic=

> <r_epik_Ionization_Penalty>
0.00100813

> <r_epik_Ionization_Penalty_Charging>
0.000974069

> <r_epik_Ionization_Penalty_Neutral>
3.40643e-05

> <r_epik_State_Penalty>
0.000633842

> <r_epik_Charging_Adjusted_Penalty>
0.00160791

> <i_epik_Tot_Q>
1

> <i_epik_Tot_abs_Q>
1

> <r_epik_Metal_State_Penalty>
-0

> <b_epik_Metal_Only>
0

> <s_lp_Force_Field>
OPLS_2005

> <r_lp_Energy>
45.6992

> <b_lp_Chiralities_Consistent>
1

> <s_lp_Variant>
AV-unprocessed.smi:1452-7

> <Gold.Version>
5.8.1

> <Gold.Id.Protein>
6NUR|6NUR_protein|mol2

> <Gold.PLP.Fitness>
41.8338

> <Gold.PLP.PLP>
-31.6644

> <Gold.PLP.part.hbond>
-4.7489

> <Gold.PLP.part.metal>
0.0000

> <Gold.PLP.part.buried>
-0.6217

> <Gold.PLP.part.nonpolar>
-26.5139

> <Gold.PLP.part.repulsive>
0.1041

> <Gold.PLP.ligand.clash>
0.0000

> <Gold.PLP.ligand.torsion>
0.1926

> <Gold.PLP.Chemscore.Hbond>
3.5180

> <Gold.PLP.Chemscore.CHOScore>
0.0000

> <Gold.PLP.Chemscore.Metal>
0.0000

> <Gold.Chemscore.Hbonds>
donor molecule, donor type, donor heavy atom, donor atom, acceptor molecule, acceptor atom, score
      L1  H     3    20       P1  7948  0.95
      L1  H    10    25       P1  7948  0.90
      L1  H    14    40       P1 10747  0.66
      P1  H 10752 10765       L1     9  1.00

> <Gold.PLP.Chemscore.Internal.Correction>
0.0006

> <Gold.Rescore>
     Score         DG    S(hbond)    S(metal)    S(lipo)     H(rot)  DE(clash)    DE(int)     intcor
     18.05     -19.27       2.26        0.00      75.19       1.00       0.11       1.12       ----

> <Gold.Chemscore.Fitness>
18.0473

> <Gold.Chemscore.DG>
-19.2747

> <Gold.Chemscore.ZeroCoef>
-5.4800

> <Gold.Chemscore.Hbond>
2.2626

> <Gold.Chemscore.Metal>
0.0000

> <Gold.Chemscore.Lipo>
75.1926

> <Gold.Chemscore.Internal_Hbond>
0.0000

> <Gold.Chemscore.DEClash>
0.1081

> <Gold.Chemscore.DEInternal>
1.1194

> <Gold.Chemscore.Rot>
1.0000

> <Gold.Chemscore.Internal.Correction>
   9.000000E+99

> <Gold.Chemscore.Hbonds>
donor molecule, donor type, donor heavy atom, donor atom, acceptor molecule, acceptor atom, score
      L1  H     3    20       P1  7948  0.22
      L1  H    10    25       P1  7948  0.37
      L1  H    14    40       P1 10747  0.60
      P1  H 10752 10765       L1     9  0.08

> <Gold.Chemscore.Hbond.Weighted>
-7.5572

> <Gold.Chemscore.Metal.Weighted>
-0.0000

> <Gold.Chemscore.Lipo.Weighted>
-8.7975

> <Gold.Chemscore.Internal_Hbond.Weighted>
0.0000

> <Gold.Chemscore.DEClash.Weighted>
0.1081

> <Gold.Chemscore.DEInternal.Weighted>
1.1194

> <Gold.Chemscore.Rot.Weighted>
2.5600

> <Gold.Chemscore.Internal.Correction.Weighted>
   9.000000E+99

> <Gold.Protein.RotatedTorsions>
[ 6907 6896 6895 6894 ] final   45.05 input  -60.11 | X-H torsion
[ 7974 7965 7964 7962 ] final   68.40 input  175.53 | X-H torsion
[ 8008 7997 7996 7995 ] final -126.00 input   59.86 | X-H torsion
[ 10167 10162 10161 10158 ] final   67.80 input  -65.29 | X-H torsion
[ 10718 10713 10712 10709 ] final -165.42 input   66.30 | X-H torsion
[ 10763 10752 10751 10750 ] final -153.59 input  -60.55 | X-H torsion
[ 11005 11000 10999 10996 ] final   21.97 input  -57.11 | X-H torsion

> <Gold.Protein.ActiveResidues>
 VAL166  LYS551  ARG553  GLY616  TRP617  ASP618  TYR619  PRO620  LYS621  CYS622 
 ASP623  PHE694  ASN695  SER759  ASP760  ASP761  ALA762  ILE779  LEU786  VAL792 
 PHE793  MET794  SER795  GLU796  ALA797  LYS798  CYS799  TRP800  GLU811  SER814 

> <Gold.Protein.RotatedAtoms>
  152.2399  134.8239  160.0461 H   0  0  0  0  0  0  0  0  0  0  0  0  # atno 6907 bound_to 6896
  151.8957  133.3521  159.3821 H   0  0  0  0  0  0  0  0  0  0  0  0  # atno 6908 bound_to 6896
  150.7050  134.4805  159.5512 H   0  0  0  0  0  0  0  0  0  0  0  0  # atno 6909 bound_to 6896
  145.8031  139.2992  143.1143 H   0  0  0  0  0  0  0  0  0  0  0  0  # atno 7974 bound_to 7965
  155.2226  140.0422  157.2950 H   0  0  0  0  0  0  0  0  0  0  0  0  # atno 8008 bound_to 7997
  154.5940  140.2434  155.7853 H   0  0  0  0  0  0  0  0  0  0  0  0  # atno 8009 bound_to 7997
  156.2278  140.2948  156.0119 H   0  0  0  0  0  0  0  0  0  0  0  0  # atno 8010 bound_to 7997
  140.0855  144.5033  150.7133 H   0  0  0  0  0  0  0  0  0  0  0  0  # atno 10167 bound_to 10162
  156.6531  130.9016  151.3016 H   0  0  0  0  0  0  0  0  0  0  0  0  # atno 10718 bound_to 10713
  154.7917  135.3209  154.7761 H   0  0  0  0  0  0  0  0  0  0  0  0  # atno 10763 bound_to 10752
  153.8449  135.6867  153.4803 H   0  0  0  0  0  0  0  0  0  0  0  0  # atno 10764 bound_to 10752
  153.1590  135.4668  154.9686 H   0  0  0  0  0  0  0  0  0  0  0  0  # atno 10765 bound_to 10752
  140.3857  134.1873  155.7663 H   0  0  0  0  0  0  0  0  0  0  0  0  # atno 11005 bound_to 11000
  145.9857  140.8645  143.0092 LP  0  0  0  0  0  0  0  0  0  0  0  0  # atno 17320 bound_to 7965
  144.6766  140.2143  143.7373 LP  0  0  0  0  0  0  0  0  0  0  0  0  # atno 17321 bound_to 7965
  140.7055  143.2465  151.4738 LP  0  0  0  0  0  0  0  0  0  0  0  0  # atno 17342 bound_to 10162
  139.5754  144.1830  152.1896 LP  0  0  0  0  0  0  0  0  0  0  0  0  # atno 17343 bound_to 10162
  157.7134  130.9468  150.1169 LP  0  0  0  0  0  0  0  0  0  0  0  0  # atno 17370 bound_to 10713
  156.2068  130.3664  149.8719 LP  0  0  0  0  0  0  0  0  0  0  0  0  # atno 17371 bound_to 10713
  141.1908  133.8208  157.0903 LP  0  0  0  0  0  0  0  0  0  0  0  0  # atno 17394 bound_to 11000
  140.0445  134.9837  157.1023 LP  0  0  0  0  0  0  0  0  0  0  0  0  # atno 17395 bound_to 11000

$$$$
