AV-unprocessed.smi:1064|AV-procd|sdf|4664|dock10
  -GOLD-   22720 3173D 1   1.00000     0.00000
 Structure written by MMmdl.
 35 36  0  0  0  0  0  0  0  0  1 V2000
  150.1714  140.2713  154.5286 O   0  0  0  0  0  0  0  0  0  0  0  0
  149.3832  141.1668  154.8370 C   0  0  0  0  0  0  0  0  0  0  0  0
  149.6680  142.0706  155.7900 N   0  0  0  0  0  0  0  0  0  0  0  0
  150.8898  142.0941  156.5850 C   0  0  0  0  0  0  0  0  0  0  0  0
  150.6338  141.6121  158.0220 C   0  0  0  0  0  0  0  0  0  0  0  0
  151.8242  141.8005  158.9093 C   0  0  0  0  0  0  0  0  0  0  0  0
  152.4771  140.7951  159.4842 N   0  0  0  0  0  0  0  0  0  0  0  0
  153.4733  141.4041  160.2386 C   0  0  0  0  0  0  0  0  0  0  0  0
  153.3820  142.7674  160.0977 C   0  0  0  0  0  0  0  0  0  0  0  0
  152.3194  143.0114  159.2348 N   0  0  0  0  0  0  0  0  0  0  0  0
  151.8358  144.3159  158.8112 C   0  0  0  0  0  0  0  0  0  0  0  0
  151.5770  145.0727  159.8769 F   0  0  0  0  0  0  0  0  0  0  0  0
  152.7381  144.9231  158.0397 F   0  0  0  0  0  0  0  0  0  0  0  0
  148.1824  141.3410  154.2288 N   0  0  0  0  0  0  0  0  0  0  0  0
  147.2727  142.4809  154.4305 C   0  0  0  0  0  0  0  0  0  0  0  0
  146.2282  142.1082  155.4958 C   0  0  0  0  0  0  0  0  0  0  0  0
  145.2040  140.7090  154.9422 S   0  0  0  0  0  0  0  0  0  0  0  0
  146.5127  139.5555  154.4220 C   0  0  0  0  0  0  0  0  0  0  0  0
  147.5274  140.2500  153.4975 C   0  0  0  0  0  0  0  0  0  0  0  0
  148.9849  142.7893  155.9805 H   0  0  0  0  0  0  0  0  0  0  0  0
  151.6574  141.4850  156.1051 H   0  0  0  0  0  0  0  0  0  0  0  0
  151.2698  143.1160  156.5979 H   0  0  0  0  0  0  0  0  0  0  0  0
  149.7956  142.1640  158.4497 H   0  0  0  0  0  0  0  0  0  0  0  0
  150.3350  140.5646  158.0282 H   0  0  0  0  0  0  0  0  0  0  0  0
  154.1681  140.8206  160.8245 H   0  0  0  0  0  0  0  0  0  0  0  0
  153.9704  143.5623  160.5319 H   0  0  0  0  0  0  0  0  0  0  0  0
  150.9226  144.2156  158.2251 H   0  0  0  0  0  0  0  0  0  0  0  0
  147.7895  143.3956  154.7211 H   0  0  0  0  0  0  0  0  0  0  0  0
  146.7741  142.7277  153.4922 H   0  0  0  0  0  0  0  0  0  0  0  0
  146.7177  141.8442  156.4339 H   0  0  0  0  0  0  0  0  0  0  0  0
  145.5759  142.9567  155.7031 H   0  0  0  0  0  0  0  0  0  0  0  0
  147.0122  139.1604  155.3074 H   0  0  0  0  0  0  0  0  0  0  0  0
  146.0509  138.7100  153.9121 H   0  0  0  0  0  0  0  0  0  0  0  0
  147.0243  140.6395  152.6113 H   0  0  0  0  0  0  0  0  0  0  0  0
  148.2494  139.5230  153.1230 H   0  0  0  0  0  0  0  0  0  0  0  0
  1  2  2  0  0  0  0
  2  3  1  0  0  0  0
  2 14  1  0  0  0  0
  3  4  1  0  0  0  0
  3 20  1  0  0  0  0
  4  5  1  0  0  0  0
  4 21  1  0  0  0  0
  4 22  1  0  0  0  0
  5  6  1  0  0  0  0
  5 23  1  0  0  0  0
  5 24  1  0  0  0  0
  6 10  1  0  0  0  0
  6  7  2  0  0  0  0
  7  8  1  0  0  0  0
  8  9  2  0  0  0  0
  8 25  1  0  0  0  0
  9 10  1  0  0  0  0
  9 26  1  0  0  0  0
 10 11  1  0  0  0  0
 11 12  1  0  0  0  0
 11 13  1  0  0  0  0
 11 27  1  0  0  0  0
 14 19  1  0  0  0  0
 14 15  1  0  0  0  0
 15 16  1  0  0  0  0
 15 28  1  0  0  0  0
 15 29  1  0  0  0  0
 16 17  1  0  0  0  0
 16 30  1  0  0  0  0
 16 31  1  0  0  0  0
 17 18  1  0  0  0  0
 18 19  1  0  0  0  0
 18 32  1  0  0  0  0
 18 33  1  0  0  0  0
 19 34  1  0  0  0  0
 19 35  1  0  0  0  0
M  END
> <s_m_source_file>
AV-unprocessed.smi

> <i_m_source_file_index>
1064

> <i_lp_mmshare_version>
43012

> <i_f3d_flags>
0

> <s_epik_input>
W0NIMl0xW0NIMl1TW0NIMl1bQ0gyXU4xQyg9TylbTkhdW0NIMl1bQ0gyXWMybltjSF1bY0hdbjJbQ0hdKEYpRg==

> <s_epik_cmdline>
J2VwaWtfcHl0aG9uJywgJy1waCcsICc3LjAnLCAnLXRuJywgJzgnLCAnLW1hJywgJzIwMCcsICctbWV0YWxfYmluZGluZycsICctaW1hZScsICc8aW5maWxlLm1hZT4nLCAnLW9tYWUnLCAnPG91dGZpbGUubWFlPic=

> <r_lp_tautomer_probability>
1

> <r_epik_Ionization_Penalty>
0.100551

> <r_epik_Ionization_Penalty_Charging>
0.100507

> <r_epik_Ionization_Penalty_Neutral>
4.37624e-05

> <r_epik_State_Penalty>
0.0905262

> <r_epik_Charging_Adjusted_Penalty>
0.191033

> <i_epik_Tot_Q>
0

> <i_epik_Tot_abs_Q>
0

> <r_epik_Metal_State_Penalty>
0.077291

> <b_epik_Metal_Only>
0

> <s_lp_Force_Field>
OPLS_2005

> <r_lp_Energy>
25.4045

> <b_lp_Chiralities_Consistent>
1

> <s_lp_Variant>
AV-unprocessed.smi:1064-1

> <Gold.Version>
5.8.1

> <Gold.Id.Protein>
6NUR|6NUR_protein|mol2

> <Gold.PLP.Fitness>
49.8866

> <Gold.PLP.PLP>
-45.1576

> <Gold.PLP.part.hbond>
-2.0000

> <Gold.PLP.part.metal>
0.0000

> <Gold.PLP.part.buried>
-2.1219

> <Gold.PLP.part.nonpolar>
-41.3720

> <Gold.PLP.part.repulsive>
0.2325

> <Gold.PLP.ligand.clash>
0.0000

> <Gold.PLP.ligand.torsion>
0.2973

> <Gold.PLP.Chemscore.Hbond>
1.7520

> <Gold.PLP.Chemscore.CHOScore>
0.0000

> <Gold.PLP.Chemscore.Metal>
0.0000

> <Gold.Chemscore.Hbonds>
donor molecule, donor type, donor heavy atom, donor atom, acceptor molecule, acceptor atom, score
      L1  H     3    20       P1  8028  0.70
      P1  H  7989  7998       L1     1  1.00

> <Gold.PLP.Chemscore.Internal.Correction>
0.0675

> <Gold.Rescore>
     Score         DG    S(hbond)    S(metal)    S(lipo)     H(rot)  DE(clash)    DE(int)     intcor
     13.84     -14.52       1.51        0.00      69.29       1.61       0.36       0.32       ----

> <Gold.Chemscore.Fitness>
13.8402

> <Gold.Chemscore.DG>
-14.5156

> <Gold.Chemscore.ZeroCoef>
-5.4800

> <Gold.Chemscore.Hbond>
1.5119

> <Gold.Chemscore.Metal>
0.0000

> <Gold.Chemscore.Lipo>
69.2944

> <Gold.Chemscore.Internal_Hbond>
0.0000

> <Gold.Chemscore.DEClash>
0.3587

> <Gold.Chemscore.DEInternal>
0.3167

> <Gold.Chemscore.Rot>
1.6100

> <Gold.Chemscore.Internal.Correction>
   9.000000E+99

> <Gold.Chemscore.Hbonds>
donor molecule, donor type, donor heavy atom, donor atom, acceptor molecule, acceptor atom, score
      L1  H     3    20       P1  8028  0.69
      P1  H  7989  7998       L1     1  0.81

> <Gold.Chemscore.Hbond.Weighted>
-5.0497

> <Gold.Chemscore.Metal.Weighted>
-0.0000

> <Gold.Chemscore.Lipo.Weighted>
-8.1074

> <Gold.Chemscore.Internal_Hbond.Weighted>
0.0000

> <Gold.Chemscore.DEClash.Weighted>
0.3587

> <Gold.Chemscore.DEInternal.Weighted>
0.3167

> <Gold.Chemscore.Rot.Weighted>
4.1216

> <Gold.Chemscore.Internal.Correction.Weighted>
   9.000000E+99

> <Gold.Protein.RotatedTorsions>
[ 6907 6896 6895 6894 ] final -127.71 input  -60.11 | X-H torsion
[ 7974 7965 7964 7962 ] final   82.56 input  175.53 | X-H torsion
[ 8008 7997 7996 7995 ] final   95.29 input   59.86 | X-H torsion
[ 10167 10162 10161 10158 ] final   -5.97 input  -65.29 | X-H torsion
[ 10718 10713 10712 10709 ] final  155.84 input   66.30 | X-H torsion
[ 10763 10752 10751 10750 ] final   32.15 input  -60.55 | X-H torsion
[ 11005 11000 10999 10996 ] final  -95.91 input  -57.11 | X-H torsion

> <Gold.Protein.ActiveResidues>
 VAL166  LYS551  ARG553  GLY616  TRP617  ASP618  TYR619  PRO620  LYS621  CYS622 
 ASP623  PHE694  ASN695  SER759  ASP760  ASP761  ALA762  ILE779  LEU786  VAL792 
 PHE793  MET794  SER795  GLU796  ALA797  LYS798  CYS799  TRP800  GLU811  SER814 

> <Gold.Protein.RotatedAtoms>
  150.9102  133.7007  159.2856 H   0  0  0  0  0  0  0  0  0  0  0  0  # atno 6907 bound_to 6896
  151.4497  135.1027  159.9704 H   0  0  0  0  0  0  0  0  0  0  0  0  # atno 6908 bound_to 6896
  152.4925  133.8490  159.7247 H   0  0  0  0  0  0  0  0  0  0  0  0  # atno 6909 bound_to 6896
  145.6234  139.2390  143.2125 H   0  0  0  0  0  0  0  0  0  0  0  0  # atno 7974 bound_to 7965
  156.0673  140.3288  155.7533 H   0  0  0  0  0  0  0  0  0  0  0  0  # atno 8008 bound_to 7997
  155.5362  140.0597  157.2896 H   0  0  0  0  0  0  0  0  0  0  0  0  # atno 8009 bound_to 7997
  154.4511  140.1919  156.0533 H   0  0  0  0  0  0  0  0  0  0  0  0  # atno 8010 bound_to 7997
  140.6981  143.6248  150.8578 H   0  0  0  0  0  0  0  0  0  0  0  0  # atno 10167 bound_to 10162
  157.2130  131.0701  151.1958 H   0  0  0  0  0  0  0  0  0  0  0  0  # atno 10718 bound_to 10713
  153.0277  135.6420  154.1310 H   0  0  0  0  0  0  0  0  0  0  0  0  # atno 10763 bound_to 10752
  154.1037  135.2858  155.3247 H   0  0  0  0  0  0  0  0  0  0  0  0  # atno 10764 bound_to 10752
  154.6381  135.5469  153.7820 H   0  0  0  0  0  0  0  0  0  0  0  0  # atno 10765 bound_to 10752
  141.1428  133.8060  157.0499 H   0  0  0  0  0  0  0  0  0  0  0  0  # atno 11005 bound_to 11000
  146.1413  140.7054  142.9366 LP  0  0  0  0  0  0  0  0  0  0  0  0  # atno 17320 bound_to 7965
  144.7222  140.4409  143.7000 LP  0  0  0  0  0  0  0  0  0  0  0  0  # atno 17321 bound_to 7965
  139.9967  143.5788  152.2890 LP  0  0  0  0  0  0  0  0  0  0  0  0  # atno 17342 bound_to 10162
  139.6463  144.7658  151.2238 LP  0  0  0  0  0  0  0  0  0  0  0  0  # atno 17343 bound_to 10162
  157.3653  130.7153  149.6529 LP  0  0  0  0  0  0  0  0  0  0  0  0  # atno 17370 bound_to 10713
  155.9689  130.4214  150.4467 LP  0  0  0  0  0  0  0  0  0  0  0  0  # atno 17371 bound_to 10713
  140.0638  134.9740  157.1351 LP  0  0  0  0  0  0  0  0  0  0  0  0  # atno 17394 bound_to 11000
  140.3809  134.2288  155.7171 LP  0  0  0  0  0  0  0  0  0  0  0  0  # atno 17395 bound_to 11000

$$$$
