AV-unprocessed.smi:1534|AV-procd|sdf|6168|dock2
  -GOLD-   22720 6313D 1   1.00000     0.00000
 Structure written by MMmdl.
 37 38  0  0  0  0  0  0  0  0  2 V2000
  149.5253  134.2064  155.7905 O   0  0  0  0  0  0  0  0  0  0  0  0
  149.3747  134.7396  154.6929 C   0  0  0  0  0  0  0  0  0  0  0  0
  148.6213  134.2116  153.7130 N   0  0  0  0  0  0  0  0  0  0  0  0
  147.8833  132.9579  153.8104 C   0  0  0  0  0  0  0  0  0  0  0  0
  147.2731  132.5534  152.4576 C   0  0  0  0  0  0  0  0  0  0  0  0
  146.1773  133.5032  152.0155 C   0  0  0  0  0  0  0  0  0  0  0  0
  144.8189  133.1192  151.9876 C   0  0  0  0  0  0  0  0  0  0  0  0
  143.8485  134.0491  151.5592 C   0  0  0  0  0  0  0  0  0  0  0  0
  144.2565  135.3410  151.1671 C   0  0  0  0  0  0  0  0  0  0  0  0
  145.6267  135.6703  151.2125 C   0  0  0  0  0  0  0  0  0  0  0  0
  146.5262  134.7515  151.6281 N   0  3  0  0  0  0  0  0  0  0  0  0
  149.9517  135.9160  154.3901 N   0  0  0  0  0  0  0  0  0  0  0  0
  150.8219  136.7393  155.2307 C   0  0  2  0  0  0  0  0  0  0  0  0
  150.0359  137.3436  156.4091 C   0  0  0  0  0  0  0  0  0  0  0  0
  150.8738  138.4614  157.0433 C   0  0  0  0  0  0  0  0  0  0  0  0
  151.9044  139.1565  155.6957 S   0  0  0  0  0  0  0  0  0  0  0  0
  151.3706  140.4639  155.2849 O   0  0  0  0  0  0  0  0  0  0  0  0
  153.3224  138.9939  156.0506 O   0  0  0  0  0  0  0  0  0  0  0  0
  151.4476  137.9019  154.4429 C   0  0  0  0  0  0  0  0  0  0  0  0
  148.5533  134.7165  152.8412 H   0  0  0  0  0  0  0  0  0  0  0  0
  148.5709  132.1862  154.1576 H   0  0  0  0  0  0  0  0  0  0  0  0
  147.1045  133.0453  154.5702 H   0  0  0  0  0  0  0  0  0  0  0  0
  148.0442  132.5259  151.6864 H   0  0  0  0  0  0  0  0  0  0  0  0
  146.8651  131.5434  152.5187 H   0  0  0  0  0  0  0  0  0  0  0  0
  144.5225  132.1245  152.2880 H   0  0  0  0  0  0  0  0  0  0  0  0
  142.8044  133.7739  151.5305 H   0  0  0  0  0  0  0  0  0  0  0  0
  143.5292  136.0679  150.8354 H   0  0  0  0  0  0  0  0  0  0  0  0
  146.0272  136.6331  150.9310 H   0  0  0  0  0  0  0  0  0  0  0  0
  149.7468  136.2914  153.4751 H   0  0  0  0  0  0  0  0  0  0  0  0
  151.6211  136.1261  155.6512 H   0  0  0  0  0  0  0  0  0  0  0  0
  149.1066  137.7768  156.0359 H   0  0  0  0  0  0  0  0  0  0  0  0
  149.7598  136.5865  157.1439 H   0  0  0  0  0  0  0  0  0  0  0  0
  150.2641  139.2445  157.4944 H   0  0  0  0  0  0  0  0  0  0  0  0
  151.5425  138.0599  157.8051 H   0  0  0  0  0  0  0  0  0  0  0  0
  152.3265  137.6130  153.8667 H   0  0  0  0  0  0  0  0  0  0  0  0
  150.7220  138.3563  153.7674 H   0  0  0  0  0  0  0  0  0  0  0  0
  147.5127  135.0114  151.6521 H   0  0  0  0  0  0  0  0  0  0  0  0
  1  2  2  0  0  0  0
  2  3  1  0  0  0  0
  2 12  1  0  0  0  0
  3  4  1  0  0  0  0
  3 20  1  0  0  0  0
  4  5  1  0  0  0  0
  4 21  1  0  0  0  0
  4 22  1  0  0  0  0
  5  6  1  0  0  0  0
  5 23  1  0  0  0  0
  5 24  1  0  0  0  0
  6 11  1  0  0  0  0
  6  7  2  0  0  0  0
  7  8  1  0  0  0  0
  7 25  1  0  0  0  0
  8  9  2  0  0  0  0
  8 26  1  0  0  0  0
  9 10  1  0  0  0  0
  9 27  1  0  0  0  0
 10 11  2  0  0  0  0
 10 28  1  0  0  0  0
 11 37  1  0  0  0  0
 12 13  1  0  0  0  0
 12 29  1  0  0  0  0
 13 19  1  0  0  0  0
 13 14  1  0  0  0  0
 13 30  1  0  0  0  0
 14 15  1  0  0  0  0
 14 31  1  0  0  0  0
 14 32  1  0  0  0  0
 15 16  1  0  0  0  0
 15 33  1  0  0  0  0
 15 34  1  0  0  0  0
 16 17  2  0  0  0  0
 16 18  2  0  0  0  0
 16 19  1  0  0  0  0
 19 35  1  0  0  0  0
 19 36  1  0  0  0  0
M  CHG  1  11   1
M  END
> <s_m_source_file>
AV-unprocessed.smi

> <i_m_source_file_index>
1534

> <i_lp_mmshare_version>
43012

> <i_f3d_flags>
0

> <s_epik_input>
Tz1TMSg9TylbQ0gyXVtDSDJdW0NASF0oW0NIMl0xKVtOSF1DKD1PKVtOSF1bQ0gyXVtDSDJdYzJbY0hdW2NIXVtjSF1bY0hdbjI=

> <s_epik_cmdline>
J2VwaWtfcHl0aG9uJywgJy1waCcsICc3LjAnLCAnLXRuJywgJzgnLCAnLW1hJywgJzIwMCcsICctbWV0YWxfYmluZGluZycsICctaW1hZScsICc8aW5maWxlLm1hZT4nLCAnLW9tYWUnLCAnPG91dGZpbGUubWFlPic=

> <r_epik_Ionization_Penalty>
1.58466

> <r_epik_Ionization_Penalty_Charging>
1.58462

> <r_epik_Ionization_Penalty_Neutral>
3.4911e-05

> <r_epik_State_Penalty>
1.6815

> <r_epik_Charging_Adjusted_Penalty>
3.26612

> <i_epik_Tot_Q>
1

> <i_epik_Tot_abs_Q>
1

> <r_epik_Metal_State_Penalty>
1.72144

> <b_epik_Metal_Only>
0

> <s_lp_Force_Field>
OPLS_2005

> <r_lp_Energy>
16.0644

> <b_lp_Chiralities_Consistent>
1

> <s_lp_Variant>
AV-unprocessed.smi:1534-3

> <Gold.Version>
5.8.1

> <Gold.Id.Protein>
6NUR|6NUR_protein|mol2

> <Gold.PLP.Fitness>
49.2523

> <Gold.PLP.PLP>
-31.9479

> <Gold.PLP.part.hbond>
-5.4724

> <Gold.PLP.part.metal>
0.0000

> <Gold.PLP.part.buried>
-3.9589

> <Gold.PLP.part.nonpolar>
-22.3168

> <Gold.PLP.part.repulsive>
0.1649

> <Gold.PLP.ligand.clash>
0.0000

> <Gold.PLP.ligand.torsion>
0.2081

> <Gold.PLP.Chemscore.Hbond>
5.9040

> <Gold.PLP.Chemscore.CHOScore>
0.0000

> <Gold.PLP.Chemscore.Metal>
0.0000

> <Gold.Chemscore.Hbonds>
donor molecule, donor type, donor heavy atom, donor atom, acceptor molecule, acceptor atom, score
      L1  H     3    20       P1  7948  0.99
      L1  H    11    37       P1  7948  2.00
      L1  H    12    29       P1  7948  1.00
      P1  H  7989  7998       L1    17  0.91
      P1  H  7997  8010       L1    18  1.00

> <Gold.PLP.Chemscore.Internal.Correction>
0.0087

> <Gold.Rescore>
     Score         DG    S(hbond)    S(metal)    S(lipo)     H(rot)  DE(clash)    DE(int)     intcor
     19.84     -21.22       4.21        0.00      54.09       1.82       0.02       1.36       ----

> <Gold.Chemscore.Fitness>
19.8350

> <Gold.Chemscore.DG>
-21.2158

> <Gold.Chemscore.ZeroCoef>
-5.4800

> <Gold.Chemscore.Hbond>
4.2129

> <Gold.Chemscore.Metal>
0.0000

> <Gold.Chemscore.Lipo>
54.0922

> <Gold.Chemscore.Internal_Hbond>
0.0000

> <Gold.Chemscore.DEClash>
0.0234

> <Gold.Chemscore.DEInternal>
1.3574

> <Gold.Chemscore.Rot>
1.8220

> <Gold.Chemscore.Internal.Correction>
   9.000000E+99

> <Gold.Chemscore.Hbonds>
donor molecule, donor type, donor heavy atom, donor atom, acceptor molecule, acceptor atom, score
      L1  H     3    20       P1  7948  0.24
      L1  H    11    37       P1  7948  0.69
      L1  H    12    29       P1  7948  0.25
      P1  H  7989  7998       L1    17  0.80
      P1  H  7997  8010       L1    18  0.92

> <Gold.Chemscore.Hbond.Weighted>
-14.0712

> <Gold.Chemscore.Metal.Weighted>
-0.0000

> <Gold.Chemscore.Lipo.Weighted>
-6.3288

> <Gold.Chemscore.Internal_Hbond.Weighted>
0.0000

> <Gold.Chemscore.DEClash.Weighted>
0.0234

> <Gold.Chemscore.DEInternal.Weighted>
1.3574

> <Gold.Chemscore.Rot.Weighted>
4.6642

> <Gold.Chemscore.Internal.Correction.Weighted>
   9.000000E+99

> <Gold.Protein.RotatedTorsions>
[ 6907 6896 6895 6894 ] final  -53.42 input  -60.11 | X-H torsion
[ 7974 7965 7964 7962 ] final   73.72 input  175.53 | X-H torsion
[ 8008 7997 7996 7995 ] final   80.16 input   59.86 | X-H torsion
[ 10167 10162 10161 10158 ] final   76.05 input  -65.29 | X-H torsion
[ 10718 10713 10712 10709 ] final  -24.47 input   66.30 | X-H torsion
[ 10763 10752 10751 10750 ] final -104.45 input  -60.55 | X-H torsion
[ 11005 11000 10999 10996 ] final -146.08 input  -57.11 | X-H torsion

> <Gold.Protein.ActiveResidues>
 VAL166  LYS551  ARG553  GLY616  TRP617  ASP618  TYR619  PRO620  LYS621  CYS622 
 ASP623  PHE694  ASN695  SER759  ASP760  ASP761  ALA762  ILE779  LEU786  VAL792 
 PHE793  MET794  SER795  GLU796  ALA797  LYS798  CYS799  TRP800  GLU811  SER814 

> <Gold.Protein.RotatedAtoms>
  150.8428  134.7726  159.6945 H   0  0  0  0  0  0  0  0  0  0  0  0  # atno 6907 bound_to 6896
  152.4512  134.5387  159.9842 H   0  0  0  0  0  0  0  0  0  0  0  0  # atno 6908 bound_to 6896
  151.5523  133.3377  159.2991 H   0  0  0  0  0  0  0  0  0  0  0  0  # atno 6909 bound_to 6896
  145.7373  139.2707  143.1506 H   0  0  0  0  0  0  0  0  0  0  0  0  # atno 7974 bound_to 7965
  155.8797  140.3444  155.5879 H   0  0  0  0  0  0  0  0  0  0  0  0  # atno 8008 bound_to 7997
  155.7734  140.0848  157.2116 H   0  0  0  0  0  0  0  0  0  0  0  0  # atno 8009 bound_to 7997
  154.4023  140.1514  156.2955 H   0  0  0  0  0  0  0  0  0  0  0  0  # atno 8010 bound_to 7997
  139.9964  144.5719  150.7774 H   0  0  0  0  0  0  0  0  0  0  0  0  # atno 10167 bound_to 10162
  156.4772  130.4537  149.6833 H   0  0  0  0  0  0  0  0  0  0  0  0  # atno 10718 bound_to 10713
  154.7879  135.4785  153.9987 H   0  0  0  0  0  0  0  0  0  0  0  0  # atno 10763 bound_to 10752
  153.1587  135.6805  153.8781 H   0  0  0  0  0  0  0  0  0  0  0  0  # atno 10764 bound_to 10752
  153.8401  135.3180  155.3403 H   0  0  0  0  0  0  0  0  0  0  0  0  # atno 10765 bound_to 10752
  140.7857  134.3027  157.5031 H   0  0  0  0  0  0  0  0  0  0  0  0  # atno 11005 bound_to 11000
  146.0481  140.8098  142.9795 LP  0  0  0  0  0  0  0  0  0  0  0  0  # atno 17320 bound_to 7965
  144.6878  140.3011  143.7263 LP  0  0  0  0  0  0  0  0  0  0  0  0  # atno 17321 bound_to 7965
  140.7435  143.2848  151.3496 LP  0  0  0  0  0  0  0  0  0  0  0  0  # atno 17342 bound_to 10162
  139.6303  144.0734  152.2470 LP  0  0  0  0  0  0  0  0  0  0  0  0  # atno 17343 bound_to 10162
  156.3558  130.7456  151.2421 LP  0  0  0  0  0  0  0  0  0  0  0  0  # atno 17370 bound_to 10713
  157.7486  131.0364  150.4409 LP  0  0  0  0  0  0  0  0  0  0  0  0  # atno 17371 bound_to 10713
  139.8737  134.9345  156.3608 LP  0  0  0  0  0  0  0  0  0  0  0  0  # atno 17394 bound_to 11000
  140.9439  133.7496  156.0183 LP  0  0  0  0  0  0  0  0  0  0  0  0  # atno 17395 bound_to 11000

$$$$
