AV-unprocessed.smi:2141|AV-procd|sdf|8719|dock1
  -GOLD-   2272011483D 1   1.00000     0.00000
 Structure written by MMmdl.
 41 42  0  0  0  0  0  0  0  0  2 V2000
  153.5241  131.3820  164.0385 C   0  0  0  0  0  0  0  0  0  0  0  0
  154.6457  132.6475  164.7737 S   0  0  0  0  0  0  0  0  0  0  0  0
  153.7584  133.5505  165.5220 O   0  0  0  0  0  0  0  0  0  0  0  0
  155.6486  131.9045  165.5551 O   0  0  0  0  0  0  0  0  0  0  0  0
  155.2481  133.3817  163.4528 N   0  5  0  0  0  0  0  0  0  0  0  0
  154.4817  134.3901  162.7341 C   0  0  0  0  0  0  0  0  0  0  0  0
  155.4342  135.2688  161.8938 C   0  0  0  0  0  0  0  0  0  0  0  0
  154.7121  136.3490  161.0732 C   0  0  0  0  0  0  0  0  0  0  0  0
  153.9874  136.0239  160.1305 O   0  0  0  0  0  0  0  0  0  0  0  0
  154.9859  137.6235  161.4155 N   0  0  0  0  0  0  0  0  0  0  0  0
  154.4591  138.8264  160.8723 C   0  0  0  0  0  0  0  0  0  0  0  0
  154.7460  140.1204  161.3653 C   0  0  0  0  0  0  0  0  0  0  0  0
  154.1767  141.2368  160.7235 C   0  0  0  0  0  0  0  0  0  0  0  0
  153.3426  141.0395  159.5976 C   0  0  0  0  0  0  0  0  0  0  0  0
  152.7627  142.1454  158.9376 N   0  0  0  0  0  0  0  0  0  0  0  0
  151.3619  141.9935  158.5505 C   0  0  0  0  0  0  0  0  0  0  0  0
  150.9490  143.1142  157.5805 C   0  0  0  0  0  0  0  0  0  0  0  0
  151.2269  144.3834  158.1623 O   0  0  0  0  0  0  0  0  0  0  0  0
  152.6157  144.5514  158.4258 C   0  0  0  0  0  0  0  0  0  0  0  0
  153.0856  143.4842  159.4283 C   0  0  0  0  0  0  0  0  0  0  0  0
  153.0753  139.7974  159.1249 N   0  0  0  0  0  0  0  0  0  0  0  0
  153.6235  138.7303  159.7423 C   0  0  0  0  0  0  0  0  0  0  0  0
  152.9819  130.8789  164.8383 H   0  0  0  0  0  0  0  0  0  0  0  0
  154.1029  130.6453  163.4828 H   0  0  0  0  0  0  0  0  0  0  0  0
  152.8130  131.8693  163.3721 H   0  0  0  0  0  0  0  0  0  0  0  0
  153.7369  133.9346  162.0807 H   0  0  0  0  0  0  0  0  0  0  0  0
  153.9250  135.0318  163.4182 H   0  0  0  0  0  0  0  0  0  0  0  0
  156.1706  135.7441  162.5444 H   0  0  0  0  0  0  0  0  0  0  0  0
  156.0003  134.6422  161.2029 H   0  0  0  0  0  0  0  0  0  0  0  0
  155.6807  137.7439  162.1383 H   0  0  0  0  0  0  0  0  0  0  0  0
  155.3956  140.2826  162.2110 H   0  0  0  0  0  0  0  0  0  0  0  0
  154.3790  142.2247  161.1090 H   0  0  0  0  0  0  0  0  0  0  0  0
  151.1739  141.0311  158.0772 H   0  0  0  0  0  0  0  0  0  0  0  0
  150.7436  142.0314  159.4483 H   0  0  0  0  0  0  0  0  0  0  0  0
  151.4722  143.0160  156.6279 H   0  0  0  0  0  0  0  0  0  0  0  0
  149.8825  143.0490  157.3648 H   0  0  0  0  0  0  0  0  0  0  0  0
  153.1840  144.4888  157.4963 H   0  0  0  0  0  0  0  0  0  0  0  0
  152.7822  145.5485  158.8336 H   0  0  0  0  0  0  0  0  0  0  0  0
  152.6027  143.6413  160.3939 H   0  0  0  0  0  0  0  0  0  0  0  0
  154.1612  143.5826  159.5805 H   0  0  0  0  0  0  0  0  0  0  0  0
  153.3817  137.7661  159.3195 H   0  0  0  0  0  0  0  0  0  0  0  0
  1  2  1  0  0  0  0
  1 23  1  0  0  0  0
  1 24  1  0  0  0  0
  1 25  1  0  0  0  0
  2  3  2  0  0  0  0
  2  4  2  0  0  0  0
  2  5  1  0  0  0  0
  5  6  1  0  0  0  0
  6  7  1  0  0  0  0
  6 26  1  0  0  0  0
  6 27  1  0  0  0  0
  7  8  1  0  0  0  0
  7 28  1  0  0  0  0
  7 29  1  0  0  0  0
  8  9  2  0  0  0  0
  8 10  1  0  0  0  0
 10 11  1  0  0  0  0
 10 30  1  0  0  0  0
 11 22  1  0  0  0  0
 11 12  2  0  0  0  0
 12 13  1  0  0  0  0
 12 31  1  0  0  0  0
 13 14  2  0  0  0  0
 13 32  1  0  0  0  0
 14 15  1  0  0  0  0
 14 21  1  0  0  0  0
 15 20  1  0  0  0  0
 15 16  1  0  0  0  0
 16 17  1  0  0  0  0
 16 33  1  0  0  0  0
 16 34  1  0  0  0  0
 17 18  1  0  0  0  0
 17 35  1  0  0  0  0
 17 36  1  0  0  0  0
 18 19  1  0  0  0  0
 19 20  1  0  0  0  0
 19 37  1  0  0  0  0
 19 38  1  0  0  0  0
 20 39  1  0  0  0  0
 20 40  1  0  0  0  0
 21 22  2  0  0  0  0
 22 41  1  0  0  0  0
M  CHG  1   5  -1
M  END
> <s_m_source_file>
AV-unprocessed.smi

> <i_m_source_file_index>
2141

> <i_lp_mmshare_version>
43012

> <i_f3d_flags>
0

> <s_epik_input>
W0NIM11TKD1PKSg9TylbTkhdW0NIMl1bQ0gyXUMoPU8pW05IXWMxW2NIXVtjSF1jKG5bY0hdMSlOMltDSDJdW0NIMl1PW0NIMl1bQ0gyXTI=

> <s_epik_cmdline>
J2VwaWtfcHl0aG9uJywgJy1waCcsICc3LjAnLCAnLXRuJywgJzgnLCAnLW1hJywgJzIwMCcsICctbWV0YWxfYmluZGluZycsICctaW1hZScsICc8aW5maWxlLm1hZT4nLCAnLW9tYWUnLCAnPG91dGZpbGUubWFlPic=

> <r_lp_tautomer_probability>
1

> <r_epik_Ionization_Penalty>
6.16997

> <r_epik_Ionization_Penalty_Charging>
6.16921

> <r_epik_Ionization_Penalty_Neutral>
0.000766965

> <r_epik_State_Penalty>
6.16956

> <r_epik_Charging_Adjusted_Penalty>
12.3388

> <i_epik_Tot_Q>
-1

> <i_epik_Tot_abs_Q>
1

> <r_epik_Metal_State_Penalty>
2.11159

> <b_epik_Metal_Only>
1

> <s_lp_Force_Field>
OPLS_2005

> <r_lp_Energy>
18.4771

> <b_lp_Chiralities_Consistent>
1

> <s_lp_Variant>
AV-unprocessed.smi:2141-2

> <Gold.Version>
5.8.1

> <Gold.Id.Protein>
6NUR|6NUR_protein|mol2

> <Gold.PLP.Fitness>
38.3224

> <Gold.PLP.PLP>
-35.8049

> <Gold.PLP.part.hbond>
-0.9829

> <Gold.PLP.part.metal>
0.0000

> <Gold.PLP.part.buried>
-5.7350

> <Gold.PLP.part.nonpolar>
-29.8675

> <Gold.PLP.part.repulsive>
0.5093

> <Gold.PLP.ligand.clash>
0.0000

> <Gold.PLP.ligand.torsion>
0.9220

> <Gold.PLP.Chemscore.Hbond>
0.9913

> <Gold.PLP.Chemscore.CHOScore>
0.0000

> <Gold.PLP.Chemscore.Metal>
0.0000

> <Gold.Chemscore.Hbonds>
donor molecule, donor type, donor heavy atom, donor atom, acceptor molecule, acceptor atom, score
      P1  H  6896  6908       L1     9  0.96

> <Gold.PLP.Chemscore.Internal.Correction>
1.3879

> <Gold.Rescore>
     Score         DG    S(hbond)    S(metal)    S(lipo)     H(rot)  DE(clash)    DE(int)     intcor
     12.28     -14.69       1.00        0.00      92.40       1.93       0.09       2.32       ----

> <Gold.Chemscore.Fitness>
12.2838

> <Gold.Chemscore.DG>
-14.6909

> <Gold.Chemscore.ZeroCoef>
-5.4800

> <Gold.Chemscore.Hbond>
0.9967

> <Gold.Chemscore.Metal>
0.0000

> <Gold.Chemscore.Lipo>
92.4029

> <Gold.Chemscore.Internal_Hbond>
0.0000

> <Gold.Chemscore.DEClash>
0.0863

> <Gold.Chemscore.DEInternal>
2.3208

> <Gold.Chemscore.Rot>
1.9255

> <Gold.Chemscore.Internal.Correction>
   9.000000E+99

> <Gold.Chemscore.Hbonds>
donor molecule, donor type, donor heavy atom, donor atom, acceptor molecule, acceptor atom, score
      P1  H  6896  6908       L1     9  0.90

> <Gold.Chemscore.Hbond.Weighted>
-3.3290

> <Gold.Chemscore.Metal.Weighted>
-0.0000

> <Gold.Chemscore.Lipo.Weighted>
-10.8111

> <Gold.Chemscore.Internal_Hbond.Weighted>
0.0000

> <Gold.Chemscore.DEClash.Weighted>
0.0863

> <Gold.Chemscore.DEInternal.Weighted>
2.3208

> <Gold.Chemscore.Rot.Weighted>
4.9292

> <Gold.Chemscore.Internal.Correction.Weighted>
   9.000000E+99

> <Gold.Protein.RotatedTorsions>
[ 6907 6896 6895 6894 ] final  -59.18 input  -60.11 | X-H torsion
[ 7974 7965 7964 7962 ] final   51.23 input  175.53 | X-H torsion
[ 8008 7997 7996 7995 ] final  145.30 input   59.86 | X-H torsion
[ 10167 10162 10161 10158 ] final  -61.62 input  -65.29 | X-H torsion
[ 10718 10713 10712 10709 ] final  -53.99 input   66.30 | X-H torsion
[ 10763 10752 10751 10750 ] final   74.28 input  -60.55 | X-H torsion
[ 11005 11000 10999 10996 ] final   15.66 input  -57.11 | X-H torsion

> <Gold.Protein.ActiveResidues>
 VAL166  LYS551  ARG553  GLY616  TRP617  ASP618  TYR619  PRO620  LYS621  CYS622 
 ASP623  PHE694  ASN695  SER759  ASP760  ASP761  ALA762  ILE779  LEU786  VAL792 
 PHE793  MET794  SER795  GLU796  ALA797  LYS798  CYS799  TRP800  GLU811  SER814 

> <Gold.Protein.RotatedAtoms>
  150.7950  134.7002  159.6545 H   0  0  0  0  0  0  0  0  0  0  0  0  # atno 6907 bound_to 6896
  152.4061  134.6202  160.0058 H   0  0  0  0  0  0  0  0  0  0  0  0  # atno 6908 bound_to 6896
  151.6459  133.3286  159.3177 H   0  0  0  0  0  0  0  0  0  0  0  0  # atno 6909 bound_to 6896
  145.9934  139.4363  143.0059 H   0  0  0  0  0  0  0  0  0  0  0  0  # atno 7974 bound_to 7965
  156.2886  140.2212  156.5194 H   0  0  0  0  0  0  0  0  0  0  0  0  # atno 8008 bound_to 7997
  154.7542  140.0478  157.0941 H   0  0  0  0  0  0  0  0  0  0  0  0  # atno 8009 bound_to 7997
  155.0072  140.3108  155.4847 H   0  0  0  0  0  0  0  0  0  0  0  0  # atno 8010 bound_to 7997
  140.5993  143.2358  151.5964 H   0  0  0  0  0  0  0  0  0  0  0  0  # atno 10167 bound_to 10162
  156.1488  130.4152  149.9979 H   0  0  0  0  0  0  0  0  0  0  0  0  # atno 10718 bound_to 10713
  153.0576  135.5031  154.8019 H   0  0  0  0  0  0  0  0  0  0  0  0  # atno 10763 bound_to 10752
  154.6832  135.2972  154.9586 H   0  0  0  0  0  0  0  0  0  0  0  0  # atno 10764 bound_to 10752
  154.0365  135.6722  153.4838 H   0  0  0  0  0  0  0  0  0  0  0  0  # atno 10765 bound_to 10752
  140.4559  134.1177  155.7709 H   0  0  0  0  0  0  0  0  0  0  0  0  # atno 11005 bound_to 11000
  145.7596  140.9940  143.1207 LP  0  0  0  0  0  0  0  0  0  0  0  0  # atno 17320 bound_to 7965
  144.6896  139.9314  143.7472 LP  0  0  0  0  0  0  0  0  0  0  0  0  # atno 17321 bound_to 7965
  139.5280  144.3001  152.1081 LP  0  0  0  0  0  0  0  0  0  0  0  0  # atno 17342 bound_to 10162
  140.2179  144.4497  150.6355 LP  0  0  0  0  0  0  0  0  0  0  0  0  # atno 17343 bound_to 10162
  156.7842  130.9232  151.3646 LP  0  0  0  0  0  0  0  0  0  0  0  0  # atno 17370 bound_to 10713
  157.6640  130.8991  149.9891 LP  0  0  0  0  0  0  0  0  0  0  0  0  # atno 17371 bound_to 10713
  141.1643  133.8732  157.1759 LP  0  0  0  0  0  0  0  0  0  0  0  0  # atno 17394 bound_to 11000
  139.9977  135.0040  157.0119 LP  0  0  0  0  0  0  0  0  0  0  0  0  # atno 17395 bound_to 11000

$$$$
