AV-unprocessed.smi:2850|AV-procd|sdf|10967|dock2
  -GOLD-   2272015423D 1   1.00000     0.00000
 Structure written by MMmdl.
 45 46  0  0  0  0  0  0  0  0  2 V2000
  152.6090  143.1943  162.0460 C   0  0  0  0  0  0  0  0  0  0  0  0
  153.6089  141.9064  161.2491 S   0  0  0  0  0  0  0  0  0  0  0  0
  152.8225  141.5080  159.7178 C   0  0  0  0  0  0  0  0  0  0  0  0
  151.7351  142.2679  159.2508 C   0  0  0  0  0  0  0  0  0  0  0  0
  151.1733  141.8886  158.0191 C   0  0  0  0  0  0  0  0  0  0  0  0
  151.7382  140.7818  157.3534 C   0  0  0  0  0  0  0  0  0  0  0  0
  151.2043  140.3923  156.1162 N   0  0  0  0  0  0  0  0  0  0  0  0
  150.3552  141.2803  155.3289 C   0  0  0  0  0  0  0  0  0  0  0  0
  149.0941  140.5852  154.7828 C   0  0  2  0  0  0  0  0  0  0  0  0
  149.3935  139.2210  154.1242 C   0  0  0  0  0  0  0  0  0  0  0  0
  148.1591  138.6160  153.5676 N   0  3  1  0  0  0  0  0  0  0  0  0
  147.2701  138.0246  154.6049 C   0  0  0  0  0  0  0  0  0  0  0  0
  146.3504  136.9145  154.0537 C   0  0  0  0  0  0  0  0  0  0  0  0
  145.3484  137.4995  153.0469 C   0  0  0  0  0  0  0  0  0  0  0  0
  145.6096  136.1713  155.1777 C   0  0  0  0  0  0  0  0  0  0  0  0
  147.4902  139.5675  152.6438 C   0  0  0  0  0  0  0  0  0  0  0  0
  147.2821  140.9454  153.3027 C   0  0  0  0  0  0  0  0  0  0  0  0
  148.5220  141.4382  153.7973 O   0  0  0  0  0  0  0  0  0  0  0  0
  152.7848  140.0911  157.8731 N   0  0  0  0  0  0  0  0  0  0  0  0
  153.3261  140.4507  159.0419 N   0  0  0  0  0  0  0  0  0  0  0  0
  153.0393  143.4581  163.0120 H   0  0  0  0  0  0  0  0  0  0  0  0
  151.5906  142.8404  162.2072 H   0  0  0  0  0  0  0  0  0  0  0  0
  152.5745  144.0922  161.4285 H   0  0  0  0  0  0  0  0  0  0  0  0
  151.3508  143.1083  159.8095 H   0  0  0  0  0  0  0  0  0  0  0  0
  150.3393  142.4329  157.6006 H   0  0  0  0  0  0  0  0  0  0  0  0
  151.4110  139.4726  155.7535 H   0  0  0  0  0  0  0  0  0  0  0  0
  150.0757  142.1413  155.9372 H   0  0  0  0  0  0  0  0  0  0  0  0
  150.9469  141.6734  154.5018 H   0  0  0  0  0  0  0  0  0  0  0  0
  148.3745  140.4596  155.5924 H   0  0  0  0  0  0  0  0  0  0  0  0
  150.1089  139.3561  153.3116 H   0  0  0  0  0  0  0  0  0  0  0  0
  149.8620  138.5347  154.8305 H   0  0  0  0  0  0  0  0  0  0  0  0
  147.8789  137.5944  155.4015 H   0  0  0  0  0  0  0  0  0  0  0  0
  146.6761  138.8079  155.0759 H   0  0  0  0  0  0  0  0  0  0  0  0
  146.9523  136.1861  153.5112 H   0  0  0  0  0  0  0  0  0  0  0  0
  144.7030  138.2434  153.5154 H   0  0  0  0  0  0  0  0  0  0  0  0
  144.7090  136.7215  152.6287 H   0  0  0  0  0  0  0  0  0  0  0  0
  145.8628  137.9823  152.2154 H   0  0  0  0  0  0  0  0  0  0  0  0
  144.9835  136.8500  155.7578 H   0  0  0  0  0  0  0  0  0  0  0  0
  146.3052  135.6893  155.8649 H   0  0  0  0  0  0  0  0  0  0  0  0
  144.9644  135.3917  154.7715 H   0  0  0  0  0  0  0  0  0  0  0  0
  148.1253  139.6867  151.7650 H   0  0  0  0  0  0  0  0  0  0  0  0
  146.5437  139.1698  152.2805 H   0  0  0  0  0  0  0  0  0  0  0  0
  146.8921  141.6520  152.5699 H   0  0  0  0  0  0  0  0  0  0  0  0
  146.5487  140.8976  154.1086 H   0  0  0  0  0  0  0  0  0  0  0  0
  148.4646  137.8334  153.0069 H   0  0  0  0  0  0  0  0  0  0  0  0
  1  2  1  0  0  0  0
  1 21  1  0  0  0  0
  1 22  1  0  0  0  0
  1 23  1  0  0  0  0
  2  3  1  0  0  0  0
  3 20  1  0  0  0  0
  3  4  2  0  0  0  0
  4  5  1  0  0  0  0
  4 24  1  0  0  0  0
  5  6  2  0  0  0  0
  5 25  1  0  0  0  0
  6  7  1  0  0  0  0
  6 19  1  0  0  0  0
  7  8  1  0  0  0  0
  7 26  1  0  0  0  0
  8  9  1  0  0  0  0
  8 27  1  0  0  0  0
  8 28  1  0  0  0  0
  9 18  1  0  0  0  0
  9 10  1  0  0  0  0
  9 29  1  0  0  0  0
 10 11  1  0  0  0  0
 10 30  1  0  0  0  0
 10 31  1  0  0  0  0
 11 12  1  0  0  0  0
 11 16  1  0  0  0  0
 11 45  1  0  0  0  0
 12 13  1  0  0  0  0
 12 32  1  0  0  0  0
 12 33  1  0  0  0  0
 13 14  1  0  0  0  0
 13 15  1  0  0  0  0
 13 34  1  0  0  0  0
 14 35  1  0  0  0  0
 14 36  1  0  0  0  0
 14 37  1  0  0  0  0
 15 38  1  0  0  0  0
 15 39  1  0  0  0  0
 15 40  1  0  0  0  0
 16 17  1  0  0  0  0
 16 41  1  0  0  0  0
 16 42  1  0  0  0  0
 17 18  1  0  0  0  0
 17 43  1  0  0  0  0
 17 44  1  0  0  0  0
 19 20  2  0  0  0  0
M  CHG  1  11   1
M  END
> <s_m_source_file>
AV-unprocessed.smi

> <i_m_source_file_index>
2850

> <i_lp_mmshare_version>
43012

> <i_f3d_flags>
0

> <s_epik_input>
W0NIM11TYzFbY0hdW2NIXWMobm4xKVtOSF1bQ0gyXVtDQEBIXTJbQ0gyXU4oW0NIMl1bQ0gyXU8yKVtDSDJdW0NIXShbQ0gzXSlbQ0gzXQ==

> <s_epik_cmdline>
J2VwaWtfcHl0aG9uJywgJy1waCcsICc3LjAnLCAnLXRuJywgJzgnLCAnLW1hJywgJzIwMCcsICctbWV0YWxfYmluZGluZycsICctaW1hZScsICc8aW5maWxlLm1hZT4nLCAnLW9tYWUnLCAnPG91dGZpbGUubWFlPic=

> <r_lp_tautomer_probability>
0.999978

> <r_epik_Ionization_Penalty>
0.0874875

> <r_epik_Ionization_Penalty_Charging>
0.0831532

> <r_epik_Ionization_Penalty_Neutral>
0.00433433

> <r_epik_State_Penalty>
0.0738301

> <r_epik_Charging_Adjusted_Penalty>
0.156983

> <i_epik_Tot_Q>
1

> <i_epik_Tot_abs_Q>
1

> <r_epik_Metal_State_Penalty>
0.073888

> <b_epik_Metal_Only>
0

> <s_lp_Force_Field>
OPLS_2005

> <r_lp_Energy>
26.7302

> <b_lp_Chiralities_Consistent>
1

> <s_lp_Variant>
AV-unprocessed.smi:2850-3

> <Gold.Version>
5.8.1

> <Gold.Id.Protein>
6NUR|6NUR_protein|mol2

> <Gold.PLP.Fitness>
42.0683

> <Gold.PLP.PLP>
-32.5528

> <Gold.PLP.part.hbond>
-4.0979

> <Gold.PLP.part.metal>
0.0000

> <Gold.PLP.part.buried>
1.0720

> <Gold.PLP.part.nonpolar>
-28.7628

> <Gold.PLP.part.repulsive>
0.3138

> <Gold.PLP.ligand.clash>
0.0000

> <Gold.PLP.ligand.torsion>
0.5216

> <Gold.PLP.Chemscore.Hbond>
3.4674

> <Gold.PLP.Chemscore.CHOScore>
0.0000

> <Gold.PLP.Chemscore.Metal>
0.0000

> <Gold.Chemscore.Hbonds>
donor molecule, donor type, donor heavy atom, donor atom, acceptor molecule, acceptor atom, score
      L1  H    11    45       P1  7948  2.00
      P1  H  7997  8010       L1    19  0.96
      P1  H  8011  8017       L1    18  0.47

> <Gold.PLP.Chemscore.Internal.Correction>
0.1565

> <Gold.Rescore>
     Score         DG    S(hbond)    S(metal)    S(lipo)     H(rot)  DE(clash)    DE(int)     intcor
     15.73     -17.94       1.65        0.00      94.35       1.60       1.52       0.70       ----

> <Gold.Chemscore.Fitness>
15.7291

> <Gold.Chemscore.DG>
-17.9445

> <Gold.Chemscore.ZeroCoef>
-5.4800

> <Gold.Chemscore.Hbond>
1.6534

> <Gold.Chemscore.Metal>
0.0000

> <Gold.Chemscore.Lipo>
94.3502

> <Gold.Chemscore.Internal_Hbond>
0.0000

> <Gold.Chemscore.DEClash>
1.5198

> <Gold.Chemscore.DEInternal>
0.6957

> <Gold.Chemscore.Rot>
1.6003

> <Gold.Chemscore.Internal.Correction>
   9.000000E+99

> <Gold.Chemscore.Hbonds>
donor molecule, donor type, donor heavy atom, donor atom, acceptor molecule, acceptor atom, score
      L1  H    11    45       P1  7948  0.95
      P1  H  7997  8010       L1    19  0.23
      P1  H  8011  8017       L1    18  0.41

> <Gold.Chemscore.Hbond.Weighted>
-5.5224

> <Gold.Chemscore.Metal.Weighted>
-0.0000

> <Gold.Chemscore.Lipo.Weighted>
-11.0390

> <Gold.Chemscore.Internal_Hbond.Weighted>
0.0000

> <Gold.Chemscore.DEClash.Weighted>
1.5198

> <Gold.Chemscore.DEInternal.Weighted>
0.6957

> <Gold.Chemscore.Rot.Weighted>
4.0968

> <Gold.Chemscore.Internal.Correction.Weighted>
   9.000000E+99

> <Gold.Protein.RotatedTorsions>
[ 6907 6896 6895 6894 ] final  -10.95 input  -60.11 | X-H torsion
[ 7974 7965 7964 7962 ] final  -88.39 input  175.53 | X-H torsion
[ 8008 7997 7996 7995 ] final   57.44 input   59.86 | X-H torsion
[ 10167 10162 10161 10158 ] final  -89.26 input  -65.29 | X-H torsion
[ 10718 10713 10712 10709 ] final   -0.70 input   66.30 | X-H torsion
[ 10763 10752 10751 10750 ] final  174.25 input  -60.55 | X-H torsion
[ 11005 11000 10999 10996 ] final   -4.41 input  -57.11 | X-H torsion

> <Gold.Protein.ActiveResidues>
 VAL166  LYS551  ARG553  GLY616  TRP617  ASP618  TYR619  PRO620  LYS621  CYS622 
 ASP623  PHE694  ASN695  SER759  ASP760  ASP761  ALA762  ILE779  LEU786  VAL792 
 PHE793  MET794  SER795  GLU796  ALA797  LYS798  CYS799  TRP800  GLU811  SER814 

> <Gold.Protein.RotatedAtoms>
  151.3938  135.0960  159.9534 H   0  0  0  0  0  0  0  0  0  0  0  0  # atno 6907 bound_to 6896
  152.5071  133.8954  159.7425 H   0  0  0  0  0  0  0  0  0  0  0  0  # atno 6908 bound_to 6896
  150.9413  133.6597  159.2819 H   0  0  0  0  0  0  0  0  0  0  0  0  # atno 6909 bound_to 6896
  145.4538  140.9561  143.2008 H   0  0  0  0  0  0  0  0  0  0  0  0  # atno 7974 bound_to 7965
  155.5338  140.3482  155.4432 H   0  0  0  0  0  0  0  0  0  0  0  0  # atno 8008 bound_to 7997
  156.0700  140.1360  156.9867 H   0  0  0  0  0  0  0  0  0  0  0  0  # atno 8009 bound_to 7997
  154.4523  140.0968  156.6629 H   0  0  0  0  0  0  0  0  0  0  0  0  # atno 8010 bound_to 7997
  140.3666  143.2815  151.9551 H   0  0  0  0  0  0  0  0  0  0  0  0  # atno 10167 bound_to 10162
  156.8165  130.5442  149.5702 H   0  0  0  0  0  0  0  0  0  0  0  0  # atno 10718 bound_to 10713
  154.4514  135.2765  155.1778 H   0  0  0  0  0  0  0  0  0  0  0  0  # atno 10763 bound_to 10752
  154.3604  135.6130  153.5691 H   0  0  0  0  0  0  0  0  0  0  0  0  # atno 10764 bound_to 10752
  152.9847  135.5833  154.4859 H   0  0  0  0  0  0  0  0  0  0  0  0  # atno 10765 bound_to 10752
  140.6799  133.9162  155.8549 H   0  0  0  0  0  0  0  0  0  0  0  0  # atno 11005 bound_to 11000
  144.8045  139.6077  143.7057 LP  0  0  0  0  0  0  0  0  0  0  0  0  # atno 17320 bound_to 7965
  146.2490  139.6158  142.9440 LP  0  0  0  0  0  0  0  0  0  0  0  0  # atno 17321 bound_to 7965
  139.4808  144.5945  151.7714 LP  0  0  0  0  0  0  0  0  0  0  0  0  # atno 17342 bound_to 10162
  140.5075  144.1076  150.5986 LP  0  0  0  0  0  0  0  0  0  0  0  0  # atno 17343 bound_to 10162
  156.1014  130.5971  150.9899 LP  0  0  0  0  0  0  0  0  0  0  0  0  # atno 17370 bound_to 10713
  157.6479  131.0901  150.8114 LP  0  0  0  0  0  0  0  0  0  0  0  0  # atno 17371 bound_to 10713
  141.0325  134.0735  157.3997 LP  0  0  0  0  0  0  0  0  0  0  0  0  # atno 17394 bound_to 11000
  139.8955  135.0141  156.7004 LP  0  0  0  0  0  0  0  0  0  0  0  0  # atno 17395 bound_to 11000

$$$$
