AV-unprocessed.smi:3162|AV-procd|sdf|12068|dock4
  -GOLD-   2272017493D 1   1.00000     0.00000
 Structure written by MMmdl.
 36 36  0  0  0  0  0  0  0  0  1 V2000
  152.0767  140.1444  155.6401 C   0  0  0  0  0  0  0  0  0  0  0  0
  150.8126  140.2923  154.7787 C   0  0  0  0  0  0  0  0  0  0  0  0
  149.6426  141.0124  155.4842 C   0  0  1  0  0  0  0  0  0  0  0  0
  150.1344  142.2787  156.0657 N   0  0  0  0  0  0  0  0  0  0  0  0
  150.7406  142.2208  157.3989 C   0  0  2  0  0  0  0  0  0  0  0  0
  149.6259  141.8366  158.3858 C   0  0  0  0  0  0  0  0  0  0  0  0
  151.4555  143.5400  157.7880 C   0  0  0  0  0  0  0  0  0  0  0  0
  151.7499  143.6534  159.2082 N   0  0  0  0  0  0  0  0  0  0  0  0
  152.4924  142.8038  160.0015 C   0  0  0  0  0  0  0  0  0  0  0  0
  152.4969  143.3191  161.2668 C   0  0  0  0  0  0  0  0  0  0  0  0
  153.1662  142.7829  162.4989 C   0  0  0  0  0  0  0  0  0  0  0  0
  151.7101  144.4995  161.1454 C   0  0  0  0  0  0  0  0  0  0  0  0
  151.2613  144.6945  159.9163 N   0  0  0  0  0  0  0  0  0  0  0  0
  148.4445  141.2100  154.5380 C   0  0  0  0  0  0  0  0  0  0  0  0
  147.9294  142.4394  154.4550 N   0  0  0  0  0  0  0  0  0  0  0  0
  148.0058  140.2704  153.8773 O   0  0  0  0  0  0  0  0  0  0  0  0
  152.8828  139.6879  155.0655 H   0  0  0  0  0  0  0  0  0  0  0  0
  151.9005  139.5148  156.5124 H   0  0  0  0  0  0  0  0  0  0  0  0
  152.4288  141.1147  155.9905 H   0  0  0  0  0  0  0  0  0  0  0  0
  151.0817  140.8511  153.8811 H   0  0  0  0  0  0  0  0  0  0  0  0
  150.4944  139.3085  154.4307 H   0  0  0  0  0  0  0  0  0  0  0  0
  149.3260  140.3661  156.3027 H   0  0  0  0  0  0  0  0  0  0  0  0
  149.4057  142.9785  156.0684 H   0  0  0  0  0  0  0  0  0  0  0  0
  151.4725  141.4139  157.4303 H   0  0  0  0  0  0  0  0  0  0  0  0
  150.0088  141.7869  159.4054 H   0  0  0  0  0  0  0  0  0  0  0  0
  149.2086  140.8581  158.1456 H   0  0  0  0  0  0  0  0  0  0  0  0
  148.8059  142.5556  158.3739 H   0  0  0  0  0  0  0  0  0  0  0  0
  152.3956  143.6097  157.2384 H   0  0  0  0  0  0  0  0  0  0  0  0
  150.8802  144.4132  157.4822 H   0  0  0  0  0  0  0  0  0  0  0  0
  152.9570  141.9140  159.6026 H   0  0  0  0  0  0  0  0  0  0  0  0
  153.7580  143.5488  163.0002 H   0  0  0  0  0  0  0  0  0  0  0  0
  153.8395  141.9566  162.2693 H   0  0  0  0  0  0  0  0  0  0  0  0
  152.4388  142.4136  163.2221 H   0  0  0  0  0  0  0  0  0  0  0  0
  151.4533  145.2167  161.9111 H   0  0  0  0  0  0  0  0  0  0  0  0
  147.1440  142.6167  153.8463 H   0  0  0  0  0  0  0  0  0  0  0  0
  148.3298  143.1880  155.0016 H   0  0  0  0  0  0  0  0  0  0  0  0
  1  2  1  0  0  0  0
  1 17  1  0  0  0  0
  1 18  1  0  0  0  0
  1 19  1  0  0  0  0
  2  3  1  0  0  0  0
  2 20  1  0  0  0  0
  2 21  1  0  0  0  0
  3  4  1  0  0  0  0
  3 14  1  0  0  0  0
  3 22  1  0  0  0  0
  4  5  1  0  0  0  0
  4 23  1  0  0  0  0
  5  6  1  0  0  0  0
  5  7  1  0  0  0  0
  5 24  1  0  0  0  0
  6 25  1  0  0  0  0
  6 26  1  0  0  0  0
  6 27  1  0  0  0  0
  7  8  1  0  0  0  0
  7 28  1  0  0  0  0
  7 29  1  0  0  0  0
  8 13  1  0  0  0  0
  8  9  1  0  0  0  0
  9 10  2  0  0  0  0
  9 30  1  0  0  0  0
 10 11  1  0  0  0  0
 10 12  1  0  0  0  0
 11 31  1  0  0  0  0
 11 32  1  0  0  0  0
 11 33  1  0  0  0  0
 12 13  2  0  0  0  0
 12 34  1  0  0  0  0
 14 15  1  0  0  0  0
 14 16  2  0  0  0  0
 15 35  1  0  0  0  0
 15 36  1  0  0  0  0
M  END
> <s_m_source_file>
AV-unprocessed.smi

> <i_m_source_file_index>
3162

> <i_lp_mmshare_version>
43012

> <i_f3d_flags>
0

> <s_epik_input>
W0NIM11bQ0gyXVtDQEBIXShDKD1PKVtOSDJdKVtOSF1bQ0BIXShbQ0gzXSlbQ0gyXW4xW2NIXWMoW0NIM10pW2NIXW4x

> <s_epik_cmdline>
J2VwaWtfcHl0aG9uJywgJy1waCcsICc3LjAnLCAnLXRuJywgJzgnLCAnLW1hJywgJzIwMCcsICctbWV0YWxfYmluZGluZycsICctaW1hZScsICc8aW5maWxlLm1hZT4nLCAnLW9tYWUnLCAnPG91dGZpbGUubWFlPic=

> <r_lp_tautomer_probability>
1

> <r_epik_Ionization_Penalty>
1.04167

> <r_epik_Ionization_Penalty_Charging>
0

> <r_epik_Ionization_Penalty_Neutral>
1.04167

> <r_epik_State_Penalty>
1.09367

> <r_epik_Charging_Adjusted_Penalty>
1.09367

> <i_epik_Tot_Q>
0

> <i_epik_Tot_abs_Q>
0

> <r_epik_Metal_State_Penalty>
1.09362

> <b_epik_Metal_Only>
0

> <s_lp_Force_Field>
OPLS_2005

> <r_lp_Energy>
2.92083

> <b_lp_Chiralities_Consistent>
1

> <s_lp_Variant>
AV-unprocessed.smi:3162-6

> <Gold.Version>
5.8.1

> <Gold.Id.Protein>
6NUR|6NUR_protein|mol2

> <Gold.PLP.Fitness>
44.6796

> <Gold.PLP.PLP>
-39.8097

> <Gold.PLP.part.hbond>
-2.0000

> <Gold.PLP.part.metal>
0.0000

> <Gold.PLP.part.buried>
-3.9762

> <Gold.PLP.part.nonpolar>
-35.2534

> <Gold.PLP.part.repulsive>
1.1604

> <Gold.PLP.ligand.clash>
0.0000

> <Gold.PLP.ligand.torsion>
0.6690

> <Gold.PLP.Chemscore.Hbond>
2.0000

> <Gold.PLP.Chemscore.CHOScore>
0.0000

> <Gold.PLP.Chemscore.Metal>
0.0000

> <Gold.Chemscore.Hbonds>
donor molecule, donor type, donor heavy atom, donor atom, acceptor molecule, acceptor atom, score
      L1  H     4    23       P1  8028  0.96
      L1  H    15    36       P1  8028  1.00

> <Gold.PLP.Chemscore.Internal.Correction>
0.2079

> <Gold.Rescore>
     Score         DG    S(hbond)    S(metal)    S(lipo)     H(rot)  DE(clash)    DE(int)     intcor
     15.42     -16.28       1.99        0.00      88.74       2.43       0.02       0.85       ----

> <Gold.Chemscore.Fitness>
15.4165

> <Gold.Chemscore.DG>
-16.2812

> <Gold.Chemscore.ZeroCoef>
-5.4800

> <Gold.Chemscore.Hbond>
1.9901

> <Gold.Chemscore.Metal>
0.0000

> <Gold.Chemscore.Lipo>
88.7384

> <Gold.Chemscore.Internal_Hbond>
0.0000

> <Gold.Chemscore.DEClash>
0.0156

> <Gold.Chemscore.DEInternal>
0.8492

> <Gold.Chemscore.Rot>
2.4328

> <Gold.Chemscore.Internal.Correction>
   9.000000E+99

> <Gold.Chemscore.Hbonds>
donor molecule, donor type, donor heavy atom, donor atom, acceptor molecule, acceptor atom, score
      L1  H     4    23       P1  8028  0.92
      L1  H    15    36       P1  8028  0.99

> <Gold.Chemscore.Hbond.Weighted>
-6.6468

> <Gold.Chemscore.Metal.Weighted>
-0.0000

> <Gold.Chemscore.Lipo.Weighted>
-10.3824

> <Gold.Chemscore.Internal_Hbond.Weighted>
0.0000

> <Gold.Chemscore.DEClash.Weighted>
0.0156

> <Gold.Chemscore.DEInternal.Weighted>
0.8492

> <Gold.Chemscore.Rot.Weighted>
6.2279

> <Gold.Chemscore.Internal.Correction.Weighted>
   9.000000E+99

> <Gold.Protein.RotatedTorsions>
[ 6907 6896 6895 6894 ] final  124.22 input  -60.11 | X-H torsion
[ 7974 7965 7964 7962 ] final   82.68 input  175.53 | X-H torsion
[ 8008 7997 7996 7995 ] final -179.25 input   59.86 | X-H torsion
[ 10167 10162 10161 10158 ] final   48.35 input  -65.29 | X-H torsion
[ 10718 10713 10712 10709 ] final    0.89 input   66.30 | X-H torsion
[ 10763 10752 10751 10750 ] final  -17.64 input  -60.55 | X-H torsion
[ 11005 11000 10999 10996 ] final   94.64 input  -57.11 | X-H torsion

> <Gold.Protein.ActiveResidues>
 VAL166  LYS551  ARG553  GLY616  TRP617  ASP618  TYR619  PRO620  LYS621  CYS622 
 ASP623  PHE694  ASN695  SER759  ASP760  ASP761  ALA762  ILE779  LEU786  VAL792 
 PHE793  MET794  SER795  GLU796  ALA797  LYS798  CYS799  TRP800  GLU811  SER814 

> <Gold.Protein.RotatedAtoms>
  152.4097  133.6943  159.6386 H   0  0  0  0  0  0  0  0  0  0  0  0  # atno 6907 bound_to 6896
  150.7978  133.8647  159.3250 H   0  0  0  0  0  0  0  0  0  0  0  0  # atno 6908 bound_to 6896
  151.6392  135.1016  160.0189 H   0  0  0  0  0  0  0  0  0  0  0  0  # atno 6909 bound_to 6896
  145.6218  139.2387  143.2134 H   0  0  0  0  0  0  0  0  0  0  0  0  # atno 7974 bound_to 7965
  156.0283  140.1276  157.0285 H   0  0  0  0  0  0  0  0  0  0  0  0  # atno 8008 bound_to 7997
  154.4339  140.1054  156.6133 H   0  0  0  0  0  0  0  0  0  0  0  0  # atno 8009 bound_to 7997
  155.5844  140.3468  155.4551 H   0  0  0  0  0  0  0  0  0  0  0  0  # atno 8010 bound_to 7997
  140.2942  144.3011  150.6233 H   0  0  0  0  0  0  0  0  0  0  0  0  # atno 10167 bound_to 10162
  156.8400  130.5518  149.5678 H   0  0  0  0  0  0  0  0  0  0  0  0  # atno 10718 bound_to 10713
  153.5769  135.7006  153.5480 H   0  0  0  0  0  0  0  0  0  0  0  0  # atno 10763 bound_to 10752
  153.3295  135.4051  155.1483 H   0  0  0  0  0  0  0  0  0  0  0  0  # atno 10764 bound_to 10752
  154.8624  135.3715  154.5295 H   0  0  0  0  0  0  0  0  0  0  0  0  # atno 10765 bound_to 10752
  139.8796  134.8856  156.3893 H   0  0  0  0  0  0  0  0  0  0  0  0  # atno 11005 bound_to 11000
  146.1425  140.7038  142.9360 LP  0  0  0  0  0  0  0  0  0  0  0  0  # atno 17320 bound_to 7965
  144.7228  140.4428  143.6995 LP  0  0  0  0  0  0  0  0  0  0  0  0  # atno 17321 bound_to 7965
  140.5707  143.2181  151.7605 LP  0  0  0  0  0  0  0  0  0  0  0  0  # atno 17342 bound_to 10162
  139.4930  144.4221  151.9966 LP  0  0  0  0  0  0  0  0  0  0  0  0  # atno 17343 bound_to 10162
  156.0886  130.5877  150.9692 LP  0  0  0  0  0  0  0  0  0  0  0  0  # atno 17370 bound_to 10713
  157.6360  131.0916  150.8347 LP  0  0  0  0  0  0  0  0  0  0  0  0  # atno 17371 bound_to 10713
  140.9344  133.7557  156.0065 LP  0  0  0  0  0  0  0  0  0  0  0  0  # atno 17394 bound_to 11000
  140.8293  134.3197  157.5354 LP  0  0  0  0  0  0  0  0  0  0  0  0  # atno 17395 bound_to 11000

$$$$
