AV-unprocessed.smi:2110|AV-procd|sdf|8611|dock8
  -GOLD-   2272011353D 1   1.00000     0.00000
 Structure written by MMmdl.
 46 47  0  0  0  0  0  0  0  0  3 V2000
  147.3530  134.1634  161.2986 C   0  0  0  0  0  0  0  0  0  0  0  0
  147.6336  134.1080  159.7893 C   0  0  0  0  0  0  0  0  0  0  0  0
  147.4849  135.4233  159.1348 N   0  0  0  0  0  0  0  0  0  0  0  0
  146.4311  135.5521  158.1072 C   0  0  0  0  0  0  0  0  0  0  0  0
  145.0325  135.1877  158.6300 C   0  0  0  0  0  0  0  0  0  0  0  0
  148.3378  136.8241  159.7363 S   0  0  0  0  0  0  0  0  0  0  0  0
  147.7939  137.0636  161.0820 O   0  0  0  0  0  0  0  0  0  0  0  0
  149.7745  136.5141  159.6285 O   0  0  0  0  0  0  0  0  0  0  0  0
  147.7863  137.9170  158.6612 N   0  5  0  0  0  0  0  0  0  0  0  0
  148.3502  138.0314  157.3258 C   0  0  0  0  0  0  0  0  0  0  0  0
  148.6614  139.4808  156.9849 C   0  0  0  0  0  0  0  0  0  0  0  0
  147.9393  140.1509  155.9713 C   0  0  0  0  0  0  0  0  0  0  0  0
  148.2588  141.4888  155.6761 C   0  0  0  0  0  0  0  0  0  0  0  0
  149.2432  142.1120  156.3571 N   0  3  0  0  0  0  0  0  0  0  0  0
  149.9767  141.5257  157.3354 C   0  0  0  0  0  0  0  0  0  0  0  0
  150.9793  142.2963  157.9690 N   0  0  0  0  0  0  0  0  0  0  0  0
  150.6773  143.6882  158.2958 C   0  0  0  0  0  0  0  0  0  0  0  0
  151.9566  144.4471  158.6879 C   0  0  0  0  0  0  0  0  0  0  0  0
  152.6263  143.7562  159.7355 O   0  0  0  0  0  0  0  0  0  0  0  0
  153.0360  142.4569  159.3268 C   0  0  0  0  0  0  0  0  0  0  0  0
  151.8025  141.6124  158.9669 C   0  0  0  0  0  0  0  0  0  0  0  0
  149.6876  140.1772  157.6687 C   0  0  0  0  0  0  0  0  0  0  0  0
  147.3997  133.1649  161.7331 H   0  0  0  0  0  0  0  0  0  0  0  0
  146.3656  134.5710  161.5134 H   0  0  0  0  0  0  0  0  0  0  0  0
  148.0888  134.7770  161.8182 H   0  0  0  0  0  0  0  0  0  0  0  0
  148.6461  133.7421  159.6189 H   0  0  0  0  0  0  0  0  0  0  0  0
  146.9726  133.3833  159.3136 H   0  0  0  0  0  0  0  0  0  0  0  0
  146.4178  136.5717  157.7232 H   0  0  0  0  0  0  0  0  0  0  0  0
  146.6868  134.9130  157.2618 H   0  0  0  0  0  0  0  0  0  0  0  0
  144.2787  135.3754  157.8656 H   0  0  0  0  0  0  0  0  0  0  0  0
  144.7663  135.7778  159.5052 H   0  0  0  0  0  0  0  0  0  0  0  0
  144.9623  134.1345  158.9008 H   0  0  0  0  0  0  0  0  0  0  0  0
  149.2674  137.4507  157.2229 H   0  0  0  0  0  0  0  0  0  0  0  0
  147.6715  137.6442  156.5652 H   0  0  0  0  0  0  0  0  0  0  0  0
  147.1524  139.6584  155.4157 H   0  0  0  0  0  0  0  0  0  0  0  0
  147.7603  142.0757  154.9186 H   0  0  0  0  0  0  0  0  0  0  0  0
  150.2295  144.1937  157.4402 H   0  0  0  0  0  0  0  0  0  0  0  0
  149.9554  143.7167  159.1130 H   0  0  0  0  0  0  0  0  0  0  0  0
  152.6207  144.5600  157.8294 H   0  0  0  0  0  0  0  0  0  0  0  0
  151.7060  145.4515  159.0287 H   0  0  0  0  0  0  0  0  0  0  0  0
  153.7202  142.5280  158.4796 H   0  0  0  0  0  0  0  0  0  0  0  0
  153.5874  141.9868  160.1410 H   0  0  0  0  0  0  0  0  0  0  0  0
  151.1983  141.4333  159.8572 H   0  0  0  0  0  0  0  0  0  0  0  0
  152.1435  140.6411  158.6094 H   0  0  0  0  0  0  0  0  0  0  0  0
  150.2543  139.6658  158.4331 H   0  0  0  0  0  0  0  0  0  0  0  0
  149.4484  143.0821  156.1190 H   0  0  0  0  0  0  0  0  0  0  0  0
  1  2  1  0  0  0  0
  1 23  1  0  0  0  0
  1 24  1  0  0  0  0
  1 25  1  0  0  0  0
  2  3  1  0  0  0  0
  2 26  1  0  0  0  0
  2 27  1  0  0  0  0
  3  4  1  0  0  0  0
  3  6  1  0  0  0  0
  4  5  1  0  0  0  0
  4 28  1  0  0  0  0
  4 29  1  0  0  0  0
  5 30  1  0  0  0  0
  5 31  1  0  0  0  0
  5 32  1  0  0  0  0
  6  7  2  0  0  0  0
  6  8  2  0  0  0  0
  6  9  1  0  0  0  0
  9 10  1  0  0  0  0
 10 11  1  0  0  0  0
 10 33  1  0  0  0  0
 10 34  1  0  0  0  0
 11 22  1  0  0  0  0
 11 12  2  0  0  0  0
 12 13  1  0  0  0  0
 12 35  1  0  0  0  0
 13 14  2  0  0  0  0
 13 36  1  0  0  0  0
 14 15  1  0  0  0  0
 14 46  1  0  0  0  0
 15 16  1  0  0  0  0
 15 22  2  0  0  0  0
 16 21  1  0  0  0  0
 16 17  1  0  0  0  0
 17 18  1  0  0  0  0
 17 37  1  0  0  0  0
 17 38  1  0  0  0  0
 18 19  1  0  0  0  0
 18 39  1  0  0  0  0
 18 40  1  0  0  0  0
 19 20  1  0  0  0  0
 20 21  1  0  0  0  0
 20 41  1  0  0  0  0
 20 42  1  0  0  0  0
 21 43  1  0  0  0  0
 21 44  1  0  0  0  0
 22 45  1  0  0  0  0
M  CHG  1   9  -1
M  CHG  1  14   1
M  END
> <s_m_source_file>
AV-unprocessed.smi

> <i_m_source_file_index>
2110

> <i_lp_mmshare_version>
43012

> <i_f3d_flags>
0

> <s_epik_input>
W0NIM11bQ0gyXU4oW0NIMl1bQ0gzXSlTKD1PKSg9TylbTkhdW0NIMl1jMVtjSF1bY0hdbmMoW2NIXTEpTjJbQ0gyXVtDSDJdT1tDSDJdW0NIMl0y

> <s_epik_cmdline>
J2VwaWtfcHl0aG9uJywgJy1waCcsICc3LjAnLCAnLXRuJywgJzgnLCAnLW1hJywgJzIwMCcsICctbWV0YWxfYmluZGluZycsICctaW1hZScsICc8aW5maWxlLm1hZT4nLCAnLW9tYWUnLCAnPG91dGZpbGUubWFlPic=

> <r_lp_tautomer_probability>
0.999994

> <r_epik_Ionization_Penalty>
2.03784

> <r_epik_Ionization_Penalty_Charging>
2.03784

> <r_epik_Ionization_Penalty_Neutral>
4.07977e-08

> <r_epik_State_Penalty>
3.04665

> <r_epik_Charging_Adjusted_Penalty>
5.08449

> <i_epik_Tot_Q>
0

> <i_epik_Tot_abs_Q>
2

> <r_epik_Metal_State_Penalty>
1.92951

> <b_epik_Metal_Only>
1

> <s_lp_Force_Field>
OPLS_2005

> <r_lp_Energy>
13.8127

> <b_lp_Chiralities_Consistent>
1

> <s_lp_Variant>
AV-unprocessed.smi:2110-4

> <Gold.Version>
5.8.1

> <Gold.Id.Protein>
6NUR|6NUR_protein|mol2

> <Gold.PLP.Fitness>
44.2534

> <Gold.PLP.PLP>
-30.3249

> <Gold.PLP.part.hbond>
-4.8240

> <Gold.PLP.part.metal>
0.0000

> <Gold.PLP.part.buried>
-5.1736

> <Gold.PLP.part.nonpolar>
-20.9908

> <Gold.PLP.part.repulsive>
0.1277

> <Gold.PLP.ligand.clash>
0.0000

> <Gold.PLP.ligand.torsion>
2.0972

> <Gold.PLP.Chemscore.Hbond>
4.8080

> <Gold.PLP.Chemscore.CHOScore>
0.0000

> <Gold.PLP.Chemscore.Metal>
0.0000

> <Gold.Chemscore.Hbonds>
donor molecule, donor type, donor heavy atom, donor atom, acceptor molecule, acceptor atom, score
      L1  H    14    46       P1  8028  2.00
      P1  H  6896  6909       L1     8  1.00
      P1  H  6931  6943       L1     7  0.99
      P1  H  6934  6947       L1     7  0.80

> <Gold.PLP.Chemscore.Internal.Correction>
3.6989

> <Gold.Rescore>
     Score         DG    S(hbond)    S(metal)    S(lipo)     H(rot)  DE(clash)    DE(int)     intcor
     17.47     -19.70       3.24        0.00      66.54       1.72       0.07       2.16       ----

> <Gold.Chemscore.Fitness>
17.4661

> <Gold.Chemscore.DG>
-19.7003

> <Gold.Chemscore.ZeroCoef>
-5.4800

> <Gold.Chemscore.Hbond>
3.2417

> <Gold.Chemscore.Metal>
0.0000

> <Gold.Chemscore.Lipo>
66.5449

> <Gold.Chemscore.Internal_Hbond>
0.0000

> <Gold.Chemscore.DEClash>
0.0749

> <Gold.Chemscore.DEInternal>
2.1593

> <Gold.Chemscore.Rot>
1.7159

> <Gold.Chemscore.Internal.Correction>
   9.000000E+99

> <Gold.Chemscore.Hbonds>
donor molecule, donor type, donor heavy atom, donor atom, acceptor molecule, acceptor atom, score
      L1  H    14    46       P1  8028  0.94
      P1  H  6896  6909       L1     8  0.99
      P1  H  6931  6943       L1     7  0.47
      P1  H  6934  6947       L1     7  0.22

> <Gold.Chemscore.Hbond.Weighted>
-10.8271

> <Gold.Chemscore.Metal.Weighted>
-0.0000

> <Gold.Chemscore.Lipo.Weighted>
-7.7858

> <Gold.Chemscore.Internal_Hbond.Weighted>
0.0000

> <Gold.Chemscore.DEClash.Weighted>
0.0749

> <Gold.Chemscore.DEInternal.Weighted>
2.1593

> <Gold.Chemscore.Rot.Weighted>
4.3926

> <Gold.Chemscore.Internal.Correction.Weighted>
   9.000000E+99

> <Gold.Protein.RotatedTorsions>
[ 6907 6896 6895 6894 ] final   70.47 input  -60.11 | X-H torsion
[ 7974 7965 7964 7962 ] final  -20.61 input  175.53 | X-H torsion
[ 8008 7997 7996 7995 ] final -159.03 input   59.86 | X-H torsion
[ 10167 10162 10161 10158 ] final   -4.21 input  -65.29 | X-H torsion
[ 10718 10713 10712 10709 ] final  -46.38 input   66.30 | X-H torsion
[ 10763 10752 10751 10750 ] final   87.48 input  -60.55 | X-H torsion
[ 11005 11000 10999 10996 ] final  106.66 input  -57.11 | X-H torsion

> <Gold.Protein.ActiveResidues>
 VAL166  LYS551  ARG553  GLY616  TRP617  ASP618  TYR619  PRO620  LYS621  CYS622 
 ASP623  PHE694  ASN695  SER759  ASP760  ASP761  ALA762  ILE779  LEU786  VAL792 
 PHE793  MET794  SER795  GLU796  ALA797  LYS798  CYS799  TRP800  GLU811  SER814 

> <Gold.Protein.RotatedAtoms>
  152.4751  134.4863  159.9681 H   0  0  0  0  0  0  0  0  0  0  0  0  # atno 6907 bound_to 6896
  151.4881  133.3525  159.2857 H   0  0  0  0  0  0  0  0  0  0  0  0  # atno 6908 bound_to 6896
  150.8785  134.8199  159.7269 H   0  0  0  0  0  0  0  0  0  0  0  0  # atno 6909 bound_to 6896
  146.1778  140.4226  142.8506 H   0  0  0  0  0  0  0  0  0  0  0  0  # atno 7974 bound_to 7965
  155.7565  140.0833  157.2176 H   0  0  0  0  0  0  0  0  0  0  0  0  # atno 8008 bound_to 7997
  154.4007  140.1551  156.2839 H   0  0  0  0  0  0  0  0  0  0  0  0  # atno 8009 bound_to 7997
  155.8881  140.3417  155.5938 H   0  0  0  0  0  0  0  0  0  0  0  0  # atno 8010 bound_to 7997
  140.6919  143.6450  150.8401 H   0  0  0  0  0  0  0  0  0  0  0  0  # atno 10167 bound_to 10162
  156.2189  130.4165  149.9018 H   0  0  0  0  0  0  0  0  0  0  0  0  # atno 10718 bound_to 10713
  153.1673  135.4542  154.9854 H   0  0  0  0  0  0  0  0  0  0  0  0  # atno 10763 bound_to 10752
  154.7941  135.3231  154.7711 H   0  0  0  0  0  0  0  0  0  0  0  0  # atno 10764 bound_to 10752
  153.8192  135.6948  153.4884 H   0  0  0  0  0  0  0  0  0  0  0  0  # atno 10765 bound_to 10752
  139.8817  134.9376  156.5701 H   0  0  0  0  0  0  0  0  0  0  0  0  # atno 11005 bound_to 11000
  144.8265  140.6637  143.6318 LP  0  0  0  0  0  0  0  0  0  0  0  0  # atno 17320 bound_to 7965
  145.4161  139.1572  143.4099 LP  0  0  0  0  0  0  0  0  0  0  0  0  # atno 17321 bound_to 7965
  140.0164  143.5589  152.2818 LP  0  0  0  0  0  0  0  0  0  0  0  0  # atno 17342 bound_to 10162
  139.6331  144.7647  151.2494 LP  0  0  0  0  0  0  0  0  0  0  0  0  # atno 17343 bound_to 10162
  156.6671  130.8805  151.3556 LP  0  0  0  0  0  0  0  0  0  0  0  0  # atno 17370 bound_to 10713
  157.7077  130.9404  150.0986 LP  0  0  0  0  0  0  0  0  0  0  0  0  # atno 17371 bound_to 10713
  140.8105  133.8433  155.8805 LP  0  0  0  0  0  0  0  0  0  0  0  0  # atno 17394 bound_to 11000
  140.9511  134.1778  157.4727 LP  0  0  0  0  0  0  0  0  0  0  0  0  # atno 17395 bound_to 11000

$$$$
