AV-unprocessed.smi:157|AV-procd|sdf|1310|dock2
  -GOLD-   2262019 03D 1   1.00000     0.00000
 Structure written by MMmdl.
 36 38  0  0  0  0  0  0  0  0  2 V2000
  144.0289  132.3248  147.9981 O   0  0  0  0  0  0  0  0  0  0  0  0
  144.9882  132.9478  148.8260 C   0  0  0  0  0  0  0  0  0  0  0  0
  144.9016  132.4069  150.2682 C   0  0  2  0  0  0  0  0  0  0  0  0
  143.9161  133.1874  150.9492 O   0  0  0  0  0  0  0  0  0  0  0  0
  144.5009  133.9269  151.9789 C   0  0  2  0  0  0  0  0  0  0  0  0
  143.9636  135.3195  151.9322 N   0  0  0  0  0  0  0  0  0  0  0  0
  144.6909  136.4550  151.8783 C   0  0  0  0  0  0  0  0  0  0  0  0
  143.9698  137.5629  151.8525 N   0  3  0  0  0  0  0  0  0  0  0  0
  142.6488  137.1704  151.8939 C   0  0  0  0  0  0  0  0  0  0  0  0
  142.6656  135.7746  151.9562 C   0  0  0  0  0  0  0  0  0  0  0  0
  141.5999  134.8648  152.0328 N   0  0  0  0  0  0  0  0  0  0  0  0
  140.3930  135.2167  152.3368 C   0  0  0  0  0  0  0  0  0  0  0  0
  139.8786  136.4847  152.5506 N   0  0  0  0  0  0  0  0  0  0  0  0
  140.1546  137.6130  151.6792 C   0  0  0  0  0  0  0  0  0  0  0  0
  141.5617  138.1981  151.8567 C   0  0  1  0  0  0  0  0  0  0  0  0
  141.5642  139.0317  152.9973 O   0  0  0  0  0  0  0  0  0  0  0  0
  146.0035  133.9275  151.7277 C   0  0  0  0  0  0  0  0  0  0  0  0
  146.1763  132.5533  151.1213 C   0  0  2  0  0  0  0  0  0  0  0  0
  147.3893  132.4542  150.4029 O   0  0  0  0  0  0  0  0  0  0  0  0
  144.5693  131.3682  150.2491 H   0  0  0  0  0  0  0  0  0  0  0  0
  144.2157  133.5195  152.9496 H   0  0  0  0  0  0  0  0  0  0  0  0
  141.7557  138.8533  151.0067 H   0  0  0  0  0  0  0  0  0  0  0  0
  146.1708  131.8041  151.9146 H   0  0  0  0  0  0  0  0  0  0  0  0
  143.3614  132.9576  147.7808 H   0  0  0  0  0  0  0  0  0  0  0  0
  145.9865  132.8192  148.4072 H   0  0  0  0  0  0  0  0  0  0  0  0
  144.7757  134.0173  148.8191 H   0  0  0  0  0  0  0  0  0  0  0  0
  145.7659  136.4533  151.8569 H   0  0  0  0  0  0  0  0  0  0  0  0
  139.6306  134.4440  152.4460 H   0  0  0  0  0  0  0  0  0  0  0  0
  138.9738  136.5718  152.9913 H   0  0  0  0  0  0  0  0  0  0  0  0
  140.0425  137.2663  150.6507 H   0  0  0  0  0  0  0  0  0  0  0  0
  139.3947  138.3818  151.8236 H   0  0  0  0  0  0  0  0  0  0  0  0
  142.3394  139.5714  152.9783 H   0  0  0  0  0  0  0  0  0  0  0  0
  146.2620  134.7104  151.0124 H   0  0  0  0  0  0  0  0  0  0  0  0
  146.5616  134.0820  152.6518 H   0  0  0  0  0  0  0  0  0  0  0  0
  148.0355  132.0464  150.9595 H   0  0  0  0  0  0  0  0  0  0  0  0
  144.3237  138.5099  151.8051 H   0  0  0  0  0  0  0  0  0  0  0  0
  1  2  1  0  0  0  0
  1 24  1  0  0  0  0
  2  3  1  0  0  0  0
  2 25  1  0  0  0  0
  2 26  1  0  0  0  0
  3 20  1  0  0  0  0
  3 18  1  0  0  0  0
  3  4  1  0  0  0  0
  4  5  1  0  0  0  0
  5 21  1  0  0  0  0
  5  6  1  0  0  0  0
  5 17  1  0  0  0  0
  6 10  1  0  0  0  0
  6  7  1  0  0  0  0
  7  8  2  0  0  0  0
  7 27  1  0  0  0  0
  8  9  1  0  0  0  0
  8 36  1  0  0  0  0
  9 15  1  0  0  0  0
  9 10  2  0  0  0  0
 10 11  1  0  0  0  0
 11 12  2  0  0  0  0
 12 13  1  0  0  0  0
 12 28  1  0  0  0  0
 13 14  1  0  0  0  0
 13 29  1  0  0  0  0
 14 15  1  0  0  0  0
 14 30  1  0  0  0  0
 14 31  1  0  0  0  0
 15 22  1  0  0  0  0
 15 16  1  0  0  0  0
 16 32  1  0  0  0  0
 17 18  1  0  0  0  0
 17 33  1  0  0  0  0
 17 34  1  0  0  0  0
 18 23  1  0  0  0  0
 18 19  1  0  0  0  0
 19 35  1  0  0  0  0
M  CHG  1   8   1
M  END
> <s_m_source_file>
AV-unprocessed.smi

> <i_m_source_file_index>
157

> <i_lp_mmshare_version>
43012

> <i_f3d_flags>
0

> <s_epik_input>
W09IXVtDSDJdW0NASF0xT1tDQEhdKFtDSDJdW0NAQEhdMVtPSF0pbihbY0hdbjIpYyhjMjMpTj1bQ0hdW05IXVtDSDJdW0NASF0zW09IXQ==

> <s_epik_cmdline>
J2VwaWtfcHl0aG9uJywgJy1waCcsICc3LjAnLCAnLXRuJywgJzgnLCAnLW1hJywgJzIwMCcsICctbWV0YWxfYmluZGluZycsICctaW1hZScsICc8aW5maWxlLm1hZT4nLCAnLW9tYWUnLCAnPG91dGZpbGUubWFlPic=

> <r_epik_Ionization_Penalty>
1.68594

> <r_epik_Ionization_Penalty_Charging>
0

> <r_epik_Ionization_Penalty_Neutral>
1.68594

> <r_epik_State_Penalty>
1.79006

> <r_epik_Charging_Adjusted_Penalty>
1.79006

> <i_epik_Tot_Q>
1

> <i_epik_Tot_abs_Q>
1

> <r_epik_Metal_State_Penalty>
5.85324

> <b_epik_Metal_Only>
0

> <s_epik_Chemistry_Notes>
This compound has an imine and may undergo hydrolysis. This compound contains an acetal/aminal-like group ( X-CH(R)-Y where X, Y are N, S, or O) that may be acid/base labile, releasing an aldehyde.

> <s_lp_Force_Field>
OPLS_2005

> <r_lp_Energy>
54.8473

> <b_lp_Chiralities_Consistent>
1

> <s_lp_Variant>
AV-unprocessed.smi:157-20

> <Gold.Version>
5.8.1

> <Gold.Id.Protein>
6NUR|6NUR_protein|mol2

> <Gold.PLP.Fitness>
51.5976

> <Gold.PLP.PLP>
-34.0721

> <Gold.PLP.part.hbond>
-8.4942

> <Gold.PLP.part.metal>
0.0000

> <Gold.PLP.part.buried>
-3.3209

> <Gold.PLP.part.nonpolar>
-24.1118

> <Gold.PLP.part.repulsive>
0.5288

> <Gold.PLP.ligand.clash>
0.0000

> <Gold.PLP.ligand.torsion>
0.3827

> <Gold.PLP.Chemscore.Hbond>
5.5140

> <Gold.PLP.Chemscore.CHOScore>
0.5782

> <Gold.PLP.Chemscore.Metal>
0.0000

> <Gold.Chemscore.Hbonds>
donor molecule, donor type, donor heavy atom, donor atom, acceptor molecule, acceptor atom, score
      L1  H     8    36       P1 10175  1.08
      L1  H    16    32       P1 10175  1.00
      L1  H    19    35       P1 10747  0.34

> <Gold.PLP.Chemscore.Internal.Correction>
0.0142

> <Gold.Rescore>
     Score         DG    S(hbond)    S(metal)    S(lipo)     H(rot)  DE(clash)    DE(int)     intcor
     10.16     -11.04       2.67        0.00      51.61       3.67       0.69       0.19       ----

> <Gold.Chemscore.Fitness>
10.1623

> <Gold.Chemscore.DG>
-11.0436

> <Gold.Chemscore.ZeroCoef>
-5.4800

> <Gold.Chemscore.Hbond>
2.6678

> <Gold.Chemscore.Metal>
0.0000

> <Gold.Chemscore.Lipo>
51.6066

> <Gold.Chemscore.Internal_Hbond>
0.0000

> <Gold.Chemscore.DEClash>
0.6870

> <Gold.Chemscore.DEInternal>
0.1942

> <Gold.Chemscore.Rot>
3.6659

> <Gold.Chemscore.Internal.Correction>
   9.000000E+99

> <Gold.Chemscore.Hbonds>
donor molecule, donor type, donor heavy atom, donor atom, acceptor molecule, acceptor atom, score
      L1  H     8    36       P1 10175  0.52
      L1  H    16    32       P1 10175  0.91
      L1  H    19    35       P1 10747  0.34
      P1  H 10785 10796       L1     1  0.03

> <Gold.Chemscore.Hbond.Weighted>
-8.9104

> <Gold.Chemscore.Metal.Weighted>
-0.0000

> <Gold.Chemscore.Lipo.Weighted>
-6.0380

> <Gold.Chemscore.Internal_Hbond.Weighted>
0.0000

> <Gold.Chemscore.DEClash.Weighted>
0.6870

> <Gold.Chemscore.DEInternal.Weighted>
0.1942

> <Gold.Chemscore.Rot.Weighted>
9.3848

> <Gold.Chemscore.Internal.Correction.Weighted>
   9.000000E+99

> <Gold.Protein.RotatedTorsions>
[ 6907 6896 6895 6894 ] final -159.26 input  -60.11 | X-H torsion
[ 7974 7965 7964 7962 ] final  -81.50 input  175.53 | X-H torsion
[ 8008 7997 7996 7995 ] final  108.68 input   59.86 | X-H torsion
[ 10167 10162 10161 10158 ] final -148.11 input  -65.29 | X-H torsion
[ 10718 10713 10712 10709 ] final  -95.59 input   66.30 | X-H torsion
[ 10763 10752 10751 10750 ] final   16.01 input  -60.55 | X-H torsion
[ 11005 11000 10999 10996 ] final  -86.72 input  -57.11 | X-H torsion

> <Gold.Protein.ActiveResidues>
 VAL166  LYS551  ARG553  GLY616  TRP617  ASP618  TYR619  PRO620  LYS621  CYS622 
 ASP623  PHE694  ASN695  SER759  ASP760  ASP761  ALA762  ILE779  LEU786  VAL792 
 PHE793  MET794  SER795  GLU796  ALA797  LYS798  CYS799  TRP800  GLU811  SER814 

> <Gold.Protein.RotatedAtoms>
  151.3308  133.4001  159.2662 H   0  0  0  0  0  0  0  0  0  0  0  0  # atno 6907 bound_to 6896
  150.9957  134.9282  159.7936 H   0  0  0  0  0  0  0  0  0  0  0  0  # atno 6908 bound_to 6896
  152.5260  134.3273  159.9222 H   0  0  0  0  0  0  0  0  0  0  0  0  # atno 6909 bound_to 6896
  145.5458  140.9503  143.1526 H   0  0  0  0  0  0  0  0  0  0  0  0  # atno 7974 bound_to 7965
  156.1922  140.3072  155.9354 H   0  0  0  0  0  0  0  0  0  0  0  0  # atno 8008 bound_to 7997
  155.3148  140.0453  157.3053 H   0  0  0  0  0  0  0  0  0  0  0  0  # atno 8009 bound_to 7997
  154.5465  140.2278  155.8563 H   0  0  0  0  0  0  0  0  0  0  0  0  # atno 8010 bound_to 7997
  139.7561  143.8445  152.2597 H   0  0  0  0  0  0  0  0  0  0  0  0  # atno 10167 bound_to 10162
  156.0046  130.5115  150.6099 H   0  0  0  0  0  0  0  0  0  0  0  0  # atno 10718 bound_to 10713
  153.1471  135.6771  153.8938 H   0  0  0  0  0  0  0  0  0  0  0  0  # atno 10763 bound_to 10752
  153.8377  135.3109  155.3425 H   0  0  0  0  0  0  0  0  0  0  0  0  # atno 10764 bound_to 10752
  154.7833  135.4876  153.9977 H   0  0  0  0  0  0  0  0  0  0  0  0  # atno 10765 bound_to 10752
  141.1626  133.7470  156.9203 H   0  0  0  0  0  0  0  0  0  0  0  0  # atno 11005 bound_to 11000
  144.7554  139.7088  143.7256 LP  0  0  0  0  0  0  0  0  0  0  0  0  # atno 17320 bound_to 7965
  146.1950  139.5212  142.9780 LP  0  0  0  0  0  0  0  0  0  0  0  0  # atno 17321 bound_to 7965
  139.8438  144.7197  150.9298 LP  0  0  0  0  0  0  0  0  0  0  0  0  # atno 17342 bound_to 10162
  140.7803  143.3959  151.1230 LP  0  0  0  0  0  0  0  0  0  0  0  0  # atno 17343 bound_to 10162
  157.3934  131.0799  151.1374 LP  0  0  0  0  0  0  0  0  0  0  0  0  # atno 17370 bound_to 10713
  157.2058  130.6415  149.5755 LP  0  0  0  0  0  0  0  0  0  0  0  0  # atno 17371 bound_to 10713
  140.1456  134.9264  157.2525 LP  0  0  0  0  0  0  0  0  0  0  0  0  # atno 17394 bound_to 11000
  140.2784  134.3379  155.7351 LP  0  0  0  0  0  0  0  0  0  0  0  0  # atno 17395 bound_to 11000

$$$$
