AV-unprocessed.smi:413|AV-procd|sdf|2513|dock4
  -GOLD-   2262022463D 1   1.00000     0.00000
 Structure written by MMmdl.
 40 42  0  0  0  0  0  0  0  0  1 V2000
  153.6513  137.7963  159.1154 C   0  0  0  0  0  0  0  0  0  0  0  0
  152.9552  138.5004  158.0454 N   0  0  0  0  0  0  0  0  0  0  0  0
  152.7612  138.0690  156.7768 C   0  0  0  0  0  0  0  0  0  0  0  0
  153.1470  136.9980  156.3088 O   0  0  0  0  0  0  0  0  0  0  0  0
  152.0724  139.0255  156.1104 N   0  0  0  0  0  0  0  0  0  0  0  0
  151.6670  138.9865  154.7072 C   0  0  0  0  0  0  0  0  0  0  0  0
  150.9209  137.6808  154.3658 C   0  0  1  0  0  0  0  0  0  0  0  0
  151.8389  136.6463  154.0765 O   0  0  0  0  0  0  0  0  0  0  0  0
  150.0060  137.1950  155.5021 C   0  0  0  0  0  0  0  0  0  0  0  0
  149.1556  136.1580  155.0273 O   0  0  0  0  0  0  0  0  0  0  0  0
  149.5718  134.8522  155.1708 C   0  0  0  0  0  0  0  0  0  0  0  0
  149.1073  133.9252  154.2148 C   0  0  0  0  0  0  0  0  0  0  0  0
  149.4836  132.5701  154.2822 C   0  0  0  0  0  0  0  0  0  0  0  0
  150.3326  132.1266  155.3127 C   0  0  0  0  0  0  0  0  0  0  0  0
  150.6962  130.8241  155.3792 F   0  0  0  0  0  0  0  0  0  0  0  0
  150.8031  133.0402  156.2740 C   0  0  0  0  0  0  0  0  0  0  0  0
  150.4263  134.3958  156.2066 C   0  0  0  0  0  0  0  0  0  0  0  0
  151.8323  140.1045  156.9732 C   0  0  0  0  0  0  0  0  0  0  0  0
  151.1781  141.3309  156.7631 C   0  0  0  0  0  0  0  0  0  0  0  0
  151.1084  142.2222  157.8596 C   0  0  0  0  0  0  0  0  0  0  0  0
  151.6806  141.8798  159.1127 C   0  0  0  0  0  0  0  0  0  0  0  0
  152.3348  140.6388  159.2961 C   0  0  0  0  0  0  0  0  0  0  0  0
  152.3882  139.7727  158.1904 C   0  0  0  0  0  0  0  0  0  0  0  0
  153.8976  136.7707  158.8377 H   0  0  0  0  0  0  0  0  0  0  0  0
  153.0303  137.7598  160.0109 H   0  0  0  0  0  0  0  0  0  0  0  0
  154.5789  138.3124  159.3634 H   0  0  0  0  0  0  0  0  0  0  0  0
  151.0657  139.8602  154.4495 H   0  0  0  0  0  0  0  0  0  0  0  0
  152.5707  139.0620  154.1014 H   0  0  0  0  0  0  0  0  0  0  0  0
  150.3031  137.8259  153.4785 H   0  0  0  0  0  0  0  0  0  0  0  0
  151.7167  136.3808  153.1774 H   0  0  0  0  0  0  0  0  0  0  0  0
  150.6299  136.8025  156.3068 H   0  0  0  0  0  0  0  0  0  0  0  0
  149.4262  138.0260  155.9078 H   0  0  0  0  0  0  0  0  0  0  0  0
  148.4553  134.2577  153.4202 H   0  0  0  0  0  0  0  0  0  0  0  0
  149.1210  131.8717  153.5425 H   0  0  0  0  0  0  0  0  0  0  0  0
  151.4550  132.7011  157.0655 H   0  0  0  0  0  0  0  0  0  0  0  0
  150.8072  135.0655  156.9624 H   0  0  0  0  0  0  0  0  0  0  0  0
  150.7472  141.5865  155.8063 H   0  0  0  0  0  0  0  0  0  0  0  0
  150.6145  143.1753  157.7412 H   0  0  0  0  0  0  0  0  0  0  0  0
  151.6170  142.5755  159.9365 H   0  0  0  0  0  0  0  0  0  0  0  0
  152.7745  140.3715  160.2456 H   0  0  0  0  0  0  0  0  0  0  0  0
  1  2  1  0  0  0  0
  1 24  1  0  0  0  0
  1 25  1  0  0  0  0
  1 26  1  0  0  0  0
  2 23  1  0  0  0  0
  2  3  1  0  0  0  0
  3  4  2  0  0  0  0
  3  5  1  0  0  0  0
  5  6  1  0  0  0  0
  5 18  1  0  0  0  0
  6  7  1  0  0  0  0
  6 27  1  0  0  0  0
  6 28  1  0  0  0  0
  7  8  1  0  0  0  0
  7  9  1  0  0  0  0
  7 29  1  0  0  0  0
  8 30  1  0  0  0  0
  9 10  1  0  0  0  0
  9 31  1  0  0  0  0
  9 32  1  0  0  0  0
 10 11  1  0  0  0  0
 11 17  1  0  0  0  0
 11 12  2  0  0  0  0
 12 13  1  0  0  0  0
 12 33  1  0  0  0  0
 13 14  2  0  0  0  0
 13 34  1  0  0  0  0
 14 15  1  0  0  0  0
 14 16  1  0  0  0  0
 16 17  2  0  0  0  0
 16 35  1  0  0  0  0
 17 36  1  0  0  0  0
 18 23  2  0  0  0  0
 18 19  1  0  0  0  0
 19 20  2  0  0  0  0
 19 37  1  0  0  0  0
 20 21  1  0  0  0  0
 20 38  1  0  0  0  0
 21 22  2  0  0  0  0
 21 39  1  0  0  0  0
 22 23  1  0  0  0  0
 22 40  1  0  0  0  0
M  END
> <s_m_source_file>
AV-unprocessed.smi

> <i_m_source_file_index>
413

> <i_lp_mmshare_version>
43012

> <i_f3d_flags>
0

> <s_epik_input>
W2NIXTFbY0hdW2NIXVtjSF1jKGMxMiluKFtDSDNdKWMoPU8pbjJbQ0gyXVtDQEhdKFtPSF0pW0NIMl1PYzNbY0hdW2NIXWMoRilbY0hdW2NIXTM=

> <s_epik_cmdline>
J2VwaWtfcHl0aG9uJywgJy1waCcsICc3LjAnLCAnLXRuJywgJzgnLCAnLW1hJywgJzIwMCcsICctbWV0YWxfYmluZGluZycsICctaW1hZScsICc8aW5maWxlLm1hZT4nLCAnLW9tYWUnLCAnPG91dGZpbGUubWFlPic=

> <r_lp_tautomer_probability>
1

> <r_epik_Ionization_Penalty>
2.40172e-06

> <r_epik_Ionization_Penalty_Charging>
2.42369e-09

> <r_epik_Ionization_Penalty_Neutral>
2.3993e-06

> <r_epik_State_Penalty>
-0

> <r_epik_Charging_Adjusted_Penalty>
2.42369e-09

> <i_epik_Tot_Q>
0

> <i_epik_Tot_abs_Q>
0

> <r_epik_Metal_State_Penalty>
-0

> <b_epik_Metal_Only>
0

> <s_lp_Force_Field>
OPLS_2005

> <r_lp_Energy>
47.225

> <b_lp_Chiralities_Consistent>
1

> <s_lp_Variant>
AV-unprocessed.smi:413-2

> <Gold.Version>
5.8.1

> <Gold.Id.Protein>
6NUR|6NUR_protein|mol2

> <Gold.PLP.Fitness>
45.7175

> <Gold.PLP.PLP>
-41.6377

> <Gold.PLP.part.hbond>
-2.8913

> <Gold.PLP.part.metal>
0.0000

> <Gold.PLP.part.buried>
-4.9596

> <Gold.PLP.part.nonpolar>
-34.4278

> <Gold.PLP.part.repulsive>
0.1487

> <Gold.PLP.ligand.clash>
0.0000

> <Gold.PLP.ligand.torsion>
0.9703

> <Gold.PLP.Chemscore.Hbond>
1.9920

> <Gold.PLP.Chemscore.CHOScore>
0.0000

> <Gold.PLP.Chemscore.Metal>
0.0000

> <Gold.Chemscore.Hbonds>
donor molecule, donor type, donor heavy atom, donor atom, acceptor molecule, acceptor atom, score
      L1  H     8    30       P1  7949  1.00
      P1  H 10752 10765       L1     8  0.95

> <Gold.PLP.Chemscore.Internal.Correction>
0.0442

> <Gold.Rescore>
     Score         DG    S(hbond)    S(metal)    S(lipo)     H(rot)  DE(clash)    DE(int)     intcor
     14.34     -16.30       1.55        0.00      97.97       2.27       0.03       1.92       ----

> <Gold.Chemscore.Fitness>
14.3443

> <Gold.Chemscore.DG>
-16.2957

> <Gold.Chemscore.ZeroCoef>
-5.4800

> <Gold.Chemscore.Hbond>
1.5468

> <Gold.Chemscore.Metal>
0.0000

> <Gold.Chemscore.Lipo>
97.9686

> <Gold.Chemscore.Internal_Hbond>
0.0000

> <Gold.Chemscore.DEClash>
0.0320

> <Gold.Chemscore.DEInternal>
1.9194

> <Gold.Chemscore.Rot>
2.2706

> <Gold.Chemscore.Internal.Correction>
   9.000000E+99

> <Gold.Chemscore.Hbonds>
donor molecule, donor type, donor heavy atom, donor atom, acceptor molecule, acceptor atom, score
      L1  H     8    30       P1  7949  0.98
      P1  H 10752 10763       L1     4  0.01
      P1  H 10752 10765       L1     8  0.19

> <Gold.Chemscore.Hbond.Weighted>
-5.1662

> <Gold.Chemscore.Metal.Weighted>
-0.0000

> <Gold.Chemscore.Lipo.Weighted>
-11.4623

> <Gold.Chemscore.Internal_Hbond.Weighted>
0.0000

> <Gold.Chemscore.DEClash.Weighted>
0.0320

> <Gold.Chemscore.DEInternal.Weighted>
1.9194

> <Gold.Chemscore.Rot.Weighted>
5.8128

> <Gold.Chemscore.Internal.Correction.Weighted>
   9.000000E+99

> <Gold.Protein.RotatedTorsions>
[ 6907 6896 6895 6894 ] final -174.44 input  -60.11 | X-H torsion
[ 7974 7965 7964 7962 ] final  -22.35 input  175.53 | X-H torsion
[ 8008 7997 7996 7995 ] final  -35.67 input   59.86 | X-H torsion
[ 10167 10162 10161 10158 ] final   58.51 input  -65.29 | X-H torsion
[ 10718 10713 10712 10709 ] final   59.86 input   66.30 | X-H torsion
[ 10763 10752 10751 10750 ] final  174.91 input  -60.55 | X-H torsion
[ 11005 11000 10999 10996 ] final  -28.92 input  -57.11 | X-H torsion

> <Gold.Protein.ActiveResidues>
 VAL166  LYS551  ARG553  GLY616  TRP617  ASP618  TYR619  PRO620  LYS621  CYS622 
 ASP623  PHE694  ASN695  SER759  ASP760  ASP761  ALA762  ILE779  LEU786  VAL792 
 PHE793  MET794  SER795  GLU796  ALA797  LYS798  CYS799  TRP800  GLU811  SER814 

> <Gold.Protein.RotatedAtoms>
  151.5723  133.3388  159.2991 H   0  0  0  0  0  0  0  0  0  0  0  0  # atno 6907 bound_to 6896
  150.8360  134.7636  159.6904 H   0  0  0  0  0  0  0  0  0  0  0  0  # atno 6908 bound_to 6896
  152.4436  134.5547  159.9928 H   0  0  0  0  0  0  0  0  0  0  0  0  # atno 6909 bound_to 6896
  146.1680  140.4467  142.8544 H   0  0  0  0  0  0  0  0  0  0  0  0  # atno 7974 bound_to 7965
  154.4090  140.1651  156.2249 H   0  0  0  0  0  0  0  0  0  0  0  0  # atno 8008 bound_to 7997
  155.9332  140.3413  155.6243 H   0  0  0  0  0  0  0  0  0  0  0  0  # atno 8009 bound_to 7997
  155.7080  140.0753  157.2373 H   0  0  0  0  0  0  0  0  0  0  0  0  # atno 8010 bound_to 7997
  140.1864  144.4130  150.6591 H   0  0  0  0  0  0  0  0  0  0  0  0  # atno 10167 bound_to 10162
  157.5708  130.8906  149.9264 H   0  0  0  0  0  0  0  0  0  0  0  0  # atno 10718 bound_to 10713
  154.4603  135.2767  155.1717 H   0  0  0  0  0  0  0  0  0  0  0  0  # atno 10763 bound_to 10752
  154.3508  135.6150  153.5645 H   0  0  0  0  0  0  0  0  0  0  0  0  # atno 10764 bound_to 10752
  152.9854  135.5811  154.4965 H   0  0  0  0  0  0  0  0  0  0  0  0  # atno 10765 bound_to 10752
  140.9250  133.7374  156.0855 H   0  0  0  0  0  0  0  0  0  0  0  0  # atno 11005 bound_to 11000
  144.8121  140.6404  143.6408 LP  0  0  0  0  0  0  0  0  0  0  0  0  # atno 17320 bound_to 7965
  145.4415  139.1535  143.3968 LP  0  0  0  0  0  0  0  0  0  0  0  0  # atno 17321 bound_to 7965
  140.6485  143.2219  151.6131 LP  0  0  0  0  0  0  0  0  0  0  0  0  # atno 17342 bound_to 10162
  139.5274  144.3017  152.1067 LP  0  0  0  0  0  0  0  0  0  0  0  0  # atno 17343 bound_to 10162
  156.0754  130.3679  150.0689 LP  0  0  0  0  0  0  0  0  0  0  0  0  # atno 17370 bound_to 10713
  156.8842  130.9567  151.3596 LP  0  0  0  0  0  0  0  0  0  0  0  0  # atno 17371 bound_to 10713
  140.7937  134.3588  157.5458 LP  0  0  0  0  0  0  0  0  0  0  0  0  # atno 17394 bound_to 11000
  139.8783  134.9156  156.3134 LP  0  0  0  0  0  0  0  0  0  0  0  0  # atno 17395 bound_to 11000

$$$$
