AV-unprocessed.smi:1840|AV-procd|sdf|7494|dock7
  -GOLD-   22720 9193D 1   1.00000     0.00000
 Structure written by MMmdl.
 43 44  0  0  0  0  0  0  0  0  1 V2000
  151.9080  145.2352  158.7508 C   0  0  0  0  0  0  0  0  0  0  0  0
  151.3142  143.8320  158.9353 C   0  0  2  0  0  0  0  0  0  0  0  0
  152.4206  142.7718  159.1170 C   0  0  0  0  0  0  0  0  0  0  0  0
  152.8595  142.6540  160.4969 N   0  0  0  0  0  0  0  0  0  0  0  0
  152.5256  143.4495  161.5725 C   0  0  0  0  0  0  0  0  0  0  0  0
  153.1665  142.9434  162.6668 C   0  0  0  0  0  0  0  0  0  0  0  0
  153.8840  141.8280  162.1515 C   0  0  0  0  0  0  0  0  0  0  0  0
  153.6996  141.6579  160.8524 N   0  0  0  0  0  0  0  0  0  0  0  0
  150.4749  143.5121  157.7807 N   0  0  0  0  0  0  0  0  0  0  0  0
  149.9547  142.3075  157.5035 C   0  0  0  0  0  0  0  0  0  0  0  0
  150.0939  141.3135  158.2168 O   0  0  0  0  0  0  0  0  0  0  0  0
  149.2803  142.3149  156.3445 N   0  0  0  0  0  0  0  0  0  0  0  0
  148.5945  141.1697  155.7463 C   0  0  1  0  0  0  0  0  0  0  0  0
  147.2854  141.6611  155.0973 C   0  0  0  0  0  0  0  0  0  0  0  0
  146.5300  140.5167  154.4064 C   0  0  0  0  0  0  0  0  0  0  0  0
  147.4207  139.8168  153.3712 C   0  0  0  0  0  0  0  0  0  0  0  0
  148.7224  139.3145  154.0139 C   0  0  0  0  0  0  0  0  0  0  0  0
  149.4981  140.4523  154.7089 C   0  0  2  0  0  0  0  0  0  0  0  0
  150.8053  139.9170  155.3201 C   0  0  0  0  0  0  0  0  0  0  0  0
  152.5186  145.5185  159.6087 H   0  0  0  0  0  0  0  0  0  0  0  0
  151.1217  145.9836  158.6457 H   0  0  0  0  0  0  0  0  0  0  0  0
  152.5385  145.2870  157.8625 H   0  0  0  0  0  0  0  0  0  0  0  0
  150.7072  143.8575  159.8422 H   0  0  0  0  0  0  0  0  0  0  0  0
  152.0795  141.7975  158.7629 H   0  0  0  0  0  0  0  0  0  0  0  0
  153.2907  143.0335  158.5138 H   0  0  0  0  0  0  0  0  0  0  0  0
  151.8608  144.2948  161.4715 H   0  0  0  0  0  0  0  0  0  0  0  0
  153.1273  143.3128  163.6805 H   0  0  0  0  0  0  0  0  0  0  0  0
  154.5270  141.1392  162.6795 H   0  0  0  0  0  0  0  0  0  0  0  0
  150.3035  144.2614  157.1264 H   0  0  0  0  0  0  0  0  0  0  0  0
  149.2375  143.1827  155.8305 H   0  0  0  0  0  0  0  0  0  0  0  0
  148.3267  140.4511  156.5235 H   0  0  0  0  0  0  0  0  0  0  0  0
  146.6432  142.1183  155.8512 H   0  0  0  0  0  0  0  0  0  0  0  0
  147.5043  142.4406  154.3659 H   0  0  0  0  0  0  0  0  0  0  0  0
  146.1965  139.7944  155.1525 H   0  0  0  0  0  0  0  0  0  0  0  0
  145.6311  140.9020  153.9242 H   0  0  0  0  0  0  0  0  0  0  0  0
  146.8820  138.9827  152.9208 H   0  0  0  0  0  0  0  0  0  0  0  0
  147.6551  140.5080  152.5606 H   0  0  0  0  0  0  0  0  0  0  0  0
  148.4906  138.5321  154.7378 H   0  0  0  0  0  0  0  0  0  0  0  0
  149.3466  138.8500  153.2498 H   0  0  0  0  0  0  0  0  0  0  0  0
  149.7736  141.1778  153.9415 H   0  0  0  0  0  0  0  0  0  0  0  0
  150.6063  139.2317  156.1446 H   0  0  0  0  0  0  0  0  0  0  0  0
  151.4278  140.7255  155.7015 H   0  0  0  0  0  0  0  0  0  0  0  0
  151.3968  139.3817  154.5771 H   0  0  0  0  0  0  0  0  0  0  0  0
  1  2  1  0  0  0  0
  1 20  1  0  0  0  0
  1 21  1  0  0  0  0
  1 22  1  0  0  0  0
  2  3  1  0  0  0  0
  2  9  1  0  0  0  0
  2 23  1  0  0  0  0
  3  4  1  0  0  0  0
  3 24  1  0  0  0  0
  3 25  1  0  0  0  0
  4  8  1  0  0  0  0
  4  5  1  0  0  0  0
  5  6  2  0  0  0  0
  5 26  1  0  0  0  0
  6  7  1  0  0  0  0
  6 27  1  0  0  0  0
  7  8  2  0  0  0  0
  7 28  1  0  0  0  0
  9 10  1  0  0  0  0
  9 29  1  0  0  0  0
 10 11  2  0  0  0  0
 10 12  1  0  0  0  0
 12 13  1  0  0  0  0
 12 30  1  0  0  0  0
 13 18  1  0  0  0  0
 13 14  1  0  0  0  0
 13 31  1  0  0  0  0
 14 15  1  0  0  0  0
 14 32  1  0  0  0  0
 14 33  1  0  0  0  0
 15 16  1  0  0  0  0
 15 34  1  0  0  0  0
 15 35  1  0  0  0  0
 16 17  1  0  0  0  0
 16 36  1  0  0  0  0
 16 37  1  0  0  0  0
 17 18  1  0  0  0  0
 17 38  1  0  0  0  0
 17 39  1  0  0  0  0
 18 19  1  0  0  0  0
 18 40  1  0  0  0  0
 19 41  1  0  0  0  0
 19 42  1  0  0  0  0
 19 43  1  0  0  0  0
M  END
> <s_m_source_file>
AV-unprocessed.smi

> <i_m_source_file_index>
1840

> <i_lp_mmshare_version>
43012

> <i_f3d_flags>
0

> <s_epik_input>
bjFbY0hdW2NIXVtjSF1uMVtDSDJdW0NAQEhdKFtDSDNdKVtOSF1DKD1PKVtOSF1bQ0BASF0yW0NIMl1bQ0gyXVtDSDJdW0NIMl1bQ0BIXTJbQ0gzXQ==

> <s_epik_cmdline>
J2VwaWtfcHl0aG9uJywgJy1waCcsICc3LjAnLCAnLXRuJywgJzgnLCAnLW1hJywgJzIwMCcsICctbWV0YWxfYmluZGluZycsICctaW1hZScsICc8aW5maWxlLm1hZT4nLCAnLW9tYWUnLCAnPG91dGZpbGUubWFlPic=

> <r_lp_tautomer_probability>
1

> <r_epik_Ionization_Penalty>
7.38659e-05

> <r_epik_Ionization_Penalty_Charging>
0

> <r_epik_Ionization_Penalty_Neutral>
7.38659e-05

> <r_epik_State_Penalty>
-0

> <r_epik_Charging_Adjusted_Penalty>
0

> <i_epik_Tot_Q>
0

> <i_epik_Tot_abs_Q>
0

> <r_epik_Metal_State_Penalty>
-0

> <b_epik_Metal_Only>
0

> <s_lp_Force_Field>
OPLS_2005

> <r_lp_Energy>
7.66905

> <b_lp_Chiralities_Consistent>
1

> <s_lp_Variant>
AV-unprocessed.smi:1840-7

> <Gold.Version>
5.8.1

> <Gold.Id.Protein>
6NUR|6NUR_protein|mol2

> <Gold.PLP.Fitness>
48.4982

> <Gold.PLP.PLP>
-44.9762

> <Gold.PLP.part.hbond>
-1.9706

> <Gold.PLP.part.metal>
0.0000

> <Gold.PLP.part.buried>
-2.9540

> <Gold.PLP.part.nonpolar>
-39.9281

> <Gold.PLP.part.repulsive>
0.1109

> <Gold.PLP.ligand.clash>
0.0000

> <Gold.PLP.ligand.torsion>
0.8171

> <Gold.PLP.Chemscore.Hbond>
1.7114

> <Gold.PLP.Chemscore.CHOScore>
0.0000

> <Gold.PLP.Chemscore.Metal>
0.0000

> <Gold.Chemscore.Hbonds>
donor molecule, donor type, donor heavy atom, donor atom, acceptor molecule, acceptor atom, score
      L1  H     9    29       P1  8028  0.70
      L1  H    12    30       P1  8028  1.00

> <Gold.PLP.Chemscore.Internal.Correction>
0.0220

> <Gold.Rescore>
     Score         DG    S(hbond)    S(metal)    S(lipo)     H(rot)  DE(clash)    DE(int)     intcor
     18.29     -20.54       1.82        0.00     110.79       1.56       0.16       2.09       ----

> <Gold.Chemscore.Fitness>
18.2913

> <Gold.Chemscore.DG>
-20.5439

> <Gold.Chemscore.ZeroCoef>
-5.4800

> <Gold.Chemscore.Hbond>
1.8229

> <Gold.Chemscore.Metal>
0.0000

> <Gold.Chemscore.Lipo>
110.7947

> <Gold.Chemscore.Internal_Hbond>
0.0000

> <Gold.Chemscore.DEClash>
0.1637

> <Gold.Chemscore.DEInternal>
2.0889

> <Gold.Chemscore.Rot>
1.5576

> <Gold.Chemscore.Internal.Correction>
   9.000000E+99

> <Gold.Chemscore.Hbonds>
donor molecule, donor type, donor heavy atom, donor atom, acceptor molecule, acceptor atom, score
      L1  H     9    29       P1  8028  0.57
      L1  H    12    30       P1  8028  0.95

> <Gold.Chemscore.Hbond.Weighted>
-6.0884

> <Gold.Chemscore.Metal.Weighted>
-0.0000

> <Gold.Chemscore.Lipo.Weighted>
-12.9630

> <Gold.Chemscore.Internal_Hbond.Weighted>
0.0000

> <Gold.Chemscore.DEClash.Weighted>
0.1637

> <Gold.Chemscore.DEInternal.Weighted>
2.0889

> <Gold.Chemscore.Rot.Weighted>
3.9875

> <Gold.Chemscore.Internal.Correction.Weighted>
   9.000000E+99

> <Gold.Protein.RotatedTorsions>
[ 6907 6896 6895 6894 ] final -118.11 input  -60.11 | X-H torsion
[ 7974 7965 7964 7962 ] final   48.04 input  175.53 | X-H torsion
[ 8008 7997 7996 7995 ] final -107.61 input   59.86 | X-H torsion
[ 10167 10162 10161 10158 ] final -179.08 input  -65.29 | X-H torsion
[ 10718 10713 10712 10709 ] final  112.02 input   66.30 | X-H torsion
[ 10763 10752 10751 10750 ] final   20.96 input  -60.55 | X-H torsion
[ 11005 11000 10999 10996 ] final   63.13 input  -57.11 | X-H torsion

> <Gold.Protein.ActiveResidues>
 VAL166  LYS551  ARG553  GLY616  TRP617  ASP618  TYR619  PRO620  LYS621  CYS622 
 ASP623  PHE694  ASN695  SER759  ASP760  ASP761  ALA762  ILE779  LEU786  VAL792 
 PHE793  MET794  SER795  GLU796  ALA797  LYS798  CYS799  TRP800  GLU811  SER814 

> <Gold.Protein.RotatedAtoms>
  150.8192  133.8283  159.3146 H   0  0  0  0  0  0  0  0  0  0  0  0  # atno 6907 bound_to 6896
  151.6046  135.1043  160.0077 H   0  0  0  0  0  0  0  0  0  0  0  0  # atno 6908 bound_to 6896
  152.4282  133.7191  159.6579 H   0  0  0  0  0  0  0  0  0  0  0  0  # atno 6909 bound_to 6896
  146.0242  139.4686  142.9878 H   0  0  0  0  0  0  0  0  0  0  0  0  # atno 7974 bound_to 7965
  154.9319  140.0405  157.2052 H   0  0  0  0  0  0  0  0  0  0  0  0  # atno 8008 bound_to 7997
  154.8153  140.2874  155.5803 H   0  0  0  0  0  0  0  0  0  0  0  0  # atno 8009 bound_to 7997
  156.2975  140.2529  156.3049 H   0  0  0  0  0  0  0  0  0  0  0  0  # atno 8010 bound_to 7997
  139.5403  144.2383  152.0880 H   0  0  0  0  0  0  0  0  0  0  0  0  # atno 10167 bound_to 10162
  157.6414  131.0961  150.6834 H   0  0  0  0  0  0  0  0  0  0  0  0  # atno 10718 bound_to 10713
  153.1034  135.6678  153.9631 H   0  0  0  0  0  0  0  0  0  0  0  0  # atno 10763 bound_to 10752
  153.9195  135.3016  155.3449 H   0  0  0  0  0  0  0  0  0  0  0  0  # atno 10764 bound_to 10752
  154.7455  135.5059  153.9273 H   0  0  0  0  0  0  0  0  0  0  0  0  # atno 10765 bound_to 10752
  140.0045  134.6390  155.9877 H   0  0  0  0  0  0  0  0  0  0  0  0  # atno 11005 bound_to 11000
  145.7145  141.0095  143.1435 LP  0  0  0  0  0  0  0  0  0  0  0  0  # atno 17320 bound_to 7965
  144.7002  139.8797  143.7446 LP  0  0  0  0  0  0  0  0  0  0  0  0  # atno 17321 bound_to 7965
  140.1860  144.4798  150.6503 LP  0  0  0  0  0  0  0  0  0  0  0  0  # atno 17342 bound_to 10162
  140.6629  143.2258  151.5812 LP  0  0  0  0  0  0  0  0  0  0  0  0  # atno 17343 bound_to 10162
  156.7158  130.4665  149.5535 LP  0  0  0  0  0  0  0  0  0  0  0  0  # atno 17370 bound_to 10713
  156.1699  130.6430  151.0824 LP  0  0  0  0  0  0  0  0  0  0  0  0  # atno 17371 bound_to 10713
  141.1667  133.6537  156.4504 LP  0  0  0  0  0  0  0  0  0  0  0  0  # atno 17394 bound_to 11000
  140.4666  134.6792  157.5110 LP  0  0  0  0  0  0  0  0  0  0  0  0  # atno 17395 bound_to 11000

$$$$
