AV-unprocessed.smi:290|AV-procd|sdf|2224|dock2
  -GOLD-   2262022 73D 1   1.00000     0.00000
 Structure written by MMmdl.
 59 62  0  0  0  0  0  0  0  0  2 V2000
  146.9012  136.8481  159.3368 C   0  0  0  0  0  0  0  0  0  0  0  0
  147.6875  136.2175  160.4965 C   0  0  1  0  0  0  0  0  0  0  0  0
  147.9217  137.1641  161.5380 O   0  0  0  0  0  0  0  0  0  0  0  0
  147.6411  136.5868  162.8077 C   0  0  0  0  0  0  0  0  0  0  0  0
  147.6246  135.0803  162.5710 C   0  0  0  0  0  0  0  0  0  0  0  0
  147.0560  134.9734  161.1629 C   0  0  1  0  0  0  0  0  0  0  0  0
  145.6468  135.1145  161.2368 O   0  0  0  0  0  0  0  0  0  0  0  0
  147.3155  133.6201  160.4507 C   0  0  0  0  0  0  0  0  0  0  0  0
  146.9684  133.5910  159.0381 N   0  0  0  0  0  0  0  0  0  0  0  0
  145.7031  133.5272  158.4966 C   0  0  0  0  0  0  0  0  0  0  0  0
  145.6534  133.5183  157.1919 N   0  0  0  0  0  0  0  0  0  0  0  0
  146.9848  133.5992  156.8067 C   0  0  0  0  0  0  0  0  0  0  0  0
  147.6463  133.6405  155.5526 C   0  0  0  0  0  0  0  0  0  0  0  0
  146.9598  133.5901  154.3894 N   0  0  0  0  0  0  0  0  0  0  0  0
  145.9249  134.6044  154.2622 C   0  0  0  0  0  0  0  0  0  0  0  0
  145.0405  134.1592  153.0907 C   0  0  0  0  0  0  0  0  0  0  0  0
  145.3625  132.6622  152.8909 C   0  0  1  0  0  0  0  0  0  0  0  0
  145.8836  132.3045  151.5342 N   0  3  2  0  0  0  0  0  0  0  0  0
  146.6128  133.3839  150.8193 C   0  0  0  0  0  0  0  0  0  0  0  0
  144.8763  131.6426  150.6664 C   0  0  0  0  0  0  0  0  0  0  0  0
  144.0946  132.6531  149.8102 C   0  0  0  0  0  0  0  0  0  0  0  0
  142.8778  132.0802  149.3808 O   0  0  0  0  0  0  0  0  0  0  0  0
  146.3253  132.3244  154.0468 C   0  0  1  0  0  0  0  0  0  0  0  0
  147.3108  131.1606  153.8185 C   0  0  0  0  0  0  0  0  0  0  0  0
  149.0024  133.7316  155.5493 N   0  0  0  0  0  0  0  0  0  0  0  0
  149.6692  133.7798  156.7070 C   0  0  0  0  0  0  0  0  0  0  0  0
  149.1855  133.7507  157.9509 N   0  0  0  0  0  0  0  0  0  0  0  0
  147.8247  133.6565  157.9528 C   0  0  0  0  0  0  0  0  0  0  0  0
  144.4558  132.0821  153.0619 H   0  0  0  0  0  0  0  0  0  0  0  0
  145.6969  132.0424  154.8939 H   0  0  0  0  0  0  0  0  0  0  0  0
  146.7201  136.1200  158.5458 H   0  0  0  0  0  0  0  0  0  0  0  0
  147.4573  137.6782  158.9014 H   0  0  0  0  0  0  0  0  0  0  0  0
  145.9376  137.2370  159.6661 H   0  0  0  0  0  0  0  0  0  0  0  0
  148.6827  135.9664  160.1327 H   0  0  0  0  0  0  0  0  0  0  0  0
  148.3772  136.8863  163.5541 H   0  0  0  0  0  0  0  0  0  0  0  0
  146.6617  136.9321  163.1406 H   0  0  0  0  0  0  0  0  0  0  0  0
  148.6498  134.7140  162.6069 H   0  0  0  0  0  0  0  0  0  0  0  0
  147.0491  134.5356  163.3202 H   0  0  0  0  0  0  0  0  0  0  0  0
  145.2787  134.3047  161.5554 H   0  0  0  0  0  0  0  0  0  0  0  0
  148.3676  133.3470  160.5427 H   0  0  0  0  0  0  0  0  0  0  0  0
  146.7549  132.8274  160.9487 H   0  0  0  0  0  0  0  0  0  0  0  0
  144.8113  133.4822  159.1050 H   0  0  0  0  0  0  0  0  0  0  0  0
  145.3334  134.6649  155.1773 H   0  0  0  0  0  0  0  0  0  0  0  0
  146.3632  135.5864  154.0806 H   0  0  0  0  0  0  0  0  0  0  0  0
  143.9879  134.3063  153.3343 H   0  0  0  0  0  0  0  0  0  0  0  0
  145.2376  134.7633  152.2071 H   0  0  0  0  0  0  0  0  0  0  0  0
  145.9339  134.1180  150.3860 H   0  0  0  0  0  0  0  0  0  0  0  0
  147.1920  132.9554  150.0010 H   0  0  0  0  0  0  0  0  0  0  0  0
  147.3129  133.9087  151.4676 H   0  0  0  0  0  0  0  0  0  0  0  0
  145.3690  130.9048  150.0317 H   0  0  0  0  0  0  0  0  0  0  0  0
  144.1622  131.0863  151.2763 H   0  0  0  0  0  0  0  0  0  0  0  0
  143.8929  133.5798  150.3464 H   0  0  0  0  0  0  0  0  0  0  0  0
  144.6771  132.9185  148.9276 H   0  0  0  0  0  0  0  0  0  0  0  0
  142.2000  132.7378  149.4304 H   0  0  0  0  0  0  0  0  0  0  0  0
  146.7808  130.2566  153.5178 H   0  0  0  0  0  0  0  0  0  0  0  0
  147.8575  130.9269  154.7325 H   0  0  0  0  0  0  0  0  0  0  0  0
  148.0495  131.3870  153.0505 H   0  0  0  0  0  0  0  0  0  0  0  0
  150.7441  133.8492  156.6259 H   0  0  0  0  0  0  0  0  0  0  0  0
  146.5803  131.5919  151.7012 H   0  0  0  0  0  0  0  0  0  0  0  0
  1  2  1  0  0  0  0
  1 31  1  0  0  0  0
  1 32  1  0  0  0  0
  1 33  1  0  0  0  0
  2  6  1  0  0  0  0
  2  3  1  0  0  0  0
  2 34  1  0  0  0  0
  3  4  1  0  0  0  0
  4  5  1  0  0  0  0
  4 35  1  0  0  0  0
  4 36  1  0  0  0  0
  5  6  1  0  0  0  0
  5 37  1  0  0  0  0
  5 38  1  0  0  0  0
  6  7  1  0  0  0  0
  6  8  1  0  0  0  0
  7 39  1  0  0  0  0
  8  9  1  0  0  0  0
  8 40  1  0  0  0  0
  8 41  1  0  0  0  0
  9 28  1  0  0  0  0
  9 10  1  0  0  0  0
 10 11  2  0  0  0  0
 10 42  1  0  0  0  0
 11 12  1  0  0  0  0
 12 28  2  0  0  0  0
 12 13  1  0  0  0  0
 13 14  1  0  0  0  0
 13 25  2  0  0  0  0
 14 23  1  0  0  0  0
 14 15  1  0  0  0  0
 15 16  1  0  0  0  0
 15 43  1  0  0  0  0
 15 44  1  0  0  0  0
 16 17  1  0  0  0  0
 16 45  1  0  0  0  0
 16 46  1  0  0  0  0
 17 29  1  0  0  0  0
 17 18  1  0  0  0  0
 17 23  1  0  0  0  0
 18 19  1  0  0  0  0
 18 20  1  0  0  0  0
 18 59  1  0  0  0  0
 19 47  1  0  0  0  0
 19 48  1  0  0  0  0
 19 49  1  0  0  0  0
 20 21  1  0  0  0  0
 20 50  1  0  0  0  0
 20 51  1  0  0  0  0
 21 22  1  0  0  0  0
 21 52  1  0  0  0  0
 21 53  1  0  0  0  0
 22 54  1  0  0  0  0
 23 30  1  0  0  0  0
 23 24  1  0  0  0  0
 24 55  1  0  0  0  0
 24 56  1  0  0  0  0
 24 57  1  0  0  0  0
 25 26  1  0  0  0  0
 26 27  2  0  0  0  0
 26 58  1  0  0  0  0
 27 28  1  0  0  0  0
M  CHG  1  18   1
M  END
> <s_m_source_file>
AV-unprocessed.smi

> <i_m_source_file_index>
290

> <i_lp_mmshare_version>
43012

> <i_f3d_flags>
0

> <s_epik_input>
W0NIMl0xW0NIMl1PW0NAQEhdKFtDSDNdKVtDQEBdMShbT0hdKVtDSDJdbihbY0hdbjIpYyhjMjMpbltjSF1uYzNONFtDSDJdW0NIMl1bQ0BIXShbQ0BIXTRbQ0gzXSlOKFtDSDNdKVtDSDJdW0NIMl1bT0hd

> <s_epik_cmdline>
J2VwaWtfcHl0aG9uJywgJy1waCcsICc3LjAnLCAnLXRuJywgJzgnLCAnLW1hJywgJzIwMCcsICctbWV0YWxfYmluZGluZycsICctaW1hZScsICc8aW5maWxlLm1hZT4nLCAnLW9tYWUnLCAnPG91dGZpbGUubWFlPic=

> <r_lp_tautomer_probability>
1

> <r_epik_Ionization_Penalty>
0.0036983

> <r_epik_Ionization_Penalty_Charging>
0.0032725

> <r_epik_Ionization_Penalty_Neutral>
0.000425798

> <r_epik_State_Penalty>
-0

> <r_epik_Charging_Adjusted_Penalty>
0.0032725

> <i_epik_Tot_Q>
1

> <i_epik_Tot_abs_Q>
1

> <r_epik_Metal_State_Penalty>
-0

> <b_epik_Metal_Only>
0

> <s_lp_Force_Field>
OPLS_2005

> <r_lp_Energy>
72.0744

> <b_lp_Chiralities_Consistent>
1

> <s_lp_Variant>
AV-unprocessed.smi:290-10

> <Gold.Version>
5.8.1

> <Gold.Id.Protein>
6NUR|6NUR_protein|mol2

> <Gold.PLP.Fitness>
47.6202

> <Gold.PLP.PLP>
-37.4720

> <Gold.PLP.part.hbond>
-5.8376

> <Gold.PLP.part.metal>
0.0000

> <Gold.PLP.part.buried>
-6.8058

> <Gold.PLP.part.nonpolar>
-24.8622

> <Gold.PLP.part.repulsive>
0.1359

> <Gold.PLP.ligand.clash>
0.0000

> <Gold.PLP.ligand.torsion>
1.8115

> <Gold.PLP.Chemscore.Hbond>
4.4814

> <Gold.PLP.Chemscore.CHOScore>
0.0000

> <Gold.PLP.Chemscore.Metal>
0.0000

> <Gold.Chemscore.Hbonds>
donor molecule, donor type, donor heavy atom, donor atom, acceptor molecule, acceptor atom, score
      L1  H    22    54       P1 10186  0.94
      P1  H  6896  6909       L1    27  0.96
      P1  H  6931  6943       L1     3  1.00
      P1  H  6934  6947       L1     3  0.59
      P1  H 10785 10796       L1    22  0.91

> <Gold.PLP.Chemscore.Internal.Correction>
0.3271

> <Gold.Rescore>
     Score         DG    S(hbond)    S(metal)    S(lipo)     H(rot)  DE(clash)    DE(int)     intcor
     15.20     -16.89       3.34        0.00      82.55       3.67       0.01       1.69       ----

> <Gold.Chemscore.Fitness>
15.1985

> <Gold.Chemscore.DG>
-16.8941

> <Gold.Chemscore.ZeroCoef>
-5.4800

> <Gold.Chemscore.Hbond>
3.3355

> <Gold.Chemscore.Metal>
0.0000

> <Gold.Chemscore.Lipo>
82.5475

> <Gold.Chemscore.Internal_Hbond>
0.0000

> <Gold.Chemscore.DEClash>
0.0073

> <Gold.Chemscore.DEInternal>
1.6882

> <Gold.Chemscore.Rot>
3.6658

> <Gold.Chemscore.Internal.Correction>
   9.000000E+99

> <Gold.Chemscore.Hbonds>
donor molecule, donor type, donor heavy atom, donor atom, acceptor molecule, acceptor atom, score
      L1  H    22    54       P1 10186  0.90
      P1  H  6896  6909       L1    27  0.72
      P1  H  6931  6943       L1     3  0.34
      P1  H  6934  6947       L1     3  0.40
      P1  H 10785 10796       L1    22  0.66

> <Gold.Chemscore.Hbond.Weighted>
-11.1404

> <Gold.Chemscore.Metal.Weighted>
-0.0000

> <Gold.Chemscore.Lipo.Weighted>
-9.6581

> <Gold.Chemscore.Internal_Hbond.Weighted>
0.0000

> <Gold.Chemscore.DEClash.Weighted>
0.0073

> <Gold.Chemscore.DEInternal.Weighted>
1.6882

> <Gold.Chemscore.Rot.Weighted>
9.3844

> <Gold.Chemscore.Internal.Correction.Weighted>
   9.000000E+99

> <Gold.Protein.RotatedTorsions>
[ 6907 6896 6895 6894 ] final   14.53 input  -60.11 | X-H torsion
[ 7974 7965 7964 7962 ] final -155.42 input  175.53 | X-H torsion
[ 8008 7997 7996 7995 ] final -173.43 input   59.86 | X-H torsion
[ 10167 10162 10161 10158 ] final -155.00 input  -65.29 | X-H torsion
[ 10718 10713 10712 10709 ] final   80.40 input   66.30 | X-H torsion
[ 10763 10752 10751 10750 ] final  -25.33 input  -60.55 | X-H torsion
[ 11005 11000 10999 10996 ] final -152.31 input  -57.11 | X-H torsion

> <Gold.Protein.ActiveResidues>
 VAL166  LYS551  ARG553  GLY616  TRP617  ASP618  TYR619  PRO620  LYS621  CYS622 
 ASP623  PHE694  ASN695  SER759  ASP760  ASP761  ALA762  ILE779  LEU786  VAL792 
 PHE793  MET794  SER795  GLU796  ALA797  LYS798  CYS799  TRP800  GLU811  SER814 

> <Gold.Protein.RotatedAtoms>
  151.8037  135.0701  160.0403 H   0  0  0  0  0  0  0  0  0  0  0  0  # atno 6907 bound_to 6896
  152.3070  133.5709  159.5664 H   0  0  0  0  0  0  0  0  0  0  0  0  # atno 6908 bound_to 6896
  150.7301  134.0124  159.3716 H   0  0  0  0  0  0  0  0  0  0  0  0  # atno 6909 bound_to 6896
  144.7641  140.4251  143.5955 H   0  0  0  0  0  0  0  0  0  0  0  0  # atno 7974 bound_to 7965
  155.9573  140.1137  157.0926 H   0  0  0  0  0  0  0  0  0  0  0  0  # atno 8008 bound_to 7997
  154.4123  140.1189  156.5198 H   0  0  0  0  0  0  0  0  0  0  0  0  # atno 8009 bound_to 7997
  155.6766  140.3473  155.4841 H   0  0  0  0  0  0  0  0  0  0  0  0  # atno 8010 bound_to 7997
  139.6967  143.9330  152.2410 H   0  0  0  0  0  0  0  0  0  0  0  0  # atno 10167 bound_to 10162
  157.6805  130.9958  150.2073 H   0  0  0  0  0  0  0  0  0  0  0  0  # atno 10718 bound_to 10713
  153.6981  135.6958  153.5071 H   0  0  0  0  0  0  0  0  0  0  0  0  # atno 10763 bound_to 10752
  153.2363  135.4321  155.0649 H   0  0  0  0  0  0  0  0  0  0  0  0  # atno 10764 bound_to 10752
  154.8352  135.3496  154.6521 H   0  0  0  0  0  0  0  0  0  0  0  0  # atno 10765 bound_to 10752
  140.7203  134.3735  157.5184 H   0  0  0  0  0  0  0  0  0  0  0  0  # atno 11005 bound_to 11000
  145.6526  139.1567  143.2853 LP  0  0  0  0  0  0  0  0  0  0  0  0  # atno 17320 bound_to 7965
  146.1732  140.6614  142.9223 LP  0  0  0  0  0  0  0  0  0  0  0  0  # atno 17321 bound_to 7965
  139.9161  144.6827  150.8510 LP  0  0  0  0  0  0  0  0  0  0  0  0  # atno 17342 bound_to 10162
  140.7698  143.3408  151.2212 LP  0  0  0  0  0  0  0  0  0  0  0  0  # atno 17343 bound_to 10162
  156.2752  130.3726  149.7991 LP  0  0  0  0  0  0  0  0  0  0  0  0  # atno 17370 bound_to 10713
  156.5696  130.8419  151.3353 LP  0  0  0  0  0  0  0  0  0  0  0  0  # atno 17371 bound_to 10713
  139.8850  134.8950  156.2671 LP  0  0  0  0  0  0  0  0  0  0  0  0  # atno 17394 bound_to 11000
  141.0009  133.7152  156.0959 LP  0  0  0  0  0  0  0  0  0  0  0  0  # atno 17395 bound_to 11000

$$$$
