AV-unprocessed.smi:1973|AV-procd|sdf|7978|dock8
  -GOLD-   2272010153D 1   1.00000     0.00000
 Structure written by MMmdl.
 48 50  0  0  0  0  0  0  0  0  2 V2000
  151.9183  142.7617  159.2295 C   0  0  0  0  0  0  0  0  0  0  0  0
  152.1285  141.3610  159.2294 O   0  0  0  0  0  0  0  0  0  0  0  0
  151.5215  140.7189  158.1205 C   0  0  0  0  0  0  0  0  0  0  0  0
  152.2120  139.3712  157.8547 C   0  0  0  0  0  0  0  0  0  0  0  0
  151.6263  138.6772  156.7020 N   0  0  0  0  0  0  0  0  0  0  0  0
  151.3598  137.3370  156.9303 N   0  0  0  0  0  0  0  0  0  0  0  0
  150.8546  136.6047  155.9906 C   0  0  0  0  0  0  0  0  0  0  0  0
  150.5565  135.1600  156.1962 C   0  0  0  0  0  0  0  0  0  0  0  0
  150.9469  134.5485  157.1919 O   0  0  0  0  0  0  0  0  0  0  0  0
  149.8369  134.5766  155.2223 N   0  0  0  0  0  0  0  0  0  0  0  0
  149.4362  133.1760  155.2139 C   0  0  0  0  0  0  0  0  0  0  0  0
  148.8851  132.7706  153.8373 C   0  0  2  0  0  0  0  0  0  0  0  0
  147.7682  133.6764  153.3228 C   0  0  0  0  0  0  0  0  0  0  0  0
  147.0260  132.8133  152.2951 C   0  0  0  0  0  0  0  0  0  0  0  0
  147.3753  131.4033  152.5872 N   0  3  2  0  0  0  0  0  0  0  0  0
  146.2136  130.4919  152.6586 C   0  0  0  0  0  0  0  0  0  0  0  0
  146.3234  129.2999  151.7382 C   0  0  0  0  0  0  0  0  0  0  0  0
  145.4021  130.4476  151.3860 C   0  0  0  0  0  0  0  0  0  0  0  0
  148.2208  131.3929  153.7986 C   0  0  0  0  0  0  0  0  0  0  0  0
  150.5545  137.1702  154.6865 C   0  0  0  0  0  0  0  0  0  0  0  0
  150.8221  138.4779  154.4777 C   0  0  0  0  0  0  0  0  0  0  0  0
  151.3984  139.3276  155.5207 C   0  0  0  0  0  0  0  0  0  0  0  0
  151.6558  140.5186  155.3493 O   0  0  0  0  0  0  0  0  0  0  0  0
  152.4011  143.2035  160.1011 H   0  0  0  0  0  0  0  0  0  0  0  0
  150.8551  143.0008  159.2764 H   0  0  0  0  0  0  0  0  0  0  0  0
  152.3427  143.2246  158.3377 H   0  0  0  0  0  0  0  0  0  0  0  0
  150.4553  140.5715  158.3004 H   0  0  0  0  0  0  0  0  0  0  0  0
  151.6158  141.3550  157.2393 H   0  0  0  0  0  0  0  0  0  0  0  0
  153.2708  139.5487  157.6585 H   0  0  0  0  0  0  0  0  0  0  0  0
  152.1888  138.7524  158.7531 H   0  0  0  0  0  0  0  0  0  0  0  0
  149.5464  135.1475  154.4415 H   0  0  0  0  0  0  0  0  0  0  0  0
  150.2884  132.5468  155.4772 H   0  0  0  0  0  0  0  0  0  0  0  0
  148.6759  133.0210  155.9808 H   0  0  0  0  0  0  0  0  0  0  0  0
  149.6978  132.7843  153.1085 H   0  0  0  0  0  0  0  0  0  0  0  0
  147.0900  133.9332  154.1380 H   0  0  0  0  0  0  0  0  0  0  0  0
  148.1425  134.6082  152.8977 H   0  0  0  0  0  0  0  0  0  0  0  0
  145.9506  132.9931  152.3376 H   0  0  0  0  0  0  0  0  0  0  0  0
  147.3587  133.0454  151.2831 H   0  0  0  0  0  0  0  0  0  0  0  0
  145.7277  130.3987  153.6284 H   0  0  0  0  0  0  0  0  0  0  0  0
  147.2317  129.1851  151.1494 H   0  0  0  0  0  0  0  0  0  0  0  0
  145.8590  128.3706  152.0619 H   0  0  0  0  0  0  0  0  0  0  0  0
  144.3321  130.2729  151.4786 H   0  0  0  0  0  0  0  0  0  0  0  0
  145.6976  131.0958  150.5627 H   0  0  0  0  0  0  0  0  0  0  0  0
  148.9438  130.5769  153.7711 H   0  0  0  0  0  0  0  0  0  0  0  0
  147.5944  131.2573  154.6825 H   0  0  0  0  0  0  0  0  0  0  0  0
  150.1289  136.5668  153.8977 H   0  0  0  0  0  0  0  0  0  0  0  0
  150.6048  138.9114  153.5124 H   0  0  0  0  0  0  0  0  0  0  0  0
  147.9594  131.0929  151.8239 H   0  0  0  0  0  0  0  0  0  0  0  0
  1  2  1  0  0  0  0
  1 24  1  0  0  0  0
  1 25  1  0  0  0  0
  1 26  1  0  0  0  0
  2  3  1  0  0  0  0
  3  4  1  0  0  0  0
  3 27  1  0  0  0  0
  3 28  1  0  0  0  0
  4  5  1  0  0  0  0
  4 29  1  0  0  0  0
  4 30  1  0  0  0  0
  5 22  1  0  0  0  0
  5  6  1  0  0  0  0
  6  7  2  0  0  0  0
  7  8  1  0  0  0  0
  7 20  1  0  0  0  0
  8  9  2  0  0  0  0
  8 10  1  0  0  0  0
 10 11  1  0  0  0  0
 10 31  1  0  0  0  0
 11 12  1  0  0  0  0
 11 32  1  0  0  0  0
 11 33  1  0  0  0  0
 12 19  1  0  0  0  0
 12 13  1  0  0  0  0
 12 34  1  0  0  0  0
 13 14  1  0  0  0  0
 13 35  1  0  0  0  0
 13 36  1  0  0  0  0
 14 15  1  0  0  0  0
 14 37  1  0  0  0  0
 14 38  1  0  0  0  0
 15 16  1  0  0  0  0
 15 19  1  0  0  0  0
 15 48  1  0  0  0  0
 16 18  1  0  0  0  0
 16 17  1  0  0  0  0
 16 39  1  0  0  0  0
 17 18  1  0  0  0  0
 17 40  1  0  0  0  0
 17 41  1  0  0  0  0
 18 42  1  0  0  0  0
 18 43  1  0  0  0  0
 19 44  1  0  0  0  0
 19 45  1  0  0  0  0
 20 21  2  0  0  0  0
 20 46  1  0  0  0  0
 21 22  1  0  0  0  0
 21 47  1  0  0  0  0
 22 23  2  0  0  0  0
M  CHG  1  15   1
M  END
> <s_m_source_file>
AV-unprocessed.smi

> <i_m_source_file_index>
1973

> <i_lp_mmshare_version>
43012

> <i_f3d_flags>
0

> <s_epik_input>
W0NIM11PW0NIMl1bQ0gyXW4xbmMoW2NIXVtjSF1jMT1PKUMoPU8pW05IXVtDSDJdW0NAQEhdMltDSDJdW0NIMl1OKFtDSDJdMilbQ0hdM1tDSDJdW0NIMl0z

> <s_epik_cmdline>
J2VwaWtfcHl0aG9uJywgJy1waCcsICc3LjAnLCAnLXRuJywgJzgnLCAnLW1hJywgJzIwMCcsICctbWV0YWxfYmluZGluZycsICctaW1hZScsICc8aW5maWxlLm1hZT4nLCAnLW9tYWUnLCAnPG91dGZpbGUubWFlPic=

> <r_lp_tautomer_probability>
1

> <r_epik_Ionization_Penalty>
0.000225706

> <r_epik_Ionization_Penalty_Charging>
0.000223776

> <r_epik_Ionization_Penalty_Neutral>
1.93004e-06

> <r_epik_State_Penalty>
-0

> <r_epik_Charging_Adjusted_Penalty>
0.000223776

> <i_epik_Tot_Q>
1

> <i_epik_Tot_abs_Q>
1

> <r_epik_Metal_State_Penalty>
-0

> <b_epik_Metal_Only>
0

> <s_lp_Force_Field>
OPLS_2005

> <r_lp_Energy>
60.0274

> <b_lp_Chiralities_Consistent>
1

> <s_lp_Variant>
AV-unprocessed.smi:1973-3

> <Gold.Version>
5.8.1

> <Gold.Id.Protein>
6NUR|6NUR_protein|mol2

> <Gold.PLP.Fitness>
46.6246

> <Gold.PLP.PLP>
-42.3566

> <Gold.PLP.part.hbond>
-3.0000

> <Gold.PLP.part.metal>
0.0000

> <Gold.PLP.part.buried>
-4.9461

> <Gold.PLP.part.nonpolar>
-34.7759

> <Gold.PLP.part.repulsive>
0.0765

> <Gold.PLP.ligand.clash>
0.2237

> <Gold.PLP.ligand.torsion>
1.1295

> <Gold.PLP.Chemscore.Hbond>
1.8000

> <Gold.PLP.Chemscore.CHOScore>
0.0000

> <Gold.PLP.Chemscore.Metal>
0.0000

> <Gold.Chemscore.Hbonds>
donor molecule, donor type, donor heavy atom, donor atom, acceptor molecule, acceptor atom, score
      L1  H    15    48       P1 10747  1.00
      P1  H  6896  6908       L1     9  0.08
      P1  H  7989  7998       L1    23  0.78

> <Gold.PLP.Chemscore.Internal.Correction>
1.3507

> <Gold.Rescore>
     Score         DG    S(hbond)    S(metal)    S(lipo)     H(rot)  DE(clash)    DE(int)     intcor
     15.11     -17.67       1.75        0.00      97.44       1.97       0.03       2.53       ----

> <Gold.Chemscore.Fitness>
15.1097

> <Gold.Chemscore.DG>
-17.6714

> <Gold.Chemscore.ZeroCoef>
-5.4800

> <Gold.Chemscore.Hbond>
1.7476

> <Gold.Chemscore.Metal>
0.0000

> <Gold.Chemscore.Lipo>
97.4388

> <Gold.Chemscore.Internal_Hbond>
0.0000

> <Gold.Chemscore.DEClash>
0.0276

> <Gold.Chemscore.DEInternal>
2.5341

> <Gold.Chemscore.Rot>
1.9711

> <Gold.Chemscore.Internal.Correction>
   9.000000E+99

> <Gold.Chemscore.Hbonds>
donor molecule, donor type, donor heavy atom, donor atom, acceptor molecule, acceptor atom, score
      L1  H    15    48       P1 10747  1.00
      P1  H  6896  6908       L1     9  0.08
      P1  H  7989  7998       L1    23  0.54

> <Gold.Chemscore.Hbond.Weighted>
-5.8371

> <Gold.Chemscore.Metal.Weighted>
-0.0000

> <Gold.Chemscore.Lipo.Weighted>
-11.4003

> <Gold.Chemscore.Internal_Hbond.Weighted>
0.0000

> <Gold.Chemscore.DEClash.Weighted>
0.0276

> <Gold.Chemscore.DEInternal.Weighted>
2.5341

> <Gold.Chemscore.Rot.Weighted>
5.0460

> <Gold.Chemscore.Internal.Correction.Weighted>
   9.000000E+99

> <Gold.Protein.RotatedTorsions>
[ 6907 6896 6895 6894 ] final  162.06 input  -60.11 | X-H torsion
[ 7974 7965 7964 7962 ] final -144.08 input  175.53 | X-H torsion
[ 8008 7997 7996 7995 ] final  -76.30 input   59.86 | X-H torsion
[ 10167 10162 10161 10158 ] final -107.70 input  -65.29 | X-H torsion
[ 10718 10713 10712 10709 ] final -151.32 input   66.30 | X-H torsion
[ 10763 10752 10751 10750 ] final   31.16 input  -60.55 | X-H torsion
[ 11005 11000 10999 10996 ] final  -51.73 input  -57.11 | X-H torsion

> <Gold.Protein.ActiveResidues>
 VAL166  LYS551  ARG553  GLY616  TRP617  ASP618  TYR619  PRO620  LYS621  CYS622 
 ASP623  PHE694  ASN695  SER759  ASP760  ASP761  ALA762  ILE779  LEU786  VAL792 
 PHE793  MET794  SER795  GLU796  ALA797  LYS798  CYS799  TRP800  GLU811  SER814 

> <Gold.Protein.RotatedAtoms>
  151.9462  133.3652  159.3982 H   0  0  0  0  0  0  0  0  0  0  0  0  # atno 6907 bound_to 6896
  150.6989  134.4388  159.5291 H   0  0  0  0  0  0  0  0  0  0  0  0  # atno 6908 bound_to 6896
  152.2053  134.8551  160.0554 H   0  0  0  0  0  0  0  0  0  0  0  0  # atno 6909 bound_to 6896
  144.8323  140.5754  143.5507 H   0  0  0  0  0  0  0  0  0  0  0  0  # atno 7974 bound_to 7965
  154.5493  140.0729  156.8641 H   0  0  0  0  0  0  0  0  0  0  0  0  # atno 8008 bound_to 7997
  155.3025  140.3385  155.4229 H   0  0  0  0  0  0  0  0  0  0  0  0  # atno 8009 bound_to 7997
  156.1946  140.1699  156.8009 H   0  0  0  0  0  0  0  0  0  0  0  0  # atno 8010 bound_to 7997
  140.1741  143.4019  152.1332 H   0  0  0  0  0  0  0  0  0  0  0  0  # atno 10167 bound_to 10162
  156.4577  130.8198  151.2429 H   0  0  0  0  0  0  0  0  0  0  0  0  # atno 10718 bound_to 10713
  153.0331  135.6446  154.1157 H   0  0  0  0  0  0  0  0  0  0  0  0  # atno 10763 bound_to 10752
  154.0876  135.2868  155.3279 H   0  0  0  0  0  0  0  0  0  0  0  0  # atno 10764 bound_to 10752
  154.6487  135.5434  153.7939 H   0  0  0  0  0  0  0  0  0  0  0  0  # atno 10765 bound_to 10752
  141.0887  133.6637  156.3920 H   0  0  0  0  0  0  0  0  0  0  0  0  # atno 11005 bound_to 11000
  145.4869  139.1491  143.3731 LP  0  0  0  0  0  0  0  0  0  0  0  0  # atno 17320 bound_to 7965
  146.2625  140.5007  142.8848 LP  0  0  0  0  0  0  0  0  0  0  0  0  # atno 17321 bound_to 7965
  139.5325  144.7174  151.5008 LP  0  0  0  0  0  0  0  0  0  0  0  0  # atno 17342 bound_to 10162
  140.6563  143.8593  150.6838 LP  0  0  0  0  0  0  0  0  0  0  0  0  # atno 17343 bound_to 10162
  157.7499  131.0117  150.3356 LP  0  0  0  0  0  0  0  0  0  0  0  0  # atno 17370 bound_to 10713
  156.3749  130.3870  149.7147 LP  0  0  0  0  0  0  0  0  0  0  0  0  # atno 17371 bound_to 10713
  140.5303  134.6219  157.5348 LP  0  0  0  0  0  0  0  0  0  0  0  0  # atno 17394 bound_to 11000
  139.9709  134.7295  156.0044 LP  0  0  0  0  0  0  0  0  0  0  0  0  # atno 17395 bound_to 11000

$$$$
