AV-unprocessed.smi:1434|AV-procd|sdf|5851|dock3
  -GOLD-   22720 5523D 1   1.00000     0.00000
 Structure written by MMmdl.
 45 46  0  0  0  0  0  0  0  0  2 V2000
  148.9971  134.7598  155.2301 C   0  0  0  0  0  0  0  0  0  0  0  0
  150.0129  136.2781  155.4287 S   0  0  0  0  0  0  0  0  0  0  0  0
  149.9129  136.7263  156.8259 O   0  0  0  0  0  0  0  0  0  0  0  0
  151.3312  136.0583  154.8154 O   0  0  0  0  0  0  0  0  0  0  0  0
  149.1716  137.4194  154.4469 N   0  0  0  0  0  0  0  0  0  0  0  0
  148.9932  138.7803  154.9550 C   0  0  2  0  0  0  0  0  0  0  0  0
  147.8745  139.5016  154.1734 C   0  0  0  0  0  0  0  0  0  0  0  0
  147.7939  140.9951  154.5426 C   0  0  0  0  0  0  0  0  0  0  0  0
  149.1802  141.6603  154.4620 C   0  0  0  0  0  0  0  0  0  0  0  0
  150.1095  140.9238  155.3363 N   0  0  0  0  0  0  0  0  0  0  0  0
  150.5481  141.3238  156.5565 C   0  0  0  0  0  0  0  0  0  0  0  0
  151.1619  140.5862  157.3290 O   0  0  0  0  0  0  0  0  0  0  0  0
  150.2911  142.6090  156.8546 N   0  0  0  0  0  0  0  0  0  0  0  0
  150.6693  143.2733  158.0965 C   0  0  0  0  0  0  0  0  0  0  0  0
  152.1928  143.2540  158.3055 C   0  0  0  0  0  0  0  0  0  0  0  0
  152.5700  143.0681  159.7624 C   0  0  0  0  0  0  0  0  0  0  0  0
  153.3627  141.9841  160.1985 C   0  0  0  0  0  0  0  0  0  0  0  0
  153.6833  141.8716  161.5674 C   0  0  0  0  0  0  0  0  0  0  0  0
  153.2066  142.8446  162.4701 C   0  0  0  0  0  0  0  0  0  0  0  0
  152.4205  143.9074  161.9802 C   0  0  0  0  0  0  0  0  0  0  0  0
  152.1344  143.9803  160.6614 N   0  3  0  0  0  0  0  0  0  0  0  0
  150.3215  139.5547  154.8500 C   0  0  0  0  0  0  0  0  0  0  0  0
  149.4411  133.9497  155.8082 H   0  0  0  0  0  0  0  0  0  0  0  0
  148.9630  134.4771  154.1783 H   0  0  0  0  0  0  0  0  0  0  0  0
  147.9859  134.9487  155.5899 H   0  0  0  0  0  0  0  0  0  0  0  0
  149.5445  137.4300  153.4979 H   0  0  0  0  0  0  0  0  0  0  0  0
  148.7138  138.7238  156.0087 H   0  0  0  0  0  0  0  0  0  0  0  0
  148.0680  139.4151  153.1032 H   0  0  0  0  0  0  0  0  0  0  0  0
  146.9119  139.0217  154.3512 H   0  0  0  0  0  0  0  0  0  0  0  0
  147.0928  141.5046  153.8811 H   0  0  0  0  0  0  0  0  0  0  0  0
  147.3982  141.0998  155.5536 H   0  0  0  0  0  0  0  0  0  0  0  0
  149.5499  141.6241  153.4362 H   0  0  0  0  0  0  0  0  0  0  0  0
  149.0953  142.7208  154.6985 H   0  0  0  0  0  0  0  0  0  0  0  0
  149.7969  143.1624  156.1698 H   0  0  0  0  0  0  0  0  0  0  0  0
  150.2964  144.2991  158.0978 H   0  0  0  0  0  0  0  0  0  0  0  0
  150.1715  142.7616  158.9204 H   0  0  0  0  0  0  0  0  0  0  0  0
  152.6416  142.4524  157.7170 H   0  0  0  0  0  0  0  0  0  0  0  0
  152.6360  144.1833  157.9449 H   0  0  0  0  0  0  0  0  0  0  0  0
  153.7228  141.2480  159.4943 H   0  0  0  0  0  0  0  0  0  0  0  0
  154.2883  141.0490  161.9200 H   0  0  0  0  0  0  0  0  0  0  0  0
  153.4413  142.7768  163.5226 H   0  0  0  0  0  0  0  0  0  0  0  0
  152.0152  144.6954  162.5981 H   0  0  0  0  0  0  0  0  0  0  0  0
  151.1078  139.0339  155.3991 H   0  0  0  0  0  0  0  0  0  0  0  0
  150.6610  139.5896  153.8135 H   0  0  0  0  0  0  0  0  0  0  0  0
  151.5643  144.7585  160.3293 H   0  0  0  0  0  0  0  0  0  0  0  0
  1  2  1  0  0  0  0
  1 23  1  0  0  0  0
  1 24  1  0  0  0  0
  1 25  1  0  0  0  0
  2  3  2  0  0  0  0
  2  4  2  0  0  0  0
  2  5  1  0  0  0  0
  5  6  1  0  0  0  0
  5 26  1  0  0  0  0
  6 22  1  0  0  0  0
  6  7  1  0  0  0  0
  6 27  1  0  0  0  0
  7  8  1  0  0  0  0
  7 28  1  0  0  0  0
  7 29  1  0  0  0  0
  8  9  1  0  0  0  0
  8 30  1  0  0  0  0
  8 31  1  0  0  0  0
  9 10  1  0  0  0  0
  9 32  1  0  0  0  0
  9 33  1  0  0  0  0
 10 11  1  0  0  0  0
 10 22  1  0  0  0  0
 11 12  2  0  0  0  0
 11 13  1  0  0  0  0
 13 14  1  0  0  0  0
 13 34  1  0  0  0  0
 14 15  1  0  0  0  0
 14 35  1  0  0  0  0
 14 36  1  0  0  0  0
 15 16  1  0  0  0  0
 15 37  1  0  0  0  0
 15 38  1  0  0  0  0
 16 21  1  0  0  0  0
 16 17  2  0  0  0  0
 17 18  1  0  0  0  0
 17 39  1  0  0  0  0
 18 19  2  0  0  0  0
 18 40  1  0  0  0  0
 19 20  1  0  0  0  0
 19 41  1  0  0  0  0
 20 21  2  0  0  0  0
 20 42  1  0  0  0  0
 21 45  1  0  0  0  0
 22 43  1  0  0  0  0
 22 44  1  0  0  0  0
M  CHG  1  21   1
M  END
> <s_m_source_file>
AV-unprocessed.smi

> <i_m_source_file_index>
1434

> <i_lp_mmshare_version>
43012

> <i_f3d_flags>
0

> <s_epik_input>
W0NIM11TKD1PKSg9TylbTkhdW0NAQEhdMVtDSDJdW0NIMl1bQ0gyXU4oW0NIMl0xKUMoPU8pW05IXVtDSDJdW0NIMl1jMltjSF1bY0hdW2NIXVtjSF1uMg==

> <s_epik_cmdline>
J2VwaWtfcHl0aG9uJywgJy1waCcsICc3LjAnLCAnLXRuJywgJzgnLCAnLW1hJywgJzIwMCcsICctbWV0YWxfYmluZGluZycsICctaW1hZScsICc8aW5maWxlLm1hZT4nLCAnLW9tYWUnLCAnPG91dGZpbGUubWFlPic=

> <r_epik_Ionization_Penalty>
1.55113

> <r_epik_Ionization_Penalty_Charging>
1.55107

> <r_epik_Ionization_Penalty_Neutral>
6.01346e-05

> <r_epik_State_Penalty>
1.64529

> <r_epik_Charging_Adjusted_Penalty>
3.19637

> <i_epik_Tot_Q>
1

> <i_epik_Tot_abs_Q>
1

> <r_epik_Metal_State_Penalty>
1.69621

> <b_epik_Metal_Only>
0

> <s_lp_Force_Field>
OPLS_2005

> <r_lp_Energy>
27.1225

> <b_lp_Chiralities_Consistent>
1

> <s_lp_Variant>
AV-unprocessed.smi:1434-3

> <Gold.Version>
5.8.1

> <Gold.Id.Protein>
6NUR|6NUR_protein|mol2

> <Gold.PLP.Fitness>
53.1484

> <Gold.PLP.PLP>
-46.8616

> <Gold.PLP.part.hbond>
-3.0000

> <Gold.PLP.part.metal>
0.0000

> <Gold.PLP.part.buried>
-4.1427

> <Gold.PLP.part.nonpolar>
-38.9948

> <Gold.PLP.part.repulsive>
0.2581

> <Gold.PLP.ligand.clash>
0.0000

> <Gold.PLP.ligand.torsion>
0.7783

> <Gold.PLP.Chemscore.Hbond>
2.5600

> <Gold.PLP.Chemscore.CHOScore>
0.0000

> <Gold.PLP.Chemscore.Metal>
0.0000

> <Gold.Chemscore.Hbonds>
donor molecule, donor type, donor heavy atom, donor atom, acceptor molecule, acceptor atom, score
      L1  H     5    26       P1  7948  0.51
      L1  H    13    34       P1  8028  1.00
      P1  H 10752 10765       L1     4  1.00

> <Gold.PLP.Chemscore.Internal.Correction>
0.1635

> <Gold.Rescore>
     Score         DG    S(hbond)    S(metal)    S(lipo)     H(rot)  DE(clash)    DE(int)     intcor
     20.75     -22.01       2.71        0.00     110.74       2.13       0.14       1.13       ----

> <Gold.Chemscore.Fitness>
20.7532

> <Gold.Chemscore.DG>
-22.0145

> <Gold.Chemscore.ZeroCoef>
-5.4800

> <Gold.Chemscore.Hbond>
2.7058

> <Gold.Chemscore.Metal>
0.0000

> <Gold.Chemscore.Lipo>
110.7423

> <Gold.Chemscore.Internal_Hbond>
0.0000

> <Gold.Chemscore.DEClash>
0.1361

> <Gold.Chemscore.DEInternal>
1.1253

> <Gold.Chemscore.Rot>
2.1326

> <Gold.Chemscore.Internal.Correction>
   9.000000E+99

> <Gold.Chemscore.Hbonds>
donor molecule, donor type, donor heavy atom, donor atom, acceptor molecule, acceptor atom, score
      L1  H     5    26       P1  7948  0.45
      L1  H    13    34       P1  8028  0.95
      P1  H 10752 10765       L1     4  0.98

> <Gold.Chemscore.Hbond.Weighted>
-9.0372

> <Gold.Chemscore.Metal.Weighted>
-0.0000

> <Gold.Chemscore.Lipo.Weighted>
-12.9568

> <Gold.Chemscore.Internal_Hbond.Weighted>
0.0000

> <Gold.Chemscore.DEClash.Weighted>
0.1361

> <Gold.Chemscore.DEInternal.Weighted>
1.1253

> <Gold.Chemscore.Rot.Weighted>
5.4595

> <Gold.Chemscore.Internal.Correction.Weighted>
   9.000000E+99

> <Gold.Protein.RotatedTorsions>
[ 6907 6896 6895 6894 ] final  117.68 input  -60.11 | X-H torsion
[ 7974 7965 7964 7962 ] final -169.04 input  175.53 | X-H torsion
[ 8008 7997 7996 7995 ] final  -62.48 input   59.86 | X-H torsion
[ 10167 10162 10161 10158 ] final -133.95 input  -65.29 | X-H torsion
[ 10718 10713 10712 10709 ] final  142.16 input   66.30 | X-H torsion
[ 10763 10752 10751 10750 ] final  160.01 input  -60.55 | X-H torsion
[ 11005 11000 10999 10996 ] final  -48.59 input  -57.11 | X-H torsion

> <Gold.Protein.ActiveResidues>
 VAL166  LYS551  ARG553  GLY616  TRP617  ASP618  TYR619  PRO620  LYS621  CYS622 
 ASP623  PHE694  ASN695  SER759  ASP760  ASP761  ALA762  ILE779  LEU786  VAL792 
 PHE793  MET794  SER795  GLU796  ALA797  LYS798  CYS799  TRP800  GLU811  SER814 

> <Gold.Protein.RotatedAtoms>
  152.4595  133.7792  159.6841 H   0  0  0  0  0  0  0  0  0  0  0  0  # atno 6907 bound_to 6896
  150.8534  133.7743  159.3024 H   0  0  0  0  0  0  0  0  0  0  0  0  # atno 6908 bound_to 6896
  151.5331  135.1071  159.9959 H   0  0  0  0  0  0  0  0  0  0  0  0  # atno 6909 bound_to 6896
  144.7192  140.2281  143.6307 H   0  0  0  0  0  0  0  0  0  0  0  0  # atno 7974 bound_to 7965
  154.4502  140.0995  156.6593 H   0  0  0  0  0  0  0  0  0  0  0  0  # atno 8008 bound_to 7997
  155.5311  140.3481  155.4408 H   0  0  0  0  0  0  0  0  0  0  0  0  # atno 8009 bound_to 7997
  156.0664  140.1338  156.9870 H   0  0  0  0  0  0  0  0  0  0  0  0  # atno 8010 bound_to 7997
  139.8930  143.6700  152.2609 H   0  0  0  0  0  0  0  0  0  0  0  0  # atno 10167 bound_to 10162
  157.3838  131.0995  151.0713 H   0  0  0  0  0  0  0  0  0  0  0  0  # atno 10718 bound_to 10713
  154.2407  135.2775  155.2855 H   0  0  0  0  0  0  0  0  0  0  0  0  # atno 10763 bound_to 10752
  154.5547  135.5665  153.6957 H   0  0  0  0  0  0  0  0  0  0  0  0  # atno 10764 bound_to 10752
  153.0000  135.6283  154.2551 H   0  0  0  0  0  0  0  0  0  0  0  0  # atno 10765 bound_to 10752
  141.0710  133.6679  156.3463 H   0  0  0  0  0  0  0  0  0  0  0  0  # atno 11005 bound_to 11000
  145.8437  139.2142  143.1812 LP  0  0  0  0  0  0  0  0  0  0  0  0  # atno 17320 bound_to 7965
  146.0323  140.8245  142.9869 LP  0  0  0  0  0  0  0  0  0  0  0  0  # atno 17321 bound_to 7965
  139.7093  144.7623  151.1140 LP  0  0  0  0  0  0  0  0  0  0  0  0  # atno 17342 bound_to 10162
  140.7723  143.5352  150.9376 LP  0  0  0  0  0  0  0  0  0  0  0  0  # atno 17343 bound_to 10162
  157.1772  130.6293  149.5660 LP  0  0  0  0  0  0  0  0  0  0  0  0  # atno 17370 bound_to 10713
  155.9782  130.4765  150.6639 LP  0  0  0  0  0  0  0  0  0  0  0  0  # atno 17371 bound_to 10713
  140.5674  134.5874  157.5449 LP  0  0  0  0  0  0  0  0  0  0  0  0  # atno 17394 bound_to 11000
  139.9523  134.7595  156.0420 LP  0  0  0  0  0  0  0  0  0  0  0  0  # atno 17395 bound_to 11000

$$$$
