AV-unprocessed.smi:1031|AV-procd|sdf|4480|dock1
  -GOLD-   22720 2453D 1   1.00000     0.00000
 Structure written by MMmdl.
 35 36  0  0  0  0  0  0  0  0  1 V2000
  151.6251  139.8454  155.5769 C   0  0  0  0  0  0  0  0  0  0  0  0
  150.8343  140.8339  156.4481 C   0  0  2  0  0  0  0  0  0  0  0  0
  150.0771  141.8639  155.5873 C   0  0  0  0  0  0  0  0  0  0  0  0
  149.0408  141.2527  154.7738 N   0  0  0  0  0  0  0  0  0  0  0  0
  147.9963  141.8649  154.1132 C   0  0  0  0  0  0  0  0  0  0  0  0
  147.2825  140.8845  153.4857 C   0  0  0  0  0  0  0  0  0  0  0  0
  147.9785  139.6904  153.8244 C   0  0  0  0  0  0  0  0  0  0  0  0
  149.0312  139.9142  154.5940 N   0  0  0  0  0  0  0  0  0  0  0  0
  151.7398  141.5201  157.3679 N   0  0  0  0  0  0  0  0  0  0  0  0
  151.3695  142.3774  158.3314 C   0  0  0  0  0  0  0  0  0  0  0  0
  150.1956  142.6742  158.5566 O   0  0  0  0  0  0  0  0  0  0  0  0
  152.5034  142.9919  159.1685 C   0  0  0  0  0  0  0  0  0  0  0  0
  152.3712  142.6386  160.6684 C   0  0  0  0  0  0  0  0  0  0  0  0
  152.2018  143.9610  161.4282 C   0  0  0  0  0  0  0  0  0  0  0  0
  151.7593  144.9782  160.3799 C   0  0  0  0  0  0  0  0  0  0  0  0
  152.4828  144.5315  159.1105 C   0  0  0  0  0  0  0  0  0  0  0  0
  150.9647  139.3122  154.8927 H   0  0  0  0  0  0  0  0  0  0  0  0
  152.1336  139.0991  156.1881 H   0  0  0  0  0  0  0  0  0  0  0  0
  152.3800  140.3577  154.9795 H   0  0  0  0  0  0  0  0  0  0  0  0
  150.0993  140.2655  157.0211 H   0  0  0  0  0  0  0  0  0  0  0  0
  149.6224  142.6305  156.2164 H   0  0  0  0  0  0  0  0  0  0  0  0
  150.7697  142.3800  154.9207 H   0  0  0  0  0  0  0  0  0  0  0  0
  147.8480  142.9342  154.1468 H   0  0  0  0  0  0  0  0  0  0  0  0
  146.3979  141.0020  152.8776 H   0  0  0  0  0  0  0  0  0  0  0  0
  147.7521  138.6746  153.5354 H   0  0  0  0  0  0  0  0  0  0  0  0
  152.7261  141.3351  157.2564 H   0  0  0  0  0  0  0  0  0  0  0  0
  153.4598  142.6321  158.7851 H   0  0  0  0  0  0  0  0  0  0  0  0
  151.5133  141.9916  160.8600 H   0  0  0  0  0  0  0  0  0  0  0  0
  153.2499  142.1007  161.0255 H   0  0  0  0  0  0  0  0  0  0  0  0
  151.4949  143.8809  162.2545 H   0  0  0  0  0  0  0  0  0  0  0  0
  153.1621  144.2661  161.8459 H   0  0  0  0  0  0  0  0  0  0  0  0
  150.6801  144.9154  160.2349 H   0  0  0  0  0  0  0  0  0  0  0  0
  151.9991  146.0036  160.6623 H   0  0  0  0  0  0  0  0  0  0  0  0
  153.5065  144.9078  159.1222 H   0  0  0  0  0  0  0  0  0  0  0  0
  152.0085  144.9274  158.2110 H   0  0  0  0  0  0  0  0  0  0  0  0
  1  2  1  0  0  0  0
  1 17  1  0  0  0  0
  1 18  1  0  0  0  0
  1 19  1  0  0  0  0
  2  3  1  0  0  0  0
  2  9  1  0  0  0  0
  2 20  1  0  0  0  0
  3  4  1  0  0  0  0
  3 21  1  0  0  0  0
  3 22  1  0  0  0  0
  4  8  1  0  0  0  0
  4  5  1  0  0  0  0
  5  6  2  0  0  0  0
  5 23  1  0  0  0  0
  6  7  1  0  0  0  0
  6 24  1  0  0  0  0
  7  8  2  0  0  0  0
  7 25  1  0  0  0  0
  9 10  1  0  0  0  0
  9 26  1  0  0  0  0
 10 11  2  0  0  0  0
 10 12  1  0  0  0  0
 12 16  1  0  0  0  0
 12 13  1  0  0  0  0
 12 27  1  0  0  0  0
 13 14  1  0  0  0  0
 13 28  1  0  0  0  0
 13 29  1  0  0  0  0
 14 15  1  0  0  0  0
 14 30  1  0  0  0  0
 14 31  1  0  0  0  0
 15 16  1  0  0  0  0
 15 32  1  0  0  0  0
 15 33  1  0  0  0  0
 16 34  1  0  0  0  0
 16 35  1  0  0  0  0
M  END
> <s_m_source_file>
AV-unprocessed.smi

> <i_m_source_file_index>
1031

> <i_lp_mmshare_version>
43012

> <i_f3d_flags>
0

> <s_epik_input>
bjFbY0hdW2NIXVtjSF1uMVtDSDJdW0NAQEhdKFtDSDNdKVtOSF1DKD1PKVtDSF0yW0NIMl1bQ0gyXVtDSDJdW0NIMl0y

> <s_epik_cmdline>
J2VwaWtfcHl0aG9uJywgJy1waCcsICc3LjAnLCAnLXRuJywgJzgnLCAnLW1hJywgJzIwMCcsICctbWV0YWxfYmluZGluZycsICctaW1hZScsICc8aW5maWxlLm1hZT4nLCAnLW9tYWUnLCAnPG91dGZpbGUubWFlPic=

> <r_lp_tautomer_probability>
1

> <r_epik_Ionization_Penalty>
0.000326659

> <r_epik_Ionization_Penalty_Charging>
0

> <r_epik_Ionization_Penalty_Neutral>
0.000326659

> <r_epik_State_Penalty>
-0

> <r_epik_Charging_Adjusted_Penalty>
0

> <i_epik_Tot_Q>
0

> <i_epik_Tot_abs_Q>
0

> <r_epik_Metal_State_Penalty>
-0

> <b_epik_Metal_Only>
0

> <s_lp_Force_Field>
OPLS_2005

> <r_lp_Energy>
19.9275

> <b_lp_Chiralities_Consistent>
1

> <s_lp_Variant>
AV-unprocessed.smi:1031-1

> <Gold.Version>
5.8.1

> <Gold.Id.Protein>
6NUR|6NUR_protein|mol2

> <Gold.PLP.Fitness>
42.8050

> <Gold.PLP.PLP>
-40.2336

> <Gold.PLP.part.hbond>
0.0000

> <Gold.PLP.part.metal>
0.0000

> <Gold.PLP.part.buried>
-1.3748

> <Gold.PLP.part.nonpolar>
-37.8932

> <Gold.PLP.part.repulsive>
0.2955

> <Gold.PLP.ligand.clash>
0.0000

> <Gold.PLP.ligand.torsion>
0.2327

> <Gold.PLP.Chemscore.Hbond>
0.0000

> <Gold.PLP.Chemscore.CHOScore>
1.0000

> <Gold.PLP.Chemscore.Metal>
0.0000

> <Gold.Chemscore.Hbonds>
donor molecule, donor type, donor heavy atom, donor atom, acceptor molecule, acceptor atom, score
      L1  C     5    23       P1  8028  1.00

> <Gold.PLP.Chemscore.Internal.Correction>
0.0369

> <Gold.Rescore>
     Score         DG    S(hbond)    S(metal)    S(lipo)     H(rot)  DE(clash)    DE(int)     intcor
     12.31     -13.59       0.00        0.00     102.46       1.51       0.04       1.24       ----

> <Gold.Chemscore.Fitness>
12.3063

> <Gold.Chemscore.DG>
-13.5901

> <Gold.Chemscore.ZeroCoef>
-5.4800

> <Gold.Chemscore.Hbond>
0.0000

> <Gold.Chemscore.Metal>
0.0000

> <Gold.Chemscore.Lipo>
102.4566

> <Gold.Chemscore.Internal_Hbond>
0.0000

> <Gold.Chemscore.DEClash>
0.0434

> <Gold.Chemscore.DEInternal>
1.2404

> <Gold.Chemscore.Rot>
1.5146

> <Gold.Chemscore.Internal.Correction>
   9.000000E+99

> <Gold.Chemscore.Hbond.Weighted>
-0.0000

> <Gold.Chemscore.Metal.Weighted>
-0.0000

> <Gold.Chemscore.Lipo.Weighted>
-11.9874

> <Gold.Chemscore.Internal_Hbond.Weighted>
0.0000

> <Gold.Chemscore.DEClash.Weighted>
0.0434

> <Gold.Chemscore.DEInternal.Weighted>
1.2404

> <Gold.Chemscore.Rot.Weighted>
3.8773

> <Gold.Chemscore.Internal.Correction.Weighted>
   9.000000E+99

> <Gold.Protein.RotatedTorsions>
[ 6907 6896 6895 6894 ] final  -12.67 input  -60.11 | X-H torsion
[ 7974 7965 7964 7962 ] final  -12.63 input  175.53 | X-H torsion
[ 8008 7997 7996 7995 ] final -174.51 input   59.86 | X-H torsion
[ 10167 10162 10161 10158 ] final  128.53 input  -65.29 | X-H torsion
[ 10718 10713 10712 10709 ] final  112.65 input   66.30 | X-H torsion
[ 10763 10752 10751 10750 ] final  102.90 input  -60.55 | X-H torsion
[ 11005 11000 10999 10996 ] final   37.69 input  -57.11 | X-H torsion

> <Gold.Protein.ActiveResidues>
 VAL166  LYS551  ARG553  GLY616  TRP617  ASP618  TYR619  PRO620  LYS621  CYS622 
 ASP623  PHE694  ASN695  SER759  ASP760  ASP761  ALA762  ILE779  LEU786  VAL792 
 PHE793  MET794  SER795  GLU796  ALA797  LYS798  CYS799  TRP800  GLU811  SER814 

> <Gold.Protein.RotatedAtoms>
  151.3669  135.0915  159.9452 H   0  0  0  0  0  0  0  0  0  0  0  0  # atno 6907 bound_to 6896
  152.5146  133.9203  159.7541 H   0  0  0  0  0  0  0  0  0  0  0  0  # atno 6908 bound_to 6896
  150.9609  133.6392  159.2784 H   0  0  0  0  0  0  0  0  0  0  0  0  # atno 6909 bound_to 6896
  146.2145  140.3085  142.8380 H   0  0  0  0  0  0  0  0  0  0  0  0  # atno 7974 bound_to 7965
  155.9710  140.1163  157.0812 H   0  0  0  0  0  0  0  0  0  0  0  0  # atno 8008 bound_to 7997
  154.4156  140.1163  156.5374 H   0  0  0  0  0  0  0  0  0  0  0  0  # atno 8009 bound_to 7997
  155.6596  140.3473  155.4780 H   0  0  0  0  0  0  0  0  0  0  0  0  # atno 8010 bound_to 7997
  139.5522  144.6822  151.4288 H   0  0  0  0  0  0  0  0  0  0  0  0  # atno 10167 bound_to 10162
  157.6381  131.0971  150.6927 H   0  0  0  0  0  0  0  0  0  0  0  0  # atno 10718 bound_to 10713
  153.3456  135.3995  155.1606 H   0  0  0  0  0  0  0  0  0  0  0  0  # atno 10763 bound_to 10752
  154.8652  135.3644  154.5288 H   0  0  0  0  0  0  0  0  0  0  0  0  # atno 10764 bound_to 10752
  153.5736  135.7078  153.5553 H   0  0  0  0  0  0  0  0  0  0  0  0  # atno 10765 bound_to 10752
  140.2200  134.3652  155.8009 H   0  0  0  0  0  0  0  0  0  0  0  0  # atno 11005 bound_to 11000
  144.9005  140.7637  143.5870 LP  0  0  0  0  0  0  0  0  0  0  0  0  # atno 17320 bound_to 7965
  145.3011  139.1850  143.4689 LP  0  0  0  0  0  0  0  0  0  0  0  0  # atno 17321 bound_to 7965
  140.6788  143.8130  150.7093 LP  0  0  0  0  0  0  0  0  0  0  0  0  # atno 17342 bound_to 10162
  140.1576  143.4303  152.2089 LP  0  0  0  0  0  0  0  0  0  0  0  0  # atno 17343 bound_to 10162
  156.7255  130.4693  149.5512 LP  0  0  0  0  0  0  0  0  0  0  0  0  # atno 17370 bound_to 10713
  156.1637  130.6391  151.0751 LP  0  0  0  0  0  0  0  0  0  0  0  0  # atno 17371 bound_to 10713
  141.2223  133.7188  156.8560 LP  0  0  0  0  0  0  0  0  0  0  0  0  # atno 17394 bound_to 11000
  140.1859  134.9000  157.3004 LP  0  0  0  0  0  0  0  0  0  0  0  0  # atno 17395 bound_to 11000

$$$$
