AV-unprocessed.smi:1683|AV-procd|sdf|6749|dock6
  -GOLD-   22720 7503D 1   1.00000     0.00000
 Structure written by MMmdl.
 37 38  0  0  0  0  0  0  0  0  2 V2000
  151.4534  135.4759  155.5874 O   0  0  0  0  0  0  0  0  0  0  0  0
  150.7070  135.8222  154.6716 C   0  0  0  0  0  0  0  0  0  0  0  0
  149.8361  134.9958  154.0751 N   0  0  0  0  0  0  0  0  0  0  0  0
  149.6634  133.5840  154.4016 C   0  0  0  0  0  0  0  0  0  0  0  0
  148.9902  132.7963  153.2606 C   0  0  2  0  0  0  0  0  0  0  0  0
  147.5666  133.2521  152.9483 C   0  0  0  0  0  0  0  0  0  0  0  0
  146.9134  132.0392  152.2725 C   0  0  0  0  0  0  0  0  0  0  0  0
  147.7741  130.8672  152.5658 N   0  3  2  0  0  0  0  0  0  0  0  0
  147.0560  129.6300  152.9576 C   0  0  0  0  0  0  0  0  0  0  0  0
  147.7760  128.3538  152.4877 C   0  0  0  0  0  0  0  0  0  0  0  0
  147.5275  128.1662  151.1924 F   0  0  0  0  0  0  0  0  0  0  0  0
  149.0943  128.4523  152.6551 F   0  0  0  0  0  0  0  0  0  0  0  0
  147.3248  127.2993  153.1666 F   0  0  0  0  0  0  0  0  0  0  0  0
  148.7972  131.3051  153.5365 C   0  0  0  0  0  0  0  0  0  0  0  0
  150.6499  137.0567  154.1457 N   0  0  0  0  0  0  0  0  0  0  0  0
  151.4226  138.1864  154.5166 C   0  0  0  0  0  0  0  0  0  0  0  0
  152.8131  138.3347  154.2619 C   0  0  0  0  0  0  0  0  0  0  0  0
  153.2683  139.4913  154.7218 N   0  0  0  0  0  0  0  0  0  0  0  0
  152.1821  140.0825  155.2685 N   0  0  0  0  0  0  0  0  0  0  0  0
  151.0363  139.3247  155.1672 C   0  0  0  0  0  0  0  0  0  0  0  0
  152.2381  140.9929  155.7026 H   0  0  0  0  0  0  0  0  0  0  0  0
  149.2662  135.3648  153.3276 H   0  0  0  0  0  0  0  0  0  0  0  0
  150.6473  133.1663  154.6165 H   0  0  0  0  0  0  0  0  0  0  0  0
  149.0818  133.4881  155.3202 H   0  0  0  0  0  0  0  0  0  0  0  0
  149.5822  132.9020  152.3496 H   0  0  0  0  0  0  0  0  0  0  0  0
  147.0356  133.4807  153.8737 H   0  0  0  0  0  0  0  0  0  0  0  0
  147.5406  134.1453  152.3231 H   0  0  0  0  0  0  0  0  0  0  0  0
  145.8941  131.9071  152.6377 H   0  0  0  0  0  0  0  0  0  0  0  0
  146.8631  132.1735  151.1914 H   0  0  0  0  0  0  0  0  0  0  0  0
  146.9909  129.6034  154.0465 H   0  0  0  0  0  0  0  0  0  0  0  0
  146.0297  129.6574  152.5881 H   0  0  0  0  0  0  0  0  0  0  0  0
  149.7204  130.7352  153.4265 H   0  0  0  0  0  0  0  0  0  0  0  0
  148.4272  131.1584  154.5530 H   0  0  0  0  0  0  0  0  0  0  0  0
  149.9885  137.2046  153.3975 H   0  0  0  0  0  0  0  0  0  0  0  0
  153.4932  137.6557  153.7690 H   0  0  0  0  0  0  0  0  0  0  0  0
  150.0861  139.6587  155.5569 H   0  0  0  0  0  0  0  0  0  0  0  0
  148.2753  130.6624  151.7128 H   0  0  0  0  0  0  0  0  0  0  0  0
  1  2  2  0  0  0  0
  2  3  1  0  0  0  0
  2 15  1  0  0  0  0
  3  4  1  0  0  0  0
  3 22  1  0  0  0  0
  4  5  1  0  0  0  0
  4 23  1  0  0  0  0
  4 24  1  0  0  0  0
  5 14  1  0  0  0  0
  5  6  1  0  0  0  0
  5 25  1  0  0  0  0
  6  7  1  0  0  0  0
  6 26  1  0  0  0  0
  6 27  1  0  0  0  0
  7  8  1  0  0  0  0
  7 28  1  0  0  0  0
  7 29  1  0  0  0  0
  8  9  1  0  0  0  0
  8 14  1  0  0  0  0
  8 37  1  0  0  0  0
  9 10  1  0  0  0  0
  9 30  1  0  0  0  0
  9 31  1  0  0  0  0
 10 11  1  0  0  0  0
 10 12  1  0  0  0  0
 10 13  1  0  0  0  0
 14 32  1  0  0  0  0
 14 33  1  0  0  0  0
 15 16  1  0  0  0  0
 15 34  1  0  0  0  0
 16 20  2  0  0  0  0
 16 17  1  0  0  0  0
 17 18  2  0  0  0  0
 17 35  1  0  0  0  0
 18 19  1  0  0  0  0
 19 21  1  0  0  0  0
 19 20  1  0  0  0  0
 20 36  1  0  0  0  0
M  CHG  1   8   1
M  END
> <s_m_source_file>
AV-unprocessed.smi

> <i_m_source_file_index>
1683

> <i_lp_mmshare_version>
43012

> <i_f3d_flags>
0

> <s_epik_input>
W2NIXTFbbkhdbltjSF1jMVtOSF1DKD1PKVtOSF1bQ0gyXVtDQEBIXTJbQ0gyXVtDSDJdTihbQ0gyXTIpW0NIMl1DKEYpKEYpRg==

> <s_epik_cmdline>
J2VwaWtfcHl0aG9uJywgJy1waCcsICc3LjAnLCAnLXRuJywgJzgnLCAnLW1hJywgJzIwMCcsICctbWV0YWxfYmluZGluZycsICctaW1hZScsICc8aW5maWxlLm1hZT4nLCAnLW9tYWUnLCAnPG91dGZpbGUubWFlPic=

> <r_lp_tautomer_probability>
0.5

> <r_epik_Ionization_Penalty>
0.641865

> <r_epik_Ionization_Penalty_Charging>
0.64182

> <r_epik_Ionization_Penalty_Neutral>
4.50685e-05

> <r_epik_State_Penalty>
0.65957

> <r_epik_Charging_Adjusted_Penalty>
1.30139

> <i_epik_Tot_Q>
1

> <i_epik_Tot_abs_Q>
1

> <r_epik_Metal_State_Penalty>
0.659571

> <b_epik_Metal_Only>
0

> <s_lp_Force_Field>
OPLS_2005

> <r_lp_Energy>
30.3314

> <b_lp_Chiralities_Consistent>
1

> <s_lp_Variant>
AV-unprocessed.smi:1683-3

> <Gold.Version>
5.8.1

> <Gold.Id.Protein>
6NUR|6NUR_protein|mol2

> <Gold.PLP.Fitness>
50.6599

> <Gold.PLP.PLP>
-38.4123

> <Gold.PLP.part.hbond>
-7.4077

> <Gold.PLP.part.metal>
0.0000

> <Gold.PLP.part.buried>
-3.6530

> <Gold.PLP.part.nonpolar>
-30.2867

> <Gold.PLP.part.repulsive>
2.1343

> <Gold.PLP.ligand.clash>
0.0000

> <Gold.PLP.ligand.torsion>
1.4308

> <Gold.PLP.Chemscore.Hbond>
4.8800

> <Gold.PLP.Chemscore.CHOScore>
0.0000

> <Gold.PLP.Chemscore.Metal>
0.0000

> <Gold.Chemscore.Hbonds>
donor molecule, donor type, donor heavy atom, donor atom, acceptor molecule, acceptor atom, score
      L1  H     3    22       P1  7948  0.95
      L1  H     8    37       P1 10747  1.00
      L1  H    15    34       P1  7948  0.81
      P1  H  7997  8008       L1    18  0.80
      P1  H 10752 10764       L1     1  1.00

> <Gold.PLP.Chemscore.Internal.Correction>
0.4691

> <Gold.Rescore>
     Score         DG    S(hbond)    S(metal)    S(lipo)     H(rot)  DE(clash)    DE(int)     intcor
     17.98     -19.51       3.34        0.00      64.15       1.81       0.05       1.48       ----

> <Gold.Chemscore.Fitness>
17.9777

> <Gold.Chemscore.DG>
-19.5143

> <Gold.Chemscore.ZeroCoef>
-5.4800

> <Gold.Chemscore.Hbond>
3.3432

> <Gold.Chemscore.Metal>
0.0000

> <Gold.Chemscore.Lipo>
64.1526

> <Gold.Chemscore.Internal_Hbond>
0.0000

> <Gold.Chemscore.DEClash>
0.0535

> <Gold.Chemscore.DEInternal>
1.4831

> <Gold.Chemscore.Rot>
1.8116

> <Gold.Chemscore.Internal.Correction>
   9.000000E+99

> <Gold.Chemscore.Hbonds>
donor molecule, donor type, donor heavy atom, donor atom, acceptor molecule, acceptor atom, score
      L1  H     3    22       P1  7948  0.21
      L1  H     8    37       P1 10747  0.98
      L1  H    15    34       P1  7948  0.23
      P1  H  7997  8008       L1    18  0.12
      P1  H 10752 10764       L1     1  0.45

> <Gold.Chemscore.Hbond.Weighted>
-11.1663

> <Gold.Chemscore.Metal.Weighted>
-0.0000

> <Gold.Chemscore.Lipo.Weighted>
-7.5059

> <Gold.Chemscore.Internal_Hbond.Weighted>
0.0000

> <Gold.Chemscore.DEClash.Weighted>
0.0535

> <Gold.Chemscore.DEInternal.Weighted>
1.4831

> <Gold.Chemscore.Rot.Weighted>
4.6378

> <Gold.Chemscore.Internal.Correction.Weighted>
   9.000000E+99

> <Gold.Protein.RotatedTorsions>
[ 6907 6896 6895 6894 ] final -105.20 input  -60.11 | X-H torsion
[ 7974 7965 7964 7962 ] final   79.75 input  175.53 | X-H torsion
[ 8008 7997 7996 7995 ] final  -14.85 input   59.86 | X-H torsion
[ 10167 10162 10161 10158 ] final -154.94 input  -65.29 | X-H torsion
[ 10718 10713 10712 10709 ] final  -86.38 input   66.30 | X-H torsion
[ 10763 10752 10751 10750 ] final  -41.49 input  -60.55 | X-H torsion
[ 11005 11000 10999 10996 ] final   94.22 input  -57.11 | X-H torsion

> <Gold.Protein.ActiveResidues>
 VAL166  LYS551  ARG553  GLY616  TRP617  ASP618  TYR619  PRO620  LYS621  CYS622 
 ASP623  PHE694  ASN695  SER759  ASP760  ASP761  ALA762  ILE779  LEU786  VAL792 
 PHE793  MET794  SER795  GLU796  ALA797  LYS798  CYS799  TRP800  GLU811  SER814 

> <Gold.Protein.RotatedAtoms>
  150.7325  134.0162  159.3685 H   0  0  0  0  0  0  0  0  0  0  0  0  # atno 6907 bound_to 6896
  151.8124  135.0674  160.0424 H   0  0  0  0  0  0  0  0  0  0  0  0  # atno 6908 bound_to 6896
  152.3063  133.5670  159.5687 H   0  0  0  0  0  0  0  0  0  0  0  0  # atno 6909 bound_to 6896
  145.6601  139.2469  143.1927 H   0  0  0  0  0  0  0  0  0  0  0  0  # atno 7974 bound_to 7965
  154.5177  140.2212  155.9034 H   0  0  0  0  0  0  0  0  0  0  0  0  # atno 8008 bound_to 7997
  156.1627  140.3139  155.8800 H   0  0  0  0  0  0  0  0  0  0  0  0  # atno 8009 bound_to 7997
  155.3720  140.0467  157.3036 H   0  0  0  0  0  0  0  0  0  0  0  0  # atno 8010 bound_to 7997
  139.6972  143.9323  152.2412 H   0  0  0  0  0  0  0  0  0  0  0  0  # atno 10167 bound_to 10162
  155.9990  130.4763  150.4707 H   0  0  0  0  0  0  0  0  0  0  0  0  # atno 10718 bound_to 10713
  153.9634  135.6737  153.4745 H   0  0  0  0  0  0  0  0  0  0  0  0  # atno 10763 bound_to 10752
  153.0827  135.4915  154.8532 H   0  0  0  0  0  0  0  0  0  0  0  0  # atno 10764 bound_to 10752
  154.7259  135.3127  154.8931 H   0  0  0  0  0  0  0  0  0  0  0  0  # atno 10765 bound_to 10752
  139.8801  134.8833  156.3833 H   0  0  0  0  0  0  0  0  0  0  0  0  # atno 11005 bound_to 11000
  146.1132  140.7402  142.9493 LP  0  0  0  0  0  0  0  0  0  0  0  0  # atno 17320 bound_to 7965
  144.7092  140.3973  143.7094 LP  0  0  0  0  0  0  0  0  0  0  0  0  # atno 17321 bound_to 7965
  139.9155  144.6831  150.8516 LP  0  0  0  0  0  0  0  0  0  0  0  0  # atno 17342 bound_to 10162
  140.7699  143.3412  151.2204 LP  0  0  0  0  0  0  0  0  0  0  0  0  # atno 17343 bound_to 10162
  157.2722  131.0589  151.2252 LP  0  0  0  0  0  0  0  0  0  0  0  0  # atno 17370 bound_to 10713
  157.3329  130.6994  149.6335 LP  0  0  0  0  0  0  0  0  0  0  0  0  # atno 17371 bound_to 10713
  140.9384  133.7531  156.0114 LP  0  0  0  0  0  0  0  0  0  0  0  0  # atno 17394 bound_to 11000
  140.8249  134.3246  157.5369 LP  0  0  0  0  0  0  0  0  0  0  0  0  # atno 17395 bound_to 11000

$$$$
