AV-unprocessed.smi:1262|AV-procd|sdf|5309|dock1
  -GOLD-   22720 4433D 1   1.00000     0.00000
 Structure written by MMmdl.
 34 35  0  0  0  0  0  0  0  0  1 V2000
  146.7846  138.6363  152.5001 C   0  0  0  0  0  0  0  0  0  0  0  0
  147.1509  139.8698  153.2714 C   0  0  0  0  0  0  0  0  0  0  0  0
  148.2603  140.0612  154.1455 C   0  0  0  0  0  0  0  0  0  0  0  0
  148.0968  141.3545  154.5609 C   0  0  0  0  0  0  0  0  0  0  0  0
  148.8656  142.0834  155.4131 N   0  0  0  0  0  0  0  0  0  0  0  0
  149.9384  141.6909  156.1223 C   0  0  0  0  0  0  0  0  0  0  0  0
  150.4220  140.5585  156.1191 O   0  0  0  0  0  0  0  0  0  0  0  0
  150.4311  142.7014  156.8526 N   0  0  0  0  0  0  0  0  0  0  0  0
  151.5847  142.6094  157.7399 C   0  0  0  0  0  0  0  0  0  0  0  0
  151.9652  143.9757  158.3049 C   0  0  0  0  0  0  0  0  0  0  0  0
  152.6374  144.0748  159.6830 C   0  0  0  0  0  0  0  0  0  0  0  0
  151.8710  145.3804  159.9117 C   0  0  0  0  0  0  0  0  0  0  0  0
  150.8698  144.8991  158.8579 C   0  0  0  0  0  0  0  0  0  0  0  0
  146.9684  141.8736  153.9659 N   0  0  0  0  0  0  0  0  0  0  0  0
  146.3848  143.1946  154.0934 C   0  0  0  0  0  0  0  0  0  0  0  0
  146.3866  140.9514  153.1689 N   0  0  0  0  0  0  0  0  0  0  0  0
  147.4652  137.8150  152.7244 H   0  0  0  0  0  0  0  0  0  0  0  0
  146.8273  138.8186  151.4261 H   0  0  0  0  0  0  0  0  0  0  0  0
  145.7748  138.3053  152.7436 H   0  0  0  0  0  0  0  0  0  0  0  0
  149.0330  139.3548  154.4089 H   0  0  0  0  0  0  0  0  0  0  0  0
  148.5897  143.0481  155.5223 H   0  0  0  0  0  0  0  0  0  0  0  0
  149.9724  143.5989  156.7964 H   0  0  0  0  0  0  0  0  0  0  0  0
  151.3818  141.9016  158.5451 H   0  0  0  0  0  0  0  0  0  0  0  0
  152.4138  142.1903  157.1693 H   0  0  0  0  0  0  0  0  0  0  0  0
  152.5596  144.5424  157.5847 H   0  0  0  0  0  0  0  0  0  0  0  0
  152.3282  143.2802  160.3643 H   0  0  0  0  0  0  0  0  0  0  0  0
  153.7223  144.1795  159.6538 H   0  0  0  0  0  0  0  0  0  0  0  0
  151.4586  145.4998  160.9140 H   0  0  0  0  0  0  0  0  0  0  0  0
  152.4307  146.2614  159.5934 H   0  0  0  0  0  0  0  0  0  0  0  0
  150.5301  145.6692  158.1645 H   0  0  0  0  0  0  0  0  0  0  0  0
  150.0319  144.3519  159.2932 H   0  0  0  0  0  0  0  0  0  0  0  0
  147.1240  143.9492  153.8236 H   0  0  0  0  0  0  0  0  0  0  0  0
  146.0685  143.3560  155.1241 H   0  0  0  0  0  0  0  0  0  0  0  0
  145.5195  143.2982  153.4373 H   0  0  0  0  0  0  0  0  0  0  0  0
  1  2  1  0  0  0  0
  1 17  1  0  0  0  0
  1 18  1  0  0  0  0
  1 19  1  0  0  0  0
  2 16  2  0  0  0  0
  2  3  1  0  0  0  0
  3  4  2  0  0  0  0
  3 20  1  0  0  0  0
  4  5  1  0  0  0  0
  4 14  1  0  0  0  0
  5  6  1  0  0  0  0
  5 21  1  0  0  0  0
  6  7  2  0  0  0  0
  6  8  1  0  0  0  0
  8  9  1  0  0  0  0
  8 22  1  0  0  0  0
  9 10  1  0  0  0  0
  9 23  1  0  0  0  0
  9 24  1  0  0  0  0
 10 13  1  0  0  0  0
 10 11  1  0  0  0  0
 10 25  1  0  0  0  0
 11 12  1  0  0  0  0
 11 26  1  0  0  0  0
 11 27  1  0  0  0  0
 12 13  1  0  0  0  0
 12 28  1  0  0  0  0
 12 29  1  0  0  0  0
 13 30  1  0  0  0  0
 13 31  1  0  0  0  0
 14 15  1  0  0  0  0
 14 16  1  0  0  0  0
 15 32  1  0  0  0  0
 15 33  1  0  0  0  0
 15 34  1  0  0  0  0
M  END
> <s_m_source_file>
AV-unprocessed.smi

> <i_m_source_file_index>
1262

> <i_lp_mmshare_version>
43012

> <i_f3d_flags>
0

> <s_epik_input>
W0NIM11jMVtjSF1jKG4objEpW0NIM10pW05IXUMoPU8pW05IXVtDSDJdW0NIXTJbQ0gyXVtDSDJdW0NIMl0y

> <s_epik_cmdline>
J2VwaWtfcHl0aG9uJywgJy1waCcsICc3LjAnLCAnLXRuJywgJzgnLCAnLW1hJywgJzIwMCcsICctbWV0YWxfYmluZGluZycsICctaW1hZScsICc8aW5maWxlLm1hZT4nLCAnLW9tYWUnLCAnPG91dGZpbGUubWFlPic=

> <r_lp_tautomer_probability>
1

> <r_epik_Ionization_Penalty>
9.92667e-05

> <r_epik_Ionization_Penalty_Charging>
0

> <r_epik_Ionization_Penalty_Neutral>
9.92667e-05

> <r_epik_State_Penalty>
-0

> <r_epik_Charging_Adjusted_Penalty>
0

> <i_epik_Tot_Q>
0

> <i_epik_Tot_abs_Q>
0

> <r_epik_Metal_State_Penalty>
-0

> <b_epik_Metal_Only>
0

> <s_lp_Force_Field>
OPLS_2005

> <r_lp_Energy>
13.5599

> <b_lp_Chiralities_Consistent>
1

> <s_lp_Variant>
AV-unprocessed.smi:1262-1

> <Gold.Version>
5.8.1

> <Gold.Id.Protein>
6NUR|6NUR_protein|mol2

> <Gold.PLP.Fitness>
42.8463

> <Gold.PLP.PLP>
-37.5954

> <Gold.PLP.part.hbond>
-2.0000

> <Gold.PLP.part.metal>
0.0000

> <Gold.PLP.part.buried>
-3.9763

> <Gold.PLP.part.nonpolar>
-34.0358

> <Gold.PLP.part.repulsive>
2.2227

> <Gold.PLP.ligand.clash>
0.0000

> <Gold.PLP.ligand.torsion>
0.2507

> <Gold.PLP.Chemscore.Hbond>
1.8960

> <Gold.PLP.Chemscore.CHOScore>
0.0000

> <Gold.PLP.Chemscore.Metal>
0.0000

> <Gold.Chemscore.Hbonds>
donor molecule, donor type, donor heavy atom, donor atom, acceptor molecule, acceptor atom, score
      L1  H     5    21       P1  8028  1.00
      L1  H     8    22       P1  8028  0.90

> <Gold.PLP.Chemscore.Internal.Correction>
0.0643

> <Gold.Rescore>
     Score         DG    S(hbond)    S(metal)    S(lipo)     H(rot)  DE(clash)    DE(int)     intcor
     16.76     -18.89       1.95        0.00      85.33       1.21       0.84       1.29       ----

> <Gold.Chemscore.Fitness>
16.7607

> <Gold.Chemscore.DG>
-18.8885

> <Gold.Chemscore.ZeroCoef>
-5.4800

> <Gold.Chemscore.Hbond>
1.9531

> <Gold.Chemscore.Metal>
0.0000

> <Gold.Chemscore.Lipo>
85.3316

> <Gold.Chemscore.Internal_Hbond>
0.0000

> <Gold.Chemscore.DEClash>
0.8355

> <Gold.Chemscore.DEInternal>
1.2923

> <Gold.Chemscore.Rot>
1.2103

> <Gold.Chemscore.Internal.Correction>
   9.000000E+99

> <Gold.Chemscore.Hbonds>
donor molecule, donor type, donor heavy atom, donor atom, acceptor molecule, acceptor atom, score
      L1  H     5    21       P1  8028  0.98
      L1  H     8    22       P1  8028  0.88

> <Gold.Chemscore.Hbond.Weighted>
-6.5232

> <Gold.Chemscore.Metal.Weighted>
-0.0000

> <Gold.Chemscore.Lipo.Weighted>
-9.9838

> <Gold.Chemscore.Internal_Hbond.Weighted>
0.0000

> <Gold.Chemscore.DEClash.Weighted>
0.8355

> <Gold.Chemscore.DEInternal.Weighted>
1.2923

> <Gold.Chemscore.Rot.Weighted>
3.0984

> <Gold.Chemscore.Internal.Correction.Weighted>
   9.000000E+99

> <Gold.Protein.RotatedTorsions>
[ 6907 6896 6895 6894 ] final   74.67 input  -60.11 | X-H torsion
[ 7974 7965 7964 7962 ] final  128.61 input  175.53 | X-H torsion
[ 8008 7997 7996 7995 ] final -124.29 input   59.86 | X-H torsion
[ 10167 10162 10161 10158 ] final  171.71 input  -65.29 | X-H torsion
[ 10718 10713 10712 10709 ] final   23.66 input   66.30 | X-H torsion
[ 10763 10752 10751 10750 ] final  135.98 input  -60.55 | X-H torsion
[ 11005 11000 10999 10996 ] final  -87.91 input  -57.11 | X-H torsion

> <Gold.Protein.ActiveResidues>
 VAL166  LYS551  ARG553  GLY616  TRP617  ASP618  TYR619  PRO620  LYS621  CYS622 
 ASP623  PHE694  ASN695  SER759  ASP760  ASP761  ALA762  ILE779  LEU786  VAL792 
 PHE793  MET794  SER795  GLU796  ALA797  LYS798  CYS799  TRP800  GLU811  SER814 

> <Gold.Protein.RotatedAtoms>
  152.4987  134.4237  159.9488 H   0  0  0  0  0  0  0  0  0  0  0  0  # atno 6907 bound_to 6896
  151.4211  133.3692  159.2764 H   0  0  0  0  0  0  0  0  0  0  0  0  # atno 6908 bound_to 6896
  150.9222  134.8662  159.7556 H   0  0  0  0  0  0  0  0  0  0  0  0  # atno 6909 bound_to 6896
  145.0376  139.3991  143.5118 H   0  0  0  0  0  0  0  0  0  0  0  0  # atno 7974 bound_to 7965
  155.1944  140.0414  157.2906 H   0  0  0  0  0  0  0  0  0  0  0  0  # atno 8008 bound_to 7997
  154.6117  140.2478  155.7633 H   0  0  0  0  0  0  0  0  0  0  0  0  # atno 8009 bound_to 7997
  156.2383  140.2913  156.0382 H   0  0  0  0  0  0  0  0  0  0  0  0  # atno 8010 bound_to 7997
  139.5054  144.3455  151.9975 H   0  0  0  0  0  0  0  0  0  0  0  0  # atno 10167 bound_to 10162
  157.1692  130.6752  149.6071 H   0  0  0  0  0  0  0  0  0  0  0  0  # atno 10718 bound_to 10713
  153.8490  135.3082  155.3431 H   0  0  0  0  0  0  0  0  0  0  0  0  # atno 10763 bound_to 10752
  154.7900  135.4788  154.0033 H   0  0  0  0  0  0  0  0  0  0  0  0  # atno 10764 bound_to 10752
  153.1530  135.6846  153.8947 H   0  0  0  0  0  0  0  0  0  0  0  0  # atno 10765 bound_to 10752
  141.1610  133.7539  156.9375 H   0  0  0  0  0  0  0  0  0  0  0  0  # atno 11005 bound_to 11000
  146.3506  139.9960  142.8681 LP  0  0  0  0  0  0  0  0  0  0  0  0  # atno 17320 bound_to 7965
  145.1689  140.9711  143.4333 LP  0  0  0  0  0  0  0  0  0  0  0  0  # atno 17321 bound_to 7965
  140.2893  144.3772  150.6094 LP  0  0  0  0  0  0  0  0  0  0  0  0  # atno 17342 bound_to 10162
  140.5959  143.2167  151.7165 LP  0  0  0  0  0  0  0  0  0  0  0  0  # atno 17343 bound_to 10162
  155.9741  130.4685  150.6362 LP  0  0  0  0  0  0  0  0  0  0  0  0  # atno 17370 bound_to 10713
  157.4060  131.0817  151.1265 LP  0  0  0  0  0  0  0  0  0  0  0  0  # atno 17371 bound_to 10713
  140.1344  134.9335  157.2382 LP  0  0  0  0  0  0  0  0  0  0  0  0  # atno 17394 bound_to 11000
  140.2913  134.3237  155.7314 LP  0  0  0  0  0  0  0  0  0  0  0  0  # atno 17395 bound_to 11000

$$$$
