AV-unprocessed.smi:101|AV-procd|sdf|939|dock3
  -GOLD-   2262017453D 1   1.00000     0.00000
 Structure written by MMmdl.
 43 45  0  0  0  0  0  0  0  0  2 V2000
  142.6780  139.5762  157.9421 C   0  0  0  0  0  0  0  0  0  0  0  0
  144.1284  140.0259  157.9325 C   0  0  0  0  0  0  0  0  0  0  0  0
  144.9561  139.7700  156.8951 C   0  0  0  0  0  0  0  0  0  0  0  0
  146.2764  140.1841  156.8922 N   0  0  0  0  0  0  0  0  0  0  0  0
  147.1817  139.8782  155.7186 C   0  0  2  0  0  0  0  0  0  0  0  0
  148.3969  139.4009  156.2007 O   0  0  0  0  0  0  0  0  0  0  0  0
  149.4031  139.7074  155.2525 C   0  0  2  0  0  0  0  0  0  0  0  0
  150.7762  139.6494  155.9327 C   0  0  0  0  0  0  0  0  0  0  0  0
  150.9182  140.7505  156.8152 O   0  0  0  0  0  0  0  0  0  0  0  0
  151.9747  140.8139  157.6484 C   0  0  0  0  0  0  0  0  0  0  0  0
  152.8349  139.9343  157.7270 O   0  0  0  0  0  0  0  0  0  0  0  0
  151.9978  142.0624  158.4643 C   0  0  0  0  0  0  0  0  0  0  0  0
  151.1934  143.1589  158.0749 C   0  0  0  0  0  0  0  0  0  0  0  0
  151.1908  144.3499  158.8266 C   0  0  0  0  0  0  0  0  0  0  0  0
  151.9937  144.4595  159.9768 C   0  0  0  0  0  0  0  0  0  0  0  0
  152.7996  143.3765  160.3741 C   0  0  0  0  0  0  0  0  0  0  0  0
  152.8034  142.1844  159.6235 C   0  0  0  0  0  0  0  0  0  0  0  0
  149.0106  141.0972  154.7365 C   0  0  1  0  0  0  0  0  0  0  0  0
  149.4260  141.2524  153.3934 O   0  0  0  0  0  0  0  0  0  0  0  0
  147.4850  141.1091  154.8334 C   0  0  2  0  0  0  0  0  0  0  0  0
  147.0333  142.3383  155.3734 O   0  0  0  0  0  0  0  0  0  0  0  0
  146.8016  140.8697  158.0172 C   0  0  0  0  0  0  0  0  0  0  0  0
  147.9926  141.1814  157.9992 O   0  0  0  0  0  0  0  0  0  0  0  0
  145.9727  141.1393  159.0657 N   0  5  0  0  0  0  0  0  0  0  0  0
  144.6616  140.7615  159.0860 C   0  0  0  0  0  0  0  0  0  0  0  0
  143.9229  141.0158  160.0367 O   0  0  0  0  0  0  0  0  0  0  0  0
  142.4227  139.0414  157.0270 H   0  0  0  0  0  0  0  0  0  0  0  0
  142.0140  140.4372  158.0264 H   0  0  0  0  0  0  0  0  0  0  0  0
  142.4903  138.9115  158.7858 H   0  0  0  0  0  0  0  0  0  0  0  0
  144.5725  139.2198  156.0486 H   0  0  0  0  0  0  0  0  0  0  0  0
  146.7094  139.0651  155.1642 H   0  0  0  0  0  0  0  0  0  0  0  0
  149.3368  138.9626  154.4565 H   0  0  0  0  0  0  0  0  0  0  0  0
  150.8943  138.7065  156.4689 H   0  0  0  0  0  0  0  0  0  0  0  0
  151.5641  139.6976  155.1802 H   0  0  0  0  0  0  0  0  0  0  0  0
  150.5682  143.0981  157.1956 H   0  0  0  0  0  0  0  0  0  0  0  0
  150.5716  145.1800  158.5196 H   0  0  0  0  0  0  0  0  0  0  0  0
  151.9913  145.3729  160.5535 H   0  0  0  0  0  0  0  0  0  0  0  0
  153.4167  143.4597  161.2564 H   0  0  0  0  0  0  0  0  0  0  0  0
  153.4343  141.3728  159.9555 H   0  0  0  0  0  0  0  0  0  0  0  0
  149.4505  141.8740  155.3645 H   0  0  0  0  0  0  0  0  0  0  0  0
  148.8900  140.6969  152.8483 H   0  0  0  0  0  0  0  0  0  0  0  0
  147.0075  140.9473  153.8660 H   0  0  0  0  0  0  0  0  0  0  0  0
  147.7711  142.9274  155.4253 H   0  0  0  0  0  0  0  0  0  0  0  0
  1  2  1  0  0  0  0
  1 27  1  0  0  0  0
  1 28  1  0  0  0  0
  1 29  1  0  0  0  0
  2 25  1  0  0  0  0
  2  3  2  0  0  0  0
  3  4  1  0  0  0  0
  3 30  1  0  0  0  0
  4  5  1  0  0  0  0
  4 22  1  0  0  0  0
  5 20  1  0  0  0  0
  5  6  1  0  0  0  0
  5 31  1  0  0  0  0
  6  7  1  0  0  0  0
  7  8  1  0  0  0  0
  7 18  1  0  0  0  0
  7 32  1  0  0  0  0
  8  9  1  0  0  0  0
  8 33  1  0  0  0  0
  8 34  1  0  0  0  0
  9 10  1  0  0  0  0
 10 11  2  0  0  0  0
 10 12  1  0  0  0  0
 12 17  1  0  0  0  0
 12 13  2  0  0  0  0
 13 14  1  0  0  0  0
 13 35  1  0  0  0  0
 14 15  2  0  0  0  0
 14 36  1  0  0  0  0
 15 16  1  0  0  0  0
 15 37  1  0  0  0  0
 16 17  2  0  0  0  0
 16 38  1  0  0  0  0
 17 39  1  0  0  0  0
 18 19  1  0  0  0  0
 18 20  1  0  0  0  0
 18 40  1  0  0  0  0
 19 41  1  0  0  0  0
 20 21  1  0  0  0  0
 20 42  1  0  0  0  0
 21 43  1  0  0  0  0
 22 23  2  0  0  0  0
 22 24  1  0  0  0  0
 24 25  1  0  0  0  0
 25 26  2  0  0  0  0
M  CHG  1  24  -1
M  END
> <s_m_source_file>
AV-unprocessed.smi

> <i_m_source_file_index>
101

> <i_lp_mmshare_version>
43012

> <i_f3d_flags>
0

> <s_epik_input>
Tz1jMVtuSF1jKD1PKW4oW2NIXWMxW0NIM10pW0NAQEhdMk9bQ0BIXShbQ0BASF0oW09IXSlbQ0BIXTJbT0hdKVtDSDJdT0MoPU8pYzNbY0hdW2NIXVtjSF1bY0hdW2NIXTM=

> <s_epik_cmdline>
J2VwaWtfcHl0aG9uJywgJy1waCcsICc3LjAnLCAnLXRuJywgJzgnLCAnLW1hJywgJzIwMCcsICctbWV0YWxfYmluZGluZycsICctaW1hZScsICc8aW5maWxlLm1hZT4nLCAnLW9tYWUnLCAnPG91dGZpbGUubWFlPic=

> <r_lp_tautomer_probability>
0.999537

> <r_epik_Ionization_Penalty>
3.21006

> <r_epik_Ionization_Penalty_Charging>
5.75142e-08

> <r_epik_Ionization_Penalty_Neutral>
3.21006

> <r_epik_State_Penalty>
3.20925

> <r_epik_Charging_Adjusted_Penalty>
3.20925

> <i_epik_Tot_Q>
-1

> <i_epik_Tot_abs_Q>
1

> <r_epik_Metal_State_Penalty>
0.119957

> <b_epik_Metal_Only>
1

> <s_epik_Chemistry_Notes>
This compound has an ester and may undergo hydrolysis at high or low pH. This compound contains an acetal/aminal-like group ( X-CH(R)-Y where X, Y are N, S, or O) that may be acid/base labile, releasing an aldehyde.

> <s_lp_Force_Field>
OPLS_2005

> <r_lp_Energy>
44.2535

> <b_lp_Chiralities_Consistent>
1

> <s_lp_Variant>
AV-unprocessed.smi:101-27

> <Gold.Version>
5.8.1

> <Gold.Id.Protein>
6NUR|6NUR_protein|mol2

> <Gold.PLP.Fitness>
51.4590

> <Gold.PLP.PLP>
-37.0848

> <Gold.PLP.part.hbond>
-5.8278

> <Gold.PLP.part.metal>
0.0000

> <Gold.PLP.part.buried>
-5.4301

> <Gold.PLP.part.nonpolar>
-26.8369

> <Gold.PLP.part.repulsive>
0.0933

> <Gold.PLP.ligand.clash>
0.0000

> <Gold.PLP.ligand.torsion>
0.5955

> <Gold.PLP.Chemscore.Hbond>
5.1048

> <Gold.PLP.Chemscore.CHOScore>
0.0000

> <Gold.PLP.Chemscore.Metal>
0.0000

> <Gold.Chemscore.Hbonds>
donor molecule, donor type, donor heavy atom, donor atom, acceptor molecule, acceptor atom, score
      L1  H    19    41       P1  7957  0.38
      L1  H    21    43       P1  8028  0.84
      P1  H  6934  6946       L1    24  1.31
      P1  H  7989  7998       L1    19  0.07
      P1  H  7997  8008       L1    11  1.00
      P1  H  8011  8017       L1    19  1.00

> <Gold.PLP.Chemscore.Internal.Correction>
0.2507

> <Gold.Rescore>
     Score         DG    S(hbond)    S(metal)    S(lipo)     H(rot)  DE(clash)    DE(int)     intcor
     16.40     -19.19       3.39        0.00      91.89       3.27       0.11       2.67       ----

> <Gold.Chemscore.Fitness>
16.4006

> <Gold.Chemscore.DG>
-19.1853

> <Gold.Chemscore.ZeroCoef>
-5.4800

> <Gold.Chemscore.Hbond>
3.3874

> <Gold.Chemscore.Metal>
0.0000

> <Gold.Chemscore.Lipo>
91.8910

> <Gold.Chemscore.Internal_Hbond>
0.0000

> <Gold.Chemscore.DEClash>
0.1137

> <Gold.Chemscore.DEInternal>
2.6711

> <Gold.Chemscore.Rot>
3.2656

> <Gold.Chemscore.Internal.Correction>
   9.000000E+99

> <Gold.Chemscore.Hbonds>
donor molecule, donor type, donor heavy atom, donor atom, acceptor molecule, acceptor atom, score
      L1  H    19    41       P1  7957  0.38
      L1  H    21    43       P1  8028  0.53
      P1  H  6934  6946       L1    24  0.41
      P1  H  7989  7998       L1    19  0.04
      P1  H  7997  8008       L1    11  0.96
      P1  H  8011  8017       L1    19  0.24

> <Gold.Chemscore.Hbond.Weighted>
-11.3139

> <Gold.Chemscore.Metal.Weighted>
-0.0000

> <Gold.Chemscore.Lipo.Weighted>
-10.7512

> <Gold.Chemscore.Internal_Hbond.Weighted>
0.0000

> <Gold.Chemscore.DEClash.Weighted>
0.1137

> <Gold.Chemscore.DEInternal.Weighted>
2.6711

> <Gold.Chemscore.Rot.Weighted>
8.3598

> <Gold.Chemscore.Internal.Correction.Weighted>
   9.000000E+99

> <Gold.Protein.RotatedTorsions>
[ 6907 6896 6895 6894 ] final   20.67 input  -60.11 | X-H torsion
[ 7974 7965 7964 7962 ] final  -18.46 input  175.53 | X-H torsion
[ 8008 7997 7996 7995 ] final  -84.79 input   59.86 | X-H torsion
[ 10167 10162 10161 10158 ] final  -33.00 input  -65.29 | X-H torsion
[ 10718 10713 10712 10709 ] final    6.24 input   66.30 | X-H torsion
[ 10763 10752 10751 10750 ] final  153.91 input  -60.55 | X-H torsion
[ 11005 11000 10999 10996 ] final -179.30 input  -57.11 | X-H torsion

> <Gold.Protein.ActiveResidues>
 VAL166  LYS551  ARG553  GLY616  TRP617  ASP618  TYR619  PRO620  LYS621  CYS622 
 ASP623  PHE694  ASN695  SER759  ASP760  ASP761  ALA762  ILE779  LEU786  VAL792 
 PHE793  MET794  SER795  GLU796  ALA797  LYS798  CYS799  TRP800  GLU811  SER814 

> <Gold.Protein.RotatedAtoms>
  151.8999  135.0382  160.0505 H   0  0  0  0  0  0  0  0  0  0  0  0  # atno 6907 bound_to 6896
  152.2367  133.5097  159.5255 H   0  0  0  0  0  0  0  0  0  0  0  0  # atno 6908 bound_to 6896
  150.7041  134.1061  159.4026 H   0  0  0  0  0  0  0  0  0  0  0  0  # atno 6909 bound_to 6896
  146.1891  140.3924  142.8465 H   0  0  0  0  0  0  0  0  0  0  0  0  # atno 7974 bound_to 7965
  154.6337  140.0600  156.9762 H   0  0  0  0  0  0  0  0  0  0  0  0  # atno 8008 bound_to 7997
  155.1626  140.3284  155.4390 H   0  0  0  0  0  0  0  0  0  0  0  0  # atno 8009 bound_to 7997
  156.2496  140.1928  156.6732 H   0  0  0  0  0  0  0  0  0  0  0  0  # atno 8010 bound_to 7997
  140.7212  143.3652  151.1884 H   0  0  0  0  0  0  0  0  0  0  0  0  # atno 10167 bound_to 10162
  156.9193  130.5785  149.5647 H   0  0  0  0  0  0  0  0  0  0  0  0  # atno 10718 bound_to 10713
  154.1437  135.2819  155.3154 H   0  0  0  0  0  0  0  0  0  0  0  0  # atno 10763 bound_to 10752
  154.6268  135.5449  153.7639 H   0  0  0  0  0  0  0  0  0  0  0  0  # atno 10764 bound_to 10752
  153.0242  135.6452  154.1584 H   0  0  0  0  0  0  0  0  0  0  0  0  # atno 10765 bound_to 10752
  140.4202  134.6612  157.4660 H   0  0  0  0  0  0  0  0  0  0  0  0  # atno 11005 bound_to 11000
  144.8452  140.6918  143.6203 LP  0  0  0  0  0  0  0  0  0  0  0  0  # atno 17320 bound_to 7965
  145.3848  139.1629  143.4261 LP  0  0  0  0  0  0  0  0  0  0  0  0  # atno 17321 bound_to 7965
  139.7213  143.9219  152.2986 LP  0  0  0  0  0  0  0  0  0  0  0  0  # atno 17342 bound_to 10162
  139.8977  144.6929  150.8700 LP  0  0  0  0  0  0  0  0  0  0  0  0  # atno 17343 bound_to 10162
  156.0498  130.5569  150.8964 LP  0  0  0  0  0  0  0  0  0  0  0  0  # atno 17370 bound_to 10713
  157.5918  131.0944  150.9106 LP  0  0  0  0  0  0  0  0  0  0  0  0  # atno 17371 bound_to 10713
  140.0205  134.6554  155.9246 LP  0  0  0  0  0  0  0  0  0  0  0  0  # atno 17394 bound_to 11000
  141.1787  133.6543  156.4931 LP  0  0  0  0  0  0  0  0  0  0  0  0  # atno 17395 bound_to 11000

$$$$
