AV-unprocessed.smi:867|AV-procd|sdf|4000|dock4
  -GOLD-   22720 1483D 1   1.00000     0.00000
 Structure written by MMmdl.
 54 57  0  0  0  0  0  0  0  0  3 V2000
  152.4033  140.1364  155.7044 O   0  0  0  0  0  0  0  0  0  0  0  0
  151.2210  139.8060  155.6060 C   0  0  0  0  0  0  0  0  0  0  0  0
  150.2836  140.2404  156.4656 N   0  0  0  0  0  0  0  0  0  0  0  0
  150.5260  141.1431  157.5848 C   0  0  0  0  0  0  0  0  0  0  0  0
  151.1564  142.4654  157.1186 C   0  0  0  0  0  0  0  0  0  0  0  0
  151.4746  143.3861  158.2803 C   0  0  0  0  0  0  0  0  0  0  0  0
  152.2362  142.9210  159.3753 C   0  0  0  0  0  0  0  0  0  0  0  0
  152.5144  143.7965  160.4456 C   0  0  0  0  0  0  0  0  0  0  0  0
  152.0240  145.1175  160.3971 C   0  0  0  0  0  0  0  0  0  0  0  0
  151.2979  145.5266  159.3333 N   0  3  0  0  0  0  0  0  0  0  0  0
  151.0100  144.7193  158.2886 C   0  0  0  0  0  0  0  0  0  0  0  0
  150.7711  138.9301  154.6734 N   0  0  0  0  0  0  0  0  0  0  0  0
  151.5295  137.8134  154.0983 C   0  0  0  0  0  0  0  0  0  0  0  0
  151.0214  136.4996  154.7183 C   0  0  0  0  0  0  0  0  0  0  0  0
  149.5522  136.3141  154.5189 N   0  3  0  0  0  0  0  0  0  0  0  0
  149.0651  135.0335  155.1197 C   0  0  2  0  0  0  0  0  0  0  0  0
  150.1111  133.8925  154.9975 C   0  0  0  0  0  0  0  0  0  0  0  0
  149.3280  132.7485  154.3333 C   0  0  1  0  0  0  0  0  0  0  0  0
  148.2860  132.1945  155.3190 C   0  0  0  0  0  0  0  0  0  0  0  0
  147.2366  133.3188  155.3593 C   0  0  0  0  0  0  0  0  0  0  0  0
  147.8347  134.3861  154.4208 C   0  0  2  0  0  0  0  0  0  0  0  0
  148.4643  133.5142  153.3402 C   0  0  0  0  0  0  0  0  0  0  0  0
  148.7806  137.5203  154.9424 C   0  0  0  0  0  0  0  0  0  0  0  0
  149.3523  138.8148  154.3351 C   0  0  0  0  0  0  0  0  0  0  0  0
  149.3383  139.9068  156.3447 H   0  0  0  0  0  0  0  0  0  0  0  0
  149.5719  141.3378  158.0756 H   0  0  0  0  0  0  0  0  0  0  0  0
  151.1611  140.6546  158.3259 H   0  0  0  0  0  0  0  0  0  0  0  0
  152.0752  142.2729  156.5628 H   0  0  0  0  0  0  0  0  0  0  0  0
  150.4835  142.9785  156.4305 H   0  0  0  0  0  0  0  0  0  0  0  0
  152.6021  141.9044  159.3972 H   0  0  0  0  0  0  0  0  0  0  0  0
  153.0948  143.4587  161.2918 H   0  0  0  0  0  0  0  0  0  0  0  0
  152.1882  145.8529  161.1711 H   0  0  0  0  0  0  0  0  0  0  0  0
  150.4195  145.1614  157.4990 H   0  0  0  0  0  0  0  0  0  0  0  0
  151.3820  137.7982  153.0172 H   0  0  0  0  0  0  0  0  0  0  0  0
  152.6070  137.8913  154.2432 H   0  0  0  0  0  0  0  0  0  0  0  0
  151.5814  135.6731  154.2831 H   0  0  0  0  0  0  0  0  0  0  0  0
  151.2414  136.4937  155.7872 H   0  0  0  0  0  0  0  0  0  0  0  0
  148.8292  135.2259  156.1679 H   0  0  0  0  0  0  0  0  0  0  0  0
  150.9425  134.1660  154.3470 H   0  0  0  0  0  0  0  0  0  0  0  0
  150.5273  133.6061  155.9641 H   0  0  0  0  0  0  0  0  0  0  0  0
  149.9653  131.9807  153.8934 H   0  0  0  0  0  0  0  0  0  0  0  0
  147.8444  131.2707  154.9428 H   0  0  0  0  0  0  0  0  0  0  0  0
  148.7145  131.9868  156.3004 H   0  0  0  0  0  0  0  0  0  0  0  0
  146.2810  132.9598  154.9746 H   0  0  0  0  0  0  0  0  0  0  0  0
  147.0661  133.6955  156.3684 H   0  0  0  0  0  0  0  0  0  0  0  0
  147.0643  135.0663  154.0658 H   0  0  0  0  0  0  0  0  0  0  0  0
  149.0409  134.0803  152.6067 H   0  0  0  0  0  0  0  0  0  0  0  0
  147.7437  132.8817  152.8184 H   0  0  0  0  0  0  0  0  0  0  0  0
  147.7430  137.4503  154.6240 H   0  0  0  0  0  0  0  0  0  0  0  0
  148.7815  137.5877  156.0315 H   0  0  0  0  0  0  0  0  0  0  0  0
  148.7697  139.6742  154.6711 H   0  0  0  0  0  0  0  0  0  0  0  0
  149.2444  138.7965  153.2494 H   0  0  0  0  0  0  0  0  0  0  0  0
  149.4102  136.2335  153.5223 H   0  0  0  0  0  0  0  0  0  0  0  0
  150.9515  146.4864  159.3189 H   0  0  0  0  0  0  0  0  0  0  0  0
  1  2  2  0  0  0  0
  2  3  1  0  0  0  0
  2 12  1  0  0  0  0
  3  4  1  0  0  0  0
  3 25  1  0  0  0  0
  4  5  1  0  0  0  0
  4 26  1  0  0  0  0
  4 27  1  0  0  0  0
  5  6  1  0  0  0  0
  5 28  1  0  0  0  0
  5 29  1  0  0  0  0
  6 11  1  0  0  0  0
  6  7  2  0  0  0  0
  7  8  1  0  0  0  0
  7 30  1  0  0  0  0
  8  9  2  0  0  0  0
  8 31  1  0  0  0  0
  9 10  1  0  0  0  0
  9 32  1  0  0  0  0
 10 11  2  0  0  0  0
 10 54  1  0  0  0  0
 11 33  1  0  0  0  0
 12 24  1  0  0  0  0
 12 13  1  0  0  0  0
 13 14  1  0  0  0  0
 13 34  1  0  0  0  0
 13 35  1  0  0  0  0
 14 15  1  0  0  0  0
 14 36  1  0  0  0  0
 14 37  1  0  0  0  0
 15 16  1  0  0  0  0
 15 23  1  0  0  0  0
 15 53  1  0  0  0  0
 16 21  1  0  0  0  0
 16 17  1  0  0  0  0
 16 38  1  0  0  0  0
 17 18  1  0  0  0  0
 17 39  1  0  0  0  0
 17 40  1  0  0  0  0
 18 22  1  0  0  0  0
 18 19  1  0  0  0  0
 18 41  1  0  0  0  0
 19 20  1  0  0  0  0
 19 42  1  0  0  0  0
 19 43  1  0  0  0  0
 20 21  1  0  0  0  0
 20 44  1  0  0  0  0
 20 45  1  0  0  0  0
 21 22  1  0  0  0  0
 21 46  1  0  0  0  0
 22 47  1  0  0  0  0
 22 48  1  0  0  0  0
 23 24  1  0  0  0  0
 23 49  1  0  0  0  0
 23 50  1  0  0  0  0
 24 51  1  0  0  0  0
 24 52  1  0  0  0  0
M  CHG  1  10   1
M  CHG  1  15   1
M  END
> <s_m_source_file>
AV-unprocessed.smi

> <i_m_source_file_index>
867

> <i_lp_mmshare_version>
43012

> <i_f3d_flags>
0

> <s_epik_input>
W0NIMl0xW0NIMl1bQ0BASF0oW0NIMl0yKVtDQEBIXShbQ0gyXVtDQEhdMTIpTihbQ0gyXVtDSDJdMylbQ0gyXVtDSDJdTjNDKD1PKVtOSF1bQ0gyXVtDSDJdYzRbY0hdW2NIXVtjSF1uW2NIXTQ=

> <s_epik_cmdline>
J2VwaWtfcHl0aG9uJywgJy1waCcsICc3LjAnLCAnLXRuJywgJzgnLCAnLW1hJywgJzIwMCcsICctbWV0YWxfYmluZGluZycsICctaW1hZScsICc8aW5maWxlLm1hZT4nLCAnLW9tYWUnLCAnPG91dGZpbGUubWFlPic=

> <r_epik_Ionization_Penalty>
2.25108

> <r_epik_Ionization_Penalty_Charging>
2.25105

> <r_epik_Ionization_Penalty_Neutral>
2.64641e-05

> <r_epik_State_Penalty>
2.39519

> <r_epik_Charging_Adjusted_Penalty>
4.64625

> <i_epik_Tot_Q>
2

> <i_epik_Tot_abs_Q>
2

> <r_epik_Metal_State_Penalty>
2.40865

> <b_epik_Metal_Only>
0

> <s_lp_Force_Field>
OPLS_2005

> <r_lp_Energy>
104.696

> <b_lp_Chiralities_Consistent>
1

> <s_lp_Variant>
AV-unprocessed.smi:867-7

> <Gold.Version>
5.8.1

> <Gold.Id.Protein>
6NUR|6NUR_protein|mol2

> <Gold.PLP.Fitness>
52.2038

> <Gold.PLP.PLP>
-45.5834

> <Gold.PLP.part.hbond>
-2.4942

> <Gold.PLP.part.metal>
0.0000

> <Gold.PLP.part.buried>
-2.1860

> <Gold.PLP.part.nonpolar>
-40.8425

> <Gold.PLP.part.repulsive>
0.3893

> <Gold.PLP.ligand.clash>
0.8176

> <Gold.PLP.ligand.torsion>
0.8366

> <Gold.PLP.Chemscore.Hbond>
3.0000

> <Gold.PLP.Chemscore.CHOScore>
0.0000

> <Gold.PLP.Chemscore.Metal>
0.0000

> <Gold.Chemscore.Hbonds>
donor molecule, donor type, donor heavy atom, donor atom, acceptor molecule, acceptor atom, score
      L1  H    15    53       P1  7948  2.00
      P1  H  7997  8008       L1     1  1.00

> <Gold.PLP.Chemscore.Internal.Correction>
0.1112

> <Gold.Rescore>
     Score         DG    S(hbond)    S(metal)    S(lipo)     H(rot)  DE(clash)    DE(int)     intcor
     21.04     -22.03       1.84        0.00     120.71       1.46       0.12       0.87       ----

> <Gold.Chemscore.Fitness>
21.0428

> <Gold.Chemscore.DG>
-22.0342

> <Gold.Chemscore.ZeroCoef>
-5.4800

> <Gold.Chemscore.Hbond>
1.8448

> <Gold.Chemscore.Metal>
0.0000

> <Gold.Chemscore.Lipo>
120.7096

> <Gold.Chemscore.Internal_Hbond>
0.0000

> <Gold.Chemscore.DEClash>
0.1227

> <Gold.Chemscore.DEInternal>
0.8688

> <Gold.Chemscore.Rot>
1.4572

> <Gold.Chemscore.Internal.Correction>
   9.000000E+99

> <Gold.Chemscore.Hbonds>
donor molecule, donor type, donor heavy atom, donor atom, acceptor molecule, acceptor atom, score
      L1  H    15    53       P1  7948  0.70
      P1  H  7997  8008       L1     1  0.96

> <Gold.Chemscore.Hbond.Weighted>
-6.1617

> <Gold.Chemscore.Metal.Weighted>
-0.0000

> <Gold.Chemscore.Lipo.Weighted>
-14.1230

> <Gold.Chemscore.Internal_Hbond.Weighted>
0.0000

> <Gold.Chemscore.DEClash.Weighted>
0.1227

> <Gold.Chemscore.DEInternal.Weighted>
0.8688

> <Gold.Chemscore.Rot.Weighted>
3.7305

> <Gold.Chemscore.Internal.Correction.Weighted>
   9.000000E+99

> <Gold.Protein.RotatedTorsions>
[ 6907 6896 6895 6894 ] final -176.60 input  -60.11 | X-H torsion
[ 7974 7965 7964 7962 ] final  116.84 input  175.53 | X-H torsion
[ 8008 7997 7996 7995 ] final  -28.94 input   59.86 | X-H torsion
[ 10167 10162 10161 10158 ] final  -85.67 input  -65.29 | X-H torsion
[ 10718 10713 10712 10709 ] final -149.17 input   66.30 | X-H torsion
[ 10763 10752 10751 10750 ] final -155.09 input  -60.55 | X-H torsion
[ 11005 11000 10999 10996 ] final  110.64 input  -57.11 | X-H torsion

> <Gold.Protein.ActiveResidues>
 VAL166  LYS551  ARG553  GLY616  TRP617  ASP618  TYR619  PRO620  LYS621  CYS622 
 ASP623  PHE694  ASN695  SER759  ASP760  ASP761  ALA762  ILE779  LEU786  VAL792 
 PHE793  MET794  SER795  GLU796  ALA797  LYS798  CYS799  TRP800  GLU811  SER814 

> <Gold.Protein.RotatedAtoms>
  151.6074  133.3350  159.3060 H   0  0  0  0  0  0  0  0  0  0  0  0  # atno 6907 bound_to 6896
  150.8175  134.7368  159.6754 H   0  0  0  0  0  0  0  0  0  0  0  0  # atno 6908 bound_to 6896
  152.4270  134.5855  160.0011 H   0  0  0  0  0  0  0  0  0  0  0  0  # atno 6909 bound_to 6896
  145.1746  139.3082  143.4449 H   0  0  0  0  0  0  0  0  0  0  0  0  # atno 7974 bound_to 7965
  154.4311  140.1831  156.1169 H   0  0  0  0  0  0  0  0  0  0  0  0  # atno 8008 bound_to 7997
  156.0174  140.3344  155.6977 H   0  0  0  0  0  0  0  0  0  0  0  0  # atno 8009 bound_to 7997
  155.6025  140.0642  157.2719 H   0  0  0  0  0  0  0  0  0  0  0  0  # atno 8010 bound_to 7997
  140.4015  143.2661  151.9137 H   0  0  0  0  0  0  0  0  0  0  0  0  # atno 10167 bound_to 10162
  156.4297  130.8069  151.2296 H   0  0  0  0  0  0  0  0  0  0  0  0  # atno 10718 bound_to 10713
  154.7812  135.3175  154.7984 H   0  0  0  0  0  0  0  0  0  0  0  0  # atno 10763 bound_to 10752
  153.8695  135.6845  153.4780 H   0  0  0  0  0  0  0  0  0  0  0  0  # atno 10764 bound_to 10752
  153.1450  135.4723  154.9489 H   0  0  0  0  0  0  0  0  0  0  0  0  # atno 10765 bound_to 10752
  139.8886  134.9489  156.6310 H   0  0  0  0  0  0  0  0  0  0  0  0  # atno 11005 bound_to 11000
  146.3463  140.1904  142.8589 LP  0  0  0  0  0  0  0  0  0  0  0  0  # atno 17320 bound_to 7965
  145.0197  140.8784  143.5174 LP  0  0  0  0  0  0  0  0  0  0  0  0  # atno 17321 bound_to 7965
  139.4784  144.5629  151.8211 LP  0  0  0  0  0  0  0  0  0  0  0  0  # atno 17342 bound_to 10162
  140.4735  144.1553  150.5921 LP  0  0  0  0  0  0  0  0  0  0  0  0  # atno 17343 bound_to 10162
  157.7508  131.0202  150.3699 LP  0  0  0  0  0  0  0  0  0  0  0  0  # atno 17370 bound_to 10713
  156.4034  130.3920  149.6943 LP  0  0  0  0  0  0  0  0  0  0  0  0  # atno 17371 bound_to 10713
  140.7666  133.8773  155.8459 LP  0  0  0  0  0  0  0  0  0  0  0  0  # atno 17394 bound_to 11000
  140.9877  134.1321  157.4437 LP  0  0  0  0  0  0  0  0  0  0  0  0  # atno 17395 bound_to 11000

$$$$
