AV-unprocessed.smi:2780|AV-procd|sdf|10713|dock2
  -GOLD-   2272015153D 1   1.00000     0.00000
 Structure written by MMmdl.
 47 49  0  0  0  0  0  0  0  0  2 V2000
  145.7221  132.3257  149.9796 C   0  0  0  0  0  0  0  0  0  0  0  0
  144.8002  133.1549  150.8587 C   0  0  0  0  0  0  0  0  0  0  0  0
  143.5064  132.8118  151.0170 C   0  0  0  0  0  0  0  0  0  0  0  0
  142.4917  133.6040  151.8227 C   0  0  0  0  0  0  0  0  0  0  0  0
  143.1197  134.7640  152.6128 C   0  0  0  0  0  0  0  0  0  0  0  0
  144.2567  135.4333  151.8212 C   0  0  1  0  0  0  0  0  0  0  0  0
  144.7368  136.7351  152.4862 C   0  0  0  0  0  0  0  0  0  0  0  0
  145.3894  134.4158  151.5054 C   0  0  1  0  0  0  0  0  0  0  0  0
  146.2690  134.0882  152.7408 C   0  0  0  0  0  0  0  0  0  0  0  0
  147.6210  133.6203  152.3783 N   0  3  0  0  0  0  0  0  0  0  0  0
  148.3382  132.9442  153.4758 C   0  0  0  0  0  0  0  0  0  0  0  0
  149.3725  133.8792  154.1169 C   0  0  0  0  0  0  0  0  0  0  0  0
  149.8538  133.3542  155.3819 N   0  0  0  0  0  0  0  0  0  0  0  0
  150.0396  134.0080  156.5390 C   0  0  0  0  0  0  0  0  0  0  0  0
  150.4829  133.2577  157.5463 N   0  0  0  0  0  0  0  0  0  0  0  0
  150.5955  131.9899  157.0113 N   0  0  0  0  0  0  0  0  0  0  0  0
  150.2244  132.1048  155.7308 C   0  0  0  0  0  0  0  0  0  0  0  0
  150.1649  130.9520  154.7797 C   0  0  0  0  0  0  0  0  0  0  0  0
  149.1848  129.8173  154.9811 C   0  0  0  0  0  0  0  0  0  0  0  0
  150.6584  129.5803  155.1843 C   0  0  0  0  0  0  0  0  0  0  0  0
  146.2651  132.9655  149.2837 H   0  0  0  0  0  0  0  0  0  0  0  0
  145.1553  131.6041  149.3902 H   0  0  0  0  0  0  0  0  0  0  0  0
  146.4415  131.7626  150.5716 H   0  0  0  0  0  0  0  0  0  0  0  0
  143.1230  131.9311  150.5219 H   0  0  0  0  0  0  0  0  0  0  0  0
  141.7548  133.9964  151.1212 H   0  0  0  0  0  0  0  0  0  0  0  0
  141.9581  132.9343  152.4975 H   0  0  0  0  0  0  0  0  0  0  0  0
  142.3457  135.4915  152.8604 H   0  0  0  0  0  0  0  0  0  0  0  0
  143.5006  134.3952  153.5654 H   0  0  0  0  0  0  0  0  0  0  0  0
  143.8342  135.7355  150.8609 H   0  0  0  0  0  0  0  0  0  0  0  0
  145.0453  136.5775  153.5195 H   0  0  0  0  0  0  0  0  0  0  0  0
  143.9381  137.4771  152.5014 H   0  0  0  0  0  0  0  0  0  0  0  0
  145.5758  137.1701  151.9425 H   0  0  0  0  0  0  0  0  0  0  0  0
  146.0291  134.8888  150.7588 H   0  0  0  0  0  0  0  0  0  0  0  0
  146.3993  134.9721  153.3637 H   0  0  0  0  0  0  0  0  0  0  0  0
  145.7865  133.3311  153.3598 H   0  0  0  0  0  0  0  0  0  0  0  0
  147.5380  132.9778  151.6031 H   0  0  0  0  0  0  0  0  0  0  0  0
  147.6158  132.6144  154.2230 H   0  0  0  0  0  0  0  0  0  0  0  0
  148.8299  132.0509  153.0878 H   0  0  0  0  0  0  0  0  0  0  0  0
  150.2285  134.0116  153.4538 H   0  0  0  0  0  0  0  0  0  0  0  0
  148.9464  134.8696  154.2796 H   0  0  0  0  0  0  0  0  0  0  0  0
  149.8422  135.0643  156.6494 H   0  0  0  0  0  0  0  0  0  0  0  0
  150.3570  131.2837  153.7612 H   0  0  0  0  0  0  0  0  0  0  0  0
  148.5544  129.8400  155.8679 H   0  0  0  0  0  0  0  0  0  0  0  0
  148.7240  129.3895  154.0930 H   0  0  0  0  0  0  0  0  0  0  0  0
  151.1829  128.9942  154.4327 H   0  0  0  0  0  0  0  0  0  0  0  0
  151.0000  129.4402  156.2077 H   0  0  0  0  0  0  0  0  0  0  0  0
  148.1659  134.4169  152.0801 H   0  0  0  0  0  0  0  0  0  0  0  0
  1  2  1  0  0  0  0
  1 21  1  0  0  0  0
  1 22  1  0  0  0  0
  1 23  1  0  0  0  0
  2  8  1  0  0  0  0
  2  3  2  0  0  0  0
  3  4  1  0  0  0  0
  3 24  1  0  0  0  0
  4  5  1  0  0  0  0
  4 25  1  0  0  0  0
  4 26  1  0  0  0  0
  5  6  1  0  0  0  0
  5 27  1  0  0  0  0
  5 28  1  0  0  0  0
  6  7  1  0  0  0  0
  6  8  1  0  0  0  0
  6 29  1  0  0  0  0
  7 30  1  0  0  0  0
  7 31  1  0  0  0  0
  7 32  1  0  0  0  0
  8  9  1  0  0  0  0
  8 33  1  0  0  0  0
  9 10  1  0  0  0  0
  9 34  1  0  0  0  0
  9 35  1  0  0  0  0
 10 11  1  0  0  0  0
 10 36  1  0  0  0  0
 10 47  1  0  0  0  0
 11 12  1  0  0  0  0
 11 37  1  0  0  0  0
 11 38  1  0  0  0  0
 12 13  1  0  0  0  0
 12 39  1  0  0  0  0
 12 40  1  0  0  0  0
 13 17  1  0  0  0  0
 13 14  1  0  0  0  0
 14 15  2  0  0  0  0
 14 41  1  0  0  0  0
 15 16  1  0  0  0  0
 16 17  2  0  0  0  0
 17 18  1  0  0  0  0
 18 20  1  0  0  0  0
 18 19  1  0  0  0  0
 18 42  1  0  0  0  0
 19 20  1  0  0  0  0
 19 43  1  0  0  0  0
 19 44  1  0  0  0  0
 20 45  1  0  0  0  0
 20 46  1  0  0  0  0
M  CHG  1  10   1
M  END
> <s_m_source_file>
AV-unprocessed.smi

> <i_m_source_file_index>
2780

> <i_lp_mmshare_version>
43012

> <i_f3d_flags>
0

> <s_epik_input>
W0NIM11DMT1bQ0hdW0NIMl1bQ0gyXVtDQEBIXShbQ0gzXSlbQ0BIXTFbQ0gyXVtOSF1bQ0gyXVtDSDJdbjJbY0hdbm5jMltDSF0zW0NIMl1bQ0gyXTM=

> <s_epik_cmdline>
J2VwaWtfcHl0aG9uJywgJy1waCcsICc3LjAnLCAnLXRuJywgJzgnLCAnLW1hJywgJzIwMCcsICctbWV0YWxfYmluZGluZycsICctaW1hZScsICc8aW5maWxlLm1hZT4nLCAnLW9tYWUnLCAnPG91dGZpbGUubWFlPic=

> <r_lp_tautomer_probability>
1

> <r_epik_Ionization_Penalty>
0.00176214

> <r_epik_Ionization_Penalty_Charging>
0.00175191

> <r_epik_Ionization_Penalty_Neutral>
1.02377e-05

> <r_epik_State_Penalty>
-0

> <r_epik_Charging_Adjusted_Penalty>
0.00175191

> <i_epik_Tot_Q>
1

> <i_epik_Tot_abs_Q>
1

> <r_epik_Metal_State_Penalty>
-0

> <b_epik_Metal_Only>
0

> <s_lp_Force_Field>
OPLS_2005

> <r_lp_Energy>
21.6978

> <b_lp_Chiralities_Consistent>
1

> <s_lp_Variant>
AV-unprocessed.smi:2780-1

> <Gold.Version>
5.8.1

> <Gold.Id.Protein>
6NUR|6NUR_protein|mol2

> <Gold.PLP.Fitness>
43.7930

> <Gold.PLP.PLP>
-38.3035

> <Gold.PLP.part.hbond>
-2.0000

> <Gold.PLP.part.metal>
0.0000

> <Gold.PLP.part.buried>
-2.5980

> <Gold.PLP.part.nonpolar>
-32.6283

> <Gold.PLP.part.repulsive>
0.0240

> <Gold.PLP.ligand.clash>
0.0000

> <Gold.PLP.ligand.torsion>
0.9054

> <Gold.PLP.Chemscore.Hbond>
2.3000

> <Gold.PLP.Chemscore.CHOScore>
0.0000

> <Gold.PLP.Chemscore.Metal>
0.0000

> <Gold.Chemscore.Hbonds>
donor molecule, donor type, donor heavy atom, donor atom, acceptor molecule, acceptor atom, score
      L1  H    10    47       P1  7948  1.40
      P1  H  6896  6907       L1    15  1.00

> <Gold.PLP.Chemscore.Internal.Correction>
0.4003

> <Gold.Rescore>
     Score         DG    S(hbond)    S(metal)    S(lipo)     H(rot)  DE(clash)    DE(int)     intcor
     12.24     -13.35       0.98        0.00      82.76       1.98       0.24       0.87       ----

> <Gold.Chemscore.Fitness>
12.2365

> <Gold.Chemscore.DG>
-13.3516

> <Gold.Chemscore.ZeroCoef>
-5.4800

> <Gold.Chemscore.Hbond>
0.9752

> <Gold.Chemscore.Metal>
0.0000

> <Gold.Chemscore.Lipo>
82.7610

> <Gold.Chemscore.Internal_Hbond>
0.0000

> <Gold.Chemscore.DEClash>
0.2408

> <Gold.Chemscore.DEInternal>
0.8743

> <Gold.Chemscore.Rot>
1.9799

> <Gold.Chemscore.Internal.Correction>
   9.000000E+99

> <Gold.Chemscore.Hbonds>
donor molecule, donor type, donor heavy atom, donor atom, acceptor molecule, acceptor atom, score
      L1  H    10    47       P1  7948  0.07
      P1  H  6896  6907       L1    15  0.94

> <Gold.Chemscore.Hbond.Weighted>
-3.2571

> <Gold.Chemscore.Metal.Weighted>
-0.0000

> <Gold.Chemscore.Lipo.Weighted>
-9.6830

> <Gold.Chemscore.Internal_Hbond.Weighted>
0.0000

> <Gold.Chemscore.DEClash.Weighted>
0.2408

> <Gold.Chemscore.DEInternal.Weighted>
0.8743

> <Gold.Chemscore.Rot.Weighted>
5.0685

> <Gold.Chemscore.Internal.Correction.Weighted>
   9.000000E+99

> <Gold.Protein.RotatedTorsions>
[ 6907 6896 6895 6894 ] final -139.79 input  -60.11 | X-H torsion
[ 7974 7965 7964 7962 ] final   73.31 input  175.53 | X-H torsion
[ 8008 7997 7996 7995 ] final  168.84 input   59.86 | X-H torsion
[ 10167 10162 10161 10158 ] final   64.89 input  -65.29 | X-H torsion
[ 10718 10713 10712 10709 ] final -175.53 input   66.30 | X-H torsion
[ 10763 10752 10751 10750 ] final   15.16 input  -60.55 | X-H torsion
[ 11005 11000 10999 10996 ] final -115.36 input  -57.11 | X-H torsion

> <Gold.Protein.ActiveResidues>
 VAL166  LYS551  ARG553  GLY616  TRP617  ASP618  TYR619  PRO620  LYS621  CYS622 
 ASP623  PHE694  ASN695  SER759  ASP760  ASP761  ALA762  ILE779  LEU786  VAL792 
 PHE793  MET794  SER795  GLU796  ALA797  LYS798  CYS799  TRP800  GLU811  SER814 

> <Gold.Protein.RotatedAtoms>
  151.0524  133.5613  159.2640 H   0  0  0  0  0  0  0  0  0  0  0  0  # atno 6907 bound_to 6896
  151.2619  135.0656  159.9111 H   0  0  0  0  0  0  0  0  0  0  0  0  # atno 6908 bound_to 6896
  152.5384  134.0268  159.8060 H   0  0  0  0  0  0  0  0  0  0  0  0  # atno 6909 bound_to 6896
  145.7424  139.2726  143.1478 H   0  0  0  0  0  0  0  0  0  0  0  0  # atno 7974 bound_to 7965
  156.1511  140.1580  156.8768 H   0  0  0  0  0  0  0  0  0  0  0  0  # atno 8008 bound_to 7997
  154.5072  140.0810  156.7955 H   0  0  0  0  0  0  0  0  0  0  0  0  # atno 8009 bound_to 7997
  155.3894  140.3409  155.4253 H   0  0  0  0  0  0  0  0  0  0  0  0  # atno 8010 bound_to 7997
  140.1173  144.4764  150.6942 H   0  0  0  0  0  0  0  0  0  0  0  0  # atno 10167 bound_to 10162
  156.8012  130.9553  151.3118 H   0  0  0  0  0  0  0  0  0  0  0  0  # atno 10718 bound_to 10713
  153.1552  135.6786  153.8823 H   0  0  0  0  0  0  0  0  0  0  0  0  # atno 10763 bound_to 10752
  153.8236  135.3127  155.3413 H   0  0  0  0  0  0  0  0  0  0  0  0  # atno 10764 bound_to 10752
  154.7892  135.4844  154.0102 H   0  0  0  0  0  0  0  0  0  0  0  0  # atno 10765 bound_to 10752
  141.0493  133.9713  157.2864 H   0  0  0  0  0  0  0  0  0  0  0  0  # atno 11005 bound_to 11000
  146.0435  140.8142  142.9817 LP  0  0  0  0  0  0  0  0  0  0  0  0  # atno 17320 bound_to 7965
  144.6867  140.2945  143.7273 LP  0  0  0  0  0  0  0  0  0  0  0  0  # atno 17321 bound_to 7965
  140.6892  143.2366  151.5177 LP  0  0  0  0  0  0  0  0  0  0  0  0  # atno 17342 bound_to 10162
  139.5587  144.2210  152.1656 LP  0  0  0  0  0  0  0  0  0  0  0  0  # atno 17343 bound_to 10162
  157.6553  130.8919  149.9716 LP  0  0  0  0  0  0  0  0  0  0  0  0  # atno 17370 bound_to 10713
  156.1100  130.3650  150.0066 LP  0  0  0  0  0  0  0  0  0  0  0  0  # atno 17371 bound_to 10713
  139.9337  135.0198  156.8485 LP  0  0  0  0  0  0  0  0  0  0  0  0  # atno 17394 bound_to 11000
  140.6087  134.0103  155.7567 LP  0  0  0  0  0  0  0  0  0  0  0  0  # atno 17395 bound_to 11000

$$$$
