AV-unprocessed.smi:1384|AV-procd|sdf|5626|dock5
  -GOLD-   22720 5243D 1   1.00000     0.00000
 Structure written by MMmdl.
 41 42  0  0  0  0  0  0  0  0  1 V2000
  146.3616  139.1176  152.4058 C   0  0  0  0  0  0  0  0  0  0  0  0
  147.3602  140.0292  153.1331 C   0  0  2  0  0  0  0  0  0  0  0  0
  148.3026  139.2210  154.0449 C   0  0  0  0  0  0  0  0  0  0  0  0
  149.3036  140.1316  154.7741 C   0  0  0  0  0  0  0  0  0  0  0  0
  148.5836  141.2315  155.5810 C   0  0  1  0  0  0  0  0  0  0  0  0
  149.5491  142.1352  156.1991 N   0  0  0  0  0  0  0  0  0  0  0  0
  150.4386  141.7968  157.1445 C   0  0  0  0  0  0  0  0  0  0  0  0
  150.5428  140.6551  157.5953 O   0  0  0  0  0  0  0  0  0  0  0  0
  151.3535  142.9294  157.6332 C   0  0  0  0  0  0  0  0  0  0  0  0
  152.0520  142.6253  158.8942 N   0  0  0  0  0  0  0  0  0  0  0  0
  151.8648  143.5272  159.9568 C   0  0  0  0  0  0  0  0  0  0  0  0
  152.4499  143.3452  161.1481 C   0  0  0  0  0  0  0  0  0  0  0  0
  153.2872  142.1843  161.3262 C   0  0  0  0  0  0  0  0  0  0  0  0
  153.4926  141.3028  160.3203 C   0  0  0  0  0  0  0  0  0  0  0  0
  154.3664  140.0629  160.4968 C   0  0  0  0  0  0  0  0  0  0  0  0
  153.6620  138.9528  160.2730 F   0  0  0  0  0  0  0  0  0  0  0  0
  155.3883  140.0877  159.6410 F   0  0  0  0  0  0  0  0  0  0  0  0
  154.8682  139.9826  161.7301 F   0  0  0  0  0  0  0  0  0  0  0  0
  152.8493  141.5179  159.0079 C   0  0  0  0  0  0  0  0  0  0  0  0
  153.0138  140.7496  158.0587 O   0  0  0  0  0  0  0  0  0  0  0  0
  147.6359  142.0368  154.6733 C   0  0  0  0  0  0  0  0  0  0  0  0
  146.6386  141.1224  153.9437 C   0  0  0  0  0  0  0  0  0  0  0  0
  145.7200  138.5885  153.1111 H   0  0  0  0  0  0  0  0  0  0  0  0
  146.8793  138.3718  151.8018 H   0  0  0  0  0  0  0  0  0  0  0  0
  145.7196  139.6931  151.7385 H   0  0  0  0  0  0  0  0  0  0  0  0
  147.9688  140.5211  152.3727 H   0  0  0  0  0  0  0  0  0  0  0  0
  147.7186  138.6640  154.7786 H   0  0  0  0  0  0  0  0  0  0  0  0
  148.8460  138.4800  153.4575 H   0  0  0  0  0  0  0  0  0  0  0  0
  149.9296  139.5281  155.4324 H   0  0  0  0  0  0  0  0  0  0  0  0
  149.9742  140.5879  154.0444 H   0  0  0  0  0  0  0  0  0  0  0  0
  147.9860  140.7620  156.3651 H   0  0  0  0  0  0  0  0  0  0  0  0
  149.5363  143.0950  155.8854 H   0  0  0  0  0  0  0  0  0  0  0  0
  152.0742  143.1477  156.8436 H   0  0  0  0  0  0  0  0  0  0  0  0
  150.7646  143.8426  157.7386 H   0  0  0  0  0  0  0  0  0  0  0  0
  151.2274  144.3721  159.7390 H   0  0  0  0  0  0  0  0  0  0  0  0
  152.2997  144.0495  161.9531 H   0  0  0  0  0  0  0  0  0  0  0  0
  153.7506  142.0298  162.2889 H   0  0  0  0  0  0  0  0  0  0  0  0
  147.0913  142.7753  155.2630 H   0  0  0  0  0  0  0  0  0  0  0  0
  148.2154  142.5959  153.9372 H   0  0  0  0  0  0  0  0  0  0  0  0
  146.0107  141.7222  153.2839 H   0  0  0  0  0  0  0  0  0  0  0  0
  145.9690  140.6619  154.6715 H   0  0  0  0  0  0  0  0  0  0  0  0
  1  2  1  0  0  0  0
  1 23  1  0  0  0  0
  1 24  1  0  0  0  0
  1 25  1  0  0  0  0
  2 22  1  0  0  0  0
  2  3  1  0  0  0  0
  2 26  1  0  0  0  0
  3  4  1  0  0  0  0
  3 27  1  0  0  0  0
  3 28  1  0  0  0  0
  4  5  1  0  0  0  0
  4 29  1  0  0  0  0
  4 30  1  0  0  0  0
  5  6  1  0  0  0  0
  5 21  1  0  0  0  0
  5 31  1  0  0  0  0
  6  7  1  0  0  0  0
  6 32  1  0  0  0  0
  7  8  2  0  0  0  0
  7  9  1  0  0  0  0
  9 10  1  0  0  0  0
  9 33  1  0  0  0  0
  9 34  1  0  0  0  0
 10 19  1  0  0  0  0
 10 11  1  0  0  0  0
 11 12  2  0  0  0  0
 11 35  1  0  0  0  0
 12 13  1  0  0  0  0
 12 36  1  0  0  0  0
 13 14  2  0  0  0  0
 13 37  1  0  0  0  0
 14 15  1  0  0  0  0
 14 19  1  0  0  0  0
 15 16  1  0  0  0  0
 15 17  1  0  0  0  0
 15 18  1  0  0  0  0
 19 20  2  0  0  0  0
 21 22  1  0  0  0  0
 21 38  1  0  0  0  0
 21 39  1  0  0  0  0
 22 40  1  0  0  0  0
 22 41  1  0  0  0  0
M  END
> <s_m_source_file>
AV-unprocessed.smi

> <i_m_source_file_index>
1384

> <i_lp_mmshare_version>
43012

> <i_f3d_flags>
0

> <s_epik_input>
W0NIM11bQ0BASF0xW0NIMl1bQ0gyXVtDQEhdKFtDSDJdW0NIMl0xKVtOSF1DKD1PKVtDSDJdbjJbY0hdW2NIXVtjSF1jKEMoRikoRilGKWMyPU8=

> <s_epik_cmdline>
J2VwaWtfcHl0aG9uJywgJy1waCcsICc3LjAnLCAnLXRuJywgJzgnLCAnLW1hJywgJzIwMCcsICctbWV0YWxfYmluZGluZycsICctaW1hZScsICc8aW5maWxlLm1hZT4nLCAnLW9tYWUnLCAnPG91dGZpbGUubWFlPic=

> <r_lp_tautomer_probability>
1

> <r_epik_Ionization_Penalty>
2.11165e-08

> <r_epik_Ionization_Penalty_Charging>
2.06965e-09

> <r_epik_Ionization_Penalty_Neutral>
1.90469e-08

> <r_epik_State_Penalty>
-0

> <r_epik_Charging_Adjusted_Penalty>
2.06965e-09

> <i_epik_Tot_Q>
0

> <i_epik_Tot_abs_Q>
0

> <r_epik_Metal_State_Penalty>
-0

> <b_epik_Metal_Only>
0

> <s_lp_Force_Field>
OPLS_2005

> <r_lp_Energy>
18.7612

> <b_lp_Chiralities_Consistent>
1

> <s_lp_Variant>
AV-unprocessed.smi:1384-1

> <Gold.Version>
5.8.1

> <Gold.Id.Protein>
6NUR|6NUR_protein|mol2

> <Gold.PLP.Fitness>
51.4070

> <Gold.PLP.PLP>
-46.8800

> <Gold.PLP.part.hbond>
-2.0000

> <Gold.PLP.part.metal>
0.0000

> <Gold.PLP.part.buried>
0.6548

> <Gold.PLP.part.nonpolar>
-45.7379

> <Gold.PLP.part.repulsive>
0.0830

> <Gold.PLP.ligand.clash>
0.3453

> <Gold.PLP.ligand.torsion>
0.2515

> <Gold.PLP.Chemscore.Hbond>
1.6720

> <Gold.PLP.Chemscore.CHOScore>
0.0000

> <Gold.PLP.Chemscore.Metal>
0.0000

> <Gold.Chemscore.Hbonds>
donor molecule, donor type, donor heavy atom, donor atom, acceptor molecule, acceptor atom, score
      L1  H     6    32       P1  8028  1.00
      P1  H  7997  8008       L1    20  0.62

> <Gold.PLP.Chemscore.Internal.Correction>
0.3593

> <Gold.Rescore>
     Score         DG    S(hbond)    S(metal)    S(lipo)     H(rot)  DE(clash)    DE(int)     intcor
     10.88     -19.29       1.49        0.00     108.74       1.52       1.58       6.83       ----

> <Gold.Chemscore.Fitness>
10.8780

> <Gold.Chemscore.DG>
-19.2907

> <Gold.Chemscore.ZeroCoef>
-5.4800

> <Gold.Chemscore.Hbond>
1.4939

> <Gold.Chemscore.Metal>
0.0000

> <Gold.Chemscore.Lipo>
108.7425

> <Gold.Chemscore.Internal_Hbond>
0.0000

> <Gold.Chemscore.DEClash>
1.5841

> <Gold.Chemscore.DEInternal>
6.8286

> <Gold.Chemscore.Rot>
1.5242

> <Gold.Chemscore.Internal.Correction>
   9.000000E+99

> <Gold.Chemscore.Hbonds>
donor molecule, donor type, donor heavy atom, donor atom, acceptor molecule, acceptor atom, score
      L1  H     6    32       P1  8028  0.99
      P1  H  7997  8008       L1    20  0.59

> <Gold.Chemscore.Hbond.Weighted>
-4.9897

> <Gold.Chemscore.Metal.Weighted>
-0.0000

> <Gold.Chemscore.Lipo.Weighted>
-12.7229

> <Gold.Chemscore.Internal_Hbond.Weighted>
0.0000

> <Gold.Chemscore.DEClash.Weighted>
1.5841

> <Gold.Chemscore.DEInternal.Weighted>
6.8286

> <Gold.Chemscore.Rot.Weighted>
3.9019

> <Gold.Chemscore.Internal.Correction.Weighted>
   9.000000E+99

> <Gold.Protein.RotatedTorsions>
[ 6907 6896 6895 6894 ] final  -16.59 input  -60.11 | X-H torsion
[ 7974 7965 7964 7962 ] final  132.26 input  175.53 | X-H torsion
[ 8008 7997 7996 7995 ] final  -89.40 input   59.86 | X-H torsion
[ 10167 10162 10161 10158 ] final  113.26 input  -65.29 | X-H torsion
[ 10718 10713 10712 10709 ] final  135.41 input   66.30 | X-H torsion
[ 10763 10752 10751 10750 ] final   50.25 input  -60.55 | X-H torsion
[ 11005 11000 10999 10996 ] final  115.73 input  -57.11 | X-H torsion

> <Gold.Protein.ActiveResidues>
 VAL166  LYS551  ARG553  GLY616  TRP617  ASP618  TYR619  PRO620  LYS621  CYS622 
 ASP623  PHE694  ASN695  SER759  ASP760  ASP761  ALA762  ILE779  LEU786  VAL792 
 PHE793  MET794  SER795  GLU796  ALA797  LYS798  CYS799  TRP800  GLU811  SER814 

> <Gold.Protein.RotatedAtoms>
  151.3062  135.0782  159.9255 H   0  0  0  0  0  0  0  0  0  0  0  0  # atno 6907 bound_to 6896
  152.5287  133.9782  159.7804 H   0  0  0  0  0  0  0  0  0  0  0  0  # atno 6908 bound_to 6896
  151.0078  133.5943  159.2717 H   0  0  0  0  0  0  0  0  0  0  0  0  # atno 6909 bound_to 6896
  144.9986  139.4334  143.5303 H   0  0  0  0  0  0  0  0  0  0  0  0  # atno 7974 bound_to 7965
  154.6861  140.0542  157.0316 H   0  0  0  0  0  0  0  0  0  0  0  0  # atno 8008 bound_to 7997
  155.0882  140.3216  155.4562 H   0  0  0  0  0  0  0  0  0  0  0  0  # atno 8009 bound_to 7997
  156.2712  140.2052  156.6009 H   0  0  0  0  0  0  0  0  0  0  0  0  # atno 8010 bound_to 7997
  139.6474  144.7127  151.2115 H   0  0  0  0  0  0  0  0  0  0  0  0  # atno 10167 bound_to 10162
  157.4573  131.1071  150.9962 H   0  0  0  0  0  0  0  0  0  0  0  0  # atno 10718 bound_to 10713
  152.9785  135.5885  154.4222 H   0  0  0  0  0  0  0  0  0  0  0  0  # atno 10763 bound_to 10752
  154.3845  135.2767  155.2193 H   0  0  0  0  0  0  0  0  0  0  0  0  # atno 10764 bound_to 10752
  154.4092  135.6085  153.5997 H   0  0  0  0  0  0  0  0  0  0  0  0  # atno 10765 bound_to 10752
  139.9019  134.9588  156.7090 H   0  0  0  0  0  0  0  0  0  0  0  0  # atno 11005 bound_to 11000
  146.3447  139.9361  142.8747 LP  0  0  0  0  0  0  0  0  0  0  0  0  # atno 17320 bound_to 7965
  145.2184  140.9925  143.4060 LP  0  0  0  0  0  0  0  0  0  0  0  0  # atno 17321 bound_to 7965
  140.7521  143.6207  150.8516 LP  0  0  0  0  0  0  0  0  0  0  0  0  # atno 17342 bound_to 10162
  139.9852  143.5908  152.2929 LP  0  0  0  0  0  0  0  0  0  0  0  0  # atno 17343 bound_to 10162
  157.0771  130.5888  149.5413 LP  0  0  0  0  0  0  0  0  0  0  0  0  # atno 17370 bound_to 10713
  156.0013  130.5092  150.7673 LP  0  0  0  0  0  0  0  0  0  0  0  0  # atno 17371 bound_to 10713
  140.7091  133.9239  155.8072 LP  0  0  0  0  0  0  0  0  0  0  0  0  # atno 17394 bound_to 11000
  141.0314  134.0750  157.4009 LP  0  0  0  0  0  0  0  0  0  0  0  0  # atno 17395 bound_to 11000

$$$$
