AV-unprocessed.smi:3303|AV-procd|sdf|12680|dock7
  -GOLD-   2272019 13D 1   1.00000     0.00000
 Structure written by MMmdl.
 44 45  0  0  0  0  0  0  0  0  2 V2000
  148.4774  141.8629  154.6786 C   0  0  0  0  0  0  0  0  0  0  0  0
  149.4220  140.9257  155.4507 C   0  0  1  0  0  0  0  0  0  0  0  0
  149.7762  139.7005  154.5852 C   0  0  0  0  0  0  0  0  0  0  0  0
  150.6383  138.7607  155.3068 N   0  0  0  0  0  0  0  0  0  0  0  0
  150.8200  137.5936  154.4475 C   0  0  0  0  0  0  0  0  0  0  0  0
  151.9202  139.4020  155.6457 C   0  0  2  0  0  0  0  0  0  0  0  0
  152.8864  138.4323  156.3566 C   0  0  0  0  0  0  0  0  0  0  0  0
  151.6489  140.6169  156.5579 C   0  0  0  0  0  0  0  0  0  0  0  0
  150.7117  141.6391  155.9001 C   0  0  2  0  0  0  0  0  0  0  0  0
  150.4100  142.7251  156.8594 N   0  3  0  0  0  0  0  0  0  0  0  0
  151.5622  143.5784  157.2120 C   0  0  0  0  0  0  0  0  0  0  0  0
  151.2704  144.4034  158.4728 C   0  0  0  0  0  0  0  0  0  0  0  0
  151.8056  143.7425  159.7287 C   0  0  0  0  0  0  0  0  0  0  0  0
  151.6687  144.3672  160.9866 C   0  0  0  0  0  0  0  0  0  0  0  0
  152.1894  143.7132  162.1202 C   0  0  0  0  0  0  0  0  0  0  0  0
  152.8234  142.4671  161.9528 C   0  0  0  0  0  0  0  0  0  0  0  0
  152.9099  141.9280  160.6537 C   0  0  0  0  0  0  0  0  0  0  0  0
  152.4162  142.5482  159.5597 N   0  0  0  0  0  0  0  0  0  0  0  0
  148.9619  142.2711  153.7909 H   0  0  0  0  0  0  0  0  0  0  0  0
  148.1503  142.7007  155.2946 H   0  0  0  0  0  0  0  0  0  0  0  0
  147.5818  141.3333  154.3528 H   0  0  0  0  0  0  0  0  0  0  0  0
  148.8912  140.5700  156.3358 H   0  0  0  0  0  0  0  0  0  0  0  0
  148.8538  139.1928  154.2992 H   0  0  0  0  0  0  0  0  0  0  0  0
  150.2622  140.0170  153.6604 H   0  0  0  0  0  0  0  0  0  0  0  0
  151.3443  136.7930  154.9683 H   0  0  0  0  0  0  0  0  0  0  0  0
  151.3808  137.8458  153.5463 H   0  0  0  0  0  0  0  0  0  0  0  0
  149.8553  137.1853  154.1437 H   0  0  0  0  0  0  0  0  0  0  0  0
  152.3957  139.7499  154.7268 H   0  0  0  0  0  0  0  0  0  0  0  0
  153.7722  138.9593  156.7122 H   0  0  0  0  0  0  0  0  0  0  0  0
  153.2432  137.6452  155.6927 H   0  0  0  0  0  0  0  0  0  0  0  0
  152.4161  137.9611  157.2204 H   0  0  0  0  0  0  0  0  0  0  0  0
  151.2190  140.2742  157.5009 H   0  0  0  0  0  0  0  0  0  0  0  0
  152.5918  141.1039  156.8109 H   0  0  0  0  0  0  0  0  0  0  0  0
  151.2142  142.0475  155.0211 H   0  0  0  0  0  0  0  0  0  0  0  0
  149.6912  143.3090  156.4563 H   0  0  0  0  0  0  0  0  0  0  0  0
  152.4382  142.9474  157.3676 H   0  0  0  0  0  0  0  0  0  0  0  0
  151.7857  144.2448  156.3776 H   0  0  0  0  0  0  0  0  0  0  0  0
  151.7098  145.3975  158.3779 H   0  0  0  0  0  0  0  0  0  0  0  0
  150.1952  144.5522  158.5830 H   0  0  0  0  0  0  0  0  0  0  0  0
  151.1777  145.3244  161.0840 H   0  0  0  0  0  0  0  0  0  0  0  0
  152.1045  144.1597  163.1000 H   0  0  0  0  0  0  0  0  0  0  0  0
  153.2335  141.9369  162.7997 H   0  0  0  0  0  0  0  0  0  0  0  0
  153.3894  140.9744  160.4887 H   0  0  0  0  0  0  0  0  0  0  0  0
  150.0473  142.3109  157.7063 H   0  0  0  0  0  0  0  0  0  0  0  0
  1  2  1  0  0  0  0
  1 19  1  0  0  0  0
  1 20  1  0  0  0  0
  1 21  1  0  0  0  0
  2  9  1  0  0  0  0
  2  3  1  0  0  0  0
  2 22  1  0  0  0  0
  3  4  1  0  0  0  0
  3 23  1  0  0  0  0
  3 24  1  0  0  0  0
  4  5  1  0  0  0  0
  4  6  1  0  0  0  0
  5 25  1  0  0  0  0
  5 26  1  0  0  0  0
  5 27  1  0  0  0  0
  6  7  1  0  0  0  0
  6  8  1  0  0  0  0
  6 28  1  0  0  0  0
  7 29  1  0  0  0  0
  7 30  1  0  0  0  0
  7 31  1  0  0  0  0
  8  9  1  0  0  0  0
  8 32  1  0  0  0  0
  8 33  1  0  0  0  0
  9 10  1  0  0  0  0
  9 34  1  0  0  0  0
 10 11  1  0  0  0  0
 10 35  1  0  0  0  0
 10 44  1  0  0  0  0
 11 12  1  0  0  0  0
 11 36  1  0  0  0  0
 11 37  1  0  0  0  0
 12 13  1  0  0  0  0
 12 38  1  0  0  0  0
 12 39  1  0  0  0  0
 13 18  1  0  0  0  0
 13 14  2  0  0  0  0
 14 15  1  0  0  0  0
 14 40  1  0  0  0  0
 15 16  2  0  0  0  0
 15 41  1  0  0  0  0
 16 17  1  0  0  0  0
 16 42  1  0  0  0  0
 17 18  2  0  0  0  0
 17 43  1  0  0  0  0
M  CHG  1  10   1
M  END
> <s_m_source_file>
AV-unprocessed.smi

> <i_m_source_file_index>
3303

> <i_lp_mmshare_version>
43012

> <i_f3d_flags>
0

> <s_epik_input>
W0NIM11bQ0BASF0xW0NIMl1OKFtDSDNdKVtDQEBIXShbQ0gzXSlbQ0gyXVtDQEhdMVtOSF1bQ0gyXVtDSDJdYzJbY0hdW2NIXVtjSF1bY0hdbjI=

> <s_epik_cmdline>
J2VwaWtfcHl0aG9uJywgJy1waCcsICc3LjAnLCAnLXRuJywgJzgnLCAnLW1hJywgJzIwMCcsICctbWV0YWxfYmluZGluZycsICctaW1hZScsICc8aW5maWxlLm1hZT4nLCAnLW9tYWUnLCAnPG91dGZpbGUubWFlPic=

> <r_epik_Ionization_Penalty>
1.37325

> <r_epik_Ionization_Penalty_Charging>
0.000251572

> <r_epik_Ionization_Penalty_Neutral>
1.373

> <r_epik_State_Penalty>
1.46343

> <r_epik_Charging_Adjusted_Penalty>
1.46368

> <i_epik_Tot_Q>
1

> <i_epik_Tot_abs_Q>
1

> <r_epik_Metal_State_Penalty>
1.46331

> <b_epik_Metal_Only>
0

> <s_lp_Force_Field>
OPLS_2005

> <r_lp_Energy>
21.6133

> <b_lp_Chiralities_Consistent>
1

> <s_lp_Variant>
AV-unprocessed.smi:3303-24

> <Gold.Version>
5.8.1

> <Gold.Id.Protein>
6NUR|6NUR_protein|mol2

> <Gold.PLP.Fitness>
51.4202

> <Gold.PLP.PLP>
-46.0778

> <Gold.PLP.part.hbond>
-1.0000

> <Gold.PLP.part.metal>
0.0000

> <Gold.PLP.part.buried>
-4.4726

> <Gold.PLP.part.nonpolar>
-40.8973

> <Gold.PLP.part.repulsive>
0.0954

> <Gold.PLP.ligand.clash>
0.0000

> <Gold.PLP.ligand.torsion>
0.3316

> <Gold.PLP.Chemscore.Hbond>
2.0000

> <Gold.PLP.Chemscore.CHOScore>
0.0000

> <Gold.PLP.Chemscore.Metal>
0.0000

> <Gold.Chemscore.Hbonds>
donor molecule, donor type, donor heavy atom, donor atom, acceptor molecule, acceptor atom, score
      L1  H    10    35       P1  8028  2.00

> <Gold.PLP.Chemscore.Internal.Correction>
0.0055

> <Gold.Rescore>
     Score         DG    S(hbond)    S(metal)    S(lipo)     H(rot)  DE(clash)    DE(int)     intcor
     20.02     -22.04       1.00        0.00     142.07       1.33       1.66       0.35       ----

> <Gold.Chemscore.Fitness>
20.0209

> <Gold.Chemscore.DG>
-22.0370

> <Gold.Chemscore.ZeroCoef>
-5.4800

> <Gold.Chemscore.Hbond>
0.9997

> <Gold.Chemscore.Metal>
0.0000

> <Gold.Chemscore.Lipo>
142.0715

> <Gold.Chemscore.Internal_Hbond>
0.0000

> <Gold.Chemscore.DEClash>
1.6634

> <Gold.Chemscore.DEInternal>
0.3528

> <Gold.Chemscore.Rot>
1.3298

> <Gold.Chemscore.Internal.Correction>
   9.000000E+99

> <Gold.Chemscore.Hbonds>
donor molecule, donor type, donor heavy atom, donor atom, acceptor molecule, acceptor atom, score
      L1  H    10    35       P1  8028  1.00

> <Gold.Chemscore.Hbond.Weighted>
-3.3390

> <Gold.Chemscore.Metal.Weighted>
-0.0000

> <Gold.Chemscore.Lipo.Weighted>
-16.6224

> <Gold.Chemscore.Internal_Hbond.Weighted>
0.0000

> <Gold.Chemscore.DEClash.Weighted>
1.6634

> <Gold.Chemscore.DEInternal.Weighted>
0.3528

> <Gold.Chemscore.Rot.Weighted>
3.4043

> <Gold.Chemscore.Internal.Correction.Weighted>
   9.000000E+99

> <Gold.Protein.RotatedTorsions>
[ 6907 6896 6895 6894 ] final   22.42 input  -60.11 | X-H torsion
[ 7974 7965 7964 7962 ] final  159.13 input  175.53 | X-H torsion
[ 8008 7997 7996 7995 ] final   -1.77 input   59.86 | X-H torsion
[ 10167 10162 10161 10158 ] final  153.95 input  -65.29 | X-H torsion
[ 10718 10713 10712 10709 ] final  168.27 input   66.30 | X-H torsion
[ 10763 10752 10751 10750 ] final  148.58 input  -60.55 | X-H torsion
[ 11005 11000 10999 10996 ] final  106.01 input  -57.11 | X-H torsion

> <Gold.Protein.ActiveResidues>
 VAL166  LYS551  ARG553  GLY616  TRP617  ASP618  TYR619  PRO620  LYS621  CYS622 
 ASP623  PHE694  ASN695  SER759  ASP760  ASP761  ALA762  ILE779  LEU786  VAL792 
 PHE793  MET794  SER795  GLU796  ALA797  LYS798  CYS799  TRP800  GLU811  SER814 

> <Gold.Protein.RotatedAtoms>
  151.9269  135.0274  160.0526 H   0  0  0  0  0  0  0  0  0  0  0  0  # atno 6907 bound_to 6896
  152.2152  133.4936  159.5140 H   0  0  0  0  0  0  0  0  0  0  0  0  # atno 6908 bound_to 6896
  150.6986  134.1332  159.4120 H   0  0  0  0  0  0  0  0  0  0  0  0  # atno 6909 bound_to 6896
  144.7807  139.7575  143.6261 H   0  0  0  0  0  0  0  0  0  0  0  0  # atno 7974 bound_to 7965
  154.6431  140.2551  155.7299 H   0  0  0  0  0  0  0  0  0  0  0  0  # atno 8008 bound_to 7997
  156.2539  140.2883  156.0754 H   0  0  0  0  0  0  0  0  0  0  0  0  # atno 8009 bound_to 7997
  155.1566  140.0383  157.2823 H   0  0  0  0  0  0  0  0  0  0  0  0  # atno 8010 bound_to 7997
  139.4825  144.5229  151.7848 H   0  0  0  0  0  0  0  0  0  0  0  0  # atno 10167 bound_to 10162
  157.0395  131.0282  151.2718 H   0  0  0  0  0  0  0  0  0  0  0  0  # atno 10718 bound_to 10713
  154.0571  135.2877  155.3331 H   0  0  0  0  0  0  0  0  0  0  0  0  # atno 10763 bound_to 10752
  154.6832  135.5255  153.8294 H   0  0  0  0  0  0  0  0  0  0  0  0  # atno 10764 bound_to 10752
  153.0537  135.6587  154.0762 H   0  0  0  0  0  0  0  0  0  0  0  0  # atno 10765 bound_to 10752
  139.8809  134.9355  156.5601 H   0  0  0  0  0  0  0  0  0  0  0  0  # atno 11005 bound_to 11000
  146.2013  139.5310  142.9741 LP  0  0  0  0  0  0  0  0  0  0  0  0  # atno 17320 bound_to 7965
  145.6059  141.0348  143.1993 LP  0  0  0  0  0  0  0  0  0  0  0  0  # atno 17321 bound_to 7965
  140.4745  144.1539  150.5923 LP  0  0  0  0  0  0  0  0  0  0  0  0  # atno 17342 bound_to 10162
  140.4346  143.2553  151.9552 LP  0  0  0  0  0  0  0  0  0  0  0  0  # atno 17343 bound_to 10162
  157.5115  130.7942  149.7710 LP  0  0  0  0  0  0  0  0  0  0  0  0  # atno 17370 bound_to 10713
  156.0043  130.3864  150.2490 LP  0  0  0  0  0  0  0  0  0  0  0  0  # atno 17371 bound_to 10713
  140.8176  133.8379  155.8866 LP  0  0  0  0  0  0  0  0  0  0  0  0  # atno 17394 bound_to 11000
  140.9449  134.1854  157.4771 LP  0  0  0  0  0  0  0  0  0  0  0  0  # atno 17395 bound_to 11000

$$$$
