AV-unprocessed.smi:290|AV-procd|sdf|2244|dock8
  -GOLD-   2262022123D 1   1.00000     0.00000
 Structure written by MMmdl.
 59 62  0  0  0  0  0  0  0  0  2 V2000
  150.0166  138.1789  154.3303 C   0  0  0  0  0  0  0  0  0  0  0  0
  149.6905  139.3584  155.2634 C   0  0  1  0  0  0  0  0  0  0  0  0
  150.7916  139.6164  156.1337 O   0  0  0  0  0  0  0  0  0  0  0  0
  151.2478  140.9500  155.9608 C   0  0  0  0  0  0  0  0  0  0  0  0
  150.0104  141.7102  155.5031 C   0  0  0  0  0  0  0  0  0  0  0  0
  149.3255  140.7055  154.5895 C   0  0  1  0  0  0  0  0  0  0  0  0
  149.9177  140.8059  153.3040 O   0  0  0  0  0  0  0  0  0  0  0  0
  147.8060  140.9692  154.4540 C   0  0  0  0  0  0  0  0  0  0  0  0
  147.0681  139.8351  153.9208 N   0  0  0  0  0  0  0  0  0  0  0  0
  147.3592  139.1306  152.7761 C   0  0  0  0  0  0  0  0  0  0  0  0
  146.5554  138.1365  152.5187 N   0  0  0  0  0  0  0  0  0  0  0  0
  145.6296  138.1579  153.5570 C   0  0  0  0  0  0  0  0  0  0  0  0
  144.4961  137.3637  153.9081 C   0  0  0  0  0  0  0  0  0  0  0  0
  144.0605  136.2797  153.2090 N   0  0  0  0  0  0  0  0  0  0  0  0
  142.6389  135.9815  153.0667 C   0  0  0  0  0  0  0  0  0  0  0  0
  142.5630  134.5510  152.5165 C   0  0  0  0  0  0  0  0  0  0  0  0
  143.9951  134.2530  152.0388 C   0  0  2  0  0  0  0  0  0  0  0  0
  144.3644  132.8094  151.9379 N   0  3  2  0  0  0  0  0  0  0  0  0
  145.7890  132.6270  151.5575 C   0  0  0  0  0  0  0  0  0  0  0  0
  143.4594  132.0039  151.0710 C   0  0  0  0  0  0  0  0  0  0  0  0
  143.5826  132.3860  149.5857 C   0  0  0  0  0  0  0  0  0  0  0  0
  142.5741  131.7388  148.8384 O   0  0  0  0  0  0  0  0  0  0  0  0
  144.8416  135.0610  153.0450 C   0  0  2  0  0  0  0  0  0  0  0  0
  145.0482  134.3449  154.4017 C   0  0  0  0  0  0  0  0  0  0  0  0
  143.8055  137.7319  155.0199 N   0  0  0  0  0  0  0  0  0  0  0  0
  144.1971  138.7776  155.7523 C   0  0  0  0  0  0  0  0  0  0  0  0
  145.2377  139.5871  155.5571 N   0  0  0  0  0  0  0  0  0  0  0  0
  145.9311  139.2383  154.4369 C   0  0  0  0  0  0  0  0  0  0  0  0
  144.1129  134.7013  151.0499 H   0  0  0  0  0  0  0  0  0  0  0  0
  145.8042  135.2878  152.5902 H   0  0  0  0  0  0  0  0  0  0  0  0
  149.1918  137.9675  153.6503 H   0  0  0  0  0  0  0  0  0  0  0  0
  150.2056  137.2739  154.9078 H   0  0  0  0  0  0  0  0  0  0  0  0
  150.9066  138.3747  153.7315 H   0  0  0  0  0  0  0  0  0  0  0  0
  148.8732  139.0604  155.9202 H   0  0  0  0  0  0  0  0  0  0  0  0
  151.6742  141.3506  156.8806 H   0  0  0  0  0  0  0  0  0  0  0  0
  152.0193  140.9676  155.1899 H   0  0  0  0  0  0  0  0  0  0  0  0
  149.3826  141.9249  156.3691 H   0  0  0  0  0  0  0  0  0  0  0  0
  150.2442  142.6585  155.0172 H   0  0  0  0  0  0  0  0  0  0  0  0
  149.7122  140.0209  152.8199 H   0  0  0  0  0  0  0  0  0  0  0  0
  147.3798  141.2290  155.4237 H   0  0  0  0  0  0  0  0  0  0  0  0
  147.6283  141.8277  153.8050 H   0  0  0  0  0  0  0  0  0  0  0  0
  148.1981  139.3726  152.1399 H   0  0  0  0  0  0  0  0  0  0  0  0
  142.1088  136.0612  154.0167 H   0  0  0  0  0  0  0  0  0  0  0  0
  142.1945  136.6890  152.3656 H   0  0  0  0  0  0  0  0  0  0  0  0
  142.2743  133.8648  153.3140 H   0  0  0  0  0  0  0  0  0  0  0  0
  141.8224  134.4703  151.7203 H   0  0  0  0  0  0  0  0  0  0  0  0
  145.9786  133.0261  150.5602 H   0  0  0  0  0  0  0  0  0  0  0  0
  146.0740  131.5761  151.5583 H   0  0  0  0  0  0  0  0  0  0  0  0
  146.4609  133.1305  152.2513 H   0  0  0  0  0  0  0  0  0  0  0  0
  143.6702  130.9388  151.1436 H   0  0  0  0  0  0  0  0  0  0  0  0
  142.4296  132.1252  151.4100 H   0  0  0  0  0  0  0  0  0  0  0  0
  143.4535  133.4626  149.4705 H   0  0  0  0  0  0  0  0  0  0  0  0
  144.5601  132.1415  149.1718 H   0  0  0  0  0  0  0  0  0  0  0  0
  141.7457  131.8632  149.2771 H   0  0  0  0  0  0  0  0  0  0  0  0
  145.6205  133.4246  154.2906 H   0  0  0  0  0  0  0  0  0  0  0  0
  144.1007  134.0880  154.8756 H   0  0  0  0  0  0  0  0  0  0  0  0
  145.5987  134.9724  155.1023 H   0  0  0  0  0  0  0  0  0  0  0  0
  143.5919  138.9940  156.6203 H   0  0  0  0  0  0  0  0  0  0  0  0
  144.2549  132.4348  152.8698 H   0  0  0  0  0  0  0  0  0  0  0  0
  1  2  1  0  0  0  0
  1 31  1  0  0  0  0
  1 32  1  0  0  0  0
  1 33  1  0  0  0  0
  2  6  1  0  0  0  0
  2  3  1  0  0  0  0
  2 34  1  0  0  0  0
  3  4  1  0  0  0  0
  4  5  1  0  0  0  0
  4 35  1  0  0  0  0
  4 36  1  0  0  0  0
  5  6  1  0  0  0  0
  5 37  1  0  0  0  0
  5 38  1  0  0  0  0
  6  7  1  0  0  0  0
  6  8  1  0  0  0  0
  7 39  1  0  0  0  0
  8  9  1  0  0  0  0
  8 40  1  0  0  0  0
  8 41  1  0  0  0  0
  9 28  1  0  0  0  0
  9 10  1  0  0  0  0
 10 11  2  0  0  0  0
 10 42  1  0  0  0  0
 11 12  1  0  0  0  0
 12 28  2  0  0  0  0
 12 13  1  0  0  0  0
 13 14  1  0  0  0  0
 13 25  2  0  0  0  0
 14 23  1  0  0  0  0
 14 15  1  0  0  0  0
 15 16  1  0  0  0  0
 15 43  1  0  0  0  0
 15 44  1  0  0  0  0
 16 17  1  0  0  0  0
 16 45  1  0  0  0  0
 16 46  1  0  0  0  0
 17 29  1  0  0  0  0
 17 18  1  0  0  0  0
 17 23  1  0  0  0  0
 18 19  1  0  0  0  0
 18 20  1  0  0  0  0
 18 59  1  0  0  0  0
 19 47  1  0  0  0  0
 19 48  1  0  0  0  0
 19 49  1  0  0  0  0
 20 21  1  0  0  0  0
 20 50  1  0  0  0  0
 20 51  1  0  0  0  0
 21 22  1  0  0  0  0
 21 52  1  0  0  0  0
 21 53  1  0  0  0  0
 22 54  1  0  0  0  0
 23 30  1  0  0  0  0
 23 24  1  0  0  0  0
 24 55  1  0  0  0  0
 24 56  1  0  0  0  0
 24 57  1  0  0  0  0
 25 26  1  0  0  0  0
 26 27  2  0  0  0  0
 26 58  1  0  0  0  0
 27 28  1  0  0  0  0
M  CHG  1  18   1
M  END
> <s_m_source_file>
AV-unprocessed.smi

> <i_m_source_file_index>
290

> <i_lp_mmshare_version>
43012

> <i_f3d_flags>
0

> <s_epik_input>
W0NIMl0xW0NIMl1PW0NAQEhdKFtDSDNdKVtDQEBdMShbT0hdKVtDSDJdbihbY0hdbjIpYyhjMjMpbltjSF1uYzNONFtDSDJdW0NIMl1bQ0BIXShbQ0BIXTRbQ0gzXSlOKFtDSDNdKVtDSDJdW0NIMl1bT0hd

> <s_epik_cmdline>
J2VwaWtfcHl0aG9uJywgJy1waCcsICc3LjAnLCAnLXRuJywgJzgnLCAnLW1hJywgJzIwMCcsICctbWV0YWxfYmluZGluZycsICctaW1hZScsICc8aW5maWxlLm1hZT4nLCAnLW9tYWUnLCAnPG91dGZpbGUubWFlPic=

> <r_lp_tautomer_probability>
1

> <r_epik_Ionization_Penalty>
0.0036983

> <r_epik_Ionization_Penalty_Charging>
0.0032725

> <r_epik_Ionization_Penalty_Neutral>
0.000425798

> <r_epik_State_Penalty>
-0

> <r_epik_Charging_Adjusted_Penalty>
0.0032725

> <i_epik_Tot_Q>
1

> <i_epik_Tot_abs_Q>
1

> <r_epik_Metal_State_Penalty>
-0

> <b_epik_Metal_Only>
0

> <s_lp_Force_Field>
OPLS_2005

> <r_lp_Energy>
62.044

> <b_lp_Chiralities_Consistent>
1

> <s_lp_Variant>
AV-unprocessed.smi:290-30

> <Gold.Version>
5.8.1

> <Gold.Id.Protein>
6NUR|6NUR_protein|mol2

> <Gold.PLP.Fitness>
52.4493

> <Gold.PLP.PLP>
-41.3922

> <Gold.PLP.part.hbond>
-5.9803

> <Gold.PLP.part.metal>
0.0000

> <Gold.PLP.part.buried>
-5.2363

> <Gold.PLP.part.nonpolar>
-30.6807

> <Gold.PLP.part.repulsive>
0.3639

> <Gold.PLP.ligand.clash>
0.0000

> <Gold.PLP.ligand.torsion>
1.1683

> <Gold.PLP.Chemscore.Hbond>
3.3461

> <Gold.PLP.Chemscore.CHOScore>
1.0000

> <Gold.PLP.Chemscore.Metal>
0.0000

> <Gold.Chemscore.Hbonds>
donor molecule, donor type, donor heavy atom, donor atom, acceptor molecule, acceptor atom, score
      L1  H     7    39       P1  7957  0.42
      L1  H    22    54       P1 10952  0.30
      P1  H  7989  7998       L1     7  0.26
      P1  H  8011  8017       L1     7  1.00
      P1  H 10785 10796       L1    22  1.00
      L1  C    10    42       P1  7957  0.48

> <Gold.PLP.Chemscore.Internal.Correction>
0.3555

> <Gold.Rescore>
     Score         DG    S(hbond)    S(metal)    S(lipo)     H(rot)  DE(clash)    DE(int)     intcor
     13.82     -15.40       2.54        0.00      85.58       3.35       0.20       1.38       ----

> <Gold.Chemscore.Fitness>
13.8153

> <Gold.Chemscore.DG>
-15.3989

> <Gold.Chemscore.ZeroCoef>
-5.4800

> <Gold.Chemscore.Hbond>
2.5407

> <Gold.Chemscore.Metal>
0.0000

> <Gold.Chemscore.Lipo>
85.5850

> <Gold.Chemscore.Internal_Hbond>
0.0000

> <Gold.Chemscore.DEClash>
0.2008

> <Gold.Chemscore.DEInternal>
1.3828

> <Gold.Chemscore.Rot>
3.3518

> <Gold.Chemscore.Internal.Correction>
   9.000000E+99

> <Gold.Chemscore.Hbonds>
donor molecule, donor type, donor heavy atom, donor atom, acceptor molecule, acceptor atom, score
      L1  H     7    39       P1  7957  0.42
      L1  H    22    54       P1 10952  0.32
      P1  H  7989  7998       L1     7  0.13
      P1  H  8011  8017       L1     7  0.88
      P1  H 10785 10796       L1    22  0.33

> <Gold.Chemscore.Hbond.Weighted>
-8.4860

> <Gold.Chemscore.Metal.Weighted>
-0.0000

> <Gold.Chemscore.Lipo.Weighted>
-10.0134

> <Gold.Chemscore.Internal_Hbond.Weighted>
0.0000

> <Gold.Chemscore.DEClash.Weighted>
0.2008

> <Gold.Chemscore.DEInternal.Weighted>
1.3828

> <Gold.Chemscore.Rot.Weighted>
8.5806

> <Gold.Chemscore.Internal.Correction.Weighted>
   9.000000E+99

> <Gold.Protein.RotatedTorsions>
[ 6907 6896 6895 6894 ] final   87.37 input  -60.11 | X-H torsion
[ 7974 7965 7964 7962 ] final  -56.38 input  175.53 | X-H torsion
[ 8008 7997 7996 7995 ] final    9.79 input   59.86 | X-H torsion
[ 10167 10162 10161 10158 ] final   44.83 input  -65.29 | X-H torsion
[ 10718 10713 10712 10709 ] final -157.47 input   66.30 | X-H torsion
[ 10763 10752 10751 10750 ] final   48.09 input  -60.55 | X-H torsion
[ 11005 11000 10999 10996 ] final -125.92 input  -57.11 | X-H torsion

> <Gold.Protein.ActiveResidues>
 VAL166  LYS551  ARG553  GLY616  TRP617  ASP618  TYR619  PRO620  LYS621  CYS622 
 ASP623  PHE694  ASN695  SER759  ASP760  ASP761  ALA762  ILE779  LEU786  VAL792 
 PHE793  MET794  SER795  GLU796  ALA797  LYS798  CYS799  TRP800  GLU811  SER814 

> <Gold.Protein.RotatedAtoms>
  152.5410  134.2286  159.8815 H   0  0  0  0  0  0  0  0  0  0  0  0  # atno 6907 bound_to 6896
  151.2259  133.4470  159.2609 H   0  0  0  0  0  0  0  0  0  0  0  0  # atno 6908 bound_to 6896
  151.0761  134.9842  159.8389 H   0  0  0  0  0  0  0  0  0  0  0  0  # atno 6909 bound_to 6896
  145.8633  140.8269  142.9926 H   0  0  0  0  0  0  0  0  0  0  0  0  # atno 7974 bound_to 7965
  154.7848  140.2825  155.6036 H   0  0  0  0  0  0  0  0  0  0  0  0  # atno 8008 bound_to 7997
  156.2955  140.2616  156.2610 H   0  0  0  0  0  0  0  0  0  0  0  0  # atno 8009 bound_to 7997
  154.9741  140.0375  157.2237 H   0  0  0  0  0  0  0  0  0  0  0  0  # atno 8010 bound_to 7997
  140.3303  144.2597  150.6169 H   0  0  0  0  0  0  0  0  0  0  0  0  # atno 10167 bound_to 10162
  156.5408  130.8562  151.2748 H   0  0  0  0  0  0  0  0  0  0  0  0  # atno 10718 bound_to 10713
  152.9794  135.5955  154.3869 H   0  0  0  0  0  0  0  0  0  0  0  0  # atno 10763 bound_to 10752
  154.3528  135.2767  155.2364 H   0  0  0  0  0  0  0  0  0  0  0  0  # atno 10764 bound_to 10752
  154.4396  135.6016  153.6176 H   0  0  0  0  0  0  0  0  0  0  0  0  # atno 10765 bound_to 10752
  140.9723  134.0788  157.3856 H   0  0  0  0  0  0  0  0  0  0  0  0  # atno 11005 bound_to 11000
  144.6726  140.1128  143.7454 LP  0  0  0  0  0  0  0  0  0  0  0  0  # atno 17320 bound_to 7965
  145.9223  139.2553  143.1374 LP  0  0  0  0  0  0  0  0  0  0  0  0  # atno 17321 bound_to 7965
  140.5403  143.2225  151.8095 LP  0  0  0  0  0  0  0  0  0  0  0  0  # atno 17342 bound_to 10162
  139.4858  144.4608  151.9543 LP  0  0  0  0  0  0  0  0  0  0  0  0  # atno 17343 bound_to 10162
  157.7405  130.9852  150.2385 LP  0  0  0  0  0  0  0  0  0  0  0  0  # atno 17370 bound_to 10713
  156.2973  130.3753  149.7784 LP  0  0  0  0  0  0  0  0  0  0  0  0  # atno 17371 bound_to 10713
  139.8917  135.0120  156.6805 LP  0  0  0  0  0  0  0  0  0  0  0  0  # atno 17394 bound_to 11000
  140.7310  133.9059  155.8211 LP  0  0  0  0  0  0  0  0  0  0  0  0  # atno 17395 bound_to 11000

$$$$
