AV-unprocessed.smi:3162|AV-procd|sdf|12063|dock6
  -GOLD-   2272017493D 1   1.00000     0.00000
 Structure written by MMmdl.
 37 37  0  0  0  0  0  0  0  0  2 V2000
  146.9049  142.4132  154.2541 C   0  0  0  0  0  0  0  0  0  0  0  0
  147.9639  141.3915  153.8100 C   0  0  0  0  0  0  0  0  0  0  0  0
  148.9039  140.9054  154.9353 C   0  0  2  0  0  0  0  0  0  0  0  0
  149.8038  142.0170  155.3272 N   0  3  0  0  0  0  0  0  0  0  0  0
  150.2758  142.0283  156.7328 C   0  0  2  0  0  0  0  0  0  0  0  0
  149.0569  142.0912  157.6687 C   0  0  0  0  0  0  0  0  0  0  0  0
  151.2842  143.1729  156.9879 C   0  0  0  0  0  0  0  0  0  0  0  0
  151.7621  143.2122  158.3583 N   0  0  0  0  0  0  0  0  0  0  0  0
  152.4070  142.2215  159.0678 C   0  0  0  0  0  0  0  0  0  0  0  0
  152.6658  142.7118  160.3164 C   0  0  0  0  0  0  0  0  0  0  0  0
  153.3482  142.0318  161.4685 C   0  0  0  0  0  0  0  0  0  0  0  0
  152.1325  144.0315  160.2705 C   0  0  0  0  0  0  0  0  0  0  0  0
  151.5951  144.3285  159.0984 N   0  0  0  0  0  0  0  0  0  0  0  0
  149.7195  139.6804  154.4921 C   0  0  0  0  0  0  0  0  0  0  0  0
  149.0557  138.6851  153.8984 N   0  0  0  0  0  0  0  0  0  0  0  0
  150.9335  139.6342  154.6817 O   0  0  0  0  0  0  0  0  0  0  0  0
  146.3335  142.7721  153.3978 H   0  0  0  0  0  0  0  0  0  0  0  0
  147.3669  143.2789  154.7290 H   0  0  0  0  0  0  0  0  0  0  0  0
  146.1948  141.9805  154.9587 H   0  0  0  0  0  0  0  0  0  0  0  0
  147.4688  140.5400  153.3404 H   0  0  0  0  0  0  0  0  0  0  0  0
  148.5655  141.8543  153.0263 H   0  0  0  0  0  0  0  0  0  0  0  0
  148.2866  140.6327  155.7933 H   0  0  0  0  0  0  0  0  0  0  0  0
  150.5963  142.0345  154.7003 H   0  0  0  0  0  0  0  0  0  0  0  0
  150.7732  141.0763  156.9243 H   0  0  0  0  0  0  0  0  0  0  0  0
  149.3456  141.9832  158.7144 H   0  0  0  0  0  0  0  0  0  0  0  0
  148.3512  141.2898  157.4481 H   0  0  0  0  0  0  0  0  0  0  0  0
  148.5272  143.0389  157.5656 H   0  0  0  0  0  0  0  0  0  0  0  0
  152.1573  143.0674  156.3442 H   0  0  0  0  0  0  0  0  0  0  0  0
  150.8324  144.1362  156.7440 H   0  0  0  0  0  0  0  0  0  0  0  0
  152.6257  141.2584  158.6301 H   0  0  0  0  0  0  0  0  0  0  0  0
  153.6651  142.7451  162.2297 H   0  0  0  0  0  0  0  0  0  0  0  0
  154.2382  141.4902  161.1477 H   0  0  0  0  0  0  0  0  0  0  0  0
  152.6912  141.3119  161.9567 H   0  0  0  0  0  0  0  0  0  0  0  0
  152.1216  144.7787  161.0503 H   0  0  0  0  0  0  0  0  0  0  0  0
  149.5456  137.8552  153.5967 H   0  0  0  0  0  0  0  0  0  0  0  0
  148.0580  138.7623  153.7596 H   0  0  0  0  0  0  0  0  0  0  0  0
  149.2804  142.8704  155.1957 H   0  0  0  0  0  0  0  0  0  0  0  0
  1  2  1  0  0  0  0
  1 17  1  0  0  0  0
  1 18  1  0  0  0  0
  1 19  1  0  0  0  0
  2  3  1  0  0  0  0
  2 20  1  0  0  0  0
  2 21  1  0  0  0  0
  3  4  1  0  0  0  0
  3 14  1  0  0  0  0
  3 22  1  0  0  0  0
  4  5  1  0  0  0  0
  4 23  1  0  0  0  0
  4 37  1  0  0  0  0
  5  6  1  0  0  0  0
  5  7  1  0  0  0  0
  5 24  1  0  0  0  0
  6 25  1  0  0  0  0
  6 26  1  0  0  0  0
  6 27  1  0  0  0  0
  7  8  1  0  0  0  0
  7 28  1  0  0  0  0
  7 29  1  0  0  0  0
  8 13  1  0  0  0  0
  8  9  1  0  0  0  0
  9 10  2  0  0  0  0
  9 30  1  0  0  0  0
 10 11  1  0  0  0  0
 10 12  1  0  0  0  0
 11 31  1  0  0  0  0
 11 32  1  0  0  0  0
 11 33  1  0  0  0  0
 12 13  2  0  0  0  0
 12 34  1  0  0  0  0
 14 15  1  0  0  0  0
 14 16  2  0  0  0  0
 15 35  1  0  0  0  0
 15 36  1  0  0  0  0
M  CHG  1   4   1
M  END
> <s_m_source_file>
AV-unprocessed.smi

> <i_m_source_file_index>
3162

> <i_lp_mmshare_version>
43012

> <i_f3d_flags>
0

> <s_epik_input>
W0NIM11bQ0gyXVtDQEBIXShDKD1PKVtOSDJdKVtOSF1bQ0BIXShbQ0gzXSlbQ0gyXW4xW2NIXWMoW0NIM10pW2NIXW4x

> <s_epik_cmdline>
J2VwaWtfcHl0aG9uJywgJy1waCcsICc3LjAnLCAnLXRuJywgJzgnLCAnLW1hJywgJzIwMCcsICctbWV0YWxfYmluZGluZycsICctaW1hZScsICc8aW5maWxlLm1hZT4nLCAnLW9tYWUnLCAnPG91dGZpbGUubWFlPic=

> <r_lp_tautomer_probability>
1

> <r_epik_Ionization_Penalty>
0.112112

> <r_epik_Ionization_Penalty_Charging>
0.112102

> <r_epik_Ionization_Penalty_Neutral>
9.73799e-06

> <r_epik_State_Penalty>
0.101811

> <r_epik_Charging_Adjusted_Penalty>
0.213914

> <i_epik_Tot_Q>
1

> <i_epik_Tot_abs_Q>
1

> <r_epik_Metal_State_Penalty>
0.101821

> <b_epik_Metal_Only>
0

> <s_lp_Force_Field>
OPLS_2005

> <r_lp_Energy>
5.61804

> <b_lp_Chiralities_Consistent>
1

> <s_lp_Variant>
AV-unprocessed.smi:3162-1

> <Gold.Version>
5.8.1

> <Gold.Id.Protein>
6NUR|6NUR_protein|mol2

> <Gold.PLP.Fitness>
47.8496

> <Gold.PLP.PLP>
-39.7815

> <Gold.PLP.part.hbond>
-3.7469

> <Gold.PLP.part.metal>
0.0000

> <Gold.PLP.part.buried>
-4.1241

> <Gold.PLP.part.nonpolar>
-31.9903

> <Gold.PLP.part.repulsive>
0.4058

> <Gold.PLP.ligand.clash>
0.0000

> <Gold.PLP.ligand.torsion>
0.6571

> <Gold.PLP.Chemscore.Hbond>
3.0842

> <Gold.PLP.Chemscore.CHOScore>
0.0000

> <Gold.PLP.Chemscore.Metal>
0.0000

> <Gold.Chemscore.Hbonds>
donor molecule, donor type, donor heavy atom, donor atom, acceptor molecule, acceptor atom, score
      L1  H     4    37       P1  8028  2.00
      L1  H    15    35       P1  7948  0.02
      P1  H  7989  7998       L1    16  1.00

> <Gold.PLP.Chemscore.Internal.Correction>
0.1295

> <Gold.Rescore>
     Score         DG    S(hbond)    S(metal)    S(lipo)     H(rot)  DE(clash)    DE(int)     intcor
     16.03     -17.31       2.54        0.00      83.53       2.51       0.42       0.86       ----

> <Gold.Chemscore.Fitness>
16.0317

> <Gold.Chemscore.DG>
-17.3061

> <Gold.Chemscore.ZeroCoef>
-5.4800

> <Gold.Chemscore.Hbond>
2.5357

> <Gold.Chemscore.Metal>
0.0000

> <Gold.Chemscore.Lipo>
83.5276

> <Gold.Chemscore.Internal_Hbond>
0.0000

> <Gold.Chemscore.DEClash>
0.4165

> <Gold.Chemscore.DEInternal>
0.8579

> <Gold.Chemscore.Rot>
2.5062

> <Gold.Chemscore.Internal.Correction>
   9.000000E+99

> <Gold.Chemscore.Hbonds>
donor molecule, donor type, donor heavy atom, donor atom, acceptor molecule, acceptor atom, score
      L1  H     4    37       P1  8028  0.95
      L1  H    15    35       P1  7948  0.05
      P1  H  7989  7998       L1    16  0.50

> <Gold.Chemscore.Hbond.Weighted>
-8.4692

> <Gold.Chemscore.Metal.Weighted>
-0.0000

> <Gold.Chemscore.Lipo.Weighted>
-9.7727

> <Gold.Chemscore.Internal_Hbond.Weighted>
0.0000

> <Gold.Chemscore.DEClash.Weighted>
0.4165

> <Gold.Chemscore.DEInternal.Weighted>
0.8579

> <Gold.Chemscore.Rot.Weighted>
6.4159

> <Gold.Chemscore.Internal.Correction.Weighted>
   9.000000E+99

> <Gold.Protein.RotatedTorsions>
[ 6907 6896 6895 6894 ] final  167.80 input  -60.11 | X-H torsion
[ 7974 7965 7964 7962 ] final   48.01 input  175.53 | X-H torsion
[ 8008 7997 7996 7995 ] final  114.84 input   59.86 | X-H torsion
[ 10167 10162 10161 10158 ] final    1.77 input  -65.29 | X-H torsion
[ 10718 10713 10712 10709 ] final  159.63 input   66.30 | X-H torsion
[ 10763 10752 10751 10750 ] final   78.92 input  -60.55 | X-H torsion
[ 11005 11000 10999 10996 ] final -168.98 input  -57.11 | X-H torsion

> <Gold.Protein.ActiveResidues>
 VAL166  LYS551  ARG553  GLY616  TRP617  ASP618  TYR619  PRO620  LYS621  CYS622 
 ASP623  PHE694  ASN695  SER759  ASP760  ASP761  ALA762  ILE779  LEU786  VAL792 
 PHE793  MET794  SER795  GLU796  ALA797  LYS798  CYS799  TRP800  GLU811  SER814 

> <Gold.Protein.RotatedAtoms>
  151.8577  133.3451  159.3693 H   0  0  0  0  0  0  0  0  0  0  0  0  # atno 6907 bound_to 6896
  150.7188  134.5237  159.5675 H   0  0  0  0  0  0  0  0  0  0  0  0  # atno 6908 bound_to 6896
  152.2744  134.7898  160.0459 H   0  0  0  0  0  0  0  0  0  0  0  0  # atno 6909 bound_to 6896
  146.0245  139.4690  142.9876 H   0  0  0  0  0  0  0  0  0  0  0  0  # atno 7974 bound_to 7965
  156.2345  140.2951  156.0276 H   0  0  0  0  0  0  0  0  0  0  0  0  # atno 8008 bound_to 7997
  155.2130  140.0413  157.2953 H   0  0  0  0  0  0  0  0  0  0  0  0  # atno 8009 bound_to 7997
  154.6054  140.2438  155.7744 H   0  0  0  0  0  0  0  0  0  0  0  0  # atno 8010 bound_to 7997
  140.6667  143.7160  150.7841 H   0  0  0  0  0  0  0  0  0  0  0  0  # atno 10167 bound_to 10162
  157.1616  131.0588  151.2229 H   0  0  0  0  0  0  0  0  0  0  0  0  # atno 10718 bound_to 10713
  153.0912  135.4859  154.8693 H   0  0  0  0  0  0  0  0  0  0  0  0  # atno 10763 bound_to 10752
  154.7271  135.3052  154.8955 H   0  0  0  0  0  0  0  0  0  0  0  0  # atno 10764 bound_to 10752
  153.9602  135.6813  153.4798 H   0  0  0  0  0  0  0  0  0  0  0  0  # atno 10765 bound_to 10752
  140.5358  134.5571  157.5087 H   0  0  0  0  0  0  0  0  0  0  0  0  # atno 11005 bound_to 11000
  145.7140  141.0097  143.1438 LP  0  0  0  0  0  0  0  0  0  0  0  0  # atno 17320 bound_to 7965
  144.7003  139.8791  143.7446 LP  0  0  0  0  0  0  0  0  0  0  0  0  # atno 17321 bound_to 7965
  140.0839  143.4943  152.2515 LP  0  0  0  0  0  0  0  0  0  0  0  0  # atno 17342 bound_to 10162
  139.5918  144.7553  151.3381 LP  0  0  0  0  0  0  0  0  0  0  0  0  # atno 17343 bound_to 10162
  157.4127  130.7394  149.6852 LP  0  0  0  0  0  0  0  0  0  0  0  0  # atno 17370 bound_to 10713
  155.9753  130.4091  150.3861 LP  0  0  0  0  0  0  0  0  0  0  0  0  # atno 17371 bound_to 10713
  139.9530  134.7584  156.0406 LP  0  0  0  0  0  0  0  0  0  0  0  0  # atno 17394 bound_to 11000
  141.1255  133.6600  156.3326 LP  0  0  0  0  0  0  0  0  0  0  0  0  # atno 17395 bound_to 11000

$$$$
