AV-unprocessed.smi:1323|AV-procd|sdf|5465|dock3
  -GOLD-   22720 5 33D 1   1.00000     0.00000
 Structure written by MMmdl.
 45 46  0  0  0  0  0  0  0  0  1 V2000
  151.4368  145.2248  159.9309 C   0  0  0  0  0  0  0  0  0  0  0  0
  151.6122  143.9038  160.6974 C   0  0  2  0  0  0  0  0  0  0  0  0
  152.6256  144.0742  161.8475 C   0  0  0  0  0  0  0  0  0  0  0  0
  152.8274  142.7669  162.6282 C   0  0  0  0  0  0  0  0  0  0  0  0
  153.2625  141.6304  161.6930 C   0  0  0  0  0  0  0  0  0  0  0  0
  152.2538  141.4420  160.5503 C   0  0  0  0  0  0  0  0  0  0  0  0
  152.0357  142.7500  159.7599 C   0  0  1  0  0  0  0  0  0  0  0  0
  150.9947  142.5521  158.8115 O   0  0  0  0  0  0  0  0  0  0  0  0
  151.3831  141.8234  157.6561 C   0  0  0  0  0  0  0  0  0  0  0  0
  151.3205  142.7522  156.4392 C   0  0  0  0  0  0  0  0  0  0  0  0
  150.1369  142.4654  155.6409 N   0  0  0  0  0  0  0  0  0  0  0  0
  149.9126  141.3103  154.9999 C   0  0  0  0  0  0  0  0  0  0  0  0
  150.7005  140.3634  155.0250 O   0  0  0  0  0  0  0  0  0  0  0  0
  148.6003  141.2340  154.2058 C   0  0  0  0  0  0  0  0  0  0  0  0
  147.7581  142.4347  154.3376 N   0  0  0  0  0  0  0  0  0  0  0  0
  147.6116  143.2409  153.1912 C   0  0  0  0  0  0  0  0  0  0  0  0
  146.8661  144.3571  153.1986 C   0  0  0  0  0  0  0  0  0  0  0  0
  146.2039  144.7275  154.4267 C   0  0  0  0  0  0  0  0  0  0  0  0
  146.3336  143.9609  155.5280 C   0  0  0  0  0  0  0  0  0  0  0  0
  147.1441  142.7373  155.5230 C   0  0  0  0  0  0  0  0  0  0  0  0
  147.2636  142.0287  156.5229 O   0  0  0  0  0  0  0  0  0  0  0  0
  152.3674  145.5332  159.4536 H   0  0  0  0  0  0  0  0  0  0  0  0
  151.1244  146.0273  160.5996 H   0  0  0  0  0  0  0  0  0  0  0  0
  150.6780  145.1357  159.1533 H   0  0  0  0  0  0  0  0  0  0  0  0
  150.6480  143.6456  161.1382 H   0  0  0  0  0  0  0  0  0  0  0  0
  153.5843  144.4080  161.4480 H   0  0  0  0  0  0  0  0  0  0  0  0
  152.2878  144.8554  162.5294 H   0  0  0  0  0  0  0  0  0  0  0  0
  153.5732  142.9116  163.4105 H   0  0  0  0  0  0  0  0  0  0  0  0
  151.8991  142.4935  163.1313 H   0  0  0  0  0  0  0  0  0  0  0  0
  154.2477  141.8508  161.2801 H   0  0  0  0  0  0  0  0  0  0  0  0
  153.3633  140.7030  162.2573 H   0  0  0  0  0  0  0  0  0  0  0  0
  152.6030  140.6483  159.8902 H   0  0  0  0  0  0  0  0  0  0  0  0
  151.3022  141.1024  160.9615 H   0  0  0  0  0  0  0  0  0  0  0  0
  152.9614  143.0355  159.2559 H   0  0  0  0  0  0  0  0  0  0  0  0
  152.4020  141.4557  157.7862 H   0  0  0  0  0  0  0  0  0  0  0  0
  150.7419  140.9556  157.4979 H   0  0  0  0  0  0  0  0  0  0  0  0
  151.3097  143.7954  156.7584 H   0  0  0  0  0  0  0  0  0  0  0  0
  152.2104  142.6115  155.8240 H   0  0  0  0  0  0  0  0  0  0  0  0
  149.4464  143.1985  155.5660 H   0  0  0  0  0  0  0  0  0  0  0  0
  148.8315  141.0467  153.1554 H   0  0  0  0  0  0  0  0  0  0  0  0
  148.0526  140.3503  154.5371 H   0  0  0  0  0  0  0  0  0  0  0  0
  148.1338  142.8905  152.3127 H   0  0  0  0  0  0  0  0  0  0  0  0
  146.7615  144.9596  152.3084 H   0  0  0  0  0  0  0  0  0  0  0  0
  145.6006  145.6227  154.4619 H   0  0  0  0  0  0  0  0  0  0  0  0
  145.8296  144.2530  156.4375 H   0  0  0  0  0  0  0  0  0  0  0  0
  1  2  1  0  0  0  0
  1 22  1  0  0  0  0
  1 23  1  0  0  0  0
  1 24  1  0  0  0  0
  2  7  1  0  0  0  0
  2  3  1  0  0  0  0
  2 25  1  0  0  0  0
  3  4  1  0  0  0  0
  3 26  1  0  0  0  0
  3 27  1  0  0  0  0
  4  5  1  0  0  0  0
  4 28  1  0  0  0  0
  4 29  1  0  0  0  0
  5  6  1  0  0  0  0
  5 30  1  0  0  0  0
  5 31  1  0  0  0  0
  6  7  1  0  0  0  0
  6 32  1  0  0  0  0
  6 33  1  0  0  0  0
  7  8  1  0  0  0  0
  7 34  1  0  0  0  0
  8  9  1  0  0  0  0
  9 10  1  0  0  0  0
  9 35  1  0  0  0  0
  9 36  1  0  0  0  0
 10 11  1  0  0  0  0
 10 37  1  0  0  0  0
 10 38  1  0  0  0  0
 11 12  1  0  0  0  0
 11 39  1  0  0  0  0
 12 13  2  0  0  0  0
 12 14  1  0  0  0  0
 14 15  1  0  0  0  0
 14 40  1  0  0  0  0
 14 41  1  0  0  0  0
 15 20  1  0  0  0  0
 15 16  1  0  0  0  0
 16 17  2  0  0  0  0
 16 42  1  0  0  0  0
 17 18  1  0  0  0  0
 17 43  1  0  0  0  0
 18 19  2  0  0  0  0
 18 44  1  0  0  0  0
 19 20  1  0  0  0  0
 19 45  1  0  0  0  0
 20 21  2  0  0  0  0
M  END
> <s_m_source_file>
AV-unprocessed.smi

> <i_m_source_file_index>
1323

> <i_lp_mmshare_version>
43012

> <i_f3d_flags>
0

> <s_epik_input>
W0NIM11bQ0BASF0xW0NIMl1bQ0gyXVtDSDJdW0NIMl1bQ0BIXTFPW0NIMl1bQ0gyXVtOSF1DKD1PKVtDSDJdbjJbY0hdW2NIXVtjSF1bY0hdYzI9Tw==

> <s_epik_cmdline>
J2VwaWtfcHl0aG9uJywgJy1waCcsICc3LjAnLCAnLXRuJywgJzgnLCAnLW1hJywgJzIwMCcsICctbWV0YWxfYmluZGluZycsICctaW1hZScsICc8aW5maWxlLm1hZT4nLCAnLW9tYWUnLCAnPG91dGZpbGUubWFlPic=

> <r_lp_tautomer_probability>
1

> <r_epik_Ionization_Penalty>
4.02412e-07

> <r_epik_Ionization_Penalty_Charging>
3.74552e-07

> <r_epik_Ionization_Penalty_Neutral>
2.78599e-08

> <r_epik_State_Penalty>
-0

> <r_epik_Charging_Adjusted_Penalty>
3.74552e-07

> <i_epik_Tot_Q>
0

> <i_epik_Tot_abs_Q>
0

> <r_epik_Metal_State_Penalty>
-0

> <b_epik_Metal_Only>
0

> <s_lp_Force_Field>
OPLS_2005

> <r_lp_Energy>
21.1571

> <b_lp_Chiralities_Consistent>
1

> <s_lp_Variant>
AV-unprocessed.smi:1323-1

> <Gold.Version>
5.8.1

> <Gold.Id.Protein>
6NUR|6NUR_protein|mol2

> <Gold.PLP.Fitness>
51.0127

> <Gold.PLP.PLP>
-48.2860

> <Gold.PLP.part.hbond>
-2.0000

> <Gold.PLP.part.metal>
0.0000

> <Gold.PLP.part.buried>
-6.7052

> <Gold.PLP.part.nonpolar>
-38.7932

> <Gold.PLP.part.repulsive>
0.2672

> <Gold.PLP.ligand.clash>
0.0000

> <Gold.PLP.ligand.torsion>
0.9122

> <Gold.PLP.Chemscore.Hbond>
1.4960

> <Gold.PLP.Chemscore.CHOScore>
0.0000

> <Gold.PLP.Chemscore.Metal>
0.0000

> <Gold.Chemscore.Hbonds>
donor molecule, donor type, donor heavy atom, donor atom, acceptor molecule, acceptor atom, score
      L1  H    11    39       P1  8028  1.00
      P1  H  7989  7998       L1    13  0.75

> <Gold.PLP.Chemscore.Internal.Correction>
0.0631

> <Gold.Rescore>
     Score         DG    S(hbond)    S(metal)    S(lipo)     H(rot)  DE(clash)    DE(int)     intcor
     15.23     -18.10       1.25        0.00     114.64       1.94       1.63       1.24       ----

> <Gold.Chemscore.Fitness>
15.2325

> <Gold.Chemscore.DG>
-18.1003

> <Gold.Chemscore.ZeroCoef>
-5.4800

> <Gold.Chemscore.Hbond>
1.2496

> <Gold.Chemscore.Metal>
0.0000

> <Gold.Chemscore.Lipo>
114.6378

> <Gold.Chemscore.Internal_Hbond>
0.0000

> <Gold.Chemscore.DEClash>
1.6289

> <Gold.Chemscore.DEInternal>
1.2389

> <Gold.Chemscore.Rot>
1.9398

> <Gold.Chemscore.Internal.Correction>
   9.000000E+99

> <Gold.Chemscore.Hbonds>
donor molecule, donor type, donor heavy atom, donor atom, acceptor molecule, acceptor atom, score
      L1  H    11    39       P1  8028  0.98
      P1  H  7989  7998       L1    13  0.09

> <Gold.Chemscore.Hbond.Weighted>
-4.1736

> <Gold.Chemscore.Metal.Weighted>
-0.0000

> <Gold.Chemscore.Lipo.Weighted>
-13.4126

> <Gold.Chemscore.Internal_Hbond.Weighted>
0.0000

> <Gold.Chemscore.DEClash.Weighted>
1.6289

> <Gold.Chemscore.DEInternal.Weighted>
1.2389

> <Gold.Chemscore.Rot.Weighted>
4.9659

> <Gold.Chemscore.Internal.Correction.Weighted>
   9.000000E+99

> <Gold.Protein.RotatedTorsions>
[ 6907 6896 6895 6894 ] final -105.97 input  -60.11 | X-H torsion
[ 7974 7965 7964 7962 ] final  -59.76 input  175.53 | X-H torsion
[ 8008 7997 7996 7995 ] final  -42.34 input   59.86 | X-H torsion
[ 10167 10162 10161 10158 ] final   89.24 input  -65.29 | X-H torsion
[ 10718 10713 10712 10709 ] final  133.19 input   66.30 | X-H torsion
[ 10763 10752 10751 10750 ] final -175.96 input  -60.55 | X-H torsion
[ 11005 11000 10999 10996 ] final  108.20 input  -57.11 | X-H torsion

> <Gold.Protein.ActiveResidues>
 VAL166  LYS551  ARG553  GLY616  TRP617  ASP618  TYR619  PRO620  LYS621  CYS622 
 ASP623  PHE694  ASN695  SER759  ASP760  ASP761  ALA762  ILE779  LEU786  VAL792 
 PHE793  MET794  SER795  GLU796  ALA797  LYS798  CYS799  TRP800  GLU811  SER814 

> <Gold.Protein.RotatedAtoms>
  150.7364  134.0047  159.3649 H   0  0  0  0  0  0  0  0  0  0  0  0  # atno 6907 bound_to 6896
  151.8003  135.0708  160.0408 H   0  0  0  0  0  0  0  0  0  0  0  0  # atno 6908 bound_to 6896
  152.3146  133.5752  159.5739 H   0  0  0  0  0  0  0  0  0  0  0  0  # atno 6909 bound_to 6896
  145.8236  140.8524  143.0120 H   0  0  0  0  0  0  0  0  0  0  0  0  # atno 7974 bound_to 7965
  154.3999  140.1476  156.3339 H   0  0  0  0  0  0  0  0  0  0  0  0  # atno 8008 bound_to 7997
  155.8418  140.3461  155.5615 H   0  0  0  0  0  0  0  0  0  0  0  0  # atno 8009 bound_to 7997
  155.8079  140.0879  157.1911 H   0  0  0  0  0  0  0  0  0  0  0  0  # atno 8010 bound_to 7997
  139.8593  144.6552  150.9077 H   0  0  0  0  0  0  0  0  0  0  0  0  # atno 10167 bound_to 10162
  157.4797  131.1085  150.9697 H   0  0  0  0  0  0  0  0  0  0  0  0  # atno 10718 bound_to 10713
  154.5781  135.2834  155.0760 H   0  0  0  0  0  0  0  0  0  0  0  0  # atno 10763 bound_to 10752
  154.2106  135.6408  153.5118 H   0  0  0  0  0  0  0  0  0  0  0  0  # atno 10764 bound_to 10752
  153.0079  135.5491  154.6427 H   0  0  0  0  0  0  0  0  0  0  0  0  # atno 10765 bound_to 10752
  139.8840  134.9423  156.5936 H   0  0  0  0  0  0  0  0  0  0  0  0  # atno 11005 bound_to 11000
  144.6745  140.0569  143.7477 LP  0  0  0  0  0  0  0  0  0  0  0  0  # atno 17320 bound_to 7965
  145.9648  139.2826  143.1134 LP  0  0  0  0  0  0  0  0  0  0  0  0  # atno 17321 bound_to 7965
  140.7777  143.3758  151.1565 LP  0  0  0  0  0  0  0  0  0  0  0  0  # atno 17342 bound_to 10162
  139.7389  143.8955  152.3044 LP  0  0  0  0  0  0  0  0  0  0  0  0  # atno 17343 bound_to 10162
  157.0434  130.5758  149.5359 LP  0  0  0  0  0  0  0  0  0  0  0  0  # atno 17370 bound_to 10713
  156.0115  130.5207  150.8004 LP  0  0  0  0  0  0  0  0  0  0  0  0  # atno 17371 bound_to 10713
  140.7937  133.8562  155.8667 LP  0  0  0  0  0  0  0  0  0  0  0  0  # atno 17394 bound_to 11000
  140.9655  134.1600  157.4620 LP  0  0  0  0  0  0  0  0  0  0  0  0  # atno 17395 bound_to 11000

$$$$
