AV-unprocessed.smi:3217|AV-procd|sdf|12291|dock1
  -GOLD-   2272018133D 1   1.00000     0.00000
 Structure written by MMmdl.
 34 35  0  0  0  0  0  0  0  0  1 V2000
  143.9689  136.3876  151.9695 C   0  0  0  0  0  0  0  0  0  0  0  0
  145.1492  135.4911  152.3712 C   0  0  2  0  0  0  0  0  0  0  0  0
  146.3373  136.3256  152.5459 N   0  0  0  0  0  0  0  0  0  0  0  0
  146.3743  137.5305  153.1333 C   0  0  0  0  0  0  0  0  0  0  0  0
  145.3872  138.0840  153.6163 O   0  0  0  0  0  0  0  0  0  0  0  0
  147.6181  138.0393  153.1065 N   0  0  0  0  0  0  0  0  0  0  0  0
  148.0817  139.2937  153.5892 C   0  0  0  0  0  0  0  0  0  0  0  0
  147.3075  140.4795  153.6219 C   0  0  0  0  0  0  0  0  0  0  0  0
  147.8865  141.6555  154.1366 C   0  0  0  0  0  0  0  0  0  0  0  0
  149.2128  141.6032  154.6068 C   0  0  0  0  0  0  0  0  0  0  0  0
  149.9578  140.4781  154.5939 N   0  0  0  0  0  0  0  0  0  0  0  0
  149.3965  139.3547  154.0981 C   0  0  0  0  0  0  0  0  0  0  0  0
  145.4176  134.3875  151.3279 C   0  0  1  0  0  0  0  0  0  0  0  0
  146.4471  133.3370  151.7531 C   0  0  0  0  0  0  0  0  0  0  0  0
  146.0383  132.1468  150.9168 C   0  0  0  0  0  0  0  0  0  0  0  0
  144.5178  132.2545  150.9546 C   0  0  0  0  0  0  0  0  0  0  0  0
  144.2272  133.6453  151.0675 O   0  0  0  0  0  0  0  0  0  0  0  0
  143.0516  135.8077  151.8640 H   0  0  0  0  0  0  0  0  0  0  0  0
  144.1556  136.8906  151.0201 H   0  0  0  0  0  0  0  0  0  0  0  0
  143.7859  137.1547  152.7228 H   0  0  0  0  0  0  0  0  0  0  0  0
  144.8884  135.0084  153.3147 H   0  0  0  0  0  0  0  0  0  0  0  0
  147.2014  135.9558  152.1782 H   0  0  0  0  0  0  0  0  0  0  0  0
  148.3094  137.4837  152.6244 H   0  0  0  0  0  0  0  0  0  0  0  0
  146.2860  140.5134  153.2778 H   0  0  0  0  0  0  0  0  0  0  0  0
  147.3243  142.5769  154.1728 H   0  0  0  0  0  0  0  0  0  0  0  0
  149.6857  142.4869  155.0085 H   0  0  0  0  0  0  0  0  0  0  0  0
  150.0226  138.4742  154.1045 H   0  0  0  0  0  0  0  0  0  0  0  0
  145.7387  134.8327  150.3845 H   0  0  0  0  0  0  0  0  0  0  0  0
  147.4757  133.6511  151.5736 H   0  0  0  0  0  0  0  0  0  0  0  0
  146.3417  133.1005  152.8130 H   0  0  0  0  0  0  0  0  0  0  0  0
  146.4003  132.2638  149.8944 H   0  0  0  0  0  0  0  0  0  0  0  0
  146.4091  131.1987  151.3069 H   0  0  0  0  0  0  0  0  0  0  0  0
  144.0476  131.8185  150.0729 H   0  0  0  0  0  0  0  0  0  0  0  0
  144.1224  131.7466  151.8351 H   0  0  0  0  0  0  0  0  0  0  0  0
  1  2  1  0  0  0  0
  1 18  1  0  0  0  0
  1 19  1  0  0  0  0
  1 20  1  0  0  0  0
  2  3  1  0  0  0  0
  2 13  1  0  0  0  0
  2 21  1  0  0  0  0
  3  4  1  0  0  0  0
  3 22  1  0  0  0  0
  4  5  2  0  0  0  0
  4  6  1  0  0  0  0
  6  7  1  0  0  0  0
  6 23  1  0  0  0  0
  7 12  1  0  0  0  0
  7  8  2  0  0  0  0
  8  9  1  0  0  0  0
  8 24  1  0  0  0  0
  9 10  2  0  0  0  0
  9 25  1  0  0  0  0
 10 11  1  0  0  0  0
 10 26  1  0  0  0  0
 11 12  2  0  0  0  0
 12 27  1  0  0  0  0
 13 17  1  0  0  0  0
 13 14  1  0  0  0  0
 13 28  1  0  0  0  0
 14 15  1  0  0  0  0
 14 29  1  0  0  0  0
 14 30  1  0  0  0  0
 15 16  1  0  0  0  0
 15 31  1  0  0  0  0
 15 32  1  0  0  0  0
 16 17  1  0  0  0  0
 16 33  1  0  0  0  0
 16 34  1  0  0  0  0
M  END
> <s_m_source_file>
AV-unprocessed.smi

> <i_m_source_file_index>
3217

> <i_lp_mmshare_version>
43012

> <i_f3d_flags>
0

> <s_epik_input>
TzFbQ0gyXVtDSDJdW0NIMl1bQ0BIXTFbQ0BIXShbQ0gzXSlbTkhdQyg9TylbTkhdYzJbY0hdW2NIXVtjSF1uW2NIXTI=

> <s_epik_cmdline>
J2VwaWtfcHl0aG9uJywgJy1waCcsICc3LjAnLCAnLXRuJywgJzgnLCAnLW1hJywgJzIwMCcsICctbWV0YWxfYmluZGluZycsICctaW1hZScsICc8aW5maWxlLm1hZT4nLCAnLW9tYWUnLCAnPG91dGZpbGUubWFlPic=

> <r_epik_Ionization_Penalty>
0.00475451

> <r_epik_Ionization_Penalty_Charging>
0

> <r_epik_Ionization_Penalty_Neutral>
0.00475451

> <r_epik_State_Penalty>
0.00341814

> <r_epik_Charging_Adjusted_Penalty>
0.00341814

> <i_epik_Tot_Q>
0

> <i_epik_Tot_abs_Q>
0

> <r_epik_Metal_State_Penalty>
-0

> <b_epik_Metal_Only>
0

> <s_lp_Force_Field>
OPLS_2005

> <r_lp_Energy>
20.7141

> <b_lp_Chiralities_Consistent>
1

> <s_lp_Variant>
AV-unprocessed.smi:3217-3

> <Gold.Version>
5.8.1

> <Gold.Id.Protein>
6NUR|6NUR_protein|mol2

> <Gold.PLP.Fitness>
39.0253

> <Gold.PLP.PLP>
-28.3573

> <Gold.PLP.part.hbond>
-3.0000

> <Gold.PLP.part.metal>
0.0000

> <Gold.PLP.part.buried>
-1.0592

> <Gold.PLP.part.nonpolar>
-24.6971

> <Gold.PLP.part.repulsive>
0.4825

> <Gold.PLP.ligand.clash>
0.0000

> <Gold.PLP.ligand.torsion>
0.4906

> <Gold.PLP.Chemscore.Hbond>
2.8799

> <Gold.PLP.Chemscore.CHOScore>
1.0000

> <Gold.PLP.Chemscore.Metal>
0.0000

> <Gold.Chemscore.Hbonds>
donor molecule, donor type, donor heavy atom, donor atom, acceptor molecule, acceptor atom, score
      L1  H     3    22       P1  7948  0.96
      L1  H     6    23       P1  7948  1.00
      P1  H  7989  7998       L1    11  0.88
      L1  C    10    26       P1  8028  1.00

> <Gold.PLP.Chemscore.Internal.Correction>
0.0095

> <Gold.Rescore>
     Score         DG    S(hbond)    S(metal)    S(lipo)     H(rot)  DE(clash)    DE(int)     intcor
     15.28     -18.02       2.32        0.00      67.73       1.22       0.24       2.50       ----

> <Gold.Chemscore.Fitness>
15.2770

> <Gold.Chemscore.DG>
-18.0179

> <Gold.Chemscore.ZeroCoef>
-5.4800

> <Gold.Chemscore.Hbond>
2.3193

> <Gold.Chemscore.Metal>
0.0000

> <Gold.Chemscore.Lipo>
67.7272

> <Gold.Chemscore.Internal_Hbond>
0.0000

> <Gold.Chemscore.DEClash>
0.2386

> <Gold.Chemscore.DEInternal>
2.5022

> <Gold.Chemscore.Rot>
1.2236

> <Gold.Chemscore.Internal.Correction>
   9.000000E+99

> <Gold.Chemscore.Hbonds>
donor molecule, donor type, donor heavy atom, donor atom, acceptor molecule, acceptor atom, score
      L1  H     3    22       P1  7948  0.92
      L1  H     6    23       P1  7948  0.97
      P1  H  7989  7998       L1    11  0.32

> <Gold.Chemscore.Hbond.Weighted>
-7.7463

> <Gold.Chemscore.Metal.Weighted>
-0.0000

> <Gold.Chemscore.Lipo.Weighted>
-7.9241

> <Gold.Chemscore.Internal_Hbond.Weighted>
0.0000

> <Gold.Chemscore.DEClash.Weighted>
0.2386

> <Gold.Chemscore.DEInternal.Weighted>
2.5022

> <Gold.Chemscore.Rot.Weighted>
3.1325

> <Gold.Chemscore.Internal.Correction.Weighted>
   9.000000E+99

> <Gold.Protein.RotatedTorsions>
[ 6907 6896 6895 6894 ] final   91.78 input  -60.11 | X-H torsion
[ 7974 7965 7964 7962 ] final  -14.51 input  175.53 | X-H torsion
[ 8008 7997 7996 7995 ] final   86.12 input   59.86 | X-H torsion
[ 10167 10162 10161 10158 ] final  -57.15 input  -65.29 | X-H torsion
[ 10718 10713 10712 10709 ] final -111.01 input   66.30 | X-H torsion
[ 10763 10752 10751 10750 ] final  -82.50 input  -60.55 | X-H torsion
[ 11005 11000 10999 10996 ] final  140.84 input  -57.11 | X-H torsion

> <Gold.Protein.ActiveResidues>
 VAL166  LYS551  ARG553  GLY616  TRP617  ASP618  TYR619  PRO620  LYS621  CYS622 
 ASP623  PHE694  ASN695  SER759  ASP760  ASP761  ALA762  ILE779  LEU786  VAL792 
 PHE793  MET794  SER795  GLU796  ALA797  LYS798  CYS799  TRP800  GLU811  SER814 

> <Gold.Protein.RotatedAtoms>
  152.5451  134.1604  159.8555 H   0  0  0  0  0  0  0  0  0  0  0  0  # atno 6907 bound_to 6896
  151.1623  133.4830  159.2601 H   0  0  0  0  0  0  0  0  0  0  0  0  # atno 6908 bound_to 6896
  151.1360  135.0166  159.8659 H   0  0  0  0  0  0  0  0  0  0  0  0  # atno 6909 bound_to 6896
  146.2071  140.3359  142.8403 H   0  0  0  0  0  0  0  0  0  0  0  0  # atno 7974 bound_to 7965
  155.9588  140.3395  155.6472 H   0  0  0  0  0  0  0  0  0  0  0  0  # atno 8008 bound_to 7997
  155.6825  140.0739  157.2497 H   0  0  0  0  0  0  0  0  0  0  0  0  # atno 8009 bound_to 7997
  154.4138  140.1672  156.1985 H   0  0  0  0  0  0  0  0  0  0  0  0  # atno 8010 bound_to 7997
  140.6275  143.2444  151.5326 H   0  0  0  0  0  0  0  0  0  0  0  0  # atno 10167 bound_to 10162
  156.0623  130.5845  150.8315 H   0  0  0  0  0  0  0  0  0  0  0  0  # atno 10718 bound_to 10713
  154.5765  135.5589  153.7144 H   0  0  0  0  0  0  0  0  0  0  0  0  # atno 10763 bound_to 10752
  153.0066  135.6309  154.2042 H   0  0  0  0  0  0  0  0  0  0  0  0  # atno 10764 bound_to 10752
  154.1982  135.2879  155.2979 H   0  0  0  0  0  0  0  0  0  0  0  0  # atno 10765 bound_to 10752
  140.0357  134.9330  157.0747 H   0  0  0  0  0  0  0  0  0  0  0  0  # atno 11005 bound_to 11000
  144.8819  140.7412  143.5981 LP  0  0  0  0  0  0  0  0  0  0  0  0  # atno 17320 bound_to 7965
  145.3279  139.1768  143.4552 LP  0  0  0  0  0  0  0  0  0  0  0  0  # atno 17321 bound_to 7965
  139.5493  144.2437  152.1501 LP  0  0  0  0  0  0  0  0  0  0  0  0  # atno 17342 bound_to 10162
  140.1672  144.4970  150.6599 LP  0  0  0  0  0  0  0  0  0  0  0  0  # atno 17343 bound_to 10162
  157.5640  131.0946  150.9517 LP  0  0  0  0  0  0  0  0  0  0  0  0  # atno 17370 bound_to 10713
  156.9748  130.5504  149.5292 LP  0  0  0  0  0  0  0  0  0  0  0  0  # atno 17371 bound_to 10713
  140.4152  134.1939  155.7163 LP  0  0  0  0  0  0  0  0  0  0  0  0  # atno 17394 bound_to 11000
  141.1856  133.8320  157.1100 LP  0  0  0  0  0  0  0  0  0  0  0  0  # atno 17395 bound_to 11000

$$$$
