AV-unprocessed.smi:99|AV-procd|sdf|866|dock2
  -GOLD-   2262017313D 1   1.00000     0.00000
 Structure written by MMmdl.
 53 56  0  0  0  0  0  0  0  0  1 V2000
  148.6494  134.0085  158.2784 O   0  0  0  0  0  0  0  0  0  0  0  0
  147.9274  134.8555  158.8082 C   0  0  0  0  0  0  0  0  0  0  0  0
  147.3784  135.8893  158.1421 O   0  0  0  0  0  0  0  0  0  0  0  0
  147.4058  135.9120  156.7253 C   0  0  0  0  0  0  0  0  0  0  0  0
  146.8104  137.2422  156.2304 C   0  0  1  0  0  0  0  0  0  0  0  0
  147.5218  138.3374  156.8083 O   0  0  0  0  0  0  0  0  0  0  0  0
  148.4761  138.8602  155.9229 C   0  0  1  0  0  0  0  0  0  0  0  0
  149.8514  138.8007  156.5591 N   0  0  0  0  0  0  0  0  0  0  0  0
  150.0647  138.3002  157.8383 C   0  0  0  0  0  0  0  0  0  0  0  0
  151.2886  138.2448  158.4148 C   0  0  0  0  0  0  0  0  0  0  0  0
  152.4670  138.7242  157.7004 C   0  0  0  0  0  0  0  0  0  0  0  0
  153.6149  138.7148  158.1398 O   0  0  0  0  0  0  0  0  0  0  0  0
  152.2068  139.2232  156.4211 N   0  0  0  0  0  0  0  0  0  0  0  0
  150.9504  139.2850  155.8166 C   0  0  0  0  0  0  0  0  0  0  0  0
  150.8324  139.7441  154.6809 O   0  0  0  0  0  0  0  0  0  0  0  0
  148.3747  138.0629  154.6027 C   0  0  1  0  0  0  0  0  0  0  0  0
  149.3583  137.0454  154.4877 O   0  0  0  0  0  0  0  0  0  0  0  0
  146.9709  137.4890  154.7311 C   0  0  1  0  0  0  0  0  0  0  0  0
  146.7259  136.3480  153.9155 O   0  0  0  0  0  0  0  0  0  0  0  0
  145.8580  136.4027  152.8837 C   0  0  0  0  0  0  0  0  0  0  0  0
  145.1827  137.3968  152.6100 O   0  0  0  0  0  0  0  0  0  0  0  0
  145.8091  135.1322  152.1047 C   0  0  0  0  0  0  0  0  0  0  0  0
  146.6274  134.0466  152.4953 C   0  0  0  0  0  0  0  0  0  0  0  0
  146.5991  132.8336  151.7800 C   0  0  0  0  0  0  0  0  0  0  0  0
  145.7511  132.6908  150.6664 C   0  0  0  0  0  0  0  0  0  0  0  0
  144.9320  133.7632  150.2679 C   0  0  0  0  0  0  0  0  0  0  0  0
  144.9599  134.9775  150.9807 C   0  0  0  0  0  0  0  0  0  0  0  0
  147.5682  134.8425  160.2554 C   0  0  0  0  0  0  0  0  0  0  0  0
  147.3004  133.6080  160.8919 C   0  0  0  0  0  0  0  0  0  0  0  0
  146.9599  133.5645  162.2580 C   0  0  0  0  0  0  0  0  0  0  0  0
  146.8844  134.7549  163.0042 C   0  0  0  0  0  0  0  0  0  0  0  0
  147.1505  135.9892  162.3831 C   0  0  0  0  0  0  0  0  0  0  0  0
  147.4906  136.0347  161.0169 C   0  0  0  0  0  0  0  0  0  0  0  0
  152.9937  139.5670  155.8900 H   0  0  0  0  0  0  0  0  0  0  0  0
  148.4258  135.7769  156.3660 H   0  0  0  0  0  0  0  0  0  0  0  0
  146.8150  135.0745  156.3523 H   0  0  0  0  0  0  0  0  0  0  0  0
  145.7568  137.2919  156.5073 H   0  0  0  0  0  0  0  0  0  0  0  0
  148.2553  139.9224  155.7979 H   0  0  0  0  0  0  0  0  0  0  0  0
  149.2361  137.9341  158.4237 H   0  0  0  0  0  0  0  0  0  0  0  0
  151.3962  137.8446  159.4126 H   0  0  0  0  0  0  0  0  0  0  0  0
  148.4657  138.7380  153.7513 H   0  0  0  0  0  0  0  0  0  0  0  0
  149.1616  136.5223  153.7256 H   0  0  0  0  0  0  0  0  0  0  0  0
  146.2605  138.2754  154.4695 H   0  0  0  0  0  0  0  0  0  0  0  0
  147.2859  134.1322  153.3479 H   0  0  0  0  0  0  0  0  0  0  0  0
  147.2286  132.0114  152.0873 H   0  0  0  0  0  0  0  0  0  0  0  0
  145.7287  131.7601  150.1191 H   0  0  0  0  0  0  0  0  0  0  0  0
  144.2795  133.6551  149.4137 H   0  0  0  0  0  0  0  0  0  0  0  0
  144.3174  135.7796  150.6476 H   0  0  0  0  0  0  0  0  0  0  0  0
  147.3516  132.6808  160.3391 H   0  0  0  0  0  0  0  0  0  0  0  0
  146.7558  132.6160  162.7327 H   0  0  0  0  0  0  0  0  0  0  0  0
  146.6228  134.7214  164.0514 H   0  0  0  0  0  0  0  0  0  0  0  0
  147.0936  136.9037  162.9550 H   0  0  0  0  0  0  0  0  0  0  0  0
  147.6911  136.9986  160.5720 H   0  0  0  0  0  0  0  0  0  0  0  0
  1  2  2  0  0  0  0
  2  3  1  0  0  0  0
  2 28  1  0  0  0  0
  3  4  1  0  0  0  0
  4  5  1  0  0  0  0
  4 35  1  0  0  0  0
  4 36  1  0  0  0  0
  5 18  1  0  0  0  0
  5  6  1  0  0  0  0
  5 37  1  0  0  0  0
  6  7  1  0  0  0  0
  7  8  1  0  0  0  0
  7 16  1  0  0  0  0
  7 38  1  0  0  0  0
  8 14  1  0  0  0  0
  8  9  1  0  0  0  0
  9 10  2  0  0  0  0
  9 39  1  0  0  0  0
 10 11  1  0  0  0  0
 10 40  1  0  0  0  0
 11 12  2  0  0  0  0
 11 13  1  0  0  0  0
 13 34  1  0  0  0  0
 13 14  1  0  0  0  0
 14 15  2  0  0  0  0
 16 17  1  0  0  0  0
 16 18  1  0  0  0  0
 16 41  1  0  0  0  0
 17 42  1  0  0  0  0
 18 19  1  0  0  0  0
 18 43  1  0  0  0  0
 19 20  1  0  0  0  0
 20 21  2  0  0  0  0
 20 22  1  0  0  0  0
 22 27  1  0  0  0  0
 22 23  2  0  0  0  0
 23 24  1  0  0  0  0
 23 44  1  0  0  0  0
 24 25  2  0  0  0  0
 24 45  1  0  0  0  0
 25 26  1  0  0  0  0
 25 46  1  0  0  0  0
 26 27  2  0  0  0  0
 26 47  1  0  0  0  0
 27 48  1  0  0  0  0
 28 33  1  0  0  0  0
 28 29  2  0  0  0  0
 29 30  1  0  0  0  0
 29 49  1  0  0  0  0
 30 31  2  0  0  0  0
 30 50  1  0  0  0  0
 31 32  1  0  0  0  0
 31 51  1  0  0  0  0
 32 33  2  0  0  0  0
 32 52  1  0  0  0  0
 33 53  1  0  0  0  0
M  END
> <s_m_source_file>
AV-unprocessed.smi

> <i_m_source_file_index>
99

> <i_lp_mmshare_version>
43012

> <i_f3d_flags>
0

> <s_epik_input>
W2NIXTFbY0hdW2NIXVtjSF1bY0hdYzFDKD1PKU9bQ0gyXVtDQEBIXTJPW0NAQEhdKG4zW2NIXVtjSF1jKD1PKVtuSF1jMz1PKVtDQEBIXShbT0hdKVtDQEhdMk9DKD1PKWM0W2NIXVtjSF1bY0hdW2NIXVtjSF00

> <s_epik_cmdline>
J2VwaWtfcHl0aG9uJywgJy1waCcsICc3LjAnLCAnLXRuJywgJzgnLCAnLW1hJywgJzIwMCcsICctbWV0YWxfYmluZGluZycsICctaW1hZScsICc8aW5maWxlLm1hZT4nLCAnLW9tYWUnLCAnPG91dGZpbGUubWFlPic=

> <r_lp_tautomer_probability>
1

> <r_epik_Ionization_Penalty>
0.00454555

> <r_epik_Ionization_Penalty_Charging>
0.0045191

> <r_epik_Ionization_Penalty_Neutral>
2.64449e-05

> <r_epik_State_Penalty>
-0

> <r_epik_Charging_Adjusted_Penalty>
0.0045191

> <i_epik_Tot_Q>
0

> <i_epik_Tot_abs_Q>
0

> <r_epik_Metal_State_Penalty>
1.27877

> <b_epik_Metal_Only>
0

> <s_epik_Chemistry_Notes>
This compound has an ester and may undergo hydrolysis at high or low pH. This compound contains an acetal/aminal-like group ( X-CH(R)-Y where X, Y are N, S, or O) that may be acid/base labile, releasing an aldehyde.

> <s_lp_Force_Field>
OPLS_2005

> <r_lp_Energy>
46.8901

> <b_lp_Chiralities_Consistent>
1

> <s_lp_Variant>
AV-unprocessed.smi:99-2

> <Gold.Version>
5.8.1

> <Gold.Id.Protein>
6NUR|6NUR_protein|mol2

> <Gold.PLP.Fitness>
53.7352

> <Gold.PLP.PLP>
-44.3228

> <Gold.PLP.part.hbond>
-3.9796

> <Gold.PLP.part.metal>
0.0000

> <Gold.PLP.part.buried>
-6.3930

> <Gold.PLP.part.nonpolar>
-35.0571

> <Gold.PLP.part.repulsive>
1.4929

> <Gold.PLP.ligand.clash>
0.0000

> <Gold.PLP.ligand.torsion>
1.4869

> <Gold.PLP.Chemscore.Hbond>
4.0000

> <Gold.PLP.Chemscore.CHOScore>
0.0000

> <Gold.PLP.Chemscore.Metal>
0.0000

> <Gold.Chemscore.Hbonds>
donor molecule, donor type, donor heavy atom, donor atom, acceptor molecule, acceptor atom, score
      L1  H    17    42       P1  7948  1.00
      P1  H  6896  6908       L1     1  0.39
      P1  H  7989  7998       L1    15  1.00
      P1  H  7997  8010       L1    12  1.00

> <Gold.PLP.Chemscore.Internal.Correction>
0.3862

> <Gold.Rescore>
     Score         DG    S(hbond)    S(metal)    S(lipo)     H(rot)  DE(clash)    DE(int)     intcor
     19.40     -20.99       3.89        0.00      91.25       3.19       0.05       1.54       ----

> <Gold.Chemscore.Fitness>
19.3952

> <Gold.Chemscore.DG>
-20.9859

> <Gold.Chemscore.ZeroCoef>
-5.4800

> <Gold.Chemscore.Hbond>
3.8913

> <Gold.Chemscore.Metal>
0.0000

> <Gold.Chemscore.Lipo>
91.2487

> <Gold.Chemscore.Internal_Hbond>
0.0000

> <Gold.Chemscore.DEClash>
0.0471

> <Gold.Chemscore.DEInternal>
1.5436

> <Gold.Chemscore.Rot>
3.1903

> <Gold.Chemscore.Internal.Correction>
   9.000000E+99

> <Gold.Chemscore.Hbonds>
donor molecule, donor type, donor heavy atom, donor atom, acceptor molecule, acceptor atom, score
      L1  H    17    42       P1  7948  0.95
      P1  H  6896  6908       L1     1  0.24
      P1  H  7989  7998       L1    15  1.00
      P1  H  7997  8010       L1    12  0.59

> <Gold.Chemscore.Hbond.Weighted>
-12.9969

> <Gold.Chemscore.Metal.Weighted>
-0.0000

> <Gold.Chemscore.Lipo.Weighted>
-10.6761

> <Gold.Chemscore.Internal_Hbond.Weighted>
0.0000

> <Gold.Chemscore.DEClash.Weighted>
0.0471

> <Gold.Chemscore.DEInternal.Weighted>
1.5436

> <Gold.Chemscore.Rot.Weighted>
8.1671

> <Gold.Chemscore.Internal.Correction.Weighted>
   9.000000E+99

> <Gold.Protein.RotatedTorsions>
[ 6907 6896 6895 6894 ] final  138.67 input  -60.11 | X-H torsion
[ 7974 7965 7964 7962 ] final  -32.71 input  175.53 | X-H torsion
[ 8008 7997 7996 7995 ] final   29.54 input   59.86 | X-H torsion
[ 10167 10162 10161 10158 ] final -140.76 input  -65.29 | X-H torsion
[ 10718 10713 10712 10709 ] final -123.33 input   66.30 | X-H torsion
[ 10763 10752 10751 10750 ] final -103.08 input  -60.55 | X-H torsion
[ 11005 11000 10999 10996 ] final  116.79 input  -57.11 | X-H torsion

> <Gold.Protein.ActiveResidues>
 VAL166  LYS551  ARG553  GLY616  TRP617  ASP618  TYR619  PRO620  LYS621  CYS622 
 ASP623  PHE694  ASN695  SER759  ASP760  ASP761  ALA762  ILE779  LEU786  VAL792 
 PHE793  MET794  SER795  GLU796  ALA797  LYS798  CYS799  TRP800  GLU811  SER814 

> <Gold.Protein.RotatedAtoms>
  152.2639  133.5321  159.5397 H   0  0  0  0  0  0  0  0  0  0  0  0  # atno 6907 bound_to 6896
  150.7135  134.0792  159.3901 H   0  0  0  0  0  0  0  0  0  0  0  0  # atno 6908 bound_to 6896
  151.8709  135.0490  160.0530 H   0  0  0  0  0  0  0  0  0  0  0  0  # atno 6909 bound_to 6896
  146.0968  140.5827  142.8839 H   0  0  0  0  0  0  0  0  0  0  0  0  # atno 7974 bound_to 7965
  155.0761  140.3205  155.4615 H   0  0  0  0  0  0  0  0  0  0  0  0  # atno 8008 bound_to 7997
  156.2779  140.2103  156.5834 H   0  0  0  0  0  0  0  0  0  0  0  0  # atno 8009 bound_to 7997
  154.7016  140.0506  157.0451 H   0  0  0  0  0  0  0  0  0  0  0  0  # atno 8010 bound_to 7997
  139.8251  143.7522  152.2666 H   0  0  0  0  0  0  0  0  0  0  0  0  # atno 10167 bound_to 10162
  156.1493  130.6523  150.9889 H   0  0  0  0  0  0  0  0  0  0  0  0  # atno 10718 bound_to 10713
  154.7781  135.4836  153.9787 H   0  0  0  0  0  0  0  0  0  0  0  0  # atno 10763 bound_to 10752
  153.1456  135.6781  153.8967 H   0  0  0  0  0  0  0  0  0  0  0  0  # atno 10764 bound_to 10752
  153.8627  135.3153  155.3417 H   0  0  0  0  0  0  0  0  0  0  0  0  # atno 10765 bound_to 10752
  139.9053  134.9602  156.7251 H   0  0  0  0  0  0  0  0  0  0  0  0  # atno 11005 bound_to 11000
  144.7401  140.4919  143.6875 LP  0  0  0  0  0  0  0  0  0  0  0  0  # atno 17320 bound_to 7965
  145.5932  139.1497  143.3170 LP  0  0  0  0  0  0  0  0  0  0  0  0  # atno 17321 bound_to 7965
  139.7712  144.7476  151.0221 LP  0  0  0  0  0  0  0  0  0  0  0  0  # atno 17342 bound_to 10162
  140.7811  143.4643  151.0234 LP  0  0  0  0  0  0  0  0  0  0  0  0  # atno 17343 bound_to 10162
  157.6643  131.0874  150.7765 LP  0  0  0  0  0  0  0  0  0  0  0  0  # atno 17370 bound_to 10713
  156.7834  130.4866  149.5397 LP  0  0  0  0  0  0  0  0  0  0  0  0  # atno 17371 bound_to 10713
  140.6969  133.9340  155.8000 LP  0  0  0  0  0  0  0  0  0  0  0  0  # atno 17394 bound_to 11000
  141.0400  134.0635  157.3913 LP  0  0  0  0  0  0  0  0  0  0  0  0  # atno 17395 bound_to 11000

$$$$
