AV-unprocessed.smi:769|AV-procd|sdf|3677|dock9
  -GOLD-   22720 1 93D 1   1.00000     0.00000
 Structure written by MMmdl.
 51 53  0  0  0  0  0  0  0  0  3 V2000
  145.4400  137.3427  154.1284 O   0  0  0  0  0  0  0  0  0  0  0  0
  146.4514  137.0184  153.5066 C   0  0  0  0  0  0  0  0  0  0  0  0
  147.6629  137.5373  153.7533 N   0  0  0  0  0  0  0  0  0  0  0  0
  147.9537  138.5165  154.7949 C   0  0  0  0  0  0  0  0  0  0  0  0
  148.2184  139.9154  154.2041 C   0  0  0  0  0  0  0  0  0  0  0  0
  149.5363  140.4651  154.6094 N   0  3  0  0  0  0  0  0  0  0  0  0
  149.4273  141.3650  155.7899 C   0  0  0  0  0  0  0  0  0  0  0  0
  150.7992  141.9291  156.2038 C   0  0  0  0  0  0  0  0  0  0  0  0
  151.7180  140.8121  156.4397 N   0  0  0  0  0  0  0  0  0  0  0  0
  152.2028  140.5039  157.6674 C   0  0  0  0  0  0  0  0  0  0  0  0
  152.8975  139.5056  157.8613 O   0  0  0  0  0  0  0  0  0  0  0  0
  151.9117  141.4565  158.8473 C   0  0  0  0  0  0  0  0  0  0  0  0
  152.4085  142.9087  158.6983 C   0  0  0  0  0  0  0  0  0  0  0  0
  153.5995  142.5763  159.6020 C   0  0  0  0  0  0  0  0  0  0  0  0
  152.8779  141.2955  160.0334 C   0  0  0  0  0  0  0  0  0  0  0  0
  151.9276  140.0370  155.2136 C   0  0  0  0  0  0  0  0  0  0  0  0
  150.5862  139.4206  154.7770 C   0  0  0  0  0  0  0  0  0  0  0  0
  146.4952  136.1311  152.4973 N   0  0  0  0  0  0  0  0  0  0  0  0
  145.4376  135.3571  151.9447 C   0  0  0  0  0  0  0  0  0  0  0  0
  144.2015  135.3620  152.6289 C   0  0  0  0  0  0  0  0  0  0  0  0
  143.1172  134.6223  152.1144 C   0  0  0  0  0  0  0  0  0  0  0  0
  143.2641  133.9227  150.9693 N   0  3  0  0  0  0  0  0  0  0  0  0
  144.4203  133.8975  150.2726 C   0  0  0  0  0  0  0  0  0  0  0  0
  145.5394  134.6184  150.7378 C   0  0  0  0  0  0  0  0  0  0  0  0
  148.4423  137.2202  153.1947 H   0  0  0  0  0  0  0  0  0  0  0  0
  147.1271  138.5313  155.5059 H   0  0  0  0  0  0  0  0  0  0  0  0
  148.8302  138.1743  155.3458 H   0  0  0  0  0  0  0  0  0  0  0  0
  148.1847  139.8341  153.1164 H   0  0  0  0  0  0  0  0  0  0  0  0
  147.4316  140.6179  154.4834 H   0  0  0  0  0  0  0  0  0  0  0  0
  148.7495  142.1886  155.5620 H   0  0  0  0  0  0  0  0  0  0  0  0
  148.9889  140.8138  156.6238 H   0  0  0  0  0  0  0  0  0  0  0  0
  151.1999  142.5640  155.4122 H   0  0  0  0  0  0  0  0  0  0  0  0
  150.6826  142.5776  157.0731 H   0  0  0  0  0  0  0  0  0  0  0  0
  150.8607  141.4371  159.1381 H   0  0  0  0  0  0  0  0  0  0  0  0
  152.6907  143.2289  157.6949 H   0  0  0  0  0  0  0  0  0  0  0  0
  151.7256  143.6271  159.1538 H   0  0  0  0  0  0  0  0  0  0  0  0
  154.5110  142.3751  159.0375 H   0  0  0  0  0  0  0  0  0  0  0  0
  153.7713  143.2924  160.4062 H   0  0  0  0  0  0  0  0  0  0  0  0
  152.3749  141.3927  160.9965 H   0  0  0  0  0  0  0  0  0  0  0  0
  153.5094  140.4062  160.0049 H   0  0  0  0  0  0  0  0  0  0  0  0
  152.2989  140.7034  154.4337 H   0  0  0  0  0  0  0  0  0  0  0  0
  152.6850  139.2604  155.3069 H   0  0  0  0  0  0  0  0  0  0  0  0
  150.2581  138.6912  155.5195 H   0  0  0  0  0  0  0  0  0  0  0  0
  150.7335  138.8781  153.8441 H   0  0  0  0  0  0  0  0  0  0  0  0
  147.3883  136.0302  152.0372 H   0  0  0  0  0  0  0  0  0  0  0  0
  144.0815  135.9234  153.5442 H   0  0  0  0  0  0  0  0  0  0  0  0
  142.1438  134.5713  152.5805 H   0  0  0  0  0  0  0  0  0  0  0  0
  144.4148  133.3101  149.3659 H   0  0  0  0  0  0  0  0  0  0  0  0
  146.4450  134.5977  150.1517 H   0  0  0  0  0  0  0  0  0  0  0  0
  149.8436  141.0559  153.8499 H   0  0  0  0  0  0  0  0  0  0  0  0
  142.4670  133.3943  150.6130 H   0  0  0  0  0  0  0  0  0  0  0  0
  1  2  2  0  0  0  0
  2  3  1  0  0  0  0
  2 18  1  0  0  0  0
  3  4  1  0  0  0  0
  3 25  1  0  0  0  0
  4  5  1  0  0  0  0
  4 26  1  0  0  0  0
  4 27  1  0  0  0  0
  5  6  1  0  0  0  0
  5 28  1  0  0  0  0
  5 29  1  0  0  0  0
  6 17  1  0  0  0  0
  6  7  1  0  0  0  0
  6 50  1  0  0  0  0
  7  8  1  0  0  0  0
  7 30  1  0  0  0  0
  7 31  1  0  0  0  0
  8  9  1  0  0  0  0
  8 32  1  0  0  0  0
  8 33  1  0  0  0  0
  9 10  1  0  0  0  0
  9 16  1  0  0  0  0
 10 11  2  0  0  0  0
 10 12  1  0  0  0  0
 12 15  1  0  0  0  0
 12 13  1  0  0  0  0
 12 34  1  0  0  0  0
 13 14  1  0  0  0  0
 13 35  1  0  0  0  0
 13 36  1  0  0  0  0
 14 15  1  0  0  0  0
 14 37  1  0  0  0  0
 14 38  1  0  0  0  0
 15 39  1  0  0  0  0
 15 40  1  0  0  0  0
 16 17  1  0  0  0  0
 16 41  1  0  0  0  0
 16 42  1  0  0  0  0
 17 43  1  0  0  0  0
 17 44  1  0  0  0  0
 18 19  1  0  0  0  0
 18 45  1  0  0  0  0
 19 24  1  0  0  0  0
 19 20  2  0  0  0  0
 20 21  1  0  0  0  0
 20 46  1  0  0  0  0
 21 22  2  0  0  0  0
 21 47  1  0  0  0  0
 22 23  1  0  0  0  0
 22 51  1  0  0  0  0
 23 24  2  0  0  0  0
 23 48  1  0  0  0  0
 24 49  1  0  0  0  0
M  CHG  1   6   1
M  CHG  1  22   1
M  END
> <s_m_source_file>
AV-unprocessed.smi

> <i_m_source_file_index>
769

> <i_lp_mmshare_version>
43012

> <i_f3d_flags>
0

> <s_epik_input>
W2NIXTFbY0hdbltjSF1bY0hdYzFbTkhdQyg9TylbTkhdW0NIMl1bQ0gyXU4yW0NIMl1bQ0gyXU4oW0NIMl1bQ0gyXTIpQyg9TylbQ0hdM1tDSDJdW0NIMl1bQ0gyXTM=

> <s_epik_cmdline>
J2VwaWtfcHl0aG9uJywgJy1waCcsICc3LjAnLCAnLXRuJywgJzgnLCAnLW1hJywgJzIwMCcsICctbWV0YWxfYmluZGluZycsICctaW1hZScsICc8aW5maWxlLm1hZT4nLCAnLW9tYWUnLCAnPG91dGZpbGUubWFlPic=

> <r_epik_Ionization_Penalty>
1.74797

> <r_epik_Ionization_Penalty_Charging>
1.74795

> <r_epik_Ionization_Penalty_Neutral>
1.97893e-05

> <r_epik_State_Penalty>
1.75255

> <r_epik_Charging_Adjusted_Penalty>
3.5005

> <i_epik_Tot_Q>
2

> <i_epik_Tot_abs_Q>
2

> <r_epik_Metal_State_Penalty>
1.84999

> <b_epik_Metal_Only>
0

> <s_lp_Force_Field>
OPLS_2005

> <r_lp_Energy>
63.8018

> <b_lp_Chiralities_Consistent>
1

> <s_lp_Variant>
AV-unprocessed.smi:769-4

> <Gold.Version>
5.8.1

> <Gold.Id.Protein>
6NUR|6NUR_protein|mol2

> <Gold.PLP.Fitness>
49.7245

> <Gold.PLP.PLP>
-40.6302

> <Gold.PLP.part.hbond>
-4.0000

> <Gold.PLP.part.metal>
0.0000

> <Gold.PLP.part.buried>
-2.6504

> <Gold.PLP.part.nonpolar>
-33.5315

> <Gold.PLP.part.repulsive>
0.2691

> <Gold.PLP.ligand.clash>
0.0000

> <Gold.PLP.ligand.torsion>
1.1462

> <Gold.PLP.Chemscore.Hbond>
3.6577

> <Gold.PLP.Chemscore.CHOScore>
0.0000

> <Gold.PLP.Chemscore.Metal>
0.0000

> <Gold.Chemscore.Hbonds>
donor molecule, donor type, donor heavy atom, donor atom, acceptor molecule, acceptor atom, score
      L1  H     3    25       P1  7948  0.94
      L1  H    18    45       P1  7948  1.00
      L1  H    22    51       P1 10186  0.66
      P1  H  7997  8009       L1    11  1.00

> <Gold.PLP.Chemscore.Internal.Correction>
0.4136

> <Gold.Rescore>
     Score         DG    S(hbond)    S(metal)    S(lipo)     H(rot)  DE(clash)    DE(int)     intcor
     19.18     -23.14       2.95        0.00     105.33       1.76       1.43       2.52       ----

> <Gold.Chemscore.Fitness>
19.1811

> <Gold.Chemscore.DG>
-23.1388

> <Gold.Chemscore.ZeroCoef>
-5.4800

> <Gold.Chemscore.Hbond>
2.9475

> <Gold.Chemscore.Metal>
0.0000

> <Gold.Chemscore.Lipo>
105.3262

> <Gold.Chemscore.Internal_Hbond>
0.0000

> <Gold.Chemscore.DEClash>
1.4342

> <Gold.Chemscore.DEInternal>
2.5235

> <Gold.Chemscore.Rot>
1.7614

> <Gold.Chemscore.Internal.Correction>
   9.000000E+99

> <Gold.Chemscore.Hbonds>
donor molecule, donor type, donor heavy atom, donor atom, acceptor molecule, acceptor atom, score
      L1  H     3    25       P1  7948  0.91
      L1  H    18    45       P1  7948  0.96
      L1  H    22    51       P1 10186  0.31
      P1  H  7997  8009       L1    11  0.37

> <Gold.Chemscore.Hbond.Weighted>
-9.8448

> <Gold.Chemscore.Metal.Weighted>
-0.0000

> <Gold.Chemscore.Lipo.Weighted>
-12.3232

> <Gold.Chemscore.Internal_Hbond.Weighted>
0.0000

> <Gold.Chemscore.DEClash.Weighted>
1.4342

> <Gold.Chemscore.DEInternal.Weighted>
2.5235

> <Gold.Chemscore.Rot.Weighted>
4.5091

> <Gold.Chemscore.Internal.Correction.Weighted>
   9.000000E+99

> <Gold.Protein.RotatedTorsions>
[ 6907 6896 6895 6894 ] final  108.01 input  -60.11 | X-H torsion
[ 7974 7965 7964 7962 ] final  167.26 input  175.53 | X-H torsion
[ 8008 7997 7996 7995 ] final  147.07 input   59.86 | X-H torsion
[ 10167 10162 10161 10158 ] final   95.07 input  -65.29 | X-H torsion
[ 10718 10713 10712 10709 ] final  -56.18 input   66.30 | X-H torsion
[ 10763 10752 10751 10750 ] final  130.69 input  -60.55 | X-H torsion
[ 11005 11000 10999 10996 ] final -159.96 input  -57.11 | X-H torsion

> <Gold.Protein.ActiveResidues>
 VAL166  LYS551  ARG553  GLY616  TRP617  ASP618  TYR619  PRO620  LYS621  CYS622 
 ASP623  PHE694  ASN695  SER759  ASP760  ASP761  ALA762  ILE779  LEU786  VAL792 
 PHE793  MET794  SER795  GLU796  ALA797  LYS798  CYS799  TRP800  GLU811  SER814 

> <Gold.Protein.RotatedAtoms>
  152.5130  133.9151  159.7506 H   0  0  0  0  0  0  0  0  0  0  0  0  # atno 6907 bound_to 6896
  150.9536  133.6514  159.2774 H   0  0  0  0  0  0  0  0  0  0  0  0  # atno 6908 bound_to 6896
  151.3784  135.0940  159.9541 H   0  0  0  0  0  0  0  0  0  0  0  0  # atno 6909 bound_to 6896
  144.7431  139.8736  143.6391 H   0  0  0  0  0  0  0  0  0  0  0  0  # atno 7974 bound_to 7965
  156.2836  140.2165  156.5479 H   0  0  0  0  0  0  0  0  0  0  0  0  # atno 8008 bound_to 7997
  154.7316  140.0495  157.0754 H   0  0  0  0  0  0  0  0  0  0  0  0  # atno 8009 bound_to 7997
  155.0347  140.3139  155.4749 H   0  0  0  0  0  0  0  0  0  0  0  0  # atno 8010 bound_to 7997
  139.8024  144.6808  150.9748 H   0  0  0  0  0  0  0  0  0  0  0  0  # atno 10167 bound_to 10162
  156.1309  130.4159  150.0271 H   0  0  0  0  0  0  0  0  0  0  0  0  # atno 10718 bound_to 10713
  153.7621  135.3194  155.3338 H   0  0  0  0  0  0  0  0  0  0  0  0  # atno 10763 bound_to 10752
  154.8226  135.4592  154.0828 H   0  0  0  0  0  0  0  0  0  0  0  0  # atno 10764 bound_to 10752
  153.2062  135.6929  153.8254 H   0  0  0  0  0  0  0  0  0  0  0  0  # atno 10765 bound_to 10752
  140.6367  134.4594  157.5232 H   0  0  0  0  0  0  0  0  0  0  0  0  # atno 11005 bound_to 11000
  146.1263  139.4289  143.0197 LP  0  0  0  0  0  0  0  0  0  0  0  0  # atno 17320 bound_to 7965
  145.7230  141.0068  143.1392 LP  0  0  0  0  0  0  0  0  0  0  0  0  # atno 17321 bound_to 7965
  140.7820  143.4268  151.0755 LP  0  0  0  0  0  0  0  0  0  0  0  0  # atno 17342 bound_to 10162
  139.7939  143.8179  152.3155 LP  0  0  0  0  0  0  0  0  0  0  0  0  # atno 17343 bound_to 10162
  156.8184  130.9350  151.3642 LP  0  0  0  0  0  0  0  0  0  0  0  0  # atno 17370 bound_to 10713
  157.6486  130.8865  149.9589 LP  0  0  0  0  0  0  0  0  0  0  0  0  # atno 17371 bound_to 10713
  139.9095  134.8375  156.1580 LP  0  0  0  0  0  0  0  0  0  0  0  0  # atno 17394 bound_to 11000
  141.0636  133.6830  156.2001 LP  0  0  0  0  0  0  0  0  0  0  0  0  # atno 17395 bound_to 11000

$$$$
