AV-unprocessed.smi:1919|AV-procd|sdf|7773|dock5
  -GOLD-   22720 9513D 1   1.00000     0.00000
 Structure written by MMmdl.
 36 38  0  0  0  0  0  0  0  0  1 V2000
  152.7566  139.2801  156.8749 O   0  0  0  0  0  0  0  0  0  0  0  0
  152.2080  139.3582  158.1726 C   0  0  0  0  0  0  0  0  0  0  0  0
  152.0887  140.7650  158.6761 C   0  0  0  0  0  0  0  0  0  0  0  0
  152.6736  141.1527  159.8103 N   0  0  0  0  0  0  0  0  0  0  0  0
  152.3419  142.4911  159.8830 C   0  0  0  0  0  0  0  0  0  0  0  0
  152.6666  143.4664  160.8530 C   0  0  0  0  0  0  0  0  0  0  0  0
  152.2165  144.7951  160.7079 C   0  0  0  0  0  0  0  0  0  0  0  0
  151.4376  145.1671  159.5931 C   0  0  0  0  0  0  0  0  0  0  0  0
  151.1013  144.2103  158.6164 C   0  0  0  0  0  0  0  0  0  0  0  0
  151.5501  142.8841  158.7677 C   0  0  0  0  0  0  0  0  0  0  0  0
  151.3948  141.7258  158.0122 N   0  0  0  0  0  0  0  0  0  0  0  0
  150.6492  141.6178  156.7638 C   0  0  0  0  0  0  0  0  0  0  0  0
  149.2681  140.9555  156.9474 C   0  0  2  0  0  0  0  0  0  0  0  0
  149.4083  139.5508  157.0308 O   0  0  0  0  0  0  0  0  0  0  0  0
  148.3068  141.3780  155.8477 C   0  0  0  0  0  0  0  0  0  0  0  0
  148.5816  141.0810  154.4942 C   0  0  0  0  0  0  0  0  0  0  0  0
  147.6895  141.4884  153.4831 C   0  0  0  0  0  0  0  0  0  0  0  0
  146.5200  142.1972  153.8187 C   0  0  0  0  0  0  0  0  0  0  0  0
  146.2440  142.5006  155.1656 C   0  0  0  0  0  0  0  0  0  0  0  0
  145.1223  143.1862  155.4889 F   0  0  0  0  0  0  0  0  0  0  0  0
  147.1353  142.0929  156.1769 C   0  0  0  0  0  0  0  0  0  0  0  0
  152.9509  138.3752  156.6853 H   0  0  0  0  0  0  0  0  0  0  0  0
  151.2195  138.8976  158.1554 H   0  0  0  0  0  0  0  0  0  0  0  0
  152.8107  138.7694  158.8639 H   0  0  0  0  0  0  0  0  0  0  0  0
  153.2646  143.1920  161.7094 H   0  0  0  0  0  0  0  0  0  0  0  0
  152.4722  145.5326  161.4544 H   0  0  0  0  0  0  0  0  0  0  0  0
  151.0987  146.1872  159.4882 H   0  0  0  0  0  0  0  0  0  0  0  0
  150.5063  144.4929  157.7609 H   0  0  0  0  0  0  0  0  0  0  0  0
  150.5250  142.6255  156.3650 H   0  0  0  0  0  0  0  0  0  0  0  0
  151.2335  141.0704  156.0252 H   0  0  0  0  0  0  0  0  0  0  0  0
  148.8446  141.2738  157.9004 H   0  0  0  0  0  0  0  0  0  0  0  0
  150.0384  139.3514  157.7062 H   0  0  0  0  0  0  0  0  0  0  0  0
  149.4792  140.5426  154.2268 H   0  0  0  0  0  0  0  0  0  0  0  0
  147.9037  141.2590  152.4496 H   0  0  0  0  0  0  0  0  0  0  0  0
  145.8364  142.5098  153.0432 H   0  0  0  0  0  0  0  0  0  0  0  0
  146.9173  142.3341  157.2071 H   0  0  0  0  0  0  0  0  0  0  0  0
  1  2  1  0  0  0  0
  1 22  1  0  0  0  0
  2  3  1  0  0  0  0
  2 23  1  0  0  0  0
  2 24  1  0  0  0  0
  3 11  1  0  0  0  0
  3  4  2  0  0  0  0
  4  5  1  0  0  0  0
  5 10  2  0  0  0  0
  5  6  1  0  0  0  0
  6  7  2  0  0  0  0
  6 25  1  0  0  0  0
  7  8  1  0  0  0  0
  7 26  1  0  0  0  0
  8  9  2  0  0  0  0
  8 27  1  0  0  0  0
  9 10  1  0  0  0  0
  9 28  1  0  0  0  0
 10 11  1  0  0  0  0
 11 12  1  0  0  0  0
 12 13  1  0  0  0  0
 12 29  1  0  0  0  0
 12 30  1  0  0  0  0
 13 14  1  0  0  0  0
 13 15  1  0  0  0  0
 13 31  1  0  0  0  0
 14 32  1  0  0  0  0
 15 21  1  0  0  0  0
 15 16  2  0  0  0  0
 16 17  1  0  0  0  0
 16 33  1  0  0  0  0
 17 18  2  0  0  0  0
 17 34  1  0  0  0  0
 18 19  1  0  0  0  0
 18 35  1  0  0  0  0
 19 20  1  0  0  0  0
 19 21  2  0  0  0  0
 21 36  1  0  0  0  0
M  END
> <s_m_source_file>
AV-unprocessed.smi

> <i_m_source_file_index>
1919

> <i_lp_mmshare_version>
43012

> <i_f3d_flags>
0

> <s_epik_input>
W2NIXTFbY0hdW2NIXVtjSF1jKGMxMiluKGMobjIpW0NIMl1bT0hdKVtDSDJdW0NASF0oW09IXSljM1tjSF1bY0hdW2NIXWMoRilbY0hdMw==

> <s_epik_cmdline>
J2VwaWtfcHl0aG9uJywgJy1waCcsICc3LjAnLCAnLXRuJywgJzgnLCAnLW1hJywgJzIwMCcsICctbWV0YWxfYmluZGluZycsICctaW1hZScsICc8aW5maWxlLm1hZT4nLCAnLW9tYWUnLCAnPG91dGZpbGUubWFlPic=

> <r_epik_Ionization_Penalty>
0.0634732

> <r_epik_Ionization_Penalty_Charging>
0

> <r_epik_Ionization_Penalty_Neutral>
0.0634732

> <r_epik_State_Penalty>
0.0551572

> <r_epik_Charging_Adjusted_Penalty>
0.0551572

> <i_epik_Tot_Q>
0

> <i_epik_Tot_abs_Q>
0

> <r_epik_Metal_State_Penalty>
5.78034e-05

> <b_epik_Metal_Only>
0

> <s_lp_Force_Field>
OPLS_2005

> <r_lp_Energy>
10.9146

> <b_lp_Chiralities_Consistent>
1

> <s_lp_Variant>
AV-unprocessed.smi:1919-1

> <Gold.Version>
5.8.1

> <Gold.Id.Protein>
6NUR|6NUR_protein|mol2

> <Gold.PLP.Fitness>
47.2964

> <Gold.PLP.PLP>
-45.2115

> <Gold.PLP.part.hbond>
-1.0000

> <Gold.PLP.part.metal>
0.0000

> <Gold.PLP.part.buried>
-7.4631

> <Gold.PLP.part.nonpolar>
-36.5757

> <Gold.PLP.part.repulsive>
0.0000

> <Gold.PLP.ligand.clash>
0.0000

> <Gold.PLP.ligand.torsion>
0.4778

> <Gold.PLP.Chemscore.Hbond>
1.0000

> <Gold.PLP.Chemscore.CHOScore>
0.0000

> <Gold.PLP.Chemscore.Metal>
0.0000

> <Gold.Chemscore.Hbonds>
donor molecule, donor type, donor heavy atom, donor atom, acceptor molecule, acceptor atom, score
      P1  H  7997  8009       L1     1  1.00

> <Gold.PLP.Chemscore.Internal.Correction>
0.0404

> <Gold.Rescore>
     Score         DG    S(hbond)    S(metal)    S(lipo)     H(rot)  DE(clash)    DE(int)     intcor
     14.43     -15.25       0.92        0.00     117.45       2.75       0.24       0.59       ----

> <Gold.Chemscore.Fitness>
14.4280

> <Gold.Chemscore.DG>
-15.2544

> <Gold.Chemscore.ZeroCoef>
-5.4800

> <Gold.Chemscore.Hbond>
0.9201

> <Gold.Chemscore.Metal>
0.0000

> <Gold.Chemscore.Lipo>
117.4459

> <Gold.Chemscore.Internal_Hbond>
0.0000

> <Gold.Chemscore.DEClash>
0.2371

> <Gold.Chemscore.DEInternal>
0.5893

> <Gold.Chemscore.Rot>
2.7500

> <Gold.Chemscore.Internal.Correction>
   9.000000E+99

> <Gold.Chemscore.Hbonds>
donor molecule, donor type, donor heavy atom, donor atom, acceptor molecule, acceptor atom, score
      P1  H  7997  8009       L1     1  0.30

> <Gold.Chemscore.Hbond.Weighted>
-3.0732

> <Gold.Chemscore.Metal.Weighted>
-0.0000

> <Gold.Chemscore.Lipo.Weighted>
-13.7412

> <Gold.Chemscore.Internal_Hbond.Weighted>
0.0000

> <Gold.Chemscore.DEClash.Weighted>
0.2371

> <Gold.Chemscore.DEInternal.Weighted>
0.5893

> <Gold.Chemscore.Rot.Weighted>
7.0399

> <Gold.Chemscore.Internal.Correction.Weighted>
   9.000000E+99

> <Gold.Protein.RotatedTorsions>
[ 6907 6896 6895 6894 ] final -138.76 input  -60.11 | X-H torsion
[ 7974 7965 7964 7962 ] final  110.73 input  175.53 | X-H torsion
[ 8008 7997 7996 7995 ] final  171.90 input   59.86 | X-H torsion
[ 10167 10162 10161 10158 ] final   72.03 input  -65.29 | X-H torsion
[ 10718 10713 10712 10709 ] final -146.78 input   66.30 | X-H torsion
[ 10763 10752 10751 10750 ] final  113.40 input  -60.55 | X-H torsion
[ 11005 11000 10999 10996 ] final   24.74 input  -57.11 | X-H torsion

> <Gold.Protein.ActiveResidues>
 VAL166  LYS551  ARG553  GLY616  TRP617  ASP618  TYR619  PRO620  LYS621  CYS622 
 ASP623  PHE694  ASN695  SER759  ASP760  ASP761  ALA762  ILE779  LEU786  VAL792 
 PHE793  MET794  SER795  GLU796  ALA797  LYS798  CYS799  TRP800  GLU811  SER814 

> <Gold.Protein.RotatedAtoms>
  151.0391  133.5722  159.2652 H   0  0  0  0  0  0  0  0  0  0  0  0  # atno 6907 bound_to 6896
  151.2775  135.0703  159.9167 H   0  0  0  0  0  0  0  0  0  0  0  0  # atno 6908 bound_to 6896
  152.5360  134.0111  159.7993 H   0  0  0  0  0  0  0  0  0  0  0  0  # atno 6909 bound_to 6896
  145.2512  139.2739  143.4066 H   0  0  0  0  0  0  0  0  0  0  0  0  # atno 7974 bound_to 7965
  156.1227  140.1500  156.9182 H   0  0  0  0  0  0  0  0  0  0  0  0  # atno 8008 bound_to 7997
  154.4848  140.0868  156.7501 H   0  0  0  0  0  0  0  0  0  0  0  0  # atno 8009 bound_to 7997
  155.4400  140.3430  155.4291 H   0  0  0  0  0  0  0  0  0  0  0  0  # atno 8010 bound_to 7997
  140.0397  144.5399  150.7444 H   0  0  0  0  0  0  0  0  0  0  0  0  # atno 10167 bound_to 10162
  156.3992  130.7925  151.2134 H   0  0  0  0  0  0  0  0  0  0  0  0  # atno 10718 bound_to 10713
  153.4919  135.3657  155.2496 H   0  0  0  0  0  0  0  0  0  0  0  0  # atno 10763 bound_to 10752
  154.8751  135.3979  154.3579 H   0  0  0  0  0  0  0  0  0  0  0  0  # atno 10764 bound_to 10752
  153.4200  135.7080  153.6366 H   0  0  0  0  0  0  0  0  0  0  0  0  # atno 10765 bound_to 10752
  140.3554  134.2183  155.7676 H   0  0  0  0  0  0  0  0  0  0  0  0  # atno 11005 bound_to 11000
  146.3302  140.2903  142.8615 LP  0  0  0  0  0  0  0  0  0  0  0  0  # atno 17320 bound_to 7965
  144.9501  140.8169  143.5577 LP  0  0  0  0  0  0  0  0  0  0  0  0  # atno 17321 bound_to 7965
  140.7266  143.2642  151.4100 LP  0  0  0  0  0  0  0  0  0  0  0  0  # atno 17342 bound_to 10162
  139.6022  144.1272  152.2210 LP  0  0  0  0  0  0  0  0  0  0  0  0  # atno 17343 bound_to 10162
  157.7503  131.0292  150.4082 LP  0  0  0  0  0  0  0  0  0  0  0  0  # atno 17370 bound_to 10713
  156.4358  130.3981  149.6730 LP  0  0  0  0  0  0  0  0  0  0  0  0  # atno 17371 bound_to 10713
  141.2000  133.7998  157.0511 LP  0  0  0  0  0  0  0  0  0  0  0  0  # atno 17394 bound_to 11000
  140.0669  134.9724  157.1401 LP  0  0  0  0  0  0  0  0  0  0  0  0  # atno 17395 bound_to 11000

$$$$
