AV-unprocessed.smi:3037|AV-procd|sdf|11587|dock1
  -GOLD-   2272016563D 1   1.00000     0.00000
 Structure written by MMmdl.
 47 48  0  0  0  0  0  0  0  0  2 V2000
  142.3060  135.0969  153.7689 C   0  0  0  0  0  0  0  0  0  0  0  0
  143.4829  136.0031  153.5498 C   0  0  0  0  0  0  0  0  0  0  0  0
  143.7293  136.8673  152.4453 C   0  0  0  0  0  0  0  0  0  0  0  0
  144.8651  137.5364  152.5592 N   0  0  0  0  0  0  0  0  0  0  0  0
  145.3827  137.1235  153.7354 N   0  0  0  0  0  0  0  0  0  0  0  0
  146.6515  137.6582  154.1960 C   0  0  0  0  0  0  0  0  0  0  0  0
  147.1457  138.8503  153.3443 C   0  0  1  0  0  0  0  0  0  0  0  0
  146.8394  140.2117  153.9915 C   0  0  0  0  0  0  0  0  0  0  0  0
  148.6000  138.7519  153.0882 N   0  3  0  0  0  0  0  0  0  0  0  0
  149.4651  138.8787  154.2800 C   0  0  0  0  0  0  0  0  0  0  0  0
  150.8679  138.3112  153.9983 C   0  0  0  0  0  0  0  0  0  0  0  0
  151.6549  137.9382  155.2673 C   0  0  0  0  0  0  0  0  0  0  0  0
  151.9055  136.7514  155.4828 O   0  0  0  0  0  0  0  0  0  0  0  0
  152.0531  138.9253  156.1070 N   0  0  0  0  0  0  0  0  0  0  0  0
  151.6900  140.3345  155.9027 C   0  0  0  0  0  0  0  0  0  0  0  0
  150.6951  140.7577  156.9995 C   0  0  0  0  0  0  0  0  0  0  0  0
  151.2792  140.5057  158.4021 C   0  0  0  0  0  0  0  0  0  0  0  0
  151.8237  139.0717  158.5406 C   0  0  0  0  0  0  0  0  0  0  0  0
  152.7700  138.7304  157.3755 C   0  0  0  0  0  0  0  0  0  0  0  0
  144.5683  136.2002  154.3556 C   0  0  0  0  0  0  0  0  0  0  0  0
  141.6531  135.0619  152.8967 H   0  0  0  0  0  0  0  0  0  0  0  0
  141.6981  135.4250  154.6122 H   0  0  0  0  0  0  0  0  0  0  0  0
  142.6194  134.0735  153.9764 H   0  0  0  0  0  0  0  0  0  0  0  0
  143.1189  137.0271  151.5688 H   0  0  0  0  0  0  0  0  0  0  0  0
  146.5477  137.9588  155.2402 H   0  0  0  0  0  0  0  0  0  0  0  0
  147.3746  136.8431  154.1799 H   0  0  0  0  0  0  0  0  0  0  0  0
  146.6333  138.8302  152.3813 H   0  0  0  0  0  0  0  0  0  0  0  0
  145.7668  140.3764  154.0954 H   0  0  0  0  0  0  0  0  0  0  0  0
  147.2308  141.0303  153.3868 H   0  0  0  0  0  0  0  0  0  0  0  0
  147.2857  140.2879  154.9837 H   0  0  0  0  0  0  0  0  0  0  0  0
  148.7757  137.8407  152.6890 H   0  0  0  0  0  0  0  0  0  0  0  0
  149.5394  139.9272  154.5699 H   0  0  0  0  0  0  0  0  0  0  0  0
  149.0040  138.3422  155.1109 H   0  0  0  0  0  0  0  0  0  0  0  0
  150.7703  137.4208  153.3756 H   0  0  0  0  0  0  0  0  0  0  0  0
  151.4443  139.0443  153.4326 H   0  0  0  0  0  0  0  0  0  0  0  0
  152.5890  140.9503  155.9537 H   0  0  0  0  0  0  0  0  0  0  0  0
  151.2573  140.5248  154.9198 H   0  0  0  0  0  0  0  0  0  0  0  0
  150.4370  141.8111  156.8866 H   0  0  0  0  0  0  0  0  0  0  0  0
  149.7663  140.1972  156.8843 H   0  0  0  0  0  0  0  0  0  0  0  0
  152.0901  141.2127  158.5819 H   0  0  0  0  0  0  0  0  0  0  0  0
  150.5260  140.7000  159.1661 H   0  0  0  0  0  0  0  0  0  0  0  0
  152.3441  138.9615  159.4924 H   0  0  0  0  0  0  0  0  0  0  0  0
  150.9937  138.3641  158.5565 H   0  0  0  0  0  0  0  0  0  0  0  0
  153.1706  137.7267  157.5070 H   0  0  0  0  0  0  0  0  0  0  0  0
  153.6380  139.3910  157.3985 H   0  0  0  0  0  0  0  0  0  0  0  0
  144.8262  135.7630  155.3089 H   0  0  0  0  0  0  0  0  0  0  0  0
  148.8601  139.4533  152.4093 H   0  0  0  0  0  0  0  0  0  0  0  0
  1  2  1  0  0  0  0
  1 21  1  0  0  0  0
  1 22  1  0  0  0  0
  1 23  1  0  0  0  0
  2 20  2  0  0  0  0
  2  3  1  0  0  0  0
  3  4  2  0  0  0  0
  3 24  1  0  0  0  0
  4  5  1  0  0  0  0
  5  6  1  0  0  0  0
  5 20  1  0  0  0  0
  6  7  1  0  0  0  0
  6 25  1  0  0  0  0
  6 26  1  0  0  0  0
  7  8  1  0  0  0  0
  7  9  1  0  0  0  0
  7 27  1  0  0  0  0
  8 28  1  0  0  0  0
  8 29  1  0  0  0  0
  8 30  1  0  0  0  0
  9 10  1  0  0  0  0
  9 31  1  0  0  0  0
  9 47  1  0  0  0  0
 10 11  1  0  0  0  0
 10 32  1  0  0  0  0
 10 33  1  0  0  0  0
 11 12  1  0  0  0  0
 11 34  1  0  0  0  0
 11 35  1  0  0  0  0
 12 13  2  0  0  0  0
 12 14  1  0  0  0  0
 14 19  1  0  0  0  0
 14 15  1  0  0  0  0
 15 16  1  0  0  0  0
 15 36  1  0  0  0  0
 15 37  1  0  0  0  0
 16 17  1  0  0  0  0
 16 38  1  0  0  0  0
 16 39  1  0  0  0  0
 17 18  1  0  0  0  0
 17 40  1  0  0  0  0
 17 41  1  0  0  0  0
 18 19  1  0  0  0  0
 18 42  1  0  0  0  0
 18 43  1  0  0  0  0
 19 44  1  0  0  0  0
 19 45  1  0  0  0  0
 20 46  1  0  0  0  0
M  CHG  1   9   1
M  END
> <s_m_source_file>
AV-unprocessed.smi

> <i_m_source_file_index>
3037

> <i_lp_mmshare_version>
43012

> <i_f3d_flags>
0

> <s_epik_input>
W0NIM11jMVtjSF1ubihbY0hdMSlbQ0gyXVtDQEhdKFtDSDNdKVtOSF1bQ0gyXVtDSDJdQyg9TylOMltDSDJdW0NIMl1bQ0gyXVtDSDJdW0NIMl0y

> <s_epik_cmdline>
J2VwaWtfcHl0aG9uJywgJy1waCcsICc3LjAnLCAnLXRuJywgJzgnLCAnLW1hJywgJzIwMCcsICctbWV0YWxfYmluZGluZycsICctaW1hZScsICc8aW5maWxlLm1hZT4nLCAnLW9tYWUnLCAnPG91dGZpbGUubWFlPic=

> <r_lp_tautomer_probability>
1

> <r_epik_Ionization_Penalty>
0.00574983

> <r_epik_Ionization_Penalty_Charging>
0.00574185

> <r_epik_Ionization_Penalty_Neutral>
7.97936e-06

> <r_epik_State_Penalty>
0.00421386

> <r_epik_Charging_Adjusted_Penalty>
0.00995571

> <i_epik_Tot_Q>
1

> <i_epik_Tot_abs_Q>
1

> <r_epik_Metal_State_Penalty>
-0

> <b_epik_Metal_Only>
0

> <s_lp_Force_Field>
OPLS_2005

> <r_lp_Energy>
26.5412

> <b_lp_Chiralities_Consistent>
1

> <s_lp_Variant>
AV-unprocessed.smi:3037-2

> <Gold.Version>
5.8.1

> <Gold.Id.Protein>
6NUR|6NUR_protein|mol2

> <Gold.PLP.Fitness>
43.7554

> <Gold.PLP.PLP>
-30.9506

> <Gold.PLP.part.hbond>
-2.9726

> <Gold.PLP.part.metal>
0.0000

> <Gold.PLP.part.buried>
-5.1164

> <Gold.PLP.part.nonpolar>
-23.7776

> <Gold.PLP.part.repulsive>
0.4378

> <Gold.PLP.ligand.clash>
0.0000

> <Gold.PLP.ligand.torsion>
0.9084

> <Gold.PLP.Chemscore.Hbond>
4.0000

> <Gold.PLP.Chemscore.CHOScore>
0.8203

> <Gold.PLP.Chemscore.Metal>
0.0000

> <Gold.Chemscore.Hbonds>
donor molecule, donor type, donor heavy atom, donor atom, acceptor molecule, acceptor atom, score
      L1  H     9    31       P1  7948  2.00
      L1  H     9    47       P1  7957  1.00
      P1  H 10752 10763       L1    13  1.00
      L1  C     3    24       P1 10171  0.82

> <Gold.PLP.Chemscore.Internal.Correction>
0.1608

> <Gold.Rescore>
     Score         DG    S(hbond)    S(metal)    S(lipo)     H(rot)  DE(clash)    DE(int)     intcor
     17.78     -18.64       2.97        0.00      67.85       1.84       0.02       0.85       ----

> <Gold.Chemscore.Fitness>
17.7785

> <Gold.Chemscore.DG>
-18.6428

> <Gold.Chemscore.ZeroCoef>
-5.4800

> <Gold.Chemscore.Hbond>
2.9731

> <Gold.Chemscore.Metal>
0.0000

> <Gold.Chemscore.Lipo>
67.8535

> <Gold.Chemscore.Internal_Hbond>
0.0000

> <Gold.Chemscore.DEClash>
0.0159

> <Gold.Chemscore.DEInternal>
0.8484

> <Gold.Chemscore.Rot>
1.8383

> <Gold.Chemscore.Internal.Correction>
   9.000000E+99

> <Gold.Chemscore.Hbonds>
donor molecule, donor type, donor heavy atom, donor atom, acceptor molecule, acceptor atom, score
      L1  H     9    31       P1  7948  1.00
      L1  H     9    47       P1  7957  0.95
      P1  H 10752 10763       L1    13  0.99

> <Gold.Chemscore.Hbond.Weighted>
-9.9301

> <Gold.Chemscore.Metal.Weighted>
-0.0000

> <Gold.Chemscore.Lipo.Weighted>
-7.9389

> <Gold.Chemscore.Internal_Hbond.Weighted>
0.0000

> <Gold.Chemscore.DEClash.Weighted>
0.0159

> <Gold.Chemscore.DEInternal.Weighted>
0.8484

> <Gold.Chemscore.Rot.Weighted>
4.7062

> <Gold.Chemscore.Internal.Correction.Weighted>
   9.000000E+99

> <Gold.Protein.RotatedTorsions>
[ 6907 6896 6895 6894 ] final -136.04 input  -60.11 | X-H torsion
[ 7974 7965 7964 7962 ] final  160.53 input  175.53 | X-H torsion
[ 8008 7997 7996 7995 ] final  117.18 input   59.86 | X-H torsion
[ 10167 10162 10161 10158 ] final  -27.04 input  -65.29 | X-H torsion
[ 10718 10713 10712 10709 ] final  -88.78 input   66.30 | X-H torsion
[ 10763 10752 10751 10750 ] final   70.18 input  -60.55 | X-H torsion
[ 11005 11000 10999 10996 ] final    2.49 input  -57.11 | X-H torsion

> <Gold.Protein.ActiveResidues>
 VAL166  LYS551  ARG553  GLY616  TRP617  ASP618  TYR619  PRO620  LYS621  CYS622 
 ASP623  PHE694  ASN695  SER759  ASP760  ASP761  ALA762  ILE779  LEU786  VAL792 
 PHE793  MET794  SER795  GLU796  ALA797  LYS798  CYS799  TRP800  GLU811  SER814 

> <Gold.Protein.RotatedAtoms>
  151.0053  133.6017  159.2689 H   0  0  0  0  0  0  0  0  0  0  0  0  # atno 6907 bound_to 6896
  151.3189  135.0812  159.9308 H   0  0  0  0  0  0  0  0  0  0  0  0  # atno 6908 bound_to 6896
  152.5285  133.9704  159.7813 H   0  0  0  0  0  0  0  0  0  0  0  0  # atno 6909 bound_to 6896
  144.7732  139.7770  143.6289 H   0  0  0  0  0  0  0  0  0  0  0  0  # atno 7974 bound_to 7965
  156.2480  140.2902  156.0638 H   0  0  0  0  0  0  0  0  0  0  0  0  # atno 8008 bound_to 7997
  155.1746  140.0402  157.2887 H   0  0  0  0  0  0  0  0  0  0  0  0  # atno 8009 bound_to 7997
  154.6302  140.2497  155.7450 H   0  0  0  0  0  0  0  0  0  0  0  0  # atno 8010 bound_to 7997
  140.7279  143.4127  151.1079 H   0  0  0  0  0  0  0  0  0  0  0  0  # atno 10167 bound_to 10162
  155.9983  130.4848  150.5071 H   0  0  0  0  0  0  0  0  0  0  0  0  # atno 10718 bound_to 10713
  153.0327  135.5183  154.7402 H   0  0  0  0  0  0  0  0  0  0  0  0  # atno 10763 bound_to 10752
  154.6403  135.2911  155.0113 H   0  0  0  0  0  0  0  0  0  0  0  0  # atno 10764 bound_to 10752
  154.1033  135.6633  153.4924 H   0  0  0  0  0  0  0  0  0  0  0  0  # atno 10765 bound_to 10752
  140.6037  133.9812  155.8144 H   0  0  0  0  0  0  0  0  0  0  0  0  # atno 11005 bound_to 11000
  146.1894  139.5126  142.9815 LP  0  0  0  0  0  0  0  0  0  0  0  0  # atno 17320 bound_to 7965
  145.6262  141.0313  143.1888 LP  0  0  0  0  0  0  0  0  0  0  0  0  # atno 17321 bound_to 7965
  139.7762  143.8421  152.3130 LP  0  0  0  0  0  0  0  0  0  0  0  0  # atno 17342 bound_to 10162
  139.8357  144.7233  150.9394 LP  0  0  0  0  0  0  0  0  0  0  0  0  # atno 17343 bound_to 10162
  157.3048  131.0652  151.2043 LP  0  0  0  0  0  0  0  0  0  0  0  0  # atno 17370 bound_to 10713
  157.3009  130.6842  149.6163 LP  0  0  0  0  0  0  0  0  0  0  0  0  # atno 17371 bound_to 10713
  141.0855  133.9997  157.3320 LP  0  0  0  0  0  0  0  0  0  0  0  0  # atno 17394 bound_to 11000
  139.9221  135.0201  156.8103 LP  0  0  0  0  0  0  0  0  0  0  0  0  # atno 17395 bound_to 11000

$$$$
