AV-unprocessed.smi:1668|AV-procd|sdf|6682|dock2
  -GOLD-   22720 7403D 1   1.00000     0.00000
 Structure written by MMmdl.
 44 46  0  0  0  0  0  0  0  0  1 V2000
  146.8275  140.7054  153.8222 C   0  0  0  0  0  0  0  0  0  0  0  0
  147.4665  140.6564  155.0895 O   0  0  0  0  0  0  0  0  0  0  0  0
  148.8052  140.3302  155.1287 C   0  0  0  0  0  0  0  0  0  0  0  0
  149.5746  139.9863  153.9926 C   0  0  0  0  0  0  0  0  0  0  0  0
  150.9374  139.6625  154.1257 C   0  0  0  0  0  0  0  0  0  0  0  0
  151.5683  139.6784  155.3946 C   0  0  0  0  0  0  0  0  0  0  0  0
  152.8982  139.3610  155.5826 O   0  0  0  0  0  0  0  0  0  0  0  0
  153.6459  138.8842  154.4738 C   0  0  0  0  0  0  0  0  0  0  0  0
  150.8031  140.0311  156.5333 C   0  0  0  0  0  0  0  0  0  0  0  0
  151.4443  140.0473  157.9194 C   0  0  1  0  0  0  0  0  0  0  0  0
  151.8077  138.7488  158.3488 O   0  0  0  0  0  0  0  0  0  0  0  0
  152.7015  140.9398  157.9290 C   0  0  0  0  0  0  0  0  0  0  0  0
  152.7999  141.7281  159.1560 N   0  0  0  0  0  0  0  0  0  0  0  0
  153.4044  141.3538  160.3086 C   0  0  0  0  0  0  0  0  0  0  0  0
  153.9886  140.2887  160.5060 O   0  0  0  0  0  0  0  0  0  0  0  0
  153.2487  142.3546  161.2071 N   0  0  0  0  0  0  0  0  0  0  0  0
  153.7345  142.3832  162.5815 C   0  0  0  0  0  0  0  0  0  0  0  0
  152.5157  143.3922  160.6177 C   0  0  0  0  0  0  0  0  0  0  0  0
  152.0888  144.6284  161.1320 C   0  0  0  0  0  0  0  0  0  0  0  0
  151.3506  145.4682  160.2650 C   0  0  0  0  0  0  0  0  0  0  0  0
  151.0608  145.0656  158.9351 C   0  0  0  0  0  0  0  0  0  0  0  0
  151.5036  143.8152  158.4438 C   0  0  0  0  0  0  0  0  0  0  0  0
  152.2342  143.0001  159.3261 C   0  0  0  0  0  0  0  0  0  0  0  0
  149.4322  140.3434  156.3890 C   0  0  0  0  0  0  0  0  0  0  0  0
  145.7828  140.9854  153.9570 H   0  0  0  0  0  0  0  0  0  0  0  0
  146.8471  139.7336  153.3271 H   0  0  0  0  0  0  0  0  0  0  0  0
  147.2870  141.4517  153.1728 H   0  0  0  0  0  0  0  0  0  0  0  0
  149.1414  139.9591  153.0044 H   0  0  0  0  0  0  0  0  0  0  0  0
  151.4789  139.4011  153.2296 H   0  0  0  0  0  0  0  0  0  0  0  0
  154.6679  138.6806  154.7934 H   0  0  0  0  0  0  0  0  0  0  0  0
  153.6919  139.6255  153.6749 H   0  0  0  0  0  0  0  0  0  0  0  0
  153.2311  137.9544  154.0829 H   0  0  0  0  0  0  0  0  0  0  0  0
  150.7188  140.4196  158.6432 H   0  0  0  0  0  0  0  0  0  0  0  0
  152.3619  138.3599  157.6897 H   0  0  0  0  0  0  0  0  0  0  0  0
  153.6039  140.3497  157.7605 H   0  0  0  0  0  0  0  0  0  0  0  0
  152.6535  141.6461  157.0990 H   0  0  0  0  0  0  0  0  0  0  0  0
  154.2634  143.3161  162.7776 H   0  0  0  0  0  0  0  0  0  0  0  0
  154.4199  141.5607  162.7901 H   0  0  0  0  0  0  0  0  0  0  0  0
  152.8980  142.3114  163.2769 H   0  0  0  0  0  0  0  0  0  0  0  0
  152.3130  144.9273  162.1454 H   0  0  0  0  0  0  0  0  0  0  0  0
  151.0036  146.4274  160.6196 H   0  0  0  0  0  0  0  0  0  0  0  0
  150.4963  145.7219  158.2894 H   0  0  0  0  0  0  0  0  0  0  0  0
  151.2877  143.5053  157.4327 H   0  0  0  0  0  0  0  0  0  0  0  0
  148.8432  140.5965  157.2583 H   0  0  0  0  0  0  0  0  0  0  0  0
  1  2  1  0  0  0  0
  1 25  1  0  0  0  0
  1 26  1  0  0  0  0
  1 27  1  0  0  0  0
  2  3  1  0  0  0  0
  3 24  1  0  0  0  0
  3  4  2  0  0  0  0
  4  5  1  0  0  0  0
  4 28  1  0  0  0  0
  5  6  2  0  0  0  0
  5 29  1  0  0  0  0
  6  7  1  0  0  0  0
  6  9  1  0  0  0  0
  7  8  1  0  0  0  0
  8 30  1  0  0  0  0
  8 31  1  0  0  0  0
  8 32  1  0  0  0  0
  9 10  1  0  0  0  0
  9 24  2  0  0  0  0
 10 11  1  0  0  0  0
 10 12  1  0  0  0  0
 10 33  1  0  0  0  0
 11 34  1  0  0  0  0
 12 13  1  0  0  0  0
 12 35  1  0  0  0  0
 12 36  1  0  0  0  0
 13 23  1  0  0  0  0
 13 14  1  0  0  0  0
 14 15  2  0  0  0  0
 14 16  1  0  0  0  0
 16 17  1  0  0  0  0
 16 18  1  0  0  0  0
 17 37  1  0  0  0  0
 17 38  1  0  0  0  0
 17 39  1  0  0  0  0
 18 23  2  0  0  0  0
 18 19  1  0  0  0  0
 19 20  2  0  0  0  0
 19 40  1  0  0  0  0
 20 21  1  0  0  0  0
 20 41  1  0  0  0  0
 21 22  2  0  0  0  0
 21 42  1  0  0  0  0
 22 23  1  0  0  0  0
 22 43  1  0  0  0  0
 24 44  1  0  0  0  0
M  END
> <s_m_source_file>
AV-unprocessed.smi

> <i_m_source_file_index>
1668

> <i_lp_mmshare_version>
43012

> <i_f3d_flags>
0

> <s_epik_input>
W0NIM11PYzFbY0hdW2NIXWMoT1tDSDNdKWMoW2NIXTEpW0NASF0oW09IXSlbQ0gyXW4oYyg9TyluMltDSDNdKWMoYzIzKVtjSF1bY0hdW2NIXVtjSF0z

> <s_epik_cmdline>
J2VwaWtfcHl0aG9uJywgJy1waCcsICc3LjAnLCAnLXRuJywgJzgnLCAnLW1hJywgJzIwMCcsICctbWV0YWxfYmluZGluZycsICctaW1hZScsICc8aW5maWxlLm1hZT4nLCAnLW9tYWUnLCAnPG91dGZpbGUubWFlPic=

> <r_lp_tautomer_probability>
1

> <r_epik_Ionization_Penalty>
1.34538e-06

> <r_epik_Ionization_Penalty_Charging>
1.76928e-09

> <r_epik_Ionization_Penalty_Neutral>
1.34362e-06

> <r_epik_State_Penalty>
-0

> <r_epik_Charging_Adjusted_Penalty>
1.76928e-09

> <i_epik_Tot_Q>
0

> <i_epik_Tot_abs_Q>
0

> <r_epik_Metal_State_Penalty>
-0

> <b_epik_Metal_Only>
0

> <s_lp_Force_Field>
OPLS_2005

> <r_lp_Energy>
50.494

> <b_lp_Chiralities_Consistent>
1

> <s_lp_Variant>
AV-unprocessed.smi:1668-2

> <Gold.Version>
5.8.1

> <Gold.Id.Protein>
6NUR|6NUR_protein|mol2

> <Gold.PLP.Fitness>
52.1131

> <Gold.PLP.PLP>
-52.4663

> <Gold.PLP.part.hbond>
-1.0000

> <Gold.PLP.part.metal>
0.0000

> <Gold.PLP.part.buried>
-1.2011

> <Gold.PLP.part.nonpolar>
-49.4565

> <Gold.PLP.part.repulsive>
0.0778

> <Gold.PLP.ligand.clash>
0.0000

> <Gold.PLP.ligand.torsion>
1.0452

> <Gold.PLP.Chemscore.Hbond>
0.5658

> <Gold.PLP.Chemscore.CHOScore>
0.0000

> <Gold.PLP.Chemscore.Metal>
0.0000

> <Gold.Chemscore.Hbonds>
donor molecule, donor type, donor heavy atom, donor atom, acceptor molecule, acceptor atom, score
      P1  H  7997  8008       L1     7  0.65

> <Gold.PLP.Chemscore.Internal.Correction>
0.0397

> <Gold.Rescore>
     Score         DG    S(hbond)    S(metal)    S(lipo)     H(rot)  DE(clash)    DE(int)     intcor
     13.79     -16.94       0.06        0.00     145.34       2.24       0.86       2.30       ----

> <Gold.Chemscore.Fitness>
13.7882

> <Gold.Chemscore.DG>
-16.9411

> <Gold.Chemscore.ZeroCoef>
-5.4800

> <Gold.Chemscore.Hbond>
0.0607

> <Gold.Chemscore.Metal>
0.0000

> <Gold.Chemscore.Lipo>
145.3431

> <Gold.Chemscore.Internal_Hbond>
0.0000

> <Gold.Chemscore.DEClash>
0.8571

> <Gold.Chemscore.DEInternal>
2.2957

> <Gold.Chemscore.Rot>
2.2448

> <Gold.Chemscore.Internal.Correction>
   9.000000E+99

> <Gold.Chemscore.Hbonds>
donor molecule, donor type, donor heavy atom, donor atom, acceptor molecule, acceptor atom, score
      P1  H  7997  8008       L1     7  0.11

> <Gold.Chemscore.Hbond.Weighted>
-0.2026

> <Gold.Chemscore.Metal.Weighted>
-0.0000

> <Gold.Chemscore.Lipo.Weighted>
-17.0051

> <Gold.Chemscore.Internal_Hbond.Weighted>
0.0000

> <Gold.Chemscore.DEClash.Weighted>
0.8571

> <Gold.Chemscore.DEInternal.Weighted>
2.2957

> <Gold.Chemscore.Rot.Weighted>
5.7467

> <Gold.Chemscore.Internal.Correction.Weighted>
   9.000000E+99

> <Gold.Protein.RotatedTorsions>
[ 6907 6896 6895 6894 ] final  134.71 input  -60.11 | X-H torsion
[ 7974 7965 7964 7962 ] final  102.84 input  175.53 | X-H torsion
[ 8008 7997 7996 7995 ] final  -58.93 input   59.86 | X-H torsion
[ 10167 10162 10161 10158 ] final  175.53 input  -65.29 | X-H torsion
[ 10718 10713 10712 10709 ] final -155.25 input   66.30 | X-H torsion
[ 10763 10752 10751 10750 ] final -110.27 input  -60.55 | X-H torsion
[ 11005 11000 10999 10996 ] final  156.91 input  -57.11 | X-H torsion

> <Gold.Protein.ActiveResidues>
 VAL166  LYS551  ARG553  GLY616  TRP617  ASP618  TYR619  PRO620  LYS621  CYS622 
 ASP623  PHE694  ASN695  SER759  ASP760  ASP761  ALA762  ILE779  LEU786  VAL792 
 PHE793  MET794  SER795  GLU796  ALA797  LYS798  CYS799  TRP800  GLU811  SER814 

> <Gold.Protein.RotatedAtoms>
  152.3083  133.5726  159.5663 H   0  0  0  0  0  0  0  0  0  0  0  0  # atno 6907 bound_to 6896
  150.7310  134.0190  159.3704 H   0  0  0  0  0  0  0  0  0  0  0  0  # atno 6908 bound_to 6896
  151.8084  135.0688  160.0460 H   0  0  0  0  0  0  0  0  0  0  0  0  # atno 6909 bound_to 6896
  145.3538  139.2433  143.3544 H   0  0  0  0  0  0  0  0  0  0  0  0  # atno 7974 bound_to 7965
  154.4330  140.1073  156.6035 H   0  0  0  0  0  0  0  0  0  0  0  0  # atno 8008 bound_to 7997
  155.5886  140.3492  155.4541 H   0  0  0  0  0  0  0  0  0  0  0  0  # atno 8009 bound_to 7997
  156.0264  140.1251  157.0294 H   0  0  0  0  0  0  0  0  0  0  0  0  # atno 8010 bound_to 7997
  139.5180  144.3021  152.0369 H   0  0  0  0  0  0  0  0  0  0  0  0  # atno 10167 bound_to 10162
  156.5103  130.8432  151.2644 H   0  0  0  0  0  0  0  0  0  0  0  0  # atno 10718 bound_to 10713
  154.8239  135.4570  154.0860 H   0  0  0  0  0  0  0  0  0  0  0  0  # atno 10763 bound_to 10752
  153.2191  135.6891  153.8028 H   0  0  0  0  0  0  0  0  0  0  0  0  # atno 10764 bound_to 10752
  153.7452  135.3306  155.3288 H   0  0  0  0  0  0  0  0  0  0  0  0  # atno 10765 bound_to 10752
  140.1720  134.8536  157.2701 H   0  0  0  0  0  0  0  0  0  0  0  0  # atno 11005 bound_to 11000
  146.2957  140.4159  142.8723 LP  0  0  0  0  0  0  0  0  0  0  0  0  # atno 17320 bound_to 7965
  144.8698  140.7256  143.6054 LP  0  0  0  0  0  0  0  0  0  0  0  0  # atno 17321 bound_to 7965
  140.2468  144.4211  150.6237 LP  0  0  0  0  0  0  0  0  0  0  0  0  # atno 17342 bound_to 10162
  140.6252  143.2180  151.6611 LP  0  0  0  0  0  0  0  0  0  0  0  0  # atno 17343 bound_to 10162
  157.7451  130.9952  150.2734 LP  0  0  0  0  0  0  0  0  0  0  0  0  # atno 17370 bound_to 10713
  156.3246  130.3791  149.7544 LP  0  0  0  0  0  0  0  0  0  0  0  0  # atno 17371 bound_to 10713
  140.2367  134.3845  155.7498 LP  0  0  0  0  0  0  0  0  0  0  0  0  # atno 17394 bound_to 11000
  141.2218  133.7243  156.8725 LP  0  0  0  0  0  0  0  0  0  0  0  0  # atno 17395 bound_to 11000

$$$$
