AV-unprocessed.smi:2971|AV-procd|sdf|11335|dock1
  -GOLD-   2272016243D 1   1.00000     0.00000
 Structure written by MMmdl.
 37 39  0  0  0  0  0  0  0  0  2 V2000
  153.1054  138.9499  156.6110 O   0  0  0  0  0  0  0  0  0  0  0  0
  151.8872  139.5723  156.9690 C   0  0  1  0  0  0  0  0  0  0  0  0
  152.0878  140.3252  158.2918 C   0  0  0  0  0  0  0  0  0  0  0  0
  152.1725  141.7170  158.0159 O   0  0  0  0  0  0  0  0  0  0  0  0
  152.1761  142.5964  159.0777 C   0  0  0  0  0  0  0  0  0  0  0  0
  152.4587  142.2246  160.4170 C   0  0  0  0  0  0  0  0  0  0  0  0
  152.4416  143.1886  161.4438 C   0  0  0  0  0  0  0  0  0  0  0  0
  152.1438  144.5315  161.1481 C   0  0  0  0  0  0  0  0  0  0  0  0
  151.8613  144.9096  159.8225 C   0  0  0  0  0  0  0  0  0  0  0  0
  151.8764  143.9464  158.7950 C   0  0  0  0  0  0  0  0  0  0  0  0
  151.6025  144.3234  157.5230 F   0  0  0  0  0  0  0  0  0  0  0  0
  151.4226  140.4988  155.8271 C   0  0  0  0  0  0  0  0  0  0  0  0
  150.5072  139.8334  154.8917 N   0  0  0  0  0  0  0  0  0  0  0  0
  150.6083  138.6248  154.2746 C   0  0  0  0  0  0  0  0  0  0  0  0
  149.4961  138.4623  153.5049 N   0  3  0  0  0  0  0  0  0  0  0  0
  148.6734  139.5840  153.6313 C   0  0  0  0  0  0  0  0  0  0  0  0
  147.4450  139.8847  153.0510 C   0  0  0  0  0  0  0  0  0  0  0  0
  146.8688  141.1251  153.3961 C   0  0  0  0  0  0  0  0  0  0  0  0
  147.5113  142.0124  154.2843 C   0  0  0  0  0  0  0  0  0  0  0  0
  148.7574  141.6980  154.8657 C   0  0  0  0  0  0  0  0  0  0  0  0
  149.3186  140.4693  154.5201 C   0  0  0  0  0  0  0  0  0  0  0  0
  153.0508  138.0329  156.8328 H   0  0  0  0  0  0  0  0  0  0  0  0
  151.1523  138.7817  157.1237 H   0  0  0  0  0  0  0  0  0  0  0  0
  151.2402  140.1373  158.9533 H   0  0  0  0  0  0  0  0  0  0  0  0
  152.9925  139.9730  158.7904 H   0  0  0  0  0  0  0  0  0  0  0  0
  152.6906  141.2049  160.6841 H   0  0  0  0  0  0  0  0  0  0  0  0
  152.6576  142.8959  162.4609 H   0  0  0  0  0  0  0  0  0  0  0  0
  152.1318  145.2700  161.9361 H   0  0  0  0  0  0  0  0  0  0  0  0
  151.6331  145.9399  159.5926 H   0  0  0  0  0  0  0  0  0  0  0  0
  150.9230  141.3856  156.2193 H   0  0  0  0  0  0  0  0  0  0  0  0
  152.2788  140.8552  155.2527 H   0  0  0  0  0  0  0  0  0  0  0  0
  151.4211  137.9207  154.3790 H   0  0  0  0  0  0  0  0  0  0  0  0
  146.9503  139.2071  152.3706 H   0  0  0  0  0  0  0  0  0  0  0  0
  145.9147  141.4014  152.9713 H   0  0  0  0  0  0  0  0  0  0  0  0
  147.0385  142.9534  154.5256 H   0  0  0  0  0  0  0  0  0  0  0  0
  149.2420  142.3828  155.5463 H   0  0  0  0  0  0  0  0  0  0  0  0
  149.3142  137.6445  152.9374 H   0  0  0  0  0  0  0  0  0  0  0  0
  1  2  1  0  0  0  0
  1 22  1  0  0  0  0
  2  3  1  0  0  0  0
  2 12  1  0  0  0  0
  2 23  1  0  0  0  0
  3  4  1  0  0  0  0
  3 24  1  0  0  0  0
  3 25  1  0  0  0  0
  4  5  1  0  0  0  0
  5 10  1  0  0  0  0
  5  6  2  0  0  0  0
  6  7  1  0  0  0  0
  6 26  1  0  0  0  0
  7  8  2  0  0  0  0
  7 27  1  0  0  0  0
  8  9  1  0  0  0  0
  8 28  1  0  0  0  0
  9 10  2  0  0  0  0
  9 29  1  0  0  0  0
 10 11  1  0  0  0  0
 12 13  1  0  0  0  0
 12 30  1  0  0  0  0
 12 31  1  0  0  0  0
 13 21  1  0  0  0  0
 13 14  1  0  0  0  0
 14 15  2  0  0  0  0
 14 32  1  0  0  0  0
 15 16  1  0  0  0  0
 15 37  1  0  0  0  0
 16 21  2  0  0  0  0
 16 17  1  0  0  0  0
 17 18  2  0  0  0  0
 17 33  1  0  0  0  0
 18 19  1  0  0  0  0
 18 34  1  0  0  0  0
 19 20  2  0  0  0  0
 19 35  1  0  0  0  0
 20 21  1  0  0  0  0
 20 36  1  0  0  0  0
M  CHG  1  15   1
M  END
> <s_m_source_file>
AV-unprocessed.smi

> <i_m_source_file_index>
2971

> <i_lp_mmshare_version>
43012

> <i_f3d_flags>
0

> <s_epik_input>
W2NIXTFbY0hdW2NIXVtjSF1jKGMxMiluKFtjSF1uMilbQ0gyXVtDQEhdKFtPSF0pW0NIMl1PYzNbY0hdW2NIXVtjSF1bY0hdYzNG

> <s_epik_cmdline>
J2VwaWtfcHl0aG9uJywgJy1waCcsICc3LjAnLCAnLXRuJywgJzgnLCAnLW1hJywgJzIwMCcsICctbWV0YWxfYmluZGluZycsICctaW1hZScsICc8aW5maWxlLm1hZT4nLCAnLW9tYWUnLCAnPG91dGZpbGUubWFlPic=

> <r_lp_tautomer_probability>
1

> <r_epik_Ionization_Penalty>
1.38569

> <r_epik_Ionization_Penalty_Charging>
1.38568

> <r_epik_Ionization_Penalty_Neutral>
2.3993e-06

> <r_epik_State_Penalty>
1.46659

> <r_epik_Charging_Adjusted_Penalty>
2.85227

> <i_epik_Tot_Q>
1

> <i_epik_Tot_abs_Q>
1

> <r_epik_Metal_State_Penalty>
5.50731

> <b_epik_Metal_Only>
0

> <s_lp_Force_Field>
OPLS_2005

> <r_lp_Energy>
19.4551

> <b_lp_Chiralities_Consistent>
1

> <s_lp_Variant>
AV-unprocessed.smi:2971-4

> <Gold.Version>
5.8.1

> <Gold.Id.Protein>
6NUR|6NUR_protein|mol2

> <Gold.PLP.Fitness>
60.1839

> <Gold.PLP.PLP>
-53.9724

> <Gold.PLP.part.hbond>
-3.0000

> <Gold.PLP.part.metal>
0.0000

> <Gold.PLP.part.buried>
1.5754

> <Gold.PLP.part.nonpolar>
-51.6626

> <Gold.PLP.part.repulsive>
0.0673

> <Gold.PLP.ligand.clash>
0.0000

> <Gold.PLP.ligand.torsion>
1.4481

> <Gold.PLP.Chemscore.Hbond>
3.0000

> <Gold.PLP.Chemscore.CHOScore>
0.0000

> <Gold.PLP.Chemscore.Metal>
0.0000

> <Gold.Chemscore.Hbonds>
donor molecule, donor type, donor heavy atom, donor atom, acceptor molecule, acceptor atom, score
      L1  H    15    37       P1  7948  2.00
      P1  H  7997  8008       L1     1  1.00

> <Gold.PLP.Chemscore.Internal.Correction>
0.1077

> <Gold.Rescore>
     Score         DG    S(hbond)    S(metal)    S(lipo)     H(rot)  DE(clash)    DE(int)     intcor
     18.93     -20.41       1.86        0.00     128.41       2.46       0.14       1.35       ----

> <Gold.Chemscore.Fitness>
18.9262

> <Gold.Chemscore.DG>
-20.4145

> <Gold.Chemscore.ZeroCoef>
-5.4800

> <Gold.Chemscore.Hbond>
1.8575

> <Gold.Chemscore.Metal>
0.0000

> <Gold.Chemscore.Lipo>
128.4105

> <Gold.Chemscore.Internal_Hbond>
0.0000

> <Gold.Chemscore.DEClash>
0.1383

> <Gold.Chemscore.DEInternal>
1.3500

> <Gold.Chemscore.Rot>
2.4584

> <Gold.Chemscore.Internal.Correction>
   9.000000E+99

> <Gold.Chemscore.Hbonds>
donor molecule, donor type, donor heavy atom, donor atom, acceptor molecule, acceptor atom, score
      L1  H    15    37       P1  7948  0.96
      P1  H  7997  8008       L1     1  0.77

> <Gold.Chemscore.Hbond.Weighted>
-6.2041

> <Gold.Chemscore.Metal.Weighted>
-0.0000

> <Gold.Chemscore.Lipo.Weighted>
-15.0240

> <Gold.Chemscore.Internal_Hbond.Weighted>
0.0000

> <Gold.Chemscore.DEClash.Weighted>
0.1383

> <Gold.Chemscore.DEInternal.Weighted>
1.3500

> <Gold.Chemscore.Rot.Weighted>
6.2936

> <Gold.Chemscore.Internal.Correction.Weighted>
   9.000000E+99

> <Gold.Protein.RotatedTorsions>
[ 6907 6896 6895 6894 ] final  141.60 input  -60.11 | X-H torsion
[ 7974 7965 7964 7962 ] final  -84.03 input  175.53 | X-H torsion
[ 8008 7997 7996 7995 ] final  -67.93 input   59.86 | X-H torsion
[ 10167 10162 10161 10158 ] final   23.38 input  -65.29 | X-H torsion
[ 10718 10713 10712 10709 ] final   76.09 input   66.30 | X-H torsion
[ 10763 10752 10751 10750 ] final  144.91 input  -60.55 | X-H torsion
[ 11005 11000 10999 10996 ] final   77.08 input  -57.11 | X-H torsion

> <Gold.Protein.ActiveResidues>
 VAL166  LYS551  ARG553  GLY616  TRP617  ASP618  TYR619  PRO620  LYS621  CYS622 
 ASP623  PHE694  ASN695  SER759  ASP760  ASP761  ALA762  ILE779  LEU786  VAL792 
 PHE793  MET794  SER795  GLU796  ALA797  LYS798  CYS799  TRP800  GLU811  SER814 

> <Gold.Protein.RotatedAtoms>
  152.2290  133.5043  159.5204 H   0  0  0  0  0  0  0  0  0  0  0  0  # atno 6907 bound_to 6896
  150.7032  134.1242  159.4055 H   0  0  0  0  0  0  0  0  0  0  0  0  # atno 6908 bound_to 6896
  151.9163  135.0317  160.0569 H   0  0  0  0  0  0  0  0  0  0  0  0  # atno 6909 bound_to 6896
  145.5120  140.9539  143.1702 H   0  0  0  0  0  0  0  0  0  0  0  0  # atno 7974 bound_to 7965
  154.4833  140.0883  156.7428 H   0  0  0  0  0  0  0  0  0  0  0  0  # atno 8008 bound_to 7997
  155.4415  140.3454  155.4272 H   0  0  0  0  0  0  0  0  0  0  0  0  # atno 8009 bound_to 7997
  156.1224  140.1478  156.9174 H   0  0  0  0  0  0  0  0  0  0  0  0  # atno 8010 bound_to 7997
  140.5273  143.9901  150.6447 H   0  0  0  0  0  0  0  0  0  0  0  0  # atno 10167 bound_to 10162
  157.6660  130.9758  150.1447 H   0  0  0  0  0  0  0  0  0  0  0  0  # atno 10718 bound_to 10713
  153.9966  135.2927  155.3407 H   0  0  0  0  0  0  0  0  0  0  0  0  # atno 10763 bound_to 10752
  154.7184  135.5120  153.8776 H   0  0  0  0  0  0  0  0  0  0  0  0  # atno 10764 bound_to 10752
  153.0785  135.6671  154.0212 H   0  0  0  0  0  0  0  0  0  0  0  0  # atno 10765 bound_to 10752
  139.9270  134.7654  156.1477 H   0  0  0  0  0  0  0  0  0  0  0  0  # atno 11005 bound_to 11000
  144.7722  139.6709  143.7190 LP  0  0  0  0  0  0  0  0  0  0  0  0  # atno 17320 bound_to 7965
  146.2160  139.5550  142.9649 LP  0  0  0  0  0  0  0  0  0  0  0  0  # atno 17321 bound_to 7965
  140.3266  143.3103  152.0730 LP  0  0  0  0  0  0  0  0  0  0  0  0  # atno 17342 bound_to 10162
  139.4942  144.6537  151.6619 LP  0  0  0  0  0  0  0  0  0  0  0  0  # atno 17343 bound_to 10162
  156.2261  130.3678  149.8499 LP  0  0  0  0  0  0  0  0  0  0  0  0  # atno 17370 bound_to 10713
  156.6338  130.8677  151.3500 LP  0  0  0  0  0  0  0  0  0  0  0  0  # atno 17371 bound_to 10713
  141.0834  133.6744  156.2384 LP  0  0  0  0  0  0  0  0  0  0  0  0  # atno 17394 bound_to 11000
  140.6309  134.5265  157.5559 LP  0  0  0  0  0  0  0  0  0  0  0  0  # atno 17395 bound_to 11000

$$$$
