AV-unprocessed.smi:15|AV-procd|sdf|79|dock6
  -GOLD-   2262015203D 1   1.00000     0.00000
 Structure written by MMmdl.
 53 56  0  0  0  0  0  0  0  0  1 V2000
  149.5266  141.4564  154.9848 C   0  0  0  0  0  0  0  0  0  0  0  0
  150.0481  141.6566  156.4168 C   0  0  0  0  0  0  0  0  0  0  0  0
  151.3781  141.0878  156.6358 N   0  0  0  0  0  0  0  0  0  0  0  0
  151.9224  141.1891  157.9875 C   0  0  0  0  0  0  0  0  0  0  0  0
  152.3431  142.6248  158.3376 C   0  0  2  0  0  0  0  0  0  0  0  0
  152.7553  142.8181  159.7974 C   0  0  0  0  0  0  0  0  0  0  0  0
  152.4190  144.2748  160.0818 C   0  0  0  0  0  0  0  0  0  0  0  0
  151.5899  144.7125  158.8716 C   0  0  0  0  0  0  0  0  0  0  0  0
  151.2372  143.5040  158.2146 O   0  0  0  0  0  0  0  0  0  0  0  0
  151.5578  139.8577  156.1078 C   0  0  0  0  0  0  0  0  0  0  0  0
  151.8552  139.7845  154.7874 N   0  0  0  0  0  0  0  0  0  0  0  0
  152.0482  138.5927  154.2137 C   0  0  0  0  0  0  0  0  0  0  0  0
  151.9992  137.3799  154.7700 N   0  0  0  0  0  0  0  0  0  0  0  0
  151.7076  137.4545  156.1004 C   0  0  0  0  0  0  0  0  0  0  0  0
  151.4707  138.6438  156.8443 C   0  0  0  0  0  0  0  0  0  0  0  0
  151.2037  138.3303  158.1711 N   0  0  0  0  0  0  0  0  0  0  0  0
  151.2780  137.0279  158.2095 C   0  0  0  0  0  0  0  0  0  0  0  0
  151.5879  136.4206  157.0127 N   0  0  0  0  0  0  0  0  0  0  0  0
  151.7450  134.9935  156.7744 C   0  0  0  0  0  0  0  0  0  0  0  0
  150.3968  134.2498  156.5836 C   0  0  1  0  0  0  0  0  0  0  0  0
  149.5664  134.5566  157.6908 O   0  0  0  0  0  0  0  0  0  0  0  0
  149.6515  134.6562  155.3136 C   0  0  0  0  0  0  0  0  0  0  0  0
  148.8770  133.3987  154.9503 C   0  0  0  0  0  0  0  0  0  0  0  0
  149.8097  132.3751  155.2466 O   0  0  0  0  0  0  0  0  0  0  0  0
  150.4705  132.7004  156.4664 C   0  0  1  0  0  0  0  0  0  0  0  0
  151.8717  132.0708  156.4260 C   0  0  0  0  0  0  0  0  0  0  0  0
  148.5630  141.9492  154.8554 H   0  0  0  0  0  0  0  0  0  0  0  0
  149.3879  140.4013  154.7470 H   0  0  0  0  0  0  0  0  0  0  0  0
  150.2162  141.8791  154.2537 H   0  0  0  0  0  0  0  0  0  0  0  0
  150.0816  142.7249  156.6293 H   0  0  0  0  0  0  0  0  0  0  0  0
  149.3430  141.2286  157.1299 H   0  0  0  0  0  0  0  0  0  0  0  0
  151.1652  140.8498  158.6953 H   0  0  0  0  0  0  0  0  0  0  0  0
  152.7785  140.5231  158.1121 H   0  0  0  0  0  0  0  0  0  0  0  0
  153.1336  142.9758  157.6724 H   0  0  0  0  0  0  0  0  0  0  0  0
  152.1609  142.1744  160.4475 H   0  0  0  0  0  0  0  0  0  0  0  0
  153.8063  142.5827  159.9668 H   0  0  0  0  0  0  0  0  0  0  0  0
  151.8480  144.3617  161.0067 H   0  0  0  0  0  0  0  0  0  0  0  0
  153.3155  144.8876  160.1821 H   0  0  0  0  0  0  0  0  0  0  0  0
  150.7052  145.2843  159.1527 H   0  0  0  0  0  0  0  0  0  0  0  0
  152.1904  145.3244  158.1969 H   0  0  0  0  0  0  0  0  0  0  0  0
  152.2758  138.6141  153.1581 H   0  0  0  0  0  0  0  0  0  0  0  0
  151.1156  136.4712  159.1209 H   0  0  0  0  0  0  0  0  0  0  0  0
  152.3727  134.8776  155.8904 H   0  0  0  0  0  0  0  0  0  0  0  0
  152.3034  134.5663  157.6085 H   0  0  0  0  0  0  0  0  0  0  0  0
  148.7696  134.0535  157.6172 H   0  0  0  0  0  0  0  0  0  0  0  0
  149.0151  135.5341  155.4342 H   0  0  0  0  0  0  0  0  0  0  0  0
  150.3620  134.8691  154.5138 H   0  0  0  0  0  0  0  0  0  0  0  0
  147.9898  133.2860  155.5752 H   0  0  0  0  0  0  0  0  0  0  0  0
  148.5724  133.3769  153.9039 H   0  0  0  0  0  0  0  0  0  0  0  0
  149.9081  132.2319  157.2766 H   0  0  0  0  0  0  0  0  0  0  0  0
  152.4284  132.2790  157.3396 H   0  0  0  0  0  0  0  0  0  0  0  0
  152.4522  132.4371  155.5791 H   0  0  0  0  0  0  0  0  0  0  0  0
  151.8018  130.9873  156.3274 H   0  0  0  0  0  0  0  0  0  0  0  0
  1  2  1  0  0  0  0
  1 27  1  0  0  0  0
  1 28  1  0  0  0  0
  1 29  1  0  0  0  0
  2  3  1  0  0  0  0
  2 30  1  0  0  0  0
  2 31  1  0  0  0  0
  3  4  1  0  0  0  0
  3 10  1  0  0  0  0
  4  5  1  0  0  0  0
  4 32  1  0  0  0  0
  4 33  1  0  0  0  0
  5  9  1  0  0  0  0
  5  6  1  0  0  0  0
  5 34  1  0  0  0  0
  6  7  1  0  0  0  0
  6 35  1  0  0  0  0
  6 36  1  0  0  0  0
  7  8  1  0  0  0  0
  7 37  1  0  0  0  0
  7 38  1  0  0  0  0
  8  9  1  0  0  0  0
  8 39  1  0  0  0  0
  8 40  1  0  0  0  0
 10 15  1  0  0  0  0
 10 11  2  0  0  0  0
 11 12  1  0  0  0  0
 12 13  2  0  0  0  0
 12 41  1  0  0  0  0
 13 14  1  0  0  0  0
 14 18  1  0  0  0  0
 14 15  2  0  0  0  0
 15 16  1  0  0  0  0
 16 17  2  0  0  0  0
 17 18  1  0  0  0  0
 17 42  1  0  0  0  0
 18 19  1  0  0  0  0
 19 20  1  0  0  0  0
 19 43  1  0  0  0  0
 19 44  1  0  0  0  0
 20 25  1  0  0  0  0
 20 21  1  0  0  0  0
 20 22  1  0  0  0  0
 21 45  1  0  0  0  0
 22 23  1  0  0  0  0
 22 46  1  0  0  0  0
 22 47  1  0  0  0  0
 23 24  1  0  0  0  0
 23 48  1  0  0  0  0
 23 49  1  0  0  0  0
 24 25  1  0  0  0  0
 25 26  1  0  0  0  0
 25 50  1  0  0  0  0
 26 51  1  0  0  0  0
 26 52  1  0  0  0  0
 26 53  1  0  0  0  0
M  END
> <s_m_source_file>
AV-unprocessed.smi

> <i_m_source_file_index>
15

> <i_lp_mmshare_version>
43012

> <i_f3d_flags>
0

> <s_epik_input>
TzFbQ0gyXVtDSDJdW0NIMl1bQ0BIXTFbQ0gyXU4oW0NIMl1bQ0gzXSljKG5bY0hdbjIpYyhjMjMpbltjSF1uM1tDSDJdW0NAQF00KFtPSF0pW0NIMl1bQ0gyXU9bQ0BIXTRbQ0gzXQ==

> <s_epik_cmdline>
J2VwaWtfcHl0aG9uJywgJy1waCcsICc3LjAnLCAnLXRuJywgJzgnLCAnLW1hJywgJzIwMCcsICctbWV0YWxfYmluZGluZycsICctaW1hZScsICc8aW5maWxlLm1hZT4nLCAnLW9tYWUnLCAnPG91dGZpbGUubWFlPic=

> <r_lp_tautomer_probability>
1

> <r_epik_Ionization_Penalty>
0.00360814

> <r_epik_Ionization_Penalty_Charging>
0

> <r_epik_Ionization_Penalty_Neutral>
0.00360814

> <r_epik_State_Penalty>
0.00237482

> <r_epik_Charging_Adjusted_Penalty>
0.00237482

> <i_epik_Tot_Q>
0

> <i_epik_Tot_abs_Q>
0

> <r_epik_Metal_State_Penalty>
-0

> <b_epik_Metal_Only>
0

> <s_lp_Force_Field>
OPLS_2005

> <r_lp_Energy>
46.4206

> <b_lp_Chiralities_Consistent>
1

> <s_lp_Variant>
AV-unprocessed.smi:15-1

> <Gold.Version>
5.8.1

> <Gold.Id.Protein>
6NUR|6NUR_protein|mol2

> <Gold.PLP.Fitness>
48.2889

> <Gold.PLP.PLP>
-41.8827

> <Gold.PLP.part.hbond>
-3.0000

> <Gold.PLP.part.metal>
0.0000

> <Gold.PLP.part.buried>
-5.6054

> <Gold.PLP.part.nonpolar>
-33.5584

> <Gold.PLP.part.repulsive>
0.3109

> <Gold.PLP.ligand.clash>
0.0000

> <Gold.PLP.ligand.torsion>
1.2368

> <Gold.PLP.Chemscore.Hbond>
2.8080

> <Gold.PLP.Chemscore.CHOScore>
0.0000

> <Gold.PLP.Chemscore.Metal>
0.0000

> <Gold.Chemscore.Hbonds>
donor molecule, donor type, donor heavy atom, donor atom, acceptor molecule, acceptor atom, score
      P1  H  6896  6909       L1    21  0.96
      P1  H  7989  7998       L1    11  0.98
      P1  H 10752 10763       L1    13  0.86

> <Gold.PLP.Chemscore.Internal.Correction>
0.4559

> <Gold.Rescore>
     Score         DG    S(hbond)    S(metal)    S(lipo)     H(rot)  DE(clash)    DE(int)     intcor
     13.19     -18.36       2.56        0.00      96.10       2.71       0.28       4.88       ----

> <Gold.Chemscore.Fitness>
13.1908

> <Gold.Chemscore.DG>
-18.3558

> <Gold.Chemscore.ZeroCoef>
-5.4800

> <Gold.Chemscore.Hbond>
2.5637

> <Gold.Chemscore.Metal>
0.0000

> <Gold.Chemscore.Lipo>
96.1025

> <Gold.Chemscore.Internal_Hbond>
0.0000

> <Gold.Chemscore.DEClash>
0.2845

> <Gold.Chemscore.DEInternal>
4.8805

> <Gold.Chemscore.Rot>
2.7074

> <Gold.Chemscore.Internal.Correction>
   9.000000E+99

> <Gold.Chemscore.Hbonds>
donor molecule, donor type, donor heavy atom, donor atom, acceptor molecule, acceptor atom, score
      P1  H  6896  6909       L1    21  0.33
      P1  H  7989  7998       L1    11  0.47
      P1  H 10752 10763       L1    13  0.54

> <Gold.Chemscore.Hbond.Weighted>
-8.5626

> <Gold.Chemscore.Metal.Weighted>
-0.0000

> <Gold.Chemscore.Lipo.Weighted>
-11.2440

> <Gold.Chemscore.Internal_Hbond.Weighted>
0.0000

> <Gold.Chemscore.DEClash.Weighted>
0.2845

> <Gold.Chemscore.DEInternal.Weighted>
4.8805

> <Gold.Chemscore.Rot.Weighted>
6.9308

> <Gold.Chemscore.Internal.Correction.Weighted>
   9.000000E+99

> <Gold.Protein.RotatedTorsions>
[ 6907 6896 6895 6894 ] final   13.38 input  -60.11 | X-H torsion
[ 7974 7965 7964 7962 ] final  -66.29 input  175.53 | X-H torsion
[ 8008 7997 7996 7995 ] final   91.68 input   59.86 | X-H torsion
[ 10167 10162 10161 10158 ] final  -18.96 input  -65.29 | X-H torsion
[ 10718 10713 10712 10709 ] final -161.32 input   66.30 | X-H torsion
[ 10763 10752 10751 10750 ] final   50.33 input  -60.55 | X-H torsion
[ 11005 11000 10999 10996 ] final -167.78 input  -57.11 | X-H torsion

> <Gold.Protein.ActiveResidues>
 VAL166  LYS551  ARG553  GLY616  TRP617  ASP618  TYR619  PRO620  LYS621  CYS622 
 ASP623  PHE694  ASN695  SER759  ASP760  ASP761  ALA762  ILE779  LEU786  VAL792 
 PHE793  MET794  SER795  GLU796  ALA797  LYS798  CYS799  TRP800  GLU811  SER814 

> <Gold.Protein.RotatedAtoms>
  151.7854  135.0750  160.0379 H   0  0  0  0  0  0  0  0  0  0  0  0  # atno 6907 bound_to 6896
  152.3194  133.5833  159.5742 H   0  0  0  0  0  0  0  0  0  0  0  0  # atno 6908 bound_to 6896
  150.7361  133.9950  159.3661 H   0  0  0  0  0  0  0  0  0  0  0  0  # atno 6909 bound_to 6896
  145.7436  140.8942  143.0517 H   0  0  0  0  0  0  0  0  0  0  0  0  # atno 7974 bound_to 7965
  156.0266  140.3334  155.7095 H   0  0  0  0  0  0  0  0  0  0  0  0  # atno 8008 bound_to 7997
  155.5946  140.0649  157.2767 H   0  0  0  0  0  0  0  0  0  0  0  0  # atno 8009 bound_to 7997
  154.4336  140.1821  156.1098 H   0  0  0  0  0  0  0  0  0  0  0  0  # atno 8010 bound_to 7997
  140.7264  143.4865  151.0048 H   0  0  0  0  0  0  0  0  0  0  0  0  # atno 10167 bound_to 10162
  156.5946  130.8785  151.2898 H   0  0  0  0  0  0  0  0  0  0  0  0  # atno 10718 bound_to 10713
  152.9785  135.5882  154.4235 H   0  0  0  0  0  0  0  0  0  0  0  0  # atno 10763 bound_to 10752
  154.3857  135.2767  155.2187 H   0  0  0  0  0  0  0  0  0  0  0  0  # atno 10764 bound_to 10752
  154.4081  135.6088  153.5991 H   0  0  0  0  0  0  0  0  0  0  0  0  # atno 10765 bound_to 10752
  140.5494  134.5444  157.5119 H   0  0  0  0  0  0  0  0  0  0  0  0  # atno 11005 bound_to 11000
  144.6865  139.9495  143.7477 LP  0  0  0  0  0  0  0  0  0  0  0  0  # atno 17320 bound_to 7965
  146.0424  139.3434  143.0689 LP  0  0  0  0  0  0  0  0  0  0  0  0  # atno 17321 bound_to 7965
  139.8567  143.7368  152.3175 LP  0  0  0  0  0  0  0  0  0  0  0  0  # atno 17342 bound_to 10162
  139.7569  144.7518  151.0422 LP  0  0  0  0  0  0  0  0  0  0  0  0  # atno 17343 bound_to 10162
  157.7295  130.9672  150.1790 LP  0  0  0  0  0  0  0  0  0  0  0  0  # atno 17370 bound_to 10713
  156.2520  130.3701  149.8222 LP  0  0  0  0  0  0  0  0  0  0  0  0  # atno 17371 bound_to 10713
  139.9463  134.7696  156.0554 LP  0  0  0  0  0  0  0  0  0  0  0  0  # atno 17394 bound_to 11000
  141.1181  133.6621  156.3144 LP  0  0  0  0  0  0  0  0  0  0  0  0  # atno 17395 bound_to 11000

$$$$
