AV-unprocessed.smi:1925|AV-procd|sdf|7793|dock6
  -GOLD-   22720 9533D 1   1.00000     0.00000
 Structure written by MMmdl.
 31 32  0  0  0  0  0  0  0  0  1 V2000
  144.7922  136.9810  152.5975 O   0  0  0  0  0  0  0  0  0  0  0  0
  145.9731  136.7513  152.3353 C   0  0  0  0  0  0  0  0  0  0  0  0
  146.9684  137.6096  152.6003 N   0  0  0  0  0  0  0  0  0  0  0  0
  146.7999  138.9256  153.2071 C   0  0  0  0  0  0  0  0  0  0  0  0
  148.1256  139.7088  153.2672 C   0  0  1  0  0  0  0  0  0  0  0  0
  147.9932  141.1073  153.8601 C   0  0  0  0  0  0  0  0  0  0  0  0
  149.2482  141.2771  154.7227 C   0  0  0  0  0  0  0  0  0  0  0  0
  150.0673  140.1568  154.4216 O   0  0  0  0  0  0  0  0  0  0  0  0
  149.2032  139.0697  154.1424 C   0  0  0  0  0  0  0  0  0  0  0  0
  146.4378  135.6338  151.7493 N   0  0  0  0  0  0  0  0  0  0  0  0
  145.7021  134.4994  151.3141 C   0  0  0  0  0  0  0  0  0  0  0  0
  146.4849  133.4342  150.8142 C   0  0  0  0  0  0  0  0  0  0  0  0
  145.8505  132.2631  150.3567 C   0  0  0  0  0  0  0  0  0  0  0  0
  144.4474  132.1866  150.4121 C   0  0  0  0  0  0  0  0  0  0  0  0
  143.7430  133.2913  150.9249 C   0  0  0  0  0  0  0  0  0  0  0  0
  144.3491  134.4147  151.3637 N   0  0  0  0  0  0  0  0  0  0  0  0
  147.9095  137.3394  152.3548 H   0  0  0  0  0  0  0  0  0  0  0  0
  146.0485  139.4957  152.6580 H   0  0  0  0  0  0  0  0  0  0  0  0
  146.4033  138.7832  154.2128 H   0  0  0  0  0  0  0  0  0  0  0  0
  148.5307  139.8123  152.2593 H   0  0  0  0  0  0  0  0  0  0  0  0
  147.9411  141.8591  153.0719 H   0  0  0  0  0  0  0  0  0  0  0  0
  147.0981  141.2093  154.4747 H   0  0  0  0  0  0  0  0  0  0  0  0
  149.7727  142.2111  154.5200 H   0  0  0  0  0  0  0  0  0  0  0  0
  148.9890  141.2560  155.7821 H   0  0  0  0  0  0  0  0  0  0  0  0
  148.7848  138.6851  155.0741 H   0  0  0  0  0  0  0  0  0  0  0  0
  149.7296  138.2589  153.6385 H   0  0  0  0  0  0  0  0  0  0  0  0
  147.4332  135.5926  151.5885 H   0  0  0  0  0  0  0  0  0  0  0  0
  147.5620  133.5097  150.7782 H   0  0  0  0  0  0  0  0  0  0  0  0
  146.4309  131.4387  149.9699 H   0  0  0  0  0  0  0  0  0  0  0  0
  143.9249  131.3053  150.0706 H   0  0  0  0  0  0  0  0  0  0  0  0
  142.6648  133.2731  150.9847 H   0  0  0  0  0  0  0  0  0  0  0  0
  1  2  2  0  0  0  0
  2  3  1  0  0  0  0
  2 10  1  0  0  0  0
  3  4  1  0  0  0  0
  3 17  1  0  0  0  0
  4  5  1  0  0  0  0
  4 18  1  0  0  0  0
  4 19  1  0  0  0  0
  5  9  1  0  0  0  0
  5  6  1  0  0  0  0
  5 20  1  0  0  0  0
  6  7  1  0  0  0  0
  6 21  1  0  0  0  0
  6 22  1  0  0  0  0
  7  8  1  0  0  0  0
  7 23  1  0  0  0  0
  7 24  1  0  0  0  0
  8  9  1  0  0  0  0
  9 25  1  0  0  0  0
  9 26  1  0  0  0  0
 10 11  1  0  0  0  0
 10 27  1  0  0  0  0
 11 16  1  0  0  0  0
 11 12  2  0  0  0  0
 12 13  1  0  0  0  0
 12 28  1  0  0  0  0
 13 14  2  0  0  0  0
 13 29  1  0  0  0  0
 14 15  1  0  0  0  0
 14 30  1  0  0  0  0
 15 16  2  0  0  0  0
 15 31  1  0  0  0  0
M  END
> <s_m_source_file>
AV-unprocessed.smi

> <i_m_source_file_index>
1925

> <i_lp_mmshare_version>
43012

> <i_f3d_flags>
0

> <s_epik_input>
bjFbY0hdW2NIXVtjSF1bY0hdYzFbTkhdQyg9TylbTkhdW0NIMl1bQ0BASF0yW0NIMl1bQ0gyXU9bQ0gyXTI=

> <s_epik_cmdline>
J2VwaWtfcHl0aG9uJywgJy1waCcsICc3LjAnLCAnLXRuJywgJzgnLCAnLW1hJywgJzIwMCcsICctbWV0YWxfYmluZGluZycsICctaW1hZScsICc8aW5maWxlLm1hZT4nLCAnLW9tYWUnLCAnPG91dGZpbGUubWFlPic=

> <r_lp_tautomer_probability>
1

> <r_epik_Ionization_Penalty>
4.81143e-05

> <r_epik_Ionization_Penalty_Charging>
0

> <r_epik_Ionization_Penalty_Neutral>
4.81143e-05

> <r_epik_State_Penalty>
-0

> <r_epik_Charging_Adjusted_Penalty>
0

> <i_epik_Tot_Q>
0

> <i_epik_Tot_abs_Q>
0

> <r_epik_Metal_State_Penalty>
-0

> <b_epik_Metal_Only>
0

> <s_lp_Force_Field>
OPLS_2005

> <r_lp_Energy>
20.4602

> <b_lp_Chiralities_Consistent>
1

> <s_lp_Variant>
AV-unprocessed.smi:1925-2

> <Gold.Version>
5.8.1

> <Gold.Id.Protein>
6NUR|6NUR_protein|mol2

> <Gold.PLP.Fitness>
41.0031

> <Gold.PLP.PLP>
-29.0638

> <Gold.PLP.part.hbond>
-2.9872

> <Gold.PLP.part.metal>
0.0000

> <Gold.PLP.part.buried>
0.2232

> <Gold.PLP.part.nonpolar>
-26.6983

> <Gold.PLP.part.repulsive>
0.5834

> <Gold.PLP.ligand.clash>
0.0000

> <Gold.PLP.ligand.torsion>
0.0192

> <Gold.PLP.Chemscore.Hbond>
2.9920

> <Gold.PLP.Chemscore.CHOScore>
1.0000

> <Gold.PLP.Chemscore.Metal>
0.0000

> <Gold.Chemscore.Hbonds>
donor molecule, donor type, donor heavy atom, donor atom, acceptor molecule, acceptor atom, score
      L1  H     3    17       P1  7948  1.00
      L1  H    10    27       P1  7948  1.00
      P1  H  7989  7998       L1     8  1.00
      L1  C    15    31       P1 10186  0.99

> <Gold.PLP.Chemscore.Internal.Correction>
0.0017

> <Gold.Rescore>
     Score         DG    S(hbond)    S(metal)    S(lipo)     H(rot)  DE(clash)    DE(int)     intcor
     16.07     -19.18       2.68        0.00      68.32       1.27       1.80       1.30       ----

> <Gold.Chemscore.Fitness>
16.0725

> <Gold.Chemscore.DG>
-19.1800

> <Gold.Chemscore.ZeroCoef>
-5.4800

> <Gold.Chemscore.Hbond>
2.6803

> <Gold.Chemscore.Metal>
0.0000

> <Gold.Chemscore.Lipo>
68.3178

> <Gold.Chemscore.Internal_Hbond>
0.0000

> <Gold.Chemscore.DEClash>
1.8044

> <Gold.Chemscore.DEInternal>
1.3030

> <Gold.Chemscore.Rot>
1.2678

> <Gold.Chemscore.Internal.Correction>
   9.000000E+99

> <Gold.Chemscore.Hbonds>
donor molecule, donor type, donor heavy atom, donor atom, acceptor molecule, acceptor atom, score
      L1  H     3    17       P1  7948  0.93
      L1  H    10    27       P1  7948  0.93
      P1  H  7989  7998       L1     8  0.47

> <Gold.Chemscore.Hbond.Weighted>
-8.9523

> <Gold.Chemscore.Metal.Weighted>
-0.0000

> <Gold.Chemscore.Lipo.Weighted>
-7.9932

> <Gold.Chemscore.Internal_Hbond.Weighted>
0.0000

> <Gold.Chemscore.DEClash.Weighted>
1.8044

> <Gold.Chemscore.DEInternal.Weighted>
1.3030

> <Gold.Chemscore.Rot.Weighted>
3.2455

> <Gold.Chemscore.Internal.Correction.Weighted>
   9.000000E+99

> <Gold.Protein.RotatedTorsions>
[ 6907 6896 6895 6894 ] final  105.72 input  -60.11 | X-H torsion
[ 7974 7965 7964 7962 ] final -176.44 input  175.53 | X-H torsion
[ 8008 7997 7996 7995 ] final  -30.64 input   59.86 | X-H torsion
[ 10167 10162 10161 10158 ] final  101.60 input  -65.29 | X-H torsion
[ 10718 10713 10712 10709 ] final    0.04 input   66.30 | X-H torsion
[ 10763 10752 10751 10750 ] final  -91.15 input  -60.55 | X-H torsion
[ 11005 11000 10999 10996 ] final   71.63 input  -57.11 | X-H torsion

> <Gold.Protein.ActiveResidues>
 VAL166  LYS551  ARG553  GLY616  TRP617  ASP618  TYR619  PRO620  LYS621  CYS622 
 ASP623  PHE694  ASN695  SER759  ASP760  ASP761  ALA762  ILE779  LEU786  VAL792 
 PHE793  MET794  SER795  GLU796  ALA797  LYS798  CYS799  TRP800  GLU811  SER814 

> <Gold.Protein.RotatedAtoms>
  152.5220  133.9487  159.7660 H   0  0  0  0  0  0  0  0  0  0  0  0  # atno 6907 bound_to 6896
  150.9801  133.6246  159.2731 H   0  0  0  0  0  0  0  0  0  0  0  0  # atno 6908 bound_to 6896
  151.3426  135.0873  159.9429 H   0  0  0  0  0  0  0  0  0  0  0  0  # atno 6909 bound_to 6896
  144.7127  140.1170  143.6407 H   0  0  0  0  0  0  0  0  0  0  0  0  # atno 7974 bound_to 7965
  154.4243  140.1786  156.1439 H   0  0  0  0  0  0  0  0  0  0  0  0  # atno 8008 bound_to 7997
  155.9970  140.3363  155.6783 H   0  0  0  0  0  0  0  0  0  0  0  0  # atno 8009 bound_to 7997
  155.6295  140.0668  157.2644 H   0  0  0  0  0  0  0  0  0  0  0  0  # atno 8010 bound_to 7997
  139.7423  144.7007  151.0556 H   0  0  0  0  0  0  0  0  0  0  0  0  # atno 10167 bound_to 10162
  156.8275  130.5477  149.5690 H   0  0  0  0  0  0  0  0  0  0  0  0  # atno 10718 bound_to 10713
  154.6731  135.5278  153.8163 H   0  0  0  0  0  0  0  0  0  0  0  0  # atno 10763 bound_to 10752
  153.0514  135.6534  154.0694 H   0  0  0  0  0  0  0  0  0  0  0  0  # atno 10764 bound_to 10752
  154.0591  135.2963  155.3308 H   0  0  0  0  0  0  0  0  0  0  0  0  # atno 10765 bound_to 10752
  139.9533  134.7188  156.0811 H   0  0  0  0  0  0  0  0  0  0  0  0  # atno 11005 bound_to 11000
  145.9405  139.2666  143.1271 LP  0  0  0  0  0  0  0  0  0  0  0  0  # atno 17320 bound_to 7965
  145.9429  140.8966  143.0298 LP  0  0  0  0  0  0  0  0  0  0  0  0  # atno 17321 bound_to 7965
  140.7787  143.4909  150.9895 LP  0  0  0  0  0  0  0  0  0  0  0  0  # atno 17342 bound_to 10162
  139.8597  143.7330  152.3174 LP  0  0  0  0  0  0  0  0  0  0  0  0  # atno 17343 bound_to 10162
  156.0953  130.5927  150.9803 LP  0  0  0  0  0  0  0  0  0  0  0  0  # atno 17370 bound_to 10713
  157.6424  131.0908  150.8223 LP  0  0  0  0  0  0  0  0  0  0  0  0  # atno 17371 bound_to 10713
  141.1200  133.6615  156.3191 LP  0  0  0  0  0  0  0  0  0  0  0  0  # atno 17394 bound_to 11000
  140.5667  134.5880  157.5447 LP  0  0  0  0  0  0  0  0  0  0  0  0  # atno 17395 bound_to 11000

$$$$
