AV-unprocessed.smi:2677|AV-procd|sdf|10365|dock6
  -GOLD-   2272014393D 1   1.00000     0.00000
 Structure written by MMmdl.
 40 41  0  0  0  0  0  0  0  0  1 V2000
  146.2025  143.6185  157.0317 C   0  0  0  0  0  0  0  0  0  0  0  0
  145.9532  142.2332  156.4259 C   0  0  0  0  0  0  0  0  0  0  0  0
  146.9429  141.8971  155.3496 C   0  0  0  0  0  0  0  0  0  0  0  0
  147.7944  140.8029  155.5232 N   0  0  0  0  0  0  0  0  0  0  0  0
  148.6214  140.6216  154.4911 C   0  0  0  0  0  0  0  0  0  0  0  0
  149.6809  139.5665  154.4568 C   0  0  0  0  0  0  0  0  0  0  0  0
  151.0833  140.0919  154.8204 C   0  0  0  0  0  0  0  0  0  0  0  0
  151.0534  140.9824  155.9761 N   0  0  0  0  0  0  0  0  0  0  0  0
  151.7749  140.8266  157.0985 C   0  0  0  0  0  0  0  0  0  0  0  0
  152.6415  139.9577  157.2039 O   0  0  0  0  0  0  0  0  0  0  0  0
  151.4799  141.7093  158.0863 N   0  0  0  0  0  0  0  0  0  0  0  0
  150.7137  142.9572  157.9337 C   0  0  0  0  0  0  0  0  0  0  0  0
  151.6886  144.1450  157.9054 C   0  0  0  0  0  0  0  0  0  0  0  0
  152.5968  144.2750  159.4772 S   0  0  0  0  0  0  0  0  0  0  0  0
  153.1700  142.5547  159.6427 C   0  0  0  0  0  0  0  0  0  0  0  0
  152.0119  141.5614  159.4463 C   0  0  0  0  0  0  0  0  0  0  0  0
  148.4025  141.8107  153.2161 S   0  0  0  0  0  0  0  0  0  0  0  0
  147.1292  142.5499  154.1532 C   0  0  0  0  0  0  0  0  0  0  0  0
  146.3972  143.7442  153.6372 C   0  0  0  0  0  0  0  0  0  0  0  0
  145.4727  143.8394  157.8107 H   0  0  0  0  0  0  0  0  0  0  0  0
  146.1282  144.3995  156.2744 H   0  0  0  0  0  0  0  0  0  0  0  0
  147.1954  143.6777  157.4784 H   0  0  0  0  0  0  0  0  0  0  0  0
  145.9841  141.4837  157.2172 H   0  0  0  0  0  0  0  0  0  0  0  0
  144.9401  142.1959  156.0233 H   0  0  0  0  0  0  0  0  0  0  0  0
  149.3963  138.7689  155.1442 H   0  0  0  0  0  0  0  0  0  0  0  0
  149.6990  139.1210  153.4620 H   0  0  0  0  0  0  0  0  0  0  0  0
  151.7728  139.2628  154.9867 H   0  0  0  0  0  0  0  0  0  0  0  0
  151.4841  140.6617  153.9817 H   0  0  0  0  0  0  0  0  0  0  0  0
  150.3761  141.7306  155.9540 H   0  0  0  0  0  0  0  0  0  0  0  0
  150.0830  142.9663  157.0441 H   0  0  0  0  0  0  0  0  0  0  0  0
  150.0178  143.0681  158.7665 H   0  0  0  0  0  0  0  0  0  0  0  0
  152.4019  144.0337  157.0881 H   0  0  0  0  0  0  0  0  0  0  0  0
  151.1489  145.0765  157.7352 H   0  0  0  0  0  0  0  0  0  0  0  0
  153.9566  142.3701  158.9101 H   0  0  0  0  0  0  0  0  0  0  0  0
  153.6162  142.4284  160.6292 H   0  0  0  0  0  0  0  0  0  0  0  0
  151.2264  141.7457  160.1805 H   0  0  0  0  0  0  0  0  0  0  0  0
  152.3612  140.5473  159.6451 H   0  0  0  0  0  0  0  0  0  0  0  0
  146.7172  144.6465  154.1583 H   0  0  0  0  0  0  0  0  0  0  0  0
  145.3224  143.6332  153.7810 H   0  0  0  0  0  0  0  0  0  0  0  0
  146.5779  143.8879  152.5719 H   0  0  0  0  0  0  0  0  0  0  0  0
  1  2  1  0  0  0  0
  1 20  1  0  0  0  0
  1 21  1  0  0  0  0
  1 22  1  0  0  0  0
  2  3  1  0  0  0  0
  2 23  1  0  0  0  0
  2 24  1  0  0  0  0
  3 18  2  0  0  0  0
  3  4  1  0  0  0  0
  4  5  2  0  0  0  0
  5  6  1  0  0  0  0
  5 17  1  0  0  0  0
  6  7  1  0  0  0  0
  6 25  1  0  0  0  0
  6 26  1  0  0  0  0
  7  8  1  0  0  0  0
  7 27  1  0  0  0  0
  7 28  1  0  0  0  0
  8  9  1  0  0  0  0
  8 29  1  0  0  0  0
  9 10  2  0  0  0  0
  9 11  1  0  0  0  0
 11 16  1  0  0  0  0
 11 12  1  0  0  0  0
 12 13  1  0  0  0  0
 12 30  1  0  0  0  0
 12 31  1  0  0  0  0
 13 14  1  0  0  0  0
 13 32  1  0  0  0  0
 13 33  1  0  0  0  0
 14 15  1  0  0  0  0
 15 16  1  0  0  0  0
 15 34  1  0  0  0  0
 15 35  1  0  0  0  0
 16 36  1  0  0  0  0
 16 37  1  0  0  0  0
 17 18  1  0  0  0  0
 18 19  1  0  0  0  0
 19 38  1  0  0  0  0
 19 39  1  0  0  0  0
 19 40  1  0  0  0  0
M  END
> <s_m_source_file>
AV-unprocessed.smi

> <i_m_source_file_index>
2677

> <i_lp_mmshare_version>
43012

> <i_f3d_flags>
0

> <s_epik_input>
W0NIM11bQ0gyXWMxbmMoc2MxW0NIM10pW0NIMl1bQ0gyXVtOSF1DKD1PKU4yW0NIMl1bQ0gyXVNbQ0gyXVtDSDJdMg==

> <s_epik_cmdline>
J2VwaWtfcHl0aG9uJywgJy1waCcsICc3LjAnLCAnLXRuJywgJzgnLCAnLW1hJywgJzIwMCcsICctbWV0YWxfYmluZGluZycsICctaW1hZScsICc8aW5maWxlLm1hZT4nLCAnLW9tYWUnLCAnPG91dGZpbGUubWFlPic=

> <r_epik_Ionization_Penalty>
0.00440659

> <r_epik_Ionization_Penalty_Charging>
0

> <r_epik_Ionization_Penalty_Neutral>
0.00440659

> <r_epik_State_Penalty>
0.00314229

> <r_epik_Charging_Adjusted_Penalty>
0.00314229

> <i_epik_Tot_Q>
0

> <i_epik_Tot_abs_Q>
0

> <r_epik_Metal_State_Penalty>
-0

> <b_epik_Metal_Only>
0

> <s_lp_Force_Field>
OPLS_2005

> <r_lp_Energy>
14.3594

> <b_lp_Chiralities_Consistent>
1

> <s_lp_Variant>
AV-unprocessed.smi:2677-1

> <Gold.Version>
5.8.1

> <Gold.Id.Protein>
6NUR|6NUR_protein|mol2

> <Gold.PLP.Fitness>
40.3547

> <Gold.PLP.PLP>
-38.1905

> <Gold.PLP.part.hbond>
-1.0000

> <Gold.PLP.part.metal>
0.0000

> <Gold.PLP.part.buried>
-1.9541

> <Gold.PLP.part.nonpolar>
-34.8960

> <Gold.PLP.part.repulsive>
0.1376

> <Gold.PLP.ligand.clash>
0.0000

> <Gold.PLP.ligand.torsion>
0.4278

> <Gold.PLP.Chemscore.Hbond>
1.0000

> <Gold.PLP.Chemscore.CHOScore>
0.0000

> <Gold.PLP.Chemscore.Metal>
0.0000

> <Gold.Chemscore.Hbonds>
donor molecule, donor type, donor heavy atom, donor atom, acceptor molecule, acceptor atom, score
      P1  H  7997  8009       L1    10  1.00

> <Gold.PLP.Chemscore.Internal.Correction>
0.0199

> <Gold.Rescore>
     Score         DG    S(hbond)    S(metal)    S(lipo)     H(rot)  DE(clash)    DE(int)     intcor
     16.06     -16.89       0.99        0.00      99.86       1.40       0.26       0.57       ----

> <Gold.Chemscore.Fitness>
16.0647

> <Gold.Chemscore.DG>
-16.8916

> <Gold.Chemscore.ZeroCoef>
-5.4800

> <Gold.Chemscore.Hbond>
0.9915

> <Gold.Chemscore.Metal>
0.0000

> <Gold.Chemscore.Lipo>
99.8634

> <Gold.Chemscore.Internal_Hbond>
0.0000

> <Gold.Chemscore.DEClash>
0.2563

> <Gold.Chemscore.DEInternal>
0.5705

> <Gold.Chemscore.Rot>
1.4000

> <Gold.Chemscore.Internal.Correction>
   9.000000E+99

> <Gold.Chemscore.Hbonds>
donor molecule, donor type, donor heavy atom, donor atom, acceptor molecule, acceptor atom, score
      P1  H  7997  8009       L1    10  0.96

> <Gold.Chemscore.Hbond.Weighted>
-3.3115

> <Gold.Chemscore.Metal.Weighted>
-0.0000

> <Gold.Chemscore.Lipo.Weighted>
-11.6840

> <Gold.Chemscore.Internal_Hbond.Weighted>
0.0000

> <Gold.Chemscore.DEClash.Weighted>
0.2563

> <Gold.Chemscore.DEInternal.Weighted>
0.5705

> <Gold.Chemscore.Rot.Weighted>
3.5839

> <Gold.Chemscore.Internal.Correction.Weighted>
   9.000000E+99

> <Gold.Protein.RotatedTorsions>
[ 6907 6896 6895 6894 ] final  -83.12 input  -60.11 | X-H torsion
[ 7974 7965 7964 7962 ] final -110.92 input  175.53 | X-H torsion
[ 8008 7997 7996 7995 ] final -169.77 input   59.86 | X-H torsion
[ 10167 10162 10161 10158 ] final  106.00 input  -65.29 | X-H torsion
[ 10718 10713 10712 10709 ] final  -70.28 input   66.30 | X-H torsion
[ 10763 10752 10751 10750 ] final  -24.33 input  -60.55 | X-H torsion
[ 11005 11000 10999 10996 ] final  -29.71 input  -57.11 | X-H torsion

> <Gold.Protein.ActiveResidues>
 VAL166  LYS551  ARG553  GLY616  TRP617  ASP618  TYR619  PRO620  LYS621  CYS622 
 ASP623  PHE694  ASN695  SER759  ASP760  ASP761  ALA762  ILE779  LEU786  VAL792 
 PHE793  MET794  SER795  GLU796  ALA797  LYS798  CYS799  TRP800  GLU811  SER814 

> <Gold.Protein.RotatedAtoms>
  150.6889  134.3560  159.4929 H   0  0  0  0  0  0  0  0  0  0  0  0  # atno 6907 bound_to 6896
  152.1395  134.9071  160.0564 H   0  0  0  0  0  0  0  0  0  0  0  0  # atno 6908 bound_to 6896
  152.0210  133.3864  159.4295 H   0  0  0  0  0  0  0  0  0  0  0  0  # atno 6909 bound_to 6896
  145.1624  140.8885  143.3583 H   0  0  0  0  0  0  0  0  0  0  0  0  # atno 7974 bound_to 7965
  155.9094  140.1055  157.1290 H   0  0  0  0  0  0  0  0  0  0  0  0  # atno 8008 bound_to 7997
  154.4037  140.1277  156.4603 H   0  0  0  0  0  0  0  0  0  0  0  0  # atno 8009 bound_to 7997
  155.7328  140.3468  155.5069 H   0  0  0  0  0  0  0  0  0  0  0  0  # atno 8010 bound_to 7997
  139.7046  144.7088  151.1129 H   0  0  0  0  0  0  0  0  0  0  0  0  # atno 10167 bound_to 10162
  156.0415  130.4328  150.2272 H   0  0  0  0  0  0  0  0  0  0  0  0  # atno 10718 bound_to 10713
  153.6821  135.6966  153.5115 H   0  0  0  0  0  0  0  0  0  0  0  0  # atno 10763 bound_to 10752
  153.2477  135.4285  155.0764 H   0  0  0  0  0  0  0  0  0  0  0  0  # atno 10764 bound_to 10752
  154.8397  135.3523  154.6364 H   0  0  0  0  0  0  0  0  0  0  0  0  # atno 10765 bound_to 10752
  140.9320  133.7332  156.0950 H   0  0  0  0  0  0  0  0  0  0  0  0  # atno 11005 bound_to 11000
  145.0317  139.3335  143.6021 LP  0  0  0  0  0  0  0  0  0  0  0  0  # atno 17320 bound_to 7965
  146.3480  139.9657  142.8712 LP  0  0  0  0  0  0  0  0  0  0  0  0  # atno 17321 bound_to 7965
  140.7718  143.5377  150.9349 LP  0  0  0  0  0  0  0  0  0  0  0  0  # atno 17342 bound_to 10162
  139.9060  143.6778  152.3123 LP  0  0  0  0  0  0  0  0  0  0  0  0  # atno 17343 bound_to 10162
  157.0366  131.0023  151.3296 LP  0  0  0  0  0  0  0  0  0  0  0  0  # atno 17370 bound_to 10713
  157.5239  130.8015  149.7840 LP  0  0  0  0  0  0  0  0  0  0  0  0  # atno 17371 bound_to 10713
  140.7849  134.3683  157.5478 LP  0  0  0  0  0  0  0  0  0  0  0  0  # atno 17394 bound_to 11000
  139.8799  134.9105  156.3015 LP  0  0  0  0  0  0  0  0  0  0  0  0  # atno 17395 bound_to 11000

$$$$
