AV-unprocessed.smi:910|AV-procd|sdf|4133|dock9
  -GOLD-   22720 2 43D 1   1.00000     0.00000
 Structure written by MMmdl.
 45 46  0  0  0  0  0  0  0  0  2 V2000
  146.4239  133.8487  162.3666 C   0  0  0  0  0  0  0  0  0  0  0  0
  147.2210  134.9010  161.6631 C   0  0  0  0  0  0  0  0  0  0  0  0
  148.0362  134.6082  160.5813 N   0  0  0  0  0  0  0  0  0  0  0  0
  148.5762  135.7702  160.2076 C   0  0  0  0  0  0  0  0  0  0  0  0
  149.4227  135.9572  159.1824 N   0  5  0  0  0  0  0  0  0  0  0  0
  149.8321  137.2100  158.8807 C   0  0  0  0  0  0  0  0  0  0  0  0
  149.2252  138.2541  159.1315 O   0  0  0  0  0  0  0  0  0  0  0  0
  151.0020  137.2553  158.2265 N   0  0  0  0  0  0  0  0  0  0  0  0
  151.6158  138.4518  157.6571 C   0  0  0  0  0  0  0  0  0  0  0  0
  152.3076  139.2879  158.7453 C   0  0  0  0  0  0  0  0  0  0  0  0
  152.1328  140.6637  158.4424 O   0  0  0  0  0  0  0  0  0  0  0  0
  151.4670  141.4383  159.4314 C   0  0  1  0  0  0  0  0  0  0  0  0
  152.4808  142.0713  160.4109 C   0  0  0  0  0  0  0  0  0  0  0  0
  153.4215  143.0584  159.6997 C   0  0  0  0  0  0  0  0  0  0  0  0
  152.6319  144.1433  158.9529 C   0  0  0  0  0  0  0  0  0  0  0  0
  151.6094  143.5275  157.9846 C   0  0  0  0  0  0  0  0  0  0  0  0
  150.6651  142.5412  158.7040 C   0  0  1  0  0  0  0  0  0  0  0  0
  149.6149  141.9560  157.7469 C   0  0  0  0  0  0  0  0  0  0  0  0
  148.1709  136.8027  161.0000 O   0  0  0  0  0  0  0  0  0  0  0  0
  147.3156  136.2442  161.9101 C   0  0  0  0  0  0  0  0  0  0  0  0
  146.6911  137.1410  162.9242 C   0  0  0  0  0  0  0  0  0  0  0  0
  147.0103  133.3758  163.1543 H   0  0  0  0  0  0  0  0  0  0  0  0
  146.1031  133.0676  161.6768 H   0  0  0  0  0  0  0  0  0  0  0  0
  145.5296  134.2698  162.8260 H   0  0  0  0  0  0  0  0  0  0  0  0
  151.4667  136.3768  158.0504 H   0  0  0  0  0  0  0  0  0  0  0  0
  152.3164  138.1943  156.8611 H   0  0  0  0  0  0  0  0  0  0  0  0
  150.8247  139.0409  157.1934 H   0  0  0  0  0  0  0  0  0  0  0  0
  151.8666  139.0765  159.7201 H   0  0  0  0  0  0  0  0  0  0  0  0
  153.3612  139.0158  158.8003 H   0  0  0  0  0  0  0  0  0  0  0  0
  150.7722  140.8025  159.9828 H   0  0  0  0  0  0  0  0  0  0  0  0
  151.9366  142.6009  161.1937 H   0  0  0  0  0  0  0  0  0  0  0  0
  153.0648  141.3078  160.9230 H   0  0  0  0  0  0  0  0  0  0  0  0
  154.0926  143.5208  160.4235 H   0  0  0  0  0  0  0  0  0  0  0  0
  154.0555  142.5193  158.9962 H   0  0  0  0  0  0  0  0  0  0  0  0
  152.1153  144.7789  159.6730 H   0  0  0  0  0  0  0  0  0  0  0  0
  153.3191  144.7893  158.4055 H   0  0  0  0  0  0  0  0  0  0  0  0
  151.0303  144.3228  157.5147 H   0  0  0  0  0  0  0  0  0  0  0  0
  152.1369  143.0162  157.1782 H   0  0  0  0  0  0  0  0  0  0  0  0
  150.1206  143.1044  159.4634 H   0  0  0  0  0  0  0  0  0  0  0  0
  150.0818  141.3969  156.9353 H   0  0  0  0  0  0  0  0  0  0  0  0
  149.0106  142.7452  157.2994 H   0  0  0  0  0  0  0  0  0  0  0  0
  148.9392  141.2805  158.2717 H   0  0  0  0  0  0  0  0  0  0  0  0
  145.6188  137.2305  162.7504 H   0  0  0  0  0  0  0  0  0  0  0  0
  147.1252  138.1402  162.8840 H   0  0  0  0  0  0  0  0  0  0  0  0
  146.8400  136.7479  163.9299 H   0  0  0  0  0  0  0  0  0  0  0  0
  1 22  1  0  0  0  0
  1 23  1  0  0  0  0
  1 24  1  0  0  0  0
  1  2  1  0  0  0  0
  2  3  1  0  0  0  0
  2 20  2  0  0  0  0
  3  4  2  0  0  0  0
  4 19  1  0  0  0  0
  4  5  1  0  0  0  0
  5  6  1  0  0  0  0
  6  8  1  0  0  0  0
  6  7  2  0  0  0  0
  8  9  1  0  0  0  0
  8 25  1  0  0  0  0
  9 10  1  0  0  0  0
  9 26  1  0  0  0  0
  9 27  1  0  0  0  0
 10 11  1  0  0  0  0
 10 28  1  0  0  0  0
 10 29  1  0  0  0  0
 11 12  1  0  0  0  0
 12 17  1  0  0  0  0
 12 13  1  0  0  0  0
 12 30  1  0  0  0  0
 13 14  1  0  0  0  0
 13 31  1  0  0  0  0
 13 32  1  0  0  0  0
 14 15  1  0  0  0  0
 14 33  1  0  0  0  0
 14 34  1  0  0  0  0
 15 16  1  0  0  0  0
 15 35  1  0  0  0  0
 15 36  1  0  0  0  0
 16 17  1  0  0  0  0
 16 37  1  0  0  0  0
 16 38  1  0  0  0  0
 17 18  1  0  0  0  0
 17 39  1  0  0  0  0
 18 40  1  0  0  0  0
 18 41  1  0  0  0  0
 18 42  1  0  0  0  0
 19 20  1  0  0  0  0
 20 21  1  0  0  0  0
 21 43  1  0  0  0  0
 21 44  1  0  0  0  0
 21 45  1  0  0  0  0
M  CHG  1   5  -1
M  END
> <s_m_source_file>
AV-unprocessed.smi

> <i_m_source_file_index>
910

> <i_lp_mmshare_version>
43012

> <i_f3d_flags>
0

> <s_epik_input>
W0NIM11jMW5jKG9jMVtDSDNdKVtOSF1DKD1PKVtOSF1bQ0gyXVtDSDJdT1tDQEBIXTJbQ0gyXVtDSDJdW0NIMl1bQ0gyXVtDQEhdMltDSDNd

> <s_epik_cmdline>
J2VwaWtfcHl0aG9uJywgJy1waCcsICc3LjAnLCAnLXRuJywgJzgnLCAnLW1hJywgJzIwMCcsICctbWV0YWxfYmluZGluZycsICctaW1hZScsICc8aW5maWxlLm1hZT4nLCAnLW9tYWUnLCAnPG91dGZpbGUubWFlPic=

> <r_lp_tautomer_probability>
0.107061

> <r_epik_Ionization_Penalty>
10.1763

> <r_epik_Ionization_Penalty_Charging>
7.13067

> <r_epik_Ionization_Penalty_Neutral>
3.04564

> <r_epik_State_Penalty>
5.57927

> <r_epik_Charging_Adjusted_Penalty>
12.7099

> <i_epik_Tot_Q>
-1

> <i_epik_Tot_abs_Q>
1

> <r_epik_Metal_State_Penalty>
1.52303

> <b_epik_Metal_Only>
1

> <s_lp_Force_Field>
OPLS_2005

> <r_lp_Energy>
4.58121

> <b_lp_Chiralities_Consistent>
1

> <s_lp_Variant>
AV-unprocessed.smi:910-18

> <Gold.Version>
5.8.1

> <Gold.Id.Protein>
6NUR|6NUR_protein|mol2

> <Gold.PLP.Fitness>
50.8781

> <Gold.PLP.PLP>
-43.5109

> <Gold.PLP.part.hbond>
-4.7388

> <Gold.PLP.part.metal>
0.0000

> <Gold.PLP.part.buried>
-3.9760

> <Gold.PLP.part.nonpolar>
-36.1004

> <Gold.PLP.part.repulsive>
0.0945

> <Gold.PLP.ligand.clash>
0.0000

> <Gold.PLP.ligand.torsion>
1.3037

> <Gold.PLP.Chemscore.Hbond>
3.3043

> <Gold.PLP.Chemscore.CHOScore>
0.0000

> <Gold.PLP.Chemscore.Metal>
0.0000

> <Gold.Chemscore.Hbonds>
donor molecule, donor type, donor heavy atom, donor atom, acceptor molecule, acceptor atom, score
      P1  H  6896  6909       L1     5  1.90
      P1  H  6931  6943       L1    19  1.00
      P1  H  6934  6947       L1    19  0.01

> <Gold.PLP.Chemscore.Internal.Correction>
0.0618

> <Gold.Rescore>
     Score         DG    S(hbond)    S(metal)    S(lipo)     H(rot)  DE(clash)    DE(int)     intcor
     17.25     -20.08       1.79        0.00     109.19       1.62       0.21       2.61       ----

> <Gold.Chemscore.Fitness>
17.2544

> <Gold.Chemscore.DG>
-20.0777

> <Gold.Chemscore.ZeroCoef>
-5.4800

> <Gold.Chemscore.Hbond>
1.7850

> <Gold.Chemscore.Metal>
0.0000

> <Gold.Chemscore.Lipo>
109.1882

> <Gold.Chemscore.Internal_Hbond>
0.0000

> <Gold.Chemscore.DEClash>
0.2141

> <Gold.Chemscore.DEInternal>
2.6092

> <Gold.Chemscore.Rot>
1.6169

> <Gold.Chemscore.Internal.Correction>
   9.000000E+99

> <Gold.Chemscore.Hbonds>
donor molecule, donor type, donor heavy atom, donor atom, acceptor molecule, acceptor atom, score
      P1  H  6896  6909       L1     5  0.21
      P1  H  6931  6943       L1    19  0.54
      P1  H  6934  6947       L1    19  0.01

> <Gold.Chemscore.Hbond.Weighted>
-5.9619

> <Gold.Chemscore.Metal.Weighted>
-0.0000

> <Gold.Chemscore.Lipo.Weighted>
-12.7750

> <Gold.Chemscore.Internal_Hbond.Weighted>
0.0000

> <Gold.Chemscore.DEClash.Weighted>
0.2141

> <Gold.Chemscore.DEInternal.Weighted>
2.6092

> <Gold.Chemscore.Rot.Weighted>
4.1393

> <Gold.Chemscore.Internal.Correction.Weighted>
   9.000000E+99

> <Gold.Protein.RotatedTorsions>
[ 6907 6896 6895 6894 ] final   45.44 input  -60.11 | X-H torsion
[ 7974 7965 7964 7962 ] final  110.21 input  175.53 | X-H torsion
[ 8008 7997 7996 7995 ] final   28.77 input   59.86 | X-H torsion
[ 10167 10162 10161 10158 ] final   71.24 input  -65.29 | X-H torsion
[ 10718 10713 10712 10709 ] final -143.12 input   66.30 | X-H torsion
[ 10763 10752 10751 10750 ] final -129.78 input  -60.55 | X-H torsion
[ 11005 11000 10999 10996 ] final   93.29 input  -57.11 | X-H torsion

> <Gold.Protein.ActiveResidues>
 VAL166  LYS551  ARG553  GLY616  TRP617  ASP618  TYR619  PRO620  LYS621  CYS622 
 ASP623  PHE694  ASN695  SER759  ASP760  ASP761  ALA762  ILE779  LEU786  VAL792 
 PHE793  MET794  SER795  GLU796  ALA797  LYS798  CYS799  TRP800  GLU811  SER814 

> <Gold.Protein.RotatedAtoms>
  152.2445  134.8195  160.0455 H   0  0  0  0  0  0  0  0  0  0  0  0  # atno 6907 bound_to 6896
  151.8897  133.3508  159.3802 H   0  0  0  0  0  0  0  0  0  0  0  0  # atno 6908 bound_to 6896
  150.7064  134.4862  159.5538 H   0  0  0  0  0  0  0  0  0  0  0  0  # atno 6909 bound_to 6896
  145.2579  139.2714  143.4033 H   0  0  0  0  0  0  0  0  0  0  0  0  # atno 7974 bound_to 7965
  155.0639  140.3193  155.4652 H   0  0  0  0  0  0  0  0  0  0  0  0  # atno 8008 bound_to 7997
  156.2807  140.2124  156.5710 H   0  0  0  0  0  0  0  0  0  0  0  0  # atno 8009 bound_to 7997
  154.7110  140.0498  157.0537 H   0  0  0  0  0  0  0  0  0  0  0  0  # atno 8010 bound_to 7997
  140.0483  144.5333  150.7382 H   0  0  0  0  0  0  0  0  0  0  0  0  # atno 10167 bound_to 10162
  156.3541  130.7703  151.1861 H   0  0  0  0  0  0  0  0  0  0  0  0  # atno 10718 bound_to 10713
  154.8757  135.3884  154.3975 H   0  0  0  0  0  0  0  0  0  0  0  0  # atno 10763 bound_to 10752
  153.4703  135.7030  153.6002 H   0  0  0  0  0  0  0  0  0  0  0  0  # atno 10764 bound_to 10752
  153.4462  135.3844  155.2225 H   0  0  0  0  0  0  0  0  0  0  0  0  # atno 10765 bound_to 10752
  139.8812  134.8781  156.3696 H   0  0  0  0  0  0  0  0  0  0  0  0  # atno 11005 bound_to 11000
  146.3284  140.2987  142.8619 LP  0  0  0  0  0  0  0  0  0  0  0  0  # atno 17320 bound_to 7965
  144.9445  140.8113  143.5610 LP  0  0  0  0  0  0  0  0  0  0  0  0  # atno 17321 bound_to 7965
  140.7229  143.2606  151.4219 LP  0  0  0  0  0  0  0  0  0  0  0  0  # atno 17342 bound_to 10162
  139.5970  144.1377  152.2154 LP  0  0  0  0  0  0  0  0  0  0  0  0  # atno 17343 bound_to 10162
  157.7465  131.0419  150.4668 LP  0  0  0  0  0  0  0  0  0  0  0  0  # atno 17370 bound_to 10713
  156.4868  130.4086  149.6429 LP  0  0  0  0  0  0  0  0  0  0  0  0  # atno 17371 bound_to 10713
  140.9473  133.7474  156.0225 LP  0  0  0  0  0  0  0  0  0  0  0  0  # atno 17394 bound_to 11000
  140.8148  134.3358  157.5400 LP  0  0  0  0  0  0  0  0  0  0  0  0  # atno 17395 bound_to 11000

$$$$
