AV-unprocessed.smi:3208|AV-procd|sdf|12264|dock3
  -GOLD-   2272018103D 1   1.00000     0.00000
 Structure written by MMmdl.
 29 29  0  0  0  0  0  0  0  0  2 V2000
  147.0218  142.2020  154.0770 C   0  0  0  0  0  0  0  0  0  0  0  0
  148.2584  141.7145  154.2666 C   0  0  0  0  0  0  0  0  0  0  0  0
  148.6768  140.7837  155.3878 C   0  0  0  0  0  0  0  0  0  0  0  0
  149.2145  141.4978  156.4966 O   0  0  0  0  0  0  0  0  0  0  0  0
  150.5956  141.8342  156.3871 C   0  0  2  0  0  0  0  0  0  0  0  0
  151.3597  140.5577  156.0098 C   0  0  0  0  0  0  0  0  0  0  0  0
  151.1177  142.4083  157.7147 C   0  0  0  0  0  0  0  0  0  0  0  0
  150.5991  143.4375  158.1571 O   0  0  0  0  0  0  0  0  0  0  0  0
  152.1502  141.6383  158.2438 N   0  0  0  0  0  0  0  0  0  0  0  0
  152.5878  141.7610  159.4675 C   0  0  0  0  0  0  0  0  0  0  0  0
  152.0668  142.6903  160.3849 N   0  0  0  0  0  0  0  0  0  0  0  0
  152.5333  142.8154  161.6763 C   0  0  0  0  0  0  0  0  0  0  0  0
  153.5237  142.0498  162.1374 C   0  0  0  0  0  0  0  0  0  0  0  0
  154.1171  141.0665  161.2547 C   0  0  0  0  0  0  0  0  0  0  0  0
  153.6845  140.8937  159.9346 C   0  0  0  0  0  0  0  0  0  0  0  0
  154.2271  140.0301  159.2067 O   0  5  0  0  0  0  0  0  0  0  0  0
  146.2054  141.9539  154.7391 H   0  0  0  0  0  0  0  0  0  0  0  0
  146.8101  142.8619  153.2487 H   0  0  0  0  0  0  0  0  0  0  0  0
  149.0394  141.9945  153.5749 H   0  0  0  0  0  0  0  0  0  0  0  0
  147.8023  140.2127  155.7026 H   0  0  0  0  0  0  0  0  0  0  0  0
  149.4030  140.0766  154.9860 H   0  0  0  0  0  0  0  0  0  0  0  0
  150.7222  142.5610  155.5818 H   0  0  0  0  0  0  0  0  0  0  0  0
  152.4265  140.7540  155.8958 H   0  0  0  0  0  0  0  0  0  0  0  0
  150.9964  140.1557  155.0639 H   0  0  0  0  0  0  0  0  0  0  0  0
  151.2397  139.7814  156.7666 H   0  0  0  0  0  0  0  0  0  0  0  0
  152.0368  143.5712  162.2665 H   0  0  0  0  0  0  0  0  0  0  0  0
  153.8778  142.1607  163.1517 H   0  0  0  0  0  0  0  0  0  0  0  0
  154.9185  140.4520  161.6392 H   0  0  0  0  0  0  0  0  0  0  0  0
  151.3150  143.3094  160.1202 H   0  0  0  0  0  0  0  0  0  0  0  0
  1  2  2  0  0  0  0
  1 17  1  0  0  0  0
  1 18  1  0  0  0  0
  2  3  1  0  0  0  0
  2 19  1  0  0  0  0
  3  4  1  0  0  0  0
  3 20  1  0  0  0  0
  3 21  1  0  0  0  0
  4  5  1  0  0  0  0
  5  6  1  0  0  0  0
  5  7  1  0  0  0  0
  5 22  1  0  0  0  0
  6 23  1  0  0  0  0
  6 24  1  0  0  0  0
  6 25  1  0  0  0  0
  7  8  2  0  0  0  0
  7  9  1  0  0  0  0
  9 10  2  0  0  0  0
 10 15  1  0  0  0  0
 10 11  1  0  0  0  0
 11 29  1  0  0  0  0
 11 12  1  0  0  0  0
 12 26  1  0  0  0  0
 12 13  2  0  0  0  0
 13 27  1  0  0  0  0
 13 14  1  0  0  0  0
 14 15  2  0  0  0  0
 14 28  1  0  0  0  0
 15 16  1  0  0  0  0
M  CHG  1  16  -1
M  END
> <s_m_source_file>
AV-unprocessed.smi

> <i_m_source_file_index>
3208

> <i_lp_mmshare_version>
43012

> <i_f3d_flags>
0

> <s_epik_input>
W0NIMl09W0NIXVtDSDJdT1tDQEhdKFtDSDNdKUMoPU8pW05IXWMxbltjSF1bY0hdW2NIXWMxW09IXQ==

> <s_epik_cmdline>
J2VwaWtfcHl0aG9uJywgJy1waCcsICc3LjAnLCAnLXRuJywgJzgnLCAnLW1hJywgJzIwMCcsICctbWV0YWxfYmluZGluZycsICctaW1hZScsICc8aW5maWxlLm1hZT4nLCAnLW9tYWUnLCAnPG91dGZpbGUubWFlPic=

> <r_epik_Ionization_Penalty>
0.613767

> <r_epik_Ionization_Penalty_Charging>
0.613767

> <r_epik_Ionization_Penalty_Neutral>
1.14324e-13

> <r_epik_State_Penalty>
1.22258

> <r_epik_Charging_Adjusted_Penalty>
1.83635

> <i_epik_Tot_Q>
-1

> <i_epik_Tot_abs_Q>
1

> <r_epik_Metal_State_Penalty>
1.18528

> <b_epik_Metal_Only>
0

> <s_lp_Force_Field>
OPLS_2005

> <r_lp_Energy>
36.008

> <b_lp_Chiralities_Consistent>
1

> <s_lp_Variant>
AV-unprocessed.smi:3208-5

> <Gold.Version>
5.8.1

> <Gold.Id.Protein>
6NUR|6NUR_protein|mol2

> <Gold.PLP.Fitness>
41.0992

> <Gold.PLP.PLP>
-35.7955

> <Gold.PLP.part.hbond>
-1.0000

> <Gold.PLP.part.metal>
0.0000

> <Gold.PLP.part.buried>
-4.8241

> <Gold.PLP.part.nonpolar>
-30.6434

> <Gold.PLP.part.repulsive>
0.3545

> <Gold.PLP.ligand.clash>
0.0000

> <Gold.PLP.ligand.torsion>
0.3860

> <Gold.PLP.Chemscore.Hbond>
2.0000

> <Gold.PLP.Chemscore.CHOScore>
0.0000

> <Gold.PLP.Chemscore.Metal>
0.0000

> <Gold.Chemscore.Hbonds>
donor molecule, donor type, donor heavy atom, donor atom, acceptor molecule, acceptor atom, score
      P1  H  7997  8010       L1    16  1.89

> <Gold.PLP.Chemscore.Internal.Correction>
0.0758

> <Gold.Rescore>
     Score         DG    S(hbond)    S(metal)    S(lipo)     H(rot)  DE(clash)    DE(int)     intcor
     12.99     -13.21       0.93        0.00      75.78       1.65       0.01       0.21       ----

> <Gold.Chemscore.Fitness>
12.9949

> <Gold.Chemscore.DG>
-13.2129

> <Gold.Chemscore.ZeroCoef>
-5.4800

> <Gold.Chemscore.Hbond>
0.9279

> <Gold.Chemscore.Metal>
0.0000

> <Gold.Chemscore.Lipo>
75.7790

> <Gold.Chemscore.Internal_Hbond>
0.0000

> <Gold.Chemscore.DEClash>
0.0088

> <Gold.Chemscore.DEInternal>
0.2092

> <Gold.Chemscore.Rot>
1.6533

> <Gold.Chemscore.Internal.Correction>
   9.000000E+99

> <Gold.Chemscore.Hbonds>
donor molecule, donor type, donor heavy atom, donor atom, acceptor molecule, acceptor atom, score
      P1  H  7997  8010       L1    16  0.86

> <Gold.Chemscore.Hbond.Weighted>
-3.0991

> <Gold.Chemscore.Metal.Weighted>
-0.0000

> <Gold.Chemscore.Lipo.Weighted>
-8.8661

> <Gold.Chemscore.Internal_Hbond.Weighted>
0.0000

> <Gold.Chemscore.DEClash.Weighted>
0.0088

> <Gold.Chemscore.DEInternal.Weighted>
0.2092

> <Gold.Chemscore.Rot.Weighted>
4.2324

> <Gold.Chemscore.Internal.Correction.Weighted>
   9.000000E+99

> <Gold.Protein.RotatedTorsions>
[ 6907 6896 6895 6894 ] final -125.17 input  -60.11 | X-H torsion
[ 7974 7965 7964 7962 ] final   97.84 input  175.53 | X-H torsion
[ 8008 7997 7996 7995 ] final    3.96 input   59.86 | X-H torsion
[ 10167 10162 10161 10158 ] final  105.96 input  -65.29 | X-H torsion
[ 10718 10713 10712 10709 ] final  102.82 input   66.30 | X-H torsion
[ 10763 10752 10751 10750 ] final  -94.57 input  -60.55 | X-H torsion
[ 11005 11000 10999 10996 ] final   34.59 input  -57.11 | X-H torsion

> <Gold.Protein.ActiveResidues>
 VAL166  LYS551  ARG553  GLY616  TRP617  ASP618  TYR619  PRO620  LYS621  CYS622 
 ASP623  PHE694  ASN695  SER759  ASP760  ASP761  ALA762  ILE779  LEU786  VAL792 
 PHE793  MET794  SER795  GLU796  ALA797  LYS798  CYS799  TRP800  GLU811  SER814 

> <Gold.Protein.RotatedAtoms>
  150.8841  133.7332  159.2923 H   0  0  0  0  0  0  0  0  0  0  0  0  # atno 6907 bound_to 6896
  151.4903  135.1055  159.9811 H   0  0  0  0  0  0  0  0  0  0  0  0  # atno 6908 bound_to 6896
  152.4779  133.8135  159.7071 H   0  0  0  0  0  0  0  0  0  0  0  0  # atno 6909 bound_to 6896
  145.4201  139.2322  143.3201 H   0  0  0  0  0  0  0  0  0  0  0  0  # atno 7974 bound_to 7965
  154.7100  140.2690  155.6638 H   0  0  0  0  0  0  0  0  0  0  0  0  # atno 8008 bound_to 7997
  156.2792  140.2755  156.1663 H   0  0  0  0  0  0  0  0  0  0  0  0  # atno 8009 bound_to 7997
  155.0647  140.0371  157.2579 H   0  0  0  0  0  0  0  0  0  0  0  0  # atno 8010 bound_to 7997
  139.7049  144.7088  151.1123 H   0  0  0  0  0  0  0  0  0  0  0  0  # atno 10167 bound_to 10162
  157.6791  131.0763  150.5461 H   0  0  0  0  0  0  0  0  0  0  0  0  # atno 10718 bound_to 10713
  154.7067  135.5153  153.8605 H   0  0  0  0  0  0  0  0  0  0  0  0  # atno 10763 bound_to 10752
  153.0747  135.6612  154.0181 H   0  0  0  0  0  0  0  0  0  0  0  0  # atno 10764 bound_to 10752
  154.0030  135.3009  155.3380 H   0  0  0  0  0  0  0  0  0  0  0  0  # atno 10765 bound_to 10752
  140.2513  134.3300  155.7889 H   0  0  0  0  0  0  0  0  0  0  0  0  # atno 11005 bound_to 11000
  146.2661  140.4924  142.8833 LP  0  0  0  0  0  0  0  0  0  0  0  0  # atno 17320 bound_to 7965
  144.8251  140.6615  143.6327 LP  0  0  0  0  0  0  0  0  0  0  0  0  # atno 17321 bound_to 7965
  140.7719  143.5372  150.9354 LP  0  0  0  0  0  0  0  0  0  0  0  0  # atno 17342 bound_to 10162
  139.9055  143.6784  152.3124 LP  0  0  0  0  0  0  0  0  0  0  0  0  # atno 17343 bound_to 10162
  156.5767  130.4294  149.5995 LP  0  0  0  0  0  0  0  0  0  0  0  0  # atno 17370 bound_to 10713
  156.2695  130.7009  151.1802 LP  0  0  0  0  0  0  0  0  0  0  0  0  # atno 17371 bound_to 10713
  141.2201  133.7355  156.9041 LP  0  0  0  0  0  0  0  0  0  0  0  0  # atno 17394 bound_to 11000
  140.1555  134.9201  157.2648 LP  0  0  0  0  0  0  0  0  0  0  0  0  # atno 17395 bound_to 11000

$$$$
