AV-unprocessed.smi:2692|AV-procd|sdf|10394|dock10
  -GOLD-   2272014433D 1   1.00000     0.00000
 Structure written by MMmdl.
 21 21  0  0  0  0  0  0  0  0  4 V2000
  147.1759  142.9007  154.1482 N   0  3  0  0  0  0  0  0  0  0  0  0
  148.0564  141.7459  153.9034 C   0  0  0  0  0  0  0  0  0  0  0  0
  148.6807  141.2308  155.2085 C   0  0  0  0  0  0  0  0  0  0  0  0
  149.6660  140.1034  154.9673 C   0  0  0  0  0  0  0  0  0  0  0  0
  149.3433  139.0330  154.1042 C   0  0  0  0  0  0  0  0  0  0  0  0
  150.2359  138.0393  153.8984 N   0  3  0  0  0  0  0  0  0  0  0  0
  151.4514  138.0131  154.4867 C   0  0  0  0  0  0  0  0  0  0  0  0
  151.8291  139.0544  155.3579 C   0  0  0  0  0  0  0  0  0  0  0  0
  153.0536  139.0424  155.9564 O   0  5  0  0  0  0  0  0  0  0  0  0
  150.9269  140.1094  155.6036 C   0  0  0  0  0  0  0  0  0  0  0  0
  146.6290  143.0887  153.3199 H   0  0  0  0  0  0  0  0  0  0  0  0
  147.7360  143.7116  154.3700 H   0  0  0  0  0  0  0  0  0  0  0  0
  147.4754  140.9576  153.4235 H   0  0  0  0  0  0  0  0  0  0  0  0
  148.8346  142.0458  153.2006 H   0  0  0  0  0  0  0  0  0  0  0  0
  149.1995  142.0414  155.7222 H   0  0  0  0  0  0  0  0  0  0  0  0
  147.8994  140.8851  155.8870 H   0  0  0  0  0  0  0  0  0  0  0  0
  148.4060  138.9397  153.5753 H   0  0  0  0  0  0  0  0  0  0  0  0
  152.0790  137.1678  154.2444 H   0  0  0  0  0  0  0  0  0  0  0  0
  149.9833  137.2749  153.2719 H   0  0  0  0  0  0  0  0  0  0  0  0
  151.2011  140.9143  156.2704 H   0  0  0  0  0  0  0  0  0  0  0  0
  146.5573  142.6979  154.9203 H   0  0  0  0  0  0  0  0  0  0  0  0
  1  2  1  0  0  0  0
  1 11  1  0  0  0  0
  1 12  1  0  0  0  0
  1 21  1  0  0  0  0
  2  3  1  0  0  0  0
  2 13  1  0  0  0  0
  2 14  1  0  0  0  0
  3 15  1  0  0  0  0
  3 16  1  0  0  0  0
  3  4  1  0  0  0  0
  4  5  1  0  0  0  0
  4 10  2  0  0  0  0
  5  6  2  0  0  0  0
  5 17  1  0  0  0  0
  6  7  1  0  0  0  0
  6 19  1  0  0  0  0
  7  8  2  0  0  0  0
  7 18  1  0  0  0  0
  8  9  1  0  0  0  0
  8 10  1  0  0  0  0
 10 20  1  0  0  0  0
M  CHG  1   1   1
M  CHG  1   6   1
M  CHG  1   9  -1
M  END
> <s_m_source_file>
AV-unprocessed.smi

> <i_m_source_file_index>
2692

> <i_lp_mmshare_version>
43012

> <i_f3d_flags>
0

> <s_epik_input>
W05IMl1bQ0gyXVtDSDJdYzFbY0hdbltjSF1jKFtPSF0pW2NIXTE=

> <s_epik_cmdline>
J2VwaWtfcHl0aG9uJywgJy1waCcsICc3LjAnLCAnLXRuJywgJzgnLCAnLW1hJywgJzIwMCcsICctbWV0YWxfYmluZGluZycsICctaW1hZScsICc8aW5maWxlLm1hZT4nLCAnLW9tYWUnLCAnPG91dGZpbGUubWFlPic=

> <r_lp_tautomer_probability>
0.56342

> <r_epik_Ionization_Penalty>
0.0470523

> <r_epik_Ionization_Penalty_Charging>
0.0470523

> <r_epik_Ionization_Penalty_Neutral>
0

> <r_epik_State_Penalty>
0.376149

> <r_epik_Charging_Adjusted_Penalty>
0.423201

> <i_epik_Tot_Q>
1

> <i_epik_Tot_abs_Q>
3

> <r_epik_Metal_State_Penalty>
2.7829

> <b_epik_Metal_Only>
0

> <s_lp_Force_Field>
OPLS_2005

> <r_lp_Energy>
5.09983

> <b_lp_Chiralities_Consistent>
1

> <s_lp_Variant>
AV-unprocessed.smi:2692-1

> <Gold.Version>
5.8.1

> <Gold.Id.Protein>
6NUR|6NUR_protein|mol2

> <Gold.PLP.Fitness>
41.3986

> <Gold.PLP.PLP>
-23.7407

> <Gold.PLP.part.hbond>
-3.2550

> <Gold.PLP.part.metal>
0.0000

> <Gold.PLP.part.buried>
-2.3891

> <Gold.PLP.part.nonpolar>
-18.4333

> <Gold.PLP.part.repulsive>
0.2317

> <Gold.PLP.ligand.clash>
0.0000

> <Gold.PLP.ligand.torsion>
0.1712

> <Gold.PLP.Chemscore.Hbond>
6.0000

> <Gold.PLP.Chemscore.CHOScore>
0.0000

> <Gold.PLP.Chemscore.Metal>
0.0000

> <Gold.Chemscore.Hbonds>
donor molecule, donor type, donor heavy atom, donor atom, acceptor molecule, acceptor atom, score
      L1  H     1    12       P1  8028  2.00
      L1  H     6    19       P1  7948  2.00
      P1  H  7997  8010       L1     9  1.92

> <Gold.PLP.Chemscore.Internal.Correction>
0.0002

> <Gold.Rescore>
     Score         DG    S(hbond)    S(metal)    S(lipo)     H(rot)  DE(clash)    DE(int)     intcor
     15.24     -15.74       2.46        0.00      47.44       1.36       0.09       0.41       ----

> <Gold.Chemscore.Fitness>
15.2438

> <Gold.Chemscore.DG>
-15.7438

> <Gold.Chemscore.ZeroCoef>
-5.4800

> <Gold.Chemscore.Hbond>
2.4571

> <Gold.Chemscore.Metal>
0.0000

> <Gold.Chemscore.Lipo>
47.4417

> <Gold.Chemscore.Internal_Hbond>
0.0000

> <Gold.Chemscore.DEClash>
0.0903

> <Gold.Chemscore.DEInternal>
0.4097

> <Gold.Chemscore.Rot>
1.3646

> <Gold.Chemscore.Internal.Correction>
   9.000000E+99

> <Gold.Chemscore.Hbonds>
donor molecule, donor type, donor heavy atom, donor atom, acceptor molecule, acceptor atom, score
      L1  H     1    12       P1  8028  0.33
      L1  H     6    19       P1  7948  0.29
      P1  H  7997  8010       L1     9  0.92

> <Gold.Chemscore.Hbond.Weighted>
-8.2066

> <Gold.Chemscore.Metal.Weighted>
-0.0000

> <Gold.Chemscore.Lipo.Weighted>
-5.5507

> <Gold.Chemscore.Internal_Hbond.Weighted>
0.0000

> <Gold.Chemscore.DEClash.Weighted>
0.0903

> <Gold.Chemscore.DEInternal.Weighted>
0.4097

> <Gold.Chemscore.Rot.Weighted>
3.4934

> <Gold.Chemscore.Internal.Correction.Weighted>
   9.000000E+99

> <Gold.Protein.RotatedTorsions>
[ 6907 6896 6895 6894 ] final   18.11 input  -60.11 | X-H torsion
[ 7974 7965 7964 7962 ] final  -53.03 input  175.53 | X-H torsion
[ 8008 7997 7996 7995 ] final  101.42 input   59.86 | X-H torsion
[ 10167 10162 10161 10158 ] final   35.51 input  -65.29 | X-H torsion
[ 10718 10713 10712 10709 ] final  -30.46 input   66.30 | X-H torsion
[ 10763 10752 10751 10750 ] final  -73.43 input  -60.55 | X-H torsion
[ 11005 11000 10999 10996 ] final  110.11 input  -57.11 | X-H torsion

> <Gold.Protein.ActiveResidues>
 VAL166  LYS551  ARG553  GLY616  TRP617  ASP618  TYR619  PRO620  LYS621  CYS622 
 ASP623  PHE694  ASN695  SER759  ASP760  ASP761  ALA762  ILE779  LEU786  VAL792 
 PHE793  MET794  SER795  GLU796  ALA797  LYS798  CYS799  TRP800  GLU811  SER814 

> <Gold.Protein.RotatedAtoms>
  151.8602  135.0527  160.0468 H   0  0  0  0  0  0  0  0  0  0  0  0  # atno 6907 bound_to 6896
  152.2669  133.5342  159.5423 H   0  0  0  0  0  0  0  0  0  0  0  0  # atno 6908 bound_to 6896
  150.7137  134.0668  159.3893 H   0  0  0  0  0  0  0  0  0  0  0  0  # atno 6909 bound_to 6896
  145.9014  140.7991  142.9741 H   0  0  0  0  0  0  0  0  0  0  0  0  # atno 7974 bound_to 7965
  156.1297  140.3198  155.8331 H   0  0  0  0  0  0  0  0  0  0  0  0  # atno 8008 bound_to 7997
  155.4354  140.0522  157.3032 H   0  0  0  0  0  0  0  0  0  0  0  0  # atno 8009 bound_to 7997
  154.4890  140.2084  155.9604 H   0  0  0  0  0  0  0  0  0  0  0  0  # atno 8010 bound_to 7997
  140.4215  144.1453  150.6148 H   0  0  0  0  0  0  0  0  0  0  0  0  # atno 10167 bound_to 10162
  156.3995  130.4387  149.7333 H   0  0  0  0  0  0  0  0  0  0  0  0  # atno 10718 bound_to 10713
  154.4594  135.5897  153.6245 H   0  0  0  0  0  0  0  0  0  0  0  0  # atno 10763 bound_to 10752
  152.9821  135.6040  154.3505 H   0  0  0  0  0  0  0  0  0  0  0  0  # atno 10764 bound_to 10752
  154.3376  135.2842  155.2418 H   0  0  0  0  0  0  0  0  0  0  0  0  # atno 10765 bound_to 10752
  139.8875  134.9475  156.6228 H   0  0  0  0  0  0  0  0  0  0  0  0  # atno 11005 bound_to 11000
  144.6736  140.1683  143.7416 LP  0  0  0  0  0  0  0  0  0  0  0  0  # atno 17320 bound_to 7965
  145.8786  139.2311  143.1618 LP  0  0  0  0  0  0  0  0  0  0  0  0  # atno 17321 bound_to 7965
  140.4529  143.2479  151.9324 LP  0  0  0  0  0  0  0  0  0  0  0  0  # atno 17342 bound_to 10162
  139.4783  144.5545  151.8335 LP  0  0  0  0  0  0  0  0  0  0  0  0  # atno 17343 bound_to 10162
  156.4355  130.7836  151.2856 LP  0  0  0  0  0  0  0  0  0  0  0  0  # atno 17370 bound_to 10713
  157.7503  131.0141  150.3450 LP  0  0  0  0  0  0  0  0  0  0  0  0  # atno 17371 bound_to 10713
  140.7726  133.8726  155.8504 LP  0  0  0  0  0  0  0  0  0  0  0  0  # atno 17394 bound_to 11000
  140.9829  134.1382  157.4478 LP  0  0  0  0  0  0  0  0  0  0  0  0  # atno 17395 bound_to 11000

$$$$
