AV-unprocessed.smi:1644|AV-procd|sdf|6588|dock8
  -GOLD-   22720 7283D 1   1.00000     0.00000
 Structure written by MMmdl.
 50 52  0  0  0  0  0  0  0  0  2 V2000
  149.5678  132.0671  153.8321 C   0  0  0  0  0  0  0  0  0  0  0  0
  149.5860  133.0761  154.9854 C   0  0  0  0  0  0  0  0  0  0  0  0
  148.7768  134.3444  154.6705 C   0  0  0  0  0  0  0  0  0  0  0  0
  149.1896  135.5562  155.5289 C   0  0  2  0  0  0  0  0  0  0  0  0
  148.7416  136.8168  154.9710 N   0  0  0  0  0  0  0  0  0  0  0  0
  149.7548  137.6481  154.6965 C   0  0  0  0  0  0  0  0  0  0  0  0
  149.6382  138.7722  154.2109 O   0  0  0  0  0  0  0  0  0  0  0  0
  150.9061  137.0387  155.0334 N   0  0  0  0  0  0  0  0  0  0  0  0
  152.2372  137.6283  154.8576 C   0  0  0  0  0  0  0  0  0  0  0  0
  152.2216  139.1559  155.0713 C   0  0  2  0  0  0  0  0  0  0  0  0
  153.4648  139.6830  154.6499 O   0  0  0  0  0  0  0  0  0  0  0  0
  152.0078  139.5199  156.5539 C   0  0  0  0  0  0  0  0  0  0  0  0
  151.4338  140.8610  156.7343 N   0  0  0  0  0  0  0  0  0  0  0  0
  150.6105  141.5681  155.9138 C   0  0  0  0  0  0  0  0  0  0  0  0
  150.3550  142.7617  156.5170 N   0  3  0  0  0  0  0  0  0  0  0  0
  151.0273  142.8190  157.7397 C   0  0  0  0  0  0  0  0  0  0  0  0
  151.0799  143.8198  158.7024 C   0  0  0  0  0  0  0  0  0  0  0  0
  151.8676  143.5713  159.8492 C   0  0  0  0  0  0  0  0  0  0  0  0
  151.9504  144.6468  160.9191 C   0  0  0  0  0  0  0  0  0  0  0  0
  152.5689  142.3472  160.0016 C   0  0  0  0  0  0  0  0  0  0  0  0
  153.4149  142.0907  161.2374 C   0  0  0  0  0  0  0  0  0  0  0  0
  152.5011  141.3412  159.0114 C   0  0  0  0  0  0  0  0  0  0  0  0
  151.7213  141.6022  157.8868 C   0  0  0  0  0  0  0  0  0  0  0  0
  150.6858  135.8075  155.5121 C   0  0  0  0  0  0  0  0  0  0  0  0
  151.5278  134.9869  155.8764 O   0  0  0  0  0  0  0  0  0  0  0  0
  150.1550  131.1828  154.0806 H   0  0  0  0  0  0  0  0  0  0  0  0
  149.9869  132.5002  152.9235 H   0  0  0  0  0  0  0  0  0  0  0  0
  148.5515  131.7403  153.6108 H   0  0  0  0  0  0  0  0  0  0  0  0
  149.1931  132.5967  155.8826 H   0  0  0  0  0  0  0  0  0  0  0  0
  150.6184  133.3482  155.2075 H   0  0  0  0  0  0  0  0  0  0  0  0
  148.9086  134.5930  153.6163 H   0  0  0  0  0  0  0  0  0  0  0  0
  147.7132  134.1385  154.8030 H   0  0  0  0  0  0  0  0  0  0  0  0
  148.8406  135.4544  156.5573 H   0  0  0  0  0  0  0  0  0  0  0  0
  147.7680  137.0301  154.8091 H   0  0  0  0  0  0  0  0  0  0  0  0
  152.9074  137.1651  155.5841 H   0  0  0  0  0  0  0  0  0  0  0  0
  152.6581  137.3749  153.8825 H   0  0  0  0  0  0  0  0  0  0  0  0
  151.4272  139.6133  154.4795 H   0  0  0  0  0  0  0  0  0  0  0  0
  153.9905  138.9764  154.3065 H   0  0  0  0  0  0  0  0  0  0  0  0
  151.3112  138.8152  157.0100 H   0  0  0  0  0  0  0  0  0  0  0  0
  152.9351  139.4416  157.1221 H   0  0  0  0  0  0  0  0  0  0  0  0
  150.2297  141.2416  154.9566 H   0  0  0  0  0  0  0  0  0  0  0  0
  150.5440  144.7495  158.5784 H   0  0  0  0  0  0  0  0  0  0  0  0
  151.5571  144.2759  161.8659 H   0  0  0  0  0  0  0  0  0  0  0  0
  151.3743  145.5306  160.6425 H   0  0  0  0  0  0  0  0  0  0  0  0
  152.9844  144.9583  161.0708 H   0  0  0  0  0  0  0  0  0  0  0  0
  153.8619  141.0964  161.2156 H   0  0  0  0  0  0  0  0  0  0  0  0
  152.8073  142.1610  162.1399 H   0  0  0  0  0  0  0  0  0  0  0  0
  154.2236  142.8186  161.3054 H   0  0  0  0  0  0  0  0  0  0  0  0
  153.0420  140.4134  159.1245 H   0  0  0  0  0  0  0  0  0  0  0  0
  149.7669  143.4831  156.1198 H   0  0  0  0  0  0  0  0  0  0  0  0
  1  2  1  0  0  0  0
  1 26  1  0  0  0  0
  1 27  1  0  0  0  0
  1 28  1  0  0  0  0
  2  3  1  0  0  0  0
  2 29  1  0  0  0  0
  2 30  1  0  0  0  0
  3  4  1  0  0  0  0
  3 31  1  0  0  0  0
  3 32  1  0  0  0  0
  4 24  1  0  0  0  0
  4  5  1  0  0  0  0
  4 33  1  0  0  0  0
  5  6  1  0  0  0  0
  5 34  1  0  0  0  0
  6  7  2  0  0  0  0
  6  8  1  0  0  0  0
  8  9  1  0  0  0  0
  8 24  1  0  0  0  0
  9 10  1  0  0  0  0
  9 35  1  0  0  0  0
  9 36  1  0  0  0  0
 10 11  1  0  0  0  0
 10 12  1  0  0  0  0
 10 37  1  0  0  0  0
 11 38  1  0  0  0  0
 12 13  1  0  0  0  0
 12 39  1  0  0  0  0
 12 40  1  0  0  0  0
 13 23  1  0  0  0  0
 13 14  1  0  0  0  0
 14 15  2  0  0  0  0
 14 41  1  0  0  0  0
 15 16  1  0  0  0  0
 15 50  1  0  0  0  0
 16 23  2  0  0  0  0
 16 17  1  0  0  0  0
 17 18  2  0  0  0  0
 17 42  1  0  0  0  0
 18 19  1  0  0  0  0
 18 20  1  0  0  0  0
 19 43  1  0  0  0  0
 19 44  1  0  0  0  0
 19 45  1  0  0  0  0
 20 21  1  0  0  0  0
 20 22  2  0  0  0  0
 21 46  1  0  0  0  0
 21 47  1  0  0  0  0
 21 48  1  0  0  0  0
 22 23  1  0  0  0  0
 22 49  1  0  0  0  0
 24 25  2  0  0  0  0
M  CHG  1  15   1
M  END
> <s_m_source_file>
AV-unprocessed.smi

> <i_m_source_file_index>
1644

> <i_lp_mmshare_version>
43012

> <i_f3d_flags>
0

> <s_epik_input>
W0NIM11bQ0gyXVtDSDJdW0NAQEhdMVtOSF1DKD1PKU4oQzE9TylbQ0gyXVtDQEhdKFtPSF0pW0NIMl1uKFtjSF1uMiljKGMyMylbY0hdYyhbQ0gzXSljKFtjSF0zKVtDSDNd

> <s_epik_cmdline>
J2VwaWtfcHl0aG9uJywgJy1waCcsICc3LjAnLCAnLXRuJywgJzgnLCAnLW1hJywgJzIwMCcsICctbWV0YWxfYmluZGluZycsICctaW1hZScsICc8aW5maWxlLm1hZT4nLCAnLW9tYWUnLCAnPG91dGZpbGUubWFlPic=

> <r_lp_tautomer_probability>
1

> <r_epik_Ionization_Penalty>
1.06742

> <r_epik_Ionization_Penalty_Charging>
1.06736

> <r_epik_Ionization_Penalty_Neutral>
5.56132e-05

> <r_epik_State_Penalty>
1.12163

> <r_epik_Charging_Adjusted_Penalty>
2.18899

> <i_epik_Tot_Q>
1

> <i_epik_Tot_abs_Q>
1

> <r_epik_Metal_State_Penalty>
1.26636

> <b_epik_Metal_Only>
0

> <s_lp_Force_Field>
OPLS_2005

> <r_lp_Energy>
29.1926

> <b_lp_Chiralities_Consistent>
1

> <s_lp_Variant>
AV-unprocessed.smi:1644-5

> <Gold.Version>
5.8.1

> <Gold.Id.Protein>
6NUR|6NUR_protein|mol2

> <Gold.PLP.Fitness>
60.2947

> <Gold.PLP.PLP>
-50.8646

> <Gold.PLP.part.hbond>
-4.4620

> <Gold.PLP.part.metal>
0.0000

> <Gold.PLP.part.buried>
-3.1668

> <Gold.PLP.part.nonpolar>
-42.7792

> <Gold.PLP.part.repulsive>
0.3130

> <Gold.PLP.ligand.clash>
0.0071

> <Gold.PLP.ligand.torsion>
1.2631

> <Gold.PLP.Chemscore.Hbond>
3.9516

> <Gold.PLP.Chemscore.CHOScore>
0.0000

> <Gold.PLP.Chemscore.Metal>
0.0000

> <Gold.Chemscore.Hbonds>
donor molecule, donor type, donor heavy atom, donor atom, acceptor molecule, acceptor atom, score
      L1  H    15    50       P1  8028  2.00
      P1  H  7997  8009       L1    11  1.00
      P1  H 10752 10765       L1    25  0.93

> <Gold.PLP.Chemscore.Internal.Correction>
0.1087

> <Gold.Rescore>
     Score         DG    S(hbond)    S(metal)    S(lipo)     H(rot)  DE(clash)    DE(int)     intcor
     16.80     -20.82       2.46        0.00     121.93       2.80       0.13       3.88       ----

> <Gold.Chemscore.Fitness>
16.8043

> <Gold.Chemscore.DG>
-20.8181

> <Gold.Chemscore.ZeroCoef>
-5.4800

> <Gold.Chemscore.Hbond>
2.4640

> <Gold.Chemscore.Metal>
0.0000

> <Gold.Chemscore.Lipo>
121.9337

> <Gold.Chemscore.Internal_Hbond>
0.0000

> <Gold.Chemscore.DEClash>
0.1322

> <Gold.Chemscore.DEInternal>
3.8816

> <Gold.Chemscore.Rot>
2.7961

> <Gold.Chemscore.Internal.Correction>
   9.000000E+99

> <Gold.Chemscore.Hbonds>
donor molecule, donor type, donor heavy atom, donor atom, acceptor molecule, acceptor atom, score
      L1  H    15    50       P1  8028  0.98
      P1  H  7997  8009       L1    11  0.24
      P1  H 10752 10765       L1    25  0.40

> <Gold.Chemscore.Hbond.Weighted>
-8.2299

> <Gold.Chemscore.Metal.Weighted>
-0.0000

> <Gold.Chemscore.Lipo.Weighted>
-14.2662

> <Gold.Chemscore.Internal_Hbond.Weighted>
0.0000

> <Gold.Chemscore.DEClash.Weighted>
0.1322

> <Gold.Chemscore.DEInternal.Weighted>
3.8816

> <Gold.Chemscore.Rot.Weighted>
7.1580

> <Gold.Chemscore.Internal.Correction.Weighted>
   9.000000E+99

> <Gold.Protein.RotatedTorsions>
[ 6907 6896 6895 6894 ] final  -17.70 input  -60.11 | X-H torsion
[ 7974 7965 7964 7962 ] final -107.22 input  175.53 | X-H torsion
[ 8008 7997 7996 7995 ] final -142.05 input   59.86 | X-H torsion
[ 10167 10162 10161 10158 ] final  -43.91 input  -65.29 | X-H torsion
[ 10718 10713 10712 10709 ] final   58.88 input   66.30 | X-H torsion
[ 10763 10752 10751 10750 ] final -158.35 input  -60.55 | X-H torsion
[ 11005 11000 10999 10996 ] final  131.47 input  -57.11 | X-H torsion

> <Gold.Protein.ActiveResidues>
 VAL166  LYS551  ARG553  GLY616  TRP617  ASP618  TYR619  PRO620  LYS621  CYS622 
 ASP623  PHE694  ASN695  SER759  ASP760  ASP761  ALA762  ILE779  LEU786  VAL792 
 PHE793  MET794  SER795  GLU796  ALA797  LYS798  CYS799  TRP800  GLU811  SER814 

> <Gold.Protein.RotatedAtoms>
  151.2894  135.0737  159.9198 H   0  0  0  0  0  0  0  0  0  0  0  0  # atno 6907 bound_to 6896
  152.5319  133.9947  159.7877 H   0  0  0  0  0  0  0  0  0  0  0  0  # atno 6908 bound_to 6896
  151.0215  133.5821  159.2701 H   0  0  0  0  0  0  0  0  0  0  0  0  # atno 6909 bound_to 6896
  145.2081  140.9085  143.3330 H   0  0  0  0  0  0  0  0  0  0  0  0  # atno 7974 bound_to 7965
  155.4879  140.0565  157.2958 H   0  0  0  0  0  0  0  0  0  0  0  0  # atno 8008 bound_to 7997
  154.4634  140.2007  156.0134 H   0  0  0  0  0  0  0  0  0  0  0  0  # atno 8009 bound_to 7997
  156.0932  140.3230  155.7847 H   0  0  0  0  0  0  0  0  0  0  0  0  # atno 8010 bound_to 7997
  140.6916  143.2958  151.3420 H   0  0  0  0  0  0  0  0  0  0  0  0  # atno 10167 bound_to 10162
  157.5632  130.8851  149.9144 H   0  0  0  0  0  0  0  0  0  0  0  0  # atno 10718 bound_to 10713
  154.7564  135.3106  154.8462 H   0  0  0  0  0  0  0  0  0  0  0  0  # atno 10763 bound_to 10752
  153.9235  135.6793  153.4751 H   0  0  0  0  0  0  0  0  0  0  0  0  # atno 10764 bound_to 10752
  153.1161  135.4844  154.9048 H   0  0  0  0  0  0  0  0  0  0  0  0  # atno 10765 bound_to 10752
  139.9732  134.9571  156.9443 H   0  0  0  0  0  0  0  0  0  0  0  0  # atno 11005 bound_to 11000
  144.9882  139.3715  143.6228 LP  0  0  0  0  0  0  0  0  0  0  0  0  # atno 17320 bound_to 7965
  146.3403  139.9053  142.8788 LP  0  0  0  0  0  0  0  0  0  0  0  0  # atno 17321 bound_to 7965
  139.6326  144.0692  152.2489 LP  0  0  0  0  0  0  0  0  0  0  0  0  # atno 17342 bound_to 10162
  140.0172  144.6180  150.7597 LP  0  0  0  0  0  0  0  0  0  0  0  0  # atno 17343 bound_to 10162
  156.0682  130.3689  150.0832 LP  0  0  0  0  0  0  0  0  0  0  0  0  # atno 17370 bound_to 10713
  156.8994  130.9615  151.3578 LP  0  0  0  0  0  0  0  0  0  0  0  0  # atno 17371 bound_to 10713
  140.5249  134.0871  155.7301 LP  0  0  0  0  0  0  0  0  0  0  0  0  # atno 17394 bound_to 11000
  141.1411  133.9137  157.2324 LP  0  0  0  0  0  0  0  0  0  0  0  0  # atno 17395 bound_to 11000

$$$$
