AV-unprocessed.smi:1891|AV-procd|sdf|7665|dock9
  -GOLD-   22720 9403D 1   1.00000     0.00000
 Structure written by MMmdl.
 36 38  0  0  0  0  0  0  0  0  1 V2000
  153.4208  140.0418  154.6030 O   0  0  0  0  0  0  0  0  0  0  0  0
  152.5289  139.1390  155.2194 C   0  0  0  0  0  0  0  0  0  0  0  0
  151.1570  139.7099  155.4170 C   0  0  0  0  0  0  0  0  0  0  0  0
  150.4447  140.1846  154.3942 N   0  0  0  0  0  0  0  0  0  0  0  0
  149.2656  140.5748  154.9978 C   0  0  0  0  0  0  0  0  0  0  0  0
  148.0992  141.1522  154.4469 C   0  0  0  0  0  0  0  0  0  0  0  0
  146.9982  141.4622  155.2720 C   0  0  0  0  0  0  0  0  0  0  0  0
  147.0470  141.1985  156.6562 C   0  0  0  0  0  0  0  0  0  0  0  0
  148.2002  140.6251  157.2254 C   0  0  0  0  0  0  0  0  0  0  0  0
  149.2981  140.3206  156.3979 C   0  0  0  0  0  0  0  0  0  0  0  0
  150.5538  139.7685  156.6329 N   0  0  0  0  0  0  0  0  0  0  0  0
  151.0655  139.3386  157.9289 C   0  0  0  0  0  0  0  0  0  0  0  0
  152.3671  140.0629  158.3301 C   0  0  2  0  0  0  0  0  0  0  0  0
  153.0852  139.2876  159.2704 O   0  0  0  0  0  0  0  0  0  0  0  0
  152.0765  141.4692  158.8364 C   0  0  0  0  0  0  0  0  0  0  0  0
  150.9902  142.2063  158.3134 C   0  0  0  0  0  0  0  0  0  0  0  0
  150.7282  143.5115  158.7731 C   0  0  0  0  0  0  0  0  0  0  0  0
  151.5530  144.0907  159.7559 C   0  0  0  0  0  0  0  0  0  0  0  0
  151.3028  145.3465  160.1961 F   0  0  0  0  0  0  0  0  0  0  0  0
  152.6402  143.3643  160.2777 C   0  0  0  0  0  0  0  0  0  0  0  0
  152.9046  142.0589  159.8188 C   0  0  0  0  0  0  0  0  0  0  0  0
  153.9611  141.3781  160.3248 F   0  0  0  0  0  0  0  0  0  0  0  0
  153.4682  139.8352  153.6823 H   0  0  0  0  0  0  0  0  0  0  0  0
  152.4606  138.2460  154.5970 H   0  0  0  0  0  0  0  0  0  0  0  0
  152.9354  138.8160  156.1776 H   0  0  0  0  0  0  0  0  0  0  0  0
  148.0508  141.3553  153.3874 H   0  0  0  0  0  0  0  0  0  0  0  0
  146.1113  141.9025  154.8405 H   0  0  0  0  0  0  0  0  0  0  0  0
  146.1988  141.4370  157.2809 H   0  0  0  0  0  0  0  0  0  0  0  0
  148.2393  140.4221  158.2853 H   0  0  0  0  0  0  0  0  0  0  0  0
  150.2906  139.5335  158.6714 H   0  0  0  0  0  0  0  0  0  0  0  0
  151.2200  138.2603  157.9298 H   0  0  0  0  0  0  0  0  0  0  0  0
  153.0144  140.1415  157.4569 H   0  0  0  0  0  0  0  0  0  0  0  0
  154.0017  139.3112  159.0415 H   0  0  0  0  0  0  0  0  0  0  0  0
  150.3547  141.7747  157.5540 H   0  0  0  0  0  0  0  0  0  0  0  0
  149.8956  144.0689  158.3698 H   0  0  0  0  0  0  0  0  0  0  0  0
  153.2746  143.8098  161.0298 H   0  0  0  0  0  0  0  0  0  0  0  0
  1  2  1  0  0  0  0
  1 23  1  0  0  0  0
  2  3  1  0  0  0  0
  2 24  1  0  0  0  0
  2 25  1  0  0  0  0
  3 11  1  0  0  0  0
  3  4  2  0  0  0  0
  4  5  1  0  0  0  0
  5 10  2  0  0  0  0
  5  6  1  0  0  0  0
  6  7  2  0  0  0  0
  6 26  1  0  0  0  0
  7  8  1  0  0  0  0
  7 27  1  0  0  0  0
  8  9  2  0  0  0  0
  8 28  1  0  0  0  0
  9 10  1  0  0  0  0
  9 29  1  0  0  0  0
 10 11  1  0  0  0  0
 11 12  1  0  0  0  0
 12 13  1  0  0  0  0
 12 30  1  0  0  0  0
 12 31  1  0  0  0  0
 13 14  1  0  0  0  0
 13 15  1  0  0  0  0
 13 32  1  0  0  0  0
 14 33  1  0  0  0  0
 15 21  1  0  0  0  0
 15 16  2  0  0  0  0
 16 17  1  0  0  0  0
 16 34  1  0  0  0  0
 17 18  2  0  0  0  0
 17 35  1  0  0  0  0
 18 19  1  0  0  0  0
 18 20  1  0  0  0  0
 20 21  2  0  0  0  0
 20 36  1  0  0  0  0
 21 22  1  0  0  0  0
M  END
> <s_m_source_file>
AV-unprocessed.smi

> <i_m_source_file_index>
1891

> <i_lp_mmshare_version>
43012

> <i_f3d_flags>
0

> <s_epik_input>
W2NIXTFbY0hdW2NIXVtjSF1jKGMxMiluKGMobjIpW0NIMl1bT0hdKVtDSDJdW0NASF0oW09IXSljM1tjSF1bY0hdYyhGKVtjSF1jM0Y=

> <s_epik_cmdline>
J2VwaWtfcHl0aG9uJywgJy1waCcsICc3LjAnLCAnLXRuJywgJzgnLCAnLW1hJywgJzIwMCcsICctbWV0YWxfYmluZGluZycsICctaW1hZScsICc8aW5maWxlLm1hZT4nLCAnLW9tYWUnLCAnPG91dGZpbGUubWFlPic=

> <r_epik_Ionization_Penalty>
0.0634724

> <r_epik_Ionization_Penalty_Charging>
0

> <r_epik_Ionization_Penalty_Neutral>
0.0634724

> <r_epik_State_Penalty>
0.0551572

> <r_epik_Charging_Adjusted_Penalty>
0.0551572

> <i_epik_Tot_Q>
0

> <i_epik_Tot_abs_Q>
0

> <r_epik_Metal_State_Penalty>
5.78034e-05

> <b_epik_Metal_Only>
0

> <s_lp_Force_Field>
OPLS_2005

> <r_lp_Energy>
12.6206

> <b_lp_Chiralities_Consistent>
1

> <s_lp_Variant>
AV-unprocessed.smi:1891-1

> <Gold.Version>
5.8.1

> <Gold.Id.Protein>
6NUR|6NUR_protein|mol2

> <Gold.PLP.Fitness>
55.5068

> <Gold.PLP.PLP>
-51.3223

> <Gold.PLP.part.hbond>
-2.6750

> <Gold.PLP.part.metal>
0.0000

> <Gold.PLP.part.buried>
-5.2375

> <Gold.PLP.part.nonpolar>
-44.5335

> <Gold.PLP.part.repulsive>
0.1369

> <Gold.PLP.ligand.clash>
0.0056

> <Gold.PLP.ligand.torsion>
0.9232

> <Gold.PLP.Chemscore.Hbond>
2.0000

> <Gold.PLP.Chemscore.CHOScore>
0.0000

> <Gold.PLP.Chemscore.Metal>
0.0000

> <Gold.Chemscore.Hbonds>
donor molecule, donor type, donor heavy atom, donor atom, acceptor molecule, acceptor atom, score
      P1  H  7989  7998       L1     4  1.00
      P1  H  7997  8009       L1     1  1.00

> <Gold.PLP.Chemscore.Internal.Correction>
0.0364

> <Gold.Rescore>
     Score         DG    S(hbond)    S(metal)    S(lipo)     H(rot)  DE(clash)    DE(int)     intcor
     14.66     -16.53       1.81        0.00     105.72       2.88       0.02       1.86       ----

> <Gold.Chemscore.Fitness>
14.6556

> <Gold.Chemscore.DG>
-16.5341

> <Gold.Chemscore.ZeroCoef>
-5.4800

> <Gold.Chemscore.Hbond>
1.8113

> <Gold.Chemscore.Metal>
0.0000

> <Gold.Chemscore.Lipo>
105.7152

> <Gold.Chemscore.Internal_Hbond>
0.0000

> <Gold.Chemscore.DEClash>
0.0222

> <Gold.Chemscore.DEInternal>
1.8562

> <Gold.Chemscore.Rot>
2.8767

> <Gold.Chemscore.Internal.Correction>
   9.000000E+99

> <Gold.Chemscore.Hbonds>
donor molecule, donor type, donor heavy atom, donor atom, acceptor molecule, acceptor atom, score
      P1  H  7989  7998       L1     4  0.30
      P1  H  7997  8009       L1     1  0.55

> <Gold.Chemscore.Hbond.Weighted>
-6.0498

> <Gold.Chemscore.Metal.Weighted>
-0.0000

> <Gold.Chemscore.Lipo.Weighted>
-12.3687

> <Gold.Chemscore.Internal_Hbond.Weighted>
0.0000

> <Gold.Chemscore.DEClash.Weighted>
0.0222

> <Gold.Chemscore.DEInternal.Weighted>
1.8562

> <Gold.Chemscore.Rot.Weighted>
7.3644

> <Gold.Chemscore.Internal.Correction.Weighted>
   9.000000E+99

> <Gold.Protein.RotatedTorsions>
[ 6907 6896 6895 6894 ] final  -79.65 input  -60.11 | X-H torsion
[ 7974 7965 7964 7962 ] final   -6.36 input  175.53 | X-H torsion
[ 8008 7997 7996 7995 ] final -119.06 input   59.86 | X-H torsion
[ 10167 10162 10161 10158 ] final  139.55 input  -65.29 | X-H torsion
[ 10718 10713 10712 10709 ] final   70.97 input   66.30 | X-H torsion
[ 10763 10752 10751 10750 ] final  132.18 input  -60.55 | X-H torsion
[ 11005 11000 10999 10996 ] final -123.81 input  -57.11 | X-H torsion

> <Gold.Protein.ActiveResidues>
 VAL166  LYS551  ARG553  GLY616  TRP617  ASP618  TYR619  PRO620  LYS621  CYS622 
 ASP623  PHE694  ASN695  SER759  ASP760  ASP761  ALA762  ILE779  LEU786  VAL792 
 PHE793  MET794  SER795  GLU796  ALA797  LYS798  CYS799  TRP800  GLU811  SER814 

> <Gold.Protein.RotatedAtoms>
  150.6945  134.4090  159.5152 H   0  0  0  0  0  0  0  0  0  0  0  0  # atno 6907 bound_to 6896
  152.1851  134.8718  160.0532 H   0  0  0  0  0  0  0  0  0  0  0  0  # atno 6908 bound_to 6896
  151.9694  133.3686  159.4102 H   0  0  0  0  0  0  0  0  0  0  0  0  # atno 6909 bound_to 6896
  146.2333  140.2158  142.8336 H   0  0  0  0  0  0  0  0  0  0  0  0  # atno 7974 bound_to 7965
  155.1096  140.0397  157.2720 H   0  0  0  0  0  0  0  0  0  0  0  0  # atno 8008 bound_to 7997
  154.6695  140.2609  155.6996 H   0  0  0  0  0  0  0  0  0  0  0  0  # atno 8009 bound_to 7997
  156.2652  140.2800  156.1199 H   0  0  0  0  0  0  0  0  0  0  0  0  # atno 8010 bound_to 7997
  139.5075  144.6288  151.5870 H   0  0  0  0  0  0  0  0  0  0  0  0  # atno 10167 bound_to 10162
  157.6428  130.9504  150.0724 H   0  0  0  0  0  0  0  0  0  0  0  0  # atno 10718 bound_to 10713
  153.7865  135.3161  155.3373 H   0  0  0  0  0  0  0  0  0  0  0  0  # atno 10763 bound_to 10752
  154.8142  135.4647  154.0600 H   0  0  0  0  0  0  0  0  0  0  0  0  # atno 10764 bound_to 10752
  153.1905  135.6907  153.8445 H   0  0  0  0  0  0  0  0  0  0  0  0  # atno 10765 bound_to 10752
  140.9890  134.0566  157.3677 H   0  0  0  0  0  0  0  0  0  0  0  0  # atno 11005 bound_to 11000
  144.9670  140.8332  143.5478 LP  0  0  0  0  0  0  0  0  0  0  0  0  # atno 17320 bound_to 7965
  145.2136  139.2193  143.5130 LP  0  0  0  0  0  0  0  0  0  0  0  0  # atno 17321 bound_to 7965
  140.6013  143.9604  150.6388 LP  0  0  0  0  0  0  0  0  0  0  0  0  # atno 17342 bound_to 10162
  140.2816  143.3385  152.1145 LP  0  0  0  0  0  0  0  0  0  0  0  0  # atno 17343 bound_to 10162
  156.1724  130.3647  149.9146 LP  0  0  0  0  0  0  0  0  0  0  0  0  # atno 17370 bound_to 10713
  156.7118  130.8973  151.3610 LP  0  0  0  0  0  0  0  0  0  0  0  0  # atno 17371 bound_to 10713
  139.8983  135.0154  156.7144 LP  0  0  0  0  0  0  0  0  0  0  0  0  # atno 17394 bound_to 11000
  140.7069  133.9257  155.8060 LP  0  0  0  0  0  0  0  0  0  0  0  0  # atno 17395 bound_to 11000

$$$$
