AV-unprocessed.smi:148|AV-procd|sdf|1226|dock5
  -GOLD-   2262018423D 1   1.00000     0.00000
 Structure written by MMmdl.
 63 67  0  0  0  0  0  0  0  0  1 V2000
  149.6743  142.3087  155.6884 O   0  0  0  0  0  0  0  0  0  0  0  0
  150.9186  141.8999  156.2185 C   0  0  0  0  0  0  0  0  0  0  0  0
  150.8097  141.5708  157.7276 C   0  0  2  0  0  0  0  0  0  0  0  0
  149.4999  140.8246  158.0839 C   0  0  0  0  0  0  0  0  0  0  0  0
  149.3766  139.5349  157.4265 N   0  0  0  0  0  0  0  0  0  0  0  0
  149.2219  139.3128  156.0765 C   0  0  0  0  0  0  0  0  0  0  0  0
  149.1364  138.0586  155.7239 N   0  0  0  0  0  0  0  0  0  0  0  0
  149.2489  137.3665  156.9226 C   0  0  0  0  0  0  0  0  0  0  0  0
  149.2536  135.9905  157.2699 C   0  0  0  0  0  0  0  0  0  0  0  0
  149.1222  135.0190  156.3407 N   0  0  0  0  0  0  0  0  0  0  0  0
  150.3748  134.2681  156.2251 C   0  0  0  0  0  0  0  0  0  0  0  0
  150.1876  132.9883  155.4051 C   0  0  0  0  0  0  0  0  0  0  0  0
  149.6109  133.3344  154.0317 C   0  0  0  0  0  0  0  0  0  0  0  0
  148.3035  134.1192  154.1983 C   0  0  0  0  0  0  0  0  0  0  0  0
  148.4730  135.3954  155.0672 C   0  0  1  0  0  0  0  0  0  0  0  0
  147.0917  136.1188  155.2499 C   0  0  2  0  0  0  0  0  0  0  0  0
  145.8925  135.1854  155.5035 C   0  0  0  0  0  0  0  0  0  0  0  0
  144.6325  136.0113  155.2244 C   0  0  0  0  0  0  0  0  0  0  0  0
  145.0861  137.2107  154.3850 C   0  0  0  0  0  0  0  0  0  0  0  0
  146.5701  136.9812  154.0766 C   0  0  2  0  0  0  0  0  0  0  0  0
  146.6795  136.2942  152.8439 O   0  0  0  0  0  0  0  0  0  0  0  0
  149.3910  135.6624  158.5821 N   0  0  0  0  0  0  0  0  0  0  0  0
  149.5249  136.6268  159.4980 C   0  0  0  0  0  0  0  0  0  0  0  0
  149.5464  137.9499  159.3202 N   0  0  0  0  0  0  0  0  0  0  0  0
  149.4034  138.2776  158.0037 C   0  0  0  0  0  0  0  0  0  0  0  0
  151.0124  142.8248  158.6151 C   0  0  1  0  0  0  0  0  0  0  0  0
  151.9177  142.6195  159.8169 C   0  0  0  0  0  0  0  0  0  0  0  0
  152.2818  144.0521  160.1881 C   0  0  0  0  0  0  0  0  0  0  0  0
  152.3418  144.7587  158.9549 O   0  0  0  0  0  0  0  0  0  0  0  0
  151.7257  143.9924  157.9238 C   0  0  0  0  0  0  0  0  0  0  0  0
  149.4377  143.1367  156.0777 H   0  0  0  0  0  0  0  0  0  0  0  0
  151.2733  141.0380  155.6533 H   0  0  0  0  0  0  0  0  0  0  0  0
  151.6481  142.6909  156.0452 H   0  0  0  0  0  0  0  0  0  0  0  0
  151.6300  140.8867  157.9499 H   0  0  0  0  0  0  0  0  0  0  0  0
  149.4370  140.6506  159.1581 H   0  0  0  0  0  0  0  0  0  0  0  0
  148.6353  141.4355  157.8214 H   0  0  0  0  0  0  0  0  0  0  0  0
  149.1715  140.1173  155.3570 H   0  0  0  0  0  0  0  0  0  0  0  0
  151.1337  134.8939  155.7526 H   0  0  0  0  0  0  0  0  0  0  0  0
  150.7485  134.0100  157.2175 H   0  0  0  0  0  0  0  0  0  0  0  0
  151.1406  132.4705  155.2949 H   0  0  0  0  0  0  0  0  0  0  0  0
  149.5171  132.3064  155.9298 H   0  0  0  0  0  0  0  0  0  0  0  0
  150.3296  133.9288  153.4659 H   0  0  0  0  0  0  0  0  0  0  0  0
  149.4341  132.4249  153.4571 H   0  0  0  0  0  0  0  0  0  0  0  0
  147.9416  134.3722  153.2024 H   0  0  0  0  0  0  0  0  0  0  0  0
  147.5499  133.4695  154.6463 H   0  0  0  0  0  0  0  0  0  0  0  0
  149.1533  136.0588  154.5321 H   0  0  0  0  0  0  0  0  0  0  0  0
  147.1698  136.7658  156.1258 H   0  0  0  0  0  0  0  0  0  0  0  0
  145.9256  134.3437  154.8099 H   0  0  0  0  0  0  0  0  0  0  0  0
  145.8851  134.7783  156.5152 H   0  0  0  0  0  0  0  0  0  0  0  0
  143.8847  135.4140  154.7016 H   0  0  0  0  0  0  0  0  0  0  0  0
  144.1829  136.3556  156.1566 H   0  0  0  0  0  0  0  0  0  0  0  0
  144.4828  137.3445  153.4859 H   0  0  0  0  0  0  0  0  0  0  0  0
  144.9787  138.1198  154.9783 H   0  0  0  0  0  0  0  0  0  0  0  0
  147.0769  137.9396  153.9870 H   0  0  0  0  0  0  0  0  0  0  0  0
  147.5812  136.3295  152.5617 H   0  0  0  0  0  0  0  0  0  0  0  0
  149.6330  136.2903  160.5185 H   0  0  0  0  0  0  0  0  0  0  0  0
  150.0444  143.1761  158.9767 H   0  0  0  0  0  0  0  0  0  0  0  0
  151.4332  142.0888  160.6369 H   0  0  0  0  0  0  0  0  0  0  0  0
  152.8144  142.0669  159.5321 H   0  0  0  0  0  0  0  0  0  0  0  0
  151.4987  144.4951  160.8048 H   0  0  0  0  0  0  0  0  0  0  0  0
  153.2228  144.1175  160.7349 H   0  0  0  0  0  0  0  0  0  0  0  0
  152.5092  143.6292  157.2574 H   0  0  0  0  0  0  0  0  0  0  0  0
  151.0426  144.6065  157.3363 H   0  0  0  0  0  0  0  0  0  0  0  0
  1  2  1  0  0  0  0
  1 31  1  0  0  0  0
  2  3  1  0  0  0  0
  2 32  1  0  0  0  0
  2 33  1  0  0  0  0
  3  4  1  0  0  0  0
  3 26  1  0  0  0  0
  3 34  1  0  0  0  0
  4  5  1  0  0  0  0
  4 35  1  0  0  0  0
  4 36  1  0  0  0  0
  5 25  1  0  0  0  0
  5  6  1  0  0  0  0
  6  7  2  0  0  0  0
  6 37  1  0  0  0  0
  7  8  1  0  0  0  0
  8 25  2  0  0  0  0
  8  9  1  0  0  0  0
  9 10  1  0  0  0  0
  9 22  2  0  0  0  0
 10 15  1  0  0  0  0
 10 11  1  0  0  0  0
 11 12  1  0  0  0  0
 11 38  1  0  0  0  0
 11 39  1  0  0  0  0
 12 13  1  0  0  0  0
 12 40  1  0  0  0  0
 12 41  1  0  0  0  0
 13 14  1  0  0  0  0
 13 42  1  0  0  0  0
 13 43  1  0  0  0  0
 14 15  1  0  0  0  0
 14 44  1  0  0  0  0
 14 45  1  0  0  0  0
 15 16  1  0  0  0  0
 15 46  1  0  0  0  0
 16 20  1  0  0  0  0
 16 17  1  0  0  0  0
 16 47  1  0  0  0  0
 17 18  1  0  0  0  0
 17 48  1  0  0  0  0
 17 49  1  0  0  0  0
 18 19  1  0  0  0  0
 18 50  1  0  0  0  0
 18 51  1  0  0  0  0
 19 20  1  0  0  0  0
 19 52  1  0  0  0  0
 19 53  1  0  0  0  0
 20 21  1  0  0  0  0
 20 54  1  0  0  0  0
 21 55  1  0  0  0  0
 22 23  1  0  0  0  0
 23 24  2  0  0  0  0
 23 56  1  0  0  0  0
 24 25  1  0  0  0  0
 26 30  1  0  0  0  0
 26 27  1  0  0  0  0
 26 57  1  0  0  0  0
 27 28  1  0  0  0  0
 27 58  1  0  0  0  0
 27 59  1  0  0  0  0
 28 29  1  0  0  0  0
 28 60  1  0  0  0  0
 28 61  1  0  0  0  0
 29 30  1  0  0  0  0
 30 62  1  0  0  0  0
 30 63  1  0  0  0  0
M  END
> <s_m_source_file>
AV-unprocessed.smi

> <i_m_source_file_index>
148

> <i_lp_mmshare_version>
43012

> <i_f3d_flags>
0

> <s_epik_input>
W0NIMl0xT1tDSDJdW0NIMl1bQ0BIXTFbQ0BIXShbQ0gyXVtPSF0pW0NIMl1uKFtjSF1uMiljKGMyMyluW2NIXW5jM040W0NIMl1bQ0gyXVtDSDJdW0NIMl1bQ0BIXTRbQ0BASF01W0NIMl1bQ0gyXVtDSDJdW0NASF01W09IXQ==

> <s_epik_cmdline>
J2VwaWtfcHl0aG9uJywgJy1waCcsICc3LjAnLCAnLXRuJywgJzgnLCAnLW1hJywgJzIwMCcsICctbWV0YWxfYmluZGluZycsICctaW1hZScsICc8aW5maWxlLm1hZT4nLCAnLW9tYWUnLCAnPG91dGZpbGUubWFlPic=

> <r_lp_tautomer_probability>
1

> <r_epik_Ionization_Penalty>
0.00556303

> <r_epik_Ionization_Penalty_Charging>
0

> <r_epik_Ionization_Penalty_Neutral>
0.00556303

> <r_epik_State_Penalty>
0.00401767

> <r_epik_Charging_Adjusted_Penalty>
0.00401767

> <i_epik_Tot_Q>
0

> <i_epik_Tot_abs_Q>
0

> <r_epik_Metal_State_Penalty>
-0

> <b_epik_Metal_Only>
0

> <s_lp_Force_Field>
OPLS_2005

> <r_lp_Energy>
70.5735

> <b_lp_Chiralities_Consistent>
1

> <s_lp_Variant>
AV-unprocessed.smi:148-25

> <Gold.Version>
5.8.1

> <Gold.Id.Protein>
6NUR|6NUR_protein|mol2

> <Gold.PLP.Fitness>
42.9765

> <Gold.PLP.PLP>
-37.6473

> <Gold.PLP.part.hbond>
-4.0581

> <Gold.PLP.part.metal>
0.0000

> <Gold.PLP.part.buried>
-7.5096

> <Gold.PLP.part.nonpolar>
-27.3467

> <Gold.PLP.part.repulsive>
0.0994

> <Gold.PLP.ligand.clash>
0.0000

> <Gold.PLP.ligand.torsion>
2.1610

> <Gold.PLP.Chemscore.Hbond>
3.0000

> <Gold.PLP.Chemscore.CHOScore>
0.0000

> <Gold.PLP.Chemscore.Metal>
0.0000

> <Gold.Chemscore.Hbonds>
donor molecule, donor type, donor heavy atom, donor atom, acceptor molecule, acceptor atom, score
      L1  H     1    31       P1  8028  0.83
      L1  H    21    55       P1  7948  1.00
      P1  H  6896  6908       L1    22  0.75

> <Gold.PLP.Chemscore.Internal.Correction>
0.6512

> <Gold.Rescore>
     Score         DG    S(hbond)    S(metal)    S(lipo)     H(rot)  DE(clash)    DE(int)     intcor
      9.13     -16.13       2.69        0.00      86.89       3.32       0.11       6.89       ----

> <Gold.Chemscore.Fitness>
9.1309

> <Gold.Chemscore.DG>
-16.1333

> <Gold.Chemscore.ZeroCoef>
-5.4800

> <Gold.Chemscore.Hbond>
2.6907

> <Gold.Chemscore.Metal>
0.0000

> <Gold.Chemscore.Lipo>
86.8922

> <Gold.Chemscore.Internal_Hbond>
0.0000

> <Gold.Chemscore.DEClash>
0.1136

> <Gold.Chemscore.DEInternal>
6.8888

> <Gold.Chemscore.Rot>
3.3203

> <Gold.Chemscore.Internal.Correction>
   9.000000E+99

> <Gold.Chemscore.Hbonds>
donor molecule, donor type, donor heavy atom, donor atom, acceptor molecule, acceptor atom, score
      L1  H     1    31       P1  8028  0.83
      L1  H    21    55       P1  7948  0.93
      P1  H  6896  6908       L1    22  0.09

> <Gold.Chemscore.Hbond.Weighted>
-8.9869

> <Gold.Chemscore.Metal.Weighted>
-0.0000

> <Gold.Chemscore.Lipo.Weighted>
-10.1664

> <Gold.Chemscore.Internal_Hbond.Weighted>
0.0000

> <Gold.Chemscore.DEClash.Weighted>
0.1136

> <Gold.Chemscore.DEInternal.Weighted>
6.8888

> <Gold.Chemscore.Rot.Weighted>
8.5000

> <Gold.Chemscore.Internal.Correction.Weighted>
   9.000000E+99

> <Gold.Protein.RotatedTorsions>
[ 6907 6896 6895 6894 ] final  156.51 input  -60.11 | X-H torsion
[ 7974 7965 7964 7962 ] final  120.48 input  175.53 | X-H torsion
[ 8008 7997 7996 7995 ] final   53.08 input   59.86 | X-H torsion
[ 10167 10162 10161 10158 ] final   10.94 input  -65.29 | X-H torsion
[ 10718 10713 10712 10709 ] final -118.24 input   66.30 | X-H torsion
[ 10763 10752 10751 10750 ] final   92.51 input  -60.55 | X-H torsion
[ 11005 11000 10999 10996 ] final  101.52 input  -57.11 | X-H torsion

> <Gold.Protein.ActiveResidues>
 VAL166  LYS551  ARG553  GLY616  TRP617  ASP618  TYR619  PRO620  LYS621  CYS622 
 ASP623  PHE694  ASN695  SER759  ASP760  ASP761  ALA762  ILE779  LEU786  VAL792 
 PHE793  MET794  SER795  GLU796  ALA797  LYS798  CYS799  TRP800  GLU811  SER814 

> <Gold.Protein.RotatedAtoms>
  152.0286  133.3928  159.4287 H   0  0  0  0  0  0  0  0  0  0  0  0  # atno 6907 bound_to 6896
  150.6884  134.3546  159.4933 H   0  0  0  0  0  0  0  0  0  0  0  0  # atno 6908 bound_to 6896
  152.1329  134.9120  160.0608 H   0  0  0  0  0  0  0  0  0  0  0  0  # atno 6909 bound_to 6896
  145.1307  139.3329  143.4667 H   0  0  0  0  0  0  0  0  0  0  0  0  # atno 7974 bound_to 7965
  155.4624  140.3462  155.4314 H   0  0  0  0  0  0  0  0  0  0  0  0  # atno 8008 bound_to 7997
  156.1152  140.1472  156.9311 H   0  0  0  0  0  0  0  0  0  0  0  0  # atno 8009 bound_to 7997
  154.4784  140.0877  156.7298 H   0  0  0  0  0  0  0  0  0  0  0  0  # atno 8010 bound_to 7997
  140.6163  143.8301  150.7122 H   0  0  0  0  0  0  0  0  0  0  0  0  # atno 10167 bound_to 10162
  156.1091  130.6234  150.9265 H   0  0  0  0  0  0  0  0  0  0  0  0  # atno 10718 bound_to 10713
  153.2199  135.4359  155.0477 H   0  0  0  0  0  0  0  0  0  0  0  0  # atno 10763 bound_to 10752
  154.8244  135.3354  154.6942 H   0  0  0  0  0  0  0  0  0  0  0  0  # atno 10764 bound_to 10752
  153.7375  135.7007  153.5030 H   0  0  0  0  0  0  0  0  0  0  0  0  # atno 10765 bound_to 10752
  139.8773  134.9186  156.4920 H   0  0  0  0  0  0  0  0  0  0  0  0  # atno 11005 bound_to 11000
  146.3514  140.1304  142.8597 LP  0  0  0  0  0  0  0  0  0  0  0  0  # atno 17320 bound_to 7965
  145.0639  140.9107  143.4922 LP  0  0  0  0  0  0  0  0  0  0  0  0  # atno 17321 bound_to 7965
  140.1881  143.4059  152.1884 LP  0  0  0  0  0  0  0  0  0  0  0  0  # atno 17342 bound_to 10162
  139.5401  144.7248  151.4761 LP  0  0  0  0  0  0  0  0  0  0  0  0  # atno 17343 bound_to 10162
  157.6271  131.0924  150.8512 LP  0  0  0  0  0  0  0  0  0  0  0  0  # atno 17370 bound_to 10713
  156.8626  130.5118  149.5302 LP  0  0  0  0  0  0  0  0  0  0  0  0  # atno 17371 bound_to 10713
  140.8652  133.8030  155.9306 LP  0  0  0  0  0  0  0  0  0  0  0  0  # atno 17394 bound_to 11000
  140.9009  134.2379  157.5042 LP  0  0  0  0  0  0  0  0  0  0  0  0  # atno 17395 bound_to 11000

$$$$
