AV-unprocessed.smi:2448|AV-procd|sdf|9654|dock5
  -GOLD-   2272013283D 1   1.00000     0.00000
 Structure written by MMmdl.
 37 38  0  0  0  0  0  0  0  0  1 V2000
  149.7401  143.0321  159.2226 O   0  0  0  0  0  0  0  0  0  0  0  0
  150.9694  143.4228  158.6365 C   0  0  2  0  0  0  0  0  0  0  0  0
  151.0718  142.7736  157.2417 C   0  0  0  0  0  0  0  0  0  0  0  0
  149.7593  142.6221  156.6068 N   0  0  0  0  0  0  0  0  0  0  0  0
  149.5861  141.4264  155.7692 C   0  0  1  0  0  0  0  0  0  0  0  0
  150.0054  140.1263  156.5029 C   0  0  0  0  0  0  0  0  0  0  0  0
  150.7717  139.1248  155.6575 C   0  0  0  0  0  0  0  0  0  0  0  0
  152.1308  139.3354  155.3464 C   0  0  0  0  0  0  0  0  0  0  0  0
  152.7991  138.3706  154.5660 C   0  0  0  0  0  0  0  0  0  0  0  0
  152.2032  137.2526  154.0986 N   0  0  0  0  0  0  0  0  0  0  0  0
  150.8998  137.0605  154.3946 C   0  0  0  0  0  0  0  0  0  0  0  0
  150.1399  137.9633  155.1648 C   0  0  0  0  0  0  0  0  0  0  0  0
  148.1197  141.3388  155.2957 C   0  0  0  0  0  0  0  0  0  0  0  0
  147.9339  140.2133  154.6050 F   0  0  0  0  0  0  0  0  0  0  0  0
  147.2953  141.3215  156.3433 F   0  0  0  0  0  0  0  0  0  0  0  0
  147.8096  142.3768  154.5177 F   0  0  0  0  0  0  0  0  0  0  0  0
  152.1355  143.0640  159.5752 C   0  0  0  0  0  0  0  0  0  0  0  0
  152.1033  144.0360  160.7585 C   0  0  0  0  0  0  0  0  0  0  0  0
  151.4989  145.6282  160.1455 S   0  0  0  0  0  0  0  0  0  0  0  0
  150.9769  144.9586  158.5436 C   0  0  0  0  0  0  0  0  0  0  0  0
  149.9025  142.3015  159.7995 H   0  0  0  0  0  0  0  0  0  0  0  0
  151.7275  143.3694  156.6053 H   0  0  0  0  0  0  0  0  0  0  0  0
  151.5565  141.8078  157.3532 H   0  0  0  0  0  0  0  0  0  0  0  0
  149.5661  143.4477  156.0486 H   0  0  0  0  0  0  0  0  0  0  0  0
  150.1915  141.5309  154.8675 H   0  0  0  0  0  0  0  0  0  0  0  0
  150.5866  140.3736  157.3924 H   0  0  0  0  0  0  0  0  0  0  0  0
  149.1178  139.6089  156.8669 H   0  0  0  0  0  0  0  0  0  0  0  0
  152.6527  140.2131  155.6988 H   0  0  0  0  0  0  0  0  0  0  0  0
  153.8405  138.5004  154.3116 H   0  0  0  0  0  0  0  0  0  0  0  0
  150.4482  136.1592  154.0073 H   0  0  0  0  0  0  0  0  0  0  0  0
  149.1008  137.7601  155.3784 H   0  0  0  0  0  0  0  0  0  0  0  0
  152.0982  142.0269  159.9105 H   0  0  0  0  0  0  0  0  0  0  0  0
  153.0780  143.1901  159.0400 H   0  0  0  0  0  0  0  0  0  0  0  0
  151.4066  143.6788  161.5173 H   0  0  0  0  0  0  0  0  0  0  0  0
  153.0807  144.1423  161.2295 H   0  0  0  0  0  0  0  0  0  0  0  0
  151.7134  145.2856  157.8084 H   0  0  0  0  0  0  0  0  0  0  0  0
  150.0137  145.3697  158.2388 H   0  0  0  0  0  0  0  0  0  0  0  0
  1  2  1  0  0  0  0
  1 21  1  0  0  0  0
  2 20  1  0  0  0  0
  2  3  1  0  0  0  0
  2 17  1  0  0  0  0
  3  4  1  0  0  0  0
  3 22  1  0  0  0  0
  3 23  1  0  0  0  0
  4  5  1  0  0  0  0
  4 24  1  0  0  0  0
  5  6  1  0  0  0  0
  5 13  1  0  0  0  0
  5 25  1  0  0  0  0
  6  7  1  0  0  0  0
  6 26  1  0  0  0  0
  6 27  1  0  0  0  0
  7 12  1  0  0  0  0
  7  8  2  0  0  0  0
  8  9  1  0  0  0  0
  8 28  1  0  0  0  0
  9 10  2  0  0  0  0
  9 29  1  0  0  0  0
 10 11  1  0  0  0  0
 11 12  2  0  0  0  0
 11 30  1  0  0  0  0
 12 31  1  0  0  0  0
 13 14  1  0  0  0  0
 13 15  1  0  0  0  0
 13 16  1  0  0  0  0
 17 18  1  0  0  0  0
 17 32  1  0  0  0  0
 17 33  1  0  0  0  0
 18 19  1  0  0  0  0
 18 34  1  0  0  0  0
 18 35  1  0  0  0  0
 19 20  1  0  0  0  0
 20 36  1  0  0  0  0
 20 37  1  0  0  0  0
M  END
> <s_m_source_file>
AV-unprocessed.smi

> <i_m_source_file_index>
2448

> <i_lp_mmshare_version>
43012

> <i_f3d_flags>
0

> <s_epik_input>
W0NIMl0xU1tDSDJdW0NIMl1bQ0BAXTEoW09IXSlbQ0gyXVtOSF1bQ0BASF0oQyhGKShGKUYpW0NIMl1jMltjSF1bY0hdbltjSF1bY0hdMg==

> <s_epik_cmdline>
J2VwaWtfcHl0aG9uJywgJy1waCcsICc3LjAnLCAnLXRuJywgJzgnLCAnLW1hJywgJzIwMCcsICctbWV0YWxfYmluZGluZycsICctaW1hZScsICc8aW5maWxlLm1hZT4nLCAnLW9tYWUnLCAnPG91dGZpbGUubWFlPic=

> <r_epik_Ionization_Penalty>
0.187708

> <r_epik_Ionization_Penalty_Charging>
0

> <r_epik_Ionization_Penalty_Neutral>
0.187708

> <r_epik_State_Penalty>
0.22769

> <r_epik_Charging_Adjusted_Penalty>
0.22769

> <i_epik_Tot_Q>
0

> <i_epik_Tot_abs_Q>
0

> <r_epik_Metal_State_Penalty>
0.176206

> <b_epik_Metal_Only>
0

> <s_lp_Force_Field>
OPLS_2005

> <r_lp_Energy>
32.1686

> <b_lp_Chiralities_Consistent>
1

> <s_lp_Variant>
AV-unprocessed.smi:2448-4

> <Gold.Version>
5.8.1

> <Gold.Id.Protein>
6NUR|6NUR_protein|mol2

> <Gold.PLP.Fitness>
46.3452

> <Gold.PLP.PLP>
-41.8462

> <Gold.PLP.part.hbond>
-2.6908

> <Gold.PLP.part.metal>
0.0000

> <Gold.PLP.part.buried>
-1.3880

> <Gold.PLP.part.nonpolar>
-40.1690

> <Gold.PLP.part.repulsive>
0.1421

> <Gold.PLP.ligand.clash>
0.0000

> <Gold.PLP.ligand.torsion>
1.5368

> <Gold.PLP.Chemscore.Hbond>
1.7840

> <Gold.PLP.Chemscore.CHOScore>
0.5524

> <Gold.PLP.Chemscore.Metal>
0.0000

> <Gold.Chemscore.Hbonds>
donor molecule, donor type, donor heavy atom, donor atom, acceptor molecule, acceptor atom, score
      L1  H     4    24       P1  8028  0.91
      P1  H 10752 10765       L1    10  0.90
      L1  C    11    30       P1  7948  0.37
      L1  C    11    30       P1  7949  0.16

> <Gold.PLP.Chemscore.Internal.Correction>
0.5633

> <Gold.Rescore>
     Score         DG    S(hbond)    S(metal)    S(lipo)     H(rot)  DE(clash)    DE(int)     intcor
     17.29     -19.18       1.74        0.00     118.03       2.31       0.88       1.01       ----

> <Gold.Chemscore.Fitness>
17.2868

> <Gold.Chemscore.DG>
-19.1771

> <Gold.Chemscore.ZeroCoef>
-5.4800

> <Gold.Chemscore.Hbond>
1.7376

> <Gold.Chemscore.Metal>
0.0000

> <Gold.Chemscore.Lipo>
118.0326

> <Gold.Chemscore.Internal_Hbond>
0.0000

> <Gold.Chemscore.DEClash>
0.8813

> <Gold.Chemscore.DEInternal>
1.0090

> <Gold.Chemscore.Rot>
2.3111

> <Gold.Chemscore.Internal.Correction>
   9.000000E+99

> <Gold.Chemscore.Hbonds>
donor molecule, donor type, donor heavy atom, donor atom, acceptor molecule, acceptor atom, score
      L1  H     4    24       P1  8028  0.86
      P1  H 10752 10765       L1    10  0.61

> <Gold.Chemscore.Hbond.Weighted>
-5.8037

> <Gold.Chemscore.Metal.Weighted>
-0.0000

> <Gold.Chemscore.Lipo.Weighted>
-13.8098

> <Gold.Chemscore.Internal_Hbond.Weighted>
0.0000

> <Gold.Chemscore.DEClash.Weighted>
0.8813

> <Gold.Chemscore.DEInternal.Weighted>
1.0090

> <Gold.Chemscore.Rot.Weighted>
5.9164

> <Gold.Chemscore.Internal.Correction.Weighted>
   9.000000E+99

> <Gold.Protein.RotatedTorsions>
[ 6907 6896 6895 6894 ] final   -7.85 input  -60.11 | X-H torsion
[ 7974 7965 7964 7962 ] final   82.53 input  175.53 | X-H torsion
[ 8008 7997 7996 7995 ] final   32.68 input   59.86 | X-H torsion
[ 10167 10162 10161 10158 ] final   69.54 input  -65.29 | X-H torsion
[ 10718 10713 10712 10709 ] final  124.26 input   66.30 | X-H torsion
[ 10763 10752 10751 10750 ] final  148.92 input  -60.55 | X-H torsion
[ 11005 11000 10999 10996 ] final   39.01 input  -57.11 | X-H torsion

> <Gold.Protein.ActiveResidues>
 VAL166  LYS551  ARG553  GLY616  TRP617  ASP618  TYR619  PRO620  LYS621  CYS622 
 ASP623  PHE694  ASN695  SER759  ASP760  ASP761  ALA762  ILE779  LEU786  VAL792 
 PHE793  MET794  SER795  GLU796  ALA797  LYS798  CYS799  TRP800  GLU811  SER814 

> <Gold.Protein.RotatedAtoms>
  151.4431  135.1022  159.9675 H   0  0  0  0  0  0  0  0  0  0  0  0  # atno 6907 bound_to 6896
  152.4915  133.8510  159.7212 H   0  0  0  0  0  0  0  0  0  0  0  0  # atno 6908 bound_to 6896
  150.9074  133.6981  159.2891 H   0  0  0  0  0  0  0  0  0  0  0  0  # atno 6909 bound_to 6896
  145.6239  139.2391  143.2123 H   0  0  0  0  0  0  0  0  0  0  0  0  # atno 7974 bound_to 7965
  155.1265  140.3253  155.4484 H   0  0  0  0  0  0  0  0  0  0  0  0  # atno 8008 bound_to 7997
  156.2647  140.2018  156.6334 H   0  0  0  0  0  0  0  0  0  0  0  0  # atno 8009 bound_to 7997
  154.6645  140.0543  157.0085 H   0  0  0  0  0  0  0  0  0  0  0  0  # atno 8010 bound_to 7997
  140.0667  144.5187  150.7255 H   0  0  0  0  0  0  0  0  0  0  0  0  # atno 10167 bound_to 10162
  157.5599  131.1090  150.8557 H   0  0  0  0  0  0  0  0  0  0  0  0  # atno 10718 bound_to 10713
  154.0627  135.2873  155.3322 H   0  0  0  0  0  0  0  0  0  0  0  0  # atno 10763 bound_to 10752
  154.6798  135.5268  153.8251 H   0  0  0  0  0  0  0  0  0  0  0  0  # atno 10764 bound_to 10752
  153.0516  135.6578  154.0814 H   0  0  0  0  0  0  0  0  0  0  0  0  # atno 10765 bound_to 10752
  140.2070  134.3801  155.8068 H   0  0  0  0  0  0  0  0  0  0  0  0  # atno 11005 bound_to 11000
  146.1410  140.7058  142.9367 LP  0  0  0  0  0  0  0  0  0  0  0  0  # atno 17320 bound_to 7965
  144.7220  140.4404  143.7001 LP  0  0  0  0  0  0  0  0  0  0  0  0  # atno 17321 bound_to 7965
  140.7145  143.2533  151.4476 LP  0  0  0  0  0  0  0  0  0  0  0  0  # atno 17342 bound_to 10162
  139.5860  144.1603  152.2030 LP  0  0  0  0  0  0  0  0  0  0  0  0  # atno 17343 bound_to 10162
  156.9057  130.5263  149.5281 LP  0  0  0  0  0  0  0  0  0  0  0  0  # atno 17370 bound_to 10713
  156.0653  130.5697  150.9275 LP  0  0  0  0  0  0  0  0  0  0  0  0  # atno 17371 bound_to 10713
  141.2227  133.7123  156.8353 LP  0  0  0  0  0  0  0  0  0  0  0  0  # atno 17394 bound_to 11000
  140.1992  134.8909  157.3150 LP  0  0  0  0  0  0  0  0  0  0  0  0  # atno 17395 bound_to 11000

$$$$
