AV-unprocessed.smi:184|AV-procd|sdf|1464|dock7
  -GOLD-   2262019273D 1   1.00000     0.00000
 Structure written by MMmdl.
 54 58  0  0  0  0  0  0  0  0  1 V2000
  147.8350  143.4083  159.8261 O   0  0  0  0  0  0  0  0  0  0  0  0
  148.7436  143.2110  159.0229 C   0  0  0  0  0  0  0  0  0  0  0  0
  148.6132  142.0696  157.9980 C   0  0  0  0  0  0  0  0  0  0  0  0
  149.7254  141.9930  157.0360 N   0  0  0  0  0  0  0  0  0  0  0  0
  149.6604  141.0570  156.0535 C   0  0  0  0  0  0  0  0  0  0  0  0
  150.7619  140.3149  155.7631 N   0  0  0  0  0  0  0  0  0  0  0  0
  150.7245  139.3998  154.7906 C   0  0  0  0  0  0  0  0  0  0  0  0
  149.7036  139.0638  154.0005 N   0  0  0  0  0  0  0  0  0  0  0  0
  148.5885  139.7897  154.2979 C   0  0  0  0  0  0  0  0  0  0  0  0
  148.4806  140.7977  155.2982 C   0  0  0  0  0  0  0  0  0  0  0  0
  147.1868  141.3070  155.3141 N   0  0  0  0  0  0  0  0  0  0  0  0
  146.5724  140.6525  154.3676 C   0  0  0  0  0  0  0  0  0  0  0  0
  147.3365  139.7136  153.7128 N   0  0  0  0  0  0  0  0  0  0  0  0
  146.9046  138.8432  152.6300 C   0  0  0  0  0  0  0  0  0  0  0  0
  146.1013  137.6034  153.0967 C   0  0  0  0  0  0  0  0  0  0  0  0
  147.0026  136.7232  153.7449 O   0  0  0  0  0  0  0  0  0  0  0  0
  144.9728  137.9608  154.0890 C   0  0  0  0  0  0  0  0  0  0  0  0
  144.0510  136.7622  154.3761 C   0  0  0  0  0  0  0  0  0  0  0  0
  143.5313  136.2410  153.1593 O   0  0  0  0  0  0  0  0  0  0  0  0
  144.5463  135.7353  152.3009 C   0  0  0  0  0  0  0  0  0  0  0  0
  145.4945  136.8726  151.8820 C   0  0  0  0  0  0  0  0  0  0  0  0
  151.0561  142.4010  157.4904 C   0  0  2  0  0  0  0  0  0  0  0  0
  151.6428  141.3888  158.5042 C   0  0  0  0  0  0  0  0  0  0  0  0
  152.9848  141.8693  159.0744 C   0  0  0  0  0  0  0  0  0  0  0  0
  152.8435  143.2575  159.7152 C   0  0  0  0  0  0  0  0  0  0  0  0
  152.3005  144.2767  158.7009 C   0  0  0  0  0  0  0  0  0  0  0  0
  150.9640  143.8286  158.0774 C   0  0  2  0  0  0  0  0  0  0  0  0
  149.8605  143.9587  159.0288 N   0  0  0  0  0  0  0  0  0  0  0  0
  148.5380  141.1355  158.5564 H   0  0  0  0  0  0  0  0  0  0  0  0
  147.6757  142.1984  157.4556 H   0  0  0  0  0  0  0  0  0  0  0  0
  151.6443  138.8598  154.6211 H   0  0  0  0  0  0  0  0  0  0  0  0
  145.5345  140.8302  154.1263 H   0  0  0  0  0  0  0  0  0  0  0  0
  146.3009  139.4402  151.9454 H   0  0  0  0  0  0  0  0  0  0  0  0
  147.7852  138.5347  152.0644 H   0  0  0  0  0  0  0  0  0  0  0  0
  147.8139  136.7119  153.2606 H   0  0  0  0  0  0  0  0  0  0  0  0
  145.3833  138.3355  155.0273 H   0  0  0  0  0  0  0  0  0  0  0  0
  144.3707  138.7693  153.6724 H   0  0  0  0  0  0  0  0  0  0  0  0
  144.5810  135.9807  154.9225 H   0  0  0  0  0  0  0  0  0  0  0  0
  143.2184  137.0761  155.0058 H   0  0  0  0  0  0  0  0  0  0  0  0
  145.0905  134.9298  152.7957 H   0  0  0  0  0  0  0  0  0  0  0  0
  144.0745  135.3009  151.4195 H   0  0  0  0  0  0  0  0  0  0  0  0
  144.9297  137.5845  151.2784 H   0  0  0  0  0  0  0  0  0  0  0  0
  146.2826  136.4837  151.2355 H   0  0  0  0  0  0  0  0  0  0  0  0
  151.7492  142.4493  156.6520 H   0  0  0  0  0  0  0  0  0  0  0  0
  150.9490  141.2274  159.3297 H   0  0  0  0  0  0  0  0  0  0  0  0
  151.7755  140.4181  158.0253 H   0  0  0  0  0  0  0  0  0  0  0  0
  153.3514  141.1546  159.8118 H   0  0  0  0  0  0  0  0  0  0  0  0
  153.7306  141.9050  158.2794 H   0  0  0  0  0  0  0  0  0  0  0  0
  152.1777  143.2003  160.5771 H   0  0  0  0  0  0  0  0  0  0  0  0
  153.8103  143.5909  160.0931 H   0  0  0  0  0  0  0  0  0  0  0  0
  152.1886  145.2530  159.1739 H   0  0  0  0  0  0  0  0  0  0  0  0
  153.0353  144.4092  157.9057 H   0  0  0  0  0  0  0  0  0  0  0  0
  150.7305  144.5155  157.2624 H   0  0  0  0  0  0  0  0  0  0  0  0
  149.9355  144.6911  159.7198 H   0  0  0  0  0  0  0  0  0  0  0  0
  1  2  2  0  0  0  0
  2 28  1  0  0  0  0
  2  3  1  0  0  0  0
  3  4  1  0  0  0  0
  3 29  1  0  0  0  0
  3 30  1  0  0  0  0
  4  5  1  0  0  0  0
  4 22  1  0  0  0  0
  5 10  1  0  0  0  0
  5  6  2  0  0  0  0
  6  7  1  0  0  0  0
  7  8  2  0  0  0  0
  7 31  1  0  0  0  0
  8  9  1  0  0  0  0
  9 13  1  0  0  0  0
  9 10  2  0  0  0  0
 10 11  1  0  0  0  0
 11 12  2  0  0  0  0
 12 13  1  0  0  0  0
 12 32  1  0  0  0  0
 13 14  1  0  0  0  0
 14 15  1  0  0  0  0
 14 33  1  0  0  0  0
 14 34  1  0  0  0  0
 15 21  1  0  0  0  0
 15 16  1  0  0  0  0
 15 17  1  0  0  0  0
 16 35  1  0  0  0  0
 17 18  1  0  0  0  0
 17 36  1  0  0  0  0
 17 37  1  0  0  0  0
 18 19  1  0  0  0  0
 18 38  1  0  0  0  0
 18 39  1  0  0  0  0
 19 20  1  0  0  0  0
 20 21  1  0  0  0  0
 20 40  1  0  0  0  0
 20 41  1  0  0  0  0
 21 42  1  0  0  0  0
 21 43  1  0  0  0  0
 22 27  1  0  0  0  0
 22 23  1  0  0  0  0
 22 44  1  0  0  0  0
 23 24  1  0  0  0  0
 23 45  1  0  0  0  0
 23 46  1  0  0  0  0
 24 25  1  0  0  0  0
 24 47  1  0  0  0  0
 24 48  1  0  0  0  0
 25 26  1  0  0  0  0
 25 49  1  0  0  0  0
 25 50  1  0  0  0  0
 26 27  1  0  0  0  0
 26 51  1  0  0  0  0
 26 52  1  0  0  0  0
 27 28  1  0  0  0  0
 27 53  1  0  0  0  0
 28 54  1  0  0  0  0
M  END
> <s_m_source_file>
AV-unprocessed.smi

> <i_m_source_file_index>
184

> <i_lp_mmshare_version>
43012

> <i_f3d_flags>
0

> <s_epik_input>
W0NIMl0xW0NIMl1bQ0gyXVtDSDJdW0NASF0oW0NASF0xMilbTkhdQyg9TylbQ0gyXU4yYyhuW2NIXW4zKWMoYzM0KW5bY0hdbjRbQ0gyXUM1KFtPSF0pW0NIMl1bQ0gyXU9bQ0gyXVtDSDJdNQ==

> <s_epik_cmdline>
J2VwaWtfcHl0aG9uJywgJy1waCcsICc3LjAnLCAnLXRuJywgJzgnLCAnLW1hJywgJzIwMCcsICctbWV0YWxfYmluZGluZycsICctaW1hZScsICc8aW5maWxlLm1hZT4nLCAnLW9tYWUnLCAnPG91dGZpbGUubWFlPic=

> <r_lp_tautomer_probability>
1

> <r_epik_Ionization_Penalty>
0.000822761

> <r_epik_Ionization_Penalty_Charging>
0

> <r_epik_Ionization_Penalty_Neutral>
0.000822761

> <r_epik_State_Penalty>
0.000403048

> <r_epik_Charging_Adjusted_Penalty>
0.000403048

> <i_epik_Tot_Q>
0

> <i_epik_Tot_abs_Q>
0

> <r_epik_Metal_State_Penalty>
-0

> <b_epik_Metal_Only>
0

> <s_lp_Force_Field>
OPLS_2005

> <r_lp_Energy>
36.9453

> <b_lp_Chiralities_Consistent>
1

> <s_lp_Variant>
AV-unprocessed.smi:184-4

> <Gold.Version>
5.8.1

> <Gold.Id.Protein>
6NUR|6NUR_protein|mol2

> <Gold.PLP.Fitness>
48.6804

> <Gold.PLP.PLP>
-41.2952

> <Gold.PLP.part.hbond>
-2.1109

> <Gold.PLP.part.metal>
0.0000

> <Gold.PLP.part.buried>
-3.4432

> <Gold.PLP.part.nonpolar>
-38.8614

> <Gold.PLP.part.repulsive>
1.4469

> <Gold.PLP.ligand.clash>
0.0000

> <Gold.PLP.ligand.torsion>
0.7802

> <Gold.PLP.Chemscore.Hbond>
1.9204

> <Gold.PLP.Chemscore.CHOScore>
0.9991

> <Gold.PLP.Chemscore.Metal>
0.0000

> <Gold.Chemscore.Hbonds>
donor molecule, donor type, donor heavy atom, donor atom, acceptor molecule, acceptor atom, score
      L1  H    16    35       P1  7948  1.00
      P1  H  6933  6944       L1     1  0.92
      L1  C    12    32       P1 10175  1.00

> <Gold.PLP.Chemscore.Internal.Correction>
0.1871

> <Gold.Rescore>
     Score         DG    S(hbond)    S(metal)    S(lipo)     H(rot)  DE(clash)    DE(int)     intcor
     14.64     -16.69       1.41        0.00      95.36       1.83       0.65       1.40       ----

> <Gold.Chemscore.Fitness>
14.6401

> <Gold.Chemscore.DG>
-16.6899

> <Gold.Chemscore.ZeroCoef>
-5.4800

> <Gold.Chemscore.Hbond>
1.4148

> <Gold.Chemscore.Metal>
0.0000

> <Gold.Chemscore.Lipo>
95.3650

> <Gold.Chemscore.Internal_Hbond>
0.0000

> <Gold.Chemscore.DEClash>
0.6511

> <Gold.Chemscore.DEInternal>
1.3987

> <Gold.Chemscore.Rot>
1.8255

> <Gold.Chemscore.Internal.Correction>
   9.000000E+99

> <Gold.Chemscore.Hbonds>
donor molecule, donor type, donor heavy atom, donor atom, acceptor molecule, acceptor atom, score
      L1  H    16    35       P1  7948  0.98
      P1  H  6933  6944       L1     1  0.21

> <Gold.Chemscore.Hbond.Weighted>
-4.7253

> <Gold.Chemscore.Metal.Weighted>
-0.0000

> <Gold.Chemscore.Lipo.Weighted>
-11.1577

> <Gold.Chemscore.Internal_Hbond.Weighted>
0.0000

> <Gold.Chemscore.DEClash.Weighted>
0.6511

> <Gold.Chemscore.DEInternal.Weighted>
1.3987

> <Gold.Chemscore.Rot.Weighted>
4.6732

> <Gold.Chemscore.Internal.Correction.Weighted>
   9.000000E+99

> <Gold.Protein.RotatedTorsions>
[ 6907 6896 6895 6894 ] final  136.89 input  -60.11 | X-H torsion
[ 7974 7965 7964 7962 ] final -100.01 input  175.53 | X-H torsion
[ 8008 7997 7996 7995 ] final  158.34 input   59.86 | X-H torsion
[ 10167 10162 10161 10158 ] final   38.01 input  -65.29 | X-H torsion
[ 10718 10713 10712 10709 ] final -137.02 input   66.30 | X-H torsion
[ 10763 10752 10751 10750 ] final   92.23 input  -60.55 | X-H torsion
[ 11005 11000 10999 10996 ] final   90.75 input  -57.11 | X-H torsion

> <Gold.Protein.ActiveResidues>
 VAL166  LYS551  ARG553  GLY616  TRP617  ASP618  TYR619  PRO620  LYS621  CYS622 
 ASP623  PHE694  ASN695  SER759  ASP760  ASP761  ALA762  ILE779  LEU786  VAL792 
 PHE793  MET794  SER795  GLU796  ALA797  LYS798  CYS799  TRP800  GLU811  SER814 

> <Gold.Protein.RotatedAtoms>
  152.2843  133.5500  159.5516 H   0  0  0  0  0  0  0  0  0  0  0  0  # atno 6907 bound_to 6896
  150.7208  134.0520  159.3810 H   0  0  0  0  0  0  0  0  0  0  0  0  # atno 6908 bound_to 6896
  151.8429  135.0584  160.0501 H   0  0  0  0  0  0  0  0  0  0  0  0  # atno 6909 bound_to 6896
  145.3001  140.9375  143.2829 H   0  0  0  0  0  0  0  0  0  0  0  0  # atno 7974 bound_to 7965
  156.2309  140.1861  156.7245 H   0  0  0  0  0  0  0  0  0  0  0  0  # atno 8008 bound_to 7997
  154.6021  140.0634  156.9409 H   0  0  0  0  0  0  0  0  0  0  0  0  # atno 8009 bound_to 7997
  155.2157  140.3303  155.4325 H   0  0  0  0  0  0  0  0  0  0  0  0  # atno 8010 bound_to 7997
  140.3977  144.1766  150.6132 H   0  0  0  0  0  0  0  0  0  0  0  0  # atno 10167 bound_to 10162
  156.2835  130.7334  151.1338 H   0  0  0  0  0  0  0  0  0  0  0  0  # atno 10718 bound_to 10713
  153.2169  135.4369  155.0445 H   0  0  0  0  0  0  0  0  0  0  0  0  # atno 10763 bound_to 10752
  154.8230  135.3347  154.6985 H   0  0  0  0  0  0  0  0  0  0  0  0  # atno 10764 bound_to 10752
  153.7419  135.7004  153.5021 H   0  0  0  0  0  0  0  0  0  0  0  0  # atno 10765 bound_to 10752
  139.8850  134.8633  156.3330 H   0  0  0  0  0  0  0  0  0  0  0  0  # atno 11005 bound_to 11000
  144.9101  139.4539  143.6591 LP  0  0  0  0  0  0  0  0  0  0  0  0  # atno 17320 bound_to 7965
  146.3155  139.7904  142.8987 LP  0  0  0  0  0  0  0  0  0  0  0  0  # atno 17321 bound_to 7965
  140.4772  143.2391  151.9006 LP  0  0  0  0  0  0  0  0  0  0  0  0  # atno 17342 bound_to 10162
  139.4786  144.5307  151.8670 LP  0  0  0  0  0  0  0  0  0  0  0  0  # atno 17343 bound_to 10162
  157.7321  131.0602  150.5643 LP  0  0  0  0  0  0  0  0  0  0  0  0  # atno 17370 bound_to 10713
  156.5751  130.4290  149.6002 LP  0  0  0  0  0  0  0  0  0  0  0  0  # atno 17371 bound_to 10713
  140.9710  133.7327  156.0535 LP  0  0  0  0  0  0  0  0  0  0  0  0  # atno 17394 bound_to 11000
  140.7871  134.3660  157.5474 LP  0  0  0  0  0  0  0  0  0  0  0  0  # atno 17395 bound_to 11000

$$$$
