AV-unprocessed.smi:338|AV-procd|sdf|2375|dock1
  -GOLD-   2262022293D 1   1.00000     0.00000
 Structure written by MMmdl.
 41 43  0  0  0  0  0  0  0  0  1 V2000
  156.2293  132.5884  161.0622 C   0  0  0  0  0  0  0  0  0  0  0  0
  155.3615  133.8394  160.9334 C   0  0  0  0  0  0  0  0  0  0  0  0
  154.8635  134.1013  159.8389 O   0  0  0  0  0  0  0  0  0  0  0  0
  155.1648  134.6791  162.1503 C   0  0  0  0  0  0  0  0  0  0  0  0
  155.0416  134.1032  163.4362 C   0  0  0  0  0  0  0  0  0  0  0  0
  154.8587  134.9212  164.5660 C   0  0  0  0  0  0  0  0  0  0  0  0
  154.7960  136.3189  164.4234 C   0  0  0  0  0  0  0  0  0  0  0  0
  154.9143  136.9176  163.1540 C   0  0  0  0  0  0  0  0  0  0  0  0
  154.8406  138.2933  163.1054 O   0  0  0  0  0  0  0  0  0  0  0  0
  154.9380  138.9311  161.8385 C   0  0  0  0  0  0  0  0  0  0  0  0
  154.6176  140.4236  162.0055 C   0  0  1  0  0  0  0  0  0  0  0  0
  155.7970  141.0946  162.4037 O   0  0  0  0  0  0  0  0  0  0  0  0
  154.0694  141.0564  160.7114 C   0  0  0  0  0  0  0  0  0  0  0  0
  153.3318  142.2821  160.9603 N   0  0  0  0  0  0  0  0  0  0  0  0
  153.1266  142.8809  162.1494 C   0  0  0  0  0  0  0  0  0  0  0  0
  152.4178  144.0062  162.1507 N   0  0  0  0  0  0  0  0  0  0  0  0
  152.1331  144.1585  160.8045 C   0  0  0  0  0  0  0  0  0  0  0  0
  151.4063  145.1647  160.1285 C   0  0  0  0  0  0  0  0  0  0  0  0
  151.2441  145.1104  158.7285 C   0  0  0  0  0  0  0  0  0  0  0  0
  151.8045  144.0520  157.9839 C   0  0  0  0  0  0  0  0  0  0  0  0
  152.5334  143.0384  158.6351 C   0  0  0  0  0  0  0  0  0  0  0  0
  152.6924  143.0960  160.0322 C   0  0  0  0  0  0  0  0  0  0  0  0
  155.1000  136.0865  162.0200 C   0  0  0  0  0  0  0  0  0  0  0  0
  157.2394  132.8537  161.3753 H   0  0  0  0  0  0  0  0  0  0  0  0
  156.2946  132.0692  160.1056 H   0  0  0  0  0  0  0  0  0  0  0  0
  155.8029  131.9018  161.7938 H   0  0  0  0  0  0  0  0  0  0  0  0
  155.0855  133.0343  163.5814 H   0  0  0  0  0  0  0  0  0  0  0  0
  154.7666  134.4750  165.5453 H   0  0  0  0  0  0  0  0  0  0  0  0
  154.6548  136.9380  165.2972 H   0  0  0  0  0  0  0  0  0  0  0  0
  155.9526  138.8153  161.4530 H   0  0  0  0  0  0  0  0  0  0  0  0
  154.2493  138.4787  161.1227 H   0  0  0  0  0  0  0  0  0  0  0  0
  153.8886  140.5407  162.8084 H   0  0  0  0  0  0  0  0  0  0  0  0
  156.1533  140.6507  163.1583 H   0  0  0  0  0  0  0  0  0  0  0  0
  154.8838  141.2729  160.0183 H   0  0  0  0  0  0  0  0  0  0  0  0
  153.4038  140.3595  160.2008 H   0  0  0  0  0  0  0  0  0  0  0  0
  153.5177  142.4651  163.0667 H   0  0  0  0  0  0  0  0  0  0  0  0
  150.9734  145.9802  160.6885 H   0  0  0  0  0  0  0  0  0  0  0  0
  150.6870  145.8855  158.2230 H   0  0  0  0  0  0  0  0  0  0  0  0
  151.6753  144.0195  156.9120 H   0  0  0  0  0  0  0  0  0  0  0  0
  152.9646  142.2265  158.0684 H   0  0  0  0  0  0  0  0  0  0  0  0
  155.1956  136.5202  161.0359 H   0  0  0  0  0  0  0  0  0  0  0  0
  1  2  1  0  0  0  0
  1 24  1  0  0  0  0
  1 25  1  0  0  0  0
  1 26  1  0  0  0  0
  2  3  2  0  0  0  0
  2  4  1  0  0  0  0
  4 23  1  0  0  0  0
  4  5  2  0  0  0  0
  5  6  1  0  0  0  0
  5 27  1  0  0  0  0
  6  7  2  0  0  0  0
  6 28  1  0  0  0  0
  7  8  1  0  0  0  0
  7 29  1  0  0  0  0
  8  9  1  0  0  0  0
  8 23  2  0  0  0  0
  9 10  1  0  0  0  0
 10 11  1  0  0  0  0
 10 30  1  0  0  0  0
 10 31  1  0  0  0  0
 11 12  1  0  0  0  0
 11 13  1  0  0  0  0
 11 32  1  0  0  0  0
 12 33  1  0  0  0  0
 13 14  1  0  0  0  0
 13 34  1  0  0  0  0
 13 35  1  0  0  0  0
 14 22  1  0  0  0  0
 14 15  1  0  0  0  0
 15 16  2  0  0  0  0
 15 36  1  0  0  0  0
 16 17  1  0  0  0  0
 17 22  2  0  0  0  0
 17 18  1  0  0  0  0
 18 19  2  0  0  0  0
 18 37  1  0  0  0  0
 19 20  1  0  0  0  0
 19 38  1  0  0  0  0
 20 21  2  0  0  0  0
 20 39  1  0  0  0  0
 21 22  1  0  0  0  0
 21 40  1  0  0  0  0
 23 41  1  0  0  0  0
M  END
> <s_m_source_file>
AV-unprocessed.smi

> <i_m_source_file_index>
338

> <i_lp_mmshare_version>
43012

> <i_f3d_flags>
0

> <s_epik_input>
W0NIM11DKD1PKWMxW2NIXVtjSF1bY0hdYyhbY0hdMSlPW0NIMl1bQ0BIXShbT0hdKVtDSDJdbihbY0hdbjIpYyhjMjMpW2NIXVtjSF1bY0hdW2NIXTM=

> <s_epik_cmdline>
J2VwaWtfcHl0aG9uJywgJy1waCcsICc3LjAnLCAnLXRuJywgJzgnLCAnLW1hJywgJzIwMCcsICctbWV0YWxfYmluZGluZycsICctaW1hZScsICc8aW5maWxlLm1hZT4nLCAnLW9tYWUnLCAnPG91dGZpbGUubWFlPic=

> <r_lp_tautomer_probability>
0.99995

> <r_epik_Ionization_Penalty>
0.0640132

> <r_epik_Ionization_Penalty_Charging>
0

> <r_epik_Ionization_Penalty_Neutral>
0.0640132

> <r_epik_State_Penalty>
0.0557325

> <r_epik_Charging_Adjusted_Penalty>
0.0557325

> <i_epik_Tot_Q>
0

> <i_epik_Tot_abs_Q>
0

> <r_epik_Metal_State_Penalty>
5.8435e-05

> <b_epik_Metal_Only>
0

> <s_lp_Force_Field>
OPLS_2005

> <r_lp_Energy>
20.9332

> <b_lp_Chiralities_Consistent>
1

> <s_lp_Variant>
AV-unprocessed.smi:338-2

> <Gold.Version>
5.8.1

> <Gold.Id.Protein>
6NUR|6NUR_protein|mol2

> <Gold.PLP.Fitness>
58.9678

> <Gold.PLP.PLP>
-57.7726

> <Gold.PLP.part.hbond>
-1.6821

> <Gold.PLP.part.metal>
0.0000

> <Gold.PLP.part.buried>
-5.8826

> <Gold.PLP.part.nonpolar>
-49.1436

> <Gold.PLP.part.repulsive>
0.1874

> <Gold.PLP.ligand.clash>
0.0000

> <Gold.PLP.ligand.torsion>
1.0266

> <Gold.PLP.Chemscore.Hbond>
1.0000

> <Gold.PLP.Chemscore.CHOScore>
0.0000

> <Gold.PLP.Chemscore.Metal>
0.0000

> <Gold.Chemscore.Hbonds>
donor molecule, donor type, donor heavy atom, donor atom, acceptor molecule, acceptor atom, score
      P1  H  6896  6908       L1     3  0.46

> <Gold.PLP.Chemscore.Internal.Correction>
0.2485

> <Gold.Rescore>
     Score         DG    S(hbond)    S(metal)    S(lipo)     H(rot)  DE(clash)    DE(int)     intcor
     15.80     -19.04       0.98        0.00     140.37       2.40       1.90       1.34       ----

> <Gold.Chemscore.Fitness>
15.8005

> <Gold.Chemscore.DG>
-19.0432

> <Gold.Chemscore.ZeroCoef>
-5.4800

> <Gold.Chemscore.Hbond>
0.9836

> <Gold.Chemscore.Metal>
0.0000

> <Gold.Chemscore.Lipo>
140.3703

> <Gold.Chemscore.Internal_Hbond>
0.0000

> <Gold.Chemscore.DEClash>
1.8987

> <Gold.Chemscore.DEInternal>
1.3440

> <Gold.Chemscore.Rot>
2.4005

> <Gold.Chemscore.Internal.Correction>
   9.000000E+99

> <Gold.Chemscore.Hbonds>
donor molecule, donor type, donor heavy atom, donor atom, acceptor molecule, acceptor atom, score
      P1  H  6896  6908       L1     3  0.40

> <Gold.Chemscore.Hbond.Weighted>
-3.2851

> <Gold.Chemscore.Metal.Weighted>
-0.0000

> <Gold.Chemscore.Lipo.Weighted>
-16.4233

> <Gold.Chemscore.Internal_Hbond.Weighted>
0.0000

> <Gold.Chemscore.DEClash.Weighted>
1.8987

> <Gold.Chemscore.DEInternal.Weighted>
1.3440

> <Gold.Chemscore.Rot.Weighted>
6.1453

> <Gold.Chemscore.Internal.Correction.Weighted>
   9.000000E+99

> <Gold.Protein.RotatedTorsions>
[ 6907 6896 6895 6894 ] final  -26.02 input  -60.11 | X-H torsion
[ 7974 7965 7964 7962 ] final  154.23 input  175.53 | X-H torsion
[ 8008 7997 7996 7995 ] final -101.56 input   59.86 | X-H torsion
[ 10167 10162 10161 10158 ] final  119.26 input  -65.29 | X-H torsion
[ 10718 10713 10712 10709 ] final  -90.38 input   66.30 | X-H torsion
[ 10763 10752 10751 10750 ] final  146.33 input  -60.55 | X-H torsion
[ 11005 11000 10999 10996 ] final    5.93 input  -57.11 | X-H torsion

> <Gold.Protein.ActiveResidues>
 VAL166  LYS551  ARG553  GLY616  TRP617  ASP618  TYR619  PRO620  LYS621  CYS622 
 ASP623  PHE694  ASN695  SER759  ASP760  ASP761  ALA762  ILE779  LEU786  VAL792 
 PHE793  MET794  SER795  GLU796  ALA797  LYS798  CYS799  TRP800  GLU811  SER814 

> <Gold.Protein.RotatedAtoms>
  151.1669  135.0299  159.8734 H   0  0  0  0  0  0  0  0  0  0  0  0  # atno 6907 bound_to 6896
  152.5450  134.1215  159.8411 H   0  0  0  0  0  0  0  0  0  0  0  0  # atno 6908 bound_to 6896
  151.1317  133.4986  159.2631 H   0  0  0  0  0  0  0  0  0  0  0  0  # atno 6909 bound_to 6896
  144.8102  139.6906  143.6145 H   0  0  0  0  0  0  0  0  0  0  0  0  # atno 7974 bound_to 7965
  154.8443  140.0433  157.1562 H   0  0  0  0  0  0  0  0  0  0  0  0  # atno 8008 bound_to 7997
  154.9012  140.3000  155.5296 H   0  0  0  0  0  0  0  0  0  0  0  0  # atno 8009 bound_to 7997
  156.2993  140.2375  156.4040 H   0  0  0  0  0  0  0  0  0  0  0  0  # atno 8010 bound_to 7997
  139.6058  144.7069  151.2957 H   0  0  0  0  0  0  0  0  0  0  0  0  # atno 10167 bound_to 10162
  155.9987  130.4907  150.5314 H   0  0  0  0  0  0  0  0  0  0  0  0  # atno 10718 bound_to 10713
  154.0201  135.2906  155.3382 H   0  0  0  0  0  0  0  0  0  0  0  0  # atno 10763 bound_to 10752
  154.7051  135.5172  153.8586 H   0  0  0  0  0  0  0  0  0  0  0  0  # atno 10764 bound_to 10752
  153.0685  135.6639  154.0424 H   0  0  0  0  0  0  0  0  0  0  0  0  # atno 10765 bound_to 10752
  140.5652  134.0154  155.7987 H   0  0  0  0  0  0  0  0  0  0  0  0  # atno 11005 bound_to 11000
  146.2400  139.5981  142.9498 LP  0  0  0  0  0  0  0  0  0  0  0  0  # atno 17320 bound_to 7965
  145.5342  141.0425  143.2366 LP  0  0  0  0  0  0  0  0  0  0  0  0  # atno 17321 bound_to 7965
  140.7283  143.6938  150.7900 LP  0  0  0  0  0  0  0  0  0  0  0  0  # atno 17342 bound_to 10162
  140.0523  143.5237  152.2667 LP  0  0  0  0  0  0  0  0  0  0  0  0  # atno 17343 bound_to 10162
  157.3262  131.0691  151.1895 LP  0  0  0  0  0  0  0  0  0  0  0  0  # atno 17370 bound_to 10713
  157.2791  130.6741  149.6057 LP  0  0  0  0  0  0  0  0  0  0  0  0  # atno 17371 bound_to 10713
  141.1090  133.9647  157.2944 LP  0  0  0  0  0  0  0  0  0  0  0  0  # atno 17394 bound_to 11000
  139.9388  135.0193  156.8643 LP  0  0  0  0  0  0  0  0  0  0  0  0  # atno 17395 bound_to 11000

$$$$
