AV-unprocessed.smi:3026|AV-procd|sdf|11513|dock6
  -GOLD-   2272016453D 1   1.00000     0.00000
 Structure written by MMmdl.
 33 34  0  0  0  0  0  0  0  0  1 V2000
  153.0856  141.9019  160.2097 C   0  0  0  0  0  0  0  0  0  0  0  0
  152.3458  142.2065  158.9249 C   0  0  0  0  0  0  0  0  0  0  0  0
  151.9985  143.5256  158.5680 C   0  0  0  0  0  0  0  0  0  0  0  0
  151.3082  143.6776  157.3489 C   0  0  0  0  0  0  0  0  0  0  0  0
  150.9996  142.6191  156.5685 N   0  0  0  0  0  0  0  0  0  0  0  0
  151.3851  141.4123  156.9973 C   0  0  0  0  0  0  0  0  0  0  0  0
  151.0338  140.3371  156.1902 N   0  0  0  0  0  0  0  0  0  0  0  0
  152.1559  139.4364  155.9413 C   0  0  0  0  0  0  0  0  0  0  0  0
  151.6778  138.1146  155.3300 C   0  0  0  0  0  0  0  0  0  0  0  0
  150.9712  138.3983  154.1329 O   0  0  0  0  0  0  0  0  0  0  0  0
  149.8079  139.1744  154.3874 C   0  0  0  0  0  0  0  0  0  0  0  0
  150.1730  140.5437  155.0137 C   0  0  1  0  0  0  0  0  0  0  0  0
  148.8849  141.3417  155.3600 C   0  0  0  0  0  0  0  0  0  0  0  0
  147.9715  141.6596  154.1629 C   0  0  0  0  0  0  0  0  0  0  0  0
  147.1298  142.7544  154.4571 O   0  0  0  0  0  0  0  0  0  0  0  0
  152.0319  141.1522  158.1412 N   0  0  0  0  0  0  0  0  0  0  0  0
  153.5295  142.8049  160.6296 H   0  0  0  0  0  0  0  0  0  0  0  0
  153.8852  141.1824  160.0311 H   0  0  0  0  0  0  0  0  0  0  0  0
  152.4012  141.4810  160.9466 H   0  0  0  0  0  0  0  0  0  0  0  0
  152.2441  144.3731  159.1907 H   0  0  0  0  0  0  0  0  0  0  0  0
  151.0008  144.6522  156.9995 H   0  0  0  0  0  0  0  0  0  0  0  0
  152.8621  139.9246  155.2682 H   0  0  0  0  0  0  0  0  0  0  0  0
  152.6909  139.2339  156.8701 H   0  0  0  0  0  0  0  0  0  0  0  0
  152.5307  137.4774  155.0971 H   0  0  0  0  0  0  0  0  0  0  0  0
  151.0457  137.5628  156.0278 H   0  0  0  0  0  0  0  0  0  0  0  0
  149.2957  139.3094  153.4358 H   0  0  0  0  0  0  0  0  0  0  0  0
  149.1290  138.6171  155.0354 H   0  0  0  0  0  0  0  0  0  0  0  0
  150.7547  141.1095  154.2847 H   0  0  0  0  0  0  0  0  0  0  0  0
  148.3119  140.7852  156.1028 H   0  0  0  0  0  0  0  0  0  0  0  0
  149.1295  142.2912  155.8348 H   0  0  0  0  0  0  0  0  0  0  0  0
  148.5421  141.8669  153.2586 H   0  0  0  0  0  0  0  0  0  0  0  0
  147.3430  140.7967  153.9420 H   0  0  0  0  0  0  0  0  0  0  0  0
  147.6654  143.4754  154.7515 H   0  0  0  0  0  0  0  0  0  0  0  0
  1  2  1  0  0  0  0
  1 17  1  0  0  0  0
  1 18  1  0  0  0  0
  1 19  1  0  0  0  0
  2 16  1  0  0  0  0
  2  3  2  0  0  0  0
  3  4  1  0  0  0  0
  3 20  1  0  0  0  0
  4  5  2  0  0  0  0
  4 21  1  0  0  0  0
  5  6  1  0  0  0  0
  6  7  1  0  0  0  0
  6 16  2  0  0  0  0
  7 12  1  0  0  0  0
  7  8  1  0  0  0  0
  8  9  1  0  0  0  0
  8 22  1  0  0  0  0
  8 23  1  0  0  0  0
  9 10  1  0  0  0  0
  9 24  1  0  0  0  0
  9 25  1  0  0  0  0
 10 11  1  0  0  0  0
 11 12  1  0  0  0  0
 11 26  1  0  0  0  0
 11 27  1  0  0  0  0
 12 13  1  0  0  0  0
 12 28  1  0  0  0  0
 13 14  1  0  0  0  0
 13 29  1  0  0  0  0
 13 30  1  0  0  0  0
 14 15  1  0  0  0  0
 14 31  1  0  0  0  0
 14 32  1  0  0  0  0
 15 33  1  0  0  0  0
M  END
> <s_m_source_file>
AV-unprocessed.smi

> <i_m_source_file_index>
3026

> <i_lp_mmshare_version>
43012

> <i_f3d_flags>
0

> <s_epik_input>
W0NIM11jMVtjSF1bY0hdbmMobjEpTjJbQ0gyXVtDSDJdT1tDSDJdW0NASF0yW0NIMl1bQ0gyXVtPSF0=

> <s_epik_cmdline>
J2VwaWtfcHl0aG9uJywgJy1waCcsICc3LjAnLCAnLXRuJywgJzgnLCAnLW1hJywgJzIwMCcsICctbWV0YWxfYmluZGluZycsICctaW1hZScsICc8aW5maWxlLm1hZT4nLCAnLW9tYWUnLCAnPG91dGZpbGUubWFlPic=

> <r_lp_tautomer_probability>
1

> <r_epik_Ionization_Penalty>
6.52665e-05

> <r_epik_Ionization_Penalty_Charging>
0

> <r_epik_Ionization_Penalty_Neutral>
6.52665e-05

> <r_epik_State_Penalty>
-0

> <r_epik_Charging_Adjusted_Penalty>
0

> <i_epik_Tot_Q>
0

> <i_epik_Tot_abs_Q>
0

> <r_epik_Metal_State_Penalty>
-0

> <b_epik_Metal_Only>
0

> <s_lp_Force_Field>
OPLS_2005

> <r_lp_Energy>
15.2375

> <b_lp_Chiralities_Consistent>
1

> <s_lp_Variant>
AV-unprocessed.smi:3026-1

> <Gold.Version>
5.8.1

> <Gold.Id.Protein>
6NUR|6NUR_protein|mol2

> <Gold.PLP.Fitness>
37.2214

> <Gold.PLP.PLP>
-32.1982

> <Gold.PLP.part.hbond>
-1.0000

> <Gold.PLP.part.metal>
0.0000

> <Gold.PLP.part.buried>
-2.2713

> <Gold.PLP.part.nonpolar>
-28.9653

> <Gold.PLP.part.repulsive>
0.4642

> <Gold.PLP.ligand.clash>
0.0000

> <Gold.PLP.ligand.torsion>
0.2661

> <Gold.PLP.Chemscore.Hbond>
1.0000

> <Gold.PLP.Chemscore.CHOScore>
0.7478

> <Gold.PLP.Chemscore.Metal>
0.0000

> <Gold.Chemscore.Hbonds>
donor molecule, donor type, donor heavy atom, donor atom, acceptor molecule, acceptor atom, score
      L1  H    15    33       P1  8028  1.00
      L1  C     4    21       P1  8028  0.75

> <Gold.PLP.Chemscore.Internal.Correction>
0.3122

> <Gold.Rescore>
     Score         DG    S(hbond)    S(metal)    S(lipo)     H(rot)  DE(clash)    DE(int)     intcor
     11.03     -13.23       0.84        0.00      85.62       1.99       0.45       1.75       ----

> <Gold.Chemscore.Fitness>
11.0301

> <Gold.Chemscore.DG>
-13.2294

> <Gold.Chemscore.ZeroCoef>
-5.4800

> <Gold.Chemscore.Hbond>
0.8434

> <Gold.Chemscore.Metal>
0.0000

> <Gold.Chemscore.Lipo>
85.6210

> <Gold.Chemscore.Internal_Hbond>
0.0000

> <Gold.Chemscore.DEClash>
0.4521

> <Gold.Chemscore.DEInternal>
1.7473

> <Gold.Chemscore.Rot>
1.9864

> <Gold.Chemscore.Internal.Correction>
   9.000000E+99

> <Gold.Chemscore.Hbonds>
donor molecule, donor type, donor heavy atom, donor atom, acceptor molecule, acceptor atom, score
      L1  H    15    33       P1  8028  0.35

> <Gold.Chemscore.Hbond.Weighted>
-2.8169

> <Gold.Chemscore.Metal.Weighted>
-0.0000

> <Gold.Chemscore.Lipo.Weighted>
-10.0177

> <Gold.Chemscore.Internal_Hbond.Weighted>
0.0000

> <Gold.Chemscore.DEClash.Weighted>
0.4521

> <Gold.Chemscore.DEInternal.Weighted>
1.7473

> <Gold.Chemscore.Rot.Weighted>
5.0851

> <Gold.Chemscore.Internal.Correction.Weighted>
   9.000000E+99

> <Gold.Protein.RotatedTorsions>
[ 6907 6896 6895 6894 ] final -101.53 input  -60.11 | X-H torsion
[ 7974 7965 7964 7962 ] final -103.15 input  175.53 | X-H torsion
[ 8008 7997 7996 7995 ] final  -17.02 input   59.86 | X-H torsion
[ 10167 10162 10161 10158 ] final   78.66 input  -65.29 | X-H torsion
[ 10718 10713 10712 10709 ] final   40.64 input   66.30 | X-H torsion
[ 10763 10752 10751 10750 ] final  151.43 input  -60.55 | X-H torsion
[ 11005 11000 10999 10996 ] final   28.03 input  -57.11 | X-H torsion

> <Gold.Protein.ActiveResidues>
 VAL166  LYS551  ARG553  GLY616  TRP617  ASP618  TYR619  PRO620  LYS621  CYS622 
 ASP623  PHE694  ASN695  SER759  ASP760  ASP761  ALA762  ILE779  LEU786  VAL792 
 PHE793  MET794  SER795  GLU796  ALA797  LYS798  CYS799  TRP800  GLU811  SER814 

> <Gold.Protein.RotatedAtoms>
  150.7158  134.0721  159.3867 H   0  0  0  0  0  0  0  0  0  0  0  0  # atno 6907 bound_to 6896
  151.8703  135.0489  160.0488 H   0  0  0  0  0  0  0  0  0  0  0  0  # atno 6908 bound_to 6896
  152.2648  133.5294  159.5440 H   0  0  0  0  0  0  0  0  0  0  0  0  # atno 6909 bound_to 6896
  145.2596  140.9265  143.3048 H   0  0  0  0  0  0  0  0  0  0  0  0  # atno 7974 bound_to 7965
  154.5010  140.2154  155.9348 H   0  0  0  0  0  0  0  0  0  0  0  0  # atno 8008 bound_to 7997
  156.1433  140.3175  155.8497 H   0  0  0  0  0  0  0  0  0  0  0  0  # atno 8009 bound_to 7997
  155.4079  140.0488  157.3024 H   0  0  0  0  0  0  0  0  0  0  0  0  # atno 8010 bound_to 7997
  139.9686  144.5910  150.8006 H   0  0  0  0  0  0  0  0  0  0  0  0  # atno 10167 bound_to 10162
  157.3845  130.7772  149.7219 H   0  0  0  0  0  0  0  0  0  0  0  0  # atno 10718 bound_to 10713
  154.1036  135.2844  155.3246 H   0  0  0  0  0  0  0  0  0  0  0  0  # atno 10763 bound_to 10752
  154.6538  135.5359  153.7937 H   0  0  0  0  0  0  0  0  0  0  0  0  # atno 10764 bound_to 10752
  153.0370  135.6516  154.1199 H   0  0  0  0  0  0  0  0  0  0  0  0  # atno 10765 bound_to 10752
  140.3199  134.2555  155.7719 H   0  0  0  0  0  0  0  0  0  0  0  0  # atno 11005 bound_to 11000
  144.9430  139.4168  143.6439 LP  0  0  0  0  0  0  0  0  0  0  0  0  # atno 17320 bound_to 7965
  146.3279  139.8399  142.8892 LP  0  0  0  0  0  0  0  0  0  0  0  0  # atno 17321 bound_to 7965
  140.7529  143.2999  151.3106 LP  0  0  0  0  0  0  0  0  0  0  0  0  # atno 17342 bound_to 10162
  139.6499  144.0382  152.2618 LP  0  0  0  0  0  0  0  0  0  0  0  0  # atno 17343 bound_to 10162
  155.9783  130.4052  150.3655 LP  0  0  0  0  0  0  0  0  0  0  0  0  # atno 17370 bound_to 10713
  157.1763  131.0381  151.2770 LP  0  0  0  0  0  0  0  0  0  0  0  0  # atno 17371 bound_to 10713
  141.2089  133.7765  157.0031 LP  0  0  0  0  0  0  0  0  0  0  0  0  # atno 17394 bound_to 11000
  140.0951  134.9569  157.1837 LP  0  0  0  0  0  0  0  0  0  0  0  0  # atno 17395 bound_to 11000

$$$$
