AV-unprocessed.smi:861|AV-procd|sdf|3968|dock7
  -GOLD-   22720 1443D 1   1.00000     0.00000
 Structure written by MMmdl.
 44 45  0  0  0  0  0  0  0  0  2 V2000
  152.7024  142.8983  160.4928 C   0  0  0  0  0  0  0  0  0  0  0  0
  152.3463  143.4288  159.0938 C   0  0  0  0  0  0  0  0  0  0  0  0
  152.0334  144.9316  159.1559 C   0  0  0  0  0  0  0  0  0  0  0  0
  151.1760  142.6565  158.4514 C   0  0  0  0  0  0  0  0  0  0  0  0
  151.5172  141.2003  158.0770 C   0  0  0  0  0  0  0  0  0  0  0  0
  150.4822  140.5729  157.2121 N   0  3  1  0  0  0  0  0  0  0  0  0
  151.0037  140.1239  155.8984 C   0  0  0  0  0  0  0  0  0  0  0  0
  151.7697  138.7951  156.0289 C   0  0  0  0  0  0  0  0  0  0  0  0
  150.9227  137.8153  156.6170 O   0  0  0  0  0  0  0  0  0  0  0  0
  150.5054  138.1667  157.9323 C   0  0  2  0  0  0  0  0  0  0  0  0
  149.6860  136.9853  158.4822 C   0  0  0  0  0  0  0  0  0  0  0  0
  148.6009  137.4108  159.3601 N   0  0  0  0  0  0  0  0  0  0  0  0
  148.0749  136.5805  160.3607 C   0  0  0  0  0  0  0  0  0  0  0  0
  148.1047  135.1851  160.1680 C   0  0  0  0  0  0  0  0  0  0  0  0
  147.5810  134.3731  161.1888 C   0  0  0  0  0  0  0  0  0  0  0  0
  147.0671  135.0194  162.3276 C   0  0  0  0  0  0  0  0  0  0  0  0
  147.0624  136.3648  162.4605 N   0  0  0  0  0  0  0  0  0  0  0  0
  147.5581  137.1354  161.4858 N   0  0  0  0  0  0  0  0  0  0  0  0
  149.7014  139.4855  157.8554 C   0  0  0  0  0  0  0  0  0  0  0  0
  151.8460  142.9472  161.1660 H   0  0  0  0  0  0  0  0  0  0  0  0
  153.5075  143.4833  160.9385 H   0  0  0  0  0  0  0  0  0  0  0  0
  153.0425  141.8637  160.4582 H   0  0  0  0  0  0  0  0  0  0  0  0
  153.2239  143.3083  158.4572 H   0  0  0  0  0  0  0  0  0  0  0  0
  151.1597  145.1292  159.7780 H   0  0  0  0  0  0  0  0  0  0  0  0
  151.8327  145.3353  158.1631 H   0  0  0  0  0  0  0  0  0  0  0  0
  152.8710  145.4918  159.5730 H   0  0  0  0  0  0  0  0  0  0  0  0
  150.3234  142.6886  159.1294 H   0  0  0  0  0  0  0  0  0  0  0  0
  150.8642  143.1807  157.5468 H   0  0  0  0  0  0  0  0  0  0  0  0
  152.4634  141.2062  157.5347 H   0  0  0  0  0  0  0  0  0  0  0  0
  151.6793  140.5972  158.9695 H   0  0  0  0  0  0  0  0  0  0  0  0
  150.1586  139.9859  155.2229 H   0  0  0  0  0  0  0  0  0  0  0  0
  151.6325  140.8929  155.4478 H   0  0  0  0  0  0  0  0  0  0  0  0
  152.0782  138.4448  155.0439 H   0  0  0  0  0  0  0  0  0  0  0  0
  152.6786  138.9153  156.6201 H   0  0  0  0  0  0  0  0  0  0  0  0
  151.3917  138.2920  158.5563 H   0  0  0  0  0  0  0  0  0  0  0  0
  149.3269  136.3495  157.6724 H   0  0  0  0  0  0  0  0  0  0  0  0
  150.3408  136.3543  159.0838 H   0  0  0  0  0  0  0  0  0  0  0  0
  148.2051  138.3298  159.2238 H   0  0  0  0  0  0  0  0  0  0  0  0
  148.5153  134.7484  159.2693 H   0  0  0  0  0  0  0  0  0  0  0  0
  147.5739  133.2967  161.1027 H   0  0  0  0  0  0  0  0  0  0  0  0
  146.6531  134.4490  163.1459 H   0  0  0  0  0  0  0  0  0  0  0  0
  149.3572  139.7916  158.8409 H   0  0  0  0  0  0  0  0  0  0  0  0
  148.8006  139.3225  157.2619 H   0  0  0  0  0  0  0  0  0  0  0  0
  149.8261  141.3139  157.0095 H   0  0  0  0  0  0  0  0  0  0  0  0
  1  2  1  0  0  0  0
  1 20  1  0  0  0  0
  1 21  1  0  0  0  0
  1 22  1  0  0  0  0
  2  3  1  0  0  0  0
  2  4  1  0  0  0  0
  2 23  1  0  0  0  0
  3 24  1  0  0  0  0
  3 25  1  0  0  0  0
  3 26  1  0  0  0  0
  4  5  1  0  0  0  0
  4 27  1  0  0  0  0
  4 28  1  0  0  0  0
  5  6  1  0  0  0  0
  5 29  1  0  0  0  0
  5 30  1  0  0  0  0
  6 19  1  0  0  0  0
  6  7  1  0  0  0  0
  6 44  1  0  0  0  0
  7  8  1  0  0  0  0
  7 31  1  0  0  0  0
  7 32  1  0  0  0  0
  8  9  1  0  0  0  0
  8 33  1  0  0  0  0
  8 34  1  0  0  0  0
  9 10  1  0  0  0  0
 10 11  1  0  0  0  0
 10 19  1  0  0  0  0
 10 35  1  0  0  0  0
 11 12  1  0  0  0  0
 11 36  1  0  0  0  0
 11 37  1  0  0  0  0
 12 13  1  0  0  0  0
 12 38  1  0  0  0  0
 13 18  1  0  0  0  0
 13 14  2  0  0  0  0
 14 15  1  0  0  0  0
 14 39  1  0  0  0  0
 15 16  2  0  0  0  0
 15 40  1  0  0  0  0
 16 17  1  0  0  0  0
 16 41  1  0  0  0  0
 17 18  2  0  0  0  0
 19 42  1  0  0  0  0
 19 43  1  0  0  0  0
M  CHG  1   6   1
M  END
> <s_m_source_file>
AV-unprocessed.smi

> <i_m_source_file_index>
861

> <i_lp_mmshare_version>
43012

> <i_f3d_flags>
0

> <s_epik_input>
W0NIM11bQ0hdKFtDSDNdKVtDSDJdW0NIMl1OMVtDSDJdW0NIMl1PW0NASF0oW0NIMl0xKVtDSDJdW05IXWMyW2NIXVtjSF1bY0hdbm4y

> <s_epik_cmdline>
J2VwaWtfcHl0aG9uJywgJy1waCcsICc3LjAnLCAnLXRuJywgJzgnLCAnLW1hJywgJzIwMCcsICctbWV0YWxfYmluZGluZycsICctaW1hZScsICc8aW5maWxlLm1hZT4nLCAnLW9tYWUnLCAnPG91dGZpbGUubWFlPic=

> <r_lp_tautomer_probability>
0.999978

> <r_epik_Ionization_Penalty>
0.114704

> <r_epik_Ionization_Penalty_Charging>
0.0953451

> <r_epik_Ionization_Penalty_Neutral>
0.0193593

> <r_epik_State_Penalty>
0.104983

> <r_epik_Charging_Adjusted_Penalty>
0.200328

> <i_epik_Tot_Q>
1

> <i_epik_Tot_abs_Q>
1

> <r_epik_Metal_State_Penalty>
0.100113

> <b_epik_Metal_Only>
0

> <s_lp_Force_Field>
OPLS_2005

> <r_lp_Energy>
26.2812

> <b_lp_Chiralities_Consistent>
1

> <s_lp_Variant>
AV-unprocessed.smi:861-3

> <Gold.Version>
5.8.1

> <Gold.Id.Protein>
6NUR|6NUR_protein|mol2

> <Gold.PLP.Fitness>
40.6426

> <Gold.PLP.PLP>
-38.4721

> <Gold.PLP.part.hbond>
-2.0000

> <Gold.PLP.part.metal>
0.0000

> <Gold.PLP.part.buried>
-4.9977

> <Gold.PLP.part.nonpolar>
-31.5498

> <Gold.PLP.part.repulsive>
0.2602

> <Gold.PLP.ligand.clash>
0.0000

> <Gold.PLP.ligand.torsion>
1.6306

> <Gold.PLP.Chemscore.Hbond>
1.7840

> <Gold.PLP.Chemscore.CHOScore>
0.0000

> <Gold.PLP.Chemscore.Metal>
0.0000

> <Gold.Chemscore.Hbonds>
donor molecule, donor type, donor heavy atom, donor atom, acceptor molecule, acceptor atom, score
      P1  H  6931  6943       L1    18  0.89
      P1  H  6934  6947       L1    18  0.85

> <Gold.PLP.Chemscore.Internal.Correction>
0.0797

> <Gold.Rescore>
     Score         DG    S(hbond)    S(metal)    S(lipo)     H(rot)  DE(clash)    DE(int)     intcor
     14.87     -16.67       1.23        0.00      98.03       1.71       0.00       1.81       ----

> <Gold.Chemscore.Fitness>
14.8682

> <Gold.Chemscore.DG>
-16.6735

> <Gold.Chemscore.ZeroCoef>
-5.4800

> <Gold.Chemscore.Hbond>
1.2300

> <Gold.Chemscore.Metal>
0.0000

> <Gold.Chemscore.Lipo>
98.0323

> <Gold.Chemscore.Internal_Hbond>
0.0000

> <Gold.Chemscore.DEClash>
0.0000

> <Gold.Chemscore.DEInternal>
1.8053

> <Gold.Chemscore.Rot>
1.7127

> <Gold.Chemscore.Internal.Correction>
   9.000000E+99

> <Gold.Chemscore.Hbonds>
donor molecule, donor type, donor heavy atom, donor atom, acceptor molecule, acceptor atom, score
      P1  H  6931  6943       L1    18  0.16
      P1  H  6934  6947       L1    18  0.36

> <Gold.Chemscore.Hbond.Weighted>
-4.1082

> <Gold.Chemscore.Metal.Weighted>
-0.0000

> <Gold.Chemscore.Lipo.Weighted>
-11.4698

> <Gold.Chemscore.Internal_Hbond.Weighted>
0.0000

> <Gold.Chemscore.DEClash.Weighted>
0.0000

> <Gold.Chemscore.DEInternal.Weighted>
1.8053

> <Gold.Chemscore.Rot.Weighted>
4.3844

> <Gold.Chemscore.Internal.Correction.Weighted>
   9.000000E+99

> <Gold.Protein.RotatedTorsions>
[ 6907 6896 6895 6894 ] final  141.68 input  -60.11 | X-H torsion
[ 7974 7965 7964 7962 ] final  -43.49 input  175.53 | X-H torsion
[ 8008 7997 7996 7995 ] final  115.64 input   59.86 | X-H torsion
[ 10167 10162 10161 10158 ] final  -37.98 input  -65.29 | X-H torsion
[ 10718 10713 10712 10709 ] final   93.82 input   66.30 | X-H torsion
[ 10763 10752 10751 10750 ] final   71.32 input  -60.55 | X-H torsion
[ 11005 11000 10999 10996 ] final  126.71 input  -57.11 | X-H torsion

> <Gold.Protein.ActiveResidues>
 VAL166  LYS551  ARG553  GLY616  TRP617  ASP618  TYR619  PRO620  LYS621  CYS622 
 ASP623  PHE694  ASN695  SER759  ASP760  ASP761  ALA762  ILE779  LEU786  VAL792 
 PHE793  MET794  SER795  GLU796  ALA797  LYS798  CYS799  TRP800  GLU811  SER814 

> <Gold.Protein.RotatedAtoms>
  152.2280  133.5035  159.5199 H   0  0  0  0  0  0  0  0  0  0  0  0  # atno 6907 bound_to 6896
  150.7030  134.1254  159.4059 H   0  0  0  0  0  0  0  0  0  0  0  0  # atno 6908 bound_to 6896
  151.9175  135.0312  160.0570 H   0  0  0  0  0  0  0  0  0  0  0  0  # atno 6909 bound_to 6896
  146.0014  140.7070  142.9268 H   0  0  0  0  0  0  0  0  0  0  0  0  # atno 7974 bound_to 7965
  156.2393  140.2934  156.0400 H   0  0  0  0  0  0  0  0  0  0  0  0  # atno 8008 bound_to 7997
  155.1998  140.0409  157.2932 H   0  0  0  0  0  0  0  0  0  0  0  0  # atno 8009 bound_to 7997
  154.6138  140.2458  155.7642 H   0  0  0  0  0  0  0  0  0  0  0  0  # atno 8010 bound_to 7997
  140.7104  143.3307  151.2576 H   0  0  0  0  0  0  0  0  0  0  0  0  # atno 10167 bound_to 10162
  157.6952  131.0491  150.4093 H   0  0  0  0  0  0  0  0  0  0  0  0  # atno 10718 bound_to 10713
  153.0392  135.5141  154.7575 H   0  0  0  0  0  0  0  0  0  0  0  0  # atno 10763 bound_to 10752
  154.6526  135.2927  154.9970 H   0  0  0  0  0  0  0  0  0  0  0  0  # atno 10764 bound_to 10752
  154.0848  135.6659  153.4896 H   0  0  0  0  0  0  0  0  0  0  0  0  # atno 10765 bound_to 10752
  139.9470  134.9628  156.8747 H   0  0  0  0  0  0  0  0  0  0  0  0  # atno 11005 bound_to 11000
  144.6921  140.3240  143.7227 LP  0  0  0  0  0  0  0  0  0  0  0  0  # atno 17320 bound_to 7965
  145.7482  139.1785  143.2337 LP  0  0  0  0  0  0  0  0  0  0  0  0  # atno 17321 bound_to 7965
  139.6788  143.9891  152.2796 LP  0  0  0  0  0  0  0  0  0  0  0  0  # atno 17342 bound_to 10162
  139.9514  144.6618  150.8168 LP  0  0  0  0  0  0  0  0  0  0  0  0  # atno 17343 bound_to 10162
  156.4478  130.4005  149.6655 LP  0  0  0  0  0  0  0  0  0  0  0  0  # atno 17370 bound_to 10713
  156.3815  130.7581  151.2575 LP  0  0  0  0  0  0  0  0  0  0  0  0  # atno 17371 bound_to 10713
  140.5811  134.0351  155.7464 LP  0  0  0  0  0  0  0  0  0  0  0  0  # atno 17394 bound_to 11000
  141.1123  133.9597  157.2888 LP  0  0  0  0  0  0  0  0  0  0  0  0  # atno 17395 bound_to 11000

$$$$
