AV-unprocessed.smi:2391|AV-procd|sdf|9481|dock1
  -GOLD-   2272013113D 1   1.00000     0.00000
 Structure written by MMmdl.
 35 36  0  0  0  0  0  0  0  0  1 V2000
  150.3139  141.0619  158.3162 O   0  0  0  0  0  0  0  0  0  0  0  0
  151.4516  140.7671  157.9500 C   0  0  0  0  0  0  0  0  0  0  0  0
  151.7567  140.1172  156.8131 N   0  0  0  0  0  0  0  0  0  0  0  0
  150.8706  139.6423  155.8104 C   0  0  0  0  0  0  0  0  0  0  0  0
  149.5398  139.4312  156.2305 C   0  0  0  0  0  0  0  0  0  0  0  0
  148.6098  138.9598  155.2883 C   0  0  0  0  0  0  0  0  0  0  0  0
  149.0764  138.7308  153.9827 C   0  0  0  0  0  0  0  0  0  0  0  0
  150.3605  138.9472  153.6240 N   0  0  0  0  0  0  0  0  0  0  0  0
  151.2402  139.3956  154.5263 N   0  0  0  0  0  0  0  0  0  0  0  0
  152.5579  141.0615  158.6487 N   0  0  0  0  0  0  0  0  0  0  0  0
  152.6057  141.7476  159.9419 C   0  0  2  0  0  0  0  0  0  0  0  0
  152.6428  143.2797  159.7065 C   0  0  0  0  0  0  0  0  0  0  0  0
  152.1779  144.1358  160.8901 C   0  0  0  0  0  0  0  0  0  0  0  0
  151.8574  145.5067  160.2885 C   0  0  0  0  0  0  0  0  0  0  0  0
  151.4976  145.2542  158.8183 C   0  0  0  0  0  0  0  0  0  0  0  0
  151.7299  143.7596  158.5684 C   0  0  0  0  0  0  0  0  0  0  0  0
  153.8076  141.2037  160.7476 C   0  0  0  0  0  0  0  0  0  0  0  0
  154.9383  141.4224  160.0749 F   0  0  0  0  0  0  0  0  0  0  0  0
  153.8917  141.8117  161.9317 F   0  0  0  0  0  0  0  0  0  0  0  0
  153.7000  139.8900  160.9416 F   0  0  0  0  0  0  0  0  0  0  0  0
  152.7362  139.9423  156.6448 H   0  0  0  0  0  0  0  0  0  0  0  0
  149.2361  139.6245  157.2492 H   0  0  0  0  0  0  0  0  0  0  0  0
  147.5789  138.7806  155.5556 H   0  0  0  0  0  0  0  0  0  0  0  0
  148.4111  138.3681  153.2132 H   0  0  0  0  0  0  0  0  0  0  0  0
  153.4465  140.7758  158.2645 H   0  0  0  0  0  0  0  0  0  0  0  0
  151.7034  141.5192  160.5123 H   0  0  0  0  0  0  0  0  0  0  0  0
  153.6642  143.5752  159.4606 H   0  0  0  0  0  0  0  0  0  0  0  0
  151.2741  143.7090  161.3274 H   0  0  0  0  0  0  0  0  0  0  0  0
  152.9273  144.2086  161.6784 H   0  0  0  0  0  0  0  0  0  0  0  0
  151.0542  146.0077  160.8299 H   0  0  0  0  0  0  0  0  0  0  0  0
  152.7372  146.1493  160.3436 H   0  0  0  0  0  0  0  0  0  0  0  0
  150.4645  145.5298  158.6033 H   0  0  0  0  0  0  0  0  0  0  0  0
  152.1361  145.8550  158.1697 H   0  0  0  0  0  0  0  0  0  0  0  0
  152.1560  143.5703  157.5826 H   0  0  0  0  0  0  0  0  0  0  0  0
  150.7742  143.2351  158.6162 H   0  0  0  0  0  0  0  0  0  0  0  0
  1  2  2  0  0  0  0
  2  3  1  0  0  0  0
  2 10  1  0  0  0  0
  3  4  1  0  0  0  0
  3 21  1  0  0  0  0
  4  9  1  0  0  0  0
  4  5  2  0  0  0  0
  5  6  1  0  0  0  0
  5 22  1  0  0  0  0
  6  7  2  0  0  0  0
  6 23  1  0  0  0  0
  7  8  1  0  0  0  0
  7 24  1  0  0  0  0
  8  9  2  0  0  0  0
 10 11  1  0  0  0  0
 10 25  1  0  0  0  0
 11 12  1  0  0  0  0
 11 17  1  0  0  0  0
 11 26  1  0  0  0  0
 12 16  1  0  0  0  0
 12 13  1  0  0  0  0
 12 27  1  0  0  0  0
 13 14  1  0  0  0  0
 13 28  1  0  0  0  0
 13 29  1  0  0  0  0
 14 15  1  0  0  0  0
 14 30  1  0  0  0  0
 14 31  1  0  0  0  0
 15 16  1  0  0  0  0
 15 32  1  0  0  0  0
 15 33  1  0  0  0  0
 16 34  1  0  0  0  0
 16 35  1  0  0  0  0
 17 18  1  0  0  0  0
 17 19  1  0  0  0  0
 17 20  1  0  0  0  0
M  END
> <s_m_source_file>
AV-unprocessed.smi

> <i_m_source_file_index>
2391

> <i_lp_mmshare_version>
43012

> <i_f3d_flags>
0

> <s_epik_input>
W0NIMl0xW0NIMl1bQ0gyXVtDSDJdW0NIXTFbQ0BIXShDKEYpKEYpRilbTkhdQyg9TylbTkhdYzJbY0hdW2NIXVtjSF1ubjI=

> <s_epik_cmdline>
J2VwaWtfcHl0aG9uJywgJy1waCcsICc3LjAnLCAnLXRuJywgJzgnLCAnLW1hJywgJzIwMCcsICctbWV0YWxfYmluZGluZycsICctaW1hZScsICc8aW5maWxlLm1hZT4nLCAnLW9tYWUnLCAnPG91dGZpbGUubWFlPic=

> <r_lp_tautomer_probability>
1

> <r_epik_Ionization_Penalty>
0.00359591

> <r_epik_Ionization_Penalty_Charging>
0

> <r_epik_Ionization_Penalty_Neutral>
0.00359591

> <r_epik_State_Penalty>
0.0123658

> <r_epik_Charging_Adjusted_Penalty>
0.0123658

> <i_epik_Tot_Q>
0

> <i_epik_Tot_abs_Q>
0

> <r_epik_Metal_State_Penalty>
0.0410426

> <b_epik_Metal_Only>
0

> <s_lp_Force_Field>
OPLS_2005

> <r_lp_Energy>
31.4517

> <b_lp_Chiralities_Consistent>
1

> <s_lp_Variant>
AV-unprocessed.smi:2391-1

> <Gold.Version>
5.8.1

> <Gold.Id.Protein>
6NUR|6NUR_protein|mol2

> <Gold.PLP.Fitness>
40.9589

> <Gold.PLP.PLP>
-37.8342

> <Gold.PLP.part.hbond>
-1.0000

> <Gold.PLP.part.metal>
0.0000

> <Gold.PLP.part.buried>
-3.5863

> <Gold.PLP.part.nonpolar>
-33.6705

> <Gold.PLP.part.repulsive>
1.7153

> <Gold.PLP.ligand.clash>
0.0000

> <Gold.PLP.ligand.torsion>
0.8578

> <Gold.PLP.Chemscore.Hbond>
0.6500

> <Gold.PLP.Chemscore.CHOScore>
0.8412

> <Gold.PLP.Chemscore.Metal>
0.0000

> <Gold.Chemscore.Hbonds>
donor molecule, donor type, donor heavy atom, donor atom, acceptor molecule, acceptor atom, score
      P1  H  7989  7998       L1     9  0.60
      L1  C     7    24       P1  7948  0.75
      L1  C     7    24       P1  7957  0.03

> <Gold.PLP.Chemscore.Internal.Correction>
0.3666

> <Gold.Rescore>
     Score         DG    S(hbond)    S(metal)    S(lipo)     H(rot)  DE(clash)    DE(int)     intcor
     10.54     -13.03       0.04        0.00      92.58       1.33       0.18       2.30       ----

> <Gold.Chemscore.Fitness>
10.5409

> <Gold.Chemscore.DG>
-13.0274

> <Gold.Chemscore.ZeroCoef>
-5.4800

> <Gold.Chemscore.Hbond>
0.0363

> <Gold.Chemscore.Metal>
0.0000

> <Gold.Chemscore.Lipo>
92.5807

> <Gold.Chemscore.Internal_Hbond>
0.0000

> <Gold.Chemscore.DEClash>
0.1817

> <Gold.Chemscore.DEInternal>
2.3048

> <Gold.Chemscore.Rot>
1.3304

> <Gold.Chemscore.Internal.Correction>
   9.000000E+99

> <Gold.Chemscore.Hbonds>
donor molecule, donor type, donor heavy atom, donor atom, acceptor molecule, acceptor atom, score
      P1  H  7989  7998       L1     9  0.04

> <Gold.Chemscore.Hbond.Weighted>
-0.1212

> <Gold.Chemscore.Metal.Weighted>
-0.0000

> <Gold.Chemscore.Lipo.Weighted>
-10.8319

> <Gold.Chemscore.Internal_Hbond.Weighted>
0.0000

> <Gold.Chemscore.DEClash.Weighted>
0.1817

> <Gold.Chemscore.DEInternal.Weighted>
2.3048

> <Gold.Chemscore.Rot.Weighted>
3.4057

> <Gold.Chemscore.Internal.Correction.Weighted>
   9.000000E+99

> <Gold.Protein.RotatedTorsions>
[ 6907 6896 6895 6894 ] final  -52.65 input  -60.11 | X-H torsion
[ 7974 7965 7964 7962 ] final  137.91 input  175.53 | X-H torsion
[ 8008 7997 7996 7995 ] final  -39.24 input   59.86 | X-H torsion
[ 10167 10162 10161 10158 ] final -120.92 input  -65.29 | X-H torsion
[ 10718 10713 10712 10709 ] final  -33.33 input   66.30 | X-H torsion
[ 10763 10752 10751 10750 ] final   45.59 input  -60.55 | X-H torsion
[ 11005 11000 10999 10996 ] final  175.90 input  -57.11 | X-H torsion

> <Gold.Protein.ActiveResidues>
 VAL166  LYS551  ARG553  GLY616  TRP617  ASP618  TYR619  PRO620  LYS621  CYS622 
 ASP623  PHE694  ASN695  SER759  ASP760  ASP761  ALA762  ILE779  LEU786  VAL792 
 PHE793  MET794  SER795  GLU796  ALA797  LYS798  CYS799  TRP800  GLU811  SER814 

> <Gold.Protein.RotatedAtoms>
  150.8499  134.7820  159.6999 H   0  0  0  0  0  0  0  0  0  0  0  0  # atno 6907 bound_to 6896
  152.4566  134.5274  159.9810 H   0  0  0  0  0  0  0  0  0  0  0  0  # atno 6908 bound_to 6896
  151.5397  133.3397  159.2969 H   0  0  0  0  0  0  0  0  0  0  0  0  # atno 6909 bound_to 6896
  144.9423  139.4916  143.5566 H   0  0  0  0  0  0  0  0  0  0  0  0  # atno 7974 bound_to 7965
  154.4025  140.1556  156.2832 H   0  0  0  0  0  0  0  0  0  0  0  0  # atno 8008 bound_to 7997
  155.8851  140.3441  155.5894 H   0  0  0  0  0  0  0  0  0  0  0  0  # atno 8009 bound_to 7997
  155.7622  140.0819  157.2140 H   0  0  0  0  0  0  0  0  0  0  0  0  # atno 8010 bound_to 7997
  140.0306  143.5252  152.2178 H   0  0  0  0  0  0  0  0  0  0  0  0  # atno 10167 bound_to 10162
  156.3640  130.4328  149.7600 H   0  0  0  0  0  0  0  0  0  0  0  0  # atno 10718 bound_to 10713
  152.9822  135.6035  154.3462 H   0  0  0  0  0  0  0  0  0  0  0  0  # atno 10763 bound_to 10752
  154.3155  135.2770  155.2547 H   0  0  0  0  0  0  0  0  0  0  0  0  # atno 10764 bound_to 10752
  154.4737  135.5935  153.6396 H   0  0  0  0  0  0  0  0  0  0  0  0  # atno 10765 bound_to 10752
  140.3672  134.7061  157.4369 H   0  0  0  0  0  0  0  0  0  0  0  0  # atno 11005 bound_to 11000
  146.3290  139.8450  142.8883 LP  0  0  0  0  0  0  0  0  0  0  0  0  # atno 17320 bound_to 7965
  145.2972  141.0184  143.3629 LP  0  0  0  0  0  0  0  0  0  0  0  0  # atno 17321 bound_to 7965
  139.6079  144.7601  151.3020 LP  0  0  0  0  0  0  0  0  0  0  0  0  # atno 17342 bound_to 10162
  140.7304  143.6882  150.7944 LP  0  0  0  0  0  0  0  0  0  0  0  0  # atno 17343 bound_to 10162
  156.4753  130.8015  151.3032 LP  0  0  0  0  0  0  0  0  0  0  0  0  # atno 17370 bound_to 10713
  157.7477  131.0023  150.2995 LP  0  0  0  0  0  0  0  0  0  0  0  0  # atno 17371 bound_to 10713
  140.0580  134.6036  155.8782 LP  0  0  0  0  0  0  0  0  0  0  0  0  # atno 17394 bound_to 11000
  141.1966  133.6592  156.5699 LP  0  0  0  0  0  0  0  0  0  0  0  0  # atno 17395 bound_to 11000

$$$$
