AV-unprocessed.smi:1278|AV-procd|sdf|5350|dock7
  -GOLD-   22720 4483D 1   1.00000     0.00000
 Structure written by MMmdl.
 39 40  0  0  0  0  0  0  0  0  2 V2000
  144.3658  145.4087  153.3162 C   0  0  0  0  0  0  0  0  0  0  0  0
  145.1546  144.5890  154.3471 C   0  0  1  0  0  0  0  0  0  0  0  0
  144.2167  143.9039  155.3552 C   0  0  0  0  0  0  0  0  0  0  0  0
  145.0283  143.0714  156.3549 C   0  0  0  0  0  0  0  0  0  0  0  0
  145.9351  142.0676  155.6259 C   0  0  0  0  0  0  0  0  0  0  0  0
  146.8330  142.7573  154.6638 N   0  3  1  0  0  0  0  0  0  0  0  0
  147.8132  141.8272  154.0493 C   0  0  0  0  0  0  0  0  0  0  0  0
  148.7846  141.2260  155.0843 C   0  0  0  0  0  0  0  0  0  0  0  0
  149.3697  142.2579  155.9329 N   0  0  0  0  0  0  0  0  0  0  0  0
  150.0867  142.0201  157.0409 C   0  0  0  0  0  0  0  0  0  0  0  0
  150.3322  140.8866  157.4549 O   0  0  0  0  0  0  0  0  0  0  0  0
  150.4917  143.1649  157.6184 N   0  0  0  0  0  0  0  0  0  0  0  0
  151.2794  143.3248  158.7889 C   0  0  0  0  0  0  0  0  0  0  0  0
  151.4323  144.4823  159.4426 N   0  0  0  0  0  0  0  0  0  0  0  0
  152.2594  144.3480  160.5605 C   0  0  0  0  0  0  0  0  0  0  0  0
  152.7304  143.0720  160.7448 C   0  0  0  0  0  0  0  0  0  0  0  0
  152.1499  141.9814  159.5145 S   0  0  0  0  0  0  0  0  0  0  0  0
  146.0611  143.5446  153.6647 C   0  0  0  0  0  0  0  0  0  0  0  0
  143.7016  144.7741  152.7284 H   0  0  0  0  0  0  0  0  0  0  0  0
  145.0354  145.9204  152.6245 H   0  0  0  0  0  0  0  0  0  0  0  0
  143.7542  146.1682  153.8042 H   0  0  0  0  0  0  0  0  0  0  0  0
  145.7936  145.2817  154.8973 H   0  0  0  0  0  0  0  0  0  0  0  0
  143.6238  144.6483  155.8880 H   0  0  0  0  0  0  0  0  0  0  0  0
  143.5102  143.2594  154.8303 H   0  0  0  0  0  0  0  0  0  0  0  0
  145.6358  143.7319  156.9753 H   0  0  0  0  0  0  0  0  0  0  0  0
  144.3560  142.5433  157.0318 H   0  0  0  0  0  0  0  0  0  0  0  0
  146.5280  141.5250  156.3632 H   0  0  0  0  0  0  0  0  0  0  0  0
  145.3317  141.3281  155.0971 H   0  0  0  0  0  0  0  0  0  0  0  0
  147.2700  141.0096  153.5735 H   0  0  0  0  0  0  0  0  0  0  0  0
  148.3598  142.3356  153.2533 H   0  0  0  0  0  0  0  0  0  0  0  0
  148.2704  140.5240  155.7396 H   0  0  0  0  0  0  0  0  0  0  0  0
  149.5757  140.6637  154.5851 H   0  0  0  0  0  0  0  0  0  0  0  0
  149.2109  143.2179  155.6632 H   0  0  0  0  0  0  0  0  0  0  0  0
  150.2084  144.0223  157.1674 H   0  0  0  0  0  0  0  0  0  0  0  0
  152.4599  145.2154  161.1719 H   0  0  0  0  0  0  0  0  0  0  0  0
  153.3807  142.7095  161.5272 H   0  0  0  0  0  0  0  0  0  0  0  0
  145.4628  142.8668  153.0532 H   0  0  0  0  0  0  0  0  0  0  0  0
  146.7420  144.0593  152.9878 H   0  0  0  0  0  0  0  0  0  0  0  0
  147.3708  143.4166  155.2084 H   0  0  0  0  0  0  0  0  0  0  0  0
  1  2  1  0  0  0  0
  1 19  1  0  0  0  0
  1 20  1  0  0  0  0
  1 21  1  0  0  0  0
  2 18  1  0  0  0  0
  2  3  1  0  0  0  0
  2 22  1  0  0  0  0
  3  4  1  0  0  0  0
  3 23  1  0  0  0  0
  3 24  1  0  0  0  0
  4  5  1  0  0  0  0
  4 25  1  0  0  0  0
  4 26  1  0  0  0  0
  5  6  1  0  0  0  0
  5 27  1  0  0  0  0
  5 28  1  0  0  0  0
  6  7  1  0  0  0  0
  6 18  1  0  0  0  0
  6 39  1  0  0  0  0
  7  8  1  0  0  0  0
  7 29  1  0  0  0  0
  7 30  1  0  0  0  0
  8  9  1  0  0  0  0
  8 31  1  0  0  0  0
  8 32  1  0  0  0  0
  9 10  1  0  0  0  0
  9 33  1  0  0  0  0
 10 11  2  0  0  0  0
 10 12  1  0  0  0  0
 12 13  1  0  0  0  0
 12 34  1  0  0  0  0
 13 17  1  0  0  0  0
 13 14  2  0  0  0  0
 14 15  1  0  0  0  0
 15 16  2  0  0  0  0
 15 35  1  0  0  0  0
 16 17  1  0  0  0  0
 16 36  1  0  0  0  0
 18 37  1  0  0  0  0
 18 38  1  0  0  0  0
M  CHG  1   6   1
M  END
> <s_m_source_file>
AV-unprocessed.smi

> <i_m_source_file_index>
1278

> <i_lp_mmshare_version>
43012

> <i_f3d_flags>
0

> <s_epik_input>
W0NIM11bQ0BASF0xW0NIMl1bQ0gyXVtDSDJdTihbQ0gyXTEpW0NIMl1bQ0gyXVtOSF1DKD1PKVtOSF1jMm5bY0hdW2NIXXMy

> <s_epik_cmdline>
J2VwaWtfcHl0aG9uJywgJy1waCcsICc3LjAnLCAnLXRuJywgJzgnLCAnLW1hJywgJzIwMCcsICctbWV0YWxfYmluZGluZycsICctaW1hZScsICc8aW5maWxlLm1hZT4nLCAnLW9tYWUnLCAnPG91dGZpbGUubWFlPic=

> <r_lp_tautomer_probability>
0.999

> <r_epik_Ionization_Penalty>
0.00222194

> <r_epik_Ionization_Penalty_Charging>
0.00208169

> <r_epik_Ionization_Penalty_Neutral>
0.000140251

> <r_epik_State_Penalty>
0.00142585

> <r_epik_Charging_Adjusted_Penalty>
0.00350754

> <i_epik_Tot_Q>
1

> <i_epik_Tot_abs_Q>
1

> <r_epik_Metal_State_Penalty>
0.0570424

> <b_epik_Metal_Only>
0

> <s_lp_Force_Field>
OPLS_2005

> <r_lp_Energy>
13.7049

> <b_lp_Chiralities_Consistent>
1

> <s_lp_Variant>
AV-unprocessed.smi:1278-4

> <Gold.Version>
5.8.1

> <Gold.Id.Protein>
6NUR|6NUR_protein|mol2

> <Gold.PLP.Fitness>
46.2223

> <Gold.PLP.PLP>
-35.4752

> <Gold.PLP.part.hbond>
-3.0000

> <Gold.PLP.part.metal>
0.0000

> <Gold.PLP.part.buried>
-4.6458

> <Gold.PLP.part.nonpolar>
-27.3268

> <Gold.PLP.part.repulsive>
0.3923

> <Gold.PLP.ligand.clash>
0.0000

> <Gold.PLP.ligand.torsion>
0.1522

> <Gold.PLP.Chemscore.Hbond>
3.6752

> <Gold.PLP.Chemscore.CHOScore>
0.0000

> <Gold.PLP.Chemscore.Metal>
0.0000

> <Gold.Chemscore.Hbonds>
donor molecule, donor type, donor heavy atom, donor atom, acceptor molecule, acceptor atom, score
      L1  H     6    39       P1  8028  1.40
      L1  H     9    33       P1  8028  1.00
      L1  H    12    34       P1  8028  0.69

> <Gold.PLP.Chemscore.Internal.Correction>
0.0258

> <Gold.Rescore>
     Score         DG    S(hbond)    S(metal)    S(lipo)     H(rot)  DE(clash)    DE(int)     intcor
     15.79     -17.54       1.94        0.00      82.80       1.60       0.26       1.48       ----

> <Gold.Chemscore.Fitness>
15.7944

> <Gold.Chemscore.DG>
-17.5379

> <Gold.Chemscore.ZeroCoef>
-5.4800

> <Gold.Chemscore.Hbond>
1.9362

> <Gold.Chemscore.Metal>
0.0000

> <Gold.Chemscore.Lipo>
82.7978

> <Gold.Chemscore.Internal_Hbond>
0.0000

> <Gold.Chemscore.DEClash>
0.2589

> <Gold.Chemscore.DEInternal>
1.4846

> <Gold.Chemscore.Rot>
1.6001

> <Gold.Chemscore.Internal.Correction>
   9.000000E+99

> <Gold.Chemscore.Hbonds>
donor molecule, donor type, donor heavy atom, donor atom, acceptor molecule, acceptor atom, score
      L1  H     6    39       P1  8028  0.07
      L1  H     9    33       P1  8028  0.93
      L1  H    12    34       P1  8028  0.61

> <Gold.Chemscore.Hbond.Weighted>
-6.4668

> <Gold.Chemscore.Metal.Weighted>
-0.0000

> <Gold.Chemscore.Lipo.Weighted>
-9.6873

> <Gold.Chemscore.Internal_Hbond.Weighted>
0.0000

> <Gold.Chemscore.DEClash.Weighted>
0.2589

> <Gold.Chemscore.DEInternal.Weighted>
1.4846

> <Gold.Chemscore.Rot.Weighted>
4.0963

> <Gold.Chemscore.Internal.Correction.Weighted>
   9.000000E+99

> <Gold.Protein.RotatedTorsions>
[ 6907 6896 6895 6894 ] final  -80.79 input  -60.11 | X-H torsion
[ 7974 7965 7964 7962 ] final -101.91 input  175.53 | X-H torsion
[ 8008 7997 7996 7995 ] final   23.98 input   59.86 | X-H torsion
[ 10167 10162 10161 10158 ] final -123.29 input  -65.29 | X-H torsion
[ 10718 10713 10712 10709 ] final  -41.13 input   66.30 | X-H torsion
[ 10763 10752 10751 10750 ] final  -36.59 input  -60.55 | X-H torsion
[ 11005 11000 10999 10996 ] final   49.38 input  -57.11 | X-H torsion

> <Gold.Protein.ActiveResidues>
 VAL166  LYS551  ARG553  GLY616  TRP617  ASP618  TYR619  PRO620  LYS621  CYS622 
 ASP623  PHE694  ASN695  SER759  ASP760  ASP761  ALA762  ILE779  LEU786  VAL792 
 PHE793  MET794  SER795  GLU796  ALA797  LYS798  CYS799  TRP800  GLU811  SER814 

> <Gold.Protein.RotatedAtoms>
  150.6923  134.3916  159.5078 H   0  0  0  0  0  0  0  0  0  0  0  0  # atno 6907 bound_to 6896
  152.1703  134.8837  160.0544 H   0  0  0  0  0  0  0  0  0  0  0  0  # atno 6908 bound_to 6896
  151.9865  133.3741  159.4164 H   0  0  0  0  0  0  0  0  0  0  0  0  # atno 6909 bound_to 6896
  145.2755  140.9311  143.2962 H   0  0  0  0  0  0  0  0  0  0  0  0  # atno 7974 bound_to 7965
  154.9893  140.3112  155.4913 H   0  0  0  0  0  0  0  0  0  0  0  0  # atno 8008 bound_to 7997
  156.2942  140.2252  156.4937 H   0  0  0  0  0  0  0  0  0  0  0  0  # atno 8009 bound_to 7997
  154.7718  140.0452  157.1045 H   0  0  0  0  0  0  0  0  0  0  0  0  # atno 8010 bound_to 7997
  140.0051  143.5500  152.2287 H   0  0  0  0  0  0  0  0  0  0  0  0  # atno 10167 bound_to 10162
  156.2737  130.4209  149.8410 H   0  0  0  0  0  0  0  0  0  0  0  0  # atno 10718 bound_to 10713
  153.8823  135.6820  153.4766 H   0  0  0  0  0  0  0  0  0  0  0  0  # atno 10763 bound_to 10752
  153.1227  135.4733  154.9219 H   0  0  0  0  0  0  0  0  0  0  0  0  # atno 10764 bound_to 10752
  154.7663  135.3225  154.8232 H   0  0  0  0  0  0  0  0  0  0  0  0  # atno 10765 bound_to 10752
  140.1109  134.4956  155.8679 H   0  0  0  0  0  0  0  0  0  0  0  0  # atno 11005 bound_to 11000
  144.9298  139.4312  143.6500 LP  0  0  0  0  0  0  0  0  0  0  0  0  # atno 17320 bound_to 7965
  146.3233  139.8203  142.8928 LP  0  0  0  0  0  0  0  0  0  0  0  0  # atno 17321 bound_to 7965
  139.6244  144.7635  151.2670 LP  0  0  0  0  0  0  0  0  0  0  0  0  # atno 17342 bound_to 10162
  140.7404  143.6590  150.8181 LP  0  0  0  0  0  0  0  0  0  0  0  0  # atno 17343 bound_to 10162
  156.5882  130.8495  151.3401 LP  0  0  0  0  0  0  0  0  0  0  0  0  # atno 17370 bound_to 10713
  157.7292  130.9668  150.1778 LP  0  0  0  0  0  0  0  0  0  0  0  0  # atno 17371 bound_to 10713
  141.2130  133.6727  156.6702 LP  0  0  0  0  0  0  0  0  0  0  0  0  # atno 17394 bound_to 11000
  140.3093  134.8099  157.4163 LP  0  0  0  0  0  0  0  0  0  0  0  0  # atno 17395 bound_to 11000

$$$$
