AV-unprocessed.smi:2435|AV-procd|sdf|9592|dock1
  -GOLD-   2272013223D 1   1.00000     0.00000
 Structure written by MMmdl.
 44 45  0  0  0  0  0  0  0  0  1 V2000
  146.1498  132.7176  151.1345 C   0  0  0  0  0  0  0  0  0  0  0  0
  146.2237  133.0509  152.5102 O   0  0  0  0  0  0  0  0  0  0  0  0
  147.2216  132.4189  153.1640 C   0  0  0  0  0  0  0  0  0  0  0  0
  148.3644  132.8799  153.7570 C   0  0  0  0  0  0  0  0  0  0  0  0
  148.8659  134.2020  153.8683 N   0  0  0  0  0  0  0  0  0  0  0  0
  149.5661  134.7241  154.8877 C   0  0  0  0  0  0  0  0  0  0  0  0
  149.8865  134.1172  155.9093 O   0  0  0  0  0  0  0  0  0  0  0  0
  149.8970  136.0009  154.6464 N   0  0  0  0  0  0  0  0  0  0  0  0
  150.6621  136.8643  155.5434 C   0  0  0  0  0  0  0  0  0  0  0  0
  149.9009  136.9633  156.8789 C   0  0  0  0  0  0  0  0  0  0  0  0
  150.5550  137.8612  157.9435 C   0  0  0  0  0  0  0  0  0  0  0  0
  150.3943  139.3591  157.6383 C   0  0  0  0  0  0  0  0  0  0  0  0
  151.4711  139.9648  156.7215 C   0  0  0  0  0  0  0  0  0  0  0  0
  151.9887  139.0692  155.5822 C   0  0  0  0  0  0  0  0  0  0  0  0
  150.9233  138.2264  154.8616 C   0  0  0  0  0  0  0  0  0  0  0  0
  149.0349  131.7140  154.2197 C   0  0  0  0  0  0  0  0  0  0  0  0
  150.3586  131.5950  154.9190 C   0  0  0  0  0  0  0  0  0  0  0  0
  148.3241  130.6200  153.9691 N   0  0  0  0  0  0  0  0  0  0  0  0
  147.2081  131.0503  153.3310 N   0  0  0  0  0  0  0  0  0  0  0  0
  146.2111  130.0921  152.9001 C   0  0  0  0  0  0  0  0  0  0  0  0
  145.3149  133.2461  150.6749 H   0  0  0  0  0  0  0  0  0  0  0  0
  145.9869  131.6473  150.9994 H   0  0  0  0  0  0  0  0  0  0  0  0
  147.0592  133.0009  150.6032 H   0  0  0  0  0  0  0  0  0  0  0  0
  148.7560  134.7834  153.0505 H   0  0  0  0  0  0  0  0  0  0  0  0
  149.5951  136.4110  153.7748 H   0  0  0  0  0  0  0  0  0  0  0  0
  151.6218  136.3841  155.7448 H   0  0  0  0  0  0  0  0  0  0  0  0
  148.8779  137.2986  156.7010 H   0  0  0  0  0  0  0  0  0  0  0  0
  149.8107  135.9585  157.2942 H   0  0  0  0  0  0  0  0  0  0  0  0
  150.0588  137.6587  158.8935 H   0  0  0  0  0  0  0  0  0  0  0  0
  151.6028  137.5987  158.0942 H   0  0  0  0  0  0  0  0  0  0  0  0
  149.4076  139.5369  157.2091 H   0  0  0  0  0  0  0  0  0  0  0  0
  150.4016  139.9156  158.5764 H   0  0  0  0  0  0  0  0  0  0  0  0
  151.0760  140.8892  156.2992 H   0  0  0  0  0  0  0  0  0  0  0  0
  152.3265  140.2644  157.3281 H   0  0  0  0  0  0  0  0  0  0  0  0
  152.4810  139.7129  154.8524 H   0  0  0  0  0  0  0  0  0  0  0  0
  152.7756  138.4144  155.9585 H   0  0  0  0  0  0  0  0  0  0  0  0
  151.2902  138.0399  153.8514 H   0  0  0  0  0  0  0  0  0  0  0  0
  149.9975  138.7905  154.7402 H   0  0  0  0  0  0  0  0  0  0  0  0
  150.6707  132.5490  155.3442 H   0  0  0  0  0  0  0  0  0  0  0  0
  151.1362  131.2692  154.2278 H   0  0  0  0  0  0  0  0  0  0  0  0
  150.3120  130.8722  155.7339 H   0  0  0  0  0  0  0  0  0  0  0  0
  145.2167  130.5323  152.9781 H   0  0  0  0  0  0  0  0  0  0  0  0
  146.2486  129.1978  153.5238 H   0  0  0  0  0  0  0  0  0  0  0  0
  146.3973  129.8137  151.8627 H   0  0  0  0  0  0  0  0  0  0  0  0
  1  2  1  0  0  0  0
  1 21  1  0  0  0  0
  1 22  1  0  0  0  0
  1 23  1  0  0  0  0
  2  3  1  0  0  0  0
  3 19  1  0  0  0  0
  3  4  2  0  0  0  0
  4  5  1  0  0  0  0
  4 16  1  0  0  0  0
  5  6  1  0  0  0  0
  5 24  1  0  0  0  0
  6  7  2  0  0  0  0
  6  8  1  0  0  0  0
  8  9  1  0  0  0  0
  8 25  1  0  0  0  0
  9 15  1  0  0  0  0
  9 10  1  0  0  0  0
  9 26  1  0  0  0  0
 10 11  1  0  0  0  0
 10 27  1  0  0  0  0
 10 28  1  0  0  0  0
 11 12  1  0  0  0  0
 11 29  1  0  0  0  0
 11 30  1  0  0  0  0
 12 13  1  0  0  0  0
 12 31  1  0  0  0  0
 12 32  1  0  0  0  0
 13 14  1  0  0  0  0
 13 33  1  0  0  0  0
 13 34  1  0  0  0  0
 14 15  1  0  0  0  0
 14 35  1  0  0  0  0
 14 36  1  0  0  0  0
 15 37  1  0  0  0  0
 15 38  1  0  0  0  0
 16 17  1  0  0  0  0
 16 18  2  0  0  0  0
 17 39  1  0  0  0  0
 17 40  1  0  0  0  0
 17 41  1  0  0  0  0
 18 19  1  0  0  0  0
 19 20  1  0  0  0  0
 20 42  1  0  0  0  0
 20 43  1  0  0  0  0
 20 44  1  0  0  0  0
M  END
> <s_m_source_file>
AV-unprocessed.smi

> <i_m_source_file_index>
2435

> <i_lp_mmshare_version>
43012

> <i_f3d_flags>
0

> <s_epik_input>
W0NIM11uMW5jKFtDSDNdKWMoYzFPW0NIM10pW05IXUMoPU8pW05IXVtDSF0yW0NIMl1bQ0gyXVtDSDJdW0NIMl1bQ0gyXVtDSDJdMg==

> <s_epik_cmdline>
J2VwaWtfcHl0aG9uJywgJy1waCcsICc3LjAnLCAnLXRuJywgJzgnLCAnLW1hJywgJzIwMCcsICctbWV0YWxfYmluZGluZycsICctaW1hZScsICc8aW5maWxlLm1hZT4nLCAnLW9tYWUnLCAnPG91dGZpbGUubWFlPic=

> <r_lp_tautomer_probability>
1

> <r_epik_Ionization_Penalty>
0.000417553

> <r_epik_Ionization_Penalty_Charging>
0

> <r_epik_Ionization_Penalty_Neutral>
0.000417553

> <r_epik_State_Penalty>
-0

> <r_epik_Charging_Adjusted_Penalty>
0

> <i_epik_Tot_Q>
0

> <i_epik_Tot_abs_Q>
0

> <r_epik_Metal_State_Penalty>
-0

> <b_epik_Metal_Only>
0

> <s_lp_Force_Field>
OPLS_2005

> <r_lp_Energy>
21.6667

> <b_lp_Chiralities_Consistent>
1

> <s_lp_Variant>
AV-unprocessed.smi:2435-1

> <Gold.Version>
5.8.1

> <Gold.Id.Protein>
6NUR|6NUR_protein|mol2

> <Gold.PLP.Fitness>
36.0670

> <Gold.PLP.PLP>
-31.2221

> <Gold.PLP.part.hbond>
-2.2289

> <Gold.PLP.part.metal>
0.0000

> <Gold.PLP.part.buried>
-4.9587

> <Gold.PLP.part.nonpolar>
-25.1537

> <Gold.PLP.part.repulsive>
0.2637

> <Gold.PLP.ligand.clash>
0.0000

> <Gold.PLP.ligand.torsion>
0.2949

> <Gold.PLP.Chemscore.Hbond>
1.8000

> <Gold.PLP.Chemscore.CHOScore>
0.0000

> <Gold.PLP.Chemscore.Metal>
0.0000

> <Gold.Chemscore.Hbonds>
donor molecule, donor type, donor heavy atom, donor atom, acceptor molecule, acceptor atom, score
      L1  H     5    24       P1  7948  0.95
      L1  H     8    25       P1  7948  1.00

> <Gold.PLP.Chemscore.Internal.Correction>
0.0348

> <Gold.Rescore>
     Score         DG    S(hbond)    S(metal)    S(lipo)     H(rot)  DE(clash)    DE(int)     intcor
     11.38     -14.62       1.59        0.00      59.33       1.21       0.34       2.90       ----

> <Gold.Chemscore.Fitness>
11.3791

> <Gold.Chemscore.DG>
-14.6163

> <Gold.Chemscore.ZeroCoef>
-5.4800

> <Gold.Chemscore.Hbond>
1.5858

> <Gold.Chemscore.Metal>
0.0000

> <Gold.Chemscore.Lipo>
59.3344

> <Gold.Chemscore.Internal_Hbond>
0.0000

> <Gold.Chemscore.DEClash>
0.3367

> <Gold.Chemscore.DEInternal>
2.9004

> <Gold.Chemscore.Rot>
1.2119

> <Gold.Chemscore.Internal.Correction>
   9.000000E+99

> <Gold.Chemscore.Hbonds>
donor molecule, donor type, donor heavy atom, donor atom, acceptor molecule, acceptor atom, score
      L1  H     5    24       P1  7948  0.21
      L1  H     8    25       P1  7948  0.60

> <Gold.Chemscore.Hbond.Weighted>
-5.2965

> <Gold.Chemscore.Metal.Weighted>
-0.0000

> <Gold.Chemscore.Lipo.Weighted>
-6.9421

> <Gold.Chemscore.Internal_Hbond.Weighted>
0.0000

> <Gold.Chemscore.DEClash.Weighted>
0.3367

> <Gold.Chemscore.DEInternal.Weighted>
2.9004

> <Gold.Chemscore.Rot.Weighted>
3.1024

> <Gold.Chemscore.Internal.Correction.Weighted>
   9.000000E+99

> <Gold.Protein.RotatedTorsions>
[ 6907 6896 6895 6894 ] final -137.75 input  -60.11 | X-H torsion
[ 7974 7965 7964 7962 ] final    6.54 input  175.53 | X-H torsion
[ 8008 7997 7996 7995 ] final   -9.78 input   59.86 | X-H torsion
[ 10167 10162 10161 10158 ] final  160.09 input  -65.29 | X-H torsion
[ 10718 10713 10712 10709 ] final   14.94 input   66.30 | X-H torsion
[ 10763 10752 10751 10750 ] final  135.32 input  -60.55 | X-H torsion
[ 11005 11000 10999 10996 ] final   31.76 input  -57.11 | X-H torsion

> <Gold.Protein.ActiveResidues>
 VAL166  LYS551  ARG553  GLY616  TRP617  ASP618  TYR619  PRO620  LYS621  CYS622 
 ASP623  PHE694  ASN695  SER759  ASP760  ASP761  ALA762  ILE779  LEU786  VAL792 
 PHE793  MET794  SER795  GLU796  ALA797  LYS798  CYS799  TRP800  GLU811  SER814 

> <Gold.Protein.RotatedAtoms>
  151.0264  133.5829  159.2665 H   0  0  0  0  0  0  0  0  0  0  0  0  # atno 6907 bound_to 6896
  151.2927  135.0745  159.9220 H   0  0  0  0  0  0  0  0  0  0  0  0  # atno 6908 bound_to 6896
  152.5335  133.9960  159.7927 H   0  0  0  0  0  0  0  0  0  0  0  0  # atno 6909 bound_to 6896
  146.2434  140.0218  142.8397 H   0  0  0  0  0  0  0  0  0  0  0  0  # atno 7974 bound_to 7965
  154.5615  140.2346  155.8329 H   0  0  0  0  0  0  0  0  0  0  0  0  # atno 8008 bound_to 7997
  156.2033  140.3046  155.9532 H   0  0  0  0  0  0  0  0  0  0  0  0  # atno 8009 bound_to 7997
  155.2881  140.0425  157.3011 H   0  0  0  0  0  0  0  0  0  0  0  0  # atno 8010 bound_to 7997
  139.4837  144.4668  151.8631 H   0  0  0  0  0  0  0  0  0  0  0  0  # atno 10167 bound_to 10162
  157.0463  130.6252  149.5760 H   0  0  0  0  0  0  0  0  0  0  0  0  # atno 10718 bound_to 10713
  153.8382  135.3095  155.3424 H   0  0  0  0  0  0  0  0  0  0  0  0  # atno 10763 bound_to 10752
  154.7944  135.4764  154.0130 H   0  0  0  0  0  0  0  0  0  0  0  0  # atno 10764 bound_to 10752
  153.1592  135.6858  153.8859 H   0  0  0  0  0  0  0  0  0  0  0  0  # atno 10765 bound_to 10752
  140.2805  134.2978  155.7802 H   0  0  0  0  0  0  0  0  0  0  0  0  # atno 11005 bound_to 11000
  145.1234  140.9476  143.4587 LP  0  0  0  0  0  0  0  0  0  0  0  0  # atno 17320 bound_to 7965
  145.0458  139.3222  143.5953 LP  0  0  0  0  0  0  0  0  0  0  0  0  # atno 17321 bound_to 7965
  140.4134  144.2339  150.5888 LP  0  0  0  0  0  0  0  0  0  0  0  0  # atno 17342 bound_to 10162
  140.4944  143.2337  151.8770 LP  0  0  0  0  0  0  0  0  0  0  0  0  # atno 17343 bound_to 10162
  156.0022  130.5103  150.7702 LP  0  0  0  0  0  0  0  0  0  0  0  0  # atno 17370 bound_to 10713
  157.5065  131.0922  151.0251 LP  0  0  0  0  0  0  0  0  0  0  0  0  # atno 17371 bound_to 10713
  141.2163  133.7522  156.9474 LP  0  0  0  0  0  0  0  0  0  0  0  0  # atno 17394 bound_to 11000
  140.1288  134.9370  157.2307 LP  0  0  0  0  0  0  0  0  0  0  0  0  # atno 17395 bound_to 11000

$$$$
