AV-unprocessed.smi:1033|AV-procd|sdf|4502|dock4
  -GOLD-   22720 2503D 1   1.00000     0.00000
 Structure written by MMmdl.
 57 59  0  0  0  0  0  0  0  0  3 V2000
  152.1165  145.2063  160.3010 C   0  0  0  0  0  0  0  0  0  0  0  0
  151.8786  143.9160  159.5350 C   0  0  0  0  0  0  0  0  0  0  0  0
  151.0388  143.9512  158.3986 C   0  0  0  0  0  0  0  0  0  0  0  0
  150.8389  142.7546  157.7204 C   0  0  0  0  0  0  0  0  0  0  0  0
  150.0798  142.4595  156.5854 N   0  3  0  0  0  0  0  0  0  0  0  0
  150.1944  141.1339  156.2937 C   0  0  0  0  0  0  0  0  0  0  0  0
  151.0199  140.5805  157.2233 N   0  0  0  0  0  0  0  0  0  0  0  0
  151.4785  139.1944  157.3783 C   0  0  0  0  0  0  0  0  0  0  0  0
  150.3893  138.2653  157.9519 C   0  0  2  0  0  0  0  0  0  0  0  0
  150.7258  137.9269  159.2816 O   0  0  0  0  0  0  0  0  0  0  0  0
  150.2454  136.9571  157.1507 C   0  0  0  0  0  0  0  0  0  0  0  0
  150.1114  137.1214  155.6981 N   0  0  0  0  0  0  0  0  0  0  0  0
  150.3457  135.8778  154.9650 C   0  0  0  0  0  0  0  0  0  0  0  0
  149.2048  134.8518  155.1242 C   0  0  0  0  0  0  0  0  0  0  0  0
  147.9112  135.4431  154.6950 N   0  3  0  0  0  0  0  0  0  0  0  0
  146.7928  134.4677  154.7617 C   0  0  0  0  0  0  0  0  0  0  0  0
  146.5506  133.7468  153.4207 C   0  0  2  0  0  0  0  0  0  0  0  0
  147.8059  133.0183  152.9231 C   0  0  0  0  0  0  0  0  0  0  0  0
  146.1760  134.6956  152.4423 O   0  0  0  0  0  0  0  0  0  0  0  0
  147.6455  136.7102  155.4279 C   0  0  0  0  0  0  0  0  0  0  0  0
  148.8306  137.6830  155.2601 C   0  0  0  0  0  0  0  0  0  0  0  0
  151.4420  141.5520  158.1359 C   0  0  0  0  0  0  0  0  0  0  0  0
  152.2713  141.4986  159.2532 C   0  0  0  0  0  0  0  0  0  0  0  0
  152.4871  142.7051  159.9568 C   0  0  0  0  0  0  0  0  0  0  0  0
  153.3873  142.6786  161.1800 C   0  0  0  0  0  0  0  0  0  0  0  0
  151.5930  146.0455  159.8417 H   0  0  0  0  0  0  0  0  0  0  0  0
  153.1789  145.4497  160.3226 H   0  0  0  0  0  0  0  0  0  0  0  0
  151.7605  145.1132  161.3273 H   0  0  0  0  0  0  0  0  0  0  0  0
  150.5719  144.8691  158.0723 H   0  0  0  0  0  0  0  0  0  0  0  0
  149.7190  140.6164  155.4726 H   0  0  0  0  0  0  0  0  0  0  0  0
  151.8266  138.8414  156.4067 H   0  0  0  0  0  0  0  0  0  0  0  0
  152.3515  139.2074  158.0325 H   0  0  0  0  0  0  0  0  0  0  0  0
  149.4349  138.7883  157.9957 H   0  0  0  0  0  0  0  0  0  0  0  0
  150.1118  138.3492  159.8627 H   0  0  0  0  0  0  0  0  0  0  0  0
  151.1243  136.3442  157.3559 H   0  0  0  0  0  0  0  0  0  0  0  0
  149.3996  136.3923  157.5422 H   0  0  0  0  0  0  0  0  0  0  0  0
  150.4677  136.1077  153.9056 H   0  0  0  0  0  0  0  0  0  0  0  0
  151.2899  135.4332  155.2810 H   0  0  0  0  0  0  0  0  0  0  0  0
  149.4250  133.9756  154.5134 H   0  0  0  0  0  0  0  0  0  0  0  0
  149.1323  134.5047  156.1558 H   0  0  0  0  0  0  0  0  0  0  0  0
  147.0062  133.7169  155.5248 H   0  0  0  0  0  0  0  0  0  0  0  0
  145.8880  134.9827  155.0884 H   0  0  0  0  0  0  0  0  0  0  0  0
  145.7475  133.0170  153.5148 H   0  0  0  0  0  0  0  0  0  0  0  0
  148.1246  132.2575  153.6365 H   0  0  0  0  0  0  0  0  0  0  0  0
  148.6385  133.7081  152.7801 H   0  0  0  0  0  0  0  0  0  0  0  0
  147.6202  132.5185  151.9717 H   0  0  0  0  0  0  0  0  0  0  0  0
  146.9584  135.0643  152.0603 H   0  0  0  0  0  0  0  0  0  0  0  0
  146.7458  137.1874  155.0418 H   0  0  0  0  0  0  0  0  0  0  0  0
  147.4587  136.5022  156.4821 H   0  0  0  0  0  0  0  0  0  0  0  0
  148.6217  138.6170  155.7792 H   0  0  0  0  0  0  0  0  0  0  0  0
  148.9093  137.9539  154.2063 H   0  0  0  0  0  0  0  0  0  0  0  0
  152.7325  140.5763  159.5736 H   0  0  0  0  0  0  0  0  0  0  0  0
  153.7845  141.6795  161.3619 H   0  0  0  0  0  0  0  0  0  0  0  0
  152.8339  142.9845  162.0683 H   0  0  0  0  0  0  0  0  0  0  0  0
  154.2330  143.3538  161.0485 H   0  0  0  0  0  0  0  0  0  0  0  0
  148.0226  135.6837  153.7201 H   0  0  0  0  0  0  0  0  0  0  0  0
  149.5223  143.1120  156.0490 H   0  0  0  0  0  0  0  0  0  0  0  0
  1  2  1  0  0  0  0
  1 26  1  0  0  0  0
  1 27  1  0  0  0  0
  1 28  1  0  0  0  0
  2 24  1  0  0  0  0
  2  3  2  0  0  0  0
  3  4  1  0  0  0  0
  3 29  1  0  0  0  0
  4 22  2  0  0  0  0
  4  5  1  0  0  0  0
  5  6  2  0  0  0  0
  5 57  1  0  0  0  0
  6  7  1  0  0  0  0
  6 30  1  0  0  0  0
  7  8  1  0  0  0  0
  7 22  1  0  0  0  0
  8  9  1  0  0  0  0
  8 31  1  0  0  0  0
  8 32  1  0  0  0  0
  9 10  1  0  0  0  0
  9 11  1  0  0  0  0
  9 33  1  0  0  0  0
 10 34  1  0  0  0  0
 11 12  1  0  0  0  0
 11 35  1  0  0  0  0
 11 36  1  0  0  0  0
 12 21  1  0  0  0  0
 12 13  1  0  0  0  0
 13 14  1  0  0  0  0
 13 37  1  0  0  0  0
 13 38  1  0  0  0  0
 14 15  1  0  0  0  0
 14 39  1  0  0  0  0
 14 40  1  0  0  0  0
 15 16  1  0  0  0  0
 15 20  1  0  0  0  0
 15 56  1  0  0  0  0
 16 17  1  0  0  0  0
 16 41  1  0  0  0  0
 16 42  1  0  0  0  0
 17 18  1  0  0  0  0
 17 19  1  0  0  0  0
 17 43  1  0  0  0  0
 18 44  1  0  0  0  0
 18 45  1  0  0  0  0
 18 46  1  0  0  0  0
 19 47  1  0  0  0  0
 20 21  1  0  0  0  0
 20 48  1  0  0  0  0
 20 49  1  0  0  0  0
 21 50  1  0  0  0  0
 21 51  1  0  0  0  0
 22 23  1  0  0  0  0
 23 24  2  0  0  0  0
 23 52  1  0  0  0  0
 24 25  1  0  0  0  0
 25 53  1  0  0  0  0
 25 54  1  0  0  0  0
 25 55  1  0  0  0  0
M  CHG  1   5   1
M  CHG  1  15   1
M  END
> <s_m_source_file>
AV-unprocessed.smi

> <i_m_source_file_index>
1033

> <i_lp_mmshare_version>
43012

> <i_f3d_flags>
0

> <s_epik_input>
W0NIM11jKFtjSF0xKWMoW0NIM10pW2NIXWMoYzEyKW4oW2NIXW4yKVtDSDJdW0NASF0oW09IXSlbQ0gyXU4zW0NIMl1bQ0gyXU4oW0NIMl1bQ0gyXTMpW0NIMl1bQ0BIXShbQ0gzXSlbT0hd

> <s_epik_cmdline>
J2VwaWtfcHl0aG9uJywgJy1waCcsICc3LjAnLCAnLXRuJywgJzgnLCAnLW1hJywgJzIwMCcsICctbWV0YWxfYmluZGluZycsICctaW1hZScsICc8aW5maWxlLm1hZT4nLCAnLW9tYWUnLCAnPG91dGZpbGUubWFlPic=

> <r_epik_Ionization_Penalty>
1.28617

> <r_epik_Ionization_Penalty_Charging>
1.23646

> <r_epik_Ionization_Penalty_Neutral>
0.0497112

> <r_epik_State_Penalty>
1.79157

> <r_epik_Charging_Adjusted_Penalty>
3.02803

> <i_epik_Tot_Q>
2

> <i_epik_Tot_abs_Q>
2

> <r_epik_Metal_State_Penalty>
5.81739

> <b_epik_Metal_Only>
0

> <s_lp_Force_Field>
OPLS_2005

> <r_lp_Energy>
39.1755

> <b_lp_Chiralities_Consistent>
1

> <s_lp_Variant>
AV-unprocessed.smi:1033-13

> <Gold.Version>
5.8.1

> <Gold.Id.Protein>
6NUR|6NUR_protein|mol2

> <Gold.PLP.Fitness>
57.9145

> <Gold.PLP.PLP>
-46.0649

> <Gold.PLP.part.hbond>
-3.6113

> <Gold.PLP.part.metal>
0.0000

> <Gold.PLP.part.buried>
-6.9391

> <Gold.PLP.part.nonpolar>
-36.7211

> <Gold.PLP.part.repulsive>
0.1538

> <Gold.PLP.ligand.clash>
0.0000

> <Gold.PLP.ligand.torsion>
1.5265

> <Gold.PLP.Chemscore.Hbond>
4.9200

> <Gold.PLP.Chemscore.CHOScore>
0.0000

> <Gold.PLP.Chemscore.Metal>
0.0000

> <Gold.Chemscore.Hbonds>
donor molecule, donor type, donor heavy atom, donor atom, acceptor molecule, acceptor atom, score
      L1  H     5    57       P1  8028  2.00
      L1  H    15    56       P1  7948  1.46
      L1  H    19    47       P1  7948  0.36

> <Gold.PLP.Chemscore.Internal.Correction>
0.1427

> <Gold.Rescore>
     Score         DG    S(hbond)    S(metal)    S(lipo)     H(rot)  DE(clash)    DE(int)     intcor
     18.99     -20.63       2.89        0.00     115.75       3.15       0.05       1.58       ----

> <Gold.Chemscore.Fitness>
18.9913

> <Gold.Chemscore.DG>
-20.6270

> <Gold.Chemscore.ZeroCoef>
-5.4800

> <Gold.Chemscore.Hbond>
2.8933

> <Gold.Chemscore.Metal>
0.0000

> <Gold.Chemscore.Lipo>
115.7515

> <Gold.Chemscore.Internal_Hbond>
0.0000

> <Gold.Chemscore.DEClash>
0.0529

> <Gold.Chemscore.DEInternal>
1.5828

> <Gold.Chemscore.Rot>
3.1483

> <Gold.Chemscore.Internal.Correction>
   9.000000E+99

> <Gold.Chemscore.Hbonds>
donor molecule, donor type, donor heavy atom, donor atom, acceptor molecule, acceptor atom, score
      L1  H     5    57       P1  8028  0.98
      L1  H    15    56       P1  7948  0.72
      L1  H    19    47       P1  7948  0.37

> <Gold.Chemscore.Hbond.Weighted>
-9.6637

> <Gold.Chemscore.Metal.Weighted>
-0.0000

> <Gold.Chemscore.Lipo.Weighted>
-13.5429

> <Gold.Chemscore.Internal_Hbond.Weighted>
0.0000

> <Gold.Chemscore.DEClash.Weighted>
0.0529

> <Gold.Chemscore.DEInternal.Weighted>
1.5828

> <Gold.Chemscore.Rot.Weighted>
8.0597

> <Gold.Chemscore.Internal.Correction.Weighted>
   9.000000E+99

> <Gold.Protein.RotatedTorsions>
[ 6907 6896 6895 6894 ] final -179.41 input  -60.11 | X-H torsion
[ 7974 7965 7964 7962 ] final  -61.52 input  175.53 | X-H torsion
[ 8008 7997 7996 7995 ] final    3.11 input   59.86 | X-H torsion
[ 10167 10162 10161 10158 ] final  -30.56 input  -65.29 | X-H torsion
[ 10718 10713 10712 10709 ] final -100.73 input   66.30 | X-H torsion
[ 10763 10752 10751 10750 ] final -128.53 input  -60.55 | X-H torsion
[ 11005 11000 10999 10996 ] final  -79.91 input  -57.11 | X-H torsion

> <Gold.Protein.ActiveResidues>
 VAL166  LYS551  ARG553  GLY616  TRP617  ASP618  TYR619  PRO620  LYS621  CYS622 
 ASP623  PHE694  ASN695  SER759  ASP760  ASP761  ALA762  ILE779  LEU786  VAL792 
 PHE793  MET794  SER795  GLU796  ALA797  LYS798  CYS799  TRP800  GLU811  SER814 

> <Gold.Protein.RotatedAtoms>
  151.6530  133.3320  159.3155 H   0  0  0  0  0  0  0  0  0  0  0  0  # atno 6907 bound_to 6896
  150.7951  134.7008  159.6558 H   0  0  0  0  0  0  0  0  0  0  0  0  # atno 6908 bound_to 6896
  152.4037  134.6248  160.0111 H   0  0  0  0  0  0  0  0  0  0  0  0  # atno 6909 bound_to 6896
  145.8025  140.8647  143.0224 H   0  0  0  0  0  0  0  0  0  0  0  0  # atno 7974 bound_to 7965
  154.6997  140.2670  155.6731 H   0  0  0  0  0  0  0  0  0  0  0  0  # atno 8008 bound_to 7997
  156.2761  140.2774  156.1527 H   0  0  0  0  0  0  0  0  0  0  0  0  # atno 8009 bound_to 7997
  155.0781  140.0372  157.2620 H   0  0  0  0  0  0  0  0  0  0  0  0  # atno 8010 bound_to 7997
  140.7248  143.3839  151.1551 H   0  0  0  0  0  0  0  0  0  0  0  0  # atno 10167 bound_to 10162
  156.0172  130.5341  150.6860 H   0  0  0  0  0  0  0  0  0  0  0  0  # atno 10718 bound_to 10713
  154.8756  135.3925  154.3772 H   0  0  0  0  0  0  0  0  0  0  0  0  # atno 10763 bound_to 10752
  153.4524  135.7028  153.6105 H   0  0  0  0  0  0  0  0  0  0  0  0  # atno 10764 bound_to 10752
  153.4639  135.3805  155.2322 H   0  0  0  0  0  0  0  0  0  0  0  0  # atno 10765 bound_to 10752
  141.1668  133.7127  156.8194 H   0  0  0  0  0  0  0  0  0  0  0  0  # atno 11005 bound_to 11000
  144.6767  140.0279  143.7483 LP  0  0  0  0  0  0  0  0  0  0  0  0  # atno 17320 bound_to 7965
  145.9863  139.2980  143.1012 LP  0  0  0  0  0  0  0  0  0  0  0  0  # atno 17321 bound_to 7965
  139.7433  143.8891  152.3056 LP  0  0  0  0  0  0  0  0  0  0  0  0  # atno 17342 bound_to 10162
  139.8720  144.7063  150.8977 LP  0  0  0  0  0  0  0  0  0  0  0  0  # atno 17343 bound_to 10162
  157.4552  131.0877  151.0804 LP  0  0  0  0  0  0  0  0  0  0  0  0  # atno 17370 bound_to 10713
  157.1308  130.6101  149.5529 LP  0  0  0  0  0  0  0  0  0  0  0  0  # atno 17371 bound_to 10713
  140.2130  134.8813  157.3295 LP  0  0  0  0  0  0  0  0  0  0  0  0  # atno 17394 bound_to 11000
  140.2066  134.4189  155.7634 LP  0  0  0  0  0  0  0  0  0  0  0  0  # atno 17395 bound_to 11000

$$$$
