AV-unprocessed.smi:2062|AV-procd|sdf|8399|dock3
  -GOLD-   2272011 83D 1   1.00000     0.00000
 Structure written by MMmdl.
 43 44  0  0  0  0  0  0  0  0  2 V2000
  150.8948  141.5076  156.5844 C   0  0  0  0  0  0  0  0  0  0  0  0
  150.7603  140.1107  155.9554 C   0  0  0  0  0  0  0  0  0  0  0  0
  151.9102  139.2030  156.4170 C   0  0  0  0  0  0  0  0  0  0  0  0
  150.7073  140.1759  154.4137 C   0  0  0  0  0  0  0  0  0  0  0  0
  149.3324  140.3671  153.8846 N   0  3  2  0  0  0  0  0  0  0  0  0
  148.6436  141.5611  154.4335 C   0  0  0  0  0  0  0  0  0  0  0  0
  147.2446  141.7039  153.8137 C   0  0  0  0  0  0  0  0  0  0  0  0
  146.5022  140.5147  154.0454 O   0  0  0  0  0  0  0  0  0  0  0  0
  147.0954  139.3753  153.4309 C   0  0  2  0  0  0  0  0  0  0  0  0
  146.1794  138.1569  153.6446 C   0  0  0  0  0  0  0  0  0  0  0  0
  146.5757  137.0281  152.8085 N   0  0  0  0  0  0  0  0  0  0  0  0
  145.7469  136.0724  152.3640 C   0  0  0  0  0  0  0  0  0  0  0  0
  144.5446  136.0423  152.6279 O   0  0  0  0  0  0  0  0  0  0  0  0
  146.3985  135.1762  151.6028 N   0  0  0  0  0  0  0  0  0  0  0  0
  145.8686  134.0352  150.9450 C   0  0  0  0  0  0  0  0  0  0  0  0
  146.5940  132.9741  150.5729 N   0  0  0  0  0  0  0  0  0  0  0  0
  145.8140  131.9993  149.9456 C   0  0  0  0  0  0  0  0  0  0  0  0
  144.4868  132.3365  149.8497 C   0  0  0  0  0  0  0  0  0  0  0  0
  144.1623  133.9020  150.5449 S   0  0  0  0  0  0  0  0  0  0  0  0
  148.4887  139.1600  154.0544 C   0  0  0  0  0  0  0  0  0  0  0  0
  151.8023  142.0092  156.2466 H   0  0  0  0  0  0  0  0  0  0  0  0
  150.9361  141.4449  157.6722 H   0  0  0  0  0  0  0  0  0  0  0  0
  150.0476  142.1444  156.3294 H   0  0  0  0  0  0  0  0  0  0  0  0
  149.8394  139.6622  156.3271 H   0  0  0  0  0  0  0  0  0  0  0  0
  152.8764  139.5877  156.0890 H   0  0  0  0  0  0  0  0  0  0  0  0
  151.8007  138.1945  156.0170 H   0  0  0  0  0  0  0  0  0  0  0  0
  151.9362  139.1223  157.5042 H   0  0  0  0  0  0  0  0  0  0  0  0
  151.3390  141.0030  154.0858 H   0  0  0  0  0  0  0  0  0  0  0  0
  151.1381  139.2744  153.9745 H   0  0  0  0  0  0  0  0  0  0  0  0
  148.5604  141.4708  155.5177 H   0  0  0  0  0  0  0  0  0  0  0  0
  149.2185  142.4640  154.2313 H   0  0  0  0  0  0  0  0  0  0  0  0
  146.7165  142.5436  154.2654 H   0  0  0  0  0  0  0  0  0  0  0  0
  147.3083  141.9063  152.7434 H   0  0  0  0  0  0  0  0  0  0  0  0
  147.2009  139.5540  152.3588 H   0  0  0  0  0  0  0  0  0  0  0  0
  146.2414  137.8297  154.6827 H   0  0  0  0  0  0  0  0  0  0  0  0
  145.1354  138.4232  153.4694 H   0  0  0  0  0  0  0  0  0  0  0  0
  147.5496  136.9732  152.5480 H   0  0  0  0  0  0  0  0  0  0  0  0
  147.3879  135.3287  151.4740 H   0  0  0  0  0  0  0  0  0  0  0  0
  146.2869  131.0930  149.5974 H   0  0  0  0  0  0  0  0  0  0  0  0
  143.6840  131.7614  149.4130 H   0  0  0  0  0  0  0  0  0  0  0  0
  148.9730  138.3056  153.5801 H   0  0  0  0  0  0  0  0  0  0  0  0
  148.3962  138.9279  155.1168 H   0  0  0  0  0  0  0  0  0  0  0  0
  149.4241  140.5090  152.8887 H   0  0  0  0  0  0  0  0  0  0  0  0
  1  2  1  0  0  0  0
  1 21  1  0  0  0  0
  1 22  1  0  0  0  0
  1 23  1  0  0  0  0
  2  3  1  0  0  0  0
  2  4  1  0  0  0  0
  2 24  1  0  0  0  0
  3 25  1  0  0  0  0
  3 26  1  0  0  0  0
  3 27  1  0  0  0  0
  4  5  1  0  0  0  0
  4 28  1  0  0  0  0
  4 29  1  0  0  0  0
  5 20  1  0  0  0  0
  5  6  1  0  0  0  0
  5 43  1  0  0  0  0
  6  7  1  0  0  0  0
  6 30  1  0  0  0  0
  6 31  1  0  0  0  0
  7  8  1  0  0  0  0
  7 32  1  0  0  0  0
  7 33  1  0  0  0  0
  8  9  1  0  0  0  0
  9 10  1  0  0  0  0
  9 20  1  0  0  0  0
  9 34  1  0  0  0  0
 10 11  1  0  0  0  0
 10 35  1  0  0  0  0
 10 36  1  0  0  0  0
 11 12  1  0  0  0  0
 11 37  1  0  0  0  0
 12 13  2  0  0  0  0
 12 14  1  0  0  0  0
 14 15  1  0  0  0  0
 14 38  1  0  0  0  0
 15 19  1  0  0  0  0
 15 16  2  0  0  0  0
 16 17  1  0  0  0  0
 17 18  2  0  0  0  0
 17 39  1  0  0  0  0
 18 19  1  0  0  0  0
 18 40  1  0  0  0  0
 20 41  1  0  0  0  0
 20 42  1  0  0  0  0
M  CHG  1   5   1
M  END
> <s_m_source_file>
AV-unprocessed.smi

> <i_m_source_file_index>
2062

> <i_lp_mmshare_version>
43012

> <i_f3d_flags>
0

> <s_epik_input>
W0NIM11bQ0hdKFtDSDNdKVtDSDJdTjFbQ0gyXVtDSDJdT1tDQEhdKFtDSDJdMSlbQ0gyXVtOSF1DKD1PKVtOSF1jMm5bY0hdW2NIXXMy

> <s_epik_cmdline>
J2VwaWtfcHl0aG9uJywgJy1waCcsICc3LjAnLCAnLXRuJywgJzgnLCAnLW1hJywgJzIwMCcsICctbWV0YWxfYmluZGluZycsICctaW1hZScsICc8aW5maWxlLm1hZT4nLCAnLW9tYWUnLCAnPG91dGZpbGUubWFlPic=

> <r_lp_tautomer_probability>
0.999

> <r_epik_Ionization_Penalty>
0.0985527

> <r_epik_Ionization_Penalty_Charging>
0.098413

> <r_epik_Ionization_Penalty_Neutral>
0.000139681

> <r_epik_State_Penalty>
0.0884988

> <r_epik_Charging_Adjusted_Penalty>
0.186912

> <i_epik_Tot_Q>
1

> <i_epik_Tot_abs_Q>
1

> <r_epik_Metal_State_Penalty>
0.141792

> <b_epik_Metal_Only>
0

> <s_lp_Force_Field>
OPLS_2005

> <r_lp_Energy>
15.2202

> <b_lp_Chiralities_Consistent>
1

> <s_lp_Variant>
AV-unprocessed.smi:2062-4

> <Gold.Version>
5.8.1

> <Gold.Id.Protein>
6NUR|6NUR_protein|mol2

> <Gold.PLP.Fitness>
42.8044

> <Gold.PLP.PLP>
-33.6676

> <Gold.PLP.part.hbond>
-3.0000

> <Gold.PLP.part.metal>
0.0000

> <Gold.PLP.part.buried>
-1.4960

> <Gold.PLP.part.nonpolar>
-29.6688

> <Gold.PLP.part.repulsive>
0.9183

> <Gold.PLP.ligand.clash>
0.0000

> <Gold.PLP.ligand.torsion>
0.7621

> <Gold.PLP.Chemscore.Hbond>
3.0000

> <Gold.PLP.Chemscore.CHOScore>
0.5224

> <Gold.PLP.Chemscore.Metal>
0.0000

> <Gold.Chemscore.Hbonds>
donor molecule, donor type, donor heavy atom, donor atom, acceptor molecule, acceptor atom, score
      L1  H     5    43       P1  7957  1.00
      L1  H    11    37       P1  7948  1.00
      L1  H    14    38       P1  7948  1.00
      L1  C    17    39       P1 10747  0.30

> <Gold.PLP.Chemscore.Internal.Correction>
0.0940

> <Gold.Rescore>
     Score         DG    S(hbond)    S(metal)    S(lipo)     H(rot)  DE(clash)    DE(int)     intcor
     18.09     -20.66       2.87        0.00      86.28       1.76       1.72       0.86       ----

> <Gold.Chemscore.Fitness>
18.0871

> <Gold.Chemscore.DG>
-20.6620

> <Gold.Chemscore.ZeroCoef>
-5.4800

> <Gold.Chemscore.Hbond>
2.8719

> <Gold.Chemscore.Metal>
0.0000

> <Gold.Chemscore.Lipo>
86.2839

> <Gold.Chemscore.Internal_Hbond>
0.0000

> <Gold.Chemscore.DEClash>
1.7166

> <Gold.Chemscore.DEInternal>
0.8582

> <Gold.Chemscore.Rot>
1.7599

> <Gold.Chemscore.Internal.Correction>
   9.000000E+99

> <Gold.Chemscore.Hbonds>
donor molecule, donor type, donor heavy atom, donor atom, acceptor molecule, acceptor atom, score
      L1  H     5    43       P1  7957  0.99
      L1  H    11    37       P1  7948  0.98
      L1  H    14    38       P1  7948  0.85

> <Gold.Chemscore.Hbond.Weighted>
-9.5922

> <Gold.Chemscore.Metal.Weighted>
-0.0000

> <Gold.Chemscore.Lipo.Weighted>
-10.0952

> <Gold.Chemscore.Internal_Hbond.Weighted>
0.0000

> <Gold.Chemscore.DEClash.Weighted>
1.7166

> <Gold.Chemscore.DEInternal.Weighted>
0.8582

> <Gold.Chemscore.Rot.Weighted>
4.5054

> <Gold.Chemscore.Internal.Correction.Weighted>
   9.000000E+99

> <Gold.Protein.RotatedTorsions>
[ 6907 6896 6895 6894 ] final   13.24 input  -60.11 | X-H torsion
[ 7974 7965 7964 7962 ] final    1.55 input  175.53 | X-H torsion
[ 8008 7997 7996 7995 ] final   75.60 input   59.86 | X-H torsion
[ 10167 10162 10161 10158 ] final  164.03 input  -65.29 | X-H torsion
[ 10718 10713 10712 10709 ] final   58.94 input   66.30 | X-H torsion
[ 10763 10752 10751 10750 ] final   38.07 input  -60.55 | X-H torsion
[ 11005 11000 10999 10996 ] final   12.83 input  -57.11 | X-H torsion

> <Gold.Protein.ActiveResidues>
 VAL166  LYS551  ARG553  GLY616  TRP617  ASP618  TYR619  PRO620  LYS621  CYS622 
 ASP623  PHE694  ASN695  SER759  ASP760  ASP761  ALA762  ILE779  LEU786  VAL792 
 PHE793  MET794  SER795  GLU796  ALA797  LYS798  CYS799  TRP800  GLU811  SER814 

> <Gold.Protein.RotatedAtoms>
  151.7832  135.0756  160.0376 H   0  0  0  0  0  0  0  0  0  0  0  0  # atno 6907 bound_to 6896
  152.3208  133.5848  159.5752 H   0  0  0  0  0  0  0  0  0  0  0  0  # atno 6908 bound_to 6896
  150.7369  133.9929  159.3655 H   0  0  0  0  0  0  0  0  0  0  0  0  # atno 6909 bound_to 6896
  146.2441  140.0970  142.8349 H   0  0  0  0  0  0  0  0  0  0  0  0  # atno 7974 bound_to 7965
  155.8153  140.3472  155.5481 H   0  0  0  0  0  0  0  0  0  0  0  0  # atno 8008 bound_to 7997
  155.8399  140.0940  157.1761 H   0  0  0  0  0  0  0  0  0  0  0  0  # atno 8009 bound_to 7997
  154.4005  140.1396  156.3703 H   0  0  0  0  0  0  0  0  0  0  0  0  # atno 8010 bound_to 7997
  139.4882  144.4277  151.9109 H   0  0  0  0  0  0  0  0  0  0  0  0  # atno 10167 bound_to 10162
  157.5636  130.8854  149.9151 H   0  0  0  0  0  0  0  0  0  0  0  0  # atno 10718 bound_to 10713
  153.0014  135.6260  154.2245 H   0  0  0  0  0  0  0  0  0  0  0  0  # atno 10763 bound_to 10752
  154.1988  135.2805  155.2999 H   0  0  0  0  0  0  0  0  0  0  0  0  # atno 10764 bound_to 10752
  154.5700  135.5679  153.7145 H   0  0  0  0  0  0  0  0  0  0  0  0  # atno 10765 bound_to 10752
  140.4876  134.0873  155.7764 H   0  0  0  0  0  0  0  0  0  0  0  0  # atno 11005 bound_to 11000
  145.0601  140.9081  143.4943 LP  0  0  0  0  0  0  0  0  0  0  0  0  # atno 17320 bound_to 7965
  145.1084  139.2774  143.5650 LP  0  0  0  0  0  0  0  0  0  0  0  0  # atno 17321 bound_to 7965
  140.3723  144.2839  150.5918 LP  0  0  0  0  0  0  0  0  0  0  0  0  # atno 17342 bound_to 10162
  140.5307  143.2244  151.8243 LP  0  0  0  0  0  0  0  0  0  0  0  0  # atno 17343 bound_to 10162
  156.0686  130.3688  150.0823 LP  0  0  0  0  0  0  0  0  0  0  0  0  # atno 17370 bound_to 10713
  156.8985  130.9612  151.3579 LP  0  0  0  0  0  0  0  0  0  0  0  0  # atno 17371 bound_to 10713
  141.1500  133.8986  157.2121 LP  0  0  0  0  0  0  0  0  0  0  0  0  # atno 17394 bound_to 11000
  139.9788  135.0105  156.9699 LP  0  0  0  0  0  0  0  0  0  0  0  0  # atno 17395 bound_to 11000

$$$$
