AV-unprocessed.smi:1862|AV-procd|sdf|7549|dock3
  -GOLD-   22720 9263D 1   1.00000     0.00000
 Structure written by MMmdl.
 40 41  0  0  0  0  0  0  0  0  1 V2000
  154.7061  134.1784  163.2857 C   0  0  0  0  0  0  0  0  0  0  0  0
  154.7219  135.1970  162.1323 C   0  0  0  0  0  0  0  0  0  0  0  0
  154.8956  136.6848  162.5462 C   0  0  0  0  0  0  0  0  0  0  0  0
  153.8497  137.0533  163.6211 C   0  0  0  0  0  0  0  0  0  0  0  0
  156.2967  136.9076  163.1489 C   0  0  0  0  0  0  0  0  0  0  0  0
  154.7752  137.5902  161.3953 N   0  0  0  0  0  0  0  0  0  0  0  0
  153.8392  137.5942  160.4287 C   0  0  0  0  0  0  0  0  0  0  0  0
  152.9098  136.7884  160.3725 O   0  0  0  0  0  0  0  0  0  0  0  0
  153.9903  138.6741  159.3522 C   0  0  0  0  0  0  0  0  0  0  0  0
  153.7094  140.0386  159.9140 C   0  0  0  0  0  0  0  0  0  0  0  0
  154.1118  140.5274  161.1332 C   0  0  0  0  0  0  0  0  0  0  0  0
  153.5648  142.1609  161.3950 S   0  0  0  0  0  0  0  0  0  0  0  0
  152.7995  142.1239  159.8038 C   0  0  0  0  0  0  0  0  0  0  0  0
  152.0596  143.1806  159.1946 N   0  0  0  0  0  0  0  0  0  0  0  0
  152.1435  144.5544  159.6806 C   0  0  0  0  0  0  0  0  0  0  0  0
  151.2139  145.3289  158.7518 C   0  0  0  0  0  0  0  0  0  0  0  0
  150.7340  144.2918  157.8690 N   0  0  0  0  0  0  0  0  0  0  0  0
  151.2278  143.0812  158.1386 C   0  0  0  0  0  0  0  0  0  0  0  0
  150.9449  142.0668  157.5039 O   0  0  0  0  0  0  0  0  0  0  0  0
  152.9713  140.9616  159.1654 N   0  0  0  0  0  0  0  0  0  0  0  0
  154.5900  133.1664  162.8975 H   0  0  0  0  0  0  0  0  0  0  0  0
  153.8799  134.3574  163.9731 H   0  0  0  0  0  0  0  0  0  0  0  0
  155.6331  134.2004  163.8585 H   0  0  0  0  0  0  0  0  0  0  0  0
  155.5144  134.9122  161.4399 H   0  0  0  0  0  0  0  0  0  0  0  0
  153.7975  135.0907  161.5636 H   0  0  0  0  0  0  0  0  0  0  0  0
  153.9868  136.4553  164.5228 H   0  0  0  0  0  0  0  0  0  0  0  0
  152.8291  136.8822  163.2786 H   0  0  0  0  0  0  0  0  0  0  0  0
  153.9275  138.1021  163.9100 H   0  0  0  0  0  0  0  0  0  0  0  0
  156.4745  136.2447  163.9963 H   0  0  0  0  0  0  0  0  0  0  0  0
  156.4161  137.9313  163.5061 H   0  0  0  0  0  0  0  0  0  0  0  0
  157.0879  136.7293  162.4204 H   0  0  0  0  0  0  0  0  0  0  0  0
  155.4915  138.2985  161.3278 H   0  0  0  0  0  0  0  0  0  0  0  0
  154.9958  138.6421  158.9303 H   0  0  0  0  0  0  0  0  0  0  0  0
  153.3068  138.4428  158.5345 H   0  0  0  0  0  0  0  0  0  0  0  0
  154.6906  140.0244  161.8933 H   0  0  0  0  0  0  0  0  0  0  0  0
  151.8132  144.6172  160.7186 H   0  0  0  0  0  0  0  0  0  0  0  0
  153.1681  144.9240  159.6172 H   0  0  0  0  0  0  0  0  0  0  0  0
  150.3851  145.7889  159.2909 H   0  0  0  0  0  0  0  0  0  0  0  0
  151.7438  146.0982  158.1890 H   0  0  0  0  0  0  0  0  0  0  0  0
  150.0854  144.4786  157.1178 H   0  0  0  0  0  0  0  0  0  0  0  0
  1  2  1  0  0  0  0
  1 21  1  0  0  0  0
  1 22  1  0  0  0  0
  1 23  1  0  0  0  0
  2  3  1  0  0  0  0
  2 24  1  0  0  0  0
  2 25  1  0  0  0  0
  3  4  1  0  0  0  0
  3  5  1  0  0  0  0
  3  6  1  0  0  0  0
  4 26  1  0  0  0  0
  4 27  1  0  0  0  0
  4 28  1  0  0  0  0
  5 29  1  0  0  0  0
  5 30  1  0  0  0  0
  5 31  1  0  0  0  0
  6  7  1  0  0  0  0
  6 32  1  0  0  0  0
  7  8  2  0  0  0  0
  7  9  1  0  0  0  0
  9 10  1  0  0  0  0
  9 33  1  0  0  0  0
  9 34  1  0  0  0  0
 10 20  1  0  0  0  0
 10 11  2  0  0  0  0
 11 12  1  0  0  0  0
 11 35  1  0  0  0  0
 12 13  1  0  0  0  0
 13 14  1  0  0  0  0
 13 20  2  0  0  0  0
 14 18  1  0  0  0  0
 14 15  1  0  0  0  0
 15 16  1  0  0  0  0
 15 36  1  0  0  0  0
 15 37  1  0  0  0  0
 16 17  1  0  0  0  0
 16 38  1  0  0  0  0
 16 39  1  0  0  0  0
 17 18  1  0  0  0  0
 17 40  1  0  0  0  0
 18 19  2  0  0  0  0
M  END
> <s_m_source_file>
AV-unprocessed.smi

> <i_m_source_file_index>
1862

> <i_lp_mmshare_version>
43012

> <i_f3d_flags>
0

> <s_epik_input>
W0NIM11bQ0gyXUMoW0NIM10pKFtDSDNdKVtOSF1DKD1PKVtDSDJdYzFbY0hdc2MobjEpTjJbQ0gyXVtDSDJdW05IXUMyPU8=

> <s_epik_cmdline>
J2VwaWtfcHl0aG9uJywgJy1waCcsICc3LjAnLCAnLXRuJywgJzgnLCAnLW1hJywgJzIwMCcsICctbWV0YWxfYmluZGluZycsICctaW1hZScsICc8aW5maWxlLm1hZT4nLCAnLW9tYWUnLCAnPG91dGZpbGUubWFlPic=

> <r_lp_tautomer_probability>
1

> <r_epik_Ionization_Penalty>
0.000124031

> <r_epik_Ionization_Penalty_Charging>
0

> <r_epik_Ionization_Penalty_Neutral>
0.000124031

> <r_epik_State_Penalty>
-0

> <r_epik_Charging_Adjusted_Penalty>
0

> <i_epik_Tot_Q>
0

> <i_epik_Tot_abs_Q>
0

> <r_epik_Metal_State_Penalty>
-0

> <b_epik_Metal_Only>
0

> <s_lp_Force_Field>
OPLS_2005

> <r_lp_Energy>
34.1106

> <b_lp_Chiralities_Consistent>
1

> <s_lp_Variant>
AV-unprocessed.smi:1862-1

> <Gold.Version>
5.8.1

> <Gold.Id.Protein>
6NUR|6NUR_protein|mol2

> <Gold.PLP.Fitness>
46.6261

> <Gold.PLP.PLP>
-42.0825

> <Gold.PLP.part.hbond>
-1.9782

> <Gold.PLP.part.metal>
0.0000

> <Gold.PLP.part.buried>
-5.4807

> <Gold.PLP.part.nonpolar>
-34.2959

> <Gold.PLP.part.repulsive>
0.0961

> <Gold.PLP.ligand.clash>
0.0000

> <Gold.PLP.ligand.torsion>
0.7346

> <Gold.PLP.Chemscore.Hbond>
2.0000

> <Gold.PLP.Chemscore.CHOScore>
0.0000

> <Gold.PLP.Chemscore.Metal>
0.0000

> <Gold.Chemscore.Hbonds>
donor molecule, donor type, donor heavy atom, donor atom, acceptor molecule, acceptor atom, score
      L1  H    17    40       P1  8028  1.00
      P1  H  6896  6908       L1     8  1.00

> <Gold.PLP.Chemscore.Internal.Correction>
0.0127

> <Gold.Rescore>
     Score         DG    S(hbond)    S(metal)    S(lipo)     H(rot)  DE(clash)    DE(int)     intcor
     16.17     -18.00       1.98        0.00      88.20       1.72       0.00       1.82       ----

> <Gold.Chemscore.Fitness>
16.1738

> <Gold.Chemscore.DG>
-17.9951

> <Gold.Chemscore.ZeroCoef>
-5.4800

> <Gold.Chemscore.Hbond>
1.9780

> <Gold.Chemscore.Metal>
0.0000

> <Gold.Chemscore.Lipo>
88.1958

> <Gold.Chemscore.Internal_Hbond>
0.0000

> <Gold.Chemscore.DEClash>
0.0000

> <Gold.Chemscore.DEInternal>
1.8213

> <Gold.Chemscore.Rot>
1.7228

> <Gold.Chemscore.Internal.Correction>
   9.000000E+99

> <Gold.Chemscore.Hbonds>
donor molecule, donor type, donor heavy atom, donor atom, acceptor molecule, acceptor atom, score
      L1  H    17    40       P1  8028  0.55
      P1  H  6896  6908       L1     8  0.98

> <Gold.Chemscore.Hbond.Weighted>
-6.6064

> <Gold.Chemscore.Metal.Weighted>
-0.0000

> <Gold.Chemscore.Lipo.Weighted>
-10.3189

> <Gold.Chemscore.Internal_Hbond.Weighted>
0.0000

> <Gold.Chemscore.DEClash.Weighted>
0.0000

> <Gold.Chemscore.DEInternal.Weighted>
1.8213

> <Gold.Chemscore.Rot.Weighted>
4.4103

> <Gold.Chemscore.Internal.Correction.Weighted>
   9.000000E+99

> <Gold.Protein.RotatedTorsions>
[ 6907 6896 6895 6894 ] final  -88.52 input  -60.11 | X-H torsion
[ 7974 7965 7964 7962 ] final   51.94 input  175.53 | X-H torsion
[ 8008 7997 7996 7995 ] final -133.67 input   59.86 | X-H torsion
[ 10167 10162 10161 10158 ] final  -58.38 input  -65.29 | X-H torsion
[ 10718 10713 10712 10709 ] final  -42.83 input   66.30 | X-H torsion
[ 10763 10752 10751 10750 ] final   68.08 input  -60.55 | X-H torsion
[ 11005 11000 10999 10996 ] final -178.77 input  -57.11 | X-H torsion

> <Gold.Protein.ActiveResidues>
 VAL166  LYS551  ARG553  GLY616  TRP617  ASP618  TYR619  PRO620  LYS621  CYS622 
 ASP623  PHE694  ASN695  SER759  ASP760  ASP761  ALA762  ILE779  LEU786  VAL792 
 PHE793  MET794  SER795  GLU796  ALA797  LYS798  CYS799  TRP800  GLU811  SER814 

> <Gold.Protein.RotatedAtoms>
  150.6869  134.2729  159.4595 H   0  0  0  0  0  0  0  0  0  0  0  0  # atno 6907 bound_to 6896
  152.0649  134.9568  160.0584 H   0  0  0  0  0  0  0  0  0  0  0  0  # atno 6908 bound_to 6896
  152.0980  133.4200  159.4611 H   0  0  0  0  0  0  0  0  0  0  0  0  # atno 6909 bound_to 6896
  145.9863  139.4293  143.0101 H   0  0  0  0  0  0  0  0  0  0  0  0  # atno 7974 bound_to 7965
  155.3494  140.0476  157.3046 H   0  0  0  0  0  0  0  0  0  0  0  0  # atno 8008 bound_to 7997
  154.5235  140.2233  155.8897 H   0  0  0  0  0  0  0  0  0  0  0  0  # atno 8009 bound_to 7997
  156.1715  140.3095  155.8988 H   0  0  0  0  0  0  0  0  0  0  0  0  # atno 8010 bound_to 7997
  140.6201  143.2416  151.5502 H   0  0  0  0  0  0  0  0  0  0  0  0  # atno 10167 bound_to 10162
  156.2554  130.4192  149.8602 H   0  0  0  0  0  0  0  0  0  0  0  0  # atno 10718 bound_to 10713
  153.0217  135.5260  154.7078 H   0  0  0  0  0  0  0  0  0  0  0  0  # atno 10763 bound_to 10752
  154.6169  135.2884  155.0372 H   0  0  0  0  0  0  0  0  0  0  0  0  # atno 10764 bound_to 10752
  154.1373  135.6583  153.4987 H   0  0  0  0  0  0  0  0  0  0  0  0  # atno 10765 bound_to 10752
  140.4261  134.6561  157.4688 H   0  0  0  0  0  0  0  0  0  0  0  0  # atno 11005 bound_to 11000
  145.7695  140.9902  143.1157 LP  0  0  0  0  0  0  0  0  0  0  0  0  # atno 17320 bound_to 7965
  144.6876  139.9430  143.7475 LP  0  0  0  0  0  0  0  0  0  0  0  0  # atno 17321 bound_to 7965
  139.5431  144.2593  152.1390 LP  0  0  0  0  0  0  0  0  0  0  0  0  # atno 17342 bound_to 10162
  140.1812  144.4843  150.6527 LP  0  0  0  0  0  0  0  0  0  0  0  0  # atno 17343 bound_to 10162
  156.6136  130.8597  151.3460 LP  0  0  0  0  0  0  0  0  0  0  0  0  # atno 17370 bound_to 10713
  157.7230  130.9584  150.1518 LP  0  0  0  0  0  0  0  0  0  0  0  0  # atno 17371 bound_to 10713
  140.0166  134.6610  155.9300 LP  0  0  0  0  0  0  0  0  0  0  0  0  # atno 17394 bound_to 11000
  141.1764  133.6541  156.4847 LP  0  0  0  0  0  0  0  0  0  0  0  0  # atno 17395 bound_to 11000

$$$$
