AV-unprocessed.smi:821|AV-procd|sdf|3839|dock5
  -GOLD-   22720 1283D 1   1.00000     0.00000
 Structure written by MMmdl.
 44 45  0  0  0  0  0  0  0  0  1 V2000
  147.3560  140.7586  153.4131 C   0  0  0  0  0  0  0  0  0  0  0  0
  147.8129  142.0573  154.0958 C   0  0  1  0  0  0  0  0  0  0  0  0
  146.9070  142.4186  155.2936 C   0  0  0  0  0  0  0  0  0  0  0  0
  145.6389  143.0682  154.9548 N   0  0  0  0  0  0  0  0  0  0  0  0
  145.2227  143.9770  156.0183 C   0  0  0  0  0  0  0  0  0  0  0  0
  143.8929  144.6787  155.6931 C   0  0  0  0  0  0  0  0  0  0  0  0
  144.0149  145.3766  154.4583 O   0  0  0  0  0  0  0  0  0  0  0  0
  144.3691  144.5190  153.3786 C   0  0  0  0  0  0  0  0  0  0  0  0
  145.6955  143.8064  153.6940 C   0  0  0  0  0  0  0  0  0  0  0  0
  149.1896  141.8949  154.5563 N   0  0  0  0  0  0  0  0  0  0  0  0
  149.5801  141.1459  155.5981 C   0  0  0  0  0  0  0  0  0  0  0  0
  148.7952  140.5592  156.3440 O   0  0  0  0  0  0  0  0  0  0  0  0
  151.0941  141.0536  155.8313 C   0  0  0  0  0  0  0  0  0  0  0  0
  151.5465  141.8907  156.9556 N   0  0  0  0  0  0  0  0  0  0  0  0
  151.0376  143.1999  157.0233 C   0  0  0  0  0  0  0  0  0  0  0  0
  151.3784  144.0387  158.0110 C   0  0  0  0  0  0  0  0  0  0  0  0
  152.2888  143.5652  159.0249 C   0  0  0  0  0  0  0  0  0  0  0  0
  152.7966  142.3115  158.9855 C   0  0  0  0  0  0  0  0  0  0  0  0
  153.7498  141.7894  160.0580 C   0  0  0  0  0  0  0  0  0  0  0  0
  154.9880  141.6892  159.5735 F   0  0  0  0  0  0  0  0  0  0  0  0
  153.7908  142.5963  161.1193 F   0  0  0  0  0  0  0  0  0  0  0  0
  153.3685  140.5826  160.4792 F   0  0  0  0  0  0  0  0  0  0  0  0
  152.4227  141.3983  157.8864 C   0  0  0  0  0  0  0  0  0  0  0  0
  152.8682  140.2522  157.8012 O   0  0  0  0  0  0  0  0  0  0  0  0
  146.3384  140.8526  153.0334 H   0  0  0  0  0  0  0  0  0  0  0  0
  147.3772  139.9165  154.1057 H   0  0  0  0  0  0  0  0  0  0  0  0
  147.9974  140.5113  152.5665 H   0  0  0  0  0  0  0  0  0  0  0  0
  147.7521  142.8598  153.3577 H   0  0  0  0  0  0  0  0  0  0  0  0
  146.6690  141.4904  155.8150 H   0  0  0  0  0  0  0  0  0  0  0  0
  147.4593  143.0202  156.0175 H   0  0  0  0  0  0  0  0  0  0  0  0
  145.1198  143.4289  156.9556 H   0  0  0  0  0  0  0  0  0  0  0  0
  145.9941  144.7315  156.1821 H   0  0  0  0  0  0  0  0  0  0  0  0
  143.0775  143.9560  155.6328 H   0  0  0  0  0  0  0  0  0  0  0  0
  143.6363  145.3886  156.4792 H   0  0  0  0  0  0  0  0  0  0  0  0
  143.5730  143.7931  153.2056 H   0  0  0  0  0  0  0  0  0  0  0  0
  144.4657  145.1111  152.4683 H   0  0  0  0  0  0  0  0  0  0  0  0
  146.5022  144.5402  153.7288 H   0  0  0  0  0  0  0  0  0  0  0  0
  145.9208  143.1289  152.8715 H   0  0  0  0  0  0  0  0  0  0  0  0
  149.9059  142.3471  154.0068 H   0  0  0  0  0  0  0  0  0  0  0  0
  151.3811  140.0148  156.0072 H   0  0  0  0  0  0  0  0  0  0  0  0
  151.5963  141.3360  154.9051 H   0  0  0  0  0  0  0  0  0  0  0  0
  150.3560  143.4740  156.2313 H   0  0  0  0  0  0  0  0  0  0  0  0
  150.9774  145.0409  158.0499 H   0  0  0  0  0  0  0  0  0  0  0  0
  152.5557  144.2364  159.8274 H   0  0  0  0  0  0  0  0  0  0  0  0
  1  2  1  0  0  0  0
  1 25  1  0  0  0  0
  1 26  1  0  0  0  0
  1 27  1  0  0  0  0
  2  3  1  0  0  0  0
  2 10  1  0  0  0  0
  2 28  1  0  0  0  0
  3  4  1  0  0  0  0
  3 29  1  0  0  0  0
  3 30  1  0  0  0  0
  4  9  1  0  0  0  0
  4  5  1  0  0  0  0
  5  6  1  0  0  0  0
  5 31  1  0  0  0  0
  5 32  1  0  0  0  0
  6  7  1  0  0  0  0
  6 33  1  0  0  0  0
  6 34  1  0  0  0  0
  7  8  1  0  0  0  0
  8  9  1  0  0  0  0
  8 35  1  0  0  0  0
  8 36  1  0  0  0  0
  9 37  1  0  0  0  0
  9 38  1  0  0  0  0
 10 11  1  0  0  0  0
 10 39  1  0  0  0  0
 11 12  2  0  0  0  0
 11 13  1  0  0  0  0
 13 14  1  0  0  0  0
 13 40  1  0  0  0  0
 13 41  1  0  0  0  0
 14 23  1  0  0  0  0
 14 15  1  0  0  0  0
 15 16  2  0  0  0  0
 15 42  1  0  0  0  0
 16 17  1  0  0  0  0
 16 43  1  0  0  0  0
 17 18  2  0  0  0  0
 17 44  1  0  0  0  0
 18 19  1  0  0  0  0
 18 23  1  0  0  0  0
 19 20  1  0  0  0  0
 19 21  1  0  0  0  0
 19 22  1  0  0  0  0
 23 24  2  0  0  0  0
M  END
> <s_m_source_file>
AV-unprocessed.smi

> <i_m_source_file_index>
821

> <i_lp_mmshare_version>
43012

> <i_f3d_flags>
0

> <s_epik_input>
W0NIMl0xW0NIMl1PW0NIMl1bQ0gyXU4xW0NIMl1bQ0BASF0oW0NIM10pW05IXUMoPU8pW0NIMl1uMltjSF1bY0hdW2NIXWMoQyhGKShGKUYpYzI9Tw==

> <s_epik_cmdline>
J2VwaWtfcHl0aG9uJywgJy1waCcsICc3LjAnLCAnLXRuJywgJzgnLCAnLW1hJywgJzIwMCcsICctbWV0YWxfYmluZGluZycsICctaW1hZScsICc8aW5maWxlLm1hZT4nLCAnLW9tYWUnLCAnPG91dGZpbGUubWFlPic=

> <r_lp_tautomer_probability>
1

> <r_epik_Ionization_Penalty>
0.237382

> <r_epik_Ionization_Penalty_Charging>
1.90699e-09

> <r_epik_Ionization_Penalty_Neutral>
0.237382

> <r_epik_State_Penalty>
0.228245

> <r_epik_Charging_Adjusted_Penalty>
0.228245

> <i_epik_Tot_Q>
0

> <i_epik_Tot_abs_Q>
0

> <r_epik_Metal_State_Penalty>
0.228219

> <b_epik_Metal_Only>
0

> <s_lp_Force_Field>
OPLS_2005

> <r_lp_Energy>
36.3574

> <b_lp_Chiralities_Consistent>
1

> <s_lp_Variant>
AV-unprocessed.smi:821-2

> <Gold.Version>
5.8.1

> <Gold.Id.Protein>
6NUR|6NUR_protein|mol2

> <Gold.PLP.Fitness>
48.8669

> <Gold.PLP.PLP>
-45.5056

> <Gold.PLP.part.hbond>
-1.7783

> <Gold.PLP.part.metal>
0.0000

> <Gold.PLP.part.buried>
-2.2506

> <Gold.PLP.part.nonpolar>
-40.3115

> <Gold.PLP.part.repulsive>
0.6218

> <Gold.PLP.ligand.clash>
0.0000

> <Gold.PLP.ligand.torsion>
1.5416

> <Gold.PLP.Chemscore.Hbond>
1.0000

> <Gold.PLP.Chemscore.CHOScore>
1.0000

> <Gold.PLP.Chemscore.Metal>
0.0000

> <Gold.Chemscore.Hbonds>
donor molecule, donor type, donor heavy atom, donor atom, acceptor molecule, acceptor atom, score
      P1  H  7997  8009       L1    24  0.93
      L1  C    15    42       P1  8028  0.93

> <Gold.PLP.Chemscore.Internal.Correction>
0.4445

> <Gold.Rescore>
     Score         DG    S(hbond)    S(metal)    S(lipo)     H(rot)  DE(clash)    DE(int)     intcor
      7.60     -12.75       1.01        0.00      79.14       2.09       0.37       4.78       ----

> <Gold.Chemscore.Fitness>
7.6012

> <Gold.Chemscore.DG>
-12.7491

> <Gold.Chemscore.ZeroCoef>
-5.4800

> <Gold.Chemscore.Hbond>
1.0080

> <Gold.Chemscore.Metal>
0.0000

> <Gold.Chemscore.Lipo>
79.1360

> <Gold.Chemscore.Internal_Hbond>
0.0000

> <Gold.Chemscore.DEClash>
0.3715

> <Gold.Chemscore.DEInternal>
4.7763

> <Gold.Chemscore.Rot>
2.0924

> <Gold.Chemscore.Internal.Correction>
   9.000000E+99

> <Gold.Chemscore.Hbonds>
donor molecule, donor type, donor heavy atom, donor atom, acceptor molecule, acceptor atom, score
      P1  H  7997  8009       L1    24  0.79

> <Gold.Chemscore.Hbond.Weighted>
-3.3668

> <Gold.Chemscore.Metal.Weighted>
-0.0000

> <Gold.Chemscore.Lipo.Weighted>
-9.2589

> <Gold.Chemscore.Internal_Hbond.Weighted>
0.0000

> <Gold.Chemscore.DEClash.Weighted>
0.3715

> <Gold.Chemscore.DEInternal.Weighted>
4.7763

> <Gold.Chemscore.Rot.Weighted>
5.3566

> <Gold.Chemscore.Internal.Correction.Weighted>
   9.000000E+99

> <Gold.Protein.RotatedTorsions>
[ 6907 6896 6895 6894 ] final  -33.12 input  -60.11 | X-H torsion
[ 7974 7965 7964 7962 ] final  179.96 input  175.53 | X-H torsion
[ 8008 7997 7996 7995 ] final  174.41 input   59.86 | X-H torsion
[ 10167 10162 10161 10158 ] final -138.00 input  -65.29 | X-H torsion
[ 10718 10713 10712 10709 ] final   80.91 input   66.30 | X-H torsion
[ 10763 10752 10751 10750 ] final -117.00 input  -60.55 | X-H torsion
[ 11005 11000 10999 10996 ] final -158.06 input  -57.11 | X-H torsion

> <Gold.Protein.ActiveResidues>
 VAL166  LYS551  ARG553  GLY616  TRP617  ASP618  TYR619  PRO620  LYS621  CYS622 
 ASP623  PHE694  ASN695  SER759  ASP760  ASP761  ALA762  ILE779  LEU786  VAL792 
 PHE793  MET794  SER795  GLU796  ALA797  LYS798  CYS799  TRP800  GLU811  SER814 

> <Gold.Protein.RotatedAtoms>
  151.0698  134.9791  159.8302 H   0  0  0  0  0  0  0  0  0  0  0  0  # atno 6907 bound_to 6896
  152.5407  134.2314  159.8836 H   0  0  0  0  0  0  0  0  0  0  0  0  # atno 6908 bound_to 6896
  151.2338  133.4393  159.2638 H   0  0  0  0  0  0  0  0  0  0  0  0  # atno 6909 bound_to 6896
  144.7141  140.0626  143.6432 H   0  0  0  0  0  0  0  0  0  0  0  0  # atno 7974 bound_to 7965
  156.0977  140.1435  156.9509 H   0  0  0  0  0  0  0  0  0  0  0  0  # atno 8008 bound_to 7997
  154.4682  140.0919  156.7121 H   0  0  0  0  0  0  0  0  0  0  0  0  # atno 8009 bound_to 7997
  155.4813  140.3445  155.4342 H   0  0  0  0  0  0  0  0  0  0  0  0  # atno 8010 bound_to 7997
  139.8522  143.7184  152.2657 H   0  0  0  0  0  0  0  0  0  0  0  0  # atno 10167 bound_to 10162
  157.6819  130.9980  150.2148 H   0  0  0  0  0  0  0  0  0  0  0  0  # atno 10718 bound_to 10713
  154.8539  135.4325  154.1910 H   0  0  0  0  0  0  0  0  0  0  0  0  # atno 10763 bound_to 10752
  153.2978  135.6966  153.7237 H   0  0  0  0  0  0  0  0  0  0  0  0  # atno 10764 bound_to 10752
  153.6379  135.3473  155.3036 H   0  0  0  0  0  0  0  0  0  0  0  0  # atno 10765 bound_to 10752
  140.6578  134.4382  157.5235 H   0  0  0  0  0  0  0  0  0  0  0  0  # atno 11005 bound_to 11000
  145.9851  139.2971  143.1019 LP  0  0  0  0  0  0  0  0  0  0  0  0  # atno 17320 bound_to 7965
  145.8967  140.9269  143.0524 LP  0  0  0  0  0  0  0  0  0  0  0  0  # atno 17321 bound_to 7965
  139.7455  144.7548  151.0587 LP  0  0  0  0  0  0  0  0  0  0  0  0  # atno 17342 bound_to 10162
  140.7786  143.4922  150.9879 LP  0  0  0  0  0  0  0  0  0  0  0  0  # atno 17343 bound_to 10162
  156.2812  130.3733  149.7934 LP  0  0  0  0  0  0  0  0  0  0  0  0  # atno 17370 bound_to 10713
  156.5622  130.8388  151.3332 LP  0  0  0  0  0  0  0  0  0  0  0  0  # atno 17371 bound_to 10713
  139.9023  134.8527  156.1844 LP  0  0  0  0  0  0  0  0  0  0  0  0  # atno 17394 bound_to 11000
  141.0488  133.6899  156.1733 LP  0  0  0  0  0  0  0  0  0  0  0  0  # atno 17395 bound_to 11000

$$$$
