AV-unprocessed.smi:1250|AV-procd|sdf|5255|dock2
  -GOLD-   22720 4363D 1   1.00000     0.00000
 Structure written by MMmdl.
 41 42  0  0  0  0  0  0  0  0  1 V2000
  147.8221  133.8198  156.7066 C   0  0  0  0  0  0  0  0  0  0  0  0
  148.2927  135.0756  155.9466 C   0  0  0  0  0  0  0  0  0  0  0  0
  147.1798  135.5414  154.9899 C   0  0  0  0  0  0  0  0  0  0  0  0
  149.6426  134.8500  155.2147 C   0  0  1  0  0  0  0  0  0  0  0  0
  149.5879  133.7182  154.1712 C   0  0  0  0  0  0  0  0  0  0  0  0
  150.0710  136.0800  154.5495 N   0  0  0  0  0  0  0  0  0  0  0  0
  151.1009  136.8544  154.9269 C   0  0  0  0  0  0  0  0  0  0  0  0
  151.8140  136.6118  155.9004 O   0  0  0  0  0  0  0  0  0  0  0  0
  151.3726  138.0931  154.0723 C   0  0  0  0  0  0  0  0  0  0  0  0
  150.9057  139.3301  154.7842 C   0  0  0  0  0  0  0  0  0  0  0  0
  149.8294  140.1166  154.4510 C   0  0  0  0  0  0  0  0  0  0  0  0
  149.6394  141.4617  155.5408 S   0  0  0  0  0  0  0  0  0  0  0  0
  151.0630  140.9030  156.4246 C   0  0  0  0  0  0  0  0  0  0  0  0
  151.6453  141.5265  157.5684 N   0  0  0  0  0  0  0  0  0  0  0  0
  151.2631  142.8708  157.9900 C   0  0  0  0  0  0  0  0  0  0  0  0
  151.9136  143.0827  159.3611 C   0  0  0  0  0  0  0  0  0  0  0  0
  152.9596  141.9770  159.4872 C   0  0  0  0  0  0  0  0  0  0  0  0
  152.5947  141.0127  158.3706 C   0  0  0  0  0  0  0  0  0  0  0  0
  153.1430  139.9166  158.2644 O   0  0  0  0  0  0  0  0  0  0  0  0
  151.6001  139.7924  155.9077 N   0  0  0  0  0  0  0  0  0  0  0  0
  147.7073  132.9707  156.0322 H   0  0  0  0  0  0  0  0  0  0  0  0
  146.8598  133.9907  157.1899 H   0  0  0  0  0  0  0  0  0  0  0  0
  148.5222  133.5306  157.4904 H   0  0  0  0  0  0  0  0  0  0  0  0
  148.4361  135.8643  156.6866 H   0  0  0  0  0  0  0  0  0  0  0  0
  147.0316  134.8287  154.1782 H   0  0  0  0  0  0  0  0  0  0  0  0
  147.4030  136.5122  154.5488 H   0  0  0  0  0  0  0  0  0  0  0  0
  146.2295  135.6464  155.5143 H   0  0  0  0  0  0  0  0  0  0  0  0
  150.3864  134.5818  155.9676 H   0  0  0  0  0  0  0  0  0  0  0  0
  149.3893  132.7512  154.6320 H   0  0  0  0  0  0  0  0  0  0  0  0
  150.5371  133.6242  153.6425 H   0  0  0  0  0  0  0  0  0  0  0  0
  148.8125  133.9018  153.4267 H   0  0  0  0  0  0  0  0  0  0  0  0
  149.5446  136.3610  153.7347 H   0  0  0  0  0  0  0  0  0  0  0  0
  152.4382  138.1466  153.8439 H   0  0  0  0  0  0  0  0  0  0  0  0
  150.8592  137.9887  153.1157 H   0  0  0  0  0  0  0  0  0  0  0  0
  149.1359  139.9820  153.6340 H   0  0  0  0  0  0  0  0  0  0  0  0
  151.6412  143.5948  157.2665 H   0  0  0  0  0  0  0  0  0  0  0  0
  150.1793  142.9814  158.0469 H   0  0  0  0  0  0  0  0  0  0  0  0
  152.3525  144.0766  159.4529 H   0  0  0  0  0  0  0  0  0  0  0  0
  151.1680  142.9781  160.1505 H   0  0  0  0  0  0  0  0  0  0  0  0
  153.9663  142.3604  159.3190 H   0  0  0  0  0  0  0  0  0  0  0  0
  152.9284  141.4896  160.4623 H   0  0  0  0  0  0  0  0  0  0  0  0
  1  2  1  0  0  0  0
  1 21  1  0  0  0  0
  1 22  1  0  0  0  0
  1 23  1  0  0  0  0
  2  3  1  0  0  0  0
  2  4  1  0  0  0  0
  2 24  1  0  0  0  0
  3 25  1  0  0  0  0
  3 26  1  0  0  0  0
  3 27  1  0  0  0  0
  4  5  1  0  0  0  0
  4  6  1  0  0  0  0
  4 28  1  0  0  0  0
  5 29  1  0  0  0  0
  5 30  1  0  0  0  0
  5 31  1  0  0  0  0
  6  7  1  0  0  0  0
  6 32  1  0  0  0  0
  7  8  2  0  0  0  0
  7  9  1  0  0  0  0
  9 10  1  0  0  0  0
  9 33  1  0  0  0  0
  9 34  1  0  0  0  0
 10 20  1  0  0  0  0
 10 11  2  0  0  0  0
 11 12  1  0  0  0  0
 11 35  1  0  0  0  0
 12 13  1  0  0  0  0
 13 14  1  0  0  0  0
 13 20  2  0  0  0  0
 14 18  1  0  0  0  0
 14 15  1  0  0  0  0
 15 16  1  0  0  0  0
 15 36  1  0  0  0  0
 15 37  1  0  0  0  0
 16 17  1  0  0  0  0
 16 38  1  0  0  0  0
 16 39  1  0  0  0  0
 17 18  1  0  0  0  0
 17 40  1  0  0  0  0
 17 41  1  0  0  0  0
 18 19  2  0  0  0  0
M  END
> <s_m_source_file>
AV-unprocessed.smi

> <i_m_source_file_index>
1250

> <i_lp_mmshare_version>
43012

> <i_f3d_flags>
0

> <s_epik_input>
W0NIM11bQ0hdKFtDSDNdKVtDQEhdKFtDSDNdKVtOSF1DKD1PKVtDSDJdYzFbY0hdc2MobjEpTjJbQ0gyXVtDSDJdW0NIMl1DMj1P

> <s_epik_cmdline>
J2VwaWtfcHl0aG9uJywgJy1waCcsICc3LjAnLCAnLXRuJywgJzgnLCAnLW1hJywgJzIwMCcsICctbWV0YWxfYmluZGluZycsICctaW1hZScsICc8aW5maWxlLm1hZT4nLCAnLW9tYWUnLCAnPG91dGZpbGUubWFlPic=

> <r_lp_tautomer_probability>
1

> <r_epik_Ionization_Penalty>
3.03552e-05

> <r_epik_Ionization_Penalty_Charging>
0

> <r_epik_Ionization_Penalty_Neutral>
3.03552e-05

> <r_epik_State_Penalty>
-0

> <r_epik_Charging_Adjusted_Penalty>
0

> <i_epik_Tot_Q>
0

> <i_epik_Tot_abs_Q>
0

> <r_epik_Metal_State_Penalty>
-0

> <b_epik_Metal_Only>
0

> <s_lp_Force_Field>
OPLS_2005

> <r_lp_Energy>
19.4329

> <b_lp_Chiralities_Consistent>
1

> <s_lp_Variant>
AV-unprocessed.smi:1250-2

> <Gold.Version>
5.8.1

> <Gold.Id.Protein>
6NUR|6NUR_protein|mol2

> <Gold.PLP.Fitness>
47.0612

> <Gold.PLP.PLP>
-35.9193

> <Gold.PLP.part.hbond>
-3.2397

> <Gold.PLP.part.metal>
0.0000

> <Gold.PLP.part.buried>
-2.8564

> <Gold.PLP.part.nonpolar>
-29.9894

> <Gold.PLP.part.repulsive>
0.0817

> <Gold.PLP.ligand.clash>
0.0000

> <Gold.PLP.ligand.torsion>
0.4387

> <Gold.PLP.Chemscore.Hbond>
3.0000

> <Gold.PLP.Chemscore.CHOScore>
0.9865

> <Gold.PLP.Chemscore.Metal>
0.0000

> <Gold.Chemscore.Hbonds>
donor molecule, donor type, donor heavy atom, donor atom, acceptor molecule, acceptor atom, score
      L1  H     6    32       P1  7948  1.00
      P1  H  7997  8008       L1    19  1.00
      P1  H 10752 10765       L1     8  1.00
      L1  C    11    35       P1  7957  0.96

> <Gold.PLP.Chemscore.Internal.Correction>
0.0598

> <Gold.Rescore>
     Score         DG    S(hbond)    S(metal)    S(lipo)     H(rot)  DE(clash)    DE(int)     intcor
     16.71     -18.61       2.49        0.00      75.72       1.58       0.04       1.86       ----

> <Gold.Chemscore.Fitness>
16.7143

> <Gold.Chemscore.DG>
-18.6145

> <Gold.Chemscore.ZeroCoef>
-5.4800

> <Gold.Chemscore.Hbond>
2.4892

> <Gold.Chemscore.Metal>
0.0000

> <Gold.Chemscore.Lipo>
75.7191

> <Gold.Chemscore.Internal_Hbond>
0.0000

> <Gold.Chemscore.DEClash>
0.0393

> <Gold.Chemscore.DEInternal>
1.8610

> <Gold.Chemscore.Rot>
1.5775

> <Gold.Chemscore.Internal.Correction>
   9.000000E+99

> <Gold.Chemscore.Hbonds>
donor molecule, donor type, donor heavy atom, donor atom, acceptor molecule, acceptor atom, score
      L1  H     6    32       P1  7948  0.63
      P1  H  7997  8008       L1    19  0.73
      P1  H 10752 10765       L1     8  0.33

> <Gold.Chemscore.Hbond.Weighted>
-8.3139

> <Gold.Chemscore.Metal.Weighted>
-0.0000

> <Gold.Chemscore.Lipo.Weighted>
-8.8591

> <Gold.Chemscore.Internal_Hbond.Weighted>
0.0000

> <Gold.Chemscore.DEClash.Weighted>
0.0393

> <Gold.Chemscore.DEInternal.Weighted>
1.8610

> <Gold.Chemscore.Rot.Weighted>
4.0385

> <Gold.Chemscore.Internal.Correction.Weighted>
   9.000000E+99

> <Gold.Protein.RotatedTorsions>
[ 6907 6896 6895 6894 ] final  -24.17 input  -60.11 | X-H torsion
[ 7974 7965 7964 7962 ] final   69.48 input  175.53 | X-H torsion
[ 8008 7997 7996 7995 ] final  -91.03 input   59.86 | X-H torsion
[ 10167 10162 10161 10158 ] final -108.82 input  -65.29 | X-H torsion
[ 10718 10713 10712 10709 ] final  -87.01 input   66.30 | X-H torsion
[ 10763 10752 10751 10750 ] final -143.82 input  -60.55 | X-H torsion
[ 11005 11000 10999 10996 ] final  158.00 input  -57.11 | X-H torsion

> <Gold.Protein.ActiveResidues>
 VAL166  LYS551  ARG553  GLY616  TRP617  ASP618  TYR619  PRO620  LYS621  CYS622 
 ASP623  PHE694  ASN695  SER759  ASP760  ASP761  ALA762  ILE779  LEU786  VAL792 
 PHE793  MET794  SER795  GLU796  ALA797  LYS798  CYS799  TRP800  GLU811  SER814 

> <Gold.Protein.RotatedAtoms>
  151.1934  135.0412  159.8841 H   0  0  0  0  0  0  0  0  0  0  0  0  # atno 6907 bound_to 6896
  152.5438  134.0931  159.8295 H   0  0  0  0  0  0  0  0  0  0  0  0  # atno 6908 bound_to 6896
  151.1062  133.5159  159.2640 H   0  0  0  0  0  0  0  0  0  0  0  0  # atno 6909 bound_to 6896
  145.7899  139.2929  143.1216 H   0  0  0  0  0  0  0  0  0  0  0  0  # atno 7974 bound_to 7965
  154.7057  140.0524  157.0502 H   0  0  0  0  0  0  0  0  0  0  0  0  # atno 8008 bound_to 7997
  155.0623  140.3191  155.4638 H   0  0  0  0  0  0  0  0  0  0  0  0  # atno 8009 bound_to 7997
  156.2774  140.2096  156.5750 H   0  0  0  0  0  0  0  0  0  0  0  0  # atno 8010 bound_to 7997
  140.1620  143.4112  152.1418 H   0  0  0  0  0  0  0  0  0  0  0  0  # atno 10167 bound_to 10162
  155.9987  130.4785  150.4802 H   0  0  0  0  0  0  0  0  0  0  0  0  # atno 10718 bound_to 10713
  154.8454  135.3457  154.6248 H   0  0  0  0  0  0  0  0  0  0  0  0  # atno 10763 bound_to 10752
  153.6857  135.6977  153.5109 H   0  0  0  0  0  0  0  0  0  0  0  0  # atno 10764 bound_to 10752
  153.2633  135.4316  155.0872 H   0  0  0  0  0  0  0  0  0  0  0  0  # atno 10765 bound_to 10752
  140.1824  134.8466  157.2818 H   0  0  0  0  0  0  0  0  0  0  0  0  # atno 11005 bound_to 11000
  145.9987  140.8539  143.0029 LP  0  0  0  0  0  0  0  0  0  0  0  0  # atno 17320 bound_to 7965
  144.6783  140.2321  143.7354 LP  0  0  0  0  0  0  0  0  0  0  0  0  # atno 17321 bound_to 7965
  139.5377  144.7226  151.4838 LP  0  0  0  0  0  0  0  0  0  0  0  0  # atno 17342 bound_to 10162
  140.6637  143.8444  150.6917 LP  0  0  0  0  0  0  0  0  0  0  0  0  # atno 17343 bound_to 10162
  157.2808  131.0606  151.2198 LP  0  0  0  0  0  0  0  0  0  0  0  0  # atno 17370 bound_to 10713
  157.3245  130.6954  149.6288 LP  0  0  0  0  0  0  0  0  0  0  0  0  # atno 17371 bound_to 10713
  140.2253  134.3975  155.7547 LP  0  0  0  0  0  0  0  0  0  0  0  0  # atno 17394 bound_to 11000
  141.2223  133.7186  156.8554 LP  0  0  0  0  0  0  0  0  0  0  0  0  # atno 17395 bound_to 11000

$$$$
