AV-unprocessed.smi:1881|AV-procd|sdf|7640|dock7
  -GOLD-   22720 9363D 1   1.00000     0.00000
 Structure written by MMmdl.
 51 52  0  0  0  0  0  0  0  0  2 V2000
  136.5749  139.0387  154.0554 C   0  0  0  0  0  0  0  0  0  0  0  0
  136.7601  140.5767  154.0140 C   0  0  0  0  0  0  0  0  0  0  0  0
  136.2316  141.0266  152.6250 C   0  0  0  0  0  0  0  0  0  0  0  0
  135.8844  141.3090  155.0569 C   0  0  0  0  0  0  0  0  0  0  0  0
  138.2609  140.9957  154.1493 C   0  0  0  0  0  0  0  0  0  0  0  0
  138.5546  141.7668  155.0659 O   0  0  0  0  0  0  0  0  0  0  0  0
  139.2336  140.5508  153.3035 N   0  0  0  0  0  0  0  0  0  0  0  0
  140.6718  140.8507  153.3223 C   0  0  0  0  0  0  0  0  0  0  0  0
  141.4421  139.5955  153.7718 C   0  0  0  0  0  0  0  0  0  0  0  0
  141.1410  138.3977  152.8414 C   0  0  0  0  0  0  0  0  0  0  0  0
  141.7864  137.1147  153.3792 C   0  0  0  0  0  0  0  0  0  0  0  0
  141.4012  136.6240  154.4410 O   0  0  0  0  0  0  0  0  0  0  0  0
  142.7860  136.5950  152.6485 N   0  0  0  0  0  0  0  0  0  0  0  0
  143.5526  135.3985  152.9880 C   0  0  0  0  0  0  0  0  0  0  0  0
  142.7574  134.0938  152.7763 C   0  0  0  0  0  0  0  0  0  0  0  0
  143.5180  133.0239  152.0111 C   0  0  0  0  0  0  0  0  0  0  0  0
  144.7531  132.5156  152.4678 C   0  0  0  0  0  0  0  0  0  0  0  0
  145.4294  131.5497  151.6942 C   0  0  0  0  0  0  0  0  0  0  0  0
  144.8582  131.1127  150.4812 C   0  0  0  0  0  0  0  0  0  0  0  0
  143.6222  131.6530  150.0723 C   0  0  0  0  0  0  0  0  0  0  0  0
  143.0043  132.5756  150.8419 N   0  3  0  0  0  0  0  0  0  0  0  0
  139.6170  138.2210  152.6489 C   0  0  0  0  0  0  0  0  0  0  0  0
  138.9519  139.5529  152.2573 C   0  0  0  0  0  0  0  0  0  0  0  0
  135.6541  138.7370  153.5550 H   0  0  0  0  0  0  0  0  0  0  0  0
  136.4962  138.6365  155.0624 H   0  0  0  0  0  0  0  0  0  0  0  0
  137.3914  138.5216  153.5495 H   0  0  0  0  0  0  0  0  0  0  0  0
  136.7857  140.5589  151.8095 H   0  0  0  0  0  0  0  0  0  0  0  0
  136.2951  142.1081  152.4927 H   0  0  0  0  0  0  0  0  0  0  0  0
  135.1825  140.7598  152.4903 H   0  0  0  0  0  0  0  0  0  0  0  0
  134.8257  141.1187  154.8776 H   0  0  0  0  0  0  0  0  0  0  0  0
  136.0297  142.3888  155.0035 H   0  0  0  0  0  0  0  0  0  0  0  0
  136.0803  141.0135  156.0842 H   0  0  0  0  0  0  0  0  0  0  0  0
  140.9898  141.1339  152.3179 H   0  0  0  0  0  0  0  0  0  0  0  0
  140.9483  141.6966  153.9369 H   0  0  0  0  0  0  0  0  0  0  0  0
  142.5126  139.8050  153.7755 H   0  0  0  0  0  0  0  0  0  0  0  0
  141.1727  139.3550  154.8013 H   0  0  0  0  0  0  0  0  0  0  0  0
  141.5731  138.6202  151.8639 H   0  0  0  0  0  0  0  0  0  0  0  0
  143.0309  137.0617  151.7869 H   0  0  0  0  0  0  0  0  0  0  0  0
  144.4844  135.3665  152.4207 H   0  0  0  0  0  0  0  0  0  0  0  0
  143.8422  135.4769  154.0361 H   0  0  0  0  0  0  0  0  0  0  0  0
  142.4661  133.6864  153.7450 H   0  0  0  0  0  0  0  0  0  0  0  0
  141.8265  134.3122  152.2511 H   0  0  0  0  0  0  0  0  0  0  0  0
  145.1831  132.8678  153.3941 H   0  0  0  0  0  0  0  0  0  0  0  0
  146.3776  131.1518  152.0252 H   0  0  0  0  0  0  0  0  0  0  0  0
  145.3624  130.3760  149.8731 H   0  0  0  0  0  0  0  0  0  0  0  0
  143.1150  131.3803  149.1584 H   0  0  0  0  0  0  0  0  0  0  0  0
  139.4217  137.4727  151.8798 H   0  0  0  0  0  0  0  0  0  0  0  0
  139.1555  137.8497  153.5657 H   0  0  0  0  0  0  0  0  0  0  0  0
  137.8880  139.3900  152.0828 H   0  0  0  0  0  0  0  0  0  0  0  0
  139.3455  139.9016  151.3013 H   0  0  0  0  0  0  0  0  0  0  0  0
  142.1145  132.9589  150.5229 H   0  0  0  0  0  0  0  0  0  0  0  0
  1  2  1  0  0  0  0
  1 24  1  0  0  0  0
  1 25  1  0  0  0  0
  1 26  1  0  0  0  0
  2  3  1  0  0  0  0
  2  4  1  0  0  0  0
  2  5  1  0  0  0  0
  3 27  1  0  0  0  0
  3 28  1  0  0  0  0
  3 29  1  0  0  0  0
  4 30  1  0  0  0  0
  4 31  1  0  0  0  0
  4 32  1  0  0  0  0
  5  6  2  0  0  0  0
  5  7  1  0  0  0  0
  7 23  1  0  0  0  0
  7  8  1  0  0  0  0
  8  9  1  0  0  0  0
  8 33  1  0  0  0  0
  8 34  1  0  0  0  0
  9 10  1  0  0  0  0
  9 35  1  0  0  0  0
  9 36  1  0  0  0  0
 10 11  1  0  0  0  0
 10 22  1  0  0  0  0
 10 37  1  0  0  0  0
 11 12  2  0  0  0  0
 11 13  1  0  0  0  0
 13 14  1  0  0  0  0
 13 38  1  0  0  0  0
 14 15  1  0  0  0  0
 14 39  1  0  0  0  0
 14 40  1  0  0  0  0
 15 16  1  0  0  0  0
 15 41  1  0  0  0  0
 15 42  1  0  0  0  0
 16 21  1  0  0  0  0
 16 17  2  0  0  0  0
 17 18  1  0  0  0  0
 17 43  1  0  0  0  0
 18 19  2  0  0  0  0
 18 44  1  0  0  0  0
 19 20  1  0  0  0  0
 19 45  1  0  0  0  0
 20 21  2  0  0  0  0
 20 46  1  0  0  0  0
 21 51  1  0  0  0  0
 22 23  1  0  0  0  0
 22 47  1  0  0  0  0
 22 48  1  0  0  0  0
 23 49  1  0  0  0  0
 23 50  1  0  0  0  0
M  CHG  1  21   1
M  END
> <s_m_source_file>
AV-unprocessed.smi

> <i_m_source_file_index>
1881

> <i_lp_mmshare_version>
43012

> <i_f3d_flags>
0

> <s_epik_input>
W0NIM11DKFtDSDNdKShbQ0gzXSlDKD1PKU4xW0NIMl1bQ0gyXVtDSF0oW0NIMl1bQ0gyXTEpQyg9TylbTkhdW0NIMl1bQ0gyXWMyW2NIXVtjSF1bY0hdW2NIXW4y

> <s_epik_cmdline>
J2VwaWtfcHl0aG9uJywgJy1waCcsICc3LjAnLCAnLXRuJywgJzgnLCAnLW1hJywgJzIwMCcsICctbWV0YWxfYmluZGluZycsICctaW1hZScsICc8aW5maWxlLm1hZT4nLCAnLW9tYWUnLCAnPG91dGZpbGUubWFlPic=

> <r_epik_Ionization_Penalty>
1.84673

> <r_epik_Ionization_Penalty_Charging>
1.84673

> <r_epik_Ionization_Penalty_Neutral>
1.24553e-07

> <r_epik_State_Penalty>
1.9639

> <r_epik_Charging_Adjusted_Penalty>
3.81063

> <i_epik_Tot_Q>
1

> <i_epik_Tot_abs_Q>
1

> <r_epik_Metal_State_Penalty>
1.98977

> <b_epik_Metal_Only>
0

> <s_lp_Force_Field>
OPLS_2005

> <r_lp_Energy>
43.8057

> <b_lp_Chiralities_Consistent>
1

> <s_lp_Variant>
AV-unprocessed.smi:1881-2

> <Gold.Version>
5.8.1

> <Gold.Id.Protein>
6NUR|6NUR_protein|mol2

> <Gold.PLP.Fitness>
45.3762

> <Gold.PLP.PLP>
-39.1108

> <Gold.PLP.part.hbond>
-2.0000

> <Gold.PLP.part.metal>
0.0000

> <Gold.PLP.part.buried>
-5.5154

> <Gold.PLP.part.nonpolar>
-31.8982

> <Gold.PLP.part.repulsive>
0.1311

> <Gold.PLP.ligand.clash>
0.0000

> <Gold.PLP.ligand.torsion>
0.5042

> <Gold.PLP.Chemscore.Hbond>
2.3913

> <Gold.PLP.Chemscore.CHOScore>
0.0000

> <Gold.PLP.Chemscore.Metal>
0.0000

> <Gold.Chemscore.Hbonds>
donor molecule, donor type, donor heavy atom, donor atom, acceptor molecule, acceptor atom, score
      L1  H    21    51       P1 10186  1.82

> <Gold.PLP.Chemscore.Internal.Correction>
0.0999

> <Gold.Rescore>
     Score         DG    S(hbond)    S(metal)    S(lipo)     H(rot)  DE(clash)    DE(int)     intcor
     18.23     -19.68       1.70        0.00     108.87       1.65       0.21       1.24       ----

> <Gold.Chemscore.Fitness>
18.2264

> <Gold.Chemscore.DG>
-19.6762

> <Gold.Chemscore.ZeroCoef>
-5.4800

> <Gold.Chemscore.Hbond>
1.7045

> <Gold.Chemscore.Metal>
0.0000

> <Gold.Chemscore.Lipo>
108.8667

> <Gold.Chemscore.Internal_Hbond>
0.0000

> <Gold.Chemscore.DEClash>
0.2063

> <Gold.Chemscore.DEInternal>
1.2435

> <Gold.Chemscore.Rot>
1.6540

> <Gold.Chemscore.Internal.Correction>
   9.000000E+99

> <Gold.Chemscore.Hbonds>
donor molecule, donor type, donor heavy atom, donor atom, acceptor molecule, acceptor atom, score
      L1  H    21    51       P1 10186  0.84

> <Gold.Chemscore.Hbond.Weighted>
-5.6930

> <Gold.Chemscore.Metal.Weighted>
-0.0000

> <Gold.Chemscore.Lipo.Weighted>
-12.7374

> <Gold.Chemscore.Internal_Hbond.Weighted>
0.0000

> <Gold.Chemscore.DEClash.Weighted>
0.2063

> <Gold.Chemscore.DEInternal.Weighted>
1.2435

> <Gold.Chemscore.Rot.Weighted>
4.2342

> <Gold.Chemscore.Internal.Correction.Weighted>
   9.000000E+99

> <Gold.Protein.RotatedTorsions>
[ 6907 6896 6895 6894 ] final  -58.53 input  -60.11 | X-H torsion
[ 7974 7965 7964 7962 ] final -120.30 input  175.53 | X-H torsion
[ 8008 7997 7996 7995 ] final  -27.30 input   59.86 | X-H torsion
[ 10167 10162 10161 10158 ] final  -39.03 input  -65.29 | X-H torsion
[ 10718 10713 10712 10709 ] final  158.35 input   66.30 | X-H torsion
[ 10763 10752 10751 10750 ] final  -91.11 input  -60.55 | X-H torsion
[ 11005 11000 10999 10996 ] final   38.89 input  -57.11 | X-H torsion

> <Gold.Protein.ActiveResidues>
 VAL166  LYS551  ARG553  GLY616  TRP617  ASP618  TYR619  PRO620  LYS621  CYS622 
 ASP623  PHE694  ASN695  SER759  ASP760  ASP761  ALA762  ILE779  LEU786  VAL792 
 PHE793  MET794  SER795  GLU796  ALA797  LYS798  CYS799  TRP800  GLU811  SER814 

> <Gold.Protein.RotatedAtoms>
  150.8000  134.7087  159.6590 H   0  0  0  0  0  0  0  0  0  0  0  0  # atno 6907 bound_to 6896
  152.4116  134.6111  160.0035 H   0  0  0  0  0  0  0  0  0  0  0  0  # atno 6908 bound_to 6896
  151.6352  133.3292  159.3154 H   0  0  0  0  0  0  0  0  0  0  0  0  # atno 6909 bound_to 6896
  145.0529  140.8232  143.4198 H   0  0  0  0  0  0  0  0  0  0  0  0  # atno 7974 bound_to 7965
  154.4384  140.1876  156.0911 H   0  0  0  0  0  0  0  0  0  0  0  0  # atno 8008 bound_to 7997
  156.0365  140.3324  155.7171 H   0  0  0  0  0  0  0  0  0  0  0  0  # atno 8009 bound_to 7997
  155.5762  140.0617  157.2785 H   0  0  0  0  0  0  0  0  0  0  0  0  # atno 8010 bound_to 7997
  140.7076  143.3240  151.2725 H   0  0  0  0  0  0  0  0  0  0  0  0  # atno 10167 bound_to 10162
  157.1791  131.0628  151.2141 H   0  0  0  0  0  0  0  0  0  0  0  0  # atno 10718 bound_to 10713
  154.6727  135.5280  153.8159 H   0  0  0  0  0  0  0  0  0  0  0  0  # atno 10763 bound_to 10752
  153.0512  135.6533  154.0699 H   0  0  0  0  0  0  0  0  0  0  0  0  # atno 10764 bound_to 10752
  154.0596  135.2963  155.3307 H   0  0  0  0  0  0  0  0  0  0  0  0  # atno 10765 bound_to 10752
  140.2082  134.3788  155.8062 H   0  0  0  0  0  0  0  0  0  0  0  0  # atno 11005 bound_to 11000
  145.1504  139.2518  143.5444 LP  0  0  0  0  0  0  0  0  0  0  0  0  # atno 17320 bound_to 7965
  146.3519  140.1205  142.8600 LP  0  0  0  0  0  0  0  0  0  0  0  0  # atno 17321 bound_to 7965
  139.6702  144.0033  152.2748 LP  0  0  0  0  0  0  0  0  0  0  0  0  # atno 17342 bound_to 10162
  139.9629  144.6545  150.8062 LP  0  0  0  0  0  0  0  0  0  0  0  0  # atno 17343 bound_to 10162
  157.3969  130.7312  149.6738 LP  0  0  0  0  0  0  0  0  0  0  0  0  # atno 17370 bound_to 10713
  155.9727  130.4131  150.4066 LP  0  0  0  0  0  0  0  0  0  0  0  0  # atno 17371 bound_to 10713
  141.2226  133.7129  156.8372 LP  0  0  0  0  0  0  0  0  0  0  0  0  # atno 17394 bound_to 11000
  140.1980  134.8918  157.3136 LP  0  0  0  0  0  0  0  0  0  0  0  0  # atno 17395 bound_to 11000

$$$$
