AV-unprocessed.smi:385|AV-procd|sdf|2472|dock10
  -GOLD-   2262022413D 1   1.00000     0.00000
 Structure written by MMmdl.
 38 39  0  0  0  0  0  0  0  0  3 V2000
  148.4287  141.6361  153.7761 O   0  0  0  0  0  0  0  0  0  0  0  0
  148.6340  140.4742  154.1269 C   0  0  0  0  0  0  0  0  0  0  0  0
  149.6048  140.1265  154.9856 N   0  0  0  0  0  0  0  0  0  0  0  0
  150.5380  141.0519  155.6226 C   0  0  0  0  0  0  0  0  0  0  0  0
  150.2134  141.3186  157.1072 C   0  0  0  0  0  0  0  0  0  0  0  0
  151.1085  142.3641  157.7498 C   0  0  0  0  0  0  0  0  0  0  0  0
  152.0854  142.0267  158.7123 C   0  0  0  0  0  0  0  0  0  0  0  0
  152.8896  143.0451  159.2644 C   0  0  0  0  0  0  0  0  0  0  0  0
  152.7009  144.3777  158.8433 C   0  0  0  0  0  0  0  0  0  0  0  0
  151.7099  144.6587  157.8805 C   0  0  0  0  0  0  0  0  0  0  0  0
  150.9590  143.6552  157.3752 N   0  3  0  0  0  0  0  0  0  0  0  0
  147.7518  139.3381  153.5934 C   0  0  0  0  0  0  0  0  0  0  0  0
  147.4323  139.5353  152.0968 C   0  0  0  0  0  0  0  0  0  0  0  0
  146.5044  138.4235  151.5782 C   0  0  0  0  0  0  0  0  0  0  0  0
  145.2656  138.3574  152.3835 N   0  3  0  0  0  0  0  0  0  0  0  0
  145.5252  138.1358  153.8228 C   0  0  0  0  0  0  0  0  0  0  0  0
  146.4340  139.2400  154.3902 C   0  0  0  0  0  0  0  0  0  0  0  0
  149.7074  139.1481  155.2142 H   0  0  0  0  0  0  0  0  0  0  0  0
  151.5314  140.6093  155.5452 H   0  0  0  0  0  0  0  0  0  0  0  0
  150.5765  141.9901  155.0670 H   0  0  0  0  0  0  0  0  0  0  0  0
  149.1736  141.6324  157.2051 H   0  0  0  0  0  0  0  0  0  0  0  0
  150.2982  140.3907  157.6742 H   0  0  0  0  0  0  0  0  0  0  0  0
  152.2195  141.0002  159.0220 H   0  0  0  0  0  0  0  0  0  0  0  0
  153.6421  142.8065  160.0020 H   0  0  0  0  0  0  0  0  0  0  0  0
  153.3062  145.1725  159.2542 H   0  0  0  0  0  0  0  0  0  0  0  0
  151.4961  145.6479  157.5024 H   0  0  0  0  0  0  0  0  0  0  0  0
  148.2919  138.3963  153.7071 H   0  0  0  0  0  0  0  0  0  0  0  0
  146.9559  140.5037  151.9348 H   0  0  0  0  0  0  0  0  0  0  0  0
  148.3538  139.5435  151.5131 H   0  0  0  0  0  0  0  0  0  0  0  0
  146.2419  138.6054  150.5358 H   0  0  0  0  0  0  0  0  0  0  0  0
  147.0104  137.4578  151.6156 H   0  0  0  0  0  0  0  0  0  0  0  0
  144.7669  139.2295  152.2772 H   0  0  0  0  0  0  0  0  0  0  0  0
  144.5747  138.1164  154.3565 H   0  0  0  0  0  0  0  0  0  0  0  0
  145.9868  137.1569  153.9585 H   0  0  0  0  0  0  0  0  0  0  0  0
  146.6439  139.0361  155.4412 H   0  0  0  0  0  0  0  0  0  0  0  0
  145.9019  140.1925  154.3612 H   0  0  0  0  0  0  0  0  0  0  0  0
  144.6867  137.6067  152.0346 H   0  0  0  0  0  0  0  0  0  0  0  0
  150.2475  143.8820  156.6799 H   0  0  0  0  0  0  0  0  0  0  0  0
  1  2  2  0  0  0  0
  2  3  1  0  0  0  0
  2 12  1  0  0  0  0
  3  4  1  0  0  0  0
  3 18  1  0  0  0  0
  4  5  1  0  0  0  0
  4 19  1  0  0  0  0
  4 20  1  0  0  0  0
  5  6  1  0  0  0  0
  5 21  1  0  0  0  0
  5 22  1  0  0  0  0
  6 11  1  0  0  0  0
  6  7  2  0  0  0  0
  7  8  1  0  0  0  0
  7 23  1  0  0  0  0
  8  9  2  0  0  0  0
  8 24  1  0  0  0  0
  9 10  1  0  0  0  0
  9 25  1  0  0  0  0
 10 11  2  0  0  0  0
 10 26  1  0  0  0  0
 11 38  1  0  0  0  0
 12 17  1  0  0  0  0
 12 13  1  0  0  0  0
 12 27  1  0  0  0  0
 13 14  1  0  0  0  0
 13 28  1  0  0  0  0
 13 29  1  0  0  0  0
 14 15  1  0  0  0  0
 14 30  1  0  0  0  0
 14 31  1  0  0  0  0
 15 16  1  0  0  0  0
 15 32  1  0  0  0  0
 15 37  1  0  0  0  0
 16 17  1  0  0  0  0
 16 33  1  0  0  0  0
 16 34  1  0  0  0  0
 17 35  1  0  0  0  0
 17 36  1  0  0  0  0
M  CHG  1  11   1
M  CHG  1  15   1
M  END
> <s_m_source_file>
AV-unprocessed.smi

> <i_m_source_file_index>
385

> <i_lp_mmshare_version>
43012

> <i_f3d_flags>
0

> <s_epik_input>
W0NIMl0xW0NIMl1bTkhdW0NIMl1bQ0gyXVtDSF0xQyg9TylbTkhdW0NIMl1bQ0gyXWMyW2NIXVtjSF1bY0hdW2NIXW4y

> <s_epik_cmdline>
J2VwaWtfcHl0aG9uJywgJy1waCcsICc3LjAnLCAnLXRuJywgJzgnLCAnLW1hJywgJzIwMCcsICctbWV0YWxfYmluZGluZycsICctaW1hZScsICc8aW5maWxlLm1hZT4nLCAnLW9tYWUnLCAnPG91dGZpbGUubWFlPic=

> <r_epik_Ionization_Penalty>
1.95053

> <r_epik_Ionization_Penalty_Charging>
1.95053

> <r_epik_Ionization_Penalty_Neutral>
3.30626e-08

> <r_epik_State_Penalty>
2.07441

> <r_epik_Charging_Adjusted_Penalty>
4.02494

> <i_epik_Tot_Q>
2

> <i_epik_Tot_abs_Q>
2

> <r_epik_Metal_State_Penalty>
2.09624

> <b_epik_Metal_Only>
0

> <s_lp_Force_Field>
OPLS_2005

> <r_lp_Energy>
22.1472

> <b_lp_Chiralities_Consistent>
1

> <s_lp_Variant>
AV-unprocessed.smi:385-2

> <Gold.Version>
5.8.1

> <Gold.Id.Protein>
6NUR|6NUR_protein|mol2

> <Gold.PLP.Fitness>
46.8811

> <Gold.PLP.PLP>
-35.1961

> <Gold.PLP.part.hbond>
-4.0000

> <Gold.PLP.part.metal>
0.0000

> <Gold.PLP.part.buried>
3.8095

> <Gold.PLP.part.nonpolar>
-33.6836

> <Gold.PLP.part.repulsive>
0.2866

> <Gold.PLP.ligand.clash>
0.0000

> <Gold.PLP.ligand.torsion>
0.8004

> <Gold.PLP.Chemscore.Hbond>
4.4248

> <Gold.PLP.Chemscore.CHOScore>
0.0000

> <Gold.PLP.Chemscore.Metal>
0.0000

> <Gold.Chemscore.Hbonds>
donor molecule, donor type, donor heavy atom, donor atom, acceptor molecule, acceptor atom, score
      L1  H    11    38       P1  8028  2.00
      L1  H    15    32       P1 10175  2.00
      P1  H  8011  8017       L1     1  0.46

> <Gold.PLP.Chemscore.Internal.Correction>
0.0112

> <Gold.Rescore>
     Score         DG    S(hbond)    S(metal)    S(lipo)     H(rot)  DE(clash)    DE(int)     intcor
     18.90     -21.60       2.47        0.00     103.93       1.67       1.95       0.75       ----

> <Gold.Chemscore.Fitness>
18.9036

> <Gold.Chemscore.DG>
-21.6034

> <Gold.Chemscore.ZeroCoef>
-5.4800

> <Gold.Chemscore.Hbond>
2.4673

> <Gold.Chemscore.Metal>
0.0000

> <Gold.Chemscore.Lipo>
103.9291

> <Gold.Chemscore.Internal_Hbond>
0.0000

> <Gold.Chemscore.DEClash>
1.9493

> <Gold.Chemscore.DEInternal>
0.7505

> <Gold.Chemscore.Rot>
1.6708

> <Gold.Chemscore.Internal.Correction>
   9.000000E+99

> <Gold.Chemscore.Hbonds>
donor molecule, donor type, donor heavy atom, donor atom, acceptor molecule, acceptor atom, score
      L1  H    11    38       P1  8028  1.00
      L1  H    15    32       P1 10175  1.00
      P1  H  8011  8017       L1     1  0.42

> <Gold.Chemscore.Hbond.Weighted>
-8.2409

> <Gold.Chemscore.Metal.Weighted>
-0.0000

> <Gold.Chemscore.Lipo.Weighted>
-12.1597

> <Gold.Chemscore.Internal_Hbond.Weighted>
0.0000

> <Gold.Chemscore.DEClash.Weighted>
1.9493

> <Gold.Chemscore.DEInternal.Weighted>
0.7505

> <Gold.Chemscore.Rot.Weighted>
4.2772

> <Gold.Chemscore.Internal.Correction.Weighted>
   9.000000E+99

> <Gold.Protein.RotatedTorsions>
[ 6907 6896 6895 6894 ] final -142.82 input  -60.11 | X-H torsion
[ 7974 7965 7964 7962 ] final   83.19 input  175.53 | X-H torsion
[ 8008 7997 7996 7995 ] final  -71.99 input   59.86 | X-H torsion
[ 10167 10162 10161 10158 ] final   47.56 input  -65.29 | X-H torsion
[ 10718 10713 10712 10709 ] final -175.60 input   66.30 | X-H torsion
[ 10763 10752 10751 10750 ] final  120.15 input  -60.55 | X-H torsion
[ 11005 11000 10999 10996 ] final  170.28 input  -57.11 | X-H torsion

> <Gold.Protein.ActiveResidues>
 VAL166  LYS551  ARG553  GLY616  TRP617  ASP618  TYR619  PRO620  LYS621  CYS622 
 ASP623  PHE694  ASN695  SER759  ASP760  ASP761  ALA762  ILE779  LEU786  VAL792 
 PHE793  MET794  SER795  GLU796  ALA797  LYS798  CYS799  TRP800  GLU811  SER814 

> <Gold.Protein.RotatedAtoms>
  151.0921  133.5308  159.2614 H   0  0  0  0  0  0  0  0  0  0  0  0  # atno 6907 bound_to 6896
  151.2171  135.0503  159.8944 H   0  0  0  0  0  0  0  0  0  0  0  0  # atno 6908 bound_to 6896
  152.5435  134.0729  159.8255 H   0  0  0  0  0  0  0  0  0  0  0  0  # atno 6909 bound_to 6896
  145.6152  139.2375  143.2170 H   0  0  0  0  0  0  0  0  0  0  0  0  # atno 7974 bound_to 7965
  154.5131  140.0805  156.8029 H   0  0  0  0  0  0  0  0  0  0  0  0  # atno 8008 bound_to 7997
  155.3740  140.3424  155.4226 H   0  0  0  0  0  0  0  0  0  0  0  0  # atno 8009 bound_to 7997
  156.1596  140.1584  156.8621 H   0  0  0  0  0  0  0  0  0  0  0  0  # atno 8010 bound_to 7997
  140.3023  144.2919  150.6216 H   0  0  0  0  0  0  0  0  0  0  0  0  # atno 10167 bound_to 10162
  156.8022  130.9556  151.3118 H   0  0  0  0  0  0  0  0  0  0  0  0  # atno 10718 bound_to 10713
  153.5940  135.3460  155.2921 H   0  0  0  0  0  0  0  0  0  0  0  0  # atno 10763 bound_to 10752
  154.8647  135.4211  154.2485 H   0  0  0  0  0  0  0  0  0  0  0  0  # atno 10764 bound_to 10752
  153.3299  135.7043  153.7028 H   0  0  0  0  0  0  0  0  0  0  0  0  # atno 10765 bound_to 10752
  140.3067  134.7550  157.3959 H   0  0  0  0  0  0  0  0  0  0  0  0  # atno 11005 bound_to 11000
  146.1474  140.6973  142.9338 LP  0  0  0  0  0  0  0  0  0  0  0  0  # atno 17320 bound_to 7965
  144.7253  140.4506  143.6977 LP  0  0  0  0  0  0  0  0  0  0  0  0  # atno 17321 bound_to 7965
  140.5640  143.2188  151.7716 LP  0  0  0  0  0  0  0  0  0  0  0  0  # atno 17342 bound_to 10162
  139.4912  144.4309  151.9873 LP  0  0  0  0  0  0  0  0  0  0  0  0  # atno 17343 bound_to 10162
  157.6548  130.8915  149.9706 LP  0  0  0  0  0  0  0  0  0  0  0  0  # atno 17370 bound_to 10713
  156.1094  130.3651  150.0075 LP  0  0  0  0  0  0  0  0  0  0  0  0  # atno 17371 bound_to 10713
  140.1061  134.5408  155.8308 LP  0  0  0  0  0  0  0  0  0  0  0  0  # atno 17394 bound_to 11000
  141.2117  133.6709  156.6601 LP  0  0  0  0  0  0  0  0  0  0  0  0  # atno 17395 bound_to 11000

$$$$
