AV-unprocessed.smi:460|AV-procd|sdf|2629|dock5
  -GOLD-   2262023 33D 1   1.00000     0.00000
 Structure written by MMmdl.
 47 49  0  0  0  0  0  0  0  0  2 V2000
  150.2207  135.2235  154.6350 C   0  0  0  0  0  0  0  0  0  0  0  0
  150.9019  136.1558  155.6469 C   0  0  0  0  0  0  0  0  0  0  0  0
  151.4815  137.4380  155.0203 C   0  0  1  0  0  0  0  0  0  0  0  0
  152.2030  137.0802  153.8605 O   0  0  0  0  0  0  0  0  0  0  0  0
  150.4117  138.4435  154.7154 C   0  0  0  0  0  0  0  0  0  0  0  0
  149.4285  138.2960  153.7819 N   0  3  0  0  0  0  0  0  0  0  0  0
  148.6162  139.4295  153.7644 C   0  0  0  0  0  0  0  0  0  0  0  0
  147.5050  139.7423  152.9877 C   0  0  0  0  0  0  0  0  0  0  0  0
  146.9052  140.9978  153.2184 C   0  0  0  0  0  0  0  0  0  0  0  0
  147.4123  141.8864  154.1888 C   0  0  0  0  0  0  0  0  0  0  0  0
  148.5390  141.5570  154.9711 C   0  0  0  0  0  0  0  0  0  0  0  0
  149.1244  140.3128  154.7383 C   0  0  0  0  0  0  0  0  0  0  0  0
  150.2247  139.6609  155.3057 N   0  0  0  0  0  0  0  0  0  0  0  0
  150.9865  140.3373  156.3663 C   0  0  0  0  0  0  0  0  0  0  0  0
  150.2080  140.3896  157.6879 C   0  0  0  0  0  0  0  0  0  0  0  0
  151.0732  140.8691  158.7085 O   0  0  0  0  0  0  0  0  0  0  0  0
  151.3864  142.2111  158.7365 C   0  0  0  0  0  0  0  0  0  0  0  0
  151.1958  143.0855  157.6370 C   0  0  0  0  0  0  0  0  0  0  0  0
  151.5388  144.4458  157.7399 C   0  0  0  0  0  0  0  0  0  0  0  0
  152.0743  144.9462  158.9389 C   0  0  0  0  0  0  0  0  0  0  0  0
  152.2665  144.0870  160.0360 C   0  0  0  0  0  0  0  0  0  0  0  0
  151.9243  142.7139  159.9437 C   0  0  0  0  0  0  0  0  0  0  0  0
  152.0885  141.8139  160.9768 O   0  0  0  0  0  0  0  0  0  0  0  0
  152.5758  142.2979  162.2198 C   0  0  0  0  0  0  0  0  0  0  0  0
  149.7958  134.3541  155.1369 H   0  0  0  0  0  0  0  0  0  0  0  0
  150.9241  134.8586  153.8861 H   0  0  0  0  0  0  0  0  0  0  0  0
  149.4100  135.7341  154.1148 H   0  0  0  0  0  0  0  0  0  0  0  0
  150.1694  136.4290  156.4076 H   0  0  0  0  0  0  0  0  0  0  0  0
  151.6888  135.6082  156.1673 H   0  0  0  0  0  0  0  0  0  0  0  0
  152.2005  137.8788  155.7105 H   0  0  0  0  0  0  0  0  0  0  0  0
  151.5835  136.8667  153.1786 H   0  0  0  0  0  0  0  0  0  0  0  0
  147.1168  139.0640  152.2419 H   0  0  0  0  0  0  0  0  0  0  0  0
  146.0401  141.2855  152.6383 H   0  0  0  0  0  0  0  0  0  0  0  0
  146.9278  142.8408  154.3363 H   0  0  0  0  0  0  0  0  0  0  0  0
  148.9205  142.2462  155.7098 H   0  0  0  0  0  0  0  0  0  0  0  0
  151.9469  139.8370  156.4935 H   0  0  0  0  0  0  0  0  0  0  0  0
  151.2127  141.3470  156.0244 H   0  0  0  0  0  0  0  0  0  0  0  0
  149.3480  141.0525  157.5797 H   0  0  0  0  0  0  0  0  0  0  0  0
  149.8400  139.3933  157.9367 H   0  0  0  0  0  0  0  0  0  0  0  0
  150.7849  142.7372  156.7017 H   0  0  0  0  0  0  0  0  0  0  0  0
  151.3900  145.1057  156.8980 H   0  0  0  0  0  0  0  0  0  0  0  0
  152.3380  145.9907  159.0181 H   0  0  0  0  0  0  0  0  0  0  0  0
  152.6804  144.5077  160.9397 H   0  0  0  0  0  0  0  0  0  0  0  0
  152.6429  141.4707  162.9260 H   0  0  0  0  0  0  0  0  0  0  0  0
  151.9047  143.0430  162.6489 H   0  0  0  0  0  0  0  0  0  0  0  0
  153.5742  142.7251  162.1175 H   0  0  0  0  0  0  0  0  0  0  0  0
  149.3314  137.4771  153.1955 H   0  0  0  0  0  0  0  0  0  0  0  0
  1  2  1  0  0  0  0
  1 25  1  0  0  0  0
  1 26  1  0  0  0  0
  1 27  1  0  0  0  0
  2  3  1  0  0  0  0
  2 28  1  0  0  0  0
  2 29  1  0  0  0  0
  3  4  1  0  0  0  0
  3  5  1  0  0  0  0
  3 30  1  0  0  0  0
  4 31  1  0  0  0  0
  5 13  1  0  0  0  0
  5  6  2  0  0  0  0
  6  7  1  0  0  0  0
  6 47  1  0  0  0  0
  7 12  2  0  0  0  0
  7  8  1  0  0  0  0
  8  9  2  0  0  0  0
  8 32  1  0  0  0  0
  9 10  1  0  0  0  0
  9 33  1  0  0  0  0
 10 11  2  0  0  0  0
 10 34  1  0  0  0  0
 11 12  1  0  0  0  0
 11 35  1  0  0  0  0
 12 13  1  0  0  0  0
 13 14  1  0  0  0  0
 14 15  1  0  0  0  0
 14 36  1  0  0  0  0
 14 37  1  0  0  0  0
 15 16  1  0  0  0  0
 15 38  1  0  0  0  0
 15 39  1  0  0  0  0
 16 17  1  0  0  0  0
 17 22  1  0  0  0  0
 17 18  2  0  0  0  0
 18 19  1  0  0  0  0
 18 40  1  0  0  0  0
 19 20  2  0  0  0  0
 19 41  1  0  0  0  0
 20 21  1  0  0  0  0
 20 42  1  0  0  0  0
 21 22  2  0  0  0  0
 21 43  1  0  0  0  0
 22 23  1  0  0  0  0
 23 24  1  0  0  0  0
 24 44  1  0  0  0  0
 24 45  1  0  0  0  0
 24 46  1  0  0  0  0
M  CHG  1   6   1
M  END
> <s_m_source_file>
AV-unprocessed.smi

> <i_m_source_file_index>
460

> <i_lp_mmshare_version>
43012

> <i_f3d_flags>
0

> <s_epik_input>
W2NIXTFbY0hdW2NIXVtjSF1jKGMxMiluKGMobjIpW0NAQEhdKFtPSF0pW0NIMl1bQ0gzXSlbQ0gyXVtDSDJdT2MzW2NIXVtjSF1bY0hdW2NIXWMzT1tDSDNd

> <s_epik_cmdline>
J2VwaWtfcHl0aG9uJywgJy1waCcsICc3LjAnLCAnLXRuJywgJzgnLCAnLW1hJywgJzIwMCcsICctbWV0YWxfYmluZGluZycsICctaW1hZScsICc8aW5maWxlLm1hZT4nLCAnLW9tYWUnLCAnPG91dGZpbGUubWFlPic=

> <r_lp_tautomer_probability>
1

> <r_epik_Ionization_Penalty>
1.48085

> <r_epik_Ionization_Penalty_Charging>
1.48083

> <r_epik_Ionization_Penalty_Neutral>
1.80167e-05

> <r_epik_State_Penalty>
1.56944

> <r_epik_Charging_Adjusted_Penalty>
3.05027

> <i_epik_Tot_Q>
1

> <i_epik_Tot_abs_Q>
1

> <r_epik_Metal_State_Penalty>
5.61877

> <b_epik_Metal_Only>
0

> <s_lp_Force_Field>
OPLS_2005

> <r_lp_Energy>
21.4697

> <b_lp_Chiralities_Consistent>
1

> <s_lp_Variant>
AV-unprocessed.smi:460-4

> <Gold.Version>
5.8.1

> <Gold.Id.Protein>
6NUR|6NUR_protein|mol2

> <Gold.PLP.Fitness>
66.6226

> <Gold.PLP.PLP>
-55.9126

> <Gold.PLP.part.hbond>
-3.6566

> <Gold.PLP.part.metal>
0.0000

> <Gold.PLP.part.buried>
-2.6282

> <Gold.PLP.part.nonpolar>
-50.8234

> <Gold.PLP.part.repulsive>
0.0761

> <Gold.PLP.ligand.clash>
0.0000

> <Gold.PLP.ligand.torsion>
0.6154

> <Gold.PLP.Chemscore.Hbond>
3.9440

> <Gold.PLP.Chemscore.CHOScore>
0.0000

> <Gold.PLP.Chemscore.Metal>
0.0000

> <Gold.Chemscore.Hbonds>
donor molecule, donor type, donor heavy atom, donor atom, acceptor molecule, acceptor atom, score
      L1  H     4    31       P1  7949  0.99
      L1  H     6    47       P1  7948  2.00
      P1  H 10752 10763       L1     4  1.00

> <Gold.PLP.Chemscore.Internal.Correction>
0.1089

> <Gold.Rescore>
     Score         DG    S(hbond)    S(metal)    S(lipo)     H(rot)  DE(clash)    DE(int)     intcor
     24.11     -24.66       2.40        0.00     149.00       2.45       0.12       0.43       ----

> <Gold.Chemscore.Fitness>
24.1124

> <Gold.Chemscore.DG>
-24.6611

> <Gold.Chemscore.ZeroCoef>
-5.4800

> <Gold.Chemscore.Hbond>
2.3974

> <Gold.Chemscore.Metal>
0.0000

> <Gold.Chemscore.Lipo>
149.0007

> <Gold.Chemscore.Internal_Hbond>
0.0000

> <Gold.Chemscore.DEClash>
0.1174

> <Gold.Chemscore.DEInternal>
0.4313

> <Gold.Chemscore.Rot>
2.4450

> <Gold.Chemscore.Internal.Correction>
   9.000000E+99

> <Gold.Chemscore.Hbonds>
donor molecule, donor type, donor heavy atom, donor atom, acceptor molecule, acceptor atom, score
      L1  H     4    31       P1  7949  0.88
      L1  H     6    47       P1  7948  0.97
      P1  H 10752 10763       L1     4  0.32

> <Gold.Chemscore.Hbond.Weighted>
-8.0073

> <Gold.Chemscore.Metal.Weighted>
-0.0000

> <Gold.Chemscore.Lipo.Weighted>
-17.4331

> <Gold.Chemscore.Internal_Hbond.Weighted>
0.0000

> <Gold.Chemscore.DEClash.Weighted>
0.1174

> <Gold.Chemscore.DEInternal.Weighted>
0.4313

> <Gold.Chemscore.Rot.Weighted>
6.2593

> <Gold.Chemscore.Internal.Correction.Weighted>
   9.000000E+99

> <Gold.Protein.RotatedTorsions>
[ 6907 6896 6895 6894 ] final   49.70 input  -60.11 | X-H torsion
[ 7974 7965 7964 7962 ] final -134.01 input  175.53 | X-H torsion
[ 8008 7997 7996 7995 ] final  124.14 input   59.86 | X-H torsion
[ 10167 10162 10161 10158 ] final    4.38 input  -65.29 | X-H torsion
[ 10718 10713 10712 10709 ] final -126.36 input   66.30 | X-H torsion
[ 10763 10752 10751 10750 ] final   26.29 input  -60.55 | X-H torsion
[ 11005 11000 10999 10996 ] final   28.43 input  -57.11 | X-H torsion

> <Gold.Protein.ActiveResidues>
 VAL166  LYS551  ARG553  GLY616  TRP617  ASP618  TYR619  PRO620  LYS621  CYS622 
 ASP623  PHE694  ASN695  SER759  ASP760  ASP761  ALA762  ILE779  LEU786  VAL792 
 PHE793  MET794  SER795  GLU796  ALA797  LYS798  CYS799  TRP800  GLU811  SER814 

> <Gold.Protein.RotatedAtoms>
  152.2936  134.7692  160.0372 H   0  0  0  0  0  0  0  0  0  0  0  0  # atno 6907 bound_to 6896
  151.8230  133.3392  159.3598 H   0  0  0  0  0  0  0  0  0  0  0  0  # atno 6908 bound_to 6896
  150.7241  134.5485  159.5827 H   0  0  0  0  0  0  0  0  0  0  0  0  # atno 6909 bound_to 6896
  144.9141  140.6932  143.5006 H   0  0  0  0  0  0  0  0  0  0  0  0  # atno 7974 bound_to 7965
  156.2791  140.2746  156.1741 H   0  0  0  0  0  0  0  0  0  0  0  0  # atno 8008 bound_to 7997
  155.0625  140.0386  157.2599 H   0  0  0  0  0  0  0  0  0  0  0  0  # atno 8009 bound_to 7997
  154.7106  140.2668  155.6638 H   0  0  0  0  0  0  0  0  0  0  0  0  # atno 8010 bound_to 7997
  140.6538  143.7480  150.7618 H   0  0  0  0  0  0  0  0  0  0  0  0  # atno 10167 bound_to 10162
  156.1758  130.6699  151.0241 H   0  0  0  0  0  0  0  0  0  0  0  0  # atno 10718 bound_to 10713
  153.0633  135.6564  154.0413 H   0  0  0  0  0  0  0  0  0  0  0  0  # atno 10763 bound_to 10752
  154.0075  135.2931  155.3397 H   0  0  0  0  0  0  0  0  0  0  0  0  # atno 10764 bound_to 10752
  154.6980  135.5256  153.8555 H   0  0  0  0  0  0  0  0  0  0  0  0  # atno 10765 bound_to 10752
  140.3156  134.2600  155.7726 H   0  0  0  0  0  0  0  0  0  0  0  0  # atno 11005 bound_to 11000
  145.3405  139.1733  143.4488 LP  0  0  0  0  0  0  0  0  0  0  0  0  # atno 17320 bound_to 7965
  146.3173  140.3446  142.8651 LP  0  0  0  0  0  0  0  0  0  0  0  0  # atno 17321 bound_to 7965
  140.1135  143.4677  152.2356 LP  0  0  0  0  0  0  0  0  0  0  0  0  # atno 17342 bound_to 10162
  139.5756  144.7486  151.3773 LP  0  0  0  0  0  0  0  0  0  0  0  0  # atno 17343 bound_to 10162
  157.6835  131.0831  150.7306 LP  0  0  0  0  0  0  0  0  0  0  0  0  # atno 17370 bound_to 10713
  156.7364  130.4725  149.5487 LP  0  0  0  0  0  0  0  0  0  0  0  0  # atno 17371 bound_to 10713
  141.2098  133.7737  156.9972 LP  0  0  0  0  0  0  0  0  0  0  0  0  # atno 17394 bound_to 11000
  140.0986  134.9549  157.1888 LP  0  0  0  0  0  0  0  0  0  0  0  0  # atno 17395 bound_to 11000

$$$$
