AV-unprocessed.smi:281|AV-procd|sdf|2116|dock4
  -GOLD-   2262021413D 1   1.00000     0.00000
 Structure written by MMmdl.
 55 59  0  0  0  0  0  0  0  0  1 V2000
  148.0872  134.4136  159.3595 C   0  0  0  0  0  0  0  0  0  0  0  0
  148.7352  134.6331  157.9890 C   0  0  1  0  0  0  0  0  0  0  0  0
  149.6034  135.9004  157.9571 C   0  0  0  0  0  0  0  0  0  0  0  0
  150.2647  136.0005  156.6651 N   0  0  0  0  0  0  0  0  0  0  0  0
  150.8969  137.1678  156.4251 C   0  0  0  0  0  0  0  0  0  0  0  0
  152.1242  137.0938  155.8554 N   0  0  0  0  0  0  0  0  0  0  0  0
  152.8102  138.2121  155.6005 C   0  0  0  0  0  0  0  0  0  0  0  0
  152.4607  139.4784  155.8366 N   0  0  0  0  0  0  0  0  0  0  0  0
  151.2278  139.5544  156.4160 C   0  0  0  0  0  0  0  0  0  0  0  0
  150.3846  138.4566  156.7472 C   0  0  0  0  0  0  0  0  0  0  0  0
  149.2169  138.9196  157.3419 N   0  0  0  0  0  0  0  0  0  0  0  0
  149.3588  140.2166  157.3549 C   0  0  0  0  0  0  0  0  0  0  0  0
  150.5326  140.6855  156.8087 N   0  0  0  0  0  0  0  0  0  0  0  0
  150.9510  142.0746  156.6953 C   0  0  0  0  0  0  0  0  0  0  0  0
  151.1586  142.7789  158.0587 C   0  0  2  0  0  0  0  0  0  0  0  0
  149.9273  142.8063  158.7568 O   0  0  0  0  0  0  0  0  0  0  0  0
  151.6729  144.2112  157.8991 C   0  0  0  0  0  0  0  0  0  0  0  0
  153.1260  144.1219  158.3482 C   0  0  0  0  0  0  0  0  0  0  0  0
  153.0661  143.1671  159.3923 O   0  0  0  0  0  0  0  0  0  0  0  0
  152.2299  142.1101  158.9441 C   0  0  0  0  0  0  0  0  0  0  0  0
  151.0758  134.8328  156.3538 C   0  0  0  0  0  0  0  0  0  0  0  0
  150.2349  133.5374  156.4399 C   0  0  1  0  0  0  0  0  0  0  0  0
  149.2414  133.3768  155.2807 C   0  0  0  0  0  0  0  0  0  0  0  0
  149.8441  132.2785  154.4154 C   0  0  0  0  0  0  0  0  0  0  0  0
  150.4605  131.4391  155.3732 O   0  0  0  0  0  0  0  0  0  0  0  0
  151.1378  132.2885  156.2878 C   0  0  2  0  0  0  0  0  0  0  0  0
  151.4615  131.5300  157.5831 C   0  0  0  0  0  0  0  0  0  0  0  0
  149.5518  133.4970  157.7004 O   0  0  0  0  0  0  0  0  0  0  0  0
  147.4429  135.2510  159.6282 H   0  0  0  0  0  0  0  0  0  0  0  0
  148.8416  134.3067  160.1396 H   0  0  0  0  0  0  0  0  0  0  0  0
  147.4764  133.5106  159.3607 H   0  0  0  0  0  0  0  0  0  0  0  0
  147.9429  134.7182  157.2445 H   0  0  0  0  0  0  0  0  0  0  0  0
  148.9889  136.7851  158.1298 H   0  0  0  0  0  0  0  0  0  0  0  0
  150.3448  135.8566  158.7554 H   0  0  0  0  0  0  0  0  0  0  0  0
  153.7783  138.0721  155.1427 H   0  0  0  0  0  0  0  0  0  0  0  0
  148.6041  140.8701  157.7678 H   0  0  0  0  0  0  0  0  0  0  0  0
  151.8740  142.1045  156.1147 H   0  0  0  0  0  0  0  0  0  0  0  0
  150.2038  142.6078  156.1057 H   0  0  0  0  0  0  0  0  0  0  0  0
  149.3405  143.3942  158.3061 H   0  0  0  0  0  0  0  0  0  0  0  0
  151.5744  144.5995  156.8848 H   0  0  0  0  0  0  0  0  0  0  0  0
  151.1408  144.8951  158.5626 H   0  0  0  0  0  0  0  0  0  0  0  0
  153.7646  143.7520  157.5443 H   0  0  0  0  0  0  0  0  0  0  0  0
  153.5208  145.0771  158.6948 H   0  0  0  0  0  0  0  0  0  0  0  0
  151.8164  141.5476  159.7823 H   0  0  0  0  0  0  0  0  0  0  0  0
  152.8508  141.4271  158.3639 H   0  0  0  0  0  0  0  0  0  0  0  0
  151.5126  134.9349  155.3591 H   0  0  0  0  0  0  0  0  0  0  0  0
  151.9050  134.7810  157.0612 H   0  0  0  0  0  0  0  0  0  0  0  0
  148.2777  133.0287  155.6543 H   0  0  0  0  0  0  0  0  0  0  0  0
  149.0654  134.2973  154.7231 H   0  0  0  0  0  0  0  0  0  0  0  0
  149.0958  131.7440  153.8300 H   0  0  0  0  0  0  0  0  0  0  0  0
  150.5961  132.6807  153.7349 H   0  0  0  0  0  0  0  0  0  0  0  0
  152.0771  132.5745  155.8102 H   0  0  0  0  0  0  0  0  0  0  0  0
  151.9651  132.1785  158.3006 H   0  0  0  0  0  0  0  0  0  0  0  0
  152.1182  130.6837  157.3814 H   0  0  0  0  0  0  0  0  0  0  0  0
  150.5589  131.1403  158.0545 H   0  0  0  0  0  0  0  0  0  0  0  0
  1  2  1  0  0  0  0
  1 29  1  0  0  0  0
  1 30  1  0  0  0  0
  1 31  1  0  0  0  0
  2 28  1  0  0  0  0
  2  3  1  0  0  0  0
  2 32  1  0  0  0  0
  3  4  1  0  0  0  0
  3 33  1  0  0  0  0
  3 34  1  0  0  0  0
  4  5  1  0  0  0  0
  4 21  1  0  0  0  0
  5 10  1  0  0  0  0
  5  6  2  0  0  0  0
  6  7  1  0  0  0  0
  7  8  2  0  0  0  0
  7 35  1  0  0  0  0
  8  9  1  0  0  0  0
  9 13  1  0  0  0  0
  9 10  2  0  0  0  0
 10 11  1  0  0  0  0
 11 12  2  0  0  0  0
 12 13  1  0  0  0  0
 12 36  1  0  0  0  0
 13 14  1  0  0  0  0
 14 15  1  0  0  0  0
 14 37  1  0  0  0  0
 14 38  1  0  0  0  0
 15 20  1  0  0  0  0
 15 16  1  0  0  0  0
 15 17  1  0  0  0  0
 16 39  1  0  0  0  0
 17 18  1  0  0  0  0
 17 40  1  0  0  0  0
 17 41  1  0  0  0  0
 18 19  1  0  0  0  0
 18 42  1  0  0  0  0
 18 43  1  0  0  0  0
 19 20  1  0  0  0  0
 20 44  1  0  0  0  0
 20 45  1  0  0  0  0
 21 22  1  0  0  0  0
 21 46  1  0  0  0  0
 21 47  1  0  0  0  0
 22 26  1  0  0  0  0
 22 23  1  0  0  0  0
 22 28  1  0  0  0  0
 23 24  1  0  0  0  0
 23 48  1  0  0  0  0
 23 49  1  0  0  0  0
 24 25  1  0  0  0  0
 24 50  1  0  0  0  0
 24 51  1  0  0  0  0
 25 26  1  0  0  0  0
 26 27  1  0  0  0  0
 26 52  1  0  0  0  0
 27 53  1  0  0  0  0
 27 54  1  0  0  0  0
 27 55  1  0  0  0  0
M  END
> <s_m_source_file>
AV-unprocessed.smi

> <i_m_source_file_index>
281

> <i_lp_mmshare_version>
43012

> <i_f3d_flags>
0

> <s_epik_input>
W0NIM11bQ0BASF0xT1tDSDJdW0NIMl1bQ0BAXTEyW0NIMl1OKFtDSDJdW0NASF0oTzIpW0NIM10pYyhuW2NIXW4zKWMoYzM0KW5bY0hdbjRbQ0gyXVtDQEBdNShbT0hdKVtDSDJdW0NIMl1PW0NIMl01

> <s_epik_cmdline>
J2VwaWtfcHl0aG9uJywgJy1waCcsICc3LjAnLCAnLXRuJywgJzgnLCAnLW1hJywgJzIwMCcsICctbWV0YWxfYmluZGluZycsICctaW1hZScsICc8aW5maWxlLm1hZT4nLCAnLW9tYWUnLCAnPG91dGZpbGUubWFlPic=

> <r_lp_tautomer_probability>
1

> <r_epik_Ionization_Penalty>
0.00571331

> <r_epik_Ionization_Penalty_Charging>
0

> <r_epik_Ionization_Penalty_Neutral>
0.00571331

> <r_epik_State_Penalty>
0.00399586

> <r_epik_Charging_Adjusted_Penalty>
0.00399586

> <i_epik_Tot_Q>
0

> <i_epik_Tot_abs_Q>
0

> <r_epik_Metal_State_Penalty>
-0

> <b_epik_Metal_Only>
0

> <s_lp_Force_Field>
OPLS_2005

> <r_lp_Energy>
55.1206

> <b_lp_Chiralities_Consistent>
1

> <s_lp_Variant>
AV-unprocessed.smi:281-16

> <Gold.Version>
5.8.1

> <Gold.Id.Protein>
6NUR|6NUR_protein|mol2

> <Gold.PLP.Fitness>
45.2226

> <Gold.PLP.PLP>
-37.5691

> <Gold.PLP.part.hbond>
-3.0211

> <Gold.PLP.part.metal>
0.0000

> <Gold.PLP.part.buried>
-6.7783

> <Gold.PLP.part.nonpolar>
-29.3752

> <Gold.PLP.part.repulsive>
0.0182

> <Gold.PLP.ligand.clash>
0.0277

> <Gold.PLP.ligand.torsion>
0.2856

> <Gold.PLP.Chemscore.Hbond>
2.6941

> <Gold.PLP.Chemscore.CHOScore>
0.0000

> <Gold.PLP.Chemscore.Metal>
0.0000

> <Gold.Chemscore.Hbonds>
donor molecule, donor type, donor heavy atom, donor atom, acceptor molecule, acceptor atom, score
      P1  H  6896  6909       L1    28  0.94
      P1  H  7997  8010       L1     8  0.78
      P1  H 10752 10765       L1     6  0.92

> <Gold.PLP.Chemscore.Internal.Correction>
0.1701

> <Gold.Rescore>
     Score         DG    S(hbond)    S(metal)    S(lipo)     H(rot)  DE(clash)    DE(int)     intcor
     14.32     -15.11       1.11        0.00      96.28       2.09       0.03       0.75       ----

> <Gold.Chemscore.Fitness>
14.3248

> <Gold.Chemscore.DG>
-15.1106

> <Gold.Chemscore.ZeroCoef>
-5.4800

> <Gold.Chemscore.Hbond>
1.1148

> <Gold.Chemscore.Metal>
0.0000

> <Gold.Chemscore.Lipo>
96.2785

> <Gold.Chemscore.Internal_Hbond>
0.0000

> <Gold.Chemscore.DEClash>
0.0324

> <Gold.Chemscore.DEInternal>
0.7533

> <Gold.Chemscore.Rot>
2.0927

> <Gold.Chemscore.Internal.Correction>
   9.000000E+99

> <Gold.Chemscore.Hbonds>
donor molecule, donor type, donor heavy atom, donor atom, acceptor molecule, acceptor atom, score
      P1  H  6896  6909       L1    28  0.19
      P1  H  7997  8010       L1     8  0.11
      P1  H 10752 10765       L1     6  0.55

> <Gold.Chemscore.Hbond.Weighted>
-3.7233

> <Gold.Chemscore.Metal.Weighted>
-0.0000

> <Gold.Chemscore.Lipo.Weighted>
-11.2646

> <Gold.Chemscore.Internal_Hbond.Weighted>
0.0000

> <Gold.Chemscore.DEClash.Weighted>
0.0324

> <Gold.Chemscore.DEInternal.Weighted>
0.7533

> <Gold.Chemscore.Rot.Weighted>
5.3573

> <Gold.Chemscore.Internal.Correction.Weighted>
   9.000000E+99

> <Gold.Protein.RotatedTorsions>
[ 6907 6896 6895 6894 ] final  -13.62 input  -60.11 | X-H torsion
[ 7974 7965 7964 7962 ] final  156.78 input  175.53 | X-H torsion
[ 8008 7997 7996 7995 ] final   89.40 input   59.86 | X-H torsion
[ 10167 10162 10161 10158 ] final -135.78 input  -65.29 | X-H torsion
[ 10718 10713 10712 10709 ] final   10.47 input   66.30 | X-H torsion
[ 10763 10752 10751 10750 ] final -156.50 input  -60.55 | X-H torsion
[ 11005 11000 10999 10996 ] final  168.59 input  -57.11 | X-H torsion

> <Gold.Protein.ActiveResidues>
 VAL166  LYS551  ARG553  GLY616  TRP617  ASP618  TYR619  PRO620  LYS621  CYS622 
 ASP623  PHE694  ASN695  SER759  ASP760  ASP761  ALA762  ILE779  LEU786  VAL792 
 PHE793  MET794  SER795  GLU796  ALA797  LYS798  CYS799  TRP800  GLU811  SER814 

> <Gold.Protein.RotatedAtoms>
  151.3521  135.0886  159.9406 H   0  0  0  0  0  0  0  0  0  0  0  0  # atno 6907 bound_to 6896
  152.5184  133.9342  159.7605 H   0  0  0  0  0  0  0  0  0  0  0  0  # atno 6908 bound_to 6896
  150.9720  133.6280  159.2766 H   0  0  0  0  0  0  0  0  0  0  0  0  # atno 6909 bound_to 6896
  144.7943  139.7250  143.6208 H   0  0  0  0  0  0  0  0  0  0  0  0  # atno 7974 bound_to 7965
  155.9994  140.3361  155.6831 H   0  0  0  0  0  0  0  0  0  0  0  0  # atno 8008 bound_to 7997
  155.6310  140.0685  157.2666 H   0  0  0  0  0  0  0  0  0  0  0  0  # atno 8009 bound_to 7997
  154.4244  140.1759  156.1460 H   0  0  0  0  0  0  0  0  0  0  0  0  # atno 8010 bound_to 7997
  139.8744  143.6917  152.2635 H   0  0  0  0  0  0  0  0  0  0  0  0  # atno 10167 bound_to 10162
  156.9814  130.6007  149.5677 H   0  0  0  0  0  0  0  0  0  0  0  0  # atno 10718 bound_to 10713
  154.7708  135.3144  154.8194 H   0  0  0  0  0  0  0  0  0  0  0  0  # atno 10763 bound_to 10752
  153.8930  135.6823  153.4763 H   0  0  0  0  0  0  0  0  0  0  0  0  # atno 10764 bound_to 10752
  153.1321  135.4775  154.9299 H   0  0  0  0  0  0  0  0  0  0  0  0  # atno 10765 bound_to 10752
  140.2889  134.7689  157.3821 H   0  0  0  0  0  0  0  0  0  0  0  0  # atno 11005 bound_to 11000
  146.2205  139.5628  142.9621 LP  0  0  0  0  0  0  0  0  0  0  0  0  # atno 17320 bound_to 7965
  145.5715  141.0393  143.2172 LP  0  0  0  0  0  0  0  0  0  0  0  0  # atno 17321 bound_to 7965
  139.7254  144.7594  151.0888 LP  0  0  0  0  0  0  0  0  0  0  0  0  # atno 17342 bound_to 10162
  140.7755  143.5155  150.9600 LP  0  0  0  0  0  0  0  0  0  0  0  0  # atno 17343 bound_to 10162
  156.0243  130.5337  150.8362 LP  0  0  0  0  0  0  0  0  0  0  0  0  # atno 17370 bound_to 10713
  157.5523  131.0944  150.9678 LP  0  0  0  0  0  0  0  0  0  0  0  0  # atno 17371 bound_to 10713
  140.1214  134.5215  155.8181 LP  0  0  0  0  0  0  0  0  0  0  0  0  # atno 17394 bound_to 11000
  141.2150  133.6757  156.6872 LP  0  0  0  0  0  0  0  0  0  0  0  0  # atno 17395 bound_to 11000

$$$$
