AV-unprocessed.smi:2750|AV-procd|sdf|10589|dock8
  -GOLD-   2272015 43D 1   1.00000     0.00000
 Structure written by MMmdl.
 25 26  0  0  0  0  0  0  0  0  2 V2000
  150.9264  136.0326  157.9733 O   0  0  0  0  0  0  0  0  0  0  0  0
  151.4458  136.1224  156.8396 C   0  0  0  0  0  0  0  0  0  0  0  0
  151.2417  135.3421  155.8831 O   0  5  0  0  0  0  0  0  0  0  0  0
  152.4017  137.2935  156.6016 C   0  0  0  0  0  0  0  0  0  0  0  0
  151.7496  138.4120  155.9452 N   0  0  0  0  0  0  0  0  0  0  0  0
  150.4427  138.5127  155.5151 C   0  0  0  0  0  0  0  0  0  0  0  0
  150.3903  139.7544  154.9498 C   0  0  0  0  0  0  0  0  0  0  0  0
  149.2435  140.4297  154.2598 C   0  0  0  0  0  0  0  0  0  0  0  0
  147.9864  139.5396  154.1818 C   0  0  2  0  0  0  0  0  0  0  0  0
  147.8770  138.8072  152.9310 N   0  0  0  0  0  0  0  0  0  0  0  0
  146.7520  139.0981  152.2645 C   0  0  0  0  0  0  0  0  0  0  0  0
  146.4078  138.6224  151.1852 O   0  0  0  0  0  0  0  0  0  0  0  0
  146.0702  139.9992  152.9802 N   0  0  0  0  0  0  0  0  0  0  0  0
  146.6982  140.3371  154.1051 C   0  0  0  0  0  0  0  0  0  0  0  0
  146.3229  141.1502  154.9475 O   0  0  0  0  0  0  0  0  0  0  0  0
  151.6449  140.3529  155.0656 N   0  0  0  0  0  0  0  0  0  0  0  0
  152.4526  139.5360  155.6655 N   0  0  0  0  0  0  0  0  0  0  0  0
  152.7966  137.6324  157.5597 H   0  0  0  0  0  0  0  0  0  0  0  0
  153.2548  136.9723  156.0013 H   0  0  0  0  0  0  0  0  0  0  0  0
  149.7140  137.7235  155.6262 H   0  0  0  0  0  0  0  0  0  0  0  0
  148.9963  141.3537  154.7838 H   0  0  0  0  0  0  0  0  0  0  0  0
  149.5470  140.7331  153.2564 H   0  0  0  0  0  0  0  0  0  0  0  0
  147.9471  138.8399  155.0180 H   0  0  0  0  0  0  0  0  0  0  0  0
  148.5823  138.1578  152.6129 H   0  0  0  0  0  0  0  0  0  0  0  0
  145.1841  140.3884  152.6933 H   0  0  0  0  0  0  0  0  0  0  0  0
  1  2  2  0  0  0  0
  2  3  1  0  0  0  0
  2  4  1  0  0  0  0
  4  5  1  0  0  0  0
  4 18  1  0  0  0  0
  4 19  1  0  0  0  0
  5 17  1  0  0  0  0
  5  6  1  0  0  0  0
  6  7  2  0  0  0  0
  6 20  1  0  0  0  0
  7  8  1  0  0  0  0
  7 16  1  0  0  0  0
  8  9  1  0  0  0  0
  8 21  1  0  0  0  0
  8 22  1  0  0  0  0
  9 14  1  0  0  0  0
  9 10  1  0  0  0  0
  9 23  1  0  0  0  0
 10 11  1  0  0  0  0
 10 24  1  0  0  0  0
 11 12  2  0  0  0  0
 11 13  1  0  0  0  0
 13 14  1  0  0  0  0
 13 25  1  0  0  0  0
 14 15  2  0  0  0  0
 16 17  2  0  0  0  0
M  CHG  1   3  -1
M  END
> <s_m_source_file>
AV-unprocessed.smi

> <i_m_source_file_index>
2750

> <i_lp_mmshare_version>
43012

> <i_f3d_flags>
0

> <s_epik_input>
Tz1DKFtPSF0pW0NIMl1uMVtjSF1jKG5uMSlbQ0gyXVtDQEBIXTJbTkhdQyg9TylbTkhdQzI9Tw==

> <s_epik_cmdline>
J2VwaWtfcHl0aG9uJywgJy1waCcsICc3LjAnLCAnLXRuJywgJzgnLCAnLW1hJywgJzIwMCcsICctbWV0YWxfYmluZGluZycsICctaW1hZScsICc8aW5maWxlLm1hZT4nLCAnLW9tYWUnLCAnPG91dGZpbGUubWFlPic=

> <r_lp_tautomer_probability>
1

> <r_epik_Ionization_Penalty>
0.019671

> <r_epik_Ionization_Penalty_Charging>
2.66176e-05

> <r_epik_Ionization_Penalty_Neutral>
0.0196444

> <r_epik_State_Penalty>
0.0155882

> <r_epik_Charging_Adjusted_Penalty>
0.0156148

> <i_epik_Tot_Q>
-1

> <i_epik_Tot_abs_Q>
1

> <r_epik_Metal_State_Penalty>
0.396229

> <b_epik_Metal_Only>
0

> <s_lp_Force_Field>
OPLS_2005

> <r_lp_Energy>
13.3356

> <b_lp_Chiralities_Consistent>
1

> <s_lp_Variant>
AV-unprocessed.smi:2750-1

> <Gold.Version>
5.8.1

> <Gold.Id.Protein>
6NUR|6NUR_protein|mol2

> <Gold.PLP.Fitness>
44.1461

> <Gold.PLP.PLP>
-23.4625

> <Gold.PLP.part.hbond>
-8.0000

> <Gold.PLP.part.metal>
0.0000

> <Gold.PLP.part.buried>
-1.8330

> <Gold.PLP.part.nonpolar>
-15.4592

> <Gold.PLP.part.repulsive>
0.9415

> <Gold.PLP.ligand.clash>
0.0000

> <Gold.PLP.ligand.torsion>
0.7182

> <Gold.PLP.Chemscore.Hbond>
7.3632

> <Gold.PLP.Chemscore.CHOScore>
0.0000

> <Gold.PLP.Chemscore.Metal>
0.0000

> <Gold.Chemscore.Hbonds>
donor molecule, donor type, donor heavy atom, donor atom, acceptor molecule, acceptor atom, score
      L1  H    10    24       P1  7948  0.83
      L1  H    13    25       P1 10175  0.96
      P1  H  6896  6908       L1     1  0.98
      P1  H  7954  7966       L1    12  0.32
      P1  H  7989  7998       L1    16  0.63
      P1  H  7997  8008       L1    17  0.93
      P1  H 10752 10763       L1     3  1.85

> <Gold.PLP.Chemscore.Internal.Correction>
0.0305

> <Gold.Rescore>
     Score         DG    S(hbond)    S(metal)    S(lipo)     H(rot)  DE(clash)    DE(int)     intcor
     17.44     -18.36       5.03        0.00      28.41       2.84       0.32       0.59       ----

> <Gold.Chemscore.Fitness>
17.4444

> <Gold.Chemscore.DG>
-18.3590

> <Gold.Chemscore.ZeroCoef>
-5.4800

> <Gold.Chemscore.Hbond>
5.0341

> <Gold.Chemscore.Metal>
0.0000

> <Gold.Chemscore.Lipo>
28.4080

> <Gold.Chemscore.Internal_Hbond>
0.0000

> <Gold.Chemscore.DEClash>
0.3210

> <Gold.Chemscore.DEInternal>
0.5936

> <Gold.Chemscore.Rot>
2.8354

> <Gold.Chemscore.Internal.Correction>
   9.000000E+99

> <Gold.Chemscore.Hbonds>
donor molecule, donor type, donor heavy atom, donor atom, acceptor molecule, acceptor atom, score
      L1  H    10    24       P1  7948  0.79
      L1  H    13    25       P1 10175  0.78
      P1  H  6896  6908       L1     1  0.46
      P1  H  7954  7966       L1    12  0.28
      P1  H  7989  7998       L1    16  0.06
      P1  H  7997  8008       L1    17  0.87
      P1  H 10752 10763       L1     3  0.30

> <Gold.Chemscore.Hbond.Weighted>
-16.8138

> <Gold.Chemscore.Metal.Weighted>
-0.0000

> <Gold.Chemscore.Lipo.Weighted>
-3.3237

> <Gold.Chemscore.Internal_Hbond.Weighted>
0.0000

> <Gold.Chemscore.DEClash.Weighted>
0.3210

> <Gold.Chemscore.DEInternal.Weighted>
0.5936

> <Gold.Chemscore.Rot.Weighted>
7.2586

> <Gold.Chemscore.Internal.Correction.Weighted>
   9.000000E+99

> <Gold.Protein.RotatedTorsions>
[ 6907 6896 6895 6894 ] final -166.11 input  -60.11 | X-H torsion
[ 7974 7965 7964 7962 ] final  125.73 input  175.53 | X-H torsion
[ 8008 7997 7996 7995 ] final  -34.50 input   59.86 | X-H torsion
[ 10167 10162 10161 10158 ] final -165.70 input  -65.29 | X-H torsion
[ 10718 10713 10712 10709 ] final   69.51 input   66.30 | X-H torsion
[ 10763 10752 10751 10750 ] final   71.77 input  -60.55 | X-H torsion
[ 11005 11000 10999 10996 ] final  174.91 input  -57.11 | X-H torsion

> <Gold.Protein.ActiveResidues>
 VAL166  LYS551  ARG553  GLY616  TRP617  ASP618  TYR619  PRO620  LYS621  CYS622 
 ASP623  PHE694  ASN695  SER759  ASP760  ASP761  ALA762  ILE779  LEU786  VAL792 
 PHE793  MET794  SER795  GLU796  ALA797  LYS798  CYS799  TRP800  GLU811  SER814 

> <Gold.Protein.RotatedAtoms>
  151.4383  133.3650  159.2777 H   0  0  0  0  0  0  0  0  0  0  0  0  # atno 6907 bound_to 6896
  150.9176  134.8595  159.7478 H   0  0  0  0  0  0  0  0  0  0  0  0  # atno 6908 bound_to 6896
  152.4965  134.4318  159.9567 H   0  0  0  0  0  0  0  0  0  0  0  0  # atno 6909 bound_to 6896
  145.0697  139.3739  143.4964 H   0  0  0  0  0  0  0  0  0  0  0  0  # atno 7974 bound_to 7965
  154.4119  140.1682  156.2060 H   0  0  0  0  0  0  0  0  0  0  0  0  # atno 8008 bound_to 7997
  155.9484  140.3403  155.6363 H   0  0  0  0  0  0  0  0  0  0  0  0  # atno 8009 bound_to 7997
  155.6901  140.0733  157.2442 H   0  0  0  0  0  0  0  0  0  0  0  0  # atno 8010 bound_to 7997
  139.6164  144.0710  152.1892 H   0  0  0  0  0  0  0  0  0  0  0  0  # atno 10167 bound_to 10162
  157.6350  130.9429  150.0523 H   0  0  0  0  0  0  0  0  0  0  0  0  # atno 10718 bound_to 10713
  153.0419  135.5124  154.7644 H   0  0  0  0  0  0  0  0  0  0  0  0  # atno 10763 bound_to 10752
  154.6575  135.2934  154.9912 H   0  0  0  0  0  0  0  0  0  0  0  0  # atno 10764 bound_to 10752
  154.0774  135.6669  153.4885 H   0  0  0  0  0  0  0  0  0  0  0  0  # atno 10765 bound_to 10752
  140.3564  134.7150  157.4302 H   0  0  0  0  0  0  0  0  0  0  0  0  # atno 11005 bound_to 11000
  146.3528  140.0436  142.8641 LP  0  0  0  0  0  0  0  0  0  0  0  0  # atno 17320 bound_to 7965
  145.1307  140.9516  143.4546 LP  0  0  0  0  0  0  0  0  0  0  0  0  # atno 17321 bound_to 7965
  140.0342  144.6058  150.7463 LP  0  0  0  0  0  0  0  0  0  0  0  0  # atno 17342 bound_to 10162
  140.7354  143.2740  151.3799 LP  0  0  0  0  0  0  0  0  0  0  0  0  # atno 17343 bound_to 10162
  156.1581  130.3643  149.9339 LP  0  0  0  0  0  0  0  0  0  0  0  0  # atno 17370 bound_to 10713
  156.7343  130.9055  151.3628 LP  0  0  0  0  0  0  0  0  0  0  0  0  # atno 17371 bound_to 10713
  140.0661  134.5927  155.8693 LP  0  0  0  0  0  0  0  0  0  0  0  0  # atno 17394 bound_to 11000
  141.1997  133.6608  156.5857 LP  0  0  0  0  0  0  0  0  0  0  0  0  # atno 17395 bound_to 11000

$$$$
