AV-unprocessed.smi:437|AV-procd|sdf|2561|dock10
  -GOLD-   2262022533D 1   1.00000     0.00000
 Structure written by MMmdl.
 48 49  0  0  0  0  0  0  0  0  1 V2000
  145.7260  135.1392  150.9450 C   0  0  0  0  0  0  0  0  0  0  0  0
  146.2131  134.0552  151.8686 C   0  0  0  0  0  0  0  0  0  0  0  0
  146.7177  134.4356  152.9961 N   0  0  0  0  0  0  0  0  0  0  0  0
  147.1992  133.5221  153.9138 N   0  0  0  0  0  0  0  0  0  0  0  0
  147.7505  134.1324  155.1331 C   0  0  0  0  0  0  0  0  0  0  0  0
  149.1462  134.7419  154.9271 C   0  0  0  0  0  0  0  0  0  0  0  0
  150.1214  134.0097  154.7393 O   0  0  0  0  0  0  0  0  0  0  0  0
  149.1885  136.0893  154.9610 N   0  0  0  0  0  0  0  0  0  0  0  0
  150.2685  136.8806  154.8136 C   0  0  0  0  0  0  0  0  0  0  0  0
  151.3945  136.5070  154.4777 O   0  0  0  0  0  0  0  0  0  0  0  0
  149.9654  138.1586  155.0833 N   0  0  0  0  0  0  0  0  0  0  0  0
  150.7683  139.3234  154.7079 C   0  0  2  0  0  0  0  0  0  0  0  0
  152.1789  139.2373  155.3291 C   0  0  0  0  0  0  0  0  0  0  0  0
  152.1542  139.4294  156.8552 C   0  0  0  0  0  0  0  0  0  0  0  0
  151.4593  140.7444  157.2390 C   0  0  0  0  0  0  0  0  0  0  0  0
  150.0453  140.8257  156.6422 C   0  0  0  0  0  0  0  0  0  0  0  0
  150.0628  140.6424  155.1104 C   0  0  2  0  0  0  0  0  0  0  0  0
  148.6526  140.7723  154.5096 C   0  0  0  0  0  0  0  0  0  0  0  0
  147.1856  132.1686  153.7429 C   0  0  0  0  0  0  0  0  0  0  0  0
  147.6204  131.3894  154.5926 O   0  0  0  0  0  0  0  0  0  0  0  0
  146.6126  131.7447  152.4635 C   0  0  0  0  0  0  0  0  0  0  0  0
  146.5860  130.3353  152.2406 C   0  0  0  0  0  0  0  0  0  0  0  0
  146.5527  129.1950  152.0436 N   0  0  0  0  0  0  0  0  0  0  0  0
  146.1404  132.6324  151.5526 C   0  0  0  0  0  0  0  0  0  0  0  0
  145.5354  132.2447  150.2103 C   0  0  0  0  0  0  0  0  0  0  0  0
  144.6532  135.0479  150.7738 H   0  0  0  0  0  0  0  0  0  0  0  0
  146.2292  135.0813  149.9797 H   0  0  0  0  0  0  0  0  0  0  0  0
  145.9111  136.1345  151.3521 H   0  0  0  0  0  0  0  0  0  0  0  0
  147.0868  134.9215  155.4912 H   0  0  0  0  0  0  0  0  0  0  0  0
  147.7887  133.3960  155.9382 H   0  0  0  0  0  0  0  0  0  0  0  0
  148.3081  136.5585  155.1131 H   0  0  0  0  0  0  0  0  0  0  0  0
  149.1115  138.3474  155.5874 H   0  0  0  0  0  0  0  0  0  0  0  0
  150.8781  139.3289  153.6217 H   0  0  0  0  0  0  0  0  0  0  0  0
  152.6474  138.2842  155.0806 H   0  0  0  0  0  0  0  0  0  0  0  0
  152.8111  140.0073  154.8851 H   0  0  0  0  0  0  0  0  0  0  0  0
  151.6385  138.5913  157.3253 H   0  0  0  0  0  0  0  0  0  0  0  0
  153.1722  139.4212  157.2456 H   0  0  0  0  0  0  0  0  0  0  0  0
  151.4097  140.8353  158.3244 H   0  0  0  0  0  0  0  0  0  0  0  0
  152.0537  141.5881  156.8854 H   0  0  0  0  0  0  0  0  0  0  0  0
  149.4122  140.0656  157.1017 H   0  0  0  0  0  0  0  0  0  0  0  0
  149.6001  141.7884  156.8959 H   0  0  0  0  0  0  0  0  0  0  0  0
  150.6551  141.4593  154.6953 H   0  0  0  0  0  0  0  0  0  0  0  0
  147.9688  140.0275  154.9174 H   0  0  0  0  0  0  0  0  0  0  0  0
  148.6749  140.6476  153.4267 H   0  0  0  0  0  0  0  0  0  0  0  0
  148.2292  141.7552  154.7181 H   0  0  0  0  0  0  0  0  0  0  0  0
  145.4789  131.1645  150.0792 H   0  0  0  0  0  0  0  0  0  0  0  0
  146.1352  132.6450  149.3921 H   0  0  0  0  0  0  0  0  0  0  0  0
  144.5222  132.6378  150.1183 H   0  0  0  0  0  0  0  0  0  0  0  0
  1  2  1  0  0  0  0
  1 26  1  0  0  0  0
  1 27  1  0  0  0  0
  1 28  1  0  0  0  0
  2 24  1  0  0  0  0
  2  3  2  0  0  0  0
  3  4  1  0  0  0  0
  4  5  1  0  0  0  0
  4 19  1  0  0  0  0
  5  6  1  0  0  0  0
  5 29  1  0  0  0  0
  5 30  1  0  0  0  0
  6  7  2  0  0  0  0
  6  8  1  0  0  0  0
  8  9  1  0  0  0  0
  8 31  1  0  0  0  0
  9 10  2  0  0  0  0
  9 11  1  0  0  0  0
 11 12  1  0  0  0  0
 11 32  1  0  0  0  0
 12 17  1  0  0  0  0
 12 13  1  0  0  0  0
 12 33  1  0  0  0  0
 13 14  1  0  0  0  0
 13 34  1  0  0  0  0
 13 35  1  0  0  0  0
 14 15  1  0  0  0  0
 14 36  1  0  0  0  0
 14 37  1  0  0  0  0
 15 16  1  0  0  0  0
 15 38  1  0  0  0  0
 15 39  1  0  0  0  0
 16 17  1  0  0  0  0
 16 40  1  0  0  0  0
 16 41  1  0  0  0  0
 17 18  1  0  0  0  0
 17 42  1  0  0  0  0
 18 43  1  0  0  0  0
 18 44  1  0  0  0  0
 18 45  1  0  0  0  0
 19 20  2  0  0  0  0
 19 21  1  0  0  0  0
 21 22  1  0  0  0  0
 21 24  2  0  0  0  0
 22 23  3  0  0  0  0
 24 25  1  0  0  0  0
 25 46  1  0  0  0  0
 25 47  1  0  0  0  0
 25 48  1  0  0  0  0
M  END
> <s_m_source_file>
AV-unprocessed.smi

> <i_m_source_file_index>
437

> <i_lp_mmshare_version>
43012

> <i_f3d_flags>
0

> <s_epik_input>
TiNDYyhjMVtDSDNdKWMoPU8pbihuYzFbQ0gzXSlbQ0gyXUMoPU8pW05IXUMoPU8pW05IXVtDQEBIXTJbQ0gyXVtDSDJdW0NIMl1bQ0gyXVtDQEhdMltDSDNd

> <s_epik_cmdline>
J2VwaWtfcHl0aG9uJywgJy1waCcsICc3LjAnLCAnLXRuJywgJzgnLCAnLW1hJywgJzIwMCcsICctbWV0YWxfYmluZGluZycsICctaW1hZScsICc8aW5maWxlLm1hZT4nLCAnLW9tYWUnLCAnPG91dGZpbGUubWFlPic=

> <r_lp_tautomer_probability>
1

> <r_epik_Ionization_Penalty>
3.27035e-05

> <r_epik_Ionization_Penalty_Charging>
1.6965e-11

> <r_epik_Ionization_Penalty_Neutral>
3.27035e-05

> <r_epik_State_Penalty>
-0

> <r_epik_Charging_Adjusted_Penalty>
1.6965e-11

> <i_epik_Tot_Q>
0

> <i_epik_Tot_abs_Q>
0

> <r_epik_Metal_State_Penalty>
-0

> <b_epik_Metal_Only>
0

> <s_lp_Force_Field>
OPLS_2005

> <r_lp_Energy>
26.4777

> <b_lp_Chiralities_Consistent>
1

> <s_lp_Variant>
AV-unprocessed.smi:437-3

> <Gold.Version>
5.8.1

> <Gold.Id.Protein>
6NUR|6NUR_protein|mol2

> <Gold.PLP.Fitness>
39.1439

> <Gold.PLP.PLP>
-36.9049

> <Gold.PLP.part.hbond>
-1.9173

> <Gold.PLP.part.metal>
0.0000

> <Gold.PLP.part.buried>
-3.5892

> <Gold.PLP.part.nonpolar>
-32.7667

> <Gold.PLP.part.repulsive>
1.6074

> <Gold.PLP.ligand.clash>
0.0000

> <Gold.PLP.ligand.torsion>
0.3935

> <Gold.PLP.Chemscore.Hbond>
1.0000

> <Gold.PLP.Chemscore.CHOScore>
0.0000

> <Gold.PLP.Chemscore.Metal>
0.0000

> <Gold.Chemscore.Hbonds>
donor molecule, donor type, donor heavy atom, donor atom, acceptor molecule, acceptor atom, score
      P1  H 10752 10764       L1    10  1.00

> <Gold.PLP.Chemscore.Internal.Correction>
0.0260

> <Gold.Rescore>
     Score         DG    S(hbond)    S(metal)    S(lipo)     H(rot)  DE(clash)    DE(int)     intcor
     10.98     -14.31       1.00        0.00      81.20       1.57       0.45       2.88       ----

> <Gold.Chemscore.Fitness>
10.9829

> <Gold.Chemscore.DG>
-14.3121

> <Gold.Chemscore.ZeroCoef>
-5.4800

> <Gold.Chemscore.Hbond>
1.0000

> <Gold.Chemscore.Metal>
0.0000

> <Gold.Chemscore.Lipo>
81.1962

> <Gold.Chemscore.Internal_Hbond>
0.0000

> <Gold.Chemscore.DEClash>
0.4501

> <Gold.Chemscore.DEInternal>
2.8791

> <Gold.Chemscore.Rot>
1.5656

> <Gold.Chemscore.Internal.Correction>
   9.000000E+99

> <Gold.Chemscore.Hbonds>
donor molecule, donor type, donor heavy atom, donor atom, acceptor molecule, acceptor atom, score
      P1  H 10752 10764       L1    10  1.00

> <Gold.Chemscore.Hbond.Weighted>
-3.3400

> <Gold.Chemscore.Metal.Weighted>
-0.0000

> <Gold.Chemscore.Lipo.Weighted>
-9.5000

> <Gold.Chemscore.Internal_Hbond.Weighted>
0.0000

> <Gold.Chemscore.DEClash.Weighted>
0.4501

> <Gold.Chemscore.DEInternal.Weighted>
2.8791

> <Gold.Chemscore.Rot.Weighted>
4.0079

> <Gold.Chemscore.Internal.Correction.Weighted>
   9.000000E+99

> <Gold.Protein.RotatedTorsions>
[ 6907 6896 6895 6894 ] final -133.31 input  -60.11 | X-H torsion
[ 7974 7965 7964 7962 ] final -152.74 input  175.53 | X-H torsion
[ 8008 7997 7996 7995 ] final   67.48 input   59.86 | X-H torsion
[ 10167 10162 10161 10158 ] final -152.31 input  -65.29 | X-H torsion
[ 10718 10713 10712 10709 ] final  100.54 input   66.30 | X-H torsion
[ 10763 10752 10751 10750 ] final  -72.96 input  -60.55 | X-H torsion
[ 11005 11000 10999 10996 ] final  -92.00 input  -57.11 | X-H torsion

> <Gold.Protein.ActiveResidues>
 VAL166  LYS551  ARG553  GLY616  TRP617  ASP618  TYR619  PRO620  LYS621  CYS622 
 ASP623  PHE694  ASN695  SER759  ASP760  ASP761  ALA762  ILE779  LEU786  VAL792 
 PHE793  MET794  SER795  GLU796  ALA797  LYS798  CYS799  TRP800  GLU811  SER814 

> <Gold.Protein.RotatedAtoms>
  150.9725  133.6329  159.2735 H   0  0  0  0  0  0  0  0  0  0  0  0  # atno 6907 bound_to 6896
  151.3612  135.0903  159.9445 H   0  0  0  0  0  0  0  0  0  0  0  0  # atno 6908 bound_to 6896
  152.5188  133.9299  159.7630 H   0  0  0  0  0  0  0  0  0  0  0  0  # atno 6909 bound_to 6896
  144.7778  140.4621  143.5861 H   0  0  0  0  0  0  0  0  0  0  0  0  # atno 7974 bound_to 7965
  155.6936  140.3496  155.4904 H   0  0  0  0  0  0  0  0  0  0  0  0  # atno 8008 bound_to 7997
  155.9502  140.1118  157.1005 H   0  0  0  0  0  0  0  0  0  0  0  0  # atno 8009 bound_to 7997
  154.4120  140.1195  156.5029 H   0  0  0  0  0  0  0  0  0  0  0  0  # atno 8010 bound_to 7997
  139.7193  143.8983  152.2497 H   0  0  0  0  0  0  0  0  0  0  0  0  # atno 10167 bound_to 10162
  157.6851  131.0701  150.5117 H   0  0  0  0  0  0  0  0  0  0  0  0  # atno 10718 bound_to 10713
  154.4529  135.5913  153.6204 H   0  0  0  0  0  0  0  0  0  0  0  0  # atno 10763 bound_to 10752
  152.9815  135.6025  154.3582 H   0  0  0  0  0  0  0  0  0  0  0  0  # atno 10764 bound_to 10752
  154.3445  135.2841  155.2384 H   0  0  0  0  0  0  0  0  0  0  0  0  # atno 10765 bound_to 10752
  141.1532  133.7792  156.9958 H   0  0  0  0  0  0  0  0  0  0  0  0  # atno 11005 bound_to 11000
  145.6137  139.1516  143.3061 LP  0  0  0  0  0  0  0  0  0  0  0  0  # atno 17320 bound_to 7965
  146.1968  140.6251  142.9120 LP  0  0  0  0  0  0  0  0  0  0  0  0  # atno 17321 bound_to 7965
  139.8874  144.6984  150.8808 LP  0  0  0  0  0  0  0  0  0  0  0  0  # atno 17342 bound_to 10162
  140.7750  143.3613  151.1823 LP  0  0  0  0  0  0  0  0  0  0  0  0  # atno 17343 bound_to 10162
  156.5434  130.4213  149.6143 LP  0  0  0  0  0  0  0  0  0  0  0  0  # atno 17370 bound_to 10713
  156.2966  130.7153  151.2015 LP  0  0  0  0  0  0  0  0  0  0  0  0  # atno 17371 bound_to 10713
  140.0972  134.9557  157.1868 LP  0  0  0  0  0  0  0  0  0  0  0  0  # atno 17394 bound_to 11000
  140.3366  134.2750  155.7219 LP  0  0  0  0  0  0  0  0  0  0  0  0  # atno 17395 bound_to 11000

$$$$
