AV-unprocessed.smi:3331|AV-procd|sdf|12827|dock7
  -GOLD-   2272019203D 1   1.00000     0.00000
 Structure written by MMmdl.
 46 47  0  0  0  0  0  0  0  0  1 V2000
  148.3428  141.5575  156.4404 C   0  0  0  0  0  0  0  0  0  0  0  0
  149.4456  141.3035  157.4771 C   0  0  2  0  0  0  0  0  0  0  0  0
  149.9392  142.6213  158.1168 C   0  0  0  0  0  0  0  0  0  0  0  0
  151.1402  142.4057  159.0666 C   0  0  2  0  0  0  0  0  0  0  0  0
  151.6949  143.7391  159.5861 C   0  0  0  0  0  0  0  0  0  0  0  0
  152.2318  141.5671  158.3681 C   0  0  0  0  0  0  0  0  0  0  0  0
  151.6297  140.3050  157.9208 N   0  0  0  0  0  0  0  0  0  0  0  0
  151.8737  139.1242  158.5433 C   0  0  0  0  0  0  0  0  0  0  0  0
  152.7320  139.0193  159.4223 O   0  0  0  0  0  0  0  0  0  0  0  0
  151.0547  137.8645  158.1721 C   0  0  1  0  0  0  0  0  0  0  0  0
  151.9841  136.7860  157.5930 C   0  0  0  0  0  0  0  0  0  0  0  0
  150.3159  137.3097  159.3194 N   0  0  0  0  0  0  0  0  0  0  0  0
  148.8718  137.2613  159.1069 C   0  0  0  0  0  0  0  0  0  0  0  0
  148.3134  135.9205  159.6086 C   0  0  0  0  0  0  0  0  0  0  0  0
  147.6276  136.0661  160.8802 N   0  0  0  0  0  0  0  0  0  0  0  0
  147.2049  135.0791  161.7459 C   0  0  0  0  0  0  0  0  0  0  0  0
  146.6331  135.6988  162.8199 C   0  0  0  0  0  0  0  0  0  0  0  0
  146.7554  137.0835  162.5155 C   0  0  0  0  0  0  0  0  0  0  0  0
  147.3495  137.3002  161.3532 N   0  0  0  0  0  0  0  0  0  0  0  0
  150.6384  140.5423  156.8647 C   0  0  0  0  0  0  0  0  0  0  0  0
  148.7069  142.1703  155.6151 H   0  0  0  0  0  0  0  0  0  0  0  0
  147.4937  142.0736  156.8895 H   0  0  0  0  0  0  0  0  0  0  0  0
  147.9751  140.6201  156.0223 H   0  0  0  0  0  0  0  0  0  0  0  0
  149.0183  140.6829  158.2666 H   0  0  0  0  0  0  0  0  0  0  0  0
  150.2323  143.3128  157.3251 H   0  0  0  0  0  0  0  0  0  0  0  0
  149.1214  143.1020  158.6548 H   0  0  0  0  0  0  0  0  0  0  0  0
  150.7868  141.8395  159.9300 H   0  0  0  0  0  0  0  0  0  0  0  0
  152.0678  144.3589  158.7701 H   0  0  0  0  0  0  0  0  0  0  0  0
  152.5174  143.5766  160.2834 H   0  0  0  0  0  0  0  0  0  0  0  0
  150.9253  144.3061  160.1110 H   0  0  0  0  0  0  0  0  0  0  0  0
  152.6356  142.1055  157.5094 H   0  0  0  0  0  0  0  0  0  0  0  0
  153.0763  141.4159  159.0420 H   0  0  0  0  0  0  0  0  0  0  0  0
  150.3068  138.1110  157.4197 H   0  0  0  0  0  0  0  0  0  0  0  0
  152.5379  137.1550  156.7291 H   0  0  0  0  0  0  0  0  0  0  0  0
  151.4150  135.9153  157.2656 H   0  0  0  0  0  0  0  0  0  0  0  0
  152.7116  136.4467  158.3318 H   0  0  0  0  0  0  0  0  0  0  0  0
  150.6513  136.3933  159.5788 H   0  0  0  0  0  0  0  0  0  0  0  0
  148.3540  138.0777  159.6115 H   0  0  0  0  0  0  0  0  0  0  0  0
  148.6731  137.3754  158.0409 H   0  0  0  0  0  0  0  0  0  0  0  0
  147.6061  135.5183  158.8819 H   0  0  0  0  0  0  0  0  0  0  0  0
  149.1077  135.1803  159.7142 H   0  0  0  0  0  0  0  0  0  0  0  0
  147.3508  134.0308  161.5304 H   0  0  0  0  0  0  0  0  0  0  0  0
  146.1973  135.2340  163.6918 H   0  0  0  0  0  0  0  0  0  0  0  0
  146.4324  137.9320  163.1004 H   0  0  0  0  0  0  0  0  0  0  0  0
  150.3104  139.6348  156.3616 H   0  0  0  0  0  0  0  0  0  0  0  0
  151.0946  141.1429  156.0761 H   0  0  0  0  0  0  0  0  0  0  0  0
  1  2  1  0  0  0  0
  1 21  1  0  0  0  0
  1 22  1  0  0  0  0
  1 23  1  0  0  0  0
  2 20  1  0  0  0  0
  2  3  1  0  0  0  0
  2 24  1  0  0  0  0
  3  4  1  0  0  0  0
  3 25  1  0  0  0  0
  3 26  1  0  0  0  0
  4  5  1  0  0  0  0
  4  6  1  0  0  0  0
  4 27  1  0  0  0  0
  5 28  1  0  0  0  0
  5 29  1  0  0  0  0
  5 30  1  0  0  0  0
  6  7  1  0  0  0  0
  6 31  1  0  0  0  0
  6 32  1  0  0  0  0
  7  8  1  0  0  0  0
  7 20  1  0  0  0  0
  8  9  2  0  0  0  0
  8 10  1  0  0  0  0
 10 11  1  0  0  0  0
 10 12  1  0  0  0  0
 10 33  1  0  0  0  0
 11 34  1  0  0  0  0
 11 35  1  0  0  0  0
 11 36  1  0  0  0  0
 12 13  1  0  0  0  0
 12 37  1  0  0  0  0
 13 14  1  0  0  0  0
 13 38  1  0  0  0  0
 13 39  1  0  0  0  0
 14 15  1  0  0  0  0
 14 40  1  0  0  0  0
 14 41  1  0  0  0  0
 15 19  1  0  0  0  0
 15 16  1  0  0  0  0
 16 17  2  0  0  0  0
 16 42  1  0  0  0  0
 17 18  1  0  0  0  0
 17 43  1  0  0  0  0
 18 19  2  0  0  0  0
 18 44  1  0  0  0  0
 20 45  1  0  0  0  0
 20 46  1  0  0  0  0
M  END
> <s_m_source_file>
AV-unprocessed.smi

> <i_m_source_file_index>
3331

> <i_lp_mmshare_version>
43012

> <i_f3d_flags>
0

> <s_epik_input>
W0NIM11bQ0BASF0xW0NIMl1bQ0BASF0oW0NIM10pW0NIMl1OKFtDSDJdMSlDKD1PKVtDQEhdKFtDSDNdKVtOSF1bQ0gyXVtDSDJdbjJbY0hdW2NIXVtjSF1uMg==

> <s_epik_cmdline>
J2VwaWtfcHl0aG9uJywgJy1waCcsICc3LjAnLCAnLXRuJywgJzgnLCAnLW1hJywgJzIwMCcsICctbWV0YWxfYmluZGluZycsICctaW1hZScsICc8aW5maWxlLm1hZT4nLCAnLW9tYWUnLCAnPG91dGZpbGUubWFlPic=

> <r_lp_tautomer_probability>
1

> <r_epik_Ionization_Penalty>
0.767994

> <r_epik_Ionization_Penalty_Charging>
0

> <r_epik_Ionization_Penalty_Neutral>
0.767994

> <r_epik_State_Penalty>
0.795453

> <r_epik_Charging_Adjusted_Penalty>
0.795453

> <i_epik_Tot_Q>
0

> <i_epik_Tot_abs_Q>
0

> <r_epik_Metal_State_Penalty>
0.794784

> <b_epik_Metal_Only>
0

> <s_lp_Force_Field>
OPLS_2005

> <r_lp_Energy>
28.4318

> <b_lp_Chiralities_Consistent>
1

> <s_lp_Variant>
AV-unprocessed.smi:3331-11

> <Gold.Version>
5.8.1

> <Gold.Id.Protein>
6NUR|6NUR_protein|mol2

> <Gold.PLP.Fitness>
39.1088

> <Gold.PLP.PLP>
-36.5907

> <Gold.PLP.part.hbond>
-2.0000

> <Gold.PLP.part.metal>
0.0000

> <Gold.PLP.part.buried>
-5.8924

> <Gold.PLP.part.nonpolar>
-28.3976

> <Gold.PLP.part.repulsive>
0.0000

> <Gold.PLP.ligand.clash>
0.0000

> <Gold.PLP.ligand.torsion>
1.5170

> <Gold.PLP.Chemscore.Hbond>
1.8240

> <Gold.PLP.Chemscore.CHOScore>
0.0000

> <Gold.PLP.Chemscore.Metal>
0.0000

> <Gold.Chemscore.Hbonds>
donor molecule, donor type, donor heavy atom, donor atom, acceptor molecule, acceptor atom, score
      P1  H  6931  6943       L1    19  0.83
      P1  H  6934  6947       L1    19  0.96

> <Gold.PLP.Chemscore.Internal.Correction>
0.0801

> <Gold.Rescore>
     Score         DG    S(hbond)    S(metal)    S(lipo)     H(rot)  DE(clash)    DE(int)     intcor
     14.77     -16.29       1.43        0.00      87.85       1.66       0.07       1.45       ----

> <Gold.Chemscore.Fitness>
14.7717

> <Gold.Chemscore.DG>
-16.2890

> <Gold.Chemscore.ZeroCoef>
-5.4800

> <Gold.Chemscore.Hbond>
1.4347

> <Gold.Chemscore.Metal>
0.0000

> <Gold.Chemscore.Lipo>
87.8549

> <Gold.Chemscore.Internal_Hbond>
0.0000

> <Gold.Chemscore.DEClash>
0.0661

> <Gold.Chemscore.DEInternal>
1.4512

> <Gold.Chemscore.Rot>
1.6649

> <Gold.Chemscore.Internal.Correction>
   9.000000E+99

> <Gold.Chemscore.Hbonds>
donor molecule, donor type, donor heavy atom, donor atom, acceptor molecule, acceptor atom, score
      P1  H  6931  6943       L1    19  0.22
      P1  H  6934  6947       L1    19  0.65

> <Gold.Chemscore.Hbond.Weighted>
-4.7920

> <Gold.Chemscore.Metal.Weighted>
-0.0000

> <Gold.Chemscore.Lipo.Weighted>
-10.2790

> <Gold.Chemscore.Internal_Hbond.Weighted>
0.0000

> <Gold.Chemscore.DEClash.Weighted>
0.0661

> <Gold.Chemscore.DEInternal.Weighted>
1.4512

> <Gold.Chemscore.Rot.Weighted>
4.2621

> <Gold.Chemscore.Internal.Correction.Weighted>
   9.000000E+99

> <Gold.Protein.RotatedTorsions>
[ 6907 6896 6895 6894 ] final   83.32 input  -60.11 | X-H torsion
[ 7974 7965 7964 7962 ] final  -54.13 input  175.53 | X-H torsion
[ 8008 7997 7996 7995 ] final   89.58 input   59.86 | X-H torsion
[ 10167 10162 10161 10158 ] final  116.34 input  -65.29 | X-H torsion
[ 10718 10713 10712 10709 ] final -121.81 input   66.30 | X-H torsion
[ 10763 10752 10751 10750 ] final -148.09 input  -60.55 | X-H torsion
[ 11005 11000 10999 10996 ] final -158.70 input  -57.11 | X-H torsion

> <Gold.Protein.ActiveResidues>
 VAL166  LYS551  ARG553  GLY616  TRP617  ASP618  TYR619  PRO620  LYS621  CYS622 
 ASP623  PHE694  ASN695  SER759  ASP760  ASP761  ALA762  ILE779  LEU786  VAL792 
 PHE793  MET794  SER795  GLU796  ALA797  LYS798  CYS799  TRP800  GLU811  SER814 

> <Gold.Protein.RotatedAtoms>
  152.5324  134.2914  159.9044 H   0  0  0  0  0  0  0  0  0  0  0  0  # atno 6907 bound_to 6896
  151.2866  133.4178  159.2638 H   0  0  0  0  0  0  0  0  0  0  0  0  # atno 6908 bound_to 6896
  151.0237  134.9504  159.8130 H   0  0  0  0  0  0  0  0  0  0  0  0  # atno 6909 bound_to 6896
  145.8890  140.8086  142.9801 H   0  0  0  0  0  0  0  0  0  0  0  0  # atno 7974 bound_to 7965
  156.0016  140.3359  155.6851 H   0  0  0  0  0  0  0  0  0  0  0  0  # atno 8008 bound_to 7997
  155.6282  140.0682  157.2675 H   0  0  0  0  0  0  0  0  0  0  0  0  # atno 8009 bound_to 7997
  154.4251  140.1764  156.1431 H   0  0  0  0  0  0  0  0  0  0  0  0  # atno 8010 bound_to 7997
  139.6254  144.7107  151.2544 H   0  0  0  0  0  0  0  0  0  0  0  0  # atno 10167 bound_to 10162
  156.1367  130.6436  150.9707 H   0  0  0  0  0  0  0  0  0  0  0  0  # atno 10718 bound_to 10713
  154.8251  135.3343  154.6920 H   0  0  0  0  0  0  0  0  0  0  0  0  # atno 10763 bound_to 10752
  153.7547  135.6937  153.4942 H   0  0  0  0  0  0  0  0  0  0  0  0  # atno 10764 bound_to 10752
  153.2152  135.4468  155.0375 H   0  0  0  0  0  0  0  0  0  0  0  0  # atno 10765 bound_to 10752
  140.6507  134.4453  157.5235 H   0  0  0  0  0  0  0  0  0  0  0  0  # atno 11005 bound_to 11000
  144.6729  140.1500  143.7430 LP  0  0  0  0  0  0  0  0  0  0  0  0  # atno 17320 bound_to 7965
  145.8932  139.2387  143.1537 LP  0  0  0  0  0  0  0  0  0  0  0  0  # atno 17321 bound_to 7965
  140.7408  143.6577  150.8191 LP  0  0  0  0  0  0  0  0  0  0  0  0  # atno 17342 bound_to 10162
  140.0194  143.5558  152.2806 LP  0  0  0  0  0  0  0  0  0  0  0  0  # atno 17343 bound_to 10162
  157.6539  131.0892  150.7991 LP  0  0  0  0  0  0  0  0  0  0  0  0  # atno 17370 bound_to 10713
  156.8070  130.4940  149.5361 LP  0  0  0  0  0  0  0  0  0  0  0  0  # atno 17371 bound_to 10713
  139.9047  134.8476  156.1754 LP  0  0  0  0  0  0  0  0  0  0  0  0  # atno 17394 bound_to 11000
  141.0539  133.6875  156.1823 LP  0  0  0  0  0  0  0  0  0  0  0  0  # atno 17395 bound_to 11000

$$$$
