AV-unprocessed.smi:1109|AV-procd|sdf|4789|dock6
  -GOLD-   22720 3333D 1   1.00000     0.00000
 Structure written by MMmdl.
 45 46  0  0  0  0  0  0  0  0  1 V2000
  152.3496  144.7526  158.8008 C   0  0  0  0  0  0  0  0  0  0  0  0
  152.8867  143.6937  159.5727 O   0  0  0  0  0  0  0  0  0  0  0  0
  151.9873  142.6039  159.7034 C   0  0  0  0  0  0  0  0  0  0  0  0
  151.6267  142.0676  158.3092 C   0  0  0  0  0  0  0  0  0  0  0  0
  151.3167  140.6345  158.3439 N   0  0  0  0  0  0  0  0  0  0  0  0
  152.2930  139.8692  158.9523 N   0  0  0  0  0  0  0  0  0  0  0  0
  152.1625  138.5880  159.0480 C   0  0  0  0  0  0  0  0  0  0  0  0
  153.1726  137.7197  159.7351 C   0  0  0  0  0  0  0  0  0  0  0  0
  153.1585  136.5132  159.4833 O   0  0  0  0  0  0  0  0  0  0  0  0
  154.0296  138.2480  160.6661 N   0  0  0  0  0  0  0  0  0  0  0  0
  154.4364  139.6717  160.7167 C   0  0  0  0  0  0  0  0  0  0  0  0
  155.8390  139.9778  160.1584 C   0  0  0  0  0  0  0  0  0  0  0  0
  156.7954  140.3854  160.9993 N   0  0  0  0  0  0  0  0  0  0  0  0
  156.0516  139.8519  158.9551 O   0  0  0  0  0  0  0  0  0  0  0  0
  154.8095  137.3862  161.5906 C   0  0  0  0  0  0  0  0  0  0  0  0
  155.5986  136.2620  160.8816 C   0  0  0  0  0  0  0  0  0  0  0  0
  155.0955  134.9437  161.4775 C   0  0  0  0  0  0  0  0  0  0  0  0
  154.5843  135.3131  162.8680 C   0  0  0  0  0  0  0  0  0  0  0  0
  153.9735  136.7047  162.6986 C   0  0  0  0  0  0  0  0  0  0  0  0
  150.9727  137.9306  158.5315 C   0  0  0  0  0  0  0  0  0  0  0  0
  150.0139  138.6909  157.9579 C   0  0  0  0  0  0  0  0  0  0  0  0
  150.1442  140.1443  157.8423 C   0  0  0  0  0  0  0  0  0  0  0  0
  149.2779  140.8613  157.3426 O   0  0  0  0  0  0  0  0  0  0  0  0
  153.0766  145.5618  158.7328 H   0  0  0  0  0  0  0  0  0  0  0  0
  151.4429  145.1517  159.2567 H   0  0  0  0  0  0  0  0  0  0  0  0
  152.1169  144.4230  157.7876 H   0  0  0  0  0  0  0  0  0  0  0  0
  152.4263  141.8149  160.3161 H   0  0  0  0  0  0  0  0  0  0  0  0
  151.0813  142.9411  160.2088 H   0  0  0  0  0  0  0  0  0  0  0  0
  150.7804  142.6276  157.9078 H   0  0  0  0  0  0  0  0  0  0  0  0
  152.4498  142.2585  157.6180 H   0  0  0  0  0  0  0  0  0  0  0  0
  153.7206  140.2640  160.1447 H   0  0  0  0  0  0  0  0  0  0  0  0
  154.3564  140.0804  161.7246 H   0  0  0  0  0  0  0  0  0  0  0  0
  157.7218  140.5851  160.6511 H   0  0  0  0  0  0  0  0  0  0  0  0
  156.5885  140.4870  161.9823 H   0  0  0  0  0  0  0  0  0  0  0  0
  155.5476  137.9989  162.1116 H   0  0  0  0  0  0  0  0  0  0  0  0
  155.4983  136.2769  159.7958 H   0  0  0  0  0  0  0  0  0  0  0  0
  156.6615  136.3760  161.0985 H   0  0  0  0  0  0  0  0  0  0  0  0
  154.2721  134.5561  160.8767 H   0  0  0  0  0  0  0  0  0  0  0  0
  155.8697  134.1766  161.5071 H   0  0  0  0  0  0  0  0  0  0  0  0
  153.8714  134.5871  163.2597 H   0  0  0  0  0  0  0  0  0  0  0  0
  155.4233  135.3642  163.5631 H   0  0  0  0  0  0  0  0  0  0  0  0
  153.9933  137.2715  163.6298 H   0  0  0  0  0  0  0  0  0  0  0  0
  152.9251  136.5990  162.4215 H   0  0  0  0  0  0  0  0  0  0  0  0
  150.8539  136.8586  158.5981 H   0  0  0  0  0  0  0  0  0  0  0  0
  149.1259  138.2137  157.5701 H   0  0  0  0  0  0  0  0  0  0  0  0
  1  2  1  0  0  0  0
  1 24  1  0  0  0  0
  1 25  1  0  0  0  0
  1 26  1  0  0  0  0
  2  3  1  0  0  0  0
  3  4  1  0  0  0  0
  3 27  1  0  0  0  0
  3 28  1  0  0  0  0
  4  5  1  0  0  0  0
  4 29  1  0  0  0  0
  4 30  1  0  0  0  0
  5 22  1  0  0  0  0
  5  6  1  0  0  0  0
  6  7  2  0  0  0  0
  7  8  1  0  0  0  0
  7 20  1  0  0  0  0
  8  9  2  0  0  0  0
  8 10  1  0  0  0  0
 10 11  1  0  0  0  0
 10 15  1  0  0  0  0
 11 12  1  0  0  0  0
 11 31  1  0  0  0  0
 11 32  1  0  0  0  0
 12 13  1  0  0  0  0
 12 14  2  0  0  0  0
 13 33  1  0  0  0  0
 13 34  1  0  0  0  0
 15 19  1  0  0  0  0
 15 16  1  0  0  0  0
 15 35  1  0  0  0  0
 16 17  1  0  0  0  0
 16 36  1  0  0  0  0
 16 37  1  0  0  0  0
 17 18  1  0  0  0  0
 17 38  1  0  0  0  0
 17 39  1  0  0  0  0
 18 19  1  0  0  0  0
 18 40  1  0  0  0  0
 18 41  1  0  0  0  0
 19 42  1  0  0  0  0
 19 43  1  0  0  0  0
 20 21  2  0  0  0  0
 20 44  1  0  0  0  0
 21 22  1  0  0  0  0
 21 45  1  0  0  0  0
 22 23  2  0  0  0  0
M  END
> <s_m_source_file>
AV-unprocessed.smi

> <i_m_source_file_index>
1109

> <i_lp_mmshare_version>
43012

> <i_f3d_flags>
0

> <s_epik_input>
W0NIM11PW0NIMl1bQ0gyXW4xbmMoW2NIXVtjSF1jMT1PKUMoPU8pTihbQ0gyXUMoPU8pW05IMl0pW0NIXTJbQ0gyXVtDSDJdW0NIMl1bQ0gyXTI=

> <s_epik_cmdline>
J2VwaWtfcHl0aG9uJywgJy1waCcsICc3LjAnLCAnLXRuJywgJzgnLCAnLW1hJywgJzIwMCcsICctbWV0YWxfYmluZGluZycsICctaW1hZScsICc8aW5maWxlLm1hZT4nLCAnLW9tYWUnLCAnPG91dGZpbGUubWFlPic=

> <r_lp_tautomer_probability>
1

> <r_epik_Ionization_Penalty>
6.63696e-08

> <r_epik_Ionization_Penalty_Charging>
1.13312e-09

> <r_epik_Ionization_Penalty_Neutral>
6.52365e-08

> <r_epik_State_Penalty>
-0

> <r_epik_Charging_Adjusted_Penalty>
1.13312e-09

> <i_epik_Tot_Q>
0

> <i_epik_Tot_abs_Q>
0

> <r_epik_Metal_State_Penalty>
-0

> <b_epik_Metal_Only>
0

> <s_lp_Force_Field>
OPLS_2005

> <r_lp_Energy>
53.0262

> <b_lp_Chiralities_Consistent>
1

> <s_lp_Variant>
AV-unprocessed.smi:1109-1

> <Gold.Version>
5.8.1

> <Gold.Id.Protein>
6NUR|6NUR_protein|mol2

> <Gold.PLP.Fitness>
44.4902

> <Gold.PLP.PLP>
-39.7874

> <Gold.PLP.part.hbond>
-3.0000

> <Gold.PLP.part.metal>
0.0000

> <Gold.PLP.part.buried>
-6.5887

> <Gold.PLP.part.nonpolar>
-30.1527

> <Gold.PLP.part.repulsive>
0.0589

> <Gold.PLP.ligand.clash>
0.0000

> <Gold.PLP.ligand.torsion>
0.9080

> <Gold.PLP.Chemscore.Hbond>
2.0000

> <Gold.PLP.Chemscore.CHOScore>
0.0000

> <Gold.PLP.Chemscore.Metal>
0.0000

> <Gold.Chemscore.Hbonds>
donor molecule, donor type, donor heavy atom, donor atom, acceptor molecule, acceptor atom, score
      P1  H  6896  6909       L1     9  1.00
      P1  H  7997  8008       L1    14  1.00

> <Gold.PLP.Chemscore.Internal.Correction>
0.5189

> <Gold.Rescore>
     Score         DG    S(hbond)    S(metal)    S(lipo)     H(rot)  DE(clash)    DE(int)     intcor
     11.96     -15.87       2.00        0.00      88.89       2.61       0.03       3.88       ----

> <Gold.Chemscore.Fitness>
11.9634

> <Gold.Chemscore.DG>
-15.8741

> <Gold.Chemscore.ZeroCoef>
-5.4800

> <Gold.Chemscore.Hbond>
1.9953

> <Gold.Chemscore.Metal>
0.0000

> <Gold.Chemscore.Lipo>
88.8934

> <Gold.Chemscore.Internal_Hbond>
0.0000

> <Gold.Chemscore.DEClash>
0.0270

> <Gold.Chemscore.DEInternal>
3.8837

> <Gold.Chemscore.Rot>
2.6057

> <Gold.Chemscore.Internal.Correction>
   9.000000E+99

> <Gold.Chemscore.Hbonds>
donor molecule, donor type, donor heavy atom, donor atom, acceptor molecule, acceptor atom, score
      P1  H  6896  6909       L1     9  0.96
      P1  H  7997  8008       L1    14  0.99

> <Gold.Chemscore.Hbond.Weighted>
-6.6643

> <Gold.Chemscore.Metal.Weighted>
-0.0000

> <Gold.Chemscore.Lipo.Weighted>
-10.4005

> <Gold.Chemscore.Internal_Hbond.Weighted>
0.0000

> <Gold.Chemscore.DEClash.Weighted>
0.0270

> <Gold.Chemscore.DEInternal.Weighted>
3.8837

> <Gold.Chemscore.Rot.Weighted>
6.6707

> <Gold.Chemscore.Internal.Correction.Weighted>
   9.000000E+99

> <Gold.Protein.RotatedTorsions>
[ 6907 6896 6895 6894 ] final  142.60 input  -60.11 | X-H torsion
[ 7974 7965 7964 7962 ] final   80.60 input  175.53 | X-H torsion
[ 8008 7997 7996 7995 ] final -154.60 input   59.86 | X-H torsion
[ 10167 10162 10161 10158 ] final  144.73 input  -65.29 | X-H torsion
[ 10718 10713 10712 10709 ] final -174.35 input   66.30 | X-H torsion
[ 10763 10752 10751 10750 ] final   -0.28 input  -60.55 | X-H torsion
[ 11005 11000 10999 10996 ] final -176.82 input  -57.11 | X-H torsion

> <Gold.Protein.ActiveResidues>
 VAL166  LYS551  ARG553  GLY616  TRP617  ASP618  TYR619  PRO620  LYS621  CYS622 
 ASP623  PHE694  ASN695  SER759  ASP760  ASP761  ALA762  ILE779  LEU786  VAL792 
 PHE793  MET794  SER795  GLU796  ALA797  LYS798  CYS799  TRP800  GLU811  SER814 

> <Gold.Protein.RotatedAtoms>
  152.2167  133.4952  159.5139 H   0  0  0  0  0  0  0  0  0  0  0  0  # atno 6907 bound_to 6896
  150.7003  134.1396  159.4109 H   0  0  0  0  0  0  0  0  0  0  0  0  # atno 6908 bound_to 6896
  151.9317  135.0253  160.0580 H   0  0  0  0  0  0  0  0  0  0  0  0  # atno 6909 bound_to 6896
  145.6491  139.2443  143.1987 H   0  0  0  0  0  0  0  0  0  0  0  0  # atno 7974 bound_to 7965
  155.6889  140.0753  157.2456 H   0  0  0  0  0  0  0  0  0  0  0  0  # atno 8008 bound_to 7997
  154.4092  140.1668  156.2116 H   0  0  0  0  0  0  0  0  0  0  0  0  # atno 8009 bound_to 7997
  155.9470  140.3380  155.6378 H   0  0  0  0  0  0  0  0  0  0  0  0  # atno 8010 bound_to 7997
  139.4941  144.5952  151.6598 H   0  0  0  0  0  0  0  0  0  0  0  0  # atno 10167 bound_to 10162
  156.7837  130.9493  151.3120 H   0  0  0  0  0  0  0  0  0  0  0  0  # atno 10718 bound_to 10713
  153.3298  135.6974  153.6957 H   0  0  0  0  0  0  0  0  0  0  0  0  # atno 10763 bound_to 10752
  153.5764  135.3506  155.2858 H   0  0  0  0  0  0  0  0  0  0  0  0  # atno 10764 bound_to 10752
  154.8616  135.4284  154.2484 H   0  0  0  0  0  0  0  0  0  0  0  0  # atno 10765 bound_to 10752
  140.4478  134.6372  157.4787 H   0  0  0  0  0  0  0  0  0  0  0  0  # atno 11005 bound_to 11000
  146.1218  140.7299  142.9454 LP  0  0  0  0  0  0  0  0  0  0  0  0  # atno 17320 bound_to 7965
  144.7129  140.4105  143.7066 LP  0  0  0  0  0  0  0  0  0  0  0  0  # atno 17321 bound_to 7965
  140.5588  144.0303  150.6160 LP  0  0  0  0  0  0  0  0  0  0  0  0  # atno 17342 bound_to 10162
  140.3382  143.3035  152.0616 LP  0  0  0  0  0  0  0  0  0  0  0  0  # atno 17343 bound_to 10162
  157.6634  130.8986  149.9879 LP  0  0  0  0  0  0  0  0  0  0  0  0  # atno 17370 bound_to 10713
  156.1202  130.3646  149.9900 LP  0  0  0  0  0  0  0  0  0  0  0  0  # atno 17371 bound_to 10713
  140.0027  134.6812  155.9505 LP  0  0  0  0  0  0  0  0  0  0  0  0  # atno 17394 bound_to 11000
  141.1677  133.6537  156.4540 LP  0  0  0  0  0  0  0  0  0  0  0  0  # atno 17395 bound_to 11000

$$$$
