AV-unprocessed.smi:1496|AV-procd|sdf|6056|dock4
  -GOLD-   22720 6173D 1   1.00000     0.00000
 Structure written by MMmdl.
 43 44  0  0  0  0  0  0  0  0  2 V2000
  148.4486  133.8664  154.2128 C   0  0  0  0  0  0  0  0  0  0  0  0
  147.0842  133.2701  153.8047 C   0  0  0  0  0  0  0  0  0  0  0  0
  146.4796  132.5312  155.0097 C   0  0  0  0  0  0  0  0  0  0  0  0
  146.1002  134.3558  153.3079 C   0  0  0  0  0  0  0  0  0  0  0  0
  146.5085  134.9056  151.9924 N   0  3  2  0  0  0  0  0  0  0  0  0
  145.6160  136.0018  151.5394 C   0  0  0  0  0  0  0  0  0  0  0  0
  145.6453  137.2183  152.4849 C   0  0  0  0  0  0  0  0  0  0  0  0
  144.3281  137.8337  152.6006 N   0  0  0  0  0  0  0  0  0  0  0  0
  143.2152  137.1939  152.9868 C   0  0  0  0  0  0  0  0  0  0  0  0
  143.1975  136.0029  153.2953 O   0  0  0  0  0  0  0  0  0  0  0  0
  142.1566  138.0226  152.9935 N   0  0  0  0  0  0  0  0  0  0  0  0
  140.7974  137.7462  153.3098 C   0  0  0  0  0  0  0  0  0  0  0  0
  139.6972  138.5545  152.9307 C   0  0  0  0  0  0  0  0  0  0  0  0
  138.4013  138.1672  153.3227 C   0  0  0  0  0  0  0  0  0  0  0  0
  138.2504  136.9913  154.0823 C   0  0  0  0  0  0  0  0  0  0  0  0
  139.2889  136.2159  154.4581 N   0  0  0  0  0  0  0  0  0  0  0  0
  140.5282  136.5933  154.0783 C   0  0  0  0  0  0  0  0  0  0  0  0
  146.6559  133.8112  151.0039 C   0  0  0  0  0  0  0  0  0  0  0  0
  147.6525  132.7622  151.5172 C   0  0  0  0  0  0  0  0  0  0  0  0
  147.2395  132.2746  152.7901 O   0  0  0  0  0  0  0  0  0  0  0  0
  148.3419  134.5349  155.0677 H   0  0  0  0  0  0  0  0  0  0  0  0
  148.9077  134.4468  153.4132 H   0  0  0  0  0  0  0  0  0  0  0  0
  149.1505  133.0816  154.4962 H   0  0  0  0  0  0  0  0  0  0  0  0
  146.2985  133.2112  155.8428 H   0  0  0  0  0  0  0  0  0  0  0  0
  147.1447  131.7432  155.3647 H   0  0  0  0  0  0  0  0  0  0  0  0
  145.5286  132.0638  154.7522 H   0  0  0  0  0  0  0  0  0  0  0  0
  145.0967  133.9372  153.2122 H   0  0  0  0  0  0  0  0  0  0  0  0
  146.0352  135.1585  154.0440 H   0  0  0  0  0  0  0  0  0  0  0  0
  145.8775  136.2962  150.5218 H   0  0  0  0  0  0  0  0  0  0  0  0
  144.5937  135.6232  151.4971 H   0  0  0  0  0  0  0  0  0  0  0  0
  146.0105  136.9285  153.4718 H   0  0  0  0  0  0  0  0  0  0  0  0
  146.3263  137.9830  152.1135 H   0  0  0  0  0  0  0  0  0  0  0  0
  144.2583  138.8139  152.3676 H   0  0  0  0  0  0  0  0  0  0  0  0
  142.3521  138.9858  152.7629 H   0  0  0  0  0  0  0  0  0  0  0  0
  139.8114  139.4622  152.3605 H   0  0  0  0  0  0  0  0  0  0  0  0
  137.5418  138.7610  153.0490 H   0  0  0  0  0  0  0  0  0  0  0  0
  137.2701  136.6676  154.3997 H   0  0  0  0  0  0  0  0  0  0  0  0
  141.3340  135.9496  154.3999 H   0  0  0  0  0  0  0  0  0  0  0  0
  145.6851  133.3475  150.8220 H   0  0  0  0  0  0  0  0  0  0  0  0
  147.0090  134.1978  150.0489 H   0  0  0  0  0  0  0  0  0  0  0  0
  147.6968  131.9223  150.8237 H   0  0  0  0  0  0  0  0  0  0  0  0
  148.6612  133.1723  151.5667 H   0  0  0  0  0  0  0  0  0  0  0  0
  147.4228  135.3135  152.1266 H   0  0  0  0  0  0  0  0  0  0  0  0
  1  2  1  0  0  0  0
  1 21  1  0  0  0  0
  1 22  1  0  0  0  0
  1 23  1  0  0  0  0
  2 20  1  0  0  0  0
  2  3  1  0  0  0  0
  2  4  1  0  0  0  0
  3 24  1  0  0  0  0
  3 25  1  0  0  0  0
  3 26  1  0  0  0  0
  4  5  1  0  0  0  0
  4 27  1  0  0  0  0
  4 28  1  0  0  0  0
  5  6  1  0  0  0  0
  5 18  1  0  0  0  0
  5 43  1  0  0  0  0
  6  7  1  0  0  0  0
  6 29  1  0  0  0  0
  6 30  1  0  0  0  0
  7  8  1  0  0  0  0
  7 31  1  0  0  0  0
  7 32  1  0  0  0  0
  8  9  1  0  0  0  0
  8 33  1  0  0  0  0
  9 10  2  0  0  0  0
  9 11  1  0  0  0  0
 11 12  1  0  0  0  0
 11 34  1  0  0  0  0
 12 17  1  0  0  0  0
 12 13  2  0  0  0  0
 13 14  1  0  0  0  0
 13 35  1  0  0  0  0
 14 15  2  0  0  0  0
 14 36  1  0  0  0  0
 15 16  1  0  0  0  0
 15 37  1  0  0  0  0
 16 17  2  0  0  0  0
 17 38  1  0  0  0  0
 18 19  1  0  0  0  0
 18 39  1  0  0  0  0
 18 40  1  0  0  0  0
 19 20  1  0  0  0  0
 19 41  1  0  0  0  0
 19 42  1  0  0  0  0
M  CHG  1   5   1
M  END
> <s_m_source_file>
AV-unprocessed.smi

> <i_m_source_file_index>
1496

> <i_lp_mmshare_version>
43012

> <i_f3d_flags>
0

> <s_epik_input>
W0NIM11DMShbQ0gzXSlbQ0gyXU4oW0NIMl1bQ0gyXU8xKVtDSDJdW0NIMl1bTkhdQyg9TylbTkhdYzJbY0hdW2NIXVtjSF1uW2NIXTI=

> <s_epik_cmdline>
J2VwaWtfcHl0aG9uJywgJy1waCcsICc3LjAnLCAnLXRuJywgJzgnLCAnLW1hJywgJzIwMCcsICctbWV0YWxfYmluZGluZycsICctaW1hZScsICc8aW5maWxlLm1hZT4nLCAnLW9tYWUnLCAnPG91dGZpbGUubWFlPic=

> <r_epik_Ionization_Penalty>
0.606681

> <r_epik_Ionization_Penalty_Charging>
0.602531

> <r_epik_Ionization_Penalty_Neutral>
0.00415082

> <r_epik_State_Penalty>
0.607427

> <r_epik_Charging_Adjusted_Penalty>
1.20996

> <i_epik_Tot_Q>
1

> <i_epik_Tot_abs_Q>
1

> <r_epik_Metal_State_Penalty>
0.604583

> <b_epik_Metal_Only>
0

> <s_lp_Force_Field>
OPLS_2005

> <r_lp_Energy>
20.8776

> <b_lp_Chiralities_Consistent>
1

> <s_lp_Variant>
AV-unprocessed.smi:1496-2

> <Gold.Version>
5.8.1

> <Gold.Id.Protein>
6NUR|6NUR_protein|mol2

> <Gold.PLP.Fitness>
45.6548

> <Gold.PLP.PLP>
-31.3953

> <Gold.PLP.part.hbond>
-5.0000

> <Gold.PLP.part.metal>
0.0000

> <Gold.PLP.part.buried>
-0.5068

> <Gold.PLP.part.nonpolar>
-26.6813

> <Gold.PLP.part.repulsive>
0.4008

> <Gold.PLP.ligand.clash>
0.0000

> <Gold.PLP.ligand.torsion>
0.3639

> <Gold.PLP.Chemscore.Hbond>
4.9913

> <Gold.PLP.Chemscore.CHOScore>
0.0000

> <Gold.PLP.Chemscore.Metal>
0.0000

> <Gold.Chemscore.Hbonds>
donor molecule, donor type, donor heavy atom, donor atom, acceptor molecule, acceptor atom, score
      L1  H     5    43       P1  7948  2.00
      L1  H     8    33       P1 10175  1.00
      L1  H    11    34       P1 10175  1.00
      P1  H 11000 11005       L1    16  0.40

> <Gold.PLP.Chemscore.Internal.Correction>
0.0136

> <Gold.Rescore>
     Score         DG    S(hbond)    S(metal)    S(lipo)     H(rot)  DE(clash)    DE(int)     intcor
     17.50     -22.11       3.66        0.00      70.54       1.50       1.58       3.03       ----

> <Gold.Chemscore.Fitness>
17.5029

> <Gold.Chemscore.DG>
-22.1127

> <Gold.Chemscore.ZeroCoef>
-5.4800

> <Gold.Chemscore.Hbond>
3.6592

> <Gold.Chemscore.Metal>
0.0000

> <Gold.Chemscore.Lipo>
70.5422

> <Gold.Chemscore.Internal_Hbond>
0.0000

> <Gold.Chemscore.DEClash>
1.5765

> <Gold.Chemscore.DEInternal>
3.0332

> <Gold.Chemscore.Rot>
1.5010

> <Gold.Chemscore.Internal.Correction>
   9.000000E+99

> <Gold.Chemscore.Hbonds>
donor molecule, donor type, donor heavy atom, donor atom, acceptor molecule, acceptor atom, score
      L1  H     5    43       P1  7948  1.00
      L1  H     8    33       P1 10175  0.99
      L1  H    11    34       P1 10175  0.95
      P1  H 11000 11005       L1    16  0.07

> <Gold.Chemscore.Hbond.Weighted>
-12.2219

> <Gold.Chemscore.Metal.Weighted>
-0.0000

> <Gold.Chemscore.Lipo.Weighted>
-8.2534

> <Gold.Chemscore.Internal_Hbond.Weighted>
0.0000

> <Gold.Chemscore.DEClash.Weighted>
1.5765

> <Gold.Chemscore.DEInternal.Weighted>
3.0332

> <Gold.Chemscore.Rot.Weighted>
3.8426

> <Gold.Chemscore.Internal.Correction.Weighted>
   9.000000E+99

> <Gold.Protein.RotatedTorsions>
[ 6907 6896 6895 6894 ] final -112.55 input  -60.11 | X-H torsion
[ 7974 7965 7964 7962 ] final  -33.38 input  175.53 | X-H torsion
[ 8008 7997 7996 7995 ] final   80.51 input   59.86 | X-H torsion
[ 10167 10162 10161 10158 ] final   89.39 input  -65.29 | X-H torsion
[ 10718 10713 10712 10709 ] final   73.23 input   66.30 | X-H torsion
[ 10763 10752 10751 10750 ] final   69.28 input  -60.55 | X-H torsion
[ 11005 11000 10999 10996 ] final   76.29 input  -57.11 | X-H torsion

> <Gold.Protein.ActiveResidues>
 VAL166  LYS551  ARG553  GLY616  TRP617  ASP618  TYR619  PRO620  LYS621  CYS622 
 ASP623  PHE694  ASN695  SER759  ASP760  ASP761  ALA762  ILE779  LEU786  VAL792 
 PHE793  MET794  SER795  GLU796  ALA797  LYS798  CYS799  TRP800  GLU811  SER814 

> <Gold.Protein.RotatedAtoms>
  150.7766  133.9074  159.3358 H   0  0  0  0  0  0  0  0  0  0  0  0  # atno 6907 bound_to 6896
  151.6947  135.0938  160.0249 H   0  0  0  0  0  0  0  0  0  0  0  0  # atno 6908 bound_to 6896
  152.3804  133.6500  159.6192 H   0  0  0  0  0  0  0  0  0  0  0  0  # atno 6909 bound_to 6896
  146.0915  140.5908  142.8862 H   0  0  0  0  0  0  0  0  0  0  0  0  # atno 7974 bound_to 7965
  155.8845  140.3442  155.5911 H   0  0  0  0  0  0  0  0  0  0  0  0  # atno 8008 bound_to 7997
  155.7682  140.0841  157.2140 H   0  0  0  0  0  0  0  0  0  0  0  0  # atno 8009 bound_to 7997
  154.4027  140.1523  156.2898 H   0  0  0  0  0  0  0  0  0  0  0  0  # atno 8010 bound_to 7997
  139.8577  144.6560  150.9095 H   0  0  0  0  0  0  0  0  0  0  0  0  # atno 10167 bound_to 10162
  157.6538  130.9618  150.1041 H   0  0  0  0  0  0  0  0  0  0  0  0  # atno 10718 bound_to 10713
  153.0279  135.5216  154.7264 H   0  0  0  0  0  0  0  0  0  0  0  0  # atno 10763 bound_to 10752
  154.6304  135.2899  155.0225 H   0  0  0  0  0  0  0  0  0  0  0  0  # atno 10764 bound_to 10752
  154.1179  135.6612  153.4950 H   0  0  0  0  0  0  0  0  0  0  0  0  # atno 10765 bound_to 10752
  139.9305  134.7588  156.1377 H   0  0  0  0  0  0  0  0  0  0  0  0  # atno 11005 bound_to 11000
  144.7364  140.4820  143.6901 LP  0  0  0  0  0  0  0  0  0  0  0  0  # atno 17320 bound_to 7965
  145.6029  139.1505  143.3119 LP  0  0  0  0  0  0  0  0  0  0  0  0  # atno 17321 bound_to 7965
  140.7779  143.3771  151.1543 LP  0  0  0  0  0  0  0  0  0  0  0  0  # atno 17342 bound_to 10162
  139.7404  143.8934  152.3048 LP  0  0  0  0  0  0  0  0  0  0  0  0  # atno 17343 bound_to 10162
  156.1955  130.3657  149.8854 LP  0  0  0  0  0  0  0  0  0  0  0  0  # atno 17370 bound_to 10713
  156.6772  130.8843  151.3570 LP  0  0  0  0  0  0  0  0  0  0  0  0  # atno 17371 bound_to 10713
  141.0890  133.6722  156.2500 LP  0  0  0  0  0  0  0  0  0  0  0  0  # atno 17394 bound_to 11000
  140.6216  134.5356  157.5548 LP  0  0  0  0  0  0  0  0  0  0  0  0  # atno 17395 bound_to 11000

$$$$
