AV-unprocessed.smi:1795|AV-procd|sdf|7248|dock2
  -GOLD-   22720 8503D 1   1.00000     0.00000
 Structure written by MMmdl.
 48 49  0  0  0  0  0  0  0  0  2 V2000
  141.7786  134.4384  153.2077 C   0  0  0  0  0  0  0  0  0  0  0  0
  143.0666  135.0305  152.6077 C   0  0  1  0  0  0  0  0  0  0  0  0
  144.2553  135.0417  153.5908 C   0  0  0  0  0  0  0  0  0  0  0  0
  144.8439  133.6859  153.7764 N   0  3  2  0  0  0  0  0  0  0  0  0
  145.9956  133.6111  154.7362 C   0  0  2  0  0  0  0  0  0  0  0  0
  146.7716  132.2867  154.5451 C   0  0  0  0  0  0  0  0  0  0  0  0
  145.5783  133.7718  156.2264 C   0  0  0  0  0  0  0  0  0  0  0  0
  146.7061  134.0433  157.1140 N   0  0  0  0  0  0  0  0  0  0  0  0
  146.8279  135.1333  157.8868 C   0  0  0  0  0  0  0  0  0  0  0  0
  145.9957  136.0413  157.9025 O   0  0  0  0  0  0  0  0  0  0  0  0
  148.0932  135.2124  158.7523 C   0  0  0  0  0  0  0  0  0  0  0  0
  147.8083  135.1704  160.1964 N   0  0  0  0  0  0  0  0  0  0  0  0
  147.5792  133.9037  160.7699 C   0  0  0  0  0  0  0  0  0  0  0  0
  147.3158  133.7536  162.0778 C   0  0  0  0  0  0  0  0  0  0  0  0
  147.2692  134.9360  162.9050 C   0  0  0  0  0  0  0  0  0  0  0  0
  147.4903  136.1521  162.3672 C   0  0  0  0  0  0  0  0  0  0  0  0
  147.7823  136.3204  160.9388 C   0  0  0  0  0  0  0  0  0  0  0  0
  147.9916  137.4269  160.4400 O   0  0  0  0  0  0  0  0  0  0  0  0
  145.1703  133.1062  152.4454 C   0  0  0  0  0  0  0  0  0  0  0  0
  143.9332  133.0769  151.5322 C   0  0  2  0  0  0  0  0  0  0  0  0
  144.2620  132.5404  150.1343 C   0  0  0  0  0  0  0  0  0  0  0  0
  143.4307  134.3989  151.3837 O   0  0  0  0  0  0  0  0  0  0  0  0
  141.4396  135.0323  154.0568 H   0  0  0  0  0  0  0  0  0  0  0  0
  141.9168  133.4177  153.5629 H   0  0  0  0  0  0  0  0  0  0  0  0
  140.9746  134.4318  152.4712 H   0  0  0  0  0  0  0  0  0  0  0  0
  142.8419  136.0668  152.3523 H   0  0  0  0  0  0  0  0  0  0  0  0
  145.0307  135.7165  153.2241 H   0  0  0  0  0  0  0  0  0  0  0  0
  143.8920  135.4483  154.5337 H   0  0  0  0  0  0  0  0  0  0  0  0
  146.6667  134.4381  154.4980 H   0  0  0  0  0  0  0  0  0  0  0  0
  147.6201  132.2114  155.2249 H   0  0  0  0  0  0  0  0  0  0  0  0
  147.1890  132.1809  153.5458 H   0  0  0  0  0  0  0  0  0  0  0  0
  146.1283  131.4254  154.7283 H   0  0  0  0  0  0  0  0  0  0  0  0
  144.8689  134.5892  156.3597 H   0  0  0  0  0  0  0  0  0  0  0  0
  145.0836  132.8656  156.5771 H   0  0  0  0  0  0  0  0  0  0  0  0
  147.4369  133.3473  157.1547 H   0  0  0  0  0  0  0  0  0  0  0  0
  148.7737  134.4023  158.4822 H   0  0  0  0  0  0  0  0  0  0  0  0
  148.6243  136.1292  158.4927 H   0  0  0  0  0  0  0  0  0  0  0  0
  147.6390  133.0702  160.0852 H   0  0  0  0  0  0  0  0  0  0  0  0
  147.1469  132.7742  162.5008 H   0  0  0  0  0  0  0  0  0  0  0  0
  147.0572  134.8450  163.9601 H   0  0  0  0  0  0  0  0  0  0  0  0
  147.4522  137.0254  163.0020 H   0  0  0  0  0  0  0  0  0  0  0  0
  145.9657  133.6916  151.9805 H   0  0  0  0  0  0  0  0  0  0  0  0
  145.5442  132.0890  152.5404 H   0  0  0  0  0  0  0  0  0  0  0  0
  143.1691  132.4329  151.9678 H   0  0  0  0  0  0  0  0  0  0  0  0
  144.6484  131.5221  150.1847 H   0  0  0  0  0  0  0  0  0  0  0  0
  145.0112  133.1588  149.6388 H   0  0  0  0  0  0  0  0  0  0  0  0
  143.3727  132.5261  149.5038 H   0  0  0  0  0  0  0  0  0  0  0  0
  144.1086  133.1176  154.1722 H   0  0  0  0  0  0  0  0  0  0  0  0
  1  2  1  0  0  0  0
  1 23  1  0  0  0  0
  1 24  1  0  0  0  0
  1 25  1  0  0  0  0
  2 22  1  0  0  0  0
  2  3  1  0  0  0  0
  2 26  1  0  0  0  0
  3  4  1  0  0  0  0
  3 27  1  0  0  0  0
  3 28  1  0  0  0  0
  4  5  1  0  0  0  0
  4 19  1  0  0  0  0
  4 48  1  0  0  0  0
  5  6  1  0  0  0  0
  5  7  1  0  0  0  0
  5 29  1  0  0  0  0
  6 30  1  0  0  0  0
  6 31  1  0  0  0  0
  6 32  1  0  0  0  0
  7  8  1  0  0  0  0
  7 33  1  0  0  0  0
  7 34  1  0  0  0  0
  8  9  1  0  0  0  0
  8 35  1  0  0  0  0
  9 10  2  0  0  0  0
  9 11  1  0  0  0  0
 11 12  1  0  0  0  0
 11 36  1  0  0  0  0
 11 37  1  0  0  0  0
 12 17  1  0  0  0  0
 12 13  1  0  0  0  0
 13 14  2  0  0  0  0
 13 38  1  0  0  0  0
 14 15  1  0  0  0  0
 14 39  1  0  0  0  0
 15 16  2  0  0  0  0
 15 40  1  0  0  0  0
 16 17  1  0  0  0  0
 16 41  1  0  0  0  0
 17 18  2  0  0  0  0
 19 20  1  0  0  0  0
 19 42  1  0  0  0  0
 19 43  1  0  0  0  0
 20 21  1  0  0  0  0
 20 22  1  0  0  0  0
 20 44  1  0  0  0  0
 21 45  1  0  0  0  0
 21 46  1  0  0  0  0
 21 47  1  0  0  0  0
M  CHG  1   4   1
M  END
> <s_m_source_file>
AV-unprocessed.smi

> <i_m_source_file_index>
1795

> <i_lp_mmshare_version>
43012

> <i_f3d_flags>
0

> <s_epik_input>
W0NIM11bQ0BASF0xW0NIMl1OKFtDSDJdW0NASF0oTzEpW0NIM10pW0NASF0oW0NIM10pW0NIMl1bTkhdQyg9TylbQ0gyXW4yW2NIXVtjSF1bY0hdW2NIXWMyPU8=

> <s_epik_cmdline>
J2VwaWtfcHl0aG9uJywgJy1waCcsICc3LjAnLCAnLXRuJywgJzgnLCAnLW1hJywgJzIwMCcsICctbWV0YWxfYmluZGluZycsICctaW1hZScsICc8aW5maWxlLm1hZT4nLCAnLW9tYWUnLCAnPG91dGZpbGUubWFlPic=

> <r_lp_tautomer_probability>
1

> <r_epik_Ionization_Penalty>
0.656654

> <r_epik_Ionization_Penalty_Charging>
0.656654

> <r_epik_Ionization_Penalty_Neutral>
8.90321e-08

> <r_epik_State_Penalty>
0.675641

> <r_epik_Charging_Adjusted_Penalty>
1.33229

> <i_epik_Tot_Q>
1

> <i_epik_Tot_abs_Q>
1

> <r_epik_Metal_State_Penalty>
0.675691

> <b_epik_Metal_Only>
0

> <s_lp_Force_Field>
OPLS_2005

> <r_lp_Energy>
31.4881

> <b_lp_Chiralities_Consistent>
1

> <s_lp_Variant>
AV-unprocessed.smi:1795-12

> <Gold.Version>
5.8.1

> <Gold.Id.Protein>
6NUR|6NUR_protein|mol2

> <Gold.PLP.Fitness>
45.1679

> <Gold.PLP.PLP>
-36.1554

> <Gold.PLP.part.hbond>
-3.0000

> <Gold.PLP.part.metal>
0.0000

> <Gold.PLP.part.buried>
-5.0591

> <Gold.PLP.part.nonpolar>
-29.3507

> <Gold.PLP.part.repulsive>
0.5783

> <Gold.PLP.ligand.clash>
0.0000

> <Gold.PLP.ligand.torsion>
0.7034

> <Gold.PLP.Chemscore.Hbond>
3.4560

> <Gold.PLP.Chemscore.CHOScore>
0.0000

> <Gold.PLP.Chemscore.Metal>
0.0000

> <Gold.Chemscore.Hbonds>
donor molecule, donor type, donor heavy atom, donor atom, acceptor molecule, acceptor atom, score
      L1  H     4    48       P1 10957  1.82
      P1  H  6931  6943       L1    18  0.64
      P1  H  6934  6947       L1    18  0.70

> <Gold.PLP.Chemscore.Internal.Correction>
0.0512

> <Gold.Rescore>
     Score         DG    S(hbond)    S(metal)    S(lipo)     H(rot)  DE(clash)    DE(int)     intcor
     17.68     -18.31       2.66        0.00      75.04       1.89       0.11       0.51       ----

> <Gold.Chemscore.Fitness>
17.6841

> <Gold.Chemscore.DG>
-18.3071

> <Gold.Chemscore.ZeroCoef>
-5.4800

> <Gold.Chemscore.Hbond>
2.6583

> <Gold.Chemscore.Metal>
0.0000

> <Gold.Chemscore.Lipo>
75.0359

> <Gold.Chemscore.Internal_Hbond>
0.0000

> <Gold.Chemscore.DEClash>
0.1090

> <Gold.Chemscore.DEInternal>
0.5139

> <Gold.Chemscore.Rot>
1.8870

> <Gold.Chemscore.Internal.Correction>
   9.000000E+99

> <Gold.Chemscore.Hbonds>
donor molecule, donor type, donor heavy atom, donor atom, acceptor molecule, acceptor atom, score
      L1  H     4    48       P1 10957  0.87
      P1  H  6931  6943       L1    18  0.16
      P1  H  6934  6947       L1    18  0.70

> <Gold.Chemscore.Hbond.Weighted>
-8.8786

> <Gold.Chemscore.Metal.Weighted>
-0.0000

> <Gold.Chemscore.Lipo.Weighted>
-8.7792

> <Gold.Chemscore.Internal_Hbond.Weighted>
0.0000

> <Gold.Chemscore.DEClash.Weighted>
0.1090

> <Gold.Chemscore.DEInternal.Weighted>
0.5139

> <Gold.Chemscore.Rot.Weighted>
4.8308

> <Gold.Chemscore.Internal.Correction.Weighted>
   9.000000E+99

> <Gold.Protein.RotatedTorsions>
[ 6907 6896 6895 6894 ] final   16.97 input  -60.11 | X-H torsion
[ 7974 7965 7964 7962 ] final -110.60 input  175.53 | X-H torsion
[ 8008 7997 7996 7995 ] final -163.35 input   59.86 | X-H torsion
[ 10167 10162 10161 10158 ] final   15.57 input  -65.29 | X-H torsion
[ 10718 10713 10712 10709 ] final  156.30 input   66.30 | X-H torsion
[ 10763 10752 10751 10750 ] final -135.56 input  -60.55 | X-H torsion
[ 11005 11000 10999 10996 ] final  120.68 input  -57.11 | X-H torsion

> <Gold.Protein.ActiveResidues>
 VAL166  LYS551  ARG553  GLY616  TRP617  ASP618  TYR619  PRO620  LYS621  CYS622 
 ASP623  PHE694  ASN695  SER759  ASP760  ASP761  ALA762  ILE779  LEU786  VAL792 
 PHE793  MET794  SER795  GLU796  ALA797  LYS798  CYS799  TRP800  GLU811  SER814 

> <Gold.Protein.RotatedAtoms>
  151.8423  135.0586  160.0449 H   0  0  0  0  0  0  0  0  0  0  0  0  # atno 6907 bound_to 6896
  152.2800  133.5456  159.5500 H   0  0  0  0  0  0  0  0  0  0  0  0  # atno 6908 bound_to 6896
  150.7185  134.0494  159.3835 H   0  0  0  0  0  0  0  0  0  0  0  0  # atno 6909 bound_to 6896
  145.1663  140.8903  143.3561 H   0  0  0  0  0  0  0  0  0  0  0  0  # atno 7974 bound_to 7965
  155.8200  140.0918  157.1855 H   0  0  0  0  0  0  0  0  0  0  0  0  # atno 8008 bound_to 7997
  154.3979  140.1438  156.3548 H   0  0  0  0  0  0  0  0  0  0  0  0  # atno 8009 bound_to 7997
  155.8276  140.3444  155.5555 H   0  0  0  0  0  0  0  0  0  0  0  0  # atno 8010 bound_to 7997
  140.5858  143.8893  150.6829 H   0  0  0  0  0  0  0  0  0  0  0  0  # atno 10167 bound_to 10162
  157.2068  131.0688  151.1993 H   0  0  0  0  0  0  0  0  0  0  0  0  # atno 10718 bound_to 10713
  154.8700  135.3699  154.4918 H   0  0  0  0  0  0  0  0  0  0  0  0  # atno 10763 bound_to 10752
  153.5564  135.7024  153.5572 H   0  0  0  0  0  0  0  0  0  0  0  0  # atno 10764 bound_to 10752
  153.3667  135.4032  155.1722 H   0  0  0  0  0  0  0  0  0  0  0  0  # atno 10765 bound_to 10752
  139.9195  134.9636  156.7844 H   0  0  0  0  0  0  0  0  0  0  0  0  # atno 11005 bound_to 11000
  145.0279  139.3366  143.6039 LP  0  0  0  0  0  0  0  0  0  0  0  0  # atno 17320 bound_to 7965
  146.3475  139.9605  142.8718 LP  0  0  0  0  0  0  0  0  0  0  0  0  # atno 17321 bound_to 7965
  140.2404  143.3668  152.1492 LP  0  0  0  0  0  0  0  0  0  0  0  0  # atno 17342 bound_to 10162
  139.5196  144.7022  151.5459 LP  0  0  0  0  0  0  0  0  0  0  0  0  # atno 17343 bound_to 10162
  157.3712  130.7182  149.6566 LP  0  0  0  0  0  0  0  0  0  0  0  0  # atno 17370 bound_to 10713
  155.9694  130.4198  150.4393 LP  0  0  0  0  0  0  0  0  0  0  0  0  # atno 17371 bound_to 10713
  140.6518  133.9724  155.7759 LP  0  0  0  0  0  0  0  0  0  0  0  0  # atno 17394 bound_to 11000
  141.0703  134.0216  157.3536 LP  0  0  0  0  0  0  0  0  0  0  0  0  # atno 17395 bound_to 11000

$$$$
