AV-unprocessed.smi:21|AV-procd|sdf|165|dock7
  -GOLD-   2262015413D 1   1.00000     0.00000
 Structure written by MMmdl.
 61 64  0  0  0  0  0  0  0  0  1 V2000
  151.3843  145.4013  158.6536 C   0  0  0  0  0  0  0  0  0  0  0  0
  152.3889  144.5721  159.2162 O   0  0  0  0  0  0  0  0  0  0  0  0
  151.8846  143.3550  159.7493 C   0  0  1  0  0  0  0  0  0  0  0  0
  151.3879  142.4074  158.6441 C   0  0  0  0  0  0  0  0  0  0  0  0
  152.0734  141.0731  158.9599 C   0  0  1  0  0  0  0  0  0  0  0  0
  152.1812  140.1225  157.7468 C   0  0  0  0  0  0  0  0  0  0  0  0
  150.9749  140.1180  156.9181 N   0  0  0  0  0  0  0  0  0  0  0  0
  150.8697  141.1316  155.8693 C   0  0  0  0  0  0  0  0  0  0  0  0
  149.8255  139.5553  157.3925 C   0  0  0  0  0  0  0  0  0  0  0  0
  148.6341  140.0834  156.9978 N   0  0  0  0  0  0  0  0  0  0  0  0
  147.4776  139.5716  157.4267 C   0  0  0  0  0  0  0  0  0  0  0  0
  147.2769  138.5372  158.2421 N   0  0  0  0  0  0  0  0  0  0  0  0
  148.4597  137.9883  158.6377 C   0  0  0  0  0  0  0  0  0  0  0  0
  149.7658  138.4266  158.2683 C   0  0  0  0  0  0  0  0  0  0  0  0
  150.7101  137.5987  158.8674 N   0  0  0  0  0  0  0  0  0  0  0  0
  150.0110  136.7405  159.5562 C   0  0  0  0  0  0  0  0  0  0  0  0
  148.6484  136.8972  159.4667 N   0  0  0  0  0  0  0  0  0  0  0  0
  147.6313  136.0885  160.1145 C   0  0  0  0  0  0  0  0  0  0  0  0
  148.1940  135.2474  161.2886 C   0  0  1  0  0  0  0  0  0  0  0  0
  147.7014  135.7865  162.6519 C   0  0  0  0  0  0  0  0  0  0  0  0
  148.1255  137.1173  162.8608 O   0  0  0  0  0  0  0  0  0  0  0  0
  147.9277  133.7243  161.1376 C   0  0  1  0  0  0  0  0  0  0  0  0
  148.3821  132.8319  162.2837 C   0  0  0  0  0  0  0  0  0  0  0  0
  147.5319  131.5901  162.0550 C   0  0  0  0  0  0  0  0  0  0  0  0
  146.2667  132.1207  161.6896 O   0  0  0  0  0  0  0  0  0  0  0  0
  146.4567  133.3200  160.9422 C   0  0  0  0  0  0  0  0  0  0  0  0
  153.3488  141.4625  159.5374 N   0  0  0  0  0  0  0  0  0  0  0  0
  154.0364  140.3854  160.2368 C   0  0  0  0  0  0  0  0  0  0  0  0
  153.0202  142.5689  160.4194 C   0  0  0  0  0  0  0  0  0  0  0  0
  151.1034  143.5539  160.4851 H   0  0  0  0  0  0  0  0  0  0  0  0
  151.4861  140.5844  159.7388 H   0  0  0  0  0  0  0  0  0  0  0  0
  151.8392  146.3142  158.2696 H   0  0  0  0  0  0  0  0  0  0  0  0
  150.6436  145.6851  159.4023 H   0  0  0  0  0  0  0  0  0  0  0  0
  150.8726  144.9099  157.8254 H   0  0  0  0  0  0  0  0  0  0  0  0
  150.3009  142.3239  158.6196 H   0  0  0  0  0  0  0  0  0  0  0  0
  151.7164  142.7759  157.6741 H   0  0  0  0  0  0  0  0  0  0  0  0
  153.0807  140.3409  157.1758 H   0  0  0  0  0  0  0  0  0  0  0  0
  152.3191  139.1018  158.1042 H   0  0  0  0  0  0  0  0  0  0  0  0
  150.3029  140.7500  155.0192 H   0  0  0  0  0  0  0  0  0  0  0  0
  151.8508  141.4310  155.5027 H   0  0  0  0  0  0  0  0  0  0  0  0
  150.3721  142.0259  156.2463 H   0  0  0  0  0  0  0  0  0  0  0  0
  146.5859  140.0611  157.0634 H   0  0  0  0  0  0  0  0  0  0  0  0
  150.4728  135.9595  160.1426 H   0  0  0  0  0  0  0  0  0  0  0  0
  146.8413  136.7539  160.4630 H   0  0  0  0  0  0  0  0  0  0  0  0
  147.1833  135.4553  159.3496 H   0  0  0  0  0  0  0  0  0  0  0  0
  149.2784  135.3699  161.2750 H   0  0  0  0  0  0  0  0  0  0  0  0
  146.6131  135.7875  162.7034 H   0  0  0  0  0  0  0  0  0  0  0  0
  148.0577  135.1603  163.4702 H   0  0  0  0  0  0  0  0  0  0  0  0
  147.6333  137.4809  163.5811 H   0  0  0  0  0  0  0  0  0  0  0  0
  148.4483  133.3737  160.2454 H   0  0  0  0  0  0  0  0  0  0  0  0
  149.4517  132.6210  162.2641 H   0  0  0  0  0  0  0  0  0  0  0  0
  148.1350  133.2601  163.2545 H   0  0  0  0  0  0  0  0  0  0  0  0
  147.9282  130.9933  161.2318 H   0  0  0  0  0  0  0  0  0  0  0  0
  147.4617  130.9563  162.9392 H   0  0  0  0  0  0  0  0  0  0  0  0
  145.7521  134.0721  161.2942 H   0  0  0  0  0  0  0  0  0  0  0  0
  146.2415  133.1426  159.8878 H   0  0  0  0  0  0  0  0  0  0  0  0
  154.9576  140.7513  160.6912 H   0  0  0  0  0  0  0  0  0  0  0  0
  154.3059  139.5828  159.5506 H   0  0  0  0  0  0  0  0  0  0  0  0
  153.4130  139.9639  161.0263 H   0  0  0  0  0  0  0  0  0  0  0  0
  153.8950  143.1868  160.6249 H   0  0  0  0  0  0  0  0  0  0  0  0
  152.6611  142.1856  161.3762 H   0  0  0  0  0  0  0  0  0  0  0  0
  1  2  1  0  0  0  0
  1 32  1  0  0  0  0
  1 33  1  0  0  0  0
  1 34  1  0  0  0  0
  2  3  1  0  0  0  0
  3 30  1  0  0  0  0
  3 29  1  0  0  0  0
  3  4  1  0  0  0  0
  4  5  1  0  0  0  0
  4 35  1  0  0  0  0
  4 36  1  0  0  0  0
  5 31  1  0  0  0  0
  5  6  1  0  0  0  0
  5 27  1  0  0  0  0
  6  7  1  0  0  0  0
  6 37  1  0  0  0  0
  6 38  1  0  0  0  0
  7  8  1  0  0  0  0
  7  9  1  0  0  0  0
  8 39  1  0  0  0  0
  8 40  1  0  0  0  0
  8 41  1  0  0  0  0
  9 14  1  0  0  0  0
  9 10  2  0  0  0  0
 10 11  1  0  0  0  0
 11 12  2  0  0  0  0
 11 42  1  0  0  0  0
 12 13  1  0  0  0  0
 13 17  1  0  0  0  0
 13 14  2  0  0  0  0
 14 15  1  0  0  0  0
 15 16  2  0  0  0  0
 16 17  1  0  0  0  0
 16 43  1  0  0  0  0
 17 18  1  0  0  0  0
 18 19  1  0  0  0  0
 18 44  1  0  0  0  0
 18 45  1  0  0  0  0
 19 20  1  0  0  0  0
 19 22  1  0  0  0  0
 19 46  1  0  0  0  0
 20 21  1  0  0  0  0
 20 47  1  0  0  0  0
 20 48  1  0  0  0  0
 21 49  1  0  0  0  0
 22 26  1  0  0  0  0
 22 23  1  0  0  0  0
 22 50  1  0  0  0  0
 23 24  1  0  0  0  0
 23 51  1  0  0  0  0
 23 52  1  0  0  0  0
 24 25  1  0  0  0  0
 24 53  1  0  0  0  0
 24 54  1  0  0  0  0
 25 26  1  0  0  0  0
 26 55  1  0  0  0  0
 26 56  1  0  0  0  0
 27 28  1  0  0  0  0
 27 29  1  0  0  0  0
 28 57  1  0  0  0  0
 28 58  1  0  0  0  0
 28 59  1  0  0  0  0
 29 60  1  0  0  0  0
 29 61  1  0  0  0  0
M  END
> <s_m_source_file>
AV-unprocessed.smi

> <i_m_source_file_index>
21

> <i_lp_mmshare_version>
43012

> <i_f3d_flags>
0

> <s_epik_input>
W0NIM11PW0NASF0xW0NIMl1bQ0BIXShOKFtDSDNdKVtDSDJdMSlbQ0gyXU4oW0NIM10pYyhuW2NIXW4yKWMoYzIzKW5bY0hdbjNbQ0gyXVtDQEhdKFtDSDJdW09IXSlbQ0BASF00W0NIMl1bQ0gyXU9bQ0gyXTQ=

> <s_epik_cmdline>
J2VwaWtfcHl0aG9uJywgJy1waCcsICc3LjAnLCAnLXRuJywgJzgnLCAnLW1hJywgJzIwMCcsICctbWV0YWxfYmluZGluZycsICctaW1hZScsICc8aW5maWxlLm1hZT4nLCAnLW9tYWUnLCAnPG91dGZpbGUubWFlPic=

> <r_lp_tautomer_probability>
1

> <r_epik_Ionization_Penalty>
2.17574

> <r_epik_Ionization_Penalty_Charging>
0

> <r_epik_Ionization_Penalty_Neutral>
2.17574

> <r_epik_State_Penalty>
2.31336

> <r_epik_Charging_Adjusted_Penalty>
2.31336

> <i_epik_Tot_Q>
0

> <i_epik_Tot_abs_Q>
0

> <r_epik_Metal_State_Penalty>
2.31025

> <b_epik_Metal_Only>
0

> <s_lp_Force_Field>
OPLS_2005

> <r_lp_Energy>
71.9314

> <b_lp_Chiralities_Consistent>
1

> <s_lp_Variant>
AV-unprocessed.smi:21-45

> <Gold.Version>
5.8.1

> <Gold.Id.Protein>
6NUR|6NUR_protein|mol2

> <Gold.PLP.Fitness>
46.6243

> <Gold.PLP.PLP>
-46.5800

> <Gold.PLP.part.hbond>
-1.4748

> <Gold.PLP.part.metal>
0.0000

> <Gold.PLP.part.buried>
-6.2633

> <Gold.PLP.part.nonpolar>
-38.3419

> <Gold.PLP.part.repulsive>
0.0607

> <Gold.PLP.ligand.clash>
0.0000

> <Gold.PLP.ligand.torsion>
1.7095

> <Gold.PLP.Chemscore.Hbond>
0.9280

> <Gold.PLP.Chemscore.CHOScore>
0.0000

> <Gold.PLP.Chemscore.Metal>
0.0000

> <Gold.Chemscore.Hbonds>
donor molecule, donor type, donor heavy atom, donor atom, acceptor molecule, acceptor atom, score
      P1  H  6931  6943       L1    21  0.80

> <Gold.PLP.Chemscore.Internal.Correction>
0.6793

> <Gold.Rescore>
     Score         DG    S(hbond)    S(metal)    S(lipo)     H(rot)  DE(clash)    DE(int)     intcor
     11.95     -14.12       0.78        0.00     117.19       3.00       0.29       1.88       ----

> <Gold.Chemscore.Fitness>
11.9486

> <Gold.Chemscore.DG>
-14.1248

> <Gold.Chemscore.ZeroCoef>
-5.4800

> <Gold.Chemscore.Hbond>
0.7847

> <Gold.Chemscore.Metal>
0.0000

> <Gold.Chemscore.Lipo>
117.1940

> <Gold.Chemscore.Internal_Hbond>
0.0000

> <Gold.Chemscore.DEClash>
0.2942

> <Gold.Chemscore.DEInternal>
1.8819

> <Gold.Chemscore.Rot>
3.0031

> <Gold.Chemscore.Internal.Correction>
   9.000000E+99

> <Gold.Chemscore.Hbonds>
donor molecule, donor type, donor heavy atom, donor atom, acceptor molecule, acceptor atom, score
      P1  H  6931  6943       L1    21  0.72

> <Gold.Chemscore.Hbond.Weighted>
-2.6210

> <Gold.Chemscore.Metal.Weighted>
-0.0000

> <Gold.Chemscore.Lipo.Weighted>
-13.7117

> <Gold.Chemscore.Internal_Hbond.Weighted>
0.0000

> <Gold.Chemscore.DEClash.Weighted>
0.2942

> <Gold.Chemscore.DEInternal.Weighted>
1.8819

> <Gold.Chemscore.Rot.Weighted>
7.6880

> <Gold.Chemscore.Internal.Correction.Weighted>
   9.000000E+99

> <Gold.Protein.RotatedTorsions>
[ 6907 6896 6895 6894 ] final   61.88 input  -60.11 | X-H torsion
[ 7974 7965 7964 7962 ] final  -71.83 input  175.53 | X-H torsion
[ 8008 7997 7996 7995 ] final  -72.20 input   59.86 | X-H torsion
[ 10167 10162 10161 10158 ] final  116.36 input  -65.29 | X-H torsion
[ 10718 10713 10712 10709 ] final  -45.68 input   66.30 | X-H torsion
[ 10763 10752 10751 10750 ] final  141.82 input  -60.55 | X-H torsion
[ 11005 11000 10999 10996 ] final -168.94 input  -57.11 | X-H torsion

> <Gold.Protein.ActiveResidues>
 VAL166  LYS551  ARG553  GLY616  TRP617  ASP618  TYR619  PRO620  LYS621  CYS622 
 ASP623  PHE694  ASN695  SER759  ASP760  ASP761  ALA762  ILE779  LEU786  VAL792 
 PHE793  MET794  SER795  GLU796  ALA797  LYS798  CYS799  TRP800  GLU811  SER814 

> <Gold.Protein.RotatedAtoms>
  152.4125  134.6098  160.0022 H   0  0  0  0  0  0  0  0  0  0  0  0  # atno 6907 bound_to 6896
  151.6271  133.3329  159.3109 H   0  0  0  0  0  0  0  0  0  0  0  0  # atno 6908 bound_to 6896
  150.8016  134.7153  159.6672 H   0  0  0  0  0  0  0  0  0  0  0  0  # atno 6909 bound_to 6896
  145.6730  140.9214  143.0873 H   0  0  0  0  0  0  0  0  0  0  0  0  # atno 7974 bound_to 7965
  154.5147  140.0801  156.8059 H   0  0  0  0  0  0  0  0  0  0  0  0  # atno 8008 bound_to 7997
  155.3706  140.3422  155.4225 H   0  0  0  0  0  0  0  0  0  0  0  0  # atno 8009 bound_to 7997
  156.1614  140.1590  156.8592 H   0  0  0  0  0  0  0  0  0  0  0  0  # atno 8010 bound_to 7997
  139.6253  144.7107  151.2547 H   0  0  0  0  0  0  0  0  0  0  0  0  # atno 10167 bound_to 10162
  156.2259  130.4169  149.8935 H   0  0  0  0  0  0  0  0  0  0  0  0  # atno 10718 bound_to 10713
  153.9455  135.2975  155.3441 H   0  0  0  0  0  0  0  0  0  0  0  0  # atno 10763 bound_to 10752
  154.7454  135.5005  153.9198 H   0  0  0  0  0  0  0  0  0  0  0  0  # atno 10764 bound_to 10752
  153.1020  135.6737  153.9762 H   0  0  0  0  0  0  0  0  0  0  0  0  # atno 10765 bound_to 10752
  140.5363  134.5567  157.5088 H   0  0  0  0  0  0  0  0  0  0  0  0  # atno 11005 bound_to 11000
  144.7050  139.8597  143.7432 LP  0  0  0  0  0  0  0  0  0  0  0  0  # atno 17320 bound_to 7965
  146.1029  139.4026  143.0335 LP  0  0  0  0  0  0  0  0  0  0  0  0  # atno 17321 bound_to 7965
  140.7407  143.6580  150.8189 LP  0  0  0  0  0  0  0  0  0  0  0  0  # atno 17342 bound_to 10162
  140.0197  143.5555  152.2805 LP  0  0  0  0  0  0  0  0  0  0  0  0  # atno 17343 bound_to 10162
  156.6565  130.8765  151.3540 LP  0  0  0  0  0  0  0  0  0  0  0  0  # atno 17370 bound_to 10713
  157.7110  130.9440  150.1089 LP  0  0  0  0  0  0  0  0  0  0  0  0  # atno 17371 bound_to 10713
  139.9527  134.7588  156.0411 LP  0  0  0  0  0  0  0  0  0  0  0  0  # atno 17394 bound_to 11000
  141.1253  133.6601  156.3320 LP  0  0  0  0  0  0  0  0  0  0  0  0  # atno 17395 bound_to 11000

$$$$
