AV-unprocessed.smi:3287|AV-procd|sdf|12603|dock5
  -GOLD-   2272018533D 1   1.00000     0.00000
 Structure written by MMmdl.
 43 44  0  0  0  0  0  0  0  0  2 V2000
  152.5608  143.2967  161.6874 C   0  0  0  0  0  0  0  0  0  0  0  0
  152.6769  143.4371  160.1592 C   0  0  1  0  0  0  0  0  0  0  0  0
  152.3980  142.0772  159.4875 C   0  0  0  0  0  0  0  0  0  0  0  0
  152.5049  142.1513  157.9561 C   0  0  0  0  0  0  0  0  0  0  0  0
  151.5822  143.2305  157.3654 C   0  0  1  0  0  0  0  0  0  0  0  0
  150.1640  142.8177  157.4810 N   0  3  0  0  0  0  0  0  0  0  0  0
  149.8758  141.4101  157.1305 C   0  0  0  0  0  0  0  0  0  0  0  0
  150.0478  141.1633  155.6218 C   0  0  1  0  0  0  0  0  0  0  0  0
  151.2191  140.3968  155.4167 O   0  0  0  0  0  0  0  0  0  0  0  0
  148.8192  140.4869  155.0338 C   0  0  0  0  0  0  0  0  0  0  0  0
  148.8546  139.1383  154.6168 C   0  0  0  0  0  0  0  0  0  0  0  0
  147.6809  138.5658  154.0870 C   0  0  0  0  0  0  0  0  0  0  0  0
  146.5188  139.2413  153.9600 N   0  0  0  0  0  0  0  0  0  0  0  0
  146.4897  140.5296  154.3626 C   0  0  0  0  0  0  0  0  0  0  0  0
  147.6067  141.1964  154.9050 C   0  0  0  0  0  0  0  0  0  0  0  0
  151.8589  144.5902  158.0405 C   0  0  0  0  0  0  0  0  0  0  0  0
  151.7473  144.5367  159.5800 C   0  0  2  0  0  0  0  0  0  0  0  0
  152.0294  145.9301  160.1698 C   0  0  0  0  0  0  0  0  0  0  0  0
  151.5334  143.0933  161.9910 H   0  0  0  0  0  0  0  0  0  0  0  0
  152.8918  144.1973  162.2039 H   0  0  0  0  0  0  0  0  0  0  0  0
  153.1819  142.4785  162.0531 H   0  0  0  0  0  0  0  0  0  0  0  0
  153.7088  143.7114  159.9336 H   0  0  0  0  0  0  0  0  0  0  0  0
  153.1005  141.3299  159.8588 H   0  0  0  0  0  0  0  0  0  0  0  0
  151.4048  141.7245  159.7690 H   0  0  0  0  0  0  0  0  0  0  0  0
  153.5375  142.3740  157.6837 H   0  0  0  0  0  0  0  0  0  0  0  0
  152.2801  141.1784  157.5173 H   0  0  0  0  0  0  0  0  0  0  0  0
  151.8102  143.3136  156.3019 H   0  0  0  0  0  0  0  0  0  0  0  0
  149.8834  142.9507  158.4420 H   0  0  0  0  0  0  0  0  0  0  0  0
  150.5246  140.7386  157.6928 H   0  0  0  0  0  0  0  0  0  0  0  0
  148.8495  141.1826  157.4223 H   0  0  0  0  0  0  0  0  0  0  0  0
  150.1910  142.1181  155.1137 H   0  0  0  0  0  0  0  0  0  0  0  0
  151.0873  139.5405  155.7956 H   0  0  0  0  0  0  0  0  0  0  0  0
  149.7573  138.5506  154.6997 H   0  0  0  0  0  0  0  0  0  0  0  0
  147.6756  137.5370  153.7585 H   0  0  0  0  0  0  0  0  0  0  0  0
  145.5471  141.0451  154.2506 H   0  0  0  0  0  0  0  0  0  0  0  0
  147.5278  142.2286  155.2137 H   0  0  0  0  0  0  0  0  0  0  0  0
  152.8674  144.9095  157.7730 H   0  0  0  0  0  0  0  0  0  0  0  0
  151.1984  145.3595  157.6414 H   0  0  0  0  0  0  0  0  0  0  0  0
  150.7175  144.2804  159.8332 H   0  0  0  0  0  0  0  0  0  0  0  0
  153.0693  146.2220  160.0201 H   0  0  0  0  0  0  0  0  0  0  0  0
  151.8202  145.9687  161.2385 H   0  0  0  0  0  0  0  0  0  0  0  0
  151.4026  146.6882  159.6991 H   0  0  0  0  0  0  0  0  0  0  0  0
  149.5998  143.4210  156.8992 H   0  0  0  0  0  0  0  0  0  0  0  0
  1  2  1  0  0  0  0
  1 19  1  0  0  0  0
  1 20  1  0  0  0  0
  1 21  1  0  0  0  0
  2 17  1  0  0  0  0
  2  3  1  0  0  0  0
  2 22  1  0  0  0  0
  3  4  1  0  0  0  0
  3 23  1  0  0  0  0
  3 24  1  0  0  0  0
  4  5  1  0  0  0  0
  4 25  1  0  0  0  0
  4 26  1  0  0  0  0
  5  6  1  0  0  0  0
  5 16  1  0  0  0  0
  5 27  1  0  0  0  0
  6  7  1  0  0  0  0
  6 28  1  0  0  0  0
  6 43  1  0  0  0  0
  7  8  1  0  0  0  0
  7 29  1  0  0  0  0
  7 30  1  0  0  0  0
  8  9  1  0  0  0  0
  8 10  1  0  0  0  0
  8 31  1  0  0  0  0
  9 32  1  0  0  0  0
 10 15  1  0  0  0  0
 10 11  2  0  0  0  0
 11 12  1  0  0  0  0
 11 33  1  0  0  0  0
 12 13  2  0  0  0  0
 12 34  1  0  0  0  0
 13 14  1  0  0  0  0
 14 15  2  0  0  0  0
 14 35  1  0  0  0  0
 15 36  1  0  0  0  0
 16 17  1  0  0  0  0
 16 37  1  0  0  0  0
 16 38  1  0  0  0  0
 17 18  1  0  0  0  0
 17 39  1  0  0  0  0
 18 40  1  0  0  0  0
 18 41  1  0  0  0  0
 18 42  1  0  0  0  0
M  CHG  1   6   1
M  END
> <s_m_source_file>
AV-unprocessed.smi

> <i_m_source_file_index>
3287

> <i_lp_mmshare_version>
43012

> <i_f3d_flags>
0

> <s_epik_input>
W0NIM11bQ0BASF0xW0NIMl1bQ0gyXVtDQEhdKFtDSDJdW0NASF0xW0NIM10pW05IXVtDSDJdW0NASF0oW09IXSljMltjSF1bY0hdbltjSF1bY0hdMg==

> <s_epik_cmdline>
J2VwaWtfcHl0aG9uJywgJy1waCcsICc3LjAnLCAnLXRuJywgJzgnLCAnLW1hJywgJzIwMCcsICctbWV0YWxfYmluZGluZycsICctaW1hZScsICc8aW5maWxlLm1hZT4nLCAnLW9tYWUnLCAnPG91dGZpbGUubWFlPic=

> <r_lp_tautomer_probability>
1

> <r_epik_Ionization_Penalty>
0.00537262

> <r_epik_Ionization_Penalty_Charging>
0.00321624

> <r_epik_Ionization_Penalty_Neutral>
0.00215638

> <r_epik_State_Penalty>
-0

> <r_epik_Charging_Adjusted_Penalty>
0.00321624

> <i_epik_Tot_Q>
1

> <i_epik_Tot_abs_Q>
1

> <r_epik_Metal_State_Penalty>
-0

> <b_epik_Metal_Only>
0

> <s_lp_Force_Field>
OPLS_2005

> <r_lp_Energy>
19.4184

> <b_lp_Chiralities_Consistent>
1

> <s_lp_Variant>
AV-unprocessed.smi:3287-14

> <Gold.Version>
5.8.1

> <Gold.Id.Protein>
6NUR|6NUR_protein|mol2

> <Gold.PLP.Fitness>
51.7214

> <Gold.PLP.PLP>
-39.4017

> <Gold.PLP.part.hbond>
-2.0000

> <Gold.PLP.part.metal>
0.0000

> <Gold.PLP.part.buried>
-5.2419

> <Gold.PLP.part.nonpolar>
-32.5436

> <Gold.PLP.part.repulsive>
0.2143

> <Gold.PLP.ligand.clash>
0.0000

> <Gold.PLP.ligand.torsion>
1.0659

> <Gold.PLP.Chemscore.Hbond>
2.8664

> <Gold.PLP.Chemscore.CHOScore>
1.9457

> <Gold.PLP.Chemscore.Metal>
0.0000

> <Gold.Chemscore.Hbonds>
donor molecule, donor type, donor heavy atom, donor atom, acceptor molecule, acceptor atom, score
      L1  H     6    43       P1  8028  2.00
      P1  H  7989  7998       L1     9  0.96
      L1  C    12    34       P1  7948  0.75
      L1  C    14    35       P1 10175  0.71

> <Gold.PLP.Chemscore.Internal.Correction>
0.0152

> <Gold.Rescore>
     Score         DG    S(hbond)    S(metal)    S(lipo)     H(rot)  DE(clash)    DE(int)     intcor
     18.76     -21.82       1.87        0.00     128.00       1.90       2.10       0.97       ----

> <Gold.Chemscore.Fitness>
18.7573

> <Gold.Chemscore.DG>
-21.8211

> <Gold.Chemscore.ZeroCoef>
-5.4800

> <Gold.Chemscore.Hbond>
1.8675

> <Gold.Chemscore.Metal>
0.0000

> <Gold.Chemscore.Lipo>
128.0033

> <Gold.Chemscore.Internal_Hbond>
0.0000

> <Gold.Chemscore.DEClash>
2.0982

> <Gold.Chemscore.DEInternal>
0.9656

> <Gold.Chemscore.Rot>
1.9035

> <Gold.Chemscore.Internal.Correction>
   9.000000E+99

> <Gold.Chemscore.Hbonds>
donor molecule, donor type, donor heavy atom, donor atom, acceptor molecule, acceptor atom, score
      L1  H     6    43       P1  8028  0.98
      P1  H  7989  7998       L1     9  0.22

> <Gold.Chemscore.Hbond.Weighted>
-6.2376

> <Gold.Chemscore.Metal.Weighted>
-0.0000

> <Gold.Chemscore.Lipo.Weighted>
-14.9764

> <Gold.Chemscore.Internal_Hbond.Weighted>
0.0000

> <Gold.Chemscore.DEClash.Weighted>
2.0982

> <Gold.Chemscore.DEInternal.Weighted>
0.9656

> <Gold.Chemscore.Rot.Weighted>
4.8729

> <Gold.Chemscore.Internal.Correction.Weighted>
   9.000000E+99

> <Gold.Protein.RotatedTorsions>
[ 6907 6896 6895 6894 ] final  111.76 input  -60.11 | X-H torsion
[ 7974 7965 7964 7962 ] final -127.13 input  175.53 | X-H torsion
[ 8008 7997 7996 7995 ] final   58.53 input   59.86 | X-H torsion
[ 10167 10162 10161 10158 ] final  117.10 input  -65.29 | X-H torsion
[ 10718 10713 10712 10709 ] final  -45.67 input   66.30 | X-H torsion
[ 10763 10752 10751 10750 ] final   56.77 input  -60.55 | X-H torsion
[ 11005 11000 10999 10996 ] final -153.71 input  -57.11 | X-H torsion

> <Gold.Protein.ActiveResidues>
 VAL166  LYS551  ARG553  GLY616  TRP617  ASP618  TYR619  PRO620  LYS621  CYS622 
 ASP623  PHE694  ASN695  SER759  ASP760  ASP761  ALA762  ILE779  LEU786  VAL792 
 PHE793  MET794  SER795  GLU796  ALA797  LYS798  CYS799  TRP800  GLU811  SER814 

> <Gold.Protein.RotatedAtoms>
  152.4952  133.8612  159.7250 H   0  0  0  0  0  0  0  0  0  0  0  0  # atno 6907 bound_to 6896
  150.9123  133.6973  159.2858 H   0  0  0  0  0  0  0  0  0  0  0  0  # atno 6908 bound_to 6896
  151.4379  135.1021  159.9714 H   0  0  0  0  0  0  0  0  0  0  0  0  # atno 6909 bound_to 6896
  144.9802  140.7632  143.4617 H   0  0  0  0  0  0  0  0  0  0  0  0  # atno 7974 bound_to 7965
  155.5514  140.3486  155.4469 H   0  0  0  0  0  0  0  0  0  0  0  0  # atno 8008 bound_to 7997
  156.0580  140.1333  157.0000 H   0  0  0  0  0  0  0  0  0  0  0  0  # atno 8009 bound_to 7997
  154.4466  140.0991  156.6460 H   0  0  0  0  0  0  0  0  0  0  0  0  # atno 8010 bound_to 7997
  139.6202  144.7099  151.2652 H   0  0  0  0  0  0  0  0  0  0  0  0  # atno 10167 bound_to 10162
  156.2260  130.4169  149.8933 H   0  0  0  0  0  0  0  0  0  0  0  0  # atno 10718 bound_to 10713
  152.9838  135.5665  154.5283 H   0  0  0  0  0  0  0  0  0  0  0  0  # atno 10763 bound_to 10752
  154.4759  135.2786  155.1609 H   0  0  0  0  0  0  0  0  0  0  0  0  # atno 10764 bound_to 10752
  154.3138  135.6283  153.5530 H   0  0  0  0  0  0  0  0  0  0  0  0  # atno 10765 bound_to 10752
  140.7052  134.3893  157.5205 H   0  0  0  0  0  0  0  0  0  0  0  0  # atno 11005 bound_to 11000
  145.2432  139.2063  143.4981 LP  0  0  0  0  0  0  0  0  0  0  0  0  # atno 17320 bound_to 7965
  146.3406  140.2332  142.8594 LP  0  0  0  0  0  0  0  0  0  0  0  0  # atno 17321 bound_to 7965
  140.7377  143.6671  150.8114 LP  0  0  0  0  0  0  0  0  0  0  0  0  # atno 17342 bound_to 10162
  140.0280  143.5473  152.2772 LP  0  0  0  0  0  0  0  0  0  0  0  0  # atno 17343 bound_to 10162
  156.6564  130.8764  151.3540 LP  0  0  0  0  0  0  0  0  0  0  0  0  # atno 17370 bound_to 10713
  157.7111  130.9441  150.1091 LP  0  0  0  0  0  0  0  0  0  0  0  0  # atno 17371 bound_to 10713
  139.8886  134.8852  156.2466 LP  0  0  0  0  0  0  0  0  0  0  0  0  # atno 17394 bound_to 11000
  141.0130  133.7084  156.1143 LP  0  0  0  0  0  0  0  0  0  0  0  0  # atno 17395 bound_to 11000

$$$$
