AV-unprocessed.smi:45|AV-procd|sdf|416|dock6
  -GOLD-   2262016293D 1   1.00000     0.00000
 Structure written by MMmdl.
 60 63  0  0  0  0  0  0  0  0  3 V2000
  147.3682  141.7578  153.6115 C   0  0  0  0  0  0  0  0  0  0  0  0
  147.8171  140.9952  154.7222 O   0  0  0  0  0  0  0  0  0  0  0  0
  147.3148  139.7206  154.8850 C   0  0  0  0  0  0  0  0  0  0  0  0
  146.4771  139.0763  153.9393 C   0  0  0  0  0  0  0  0  0  0  0  0
  146.0029  137.7716  154.1748 C   0  0  0  0  0  0  0  0  0  0  0  0
  146.3555  137.0891  155.3558 C   0  0  0  0  0  0  0  0  0  0  0  0
  145.8453  135.6842  155.6074 C   0  0  0  0  0  0  0  0  0  0  0  0
  146.9135  134.7068  155.7557 N   0  0  0  0  0  0  0  0  0  0  0  0
  147.3781  133.9509  154.6657 C   0  0  0  0  0  0  0  0  0  0  0  0
  146.5580  133.8097  153.5990 N   0  0  0  0  0  0  0  0  0  0  0  0
  146.9520  133.1105  152.5260 C   0  0  0  0  0  0  0  0  0  0  0  0
  146.0762  132.9969  151.4476 N   0  0  0  0  0  0  0  0  0  0  0  0
  145.9132  131.7407  150.7233 C   0  0  0  0  0  0  0  0  0  0  0  0
  144.4562  131.7058  150.2591 C   0  0  0  0  0  0  0  0  0  0  0  0
  144.1123  133.1805  150.0874 C   0  0  0  0  0  0  0  0  0  0  0  0
  144.9133  133.8534  151.2122 C   0  0  2  0  0  0  0  0  0  0  0  0
  145.2566  135.3382  150.9525 C   0  0  0  0  0  0  0  0  0  0  0  0
  144.1164  136.1660  151.0601 O   0  0  0  0  0  0  0  0  0  0  0  0
  148.1623  132.5352  152.4593 N   0  3  0  0  0  0  0  0  0  0  0  0
  149.0225  132.6465  153.4998 C   0  0  0  0  0  0  0  0  0  0  0  0
  148.6697  133.3682  154.6613 C   0  0  0  0  0  0  0  0  0  0  0  0
  149.6228  133.4618  155.8263 C   0  0  0  0  0  0  0  0  0  0  0  0
  149.2403  134.0230  156.8593 O   0  0  0  0  0  0  0  0  0  0  0  0
  150.8294  132.9044  155.5338 N   0  5  0  0  0  0  0  0  0  0  0  0
  151.7813  132.4440  156.5436 C   0  0  0  0  0  0  0  0  0  0  0  0
  152.8213  131.5064  155.9466 C   0  0  0  0  0  0  0  0  0  0  0  0
  152.3657  130.3925  155.3594 N   0  0  0  0  0  0  0  0  0  0  0  0
  153.2847  129.5698  154.8090 C   0  0  0  0  0  0  0  0  0  0  0  0
  154.6624  129.8639  154.8483 C   0  0  0  0  0  0  0  0  0  0  0  0
  155.0253  131.0627  155.4939 C   0  0  0  0  0  0  0  0  0  0  0  0
  154.1026  131.8823  156.0429 N   0  0  0  0  0  0  0  0  0  0  0  0
  147.1875  137.7219  156.2997 C   0  0  0  0  0  0  0  0  0  0  0  0
  147.6625  139.0275  156.0664 C   0  0  0  0  0  0  0  0  0  0  0  0
  148.6798  139.7752  157.2455 Cl  0  0  0  0  0  0  0  0  0  0  0  0
  144.3112  133.8020  152.1205 H   0  0  0  0  0  0  0  0  0  0  0  0
  147.8591  142.7309  153.6216 H   0  0  0  0  0  0  0  0  0  0  0  0
  146.2923  141.9315  153.6555 H   0  0  0  0  0  0  0  0  0  0  0  0
  147.6184  141.2725  152.6674 H   0  0  0  0  0  0  0  0  0  0  0  0
  146.1820  139.5628  153.0222 H   0  0  0  0  0  0  0  0  0  0  0  0
  145.3654  137.2952  153.4444 H   0  0  0  0  0  0  0  0  0  0  0  0
  145.2387  135.6962  156.5137 H   0  0  0  0  0  0  0  0  0  0  0  0
  145.1927  135.3800  154.7878 H   0  0  0  0  0  0  0  0  0  0  0  0
  147.3342  134.5760  156.6652 H   0  0  0  0  0  0  0  0  0  0  0  0
  146.5901  131.7414  149.8684 H   0  0  0  0  0  0  0  0  0  0  0  0
  146.1467  130.8714  151.3393 H   0  0  0  0  0  0  0  0  0  0  0  0
  144.3139  131.1229  149.3486 H   0  0  0  0  0  0  0  0  0  0  0  0
  143.8297  131.2716  151.0396 H   0  0  0  0  0  0  0  0  0  0  0  0
  144.4511  133.5118  149.1052 H   0  0  0  0  0  0  0  0  0  0  0  0
  143.0423  133.3783  150.1551 H   0  0  0  0  0  0  0  0  0  0  0  0
  145.9879  135.6758  151.6873 H   0  0  0  0  0  0  0  0  0  0  0  0
  145.7117  135.4893  149.9750 H   0  0  0  0  0  0  0  0  0  0  0  0
  144.1427  136.8066  150.3654 H   0  0  0  0  0  0  0  0  0  0  0  0
  149.9716  132.1467  153.3687 H   0  0  0  0  0  0  0  0  0  0  0  0
  152.3008  133.2786  157.0177 H   0  0  0  0  0  0  0  0  0  0  0  0
  151.2778  131.9215  157.3586 H   0  0  0  0  0  0  0  0  0  0  0  0
  152.9186  128.6716  154.3344 H   0  0  0  0  0  0  0  0  0  0  0  0
  155.3984  129.2075  154.4087 H   0  0  0  0  0  0  0  0  0  0  0  0
  156.0590  131.3652  155.5705 H   0  0  0  0  0  0  0  0  0  0  0  0
  147.4629  137.2080  157.2092 H   0  0  0  0  0  0  0  0  0  0  0  0
  148.4466  132.0111  151.6322 H   0  0  0  0  0  0  0  0  0  0  0  0
  1  2  1  0  0  0  0
  1 36  1  0  0  0  0
  1 37  1  0  0  0  0
  1 38  1  0  0  0  0
  2  3  1  0  0  0  0
  3 33  1  0  0  0  0
  3  4  2  0  0  0  0
  4  5  1  0  0  0  0
  4 39  1  0  0  0  0
  5  6  2  0  0  0  0
  5 40  1  0  0  0  0
  6  7  1  0  0  0  0
  6 32  1  0  0  0  0
  7  8  1  0  0  0  0
  7 41  1  0  0  0  0
  7 42  1  0  0  0  0
  8  9  1  0  0  0  0
  8 43  1  0  0  0  0
  9 21  1  0  0  0  0
  9 10  2  0  0  0  0
 10 11  1  0  0  0  0
 11 12  1  0  0  0  0
 11 19  2  0  0  0  0
 12 16  1  0  0  0  0
 12 13  1  0  0  0  0
 13 14  1  0  0  0  0
 13 44  1  0  0  0  0
 13 45  1  0  0  0  0
 14 15  1  0  0  0  0
 14 46  1  0  0  0  0
 14 47  1  0  0  0  0
 15 16  1  0  0  0  0
 15 48  1  0  0  0  0
 15 49  1  0  0  0  0
 16 35  1  0  0  0  0
 16 17  1  0  0  0  0
 17 18  1  0  0  0  0
 17 50  1  0  0  0  0
 17 51  1  0  0  0  0
 18 52  1  0  0  0  0
 19 20  1  0  0  0  0
 19 60  1  0  0  0  0
 20 21  2  0  0  0  0
 20 53  1  0  0  0  0
 21 22  1  0  0  0  0
 22 23  2  0  0  0  0
 22 24  1  0  0  0  0
 24 25  1  0  0  0  0
 25 26  1  0  0  0  0
 25 54  1  0  0  0  0
 25 55  1  0  0  0  0
 26 31  1  0  0  0  0
 26 27  2  0  0  0  0
 27 28  1  0  0  0  0
 28 29  2  0  0  0  0
 28 56  1  0  0  0  0
 29 30  1  0  0  0  0
 29 57  1  0  0  0  0
 30 31  2  0  0  0  0
 30 58  1  0  0  0  0
 32 33  2  0  0  0  0
 32 59  1  0  0  0  0
 33 34  1  0  0  0  0
M  CHG  1  19   1
M  CHG  1  24  -1
M  END
> <s_m_source_file>
AV-unprocessed.smi

> <i_m_source_file_index>
45

> <i_lp_mmshare_version>
43012

> <i_f3d_flags>
0

> <s_epik_input>
W0NIM11PYzFbY0hdW2NIXWMoW2NIXWMxQ2wpW0NIMl1bTkhdYzJuYyhOM1tDSDJdW0NIMl1bQ0gyXVtDQEhdM1tDSDJdW09IXSluW2NIXWMyQyg9TylbTkhdW0NIMl1jNG5bY0hdW2NIXVtjSF1uNA==

> <s_epik_cmdline>
J2VwaWtfcHl0aG9uJywgJy1waCcsICc3LjAnLCAnLXRuJywgJzgnLCAnLW1hJywgJzIwMCcsICctbWV0YWxfYmluZGluZycsICctaW1hZScsICc8aW5maWxlLm1hZT4nLCAnLW9tYWUnLCAnPG91dGZpbGUubWFlPic=

> <r_lp_tautomer_probability>
0.575011

> <r_epik_Ionization_Penalty>
6.73124

> <r_epik_Ionization_Penalty_Charging>
6.73106

> <r_epik_Ionization_Penalty_Neutral>
0.000179426

> <r_epik_State_Penalty>
8.26145

> <r_epik_Charging_Adjusted_Penalty>
14.9925

> <i_epik_Tot_Q>
0

> <i_epik_Tot_abs_Q>
2

> <r_epik_Metal_State_Penalty>
4.22532

> <b_epik_Metal_Only>
1

> <s_epik_Chemistry_Notes>
This compound contains an electron-poor aromatic ring that is susceptible to covalent hydrolysis at low pH, typically resulting in measured values for nitrogen ring protonation that are around two units higher than predicted values.

> <s_lp_Force_Field>
OPLS_2005

> <r_lp_Energy>
47.4245

> <b_lp_Chiralities_Consistent>
1

> <s_lp_Variant>
AV-unprocessed.smi:45-10

> <Gold.Version>
5.8.1

> <Gold.Id.Protein>
6NUR|6NUR_protein|mol2

> <Gold.PLP.Fitness>
51.6095

> <Gold.PLP.PLP>
-44.1402

> <Gold.PLP.part.hbond>
-2.0000

> <Gold.PLP.part.metal>
0.0000

> <Gold.PLP.part.buried>
-8.2130

> <Gold.PLP.part.nonpolar>
-35.2830

> <Gold.PLP.part.repulsive>
0.2172

> <Gold.PLP.ligand.clash>
0.6230

> <Gold.PLP.ligand.torsion>
1.0417

> <Gold.PLP.Chemscore.Hbond>
2.0000

> <Gold.PLP.Chemscore.CHOScore>
1.0000

> <Gold.PLP.Chemscore.Metal>
0.0000

> <Gold.Chemscore.Hbonds>
donor molecule, donor type, donor heavy atom, donor atom, acceptor molecule, acceptor atom, score
      L1  H    18    52       P1 10171  0.99
      L1  H    19    60       P1 10747  1.00
      L1  C    28    56       P1 10737  0.14

> <Gold.PLP.Chemscore.Internal.Correction>
1.1757

> <Gold.Rescore>
     Score         DG    S(hbond)    S(metal)    S(lipo)     H(rot)  DE(clash)    DE(int)     intcor
     12.52     -15.02       1.98        0.00      88.53       2.90       0.05       2.45       ----

> <Gold.Chemscore.Fitness>
12.5210

> <Gold.Chemscore.DG>
-15.0154

> <Gold.Chemscore.ZeroCoef>
-5.4800

> <Gold.Chemscore.Hbond>
1.9757

> <Gold.Chemscore.Metal>
0.0000

> <Gold.Chemscore.Lipo>
88.5253

> <Gold.Chemscore.Internal_Hbond>
0.0000

> <Gold.Chemscore.DEClash>
0.0482

> <Gold.Chemscore.DEInternal>
2.4463

> <Gold.Chemscore.Rot>
2.8988

> <Gold.Chemscore.Internal.Correction>
   9.000000E+99

> <Gold.Chemscore.Hbonds>
donor molecule, donor type, donor heavy atom, donor atom, acceptor molecule, acceptor atom, score
      L1  H    18    52       P1 10171  0.93
      L1  H    19    60       P1 10747  1.00

> <Gold.Chemscore.Hbond.Weighted>
-6.5989

> <Gold.Chemscore.Metal.Weighted>
-0.0000

> <Gold.Chemscore.Lipo.Weighted>
-10.3575

> <Gold.Chemscore.Internal_Hbond.Weighted>
0.0000

> <Gold.Chemscore.DEClash.Weighted>
0.0482

> <Gold.Chemscore.DEInternal.Weighted>
2.4463

> <Gold.Chemscore.Rot.Weighted>
7.4209

> <Gold.Chemscore.Internal.Correction.Weighted>
   9.000000E+99

> <Gold.Protein.RotatedTorsions>
[ 6907 6896 6895 6894 ] final   90.18 input  -60.11 | X-H torsion
[ 7974 7965 7964 7962 ] final   86.35 input  175.53 | X-H torsion
[ 8008 7997 7996 7995 ] final   77.63 input   59.86 | X-H torsion
[ 10167 10162 10161 10158 ] final  113.40 input  -65.29 | X-H torsion
[ 10718 10713 10712 10709 ] final  -48.61 input   66.30 | X-H torsion
[ 10763 10752 10751 10750 ] final  -29.83 input  -60.55 | X-H torsion
[ 11005 11000 10999 10996 ] final -169.73 input  -57.11 | X-H torsion

> <Gold.Protein.ActiveResidues>
 VAL166  LYS551  ARG553  GLY616  TRP617  ASP618  TYR619  PRO620  LYS621  CYS622 
 ASP623  PHE694  ASN695  SER759  ASP760  ASP761  ALA762  ILE779  LEU786  VAL792 
 PHE793  MET794  SER795  GLU796  ALA797  LYS798  CYS799  TRP800  GLU811  SER814 

> <Gold.Protein.RotatedAtoms>
  152.5442  134.1852  159.8651 H   0  0  0  0  0  0  0  0  0  0  0  0  # atno 6907 bound_to 6896
  151.1851  133.4694  159.2602 H   0  0  0  0  0  0  0  0  0  0  0  0  # atno 6908 bound_to 6896
  151.1139  135.0054  159.8562 H   0  0  0  0  0  0  0  0  0  0  0  0  # atno 6909 bound_to 6896
  145.5734  139.2316  143.2393 H   0  0  0  0  0  0  0  0  0  0  0  0  # atno 7974 bound_to 7965
  155.8443  140.3461  155.5652 H   0  0  0  0  0  0  0  0  0  0  0  0  # atno 8008 bound_to 7997
  155.8107  140.0898  157.1925 H   0  0  0  0  0  0  0  0  0  0  0  0  # atno 8009 bound_to 7997
  154.4006  140.1448  156.3370 H   0  0  0  0  0  0  0  0  0  0  0  0  # atno 8010 bound_to 7997
  139.6464  144.7127  151.2134 H   0  0  0  0  0  0  0  0  0  0  0  0  # atno 10167 bound_to 10162
  156.1972  130.4155  149.9291 H   0  0  0  0  0  0  0  0  0  0  0  0  # atno 10718 bound_to 10713
  153.7710  135.6912  153.4906 H   0  0  0  0  0  0  0  0  0  0  0  0  # atno 10763 bound_to 10752
  153.1874  135.4483  155.0105 H   0  0  0  0  0  0  0  0  0  0  0  0  # atno 10764 bound_to 10752
  154.8118  135.3381  154.7220 H   0  0  0  0  0  0  0  0  0  0  0  0  # atno 10765 bound_to 10752
  140.5274  134.5650  157.5065 H   0  0  0  0  0  0  0  0  0  0  0  0  # atno 11005 bound_to 11000
  146.1768  140.6560  142.9207 LP  0  0  0  0  0  0  0  0  0  0  0  0  # atno 17320 bound_to 7965
  144.7427  140.4986  143.6857 LP  0  0  0  0  0  0  0  0  0  0  0  0  # atno 17321 bound_to 7965
  140.7517  143.6223  150.8501 LP  0  0  0  0  0  0  0  0  0  0  0  0  # atno 17342 bound_to 10162
  139.9867  143.5892  152.2924 LP  0  0  0  0  0  0  0  0  0  0  0  0  # atno 17343 bound_to 10162
  156.7012  130.8934  151.3599 LP  0  0  0  0  0  0  0  0  0  0  0  0  # atno 17370 bound_to 10713
  157.6964  130.9287  150.0658 LP  0  0  0  0  0  0  0  0  0  0  0  0  # atno 17371 bound_to 10713
  139.9573  134.7514  156.0314 LP  0  0  0  0  0  0  0  0  0  0  0  0  # atno 17394 bound_to 11000
  141.1300  133.6589  156.3440 LP  0  0  0  0  0  0  0  0  0  0  0  0  # atno 17395 bound_to 11000

$$$$
