AV-unprocessed.smi:2202|AV-procd|sdf|8929|dock6
  -GOLD-   2272012143D 1   1.00000     0.00000
 Structure written by MMmdl.
 42 44  0  0  0  0  0  0  0  0  1 V2000
  151.2116  135.6298  155.8433 O   0  0  0  0  0  0  0  0  0  0  0  0
  150.6728  136.7326  155.7365 C   0  0  0  0  0  0  0  0  0  0  0  0
  151.1051  137.7236  154.6456 C   0  0  0  0  0  0  0  0  0  0  0  0
  150.6929  139.1083  154.9184 N   0  0  0  0  0  0  0  0  0  0  0  0
  151.4309  139.9892  155.6062 C   0  0  0  0  0  0  0  0  0  0  0  0
  152.5299  139.7666  156.1155 O   0  0  0  0  0  0  0  0  0  0  0  0
  150.7466  141.3561  155.6811 C   0  0  2  0  0  0  0  0  0  0  0  0
  150.5783  141.8316  157.1482 C   0  0  0  0  0  0  0  0  0  0  0  0
  149.3592  141.2347  157.8203 C   0  0  0  0  0  0  0  0  0  0  0  0
  148.2240  141.0287  157.1398 C   0  0  0  0  0  0  0  0  0  0  0  0
  148.1147  141.3845  155.6715 C   0  0  0  0  0  0  0  0  0  0  0  0
  149.4289  141.1180  154.8908 C   0  0  2  0  0  0  0  0  0  0  0  0
  149.5505  139.6498  154.4766 C   0  0  0  0  0  0  0  0  0  0  0  0
  148.6910  139.0737  153.8089 O   0  0  0  0  0  0  0  0  0  0  0  0
  149.6919  137.1493  156.5510 N   0  0  0  0  0  0  0  0  0  0  0  0
  149.1394  136.3716  157.6542 C   0  0  0  0  0  0  0  0  0  0  0  0
  148.8354  137.2579  158.8739 C   0  0  0  0  0  0  0  0  0  0  0  0
  148.2747  136.4614  160.0364 C   0  0  0  0  0  0  0  0  0  0  0  0
  148.1398  135.0589  159.9527 C   0  0  0  0  0  0  0  0  0  0  0  0
  147.6196  134.3680  161.0645 C   0  0  0  0  0  0  0  0  0  0  0  0
  147.2578  135.1017  162.2108 C   0  0  0  0  0  0  0  0  0  0  0  0
  147.4333  136.5000  162.1946 C   0  0  0  0  0  0  0  0  0  0  0  0
  147.9317  137.1718  161.1346 N   0  0  0  0  0  0  0  0  0  0  0  0
  152.1897  137.6728  154.5330 H   0  0  0  0  0  0  0  0  0  0  0  0
  150.6947  137.3908  153.6908 H   0  0  0  0  0  0  0  0  0  0  0  0
  151.3794  142.0655  155.1459 H   0  0  0  0  0  0  0  0  0  0  0  0
  151.4614  141.5908  157.7416 H   0  0  0  0  0  0  0  0  0  0  0  0
  150.4815  142.9173  157.1794 H   0  0  0  0  0  0  0  0  0  0  0  0
  149.4145  141.0290  158.8793 H   0  0  0  0  0  0  0  0  0  0  0  0
  147.3414  140.6531  157.6366 H   0  0  0  0  0  0  0  0  0  0  0  0
  147.2816  140.8311  155.2362 H   0  0  0  0  0  0  0  0  0  0  0  0
  147.8459  142.4388  155.6002 H   0  0  0  0  0  0  0  0  0  0  0  0
  149.4288  141.7136  153.9769 H   0  0  0  0  0  0  0  0  0  0  0  0
  149.3015  138.0679  156.3969 H   0  0  0  0  0  0  0  0  0  0  0  0
  148.2243  135.8903  157.3080 H   0  0  0  0  0  0  0  0  0  0  0  0
  149.8284  135.5693  157.9248 H   0  0  0  0  0  0  0  0  0  0  0  0
  149.7406  137.7684  159.2066 H   0  0  0  0  0  0  0  0  0  0  0  0
  148.1271  138.0406  158.5988 H   0  0  0  0  0  0  0  0  0  0  0  0
  148.4279  134.5239  159.0597 H   0  0  0  0  0  0  0  0  0  0  0  0
  147.5005  133.2949  161.0387 H   0  0  0  0  0  0  0  0  0  0  0  0
  146.8556  134.6056  163.0817 H   0  0  0  0  0  0  0  0  0  0  0  0
  147.1669  137.0947  163.0557 H   0  0  0  0  0  0  0  0  0  0  0  0
  1  2  2  0  0  0  0
  2  3  1  0  0  0  0
  2 15  1  0  0  0  0
  3  4  1  0  0  0  0
  3 24  1  0  0  0  0
  3 25  1  0  0  0  0
  4 13  1  0  0  0  0
  4  5  1  0  0  0  0
  5  6  2  0  0  0  0
  5  7  1  0  0  0  0
  7 12  1  0  0  0  0
  7  8  1  0  0  0  0
  7 26  1  0  0  0  0
  8  9  1  0  0  0  0
  8 27  1  0  0  0  0
  8 28  1  0  0  0  0
  9 10  2  0  0  0  0
  9 29  1  0  0  0  0
 10 11  1  0  0  0  0
 10 30  1  0  0  0  0
 11 12  1  0  0  0  0
 11 31  1  0  0  0  0
 11 32  1  0  0  0  0
 12 13  1  0  0  0  0
 12 33  1  0  0  0  0
 13 14  2  0  0  0  0
 15 16  1  0  0  0  0
 15 34  1  0  0  0  0
 16 17  1  0  0  0  0
 16 35  1  0  0  0  0
 16 36  1  0  0  0  0
 17 18  1  0  0  0  0
 17 37  1  0  0  0  0
 17 38  1  0  0  0  0
 18 23  1  0  0  0  0
 18 19  2  0  0  0  0
 19 20  1  0  0  0  0
 19 39  1  0  0  0  0
 20 21  2  0  0  0  0
 20 40  1  0  0  0  0
 21 22  1  0  0  0  0
 21 41  1  0  0  0  0
 22 23  2  0  0  0  0
 22 42  1  0  0  0  0
M  END
> <s_m_source_file>
AV-unprocessed.smi

> <i_m_source_file_index>
2202

> <i_lp_mmshare_version>
43012

> <i_f3d_flags>
0

> <s_epik_input>
W0NIMl0xW0NIXT1bQ0hdW0NIMl1bQ0BIXShbQ0BIXTEyKUMoPU8pTihDMj1PKVtDSDJdQyg9TylbTkhdW0NIMl1bQ0gyXWMzW2NIXVtjSF1bY0hdW2NIXW4z

> <s_epik_cmdline>
J2VwaWtfcHl0aG9uJywgJy1waCcsICc3LjAnLCAnLXRuJywgJzgnLCAnLW1hJywgJzIwMCcsICctbWV0YWxfYmluZGluZycsICctaW1hZScsICc8aW5maWxlLm1hZT4nLCAnLW9tYWUnLCAnPG91dGZpbGUubWFlPic=

> <r_lp_tautomer_probability>
1

> <r_epik_Ionization_Penalty>
0.0244696

> <r_epik_Ionization_Penalty_Charging>
0

> <r_epik_Ionization_Penalty_Neutral>
0.0244696

> <r_epik_State_Penalty>
0.0198648

> <r_epik_Charging_Adjusted_Penalty>
0.0198648

> <i_epik_Tot_Q>
0

> <i_epik_Tot_abs_Q>
0

> <r_epik_Metal_State_Penalty>
0.0190699

> <b_epik_Metal_Only>
0

> <s_lp_Force_Field>
OPLS_2005

> <r_lp_Energy>
13.8656

> <b_lp_Chiralities_Consistent>
1

> <s_lp_Variant>
AV-unprocessed.smi:2202-1

> <Gold.Version>
5.8.1

> <Gold.Id.Protein>
6NUR|6NUR_protein|mol2

> <Gold.PLP.Fitness>
52.2666

> <Gold.PLP.PLP>
-42.5288

> <Gold.PLP.part.hbond>
-4.0000

> <Gold.PLP.part.metal>
0.0000

> <Gold.PLP.part.buried>
-4.5316

> <Gold.PLP.part.nonpolar>
-33.6306

> <Gold.PLP.part.repulsive>
1.0528

> <Gold.PLP.ligand.clash>
0.0000

> <Gold.PLP.ligand.torsion>
0.7839

> <Gold.PLP.Chemscore.Hbond>
3.7520

> <Gold.PLP.Chemscore.CHOScore>
0.0000

> <Gold.PLP.Chemscore.Metal>
0.0000

> <Gold.Chemscore.Hbonds>
donor molecule, donor type, donor heavy atom, donor atom, acceptor molecule, acceptor atom, score
      P1  H  6931  6943       L1    23  0.99
      P1  H  6934  6947       L1    23  0.75
      P1  H  7997  8008       L1     6  1.00
      P1  H 10752 10763       L1     1  0.94

> <Gold.PLP.Chemscore.Internal.Correction>
0.0496

> <Gold.Rescore>
     Score         DG    S(hbond)    S(metal)    S(lipo)     H(rot)  DE(clash)    DE(int)     intcor
     19.30     -20.18       3.13        0.00      76.77       1.85       0.06       0.83       ----

> <Gold.Chemscore.Fitness>
19.2953

> <Gold.Chemscore.DG>
-20.1827

> <Gold.Chemscore.ZeroCoef>
-5.4800

> <Gold.Chemscore.Hbond>
3.1336

> <Gold.Chemscore.Metal>
0.0000

> <Gold.Chemscore.Lipo>
76.7745

> <Gold.Chemscore.Internal_Hbond>
0.0000

> <Gold.Chemscore.DEClash>
0.0586

> <Gold.Chemscore.DEInternal>
0.8287

> <Gold.Chemscore.Rot>
1.8540

> <Gold.Chemscore.Internal.Correction>
   9.000000E+99

> <Gold.Chemscore.Hbonds>
donor molecule, donor type, donor heavy atom, donor atom, acceptor molecule, acceptor atom, score
      P1  H  6931  6943       L1    23  0.32
      P1  H  6934  6947       L1    23  0.63
      P1  H  7997  8008       L1     6  1.00
      P1  H 10752 10763       L1     1  0.79

> <Gold.Chemscore.Hbond.Weighted>
-10.4663

> <Gold.Chemscore.Metal.Weighted>
-0.0000

> <Gold.Chemscore.Lipo.Weighted>
-8.9826

> <Gold.Chemscore.Internal_Hbond.Weighted>
0.0000

> <Gold.Chemscore.DEClash.Weighted>
0.0586

> <Gold.Chemscore.DEInternal.Weighted>
0.8287

> <Gold.Chemscore.Rot.Weighted>
4.7462

> <Gold.Chemscore.Internal.Correction.Weighted>
   9.000000E+99

> <Gold.Protein.RotatedTorsions>
[ 6907 6896 6895 6894 ] final  -43.69 input  -60.11 | X-H torsion
[ 7974 7965 7964 7962 ] final  -25.36 input  175.53 | X-H torsion
[ 8008 7997 7996 7995 ] final  -31.47 input   59.86 | X-H torsion
[ 10167 10162 10161 10158 ] final  112.62 input  -65.29 | X-H torsion
[ 10718 10713 10712 10709 ] final   79.26 input   66.30 | X-H torsion
[ 10763 10752 10751 10750 ] final   80.24 input  -60.55 | X-H torsion
[ 11005 11000 10999 10996 ] final  178.98 input  -57.11 | X-H torsion

> <Gold.Protein.ActiveResidues>
 VAL166  LYS551  ARG553  GLY616  TRP617  ASP618  TYR619  PRO620  LYS621  CYS622 
 ASP623  PHE694  ASN695  SER759  ASP760  ASP761  ALA762  ILE779  LEU786  VAL792 
 PHE793  MET794  SER795  GLU796  ALA797  LYS798  CYS799  TRP800  GLU811  SER814 

> <Gold.Protein.RotatedAtoms>
  150.9411  134.8820  159.7612 H   0  0  0  0  0  0  0  0  0  0  0  0  # atno 6907 bound_to 6896
  152.5080  134.3940  159.9404 H   0  0  0  0  0  0  0  0  0  0  0  0  # atno 6908 bound_to 6896
  151.3961  133.3732  159.2761 H   0  0  0  0  0  0  0  0  0  0  0  0  # atno 6909 bound_to 6896
  146.1496  140.4876  142.8617 H   0  0  0  0  0  0  0  0  0  0  0  0  # atno 7974 bound_to 7965
  154.4213  140.1763  156.1572 H   0  0  0  0  0  0  0  0  0  0  0  0  # atno 8008 bound_to 7997
  155.9867  140.3372  155.6690 H   0  0  0  0  0  0  0  0  0  0  0  0  # atno 8009 bound_to 7997
  155.6427  140.0682  157.2604 H   0  0  0  0  0  0  0  0  0  0  0  0  # atno 8010 bound_to 7997
  139.6522  144.7128  151.2027 H   0  0  0  0  0  0  0  0  0  0  0  0  # atno 10167 bound_to 10162
  157.6771  130.9906  150.1906 H   0  0  0  0  0  0  0  0  0  0  0  0  # atno 10718 bound_to 10713
  153.1018  135.4810  154.8880 H   0  0  0  0  0  0  0  0  0  0  0  0  # atno 10763 bound_to 10752
  154.7386  135.3077  154.8769 H   0  0  0  0  0  0  0  0  0  0  0  0  # atno 10764 bound_to 10752
  153.9384  135.6837  153.4798 H   0  0  0  0  0  0  0  0  0  0  0  0  # atno 10765 bound_to 10752
  140.4011  134.6776  157.4562 H   0  0  0  0  0  0  0  0  0  0  0  0  # atno 11005 bound_to 11000
  144.7887  140.5989  143.6556 LP  0  0  0  0  0  0  0  0  0  0  0  0  # atno 17320 bound_to 7965
  145.4856  139.1492  143.3738 LP  0  0  0  0  0  0  0  0  0  0  0  0  # atno 17321 bound_to 7965
  140.7543  143.6132  150.8585 LP  0  0  0  0  0  0  0  0  0  0  0  0  # atno 17342 bound_to 10162
  139.9781  143.5982  152.2952 LP  0  0  0  0  0  0  0  0  0  0  0  0  # atno 17343 bound_to 10162
  156.2618  130.3711  149.8122 LP  0  0  0  0  0  0  0  0  0  0  0  0  # atno 17370 bound_to 10713
  156.5865  130.8488  151.3397 LP  0  0  0  0  0  0  0  0  0  0  0  0  # atno 17371 bound_to 10713
  140.0336  134.6370  155.9074 LP  0  0  0  0  0  0  0  0  0  0  0  0  # atno 17394 bound_to 11000
  141.1856  133.6555  156.5206 LP  0  0  0  0  0  0  0  0  0  0  0  0  # atno 17395 bound_to 11000

$$$$
