AV-unprocessed.smi:3214|AV-procd|sdf|12284|dock6
  -GOLD-   2272018123D 1   1.00000     0.00000
 Structure written by MMmdl.
 37 37  0  0  0  0  0  0  0  0  2 V2000
  151.5902  137.0445  155.1729 C   0  0  0  0  0  0  0  0  0  0  0  0
  150.1821  137.6475  155.1969 C   0  0  0  0  0  0  0  0  0  0  0  0
  149.1969  136.6676  154.7608 N   0  0  0  0  0  0  0  0  0  0  0  0
  148.4212  135.9540  155.5893 C   0  0  0  0  0  0  0  0  0  0  0  0
  148.4711  136.0577  156.8150 O   0  0  0  0  0  0  0  0  0  0  0  0
  147.4478  134.9705  154.9320 C   0  0  0  0  0  0  0  0  0  0  0  0
  146.4098  135.6683  154.0372 C   0  0  0  0  0  0  0  0  0  0  0  0
  147.0307  136.7646  153.2636 N   0  3  0  0  0  0  0  0  0  0  0  0
  146.1404  137.4479  152.2960 C   0  0  1  0  0  0  0  0  0  0  0  0
  146.5658  138.9177  152.1761 C   0  0  0  0  0  0  0  0  0  0  0  0
  146.1717  136.7656  150.9088 C   0  0  0  0  0  0  0  0  0  0  0  0
  145.5534  135.4522  150.8903 N   0  0  0  0  0  0  0  0  0  0  0  0
  146.1013  134.2406  151.2572 C   0  0  0  0  0  0  0  0  0  0  0  0
  145.1448  133.2862  151.0603 C   0  0  0  0  0  0  0  0  0  0  0  0
  144.0356  134.0182  150.5517 C   0  0  0  0  0  0  0  0  0  0  0  0
  144.2853  135.3135  150.4464 N   0  0  0  0  0  0  0  0  0  0  0  0
  152.3294  137.7753  155.5009 H   0  0  0  0  0  0  0  0  0  0  0  0
  151.8654  136.7231  154.1677 H   0  0  0  0  0  0  0  0  0  0  0  0
  151.6617  136.1804  155.8341 H   0  0  0  0  0  0  0  0  0  0  0  0
  149.9394  137.9844  156.2059 H   0  0  0  0  0  0  0  0  0  0  0  0
  150.1421  138.5218  154.5456 H   0  0  0  0  0  0  0  0  0  0  0  0
  149.1010  136.5243  153.7658 H   0  0  0  0  0  0  0  0  0  0  0  0
  148.0097  134.2427  154.3442 H   0  0  0  0  0  0  0  0  0  0  0  0
  146.9430  134.4140  155.7229 H   0  0  0  0  0  0  0  0  0  0  0  0
  145.9622  134.9460  153.3565 H   0  0  0  0  0  0  0  0  0  0  0  0
  145.6033  136.0761  154.6488 H   0  0  0  0  0  0  0  0  0  0  0  0
  147.3367  137.4567  153.9325 H   0  0  0  0  0  0  0  0  0  0  0  0
  145.1207  137.4444  152.6846 H   0  0  0  0  0  0  0  0  0  0  0  0
  145.9043  139.4637  151.5027 H   0  0  0  0  0  0  0  0  0  0  0  0
  147.5816  139.0092  151.7899 H   0  0  0  0  0  0  0  0  0  0  0  0
  146.5307  139.4186  153.1443 H   0  0  0  0  0  0  0  0  0  0  0  0
  145.6463  137.3828  150.1785 H   0  0  0  0  0  0  0  0  0  0  0  0
  147.1986  136.6750  150.5515 H   0  0  0  0  0  0  0  0  0  0  0  0
  147.1126  134.1583  151.6275 H   0  0  0  0  0  0  0  0  0  0  0  0
  145.2259  132.2255  151.2462 H   0  0  0  0  0  0  0  0  0  0  0  0
  143.0643  133.6496  150.2565 H   0  0  0  0  0  0  0  0  0  0  0  0
  147.8416  136.4162  152.7725 H   0  0  0  0  0  0  0  0  0  0  0  0
  1  2  1  0  0  0  0
  1 17  1  0  0  0  0
  1 18  1  0  0  0  0
  1 19  1  0  0  0  0
  2  3  1  0  0  0  0
  2 20  1  0  0  0  0
  2 21  1  0  0  0  0
  3  4  1  0  0  0  0
  3 22  1  0  0  0  0
  4  5  2  0  0  0  0
  4  6  1  0  0  0  0
  6  7  1  0  0  0  0
  6 23  1  0  0  0  0
  6 24  1  0  0  0  0
  7  8  1  0  0  0  0
  7 25  1  0  0  0  0
  7 26  1  0  0  0  0
  8  9  1  0  0  0  0
  8 27  1  0  0  0  0
  8 37  1  0  0  0  0
  9 10  1  0  0  0  0
  9 11  1  0  0  0  0
  9 28  1  0  0  0  0
 10 29  1  0  0  0  0
 10 30  1  0  0  0  0
 10 31  1  0  0  0  0
 11 12  1  0  0  0  0
 11 32  1  0  0  0  0
 11 33  1  0  0  0  0
 12 16  1  0  0  0  0
 12 13  1  0  0  0  0
 13 14  2  0  0  0  0
 13 34  1  0  0  0  0
 14 15  1  0  0  0  0
 14 35  1  0  0  0  0
 15 16  2  0  0  0  0
 15 36  1  0  0  0  0
M  CHG  1   8   1
M  END
> <s_m_source_file>
AV-unprocessed.smi

> <i_m_source_file_index>
3214

> <i_lp_mmshare_version>
43012

> <i_f3d_flags>
0

> <s_epik_input>
W0NIM11bQ0gyXVtOSF1DKD1PKVtDSDJdW0NIMl1bTkhdW0NASF0oW0NIM10pW0NIMl1uMVtjSF1bY0hdW2NIXW4x

> <s_epik_cmdline>
J2VwaWtfcHl0aG9uJywgJy1waCcsICc3LjAnLCAnLXRuJywgJzgnLCAnLW1hJywgJzIwMCcsICctbWV0YWxfYmluZGluZycsICctaW1hZScsICc8aW5maWxlLm1hZT4nLCAnLW9tYWUnLCAnPG91dGZpbGUubWFlPic=

> <r_lp_tautomer_probability>
1

> <r_epik_Ionization_Penalty>
0.00598156

> <r_epik_Ionization_Penalty_Charging>
0.00597743

> <r_epik_Ionization_Penalty_Neutral>
4.12922e-06

> <r_epik_State_Penalty>
0.00439883

> <r_epik_Charging_Adjusted_Penalty>
0.0103763

> <i_epik_Tot_Q>
1

> <i_epik_Tot_abs_Q>
1

> <r_epik_Metal_State_Penalty>
-0

> <b_epik_Metal_Only>
0

> <s_lp_Force_Field>
OPLS_2005

> <r_lp_Energy>
6.42892

> <b_lp_Chiralities_Consistent>
1

> <s_lp_Variant>
AV-unprocessed.smi:3214-2

> <Gold.Version>
5.8.1

> <Gold.Id.Protein>
6NUR|6NUR_protein|mol2

> <Gold.PLP.Fitness>
38.7571

> <Gold.PLP.PLP>
-25.5414

> <Gold.PLP.part.hbond>
-2.0000

> <Gold.PLP.part.metal>
0.0000

> <Gold.PLP.part.buried>
2.0065

> <Gold.PLP.part.nonpolar>
-26.8715

> <Gold.PLP.part.repulsive>
0.4661

> <Gold.PLP.ligand.clash>
0.0000

> <Gold.PLP.ligand.torsion>
0.9870

> <Gold.PLP.Chemscore.Hbond>
3.0000

> <Gold.PLP.Chemscore.CHOScore>
2.0000

> <Gold.PLP.Chemscore.Metal>
0.0000

> <Gold.Chemscore.Hbonds>
donor molecule, donor type, donor heavy atom, donor atom, acceptor molecule, acceptor atom, score
      L1  H     3    22       P1  7948  1.00
      L1  H     8    37       P1  7948  1.59
      L1  C    13    34       P1  7948  0.48
      L1  C    15    36       P1 10186  1.00

> <Gold.PLP.Chemscore.Internal.Correction>
0.1898

> <Gold.Rescore>
     Score         DG    S(hbond)    S(metal)    S(lipo)     H(rot)  DE(clash)    DE(int)     intcor
      9.08     -13.55       1.95        0.00      65.55       2.39       1.75       2.71       ----

> <Gold.Chemscore.Fitness>
9.0846

> <Gold.Chemscore.DG>
-13.5475

> <Gold.Chemscore.ZeroCoef>
-5.4800

> <Gold.Chemscore.Hbond>
1.9548

> <Gold.Chemscore.Metal>
0.0000

> <Gold.Chemscore.Lipo>
65.5467

> <Gold.Chemscore.Internal_Hbond>
0.0000

> <Gold.Chemscore.DEClash>
1.7491

> <Gold.Chemscore.DEInternal>
2.7138

> <Gold.Chemscore.Rot>
2.3948

> <Gold.Chemscore.Internal.Correction>
   9.000000E+99

> <Gold.Chemscore.Hbonds>
donor molecule, donor type, donor heavy atom, donor atom, acceptor molecule, acceptor atom, score
      L1  H     3    22       P1  7948  0.99
      L1  H     8    37       P1  7948  0.79

> <Gold.Chemscore.Hbond.Weighted>
-6.5291

> <Gold.Chemscore.Metal.Weighted>
-0.0000

> <Gold.Chemscore.Lipo.Weighted>
-7.6690

> <Gold.Chemscore.Internal_Hbond.Weighted>
0.0000

> <Gold.Chemscore.DEClash.Weighted>
1.7491

> <Gold.Chemscore.DEInternal.Weighted>
2.7138

> <Gold.Chemscore.Rot.Weighted>
6.1306

> <Gold.Chemscore.Internal.Correction.Weighted>
   9.000000E+99

> <Gold.Protein.RotatedTorsions>
[ 6907 6896 6895 6894 ] final  124.41 input  -60.11 | X-H torsion
[ 7974 7965 7964 7962 ] final -116.83 input  175.53 | X-H torsion
[ 8008 7997 7996 7995 ] final -153.88 input   59.86 | X-H torsion
[ 10167 10162 10161 10158 ] final -155.62 input  -65.29 | X-H torsion
[ 10718 10713 10712 10709 ] final   44.12 input   66.30 | X-H torsion
[ 10763 10752 10751 10750 ] final   -0.04 input  -60.55 | X-H torsion
[ 11005 11000 10999 10996 ] final  -74.58 input  -57.11 | X-H torsion

> <Gold.Protein.ActiveResidues>
 VAL166  LYS551  ARG553  GLY616  TRP617  ASP618  TYR619  PRO620  LYS621  CYS622 
 ASP623  PHE694  ASN695  SER759  ASP760  ASP761  ALA762  ILE779  LEU786  VAL792 
 PHE793  MET794  SER795  GLU796  ALA797  LYS798  CYS799  TRP800  GLU811  SER814 

> <Gold.Protein.RotatedAtoms>
  152.4081  133.6920  159.6373 H   0  0  0  0  0  0  0  0  0  0  0  0  # atno 6907 bound_to 6896
  150.7963  133.8674  159.3257 H   0  0  0  0  0  0  0  0  0  0  0  0  # atno 6908 bound_to 6896
  151.6423  135.1013  160.0195 H   0  0  0  0  0  0  0  0  0  0  0  0  # atno 6909 bound_to 6896
  145.0922  140.8497  143.3976 H   0  0  0  0  0  0  0  0  0  0  0  0  # atno 7974 bound_to 7965
  155.6777  140.0740  157.2496 H   0  0  0  0  0  0  0  0  0  0  0  0  # atno 8008 bound_to 7997
  154.4111  140.1687  156.2000 H   0  0  0  0  0  0  0  0  0  0  0  0  # atno 8009 bound_to 7997
  155.9561  140.3373  155.6453 H   0  0  0  0  0  0  0  0  0  0  0  0  # atno 8010 bound_to 7997
  139.6916  143.9411  152.2388 H   0  0  0  0  0  0  0  0  0  0  0  0  # atno 10167 bound_to 10162
  157.4234  130.7982  149.7536 H   0  0  0  0  0  0  0  0  0  0  0  0  # atno 10718 bound_to 10713
  153.3267  135.6972  153.6983 H   0  0  0  0  0  0  0  0  0  0  0  0  # atno 10763 bound_to 10752
  153.5801  135.3499  155.2872 H   0  0  0  0  0  0  0  0  0  0  0  0  # atno 10764 bound_to 10752
  154.8609  135.4293  154.2446 H   0  0  0  0  0  0  0  0  0  0  0  0  # atno 10765 bound_to 10752
  141.1636  133.6916  156.7386 H   0  0  0  0  0  0  0  0  0  0  0  0  # atno 11005 bound_to 11000
  145.1052  139.2794  143.5665 LP  0  0  0  0  0  0  0  0  0  0  0  0  # atno 17320 bound_to 7965
  146.3531  140.0632  142.8628 LP  0  0  0  0  0  0  0  0  0  0  0  0  # atno 17321 bound_to 7965
  139.9228  144.6789  150.8443 LP  0  0  0  0  0  0  0  0  0  0  0  0  # atno 17342 bound_to 10162
  140.7684  143.3363  151.2303 LP  0  0  0  0  0  0  0  0  0  0  0  0  # atno 17343 bound_to 10162
  155.9888  130.3956  150.3101 LP  0  0  0  0  0  0  0  0  0  0  0  0  # atno 17370 bound_to 10713
  157.1251  131.0257  151.2993 LP  0  0  0  0  0  0  0  0  0  0  0  0  # atno 17371 bound_to 10713
  140.2691  134.8406  157.3831 LP  0  0  0  0  0  0  0  0  0  0  0  0  # atno 17394 bound_to 11000
  140.1538  134.4816  155.7942 LP  0  0  0  0  0  0  0  0  0  0  0  0  # atno 17395 bound_to 11000

$$$$
