AV-unprocessed.smi:559|AV-procd|sdf|2924|dock7
  -GOLD-   2262023413D 1   1.00000     0.00000
 Structure written by MMmdl.
 41 42  0  0  0  0  0  0  0  0  1 V2000
  153.3936  138.3778  154.5394 C   0  0  0  0  0  0  0  0  0  0  0  0
  152.2600  138.9408  155.3478 C   0  0  0  0  0  0  0  0  0  0  0  0
  151.3239  139.6535  154.7439 N   0  0  0  0  0  0  0  0  0  0  0  0
  150.4777  140.0158  155.7286 N   0  0  0  0  0  0  0  0  0  0  0  0
  149.3223  140.8317  155.4106 C   0  0  0  0  0  0  0  0  0  0  0  0
  150.8782  139.5280  156.9568 C   0  0  0  0  0  0  0  0  0  0  0  0
  150.1108  139.8016  158.2099 C   0  0  0  0  0  0  0  0  0  0  0  0
  152.0385  138.8292  156.7520 C   0  0  0  0  0  0  0  0  0  0  0  0
  152.9065  138.1231  157.7654 C   0  0  0  0  0  0  0  0  0  0  0  0
  153.6537  139.1603  158.6043 C   0  0  0  0  0  0  0  0  0  0  0  0
  154.8840  139.1839  158.6005 O   0  0  0  0  0  0  0  0  0  0  0  0
  152.8968  139.9843  159.3464 N   0  0  0  0  0  0  0  0  0  0  0  0
  153.3940  140.9112  160.3571 C   0  0  0  0  0  0  0  0  0  0  0  0
  153.0347  142.3664  159.9987 C   0  0  2  0  0  0  0  0  0  0  0  0
  152.8947  143.2647  161.2426 C   0  0  0  0  0  0  0  0  0  0  0  0
  152.2945  144.6070  160.8115 C   0  0  0  0  0  0  0  0  0  0  0  0
  151.1445  144.2166  159.4406 S   0  0  0  0  0  0  0  0  0  0  0  0
  149.7671  144.1663  159.9536 O   0  0  0  0  0  0  0  0  0  0  0  0
  151.4889  145.0443  158.2748 O   0  0  0  0  0  0  0  0  0  0  0  0
  151.7420  142.5059  159.1744 C   0  0  0  0  0  0  0  0  0  0  0  0
  154.3298  138.8811  154.7809 H   0  0  0  0  0  0  0  0  0  0  0  0
  153.2222  138.4899  153.4682 H   0  0  0  0  0  0  0  0  0  0  0  0
  153.5260  137.3149  154.7411 H   0  0  0  0  0  0  0  0  0  0  0  0
  148.4140  140.3281  155.7415 H   0  0  0  0  0  0  0  0  0  0  0  0
  149.2565  141.0056  154.3358 H   0  0  0  0  0  0  0  0  0  0  0  0
  149.4036  141.7925  155.9188 H   0  0  0  0  0  0  0  0  0  0  0  0
  150.5623  139.3030  159.0674 H   0  0  0  0  0  0  0  0  0  0  0  0
  149.0835  139.4481  158.1217 H   0  0  0  0  0  0  0  0  0  0  0  0
  150.0852  140.8708  158.4211 H   0  0  0  0  0  0  0  0  0  0  0  0
  152.3099  137.4892  158.4226 H   0  0  0  0  0  0  0  0  0  0  0  0
  153.6343  137.4663  157.2888 H   0  0  0  0  0  0  0  0  0  0  0  0
  151.8939  139.8913  159.2727 H   0  0  0  0  0  0  0  0  0  0  0  0
  153.0151  140.6556  161.3480 H   0  0  0  0  0  0  0  0  0  0  0  0
  154.4774  140.8020  160.4079 H   0  0  0  0  0  0  0  0  0  0  0  0
  153.8461  142.7790  159.3970 H   0  0  0  0  0  0  0  0  0  0  0  0
  152.2187  142.7890  161.9544 H   0  0  0  0  0  0  0  0  0  0  0  0
  153.8488  143.4020  161.7521 H   0  0  0  0  0  0  0  0  0  0  0  0
  151.7656  145.1183  161.6160 H   0  0  0  0  0  0  0  0  0  0  0  0
  153.0680  145.2700  160.4239 H   0  0  0  0  0  0  0  0  0  0  0  0
  151.8951  142.3263  158.1103 H   0  0  0  0  0  0  0  0  0  0  0  0
  150.9706  141.8244  159.5340 H   0  0  0  0  0  0  0  0  0  0  0  0
  1  2  1  0  0  0  0
  1 21  1  0  0  0  0
  1 22  1  0  0  0  0
  1 23  1  0  0  0  0
  2  8  1  0  0  0  0
  2  3  2  0  0  0  0
  3  4  1  0  0  0  0
  4  5  1  0  0  0  0
  4  6  1  0  0  0  0
  5 24  1  0  0  0  0
  5 25  1  0  0  0  0
  5 26  1  0  0  0  0
  6  7  1  0  0  0  0
  6  8  2  0  0  0  0
  7 27  1  0  0  0  0
  7 28  1  0  0  0  0
  7 29  1  0  0  0  0
  8  9  1  0  0  0  0
  9 10  1  0  0  0  0
  9 30  1  0  0  0  0
  9 31  1  0  0  0  0
 10 11  2  0  0  0  0
 10 12  1  0  0  0  0
 12 13  1  0  0  0  0
 12 32  1  0  0  0  0
 13 14  1  0  0  0  0
 13 33  1  0  0  0  0
 13 34  1  0  0  0  0
 14 20  1  0  0  0  0
 14 15  1  0  0  0  0
 14 35  1  0  0  0  0
 15 16  1  0  0  0  0
 15 36  1  0  0  0  0
 15 37  1  0  0  0  0
 16 17  1  0  0  0  0
 16 38  1  0  0  0  0
 16 39  1  0  0  0  0
 17 18  2  0  0  0  0
 17 19  2  0  0  0  0
 17 20  1  0  0  0  0
 20 40  1  0  0  0  0
 20 41  1  0  0  0  0
M  END
> <s_m_source_file>
AV-unprocessed.smi

> <i_m_source_file_index>
559

> <i_lp_mmshare_version>
43012

> <i_f3d_flags>
0

> <s_epik_input>
W0NIM11jMW5uKFtDSDNdKWMoW0NIM10pYzFbQ0gyXUMoPU8pW05IXVtDSDJdW0NAQEhdKFtDSDJdMilbQ0gyXVtDSDJdUzIoPU8pPU8=

> <s_epik_cmdline>
J2VwaWtfcHl0aG9uJywgJy1waCcsICc3LjAnLCAnLXRuJywgJzgnLCAnLW1hJywgJzIwMCcsICctbWV0YWxfYmluZGluZycsICctaW1hZScsICc8aW5maWxlLm1hZT4nLCAnLW9tYWUnLCAnPG91dGZpbGUubWFlPic=

> <r_lp_tautomer_probability>
1

> <r_epik_Ionization_Penalty>
0.00301269

> <r_epik_Ionization_Penalty_Charging>
0

> <r_epik_Ionization_Penalty_Neutral>
0.00301269

> <r_epik_State_Penalty>
0.00211587

> <r_epik_Charging_Adjusted_Penalty>
0.00211587

> <i_epik_Tot_Q>
0

> <i_epik_Tot_abs_Q>
0

> <r_epik_Metal_State_Penalty>
-0

> <b_epik_Metal_Only>
0

> <s_lp_Force_Field>
OPLS_2005

> <r_lp_Energy>
-3.01738

> <b_lp_Chiralities_Consistent>
1

> <s_lp_Variant>
AV-unprocessed.smi:559-1

> <Gold.Version>
5.8.1

> <Gold.Id.Protein>
6NUR|6NUR_protein|mol2

> <Gold.PLP.Fitness>
43.3424

> <Gold.PLP.PLP>
-38.3956

> <Gold.PLP.part.hbond>
-2.7438

> <Gold.PLP.part.metal>
0.0000

> <Gold.PLP.part.buried>
-4.9003

> <Gold.PLP.part.nonpolar>
-30.7399

> <Gold.PLP.part.repulsive>
0.4748

> <Gold.PLP.ligand.clash>
0.0000

> <Gold.PLP.ligand.torsion>
0.5206

> <Gold.PLP.Chemscore.Hbond>
1.9913

> <Gold.PLP.Chemscore.CHOScore>
0.0000

> <Gold.PLP.Chemscore.Metal>
0.0000

> <Gold.Chemscore.Hbonds>
donor molecule, donor type, donor heavy atom, donor atom, acceptor molecule, acceptor atom, score
      P1  H  7989  7998       L1     3  1.00
      P1  H  7997  8008       L1    11  0.99

> <Gold.PLP.Chemscore.Internal.Correction>
0.0142

> <Gold.Rescore>
     Score         DG    S(hbond)    S(metal)    S(lipo)     H(rot)  DE(clash)    DE(int)     intcor
     17.12     -17.94       1.93        0.00      87.35       1.64       0.05       0.77       ----

> <Gold.Chemscore.Fitness>
17.1243

> <Gold.Chemscore.DG>
-17.9416

> <Gold.Chemscore.ZeroCoef>
-5.4800

> <Gold.Chemscore.Hbond>
1.9279

> <Gold.Chemscore.Metal>
0.0000

> <Gold.Chemscore.Lipo>
87.3486

> <Gold.Chemscore.Internal_Hbond>
0.0000

> <Gold.Chemscore.DEClash>
0.0481

> <Gold.Chemscore.DEInternal>
0.7692

> <Gold.Chemscore.Rot>
1.6396

> <Gold.Chemscore.Internal.Correction>
   9.000000E+99

> <Gold.Chemscore.Hbonds>
donor molecule, donor type, donor heavy atom, donor atom, acceptor molecule, acceptor atom, score
      P1  H  7989  7998       L1     3  0.94
      P1  H  7997  8008       L1    11  0.37

> <Gold.Chemscore.Hbond.Weighted>
-6.4392

> <Gold.Chemscore.Metal.Weighted>
-0.0000

> <Gold.Chemscore.Lipo.Weighted>
-10.2198

> <Gold.Chemscore.Internal_Hbond.Weighted>
0.0000

> <Gold.Chemscore.DEClash.Weighted>
0.0481

> <Gold.Chemscore.DEInternal.Weighted>
0.7692

> <Gold.Chemscore.Rot.Weighted>
4.1974

> <Gold.Chemscore.Internal.Correction.Weighted>
   9.000000E+99

> <Gold.Protein.RotatedTorsions>
[ 6907 6896 6895 6894 ] final   44.33 input  -60.11 | X-H torsion
[ 7974 7965 7964 7962 ] final  -66.48 input  175.53 | X-H torsion
[ 8008 7997 7996 7995 ] final -126.08 input   59.86 | X-H torsion
[ 10167 10162 10161 10158 ] final   47.42 input  -65.29 | X-H torsion
[ 10718 10713 10712 10709 ] final   66.33 input   66.30 | X-H torsion
[ 10763 10752 10751 10750 ] final   11.44 input  -60.55 | X-H torsion
[ 11005 11000 10999 10996 ] final  114.79 input  -57.11 | X-H torsion

> <Gold.Protein.ActiveResidues>
 VAL166  LYS551  ARG553  GLY616  TRP617  ASP618  TYR619  PRO620  LYS621  CYS622 
 ASP623  PHE694  ASN695  SER759  ASP760  ASP761  ALA762  ILE779  LEU786  VAL792 
 PHE793  MET794  SER795  GLU796  ALA797  LYS798  CYS799  TRP800  GLU811  SER814 

> <Gold.Protein.RotatedAtoms>
  152.2312  134.8320  160.0473 H   0  0  0  0  0  0  0  0  0  0  0  0  # atno 6907 bound_to 6896
  151.9068  133.3546  159.3858 H   0  0  0  0  0  0  0  0  0  0  0  0  # atno 6908 bound_to 6896
  150.7026  134.4698  159.5464 H   0  0  0  0  0  0  0  0  0  0  0  0  # atno 6909 bound_to 6896
  145.7413  140.8952  143.0528 H   0  0  0  0  0  0  0  0  0  0  0  0  # atno 7974 bound_to 7965
  155.2239  140.0423  157.2952 H   0  0  0  0  0  0  0  0  0  0  0  0  # atno 8008 bound_to 7997
  154.5932  140.2432  155.7863 H   0  0  0  0  0  0  0  0  0  0  0  0  # atno 8009 bound_to 7997
  156.2273  140.2950  156.0107 H   0  0  0  0  0  0  0  0  0  0  0  0  # atno 8010 bound_to 7997
  140.3038  144.2902  150.6213 H   0  0  0  0  0  0  0  0  0  0  0  0  # atno 10167 bound_to 10162
  157.6162  130.9262  150.0094 H   0  0  0  0  0  0  0  0  0  0  0  0  # atno 10718 bound_to 10713
  153.1926  135.6844  153.8333 H   0  0  0  0  0  0  0  0  0  0  0  0  # atno 10763 bound_to 10752
  153.7627  135.3207  155.3340 H   0  0  0  0  0  0  0  0  0  0  0  0  # atno 10764 bound_to 10752
  154.8126  135.4707  154.0656 H   0  0  0  0  0  0  0  0  0  0  0  0  # atno 10765 bound_to 10752
  139.8991  134.9573  156.6946 H   0  0  0  0  0  0  0  0  0  0  0  0  # atno 11005 bound_to 11000
  144.6870  139.9464  143.7476 LP  0  0  0  0  0  0  0  0  0  0  0  0  # atno 17320 bound_to 7965
  146.0445  139.3453  143.0677 LP  0  0  0  0  0  0  0  0  0  0  0  0  # atno 17321 bound_to 7965
  140.5627  143.2190  151.7736 LP  0  0  0  0  0  0  0  0  0  0  0  0  # atno 17342 bound_to 10162
  139.4909  144.4326  151.9855 LP  0  0  0  0  0  0  0  0  0  0  0  0  # atno 17343 bound_to 10162
  156.1285  130.3644  149.9769 LP  0  0  0  0  0  0  0  0  0  0  0  0  # atno 17370 bound_to 10713
  156.7835  130.9230  151.3646 LP  0  0  0  0  0  0  0  0  0  0  0  0  # atno 17371 bound_to 10713
  140.7198  133.9150  155.8139 LP  0  0  0  0  0  0  0  0  0  0  0  0  # atno 17394 bound_to 11000
  141.0236  134.0855  157.4093 LP  0  0  0  0  0  0  0  0  0  0  0  0  # atno 17395 bound_to 11000

$$$$
