AV-unprocessed.smi:163|AV-procd|sdf|1380|dock5
  -GOLD-   2262019103D 1   1.00000     0.00000
 Structure written by MMmdl.
 48 51  0  0  0  0  0  0  0  0  1 V2000
  151.6148  143.7211  157.8404 N   0  0  0  0  0  0  0  0  0  0  0  0
  151.3085  142.6142  157.6973 C   0  0  0  0  0  0  0  0  0  0  0  0
  150.9216  141.2052  157.5138 C   0  0  0  0  0  0  0  0  0  0  0  0
  150.8483  140.7755  156.0426 C   0  0  0  0  0  0  0  0  0  0  0  0
  151.8917  140.5002  155.4490 O   0  0  0  0  0  0  0  0  0  0  0  0
  149.6357  140.7148  155.4441 N   0  0  0  0  0  0  0  0  0  0  0  0
  149.3905  140.2576  154.0715 C   0  0  0  0  0  0  0  0  0  0  0  0
  148.6297  138.9199  154.1214 C   0  0  0  0  0  0  0  0  0  0  0  0
  147.4140  139.0421  154.9298 N   0  0  0  0  0  0  0  0  0  0  0  0
  146.5451  138.0044  154.8208 C   0  0  0  0  0  0  0  0  0  0  0  0
  146.1161  137.3612  155.9400 N   0  0  0  0  0  0  0  0  0  0  0  0
  145.2670  136.3339  155.8463 C   0  0  0  0  0  0  0  0  0  0  0  0
  144.7273  135.7950  154.7520 N   0  0  0  0  0  0  0  0  0  0  0  0
  145.1479  136.4376  153.6253 C   0  0  0  0  0  0  0  0  0  0  0  0
  146.0440  137.5429  153.5700 C   0  0  0  0  0  0  0  0  0  0  0  0
  146.2164  137.9429  152.2497 N   0  0  0  0  0  0  0  0  0  0  0  0
  145.4748  137.1164  151.5649 C   0  0  0  0  0  0  0  0  0  0  0  0
  144.8059  136.1718  152.3104 N   0  0  0  0  0  0  0  0  0  0  0  0
  143.9148  135.1346  151.8114 C   0  0  0  0  0  0  0  0  0  0  0  0
  144.5179  133.7098  151.8743 C   0  0  1  0  0  0  0  0  0  0  0  0
  144.6502  133.3249  153.2303 O   0  0  0  0  0  0  0  0  0  0  0  0
  143.6529  132.6783  151.1462 C   0  0  0  0  0  0  0  0  0  0  0  0
  144.4631  132.3451  149.8995 C   0  0  0  0  0  0  0  0  0  0  0  0
  145.7971  132.4224  150.3682 O   0  0  0  0  0  0  0  0  0  0  0  0
  145.8877  133.5866  151.1766 C   0  0  0  0  0  0  0  0  0  0  0  0
  147.5883  139.6493  156.2532 C   0  0  0  0  0  0  0  0  0  0  0  0
  148.3764  140.9684  156.1533 C   0  0  0  0  0  0  0  0  0  0  0  0
  151.6536  140.5958  158.0444 H   0  0  0  0  0  0  0  0  0  0  0  0
  149.9509  141.0706  157.9923 H   0  0  0  0  0  0  0  0  0  0  0  0
  148.7912  141.0054  153.5500 H   0  0  0  0  0  0  0  0  0  0  0  0
  150.2968  140.1448  153.4790 H   0  0  0  0  0  0  0  0  0  0  0  0
  148.4033  138.6003  153.1054 H   0  0  0  0  0  0  0  0  0  0  0  0
  149.2643  138.1472  154.5580 H   0  0  0  0  0  0  0  0  0  0  0  0
  144.9787  135.8788  156.7824 H   0  0  0  0  0  0  0  0  0  0  0  0
  145.3952  137.1757  150.4892 H   0  0  0  0  0  0  0  0  0  0  0  0
  142.9875  135.1767  152.3843 H   0  0  0  0  0  0  0  0  0  0  0  0
  143.6478  135.3829  150.7833 H   0  0  0  0  0  0  0  0  0  0  0  0
  143.8788  132.8398  153.4810 H   0  0  0  0  0  0  0  0  0  0  0  0
  143.5357  131.7727  151.7439 H   0  0  0  0  0  0  0  0  0  0  0  0
  142.6528  133.0405  150.9055 H   0  0  0  0  0  0  0  0  0  0  0  0
  144.2325  131.3589  149.4962 H   0  0  0  0  0  0  0  0  0  0  0  0
  144.3018  133.0876  149.1161 H   0  0  0  0  0  0  0  0  0  0  0  0
  146.0686  134.4310  150.5110 H   0  0  0  0  0  0  0  0  0  0  0  0
  146.7283  133.5275  151.8693 H   0  0  0  0  0  0  0  0  0  0  0  0
  146.6143  139.8405  156.7056 H   0  0  0  0  0  0  0  0  0  0  0  0
  148.1175  138.9522  156.9047 H   0  0  0  0  0  0  0  0  0  0  0  0
  148.5254  141.3858  157.1498 H   0  0  0  0  0  0  0  0  0  0  0  0
  147.7970  141.7102  155.6016 H   0  0  0  0  0  0  0  0  0  0  0  0
  1  2  3  0  0  0  0
  2  3  1  0  0  0  0
  3  4  1  0  0  0  0
  3 28  1  0  0  0  0
  3 29  1  0  0  0  0
  4  5  2  0  0  0  0
  4  6  1  0  0  0  0
  6 27  1  0  0  0  0
  6  7  1  0  0  0  0
  7  8  1  0  0  0  0
  7 30  1  0  0  0  0
  7 31  1  0  0  0  0
  8  9  1  0  0  0  0
  8 32  1  0  0  0  0
  8 33  1  0  0  0  0
  9 10  1  0  0  0  0
  9 26  1  0  0  0  0
 10 15  1  0  0  0  0
 10 11  2  0  0  0  0
 11 12  1  0  0  0  0
 12 13  2  0  0  0  0
 12 34  1  0  0  0  0
 13 14  1  0  0  0  0
 14 18  1  0  0  0  0
 14 15  2  0  0  0  0
 15 16  1  0  0  0  0
 16 17  2  0  0  0  0
 17 18  1  0  0  0  0
 17 35  1  0  0  0  0
 18 19  1  0  0  0  0
 19 20  1  0  0  0  0
 19 36  1  0  0  0  0
 19 37  1  0  0  0  0
 20 25  1  0  0  0  0
 20 21  1  0  0  0  0
 20 22  1  0  0  0  0
 21 38  1  0  0  0  0
 22 23  1  0  0  0  0
 22 39  1  0  0  0  0
 22 40  1  0  0  0  0
 23 24  1  0  0  0  0
 23 41  1  0  0  0  0
 23 42  1  0  0  0  0
 24 25  1  0  0  0  0
 25 43  1  0  0  0  0
 25 44  1  0  0  0  0
 26 27  1  0  0  0  0
 26 45  1  0  0  0  0
 26 46  1  0  0  0  0
 27 47  1  0  0  0  0
 27 48  1  0  0  0  0
M  END
> <s_m_source_file>
AV-unprocessed.smi

> <i_m_source_file_index>
163

> <i_lp_mmshare_version>
43012

> <i_f3d_flags>
0

> <s_epik_input>
TiNDW0NIMl1DKD1PKU4xW0NIMl1bQ0gyXU4oW0NIMl1bQ0gyXTEpYyhuW2NIXW4yKWMoYzIzKW5bY0hdbjNbQ0gyXVtDQEBdNChbT0hdKVtDSDJdW0NIMl1PW0NIMl00

> <s_epik_cmdline>
J2VwaWtfcHl0aG9uJywgJy1waCcsICc3LjAnLCAnLXRuJywgJzgnLCAnLW1hJywgJzIwMCcsICctbWV0YWxfYmluZGluZycsICctaW1hZScsICc8aW5maWxlLm1hZT4nLCAnLW9tYWUnLCAnPG91dGZpbGUubWFlPic=

> <r_lp_tautomer_probability>
1

> <r_epik_Ionization_Penalty>
0.000981096

> <r_epik_Ionization_Penalty_Charging>
0

> <r_epik_Ionization_Penalty_Neutral>
0.000981096

> <r_epik_State_Penalty>
0.000482875

> <r_epik_Charging_Adjusted_Penalty>
0.000482875

> <i_epik_Tot_Q>
0

> <i_epik_Tot_abs_Q>
0

> <r_epik_Metal_State_Penalty>
-0

> <b_epik_Metal_Only>
0

> <s_lp_Force_Field>
OPLS_2005

> <r_lp_Energy>
52.1528

> <b_lp_Chiralities_Consistent>
1

> <s_lp_Variant>
AV-unprocessed.smi:163-1

> <Gold.Version>
5.8.1

> <Gold.Id.Protein>
6NUR|6NUR_protein|mol2

> <Gold.PLP.Fitness>
37.7079

> <Gold.PLP.PLP>
-31.5259

> <Gold.PLP.part.hbond>
-2.0000

> <Gold.PLP.part.metal>
0.0000

> <Gold.PLP.part.buried>
-1.7035

> <Gold.PLP.part.nonpolar>
-28.0659

> <Gold.PLP.part.repulsive>
0.6443

> <Gold.PLP.ligand.clash>
0.0000

> <Gold.PLP.ligand.torsion>
0.7128

> <Gold.PLP.Chemscore.Hbond>
1.6953

> <Gold.PLP.Chemscore.CHOScore>
0.6790

> <Gold.PLP.Chemscore.Metal>
0.0000

> <Gold.Chemscore.Hbonds>
donor molecule, donor type, donor heavy atom, donor atom, acceptor molecule, acceptor atom, score
      L1  H    21    38       P1 10957  0.89
      P1  H  7989  7998       L1     5  0.69
      L1  C    17    35       P1 10171  0.68

> <Gold.PLP.Chemscore.Internal.Correction>
0.4847

> <Gold.Rescore>
     Score         DG    S(hbond)    S(metal)    S(lipo)     H(rot)  DE(clash)    DE(int)     intcor
      9.53     -10.55       1.88        0.00      49.27       2.72       0.49       0.53       ----

> <Gold.Chemscore.Fitness>
9.5330

> <Gold.Chemscore.DG>
-10.5476

> <Gold.Chemscore.ZeroCoef>
-5.4800

> <Gold.Chemscore.Hbond>
1.8784

> <Gold.Chemscore.Metal>
0.0000

> <Gold.Chemscore.Lipo>
49.2702

> <Gold.Chemscore.Internal_Hbond>
0.0000

> <Gold.Chemscore.DEClash>
0.4852

> <Gold.Chemscore.DEInternal>
0.5293

> <Gold.Chemscore.Rot>
2.7230

> <Gold.Chemscore.Internal.Correction>
   9.000000E+99

> <Gold.Chemscore.Hbonds>
donor molecule, donor type, donor heavy atom, donor atom, acceptor molecule, acceptor atom, score
      L1  H    21    38       P1 10957  0.60
      P1  H  7989  7998       L1     5  0.46

> <Gold.Chemscore.Hbond.Weighted>
-6.2739

> <Gold.Chemscore.Metal.Weighted>
-0.0000

> <Gold.Chemscore.Lipo.Weighted>
-5.7646

> <Gold.Chemscore.Internal_Hbond.Weighted>
0.0000

> <Gold.Chemscore.DEClash.Weighted>
0.4852

> <Gold.Chemscore.DEInternal.Weighted>
0.5293

> <Gold.Chemscore.Rot.Weighted>
6.9709

> <Gold.Chemscore.Internal.Correction.Weighted>
   9.000000E+99

> <Gold.Protein.RotatedTorsions>
[ 6907 6896 6895 6894 ] final   -8.44 input  -60.11 | X-H torsion
[ 7974 7965 7964 7962 ] final -112.51 input  175.53 | X-H torsion
[ 8008 7997 7996 7995 ] final -165.96 input   59.86 | X-H torsion
[ 10167 10162 10161 10158 ] final  -71.13 input  -65.29 | X-H torsion
[ 10718 10713 10712 10709 ] final  145.70 input   66.30 | X-H torsion
[ 10763 10752 10751 10750 ] final   19.52 input  -60.55 | X-H torsion
[ 11005 11000 10999 10996 ] final  -98.86 input  -57.11 | X-H torsion

> <Gold.Protein.ActiveResidues>
 VAL166  LYS551  ARG553  GLY616  TRP617  ASP618  TYR619  PRO620  LYS621  CYS622 
 ASP623  PHE694  ASN695  SER759  ASP760  ASP761  ALA762  ILE779  LEU786  VAL792 
 PHE793  MET794  SER795  GLU796  ALA797  LYS798  CYS799  TRP800  GLU811  SER814 

> <Gold.Protein.RotatedAtoms>
  151.4336  135.1012  159.9649 H   0  0  0  0  0  0  0  0  0  0  0  0  # atno 6907 bound_to 6896
  152.4947  133.8594  159.7253 H   0  0  0  0  0  0  0  0  0  0  0  0  # atno 6908 bound_to 6896
  150.9138  133.6907  159.2876 H   0  0  0  0  0  0  0  0  0  0  0  0  # atno 6909 bound_to 6896
  145.1431  140.8789  143.3690 H   0  0  0  0  0  0  0  0  0  0  0  0  # atno 7974 bound_to 7965
  155.8571  140.0972  157.1637 H   0  0  0  0  0  0  0  0  0  0  0  0  # atno 8008 bound_to 7997
  154.3988  140.1372  156.3978 H   0  0  0  0  0  0  0  0  0  0  0  0  # atno 8009 bound_to 7997
  155.7897  140.3456  155.5345 H   0  0  0  0  0  0  0  0  0  0  0  0  # atno 8010 bound_to 7997
  140.5297  143.2323  151.7283 H   0  0  0  0  0  0  0  0  0  0  0  0  # atno 10167 bound_to 10162
  157.3421  131.0937  151.1074 H   0  0  0  0  0  0  0  0  0  0  0  0  # atno 10718 bound_to 10713
  153.1155  135.6707  153.9426 H   0  0  0  0  0  0  0  0  0  0  0  0  # atno 10763 bound_to 10752
  153.8957  135.3042  155.3449 H   0  0  0  0  0  0  0  0  0  0  0  0  # atno 10764 bound_to 10752
  154.7571  135.5006  153.9474 H   0  0  0  0  0  0  0  0  0  0  0  0  # atno 10765 bound_to 10752
  141.1329  133.8278  157.0896 H   0  0  0  0  0  0  0  0  0  0  0  0  # atno 11005 bound_to 11000
  145.0511  139.3181  143.5928 LP  0  0  0  0  0  0  0  0  0  0  0  0  # atno 17320 bound_to 7965
  146.3503  139.9919  142.8685 LP  0  0  0  0  0  0  0  0  0  0  0  0  # atno 17321 bound_to 7965
  139.4950  144.4132  152.0058 LP  0  0  0  0  0  0  0  0  0  0  0  0  # atno 17342 bound_to 10162
  140.3234  144.3402  150.6004 LP  0  0  0  0  0  0  0  0  0  0  0  0  # atno 17343 bound_to 10162
  157.2282  130.6513  149.5838 LP  0  0  0  0  0  0  0  0  0  0  0  0  # atno 17370 bound_to 10713
  155.9709  130.4607  150.6083 LP  0  0  0  0  0  0  0  0  0  0  0  0  # atno 17371 bound_to 10713
  140.0400  134.9859  157.0944 LP  0  0  0  0  0  0  0  0  0  0  0  0  # atno 17394 bound_to 11000
  140.4149  134.1941  155.7163 LP  0  0  0  0  0  0  0  0  0  0  0  0  # atno 17395 bound_to 11000

$$$$
