AV-unprocessed.smi:258|AV-procd|sdf|1966|dock5
  -GOLD-   2262021123D 1   1.00000     0.00000
 Structure written by MMmdl.
 57 60  0  0  0  0  0  0  0  0  1 V2000
  146.2482  131.5746  150.3933 O   0  0  0  0  0  0  0  0  0  0  0  0
  145.4050  132.1459  149.4155 C   0  0  0  0  0  0  0  0  0  0  0  0
  144.3488  133.0370  150.0802 C   0  0  0  0  0  0  0  0  0  0  0  0
  144.9925  133.9239  150.9842 O   0  0  0  0  0  0  0  0  0  0  0  0
  144.1144  134.8145  151.6596 C   0  0  1  0  0  0  0  0  0  0  0  0
  142.8920  134.0632  152.2243 C   0  0  0  0  0  0  0  0  0  0  0  0
  142.0336  135.0106  153.0759 C   0  0  0  0  0  0  0  0  0  0  0  0
  142.8725  135.6730  154.1804 C   0  0  0  0  0  0  0  0  0  0  0  0
  144.0508  136.3322  153.6144 N   0  0  0  0  0  0  0  0  0  0  0  0
  144.7135  137.2238  154.3948 C   0  0  0  0  0  0  0  0  0  0  0  0
  144.4069  137.3299  155.7162 N   0  0  0  0  0  0  0  0  0  0  0  0
  145.0620  138.1957  156.4952 C   0  0  0  0  0  0  0  0  0  0  0  0
  146.0416  139.0396  156.1657 N   0  0  0  0  0  0  0  0  0  0  0  0
  146.3474  138.9456  154.8404 C   0  0  0  0  0  0  0  0  0  0  0  0
  145.7383  138.0754  153.8923 C   0  0  0  0  0  0  0  0  0  0  0  0
  146.3027  138.2762  152.6374 N   0  0  0  0  0  0  0  0  0  0  0  0
  147.2025  139.2005  152.8355 C   0  0  0  0  0  0  0  0  0  0  0  0
  147.2948  139.6599  154.1297 N   0  0  0  0  0  0  0  0  0  0  0  0
  148.2032  140.6765  154.6302 C   0  0  0  0  0  0  0  0  0  0  0  0
  148.8981  140.2837  155.9581 C   0  0  2  0  0  0  0  0  0  0  0  0
  149.3471  141.5115  156.7870 C   0  0  0  0  0  0  0  0  0  0  0  0
  148.2530  142.3462  157.1079 O   0  0  0  0  0  0  0  0  0  0  0  0
  150.0567  139.2831  155.7174 C   0  0  2  0  0  0  0  0  0  0  0  0
  151.4304  139.9174  155.5877 C   0  0  0  0  0  0  0  0  0  0  0  0
  152.2362  138.8071  154.9217 C   0  0  0  0  0  0  0  0  0  0  0  0
  151.3132  138.1007  154.0999 O   0  0  0  0  0  0  0  0  0  0  0  0
  149.9832  138.5175  154.3922 C   0  0  0  0  0  0  0  0  0  0  0  0
  144.9097  135.4703  152.8020 C   0  0  0  0  0  0  0  0  0  0  0  0
  147.1246  131.5271  150.0432 H   0  0  0  0  0  0  0  0  0  0  0  0
  145.9908  132.7020  148.6830 H   0  0  0  0  0  0  0  0  0  0  0  0
  144.9165  131.3284  148.8850 H   0  0  0  0  0  0  0  0  0  0  0  0
  143.8517  133.6296  149.3109 H   0  0  0  0  0  0  0  0  0  0  0  0
  143.5825  132.4333  150.5676 H   0  0  0  0  0  0  0  0  0  0  0  0
  143.7842  135.6022  150.9795 H   0  0  0  0  0  0  0  0  0  0  0  0
  142.2850  133.6451  151.4220 H   0  0  0  0  0  0  0  0  0  0  0  0
  143.2254  133.2230  152.8348 H   0  0  0  0  0  0  0  0  0  0  0  0
  141.6006  135.7811  152.4368 H   0  0  0  0  0  0  0  0  0  0  0  0
  141.1978  134.4669  153.5166 H   0  0  0  0  0  0  0  0  0  0  0  0
  142.2569  136.3975  154.7157 H   0  0  0  0  0  0  0  0  0  0  0  0
  143.1933  134.9228  154.9046 H   0  0  0  0  0  0  0  0  0  0  0  0
  144.7579  138.2133  157.5314 H   0  0  0  0  0  0  0  0  0  0  0  0
  147.8225  139.5808  152.0365 H   0  0  0  0  0  0  0  0  0  0  0  0
  148.9425  140.8693  153.8527 H   0  0  0  0  0  0  0  0  0  0  0  0
  147.6433  141.6036  154.7584 H   0  0  0  0  0  0  0  0  0  0  0  0
  148.1503  139.7678  156.5624 H   0  0  0  0  0  0  0  0  0  0  0  0
  149.8338  141.2026  157.7121 H   0  0  0  0  0  0  0  0  0  0  0  0
  150.0878  142.0982  156.2442 H   0  0  0  0  0  0  0  0  0  0  0  0
  148.2264  143.0584  156.4873 H   0  0  0  0  0  0  0  0  0  0  0  0
  150.0911  138.5600  156.5340 H   0  0  0  0  0  0  0  0  0  0  0  0
  151.3875  140.7910  154.9356 H   0  0  0  0  0  0  0  0  0  0  0  0
  151.8565  140.2247  156.5430 H   0  0  0  0  0  0  0  0  0  0  0  0
  153.0758  139.1909  154.3419 H   0  0  0  0  0  0  0  0  0  0  0  0
  152.6283  138.1201  155.6725 H   0  0  0  0  0  0  0  0  0  0  0  0
  149.3084  137.6627  154.4398 H   0  0  0  0  0  0  0  0  0  0  0  0
  149.6452  139.1702  153.5861 H   0  0  0  0  0  0  0  0  0  0  0  0
  145.3368  134.7008  153.4469 H   0  0  0  0  0  0  0  0  0  0  0  0
  145.7494  136.0229  152.3824 H   0  0  0  0  0  0  0  0  0  0  0  0
  1  2  1  0  0  0  0
  1 29  1  0  0  0  0
  2  3  1  0  0  0  0
  2 30  1  0  0  0  0
  2 31  1  0  0  0  0
  3  4  1  0  0  0  0
  3 32  1  0  0  0  0
  3 33  1  0  0  0  0
  4  5  1  0  0  0  0
  5 28  1  0  0  0  0
  5  6  1  0  0  0  0
  5 34  1  0  0  0  0
  6  7  1  0  0  0  0
  6 35  1  0  0  0  0
  6 36  1  0  0  0  0
  7  8  1  0  0  0  0
  7 37  1  0  0  0  0
  7 38  1  0  0  0  0
  8  9  1  0  0  0  0
  8 39  1  0  0  0  0
  8 40  1  0  0  0  0
  9 10  1  0  0  0  0
  9 28  1  0  0  0  0
 10 15  1  0  0  0  0
 10 11  2  0  0  0  0
 11 12  1  0  0  0  0
 12 13  2  0  0  0  0
 12 41  1  0  0  0  0
 13 14  1  0  0  0  0
 14 18  1  0  0  0  0
 14 15  2  0  0  0  0
 15 16  1  0  0  0  0
 16 17  2  0  0  0  0
 17 18  1  0  0  0  0
 17 42  1  0  0  0  0
 18 19  1  0  0  0  0
 19 20  1  0  0  0  0
 19 43  1  0  0  0  0
 19 44  1  0  0  0  0
 20 21  1  0  0  0  0
 20 23  1  0  0  0  0
 20 45  1  0  0  0  0
 21 22  1  0  0  0  0
 21 46  1  0  0  0  0
 21 47  1  0  0  0  0
 22 48  1  0  0  0  0
 23 27  1  0  0  0  0
 23 24  1  0  0  0  0
 23 49  1  0  0  0  0
 24 25  1  0  0  0  0
 24 50  1  0  0  0  0
 24 51  1  0  0  0  0
 25 26  1  0  0  0  0
 25 52  1  0  0  0  0
 25 53  1  0  0  0  0
 26 27  1  0  0  0  0
 27 54  1  0  0  0  0
 27 55  1  0  0  0  0
 28 56  1  0  0  0  0
 28 57  1  0  0  0  0
M  END
> <s_m_source_file>
AV-unprocessed.smi

> <i_m_source_file_index>
258

> <i_lp_mmshare_version>
43012

> <i_f3d_flags>
0

> <s_epik_input>
W09IXVtDSDJdW0NIMl1PW0NAQEhdMVtDSDJdW0NIMl1bQ0gyXU4oW0NIMl0xKWMobltjSF1uMiljKGMyMyluW2NIXW4zW0NIMl1bQ0BIXShbQ0gyXVtPSF0pW0NAQEhdNFtDSDJdW0NIMl1PW0NIMl00

> <s_epik_cmdline>
J2VwaWtfcHl0aG9uJywgJy1waCcsICc3LjAnLCAnLXRuJywgJzgnLCAnLW1hJywgJzIwMCcsICctbWV0YWxfYmluZGluZycsICctaW1hZScsICc8aW5maWxlLm1hZT4nLCAnLW9tYWUnLCAnPG91dGZpbGUubWFlPic=

> <r_lp_tautomer_probability>
1

> <r_epik_Ionization_Penalty>
0.00349036

> <r_epik_Ionization_Penalty_Charging>
0

> <r_epik_Ionization_Penalty_Neutral>
0.00349036

> <r_epik_State_Penalty>
0.00229798

> <r_epik_Charging_Adjusted_Penalty>
0.00229798

> <i_epik_Tot_Q>
0

> <i_epik_Tot_abs_Q>
0

> <r_epik_Metal_State_Penalty>
-0

> <b_epik_Metal_Only>
0

> <s_lp_Force_Field>
OPLS_2005

> <r_lp_Energy>
45.891

> <b_lp_Chiralities_Consistent>
1

> <s_lp_Variant>
AV-unprocessed.smi:258-2

> <Gold.Version>
5.8.1

> <Gold.Id.Protein>
6NUR|6NUR_protein|mol2

> <Gold.PLP.Fitness>
43.0073

> <Gold.PLP.PLP>
-36.5880

> <Gold.PLP.part.hbond>
-2.0000

> <Gold.PLP.part.metal>
0.0000

> <Gold.PLP.part.buried>
-6.7302

> <Gold.PLP.part.nonpolar>
-29.2114

> <Gold.PLP.part.repulsive>
0.7273

> <Gold.PLP.ligand.clash>
0.0000

> <Gold.PLP.ligand.torsion>
1.5667

> <Gold.PLP.Chemscore.Hbond>
2.0000

> <Gold.PLP.Chemscore.CHOScore>
1.0000

> <Gold.PLP.Chemscore.Metal>
0.0000

> <Gold.Chemscore.Hbonds>
donor molecule, donor type, donor heavy atom, donor atom, acceptor molecule, acceptor atom, score
      L1  H     1    29       P1 10747  0.96
      L1  H    22    48       P1  8028  1.00
      L1  C    17    42       P1  7957  0.96

> <Gold.PLP.Chemscore.Internal.Correction>
0.5527

> <Gold.Rescore>
     Score         DG    S(hbond)    S(metal)    S(lipo)     H(rot)  DE(clash)    DE(int)     intcor
      8.16     -10.98       1.90        0.00      85.17       4.22       0.01       2.80       ----

> <Gold.Chemscore.Fitness>
8.1642

> <Gold.Chemscore.DG>
-10.9754

> <Gold.Chemscore.ZeroCoef>
-5.4800

> <Gold.Chemscore.Hbond>
1.8996

> <Gold.Chemscore.Metal>
0.0000

> <Gold.Chemscore.Lipo>
85.1745

> <Gold.Chemscore.Internal_Hbond>
0.0000

> <Gold.Chemscore.DEClash>
0.0106

> <Gold.Chemscore.DEInternal>
2.8006

> <Gold.Chemscore.Rot>
4.2246

> <Gold.Chemscore.Internal.Correction>
   9.000000E+99

> <Gold.Chemscore.Hbonds>
donor molecule, donor type, donor heavy atom, donor atom, acceptor molecule, acceptor atom, score
      L1  H     1    29       P1 10747  0.91
      L1  H    22    48       P1  8028  0.49

> <Gold.Chemscore.Hbond.Weighted>
-6.3448

> <Gold.Chemscore.Metal.Weighted>
-0.0000

> <Gold.Chemscore.Lipo.Weighted>
-9.9654

> <Gold.Chemscore.Internal_Hbond.Weighted>
0.0000

> <Gold.Chemscore.DEClash.Weighted>
0.0106

> <Gold.Chemscore.DEInternal.Weighted>
2.8006

> <Gold.Chemscore.Rot.Weighted>
10.8149

> <Gold.Chemscore.Internal.Correction.Weighted>
   9.000000E+99

> <Gold.Protein.RotatedTorsions>
[ 6907 6896 6895 6894 ] final  124.71 input  -60.11 | X-H torsion
[ 7974 7965 7964 7962 ] final   67.93 input  175.53 | X-H torsion
[ 8008 7997 7996 7995 ] final -160.45 input   59.86 | X-H torsion
[ 10167 10162 10161 10158 ] final   21.97 input  -65.29 | X-H torsion
[ 10718 10713 10712 10709 ] final  124.21 input   66.30 | X-H torsion
[ 10763 10752 10751 10750 ] final  104.61 input  -60.55 | X-H torsion
[ 11005 11000 10999 10996 ] final  125.29 input  -57.11 | X-H torsion

> <Gold.Protein.ActiveResidues>
 VAL166  LYS551  ARG553  GLY616  TRP617  ASP618  TYR619  PRO620  LYS621  CYS622 
 ASP623  PHE694  ASN695  SER759  ASP760  ASP761  ALA762  ILE779  LEU786  VAL792 
 PHE793  MET794  SER795  GLU796  ALA797  LYS798  CYS799  TRP800  GLU811  SER814 

> <Gold.Protein.RotatedAtoms>
  152.4055  133.6882  159.6352 H   0  0  0  0  0  0  0  0  0  0  0  0  # atno 6907 bound_to 6896
  150.7941  133.8716  159.3269 H   0  0  0  0  0  0  0  0  0  0  0  0  # atno 6908 bound_to 6896
  151.6472  135.1007  160.0205 H   0  0  0  0  0  0  0  0  0  0  0  0  # atno 6909 bound_to 6896
  145.8087  139.3021  143.1112 H   0  0  0  0  0  0  0  0  0  0  0  0  # atno 7974 bound_to 7965
  155.7777  140.0860  157.2075 H   0  0  0  0  0  0  0  0  0  0  0  0  # atno 8008 bound_to 7997
  154.3992  140.1513  156.3073 H   0  0  0  0  0  0  0  0  0  0  0  0  # atno 8009 bound_to 7997
  155.8685  140.3426  155.5807 H   0  0  0  0  0  0  0  0  0  0  0  0  # atno 8010 bound_to 7997
  140.5385  143.9718  150.6505 H   0  0  0  0  0  0  0  0  0  0  0  0  # atno 10167 bound_to 10162
  157.5603  131.1090  150.8550 H   0  0  0  0  0  0  0  0  0  0  0  0  # atno 10718 bound_to 10713
  153.3682  135.3937  155.1769 H   0  0  0  0  0  0  0  0  0  0  0  0  # atno 10763 bound_to 10752
  154.8690  135.3696  154.5011 H   0  0  0  0  0  0  0  0  0  0  0  0  # atno 10764 bound_to 10752
  153.5477  135.7083  153.5667 H   0  0  0  0  0  0  0  0  0  0  0  0  # atno 10765 bound_to 10752
  139.9399  134.9636  156.8536 H   0  0  0  0  0  0  0  0  0  0  0  0  # atno 11005 bound_to 11000
  145.9800  140.8690  143.0119 LP  0  0  0  0  0  0  0  0  0  0  0  0  # atno 17320 bound_to 7965
  144.6760  140.2067  143.7381 LP  0  0  0  0  0  0  0  0  0  0  0  0  # atno 17321 bound_to 7965
  140.3112  143.3197  152.0877 LP  0  0  0  0  0  0  0  0  0  0  0  0  # atno 17342 bound_to 10162
  139.4980  144.6635  151.6410 LP  0  0  0  0  0  0  0  0  0  0  0  0  # atno 17343 bound_to 10162
  156.9050  130.5260  149.5281 LP  0  0  0  0  0  0  0  0  0  0  0  0  # atno 17370 bound_to 10713
  156.0656  130.5700  150.9282 LP  0  0  0  0  0  0  0  0  0  0  0  0  # atno 17371 bound_to 10713
  140.5978  134.0201  155.7525 LP  0  0  0  0  0  0  0  0  0  0  0  0  # atno 17394 bound_to 11000
  141.1029  133.9739  157.3047 LP  0  0  0  0  0  0  0  0  0  0  0  0  # atno 17395 bound_to 11000

$$$$
