AV-unprocessed.smi:794|AV-procd|sdf|3759|dock5
  -GOLD-   22720 1193D 1   1.00000     0.00000
 Structure written by MMmdl.
 41 43  0  0  0  0  0  0  0  0  1 V2000
  142.6683  144.2051  161.8797 C   0  0  0  0  0  0  0  0  0  0  0  0
  143.3798  144.5354  160.6035 C   0  0  0  0  0  0  0  0  0  0  0  0
  144.7578  144.3213  160.5052 N   0  0  0  0  0  0  0  0  0  0  0  0
  145.2393  144.6644  159.3062 C   0  0  0  0  0  0  0  0  0  0  0  0
  146.6032  144.5561  158.9288 N   0  0  0  0  0  0  0  0  0  0  0  0
  147.5500  143.7582  159.4525 C   0  0  0  0  0  0  0  0  0  0  0  0
  147.3772  142.9538  160.3684 O   0  0  0  0  0  0  0  0  0  0  0  0
  148.7331  143.9545  158.8527 N   0  0  0  0  0  0  0  0  0  0  0  0
  149.9758  143.2533  159.1784 C   0  0  1  0  0  0  0  0  0  0  0  0
  150.6633  142.7592  157.8871 C   0  0  2  0  0  0  0  0  0  0  0  0
  151.7295  141.7110  158.2542 C   0  0  0  0  0  0  0  0  0  0  0  0
  152.8272  142.5680  158.9131 C   0  0  0  0  0  0  0  0  0  0  0  0
  152.2453  143.9935  158.8320 C   0  0  1  0  0  0  0  0  0  0  0  0
  151.5261  143.9508  157.4897 C   0  0  0  0  0  0  0  0  0  0  0  0
  151.0798  144.1322  159.8426 C   0  0  1  0  0  0  0  0  0  0  0  0
  150.6974  145.6006  160.1384 C   0  0  0  0  0  0  0  0  0  0  0  0
  149.5358  145.6575  160.9393 O   0  0  0  0  0  0  0  0  0  0  0  0
  144.0176  145.2790  158.2064 S   0  0  0  0  0  0  0  0  0  0  0  0
  142.8203  145.0504  159.4568 C   0  0  0  0  0  0  0  0  0  0  0  0
  141.3885  145.3978  159.2186 C   0  0  0  0  0  0  0  0  0  0  0  0
  141.8840  143.4668  161.7119 H   0  0  0  0  0  0  0  0  0  0  0  0
  142.2013  145.0919  162.3088 H   0  0  0  0  0  0  0  0  0  0  0  0
  143.3485  143.7974  162.6281 H   0  0  0  0  0  0  0  0  0  0  0  0
  146.8945  145.1660  158.1794 H   0  0  0  0  0  0  0  0  0  0  0  0
  148.7817  144.6376  158.1111 H   0  0  0  0  0  0  0  0  0  0  0  0
  149.7400  142.3975  159.8143 H   0  0  0  0  0  0  0  0  0  0  0  0
  149.9706  142.4142  157.1184 H   0  0  0  0  0  0  0  0  0  0  0  0
  151.3448  140.9385  158.9210 H   0  0  0  0  0  0  0  0  0  0  0  0
  152.1139  141.2187  157.3601 H   0  0  0  0  0  0  0  0  0  0  0  0
  153.0375  142.2617  159.9385 H   0  0  0  0  0  0  0  0  0  0  0  0
  153.7573  142.4971  158.3479 H   0  0  0  0  0  0  0  0  0  0  0  0
  153.0070  144.7689  158.9183 H   0  0  0  0  0  0  0  0  0  0  0  0
  152.1904  143.7422  156.6493 H   0  0  0  0  0  0  0  0  0  0  0  0
  150.9513  144.8520  157.2720 H   0  0  0  0  0  0  0  0  0  0  0  0
  151.3660  143.6768  160.7922 H   0  0  0  0  0  0  0  0  0  0  0  0
  151.5046  146.1330  160.6417 H   0  0  0  0  0  0  0  0  0  0  0  0
  150.4834  146.1334  159.2117 H   0  0  0  0  0  0  0  0  0  0  0  0
  148.9013  146.2109  160.5096 H   0  0  0  0  0  0  0  0  0  0  0  0
  141.0087  146.0405  160.0131 H   0  0  0  0  0  0  0  0  0  0  0  0
  140.7735  144.4983  159.1886 H   0  0  0  0  0  0  0  0  0  0  0  0
  141.2612  145.9247  158.2726 H   0  0  0  0  0  0  0  0  0  0  0  0
  1  2  1  0  0  0  0
  1 21  1  0  0  0  0
  1 22  1  0  0  0  0
  1 23  1  0  0  0  0
  2 19  2  0  0  0  0
  2  3  1  0  0  0  0
  3  4  2  0  0  0  0
  4  5  1  0  0  0  0
  4 18  1  0  0  0  0
  5  6  1  0  0  0  0
  5 24  1  0  0  0  0
  6  7  2  0  0  0  0
  6  8  1  0  0  0  0
  8  9  1  0  0  0  0
  8 25  1  0  0  0  0
  9 15  1  0  0  0  0
  9 10  1  0  0  0  0
  9 26  1  0  0  0  0
 10 14  1  0  0  0  0
 10 11  1  0  0  0  0
 10 27  1  0  0  0  0
 11 12  1  0  0  0  0
 11 28  1  0  0  0  0
 11 29  1  0  0  0  0
 12 13  1  0  0  0  0
 12 30  1  0  0  0  0
 12 31  1  0  0  0  0
 13 14  1  0  0  0  0
 13 15  1  0  0  0  0
 13 32  1  0  0  0  0
 14 33  1  0  0  0  0
 14 34  1  0  0  0  0
 15 16  1  0  0  0  0
 15 35  1  0  0  0  0
 16 17  1  0  0  0  0
 16 36  1  0  0  0  0
 16 37  1  0  0  0  0
 17 38  1  0  0  0  0
 18 19  1  0  0  0  0
 19 20  1  0  0  0  0
 20 39  1  0  0  0  0
 20 40  1  0  0  0  0
 20 41  1  0  0  0  0
M  END
> <s_m_source_file>
AV-unprocessed.smi

> <i_m_source_file_index>
794

> <i_lp_mmshare_version>
43012

> <i_f3d_flags>
0

> <s_epik_input>
W0NIM11jMW5jKHNjMVtDSDNdKVtOSF1DKD1PKVtOSF1bQ0BIXShbQ0BASF0yMylbQ0BIXShbQ0gyXVtPSF0pW0NAQEhdKFtDSDJdMylbQ0gyXVtDSDJdMg==

> <s_epik_cmdline>
J2VwaWtfcHl0aG9uJywgJy1waCcsICc3LjAnLCAnLXRuJywgJzgnLCAnLW1hJywgJzIwMCcsICctbWV0YWxfYmluZGluZycsICctaW1hZScsICc8aW5maWxlLm1hZT4nLCAnLW9tYWUnLCAnPG91dGZpbGUubWFlPic=

> <r_lp_tautomer_probability>
0.999

> <r_epik_Ionization_Penalty>
0.000713029

> <r_epik_Ionization_Penalty_Charging>
0

> <r_epik_Ionization_Penalty_Neutral>
0.000713029

> <r_epik_State_Penalty>
0.000177984

> <r_epik_Charging_Adjusted_Penalty>
0.000177984

> <i_epik_Tot_Q>
0

> <i_epik_Tot_abs_Q>
0

> <r_epik_Metal_State_Penalty>
-0

> <b_epik_Metal_Only>
0

> <s_lp_Force_Field>
OPLS_2005

> <r_lp_Energy>
48.0104

> <b_lp_Chiralities_Consistent>
1

> <s_lp_Variant>
AV-unprocessed.smi:794-4

> <Gold.Version>
5.8.1

> <Gold.Id.Protein>
6NUR|6NUR_protein|mol2

> <Gold.PLP.Fitness>
40.1605

> <Gold.PLP.PLP>
-30.6014

> <Gold.PLP.part.hbond>
-6.1205

> <Gold.PLP.part.metal>
0.0000

> <Gold.PLP.part.buried>
-0.1081

> <Gold.PLP.part.nonpolar>
-26.7873

> <Gold.PLP.part.repulsive>
0.2445

> <Gold.PLP.ligand.clash>
0.0000

> <Gold.PLP.ligand.torsion>
0.2375

> <Gold.PLP.Chemscore.Hbond>
3.3403

> <Gold.PLP.Chemscore.CHOScore>
0.0000

> <Gold.PLP.Chemscore.Metal>
0.0000

> <Gold.Chemscore.Hbonds>
donor molecule, donor type, donor heavy atom, donor atom, acceptor molecule, acceptor atom, score
      L1  H     5    24       P1  8029  0.99
      L1  H     8    25       P1  8029  0.91
      P1  H  6933  6944       L1     7  0.99
      P1  H  6934  6946       L1     7  0.45

> <Gold.PLP.Chemscore.Internal.Correction>
0.0131

> <Gold.Rescore>
     Score         DG    S(hbond)    S(metal)    S(lipo)     H(rot)  DE(clash)    DE(int)     intcor
     19.03     -23.77       3.29        0.00     101.40       1.78       1.96       2.78       ----

> <Gold.Chemscore.Fitness>
19.0288

> <Gold.Chemscore.DG>
-23.7654

> <Gold.Chemscore.ZeroCoef>
-5.4800

> <Gold.Chemscore.Hbond>
3.2866

> <Gold.Chemscore.Metal>
0.0000

> <Gold.Chemscore.Lipo>
101.4047

> <Gold.Chemscore.Internal_Hbond>
0.0000

> <Gold.Chemscore.DEClash>
1.9595

> <Gold.Chemscore.DEInternal>
2.7771

> <Gold.Chemscore.Rot>
1.7798

> <Gold.Chemscore.Internal.Correction>
   9.000000E+99

> <Gold.Chemscore.Hbonds>
donor molecule, donor type, donor heavy atom, donor atom, acceptor molecule, acceptor atom, score
      L1  H     5    24       P1  8029  0.91
      L1  H     8    25       P1  8029  0.26
      P1  H  6933  6944       L1     7  0.94
      P1  H  6934  6946       L1     7  0.45

> <Gold.Chemscore.Hbond.Weighted>
-10.9773

> <Gold.Chemscore.Metal.Weighted>
-0.0000

> <Gold.Chemscore.Lipo.Weighted>
-11.8643

> <Gold.Chemscore.Internal_Hbond.Weighted>
0.0000

> <Gold.Chemscore.DEClash.Weighted>
1.9595

> <Gold.Chemscore.DEInternal.Weighted>
2.7771

> <Gold.Chemscore.Rot.Weighted>
4.5562

> <Gold.Chemscore.Internal.Correction.Weighted>
   9.000000E+99

> <Gold.Protein.RotatedTorsions>
[ 6907 6896 6895 6894 ] final -155.08 input  -60.11 | X-H torsion
[ 7974 7965 7964 7962 ] final  101.13 input  175.53 | X-H torsion
[ 8008 7997 7996 7995 ] final   -6.95 input   59.86 | X-H torsion
[ 10167 10162 10161 10158 ] final -125.79 input  -65.29 | X-H torsion
[ 10718 10713 10712 10709 ] final  -88.20 input   66.30 | X-H torsion
[ 10763 10752 10751 10750 ] final -157.64 input  -60.55 | X-H torsion
[ 11005 11000 10999 10996 ] final  174.91 input  -57.11 | X-H torsion

> <Gold.Protein.ActiveResidues>
 VAL166  LYS551  ARG553  GLY616  TRP617  ASP618  TYR619  PRO620  LYS621  CYS622 
 ASP623  PHE694  ASN695  SER759  ASP760  ASP761  ALA762  ILE779  LEU786  VAL792 
 PHE793  MET794  SER795  GLU796  ALA797  LYS798  CYS799  TRP800  GLU811  SER814 

> <Gold.Protein.RotatedAtoms>
  151.2671  133.4273  159.2618 H   0  0  0  0  0  0  0  0  0  0  0  0  # atno 6907 bound_to 6896
  151.0478  134.9652  159.8206 H   0  0  0  0  0  0  0  0  0  0  0  0  # atno 6908 bound_to 6896
  152.5377  134.2627  159.8994 H   0  0  0  0  0  0  0  0  0  0  0  0  # atno 6909 bound_to 6896
  145.3764  139.2388  143.3427 H   0  0  0  0  0  0  0  0  0  0  0  0  # atno 7974 bound_to 7965
  154.5887  140.2420  155.7951 H   0  0  0  0  0  0  0  0  0  0  0  0  # atno 8008 bound_to 7997
  156.2231  140.2991  155.9956 H   0  0  0  0  0  0  0  0  0  0  0  0  # atno 8009 bound_to 7997
  155.2412  140.0407  157.2965 H   0  0  0  0  0  0  0  0  0  0  0  0  # atno 8010 bound_to 7997
  139.9784  143.5769  152.2387 H   0  0  0  0  0  0  0  0  0  0  0  0  # atno 10167 bound_to 10162
  155.9984  130.4827  150.4983 H   0  0  0  0  0  0  0  0  0  0  0  0  # atno 10718 bound_to 10713
  154.7620  135.3120  154.8360 H   0  0  0  0  0  0  0  0  0  0  0  0  # atno 10763 bound_to 10752
  153.9118  135.6805  153.4755 H   0  0  0  0  0  0  0  0  0  0  0  0  # atno 10764 bound_to 10752
  153.1222  135.4817  154.9145 H   0  0  0  0  0  0  0  0  0  0  0  0  # atno 10765 bound_to 10752
  140.3565  134.7150  157.4302 H   0  0  0  0  0  0  0  0  0  0  0  0  # atno 11005 bound_to 11000
  146.2862  140.4424  142.8757 LP  0  0  0  0  0  0  0  0  0  0  0  0  # atno 17320 bound_to 7965
  144.8539  140.7041  143.6151 LP  0  0  0  0  0  0  0  0  0  0  0  0  # atno 17321 bound_to 7965
  139.6428  144.7656  151.2304 LP  0  0  0  0  0  0  0  0  0  0  0  0  # atno 17342 bound_to 10162
  140.7498  143.6288  150.8442 LP  0  0  0  0  0  0  0  0  0  0  0  0  # atno 17343 bound_to 10162
  157.2970  131.0637  151.2095 LP  0  0  0  0  0  0  0  0  0  0  0  0  # atno 17370 bound_to 10713
  157.3087  130.6879  149.6204 LP  0  0  0  0  0  0  0  0  0  0  0  0  # atno 17371 bound_to 10713
  140.0661  134.5927  155.8694 LP  0  0  0  0  0  0  0  0  0  0  0  0  # atno 17394 bound_to 11000
  141.1997  133.6608  156.5857 LP  0  0  0  0  0  0  0  0  0  0  0  0  # atno 17395 bound_to 11000

$$$$
