AV-unprocessed.smi:1762|AV-procd|sdf|7125|dock8
  -GOLD-   22720 8363D 1   1.00000     0.00000
 Structure written by MMmdl.
 52 53  0  0  0  0  0  0  0  0  3 V2000
  145.7793  132.9247  151.7302 C   0  0  0  0  0  0  0  0  0  0  0  0
  146.5488  133.9442  152.5775 C   0  0  2  0  0  0  0  0  0  0  0  0
  147.8378  133.3504  153.1710 C   0  0  0  0  0  0  0  0  0  0  0  0
  148.5423  134.3400  154.0378 N   0  3  2  0  0  0  0  0  0  0  0  0
  149.8470  133.8268  154.5789 C   0  0  1  0  0  0  0  0  0  0  0  0
  150.5438  134.9029  155.4472 C   0  0  0  0  0  0  0  0  0  0  0  0
  150.5939  134.7328  156.6704 O   0  0  0  0  0  0  0  0  0  0  0  0
  150.9825  135.9450  154.6878 N   0  5  0  0  0  0  0  0  0  0  0  0
  150.4673  137.3087  154.7967 C   0  0  0  0  0  0  0  0  0  0  0  0
  151.6320  138.3061  154.9985 C   0  0  0  0  0  0  0  0  0  0  0  0
  151.2517  139.5669  155.7677 C   0  0  0  0  0  0  0  0  0  0  0  0
  151.7383  139.7840  157.0770 C   0  0  0  0  0  0  0  0  0  0  0  0
  151.3703  140.9668  157.7465 C   0  0  0  0  0  0  0  0  0  0  0  0
  150.5368  141.8894  157.0860 C   0  0  0  0  0  0  0  0  0  0  0  0
  150.1088  141.5883  155.7780 C   0  0  0  0  0  0  0  0  0  0  0  0
  150.4568  140.4580  155.1261 N   0  0  0  0  0  0  0  0  0  0  0  0
  149.7449  132.4616  155.3417 C   0  0  0  0  0  0  0  0  0  0  0  0
  148.7077  132.4413  156.4842 C   0  0  0  0  0  0  0  0  0  0  0  0
  151.1070  131.9560  155.8560 C   0  0  0  0  0  0  0  0  0  0  0  0
  147.5934  134.8432  155.0697 C   0  0  0  0  0  0  0  0  0  0  0  0
  146.3010  135.3826  154.4270 C   0  0  2  0  0  0  0  0  0  0  0  0
  145.2770  135.8292  155.4763 C   0  0  0  0  0  0  0  0  0  0  0  0
  145.7036  134.3619  153.6398 O   0  0  0  0  0  0  0  0  0  0  0  0
  146.3812  132.5796  150.8891 H   0  0  0  0  0  0  0  0  0  0  0  0
  144.8663  133.3635  151.3268 H   0  0  0  0  0  0  0  0  0  0  0  0
  145.4972  132.0521  152.3200 H   0  0  0  0  0  0  0  0  0  0  0  0
  146.7930  134.8022  151.9484 H   0  0  0  0  0  0  0  0  0  0  0  0
  147.6065  132.4584  153.7559 H   0  0  0  0  0  0  0  0  0  0  0  0
  148.4687  133.0270  152.3435 H   0  0  0  0  0  0  0  0  0  0  0  0
  150.4623  133.6290  153.6973 H   0  0  0  0  0  0  0  0  0  0  0  0
  149.8867  137.5995  153.9202 H   0  0  0  0  0  0  0  0  0  0  0  0
  149.7820  137.3939  155.6403 H   0  0  0  0  0  0  0  0  0  0  0  0
  152.4505  137.8137  155.5260 H   0  0  0  0  0  0  0  0  0  0  0  0
  152.0372  138.6040  154.0300 H   0  0  0  0  0  0  0  0  0  0  0  0
  152.3763  139.0576  157.5587 H   0  0  0  0  0  0  0  0  0  0  0  0
  151.7212  141.1625  158.7489 H   0  0  0  0  0  0  0  0  0  0  0  0
  150.2335  142.8059  157.5694 H   0  0  0  0  0  0  0  0  0  0  0  0
  149.4714  142.2742  155.2400 H   0  0  0  0  0  0  0  0  0  0  0  0
  149.4413  131.7049  154.6195 H   0  0  0  0  0  0  0  0  0  0  0  0
  149.0200  133.0602  157.3253 H   0  0  0  0  0  0  0  0  0  0  0  0
  148.5748  131.4286  156.8654 H   0  0  0  0  0  0  0  0  0  0  0  0
  147.7301  132.7954  156.1588 H   0  0  0  0  0  0  0  0  0  0  0  0
  151.4995  132.5814  156.6585 H   0  0  0  0  0  0  0  0  0  0  0  0
  151.8475  131.9378  155.0559 H   0  0  0  0  0  0  0  0  0  0  0  0
  151.0241  130.9416  156.2473 H   0  0  0  0  0  0  0  0  0  0  0  0
  147.3632  134.0398  155.7713 H   0  0  0  0  0  0  0  0  0  0  0  0
  148.0312  135.6576  155.6435 H   0  0  0  0  0  0  0  0  0  0  0  0
  146.5370  136.2369  153.7898 H   0  0  0  0  0  0  0  0  0  0  0  0
  145.6762  136.6287  156.1007 H   0  0  0  0  0  0  0  0  0  0  0  0
  144.9951  135.0030  156.1296 H   0  0  0  0  0  0  0  0  0  0  0  0
  144.3696  136.2012  155.0004 H   0  0  0  0  0  0  0  0  0  0  0  0
  148.7769  135.1265  153.4492 H   0  0  0  0  0  0  0  0  0  0  0  0
  1  2  1  0  0  0  0
  1 24  1  0  0  0  0
  1 25  1  0  0  0  0
  1 26  1  0  0  0  0
  2 23  1  0  0  0  0
  2  3  1  0  0  0  0
  2 27  1  0  0  0  0
  3  4  1  0  0  0  0
  3 28  1  0  0  0  0
  3 29  1  0  0  0  0
  4  5  1  0  0  0  0
  4 20  1  0  0  0  0
  4 52  1  0  0  0  0
  5  6  1  0  0  0  0
  5 17  1  0  0  0  0
  5 30  1  0  0  0  0
  6  7  2  0  0  0  0
  6  8  1  0  0  0  0
  8  9  1  0  0  0  0
  9 10  1  0  0  0  0
  9 31  1  0  0  0  0
  9 32  1  0  0  0  0
 10 11  1  0  0  0  0
 10 33  1  0  0  0  0
 10 34  1  0  0  0  0
 11 16  1  0  0  0  0
 11 12  2  0  0  0  0
 12 13  1  0  0  0  0
 12 35  1  0  0  0  0
 13 14  2  0  0  0  0
 13 36  1  0  0  0  0
 14 15  1  0  0  0  0
 14 37  1  0  0  0  0
 15 16  2  0  0  0  0
 15 38  1  0  0  0  0
 17 18  1  0  0  0  0
 17 19  1  0  0  0  0
 17 39  1  0  0  0  0
 18 40  1  0  0  0  0
 18 41  1  0  0  0  0
 18 42  1  0  0  0  0
 19 43  1  0  0  0  0
 19 44  1  0  0  0  0
 19 45  1  0  0  0  0
 20 21  1  0  0  0  0
 20 46  1  0  0  0  0
 20 47  1  0  0  0  0
 21 22  1  0  0  0  0
 21 23  1  0  0  0  0
 21 48  1  0  0  0  0
 22 49  1  0  0  0  0
 22 50  1  0  0  0  0
 22 51  1  0  0  0  0
M  CHG  1   4   1
M  CHG  1   8  -1
M  END
> <s_m_source_file>
AV-unprocessed.smi

> <i_m_source_file_index>
1762

> <i_lp_mmshare_version>
43012

> <i_f3d_flags>
0

> <s_epik_input>
W0NIM11bQ0BASF0xW0NIMl1OKFtDSDJdW0NASF0oTzEpW0NIM10pW0NAQEhdKFtDSF0oW0NIM10pW0NIM10pQyg9TylbTkhdW0NIMl1bQ0gyXWMyW2NIXVtjSF1bY0hdW2NIXW4y

> <s_epik_cmdline>
J2VwaWtfcHl0aG9uJywgJy1waCcsICc3LjAnLCAnLXRuJywgJzgnLCAnLW1hJywgJzIwMCcsICctbWV0YWxfYmluZGluZycsICctaW1hZScsICc8aW5maWxlLm1hZT4nLCAnLW9tYWUnLCAnPG91dGZpbGUubWFlPic=

> <r_epik_Ionization_Penalty>
7.82966

> <r_epik_Ionization_Penalty_Charging>
7.7461

> <r_epik_Ionization_Penalty_Neutral>
0.0835571

> <r_epik_State_Penalty>
8.52273

> <r_epik_Charging_Adjusted_Penalty>
16.2688

> <i_epik_Tot_Q>
0

> <i_epik_Tot_abs_Q>
2

> <r_epik_Metal_State_Penalty>
4.47451

> <b_epik_Metal_Only>
1

> <s_lp_Force_Field>
OPLS_2005

> <r_lp_Energy>
21.2393

> <b_lp_Chiralities_Consistent>
1

> <s_lp_Variant>
AV-unprocessed.smi:1762-27

> <Gold.Version>
5.8.1

> <Gold.Id.Protein>
6NUR|6NUR_protein|mol2

> <Gold.PLP.Fitness>
51.0785

> <Gold.PLP.PLP>
-35.4152

> <Gold.PLP.part.hbond>
-3.0000

> <Gold.PLP.part.metal>
0.0000

> <Gold.PLP.part.buried>
-5.3762

> <Gold.PLP.part.nonpolar>
-27.9783

> <Gold.PLP.part.repulsive>
0.4651

> <Gold.PLP.ligand.clash>
0.0000

> <Gold.PLP.ligand.torsion>
1.3577

> <Gold.PLP.Chemscore.Hbond>
4.9920

> <Gold.PLP.Chemscore.CHOScore>
1.0000

> <Gold.PLP.Chemscore.Metal>
0.0000

> <Gold.Chemscore.Hbonds>
donor molecule, donor type, donor heavy atom, donor atom, acceptor molecule, acceptor atom, score
      L1  H     4    52       P1  7948  2.00
      P1  H  7989  7998       L1    16  0.96
      P1  H 10752 10763       L1     8  2.00
      L1  C    15    38       P1  8028  0.97

> <Gold.PLP.Chemscore.Internal.Correction>
0.4027

> <Gold.Rescore>
     Score         DG    S(hbond)    S(metal)    S(lipo)     H(rot)  DE(clash)    DE(int)     intcor
     15.79     -18.88       2.37        0.00      81.73       1.60       0.24       2.84       ----

> <Gold.Chemscore.Fitness>
15.7912

> <Gold.Chemscore.DG>
-18.8750

> <Gold.Chemscore.ZeroCoef>
-5.4800

> <Gold.Chemscore.Hbond>
2.3749

> <Gold.Chemscore.Metal>
0.0000

> <Gold.Chemscore.Lipo>
81.7259

> <Gold.Chemscore.Internal_Hbond>
0.0000

> <Gold.Chemscore.DEClash>
0.2433

> <Gold.Chemscore.DEInternal>
2.8405

> <Gold.Chemscore.Rot>
1.6012

> <Gold.Chemscore.Internal.Correction>
   9.000000E+99

> <Gold.Chemscore.Hbonds>
donor molecule, donor type, donor heavy atom, donor atom, acceptor molecule, acceptor atom, score
      L1  H     4    52       P1  7948  0.65
      P1  H  7989  7998       L1    16  0.17
      P1  H 10752 10763       L1     8  0.62

> <Gold.Chemscore.Hbond.Weighted>
-7.9320

> <Gold.Chemscore.Metal.Weighted>
-0.0000

> <Gold.Chemscore.Lipo.Weighted>
-9.5619

> <Gold.Chemscore.Internal_Hbond.Weighted>
0.0000

> <Gold.Chemscore.DEClash.Weighted>
0.2433

> <Gold.Chemscore.DEInternal.Weighted>
2.8405

> <Gold.Chemscore.Rot.Weighted>
4.0990

> <Gold.Chemscore.Internal.Correction.Weighted>
   9.000000E+99

> <Gold.Protein.RotatedTorsions>
[ 6907 6896 6895 6894 ] final  169.29 input  -60.11 | X-H torsion
[ 7974 7965 7964 7962 ] final -142.29 input  175.53 | X-H torsion
[ 8008 7997 7996 7995 ] final -169.95 input   59.86 | X-H torsion
[ 10167 10162 10161 10158 ] final   24.13 input  -65.29 | X-H torsion
[ 10718 10713 10712 10709 ] final  -55.65 input   66.30 | X-H torsion
[ 10763 10752 10751 10750 ] final   37.74 input  -60.55 | X-H torsion
[ 11005 11000 10999 10996 ] final  155.09 input  -57.11 | X-H torsion

> <Gold.Protein.ActiveResidues>
 VAL166  LYS551  ARG553  GLY616  TRP617  ASP618  TYR619  PRO620  LYS621  CYS622 
 ASP623  PHE694  ASN695  SER759  ASP760  ASP761  ALA762  ILE779  LEU786  VAL792 
 PHE793  MET794  SER795  GLU796  ALA797  LYS798  CYS799  TRP800  GLU811  SER814 

> <Gold.Protein.RotatedAtoms>
  151.8342  133.3413  159.3622 H   0  0  0  0  0  0  0  0  0  0  0  0  # atno 6907 bound_to 6896
  150.7254  134.5453  159.5777 H   0  0  0  0  0  0  0  0  0  0  0  0  # atno 6908 bound_to 6896
  152.2913  134.7719  160.0428 H   0  0  0  0  0  0  0  0  0  0  0  0  # atno 6909 bound_to 6896
  144.8454  140.5976  143.5425 H   0  0  0  0  0  0  0  0  0  0  0  0  # atno 7974 bound_to 7965
  155.9118  140.1059  157.1273 H   0  0  0  0  0  0  0  0  0  0  0  0  # atno 8008 bound_to 7997
  154.4040  140.1273  156.4632 H   0  0  0  0  0  0  0  0  0  0  0  0  # atno 8009 bound_to 7997
  155.7301  140.3468  155.5058 H   0  0  0  0  0  0  0  0  0  0  0  0  # atno 8010 bound_to 7997
  140.5213  143.9998  150.6418 H   0  0  0  0  0  0  0  0  0  0  0  0  # atno 10167 bound_to 10162
  156.1352  130.4157  150.0199 H   0  0  0  0  0  0  0  0  0  0  0  0  # atno 10718 bound_to 10713
  153.0026  135.6269  154.2194 H   0  0  0  0  0  0  0  0  0  0  0  0  # atno 10763 bound_to 10752
  154.1937  135.2807  155.3015 H   0  0  0  0  0  0  0  0  0  0  0  0  # atno 10764 bound_to 10752
  154.5739  135.5668  153.7180 H   0  0  0  0  0  0  0  0  0  0  0  0  # atno 10765 bound_to 10752
  140.1549  134.8649  157.2502 H   0  0  0  0  0  0  0  0  0  0  0  0  # atno 11005 bound_to 11000
  145.4607  139.1513  143.3868 LP  0  0  0  0  0  0  0  0  0  0  0  0  # atno 17320 bound_to 7965
  146.2740  140.4737  142.8803 LP  0  0  0  0  0  0  0  0  0  0  0  0  # atno 17321 bound_to 7965
  140.3347  143.3056  152.0650 LP  0  0  0  0  0  0  0  0  0  0  0  0  # atno 17342 bound_to 10162
  139.4924  144.6484  151.6728 LP  0  0  0  0  0  0  0  0  0  0  0  0  # atno 17343 bound_to 10162
  156.8100  130.9321  151.3644 LP  0  0  0  0  0  0  0  0  0  0  0  0  # atno 17370 bound_to 10713
  157.6525  130.8896  149.9662 LP  0  0  0  0  0  0  0  0  0  0  0  0  # atno 17371 bound_to 10713
  140.2559  134.3628  155.7424 LP  0  0  0  0  0  0  0  0  0  0  0  0  # atno 17394 bound_to 11000
  141.2203  133.7342  156.9007 LP  0  0  0  0  0  0  0  0  0  0  0  0  # atno 17395 bound_to 11000

$$$$
