AV-unprocessed.smi:3223|AV-procd|sdf|12308|dock7
  -GOLD-   2272018153D 1   1.00000     0.00000
 Structure written by MMmdl.
 43 43  0  0  0  0  0  0  0  0  2 V2000
  144.5195  133.9322  151.0269 C   0  0  0  0  0  0  0  0  0  0  0  0
  144.7780  135.3283  151.5152 C   0  0  0  0  0  0  0  0  0  0  0  0
  143.9614  136.1189  152.3728 C   0  0  0  0  0  0  0  0  0  0  0  0
  144.4776  137.3127  152.6168 N   0  0  0  0  0  0  0  0  0  0  0  0
  145.6372  137.3257  151.9257 N   0  0  0  0  0  0  0  0  0  0  0  0
  146.4919  138.4977  151.9718 C   0  0  0  0  0  0  0  0  0  0  0  0
  147.2012  138.6692  153.3316 C   0  0  1  0  0  0  0  0  0  0  0  0
  146.6456  137.6770  154.3619 C   0  0  0  0  0  0  0  0  0  0  0  0
  148.6634  138.4729  153.2026 N   0  3  0  0  0  0  0  0  0  0  0  0
  149.4474  138.7889  154.4145 C   0  0  0  0  0  0  0  0  0  0  0  0
  150.9428  138.5169  154.1854 C   0  0  0  0  0  0  0  0  0  0  0  0
  151.8228  139.1246  155.2806 C   0  0  0  0  0  0  0  0  0  0  0  0
  152.6558  139.9859  154.9986 O   0  0  0  0  0  0  0  0  0  0  0  0
  151.6315  138.6605  156.5258 N   0  0  0  0  0  0  0  0  0  0  0  0
  152.3574  139.0987  157.7147 C   0  0  0  0  0  0  0  0  0  0  0  0
  151.8980  138.3019  158.9456 C   0  0  0  0  0  0  0  0  0  0  0  0
  152.1559  140.6073  157.9088 C   0  0  0  0  0  0  0  0  0  0  0  0
  145.8428  136.1419  151.2502 C   0  0  0  0  0  0  0  0  0  0  0  0
  143.4528  133.7136  150.9732 H   0  0  0  0  0  0  0  0  0  0  0  0
  144.9674  133.1879  151.6855 H   0  0  0  0  0  0  0  0  0  0  0  0
  144.9305  133.7693  150.0304 H   0  0  0  0  0  0  0  0  0  0  0  0
  143.0144  135.8606  152.8236 H   0  0  0  0  0  0  0  0  0  0  0  0
  147.2314  138.3993  151.1759 H   0  0  0  0  0  0  0  0  0  0  0  0
  145.8979  139.3817  151.7328 H   0  0  0  0  0  0  0  0  0  0  0  0
  147.0035  139.6734  153.7111 H   0  0  0  0  0  0  0  0  0  0  0  0
  145.5738  137.8180  154.5045 H   0  0  0  0  0  0  0  0  0  0  0  0
  147.1247  137.8090  155.3327 H   0  0  0  0  0  0  0  0  0  0  0  0
  146.8064  136.6449  154.0481 H   0  0  0  0  0  0  0  0  0  0  0  0
  148.8301  137.5030  152.9764 H   0  0  0  0  0  0  0  0  0  0  0  0
  149.2889  139.8326  154.6873 H   0  0  0  0  0  0  0  0  0  0  0  0
  149.0800  138.1826  155.2438 H   0  0  0  0  0  0  0  0  0  0  0  0
  151.1178  137.4412  154.1261 H   0  0  0  0  0  0  0  0  0  0  0  0
  151.2555  138.9386  153.2293 H   0  0  0  0  0  0  0  0  0  0  0  0
  150.9286  137.9486  156.6630 H   0  0  0  0  0  0  0  0  0  0  0  0
  153.4246  138.9247  157.5673 H   0  0  0  0  0  0  0  0  0  0  0  0
  152.4422  138.6125  159.8379 H   0  0  0  0  0  0  0  0  0  0  0  0
  152.0704  137.2333  158.8131 H   0  0  0  0  0  0  0  0  0  0  0  0
  150.8344  138.4466  159.1383 H   0  0  0  0  0  0  0  0  0  0  0  0
  152.7134  140.9681  158.7737 H   0  0  0  0  0  0  0  0  0  0  0  0
  151.1048  140.8523  158.0650 H   0  0  0  0  0  0  0  0  0  0  0  0
  152.5033  141.1656  157.0386 H   0  0  0  0  0  0  0  0  0  0  0  0
  146.7225  135.9764  150.6455 H   0  0  0  0  0  0  0  0  0  0  0  0
  148.9959  139.0425  152.4370 H   0  0  0  0  0  0  0  0  0  0  0  0
  1  2  1  0  0  0  0
  1 19  1  0  0  0  0
  1 20  1  0  0  0  0
  1 21  1  0  0  0  0
  2 18  2  0  0  0  0
  2  3  1  0  0  0  0
  3  4  2  0  0  0  0
  3 22  1  0  0  0  0
  4  5  1  0  0  0  0
  5  6  1  0  0  0  0
  5 18  1  0  0  0  0
  6  7  1  0  0  0  0
  6 23  1  0  0  0  0
  6 24  1  0  0  0  0
  7  8  1  0  0  0  0
  7  9  1  0  0  0  0
  7 25  1  0  0  0  0
  8 26  1  0  0  0  0
  8 27  1  0  0  0  0
  8 28  1  0  0  0  0
  9 10  1  0  0  0  0
  9 29  1  0  0  0  0
  9 43  1  0  0  0  0
 10 11  1  0  0  0  0
 10 30  1  0  0  0  0
 10 31  1  0  0  0  0
 11 12  1  0  0  0  0
 11 32  1  0  0  0  0
 11 33  1  0  0  0  0
 12 13  2  0  0  0  0
 12 14  1  0  0  0  0
 14 15  1  0  0  0  0
 14 34  1  0  0  0  0
 15 16  1  0  0  0  0
 15 17  1  0  0  0  0
 15 35  1  0  0  0  0
 16 36  1  0  0  0  0
 16 37  1  0  0  0  0
 16 38  1  0  0  0  0
 17 39  1  0  0  0  0
 17 40  1  0  0  0  0
 17 41  1  0  0  0  0
 18 42  1  0  0  0  0
M  CHG  1   9   1
M  END
> <s_m_source_file>
AV-unprocessed.smi

> <i_m_source_file_index>
3223

> <i_lp_mmshare_version>
43012

> <i_f3d_flags>
0

> <s_epik_input>
W0NIM11jMVtjSF1ubihbY0hdMSlbQ0gyXVtDQEhdKFtDSDNdKVtOSF1bQ0gyXVtDSDJdQyg9TylbTkhdW0NIXShbQ0gzXSlbQ0gzXQ==

> <s_epik_cmdline>
J2VwaWtfcHl0aG9uJywgJy1waCcsICc3LjAnLCAnLXRuJywgJzgnLCAnLW1hJywgJzIwMCcsICctbWV0YWxfYmluZGluZycsICctaW1hZScsICc8aW5maWxlLm1hZT4nLCAnLW9tYWUnLCAnPG91dGZpbGUubWFlPic=

> <r_lp_tautomer_probability>
1

> <r_epik_Ionization_Penalty>
0.0057861

> <r_epik_Ionization_Penalty_Charging>
0.00577767

> <r_epik_Ionization_Penalty_Neutral>
8.4224e-06

> <r_epik_State_Penalty>
0.00424195

> <r_epik_Charging_Adjusted_Penalty>
0.0100196

> <i_epik_Tot_Q>
1

> <i_epik_Tot_abs_Q>
1

> <r_epik_Metal_State_Penalty>
-0

> <b_epik_Metal_Only>
0

> <s_lp_Force_Field>
OPLS_2005

> <r_lp_Energy>
5.87618

> <b_lp_Chiralities_Consistent>
1

> <s_lp_Variant>
AV-unprocessed.smi:3223-2

> <Gold.Version>
5.8.1

> <Gold.Id.Protein>
6NUR|6NUR_protein|mol2

> <Gold.PLP.Fitness>
47.2271

> <Gold.PLP.PLP>
-33.2210

> <Gold.PLP.part.hbond>
-4.0000

> <Gold.PLP.part.metal>
0.0000

> <Gold.PLP.part.buried>
-3.2281

> <Gold.PLP.part.nonpolar>
-27.6522

> <Gold.PLP.part.repulsive>
0.6206

> <Gold.PLP.ligand.clash>
0.0000

> <Gold.PLP.ligand.torsion>
0.9222

> <Gold.PLP.Chemscore.Hbond>
4.4891

> <Gold.PLP.Chemscore.CHOScore>
0.7361

> <Gold.PLP.Chemscore.Metal>
0.0000

> <Gold.Chemscore.Hbonds>
donor molecule, donor type, donor heavy atom, donor atom, acceptor molecule, acceptor atom, score
      L1  H     9    29       P1  7948  2.00
      L1  H     9    43       P1  7957  1.00
      P1  H  7989  7998       L1    13  0.47
      P1  H  7997  8009       L1    13  1.00
      L1  C    18    42       P1  7948  0.74

> <Gold.PLP.Chemscore.Internal.Correction>
0.1750

> <Gold.Rescore>
     Score         DG    S(hbond)    S(metal)    S(lipo)     H(rot)  DE(clash)    DE(int)     intcor
     15.29     -17.71       3.11        0.00      63.51       2.19       0.04       2.38       ----

> <Gold.Chemscore.Fitness>
15.2890

> <Gold.Chemscore.DG>
-17.7081

> <Gold.Chemscore.ZeroCoef>
-5.4800

> <Gold.Chemscore.Hbond>
3.1111

> <Gold.Chemscore.Metal>
0.0000

> <Gold.Chemscore.Lipo>
63.5089

> <Gold.Chemscore.Internal_Hbond>
0.0000

> <Gold.Chemscore.DEClash>
0.0354

> <Gold.Chemscore.DEInternal>
2.3837

> <Gold.Chemscore.Rot>
2.1850

> <Gold.Chemscore.Internal.Correction>
   9.000000E+99

> <Gold.Chemscore.Hbonds>
donor molecule, donor type, donor heavy atom, donor atom, acceptor molecule, acceptor atom, score
      L1  H     9    29       P1  7948  0.95
      L1  H     9    43       P1  7957  0.99
      P1  H  7989  7998       L1    13  0.10
      P1  H  7997  8009       L1    13  0.95

> <Gold.Chemscore.Hbond.Weighted>
-10.3912

> <Gold.Chemscore.Metal.Weighted>
-0.0000

> <Gold.Chemscore.Lipo.Weighted>
-7.4305

> <Gold.Chemscore.Internal_Hbond.Weighted>
0.0000

> <Gold.Chemscore.DEClash.Weighted>
0.0354

> <Gold.Chemscore.DEInternal.Weighted>
2.3837

> <Gold.Chemscore.Rot.Weighted>
5.5936

> <Gold.Chemscore.Internal.Correction.Weighted>
   9.000000E+99

> <Gold.Protein.RotatedTorsions>
[ 6907 6896 6895 6894 ] final   44.79 input  -60.11 | X-H torsion
[ 7974 7965 7964 7962 ] final  125.13 input  175.53 | X-H torsion
[ 8008 7997 7996 7995 ] final -136.92 input   59.86 | X-H torsion
[ 10167 10162 10161 10158 ] final  122.52 input  -65.29 | X-H torsion
[ 10718 10713 10712 10709 ] final  122.97 input   66.30 | X-H torsion
[ 10763 10752 10751 10750 ] final   14.04 input  -60.55 | X-H torsion
[ 11005 11000 10999 10996 ] final  -46.92 input  -57.11 | X-H torsion

> <Gold.Protein.ActiveResidues>
 VAL166  LYS551  ARG553  GLY616  TRP617  ASP618  TYR619  PRO620  LYS621  CYS622 
 ASP623  PHE694  ASN695  SER759  ASP760  ASP761  ALA762  ILE779  LEU786  VAL792 
 PHE793  MET794  SER795  GLU796  ALA797  LYS798  CYS799  TRP800  GLU811  SER814 

> <Gold.Protein.RotatedAtoms>
  152.2368  134.8268  160.0465 H   0  0  0  0  0  0  0  0  0  0  0  0  # atno 6907 bound_to 6896
  151.8997  133.3530  159.3834 H   0  0  0  0  0  0  0  0  0  0  0  0  # atno 6908 bound_to 6896
  150.7041  134.4766  159.5495 H   0  0  0  0  0  0  0  0  0  0  0  0  # atno 6909 bound_to 6896
  145.0765  139.3689  143.4931 H   0  0  0  0  0  0  0  0  0  0  0  0  # atno 7974 bound_to 7965
  155.4032  140.0507  157.3035 H   0  0  0  0  0  0  0  0  0  0  0  0  # atno 8008 bound_to 7997
  154.4981  140.2146  155.9365 H   0  0  0  0  0  0  0  0  0  0  0  0  # atno 8009 bound_to 7997
  156.1431  140.3150  155.8532 H   0  0  0  0  0  0  0  0  0  0  0  0  # atno 8010 bound_to 7997
  139.5854  144.7004  151.3423 H   0  0  0  0  0  0  0  0  0  0  0  0  # atno 10167 bound_to 10162
  157.5701  131.1084  150.8382 H   0  0  0  0  0  0  0  0  0  0  0  0  # atno 10718 bound_to 10713
  153.1661  135.6804  153.8674 H   0  0  0  0  0  0  0  0  0  0  0  0  # atno 10763 bound_to 10752
  153.8053  135.3150  155.3396 H   0  0  0  0  0  0  0  0  0  0  0  0  # atno 10764 bound_to 10752
  154.7966  135.4803  154.0266 H   0  0  0  0  0  0  0  0  0  0  0  0  # atno 10765 bound_to 10752
  141.0609  133.6709  156.3224 H   0  0  0  0  0  0  0  0  0  0  0  0  # atno 11005 bound_to 11000
  146.3530  140.0535  142.8634 LP  0  0  0  0  0  0  0  0  0  0  0  0  # atno 17320 bound_to 7965
  145.1229  140.9473  143.4590 LP  0  0  0  0  0  0  0  0  0  0  0  0  # atno 17321 bound_to 7965
  140.7126  143.7350  150.7596 LP  0  0  0  0  0  0  0  0  0  0  0  0  # atno 17342 bound_to 10162
  140.0893  143.4893  152.2488 LP  0  0  0  0  0  0  0  0  0  0  0  0  # atno 17343 bound_to 10162
  156.8856  130.5194  149.5288 LP  0  0  0  0  0  0  0  0  0  0  0  0  # atno 17370 bound_to 10713
  156.0747  130.5772  150.9451 LP  0  0  0  0  0  0  0  0  0  0  0  0  # atno 17371 bound_to 10713
  140.5871  134.5688  157.5492 LP  0  0  0  0  0  0  0  0  0  0  0  0  # atno 17394 bound_to 11000
  139.9432  134.7750  156.0627 LP  0  0  0  0  0  0  0  0  0  0  0  0  # atno 17395 bound_to 11000

$$$$
