AV-unprocessed.smi:1165|AV-procd|sdf|4931|dock4
  -GOLD-   22720 3513D 1   1.00000     0.00000
 Structure written by MMmdl.
 40 41  0  0  0  0  0  0  0  0  2 V2000
  148.3817  136.9478  158.6687 C   0  0  0  0  0  0  0  0  0  0  0  0
  149.5451  136.7684  157.6870 C   0  0  2  0  0  0  0  0  0  0  0  0
  150.0123  138.1117  157.0986 C   0  0  0  0  0  0  0  0  0  0  0  0
  151.0293  137.9027  156.0576 N   0  0  0  0  0  0  0  0  0  0  0  0
  151.9613  139.2865  155.5545 S   0  0  0  0  0  0  0  0  0  0  0  0
  153.0488  138.7387  154.7293 O   0  0  0  0  0  0  0  0  0  0  0  0
  151.0225  140.2177  154.9050 O   0  0  0  0  0  0  0  0  0  0  0  0
  152.4810  139.7876  157.0149 N   0  5  0  0  0  0  0  0  0  0  0  0
  151.6516  140.6303  157.8707 C   0  0  0  0  0  0  0  0  0  0  0  0
  151.7544  142.1070  157.4325 C   0  0  0  0  0  0  0  0  0  0  0  0
  151.8237  143.1077  158.5816 C   0  0  0  0  0  0  0  0  0  0  0  0
  152.3427  142.7343  159.8407 C   0  0  0  0  0  0  0  0  0  0  0  0
  152.3786  143.6907  160.8733 C   0  0  0  0  0  0  0  0  0  0  0  0
  151.8898  144.9845  160.6057 C   0  0  0  0  0  0  0  0  0  0  0  0
  151.3831  145.3543  159.4100 N   0  0  0  0  0  0  0  0  0  0  0  0
  151.3542  144.4312  158.4245 C   0  0  0  0  0  0  0  0  0  0  0  0
  150.5950  136.9466  155.0222 C   0  0  0  0  0  0  0  0  0  0  0  0
  150.0918  135.6333  155.6484 C   0  0  1  0  0  0  0  0  0  0  0  0
  151.2290  134.7368  156.1711 C   0  0  0  0  0  0  0  0  0  0  0  0
  149.1093  135.9007  156.6464 O   0  0  0  0  0  0  0  0  0  0  0  0
  148.6631  137.5994  159.4962 H   0  0  0  0  0  0  0  0  0  0  0  0
  148.0757  135.9899  159.0899 H   0  0  0  0  0  0  0  0  0  0  0  0
  147.5138  137.3874  158.1763 H   0  0  0  0  0  0  0  0  0  0  0  0
  150.3697  136.3052  158.2291 H   0  0  0  0  0  0  0  0  0  0  0  0
  149.1730  138.6569  156.6652 H   0  0  0  0  0  0  0  0  0  0  0  0
  150.4199  138.7321  157.8963 H   0  0  0  0  0  0  0  0  0  0  0  0
  150.6039  140.3287  157.8535 H   0  0  0  0  0  0  0  0  0  0  0  0
  151.9645  140.5547  158.9124 H   0  0  0  0  0  0  0  0  0  0  0  0
  152.6485  142.2335  156.8214 H   0  0  0  0  0  0  0  0  0  0  0  0
  150.9150  142.3635  156.7843 H   0  0  0  0  0  0  0  0  0  0  0  0
  152.7116  141.7332  160.0102 H   0  0  0  0  0  0  0  0  0  0  0  0
  152.7743  143.4384  161.8459 H   0  0  0  0  0  0  0  0  0  0  0  0
  151.9035  145.7429  161.3743 H   0  0  0  0  0  0  0  0  0  0  0  0
  150.9441  144.7591  157.4806 H   0  0  0  0  0  0  0  0  0  0  0  0
  149.7968  137.4085  154.4400 H   0  0  0  0  0  0  0  0  0  0  0  0
  151.4054  136.7386  154.3241 H   0  0  0  0  0  0  0  0  0  0  0  0
  149.5811  135.0695  154.8674 H   0  0  0  0  0  0  0  0  0  0  0  0
  151.8840  134.4312  155.3549 H   0  0  0  0  0  0  0  0  0  0  0  0
  150.8327  133.8326  156.6330 H   0  0  0  0  0  0  0  0  0  0  0  0
  151.8516  135.2462  156.9063 H   0  0  0  0  0  0  0  0  0  0  0  0
  1  2  1  0  0  0  0
  1 21  1  0  0  0  0
  1 22  1  0  0  0  0
  1 23  1  0  0  0  0
  2 20  1  0  0  0  0
  2  3  1  0  0  0  0
  2 24  1  0  0  0  0
  3  4  1  0  0  0  0
  3 25  1  0  0  0  0
  3 26  1  0  0  0  0
  4  5  1  0  0  0  0
  4 17  1  0  0  0  0
  5  6  2  0  0  0  0
  5  7  2  0  0  0  0
  5  8  1  0  0  0  0
  8  9  1  0  0  0  0
  9 10  1  0  0  0  0
  9 27  1  0  0  0  0
  9 28  1  0  0  0  0
 10 11  1  0  0  0  0
 10 29  1  0  0  0  0
 10 30  1  0  0  0  0
 11 16  1  0  0  0  0
 11 12  2  0  0  0  0
 12 13  1  0  0  0  0
 12 31  1  0  0  0  0
 13 14  2  0  0  0  0
 13 32  1  0  0  0  0
 14 15  1  0  0  0  0
 14 33  1  0  0  0  0
 15 16  2  0  0  0  0
 16 34  1  0  0  0  0
 17 18  1  0  0  0  0
 17 35  1  0  0  0  0
 17 36  1  0  0  0  0
 18 19  1  0  0  0  0
 18 20  1  0  0  0  0
 18 37  1  0  0  0  0
 19 38  1  0  0  0  0
 19 39  1  0  0  0  0
 19 40  1  0  0  0  0
M  CHG  1   8  -1
M  END
> <s_m_source_file>
AV-unprocessed.smi

> <i_m_source_file_index>
1165

> <i_lp_mmshare_version>
43012

> <i_f3d_flags>
0

> <s_epik_input>
W0NIM11bQ0BASF0xW0NIMl1OKFtDSDJdW0NASF0oTzEpW0NIM10pUyg9TykoPU8pW05IXVtDSDJdW0NIMl1jMltjSF1bY0hdW2NIXW5bY0hdMg==

> <s_epik_cmdline>
J2VwaWtfcHl0aG9uJywgJy1waCcsICc3LjAnLCAnLXRuJywgJzgnLCAnLW1hJywgJzIwMCcsICctbWV0YWxfYmluZGluZycsICctaW1hZScsICc8aW5maWxlLm1hZT4nLCAnLW9tYWUnLCAnPG91dGZpbGUubWFlPic=

> <r_epik_Ionization_Penalty>
1.23471

> <r_epik_Ionization_Penalty_Charging>
1.20871

> <r_epik_Ionization_Penalty_Neutral>
0.025996

> <r_epik_State_Penalty>
1.46261

> <r_epik_Charging_Adjusted_Penalty>
2.67132

> <i_epik_Tot_Q>
-1

> <i_epik_Tot_abs_Q>
1

> <r_epik_Metal_State_Penalty>
0.521406

> <b_epik_Metal_Only>
0

> <s_lp_Force_Field>
OPLS_2005

> <r_lp_Energy>
7.90597

> <b_lp_Chiralities_Consistent>
1

> <s_lp_Variant>
AV-unprocessed.smi:1165-4

> <Gold.Version>
5.8.1

> <Gold.Id.Protein>
6NUR|6NUR_protein|mol2

> <Gold.PLP.Fitness>
46.0812

> <Gold.PLP.PLP>
-35.6693

> <Gold.PLP.part.hbond>
-3.1565

> <Gold.PLP.part.metal>
0.0000

> <Gold.PLP.part.buried>
-6.8843

> <Gold.PLP.part.nonpolar>
-25.2011

> <Gold.PLP.part.repulsive>
0.2255

> <Gold.PLP.ligand.clash>
0.0000

> <Gold.PLP.ligand.torsion>
1.5868

> <Gold.PLP.Chemscore.Hbond>
3.0000

> <Gold.PLP.Chemscore.CHOScore>
1.0000

> <Gold.PLP.Chemscore.Metal>
0.0000

> <Gold.Chemscore.Hbonds>
donor molecule, donor type, donor heavy atom, donor atom, acceptor molecule, acceptor atom, score
      P1  H  7989  7998       L1     7  1.00
      P1  H  7997  8008       L1     8  2.00
      L1  C    16    34       P1  8028  0.56

> <Gold.PLP.Chemscore.Internal.Correction>
1.5856

> <Gold.Rescore>
     Score         DG    S(hbond)    S(metal)    S(lipo)     H(rot)  DE(clash)    DE(int)     intcor
     15.78     -18.25       1.67        0.00      93.60       1.47       0.29       2.18       ----

> <Gold.Chemscore.Fitness>
15.7814

> <Gold.Chemscore.DG>
-18.2452

> <Gold.Chemscore.ZeroCoef>
-5.4800

> <Gold.Chemscore.Hbond>
1.6723

> <Gold.Chemscore.Metal>
0.0000

> <Gold.Chemscore.Lipo>
93.5975

> <Gold.Chemscore.Internal_Hbond>
0.0000

> <Gold.Chemscore.DEClash>
0.2859

> <Gold.Chemscore.DEInternal>
2.1778

> <Gold.Chemscore.Rot>
1.4731

> <Gold.Chemscore.Internal.Correction>
   9.000000E+99

> <Gold.Chemscore.Hbonds>
donor molecule, donor type, donor heavy atom, donor atom, acceptor molecule, acceptor atom, score
      P1  H  7989  7998       L1     7  0.85
      P1  H  7997  8008       L1     8  0.39

> <Gold.Chemscore.Hbond.Weighted>
-5.5854

> <Gold.Chemscore.Metal.Weighted>
-0.0000

> <Gold.Chemscore.Lipo.Weighted>
-10.9509

> <Gold.Chemscore.Internal_Hbond.Weighted>
0.0000

> <Gold.Chemscore.DEClash.Weighted>
0.2859

> <Gold.Chemscore.DEInternal.Weighted>
2.1778

> <Gold.Chemscore.Rot.Weighted>
3.7712

> <Gold.Chemscore.Internal.Correction.Weighted>
   9.000000E+99

> <Gold.Protein.RotatedTorsions>
[ 6907 6896 6895 6894 ] final -127.59 input  -60.11 | X-H torsion
[ 7974 7965 7964 7962 ] final  -10.94 input  175.53 | X-H torsion
[ 8008 7997 7996 7995 ] final  -66.20 input   59.86 | X-H torsion
[ 10167 10162 10161 10158 ] final  -88.05 input  -65.29 | X-H torsion
[ 10718 10713 10712 10709 ] final  -12.35 input   66.30 | X-H torsion
[ 10763 10752 10751 10750 ] final   86.28 input  -60.55 | X-H torsion
[ 11005 11000 10999 10996 ] final   37.82 input  -57.11 | X-H torsion

> <Gold.Protein.ActiveResidues>
 VAL166  LYS551  ARG553  GLY616  TRP617  ASP618  TYR619  PRO620  LYS621  CYS622 
 ASP623  PHE694  ASN695  SER759  ASP760  ASP761  ALA762  ILE779  LEU786  VAL792 
 PHE793  MET794  SER795  GLU796  ALA797  LYS798  CYS799  TRP800  GLU811  SER814 

> <Gold.Protein.RotatedAtoms>
  150.9089  133.7023  159.2859 H   0  0  0  0  0  0  0  0  0  0  0  0  # atno 6907 bound_to 6896
  151.4516  135.1029  159.9709 H   0  0  0  0  0  0  0  0  0  0  0  0  # atno 6908 bound_to 6896
  152.4919  133.8473  159.7239 H   0  0  0  0  0  0  0  0  0  0  0  0  # atno 6909 bound_to 6896
  146.2204  140.2838  142.8364 H   0  0  0  0  0  0  0  0  0  0  0  0  # atno 7974 bound_to 7965
  154.4720  140.0917  156.7167 H   0  0  0  0  0  0  0  0  0  0  0  0  # atno 8008 bound_to 7997
  155.4699  140.3464  155.4306 H   0  0  0  0  0  0  0  0  0  0  0  0  # atno 8009 bound_to 7997
  156.1054  140.1433  156.9400 H   0  0  0  0  0  0  0  0  0  0  0  0  # atno 8010 bound_to 7997
  140.3785  143.2760  151.9413 H   0  0  0  0  0  0  0  0  0  0  0  0  # atno 10167 bound_to 10162
  156.6459  130.4941  149.6078 H   0  0  0  0  0  0  0  0  0  0  0  0  # atno 10718 bound_to 10713
  153.1555  135.4586  154.9698 H   0  0  0  0  0  0  0  0  0  0  0  0  # atno 10763 bound_to 10752
  154.7858  135.3203  154.7892 H   0  0  0  0  0  0  0  0  0  0  0  0  # atno 10764 bound_to 10752
  153.8390  135.6932  153.4859 H   0  0  0  0  0  0  0  0  0  0  0  0  # atno 10765 bound_to 10752
  140.2187  134.3666  155.8015 H   0  0  0  0  0  0  0  0  0  0  0  0  # atno 11005 bound_to 11000
  144.9177  140.7832  143.5767 LP  0  0  0  0  0  0  0  0  0  0  0  0  # atno 17320 bound_to 7965
  145.2772  139.1932  143.4810 LP  0  0  0  0  0  0  0  0  0  0  0  0  # atno 17321 bound_to 7965
  139.4797  144.5841  151.7884 LP  0  0  0  0  0  0  0  0  0  0  0  0  # atno 17342 bound_to 10162
  140.4961  144.1238  150.5960 LP  0  0  0  0  0  0  0  0  0  0  0  0  # atno 17343 bound_to 10162
  156.2122  130.6686  151.1281 LP  0  0  0  0  0  0  0  0  0  0  0  0  # atno 17370 bound_to 10713
  157.7156  131.0711  150.6338 LP  0  0  0  0  0  0  0  0  0  0  0  0  # atno 17371 bound_to 10713
  141.2224  133.7182  156.8540 LP  0  0  0  0  0  0  0  0  0  0  0  0  # atno 17394 bound_to 11000
  140.1872  134.8991  157.3018 LP  0  0  0  0  0  0  0  0  0  0  0  0  # atno 17395 bound_to 11000

$$$$
