AV-unprocessed.smi:160|AV-procd|sdf|1360|dock2
  -GOLD-   2262019 73D 1   1.00000     0.00000
 Structure written by MMmdl.
 28 29  0  0  0  0  0  0  0  0  2 V2000
  150.6717  136.7484  158.7675 N   0  5  0  0  0  0  0  0  0  0  0  0
  151.6886  137.6142  158.5664 C   0  0  0  0  0  0  0  0  0  0  0  0
  152.6998  137.7223  159.2593 O   0  0  0  0  0  0  0  0  0  0  0  0
  151.5192  138.5127  157.3643 C   0  0  0  0  0  0  0  0  0  0  0  0
  152.5316  139.3427  156.9673 N   0  0  0  0  0  0  0  0  0  0  0  0
  151.9449  139.9083  155.9213 C   0  0  0  0  0  0  0  0  0  0  0  0
  150.6991  139.4828  155.6942 N   0  0  0  0  0  0  0  0  0  0  0  0
  149.7317  139.8856  154.6214 C   0  0  1  0  0  0  0  0  0  0  0  0
  148.5507  139.1599  154.7954 O   0  0  0  0  0  0  0  0  0  0  0  0
  147.5514  139.9954  155.3710 C   0  0  2  0  0  0  0  0  0  0  0  0
  146.1572  139.4251  155.0681 C   0  0  0  0  0  0  0  0  0  0  0  0
  145.9813  139.2832  153.6748 O   0  0  0  0  0  0  0  0  0  0  0  0
  147.8336  141.3264  154.6716 C   0  0  1  0  0  0  0  0  0  0  0  0
  147.2281  142.4306  155.3183 O   0  0  0  0  0  0  0  0  0  0  0  0
  149.3601  141.3881  154.6520 C   0  0  1  0  0  0  0  0  0  0  0  0
  149.8935  142.1037  155.7562 O   0  0  0  0  0  0  0  0  0  0  0  0
  150.3995  138.5528  156.6353 N   0  0  0  0  0  0  0  0  0  0  0  0
  150.2163  139.5812  153.6930 H   0  0  0  0  0  0  0  0  0  0  0  0
  147.7143  140.0969  156.4460 H   0  0  0  0  0  0  0  0  0  0  0  0
  147.4693  141.2784  153.6441 H   0  0  0  0  0  0  0  0  0  0  0  0
  149.7172  141.8635  153.7381 H   0  0  0  0  0  0  0  0  0  0  0  0
  149.7822  137.1149  159.1275 H   0  0  0  0  0  0  0  0  0  0  0  0
  152.4331  140.6522  155.3093 H   0  0  0  0  0  0  0  0  0  0  0  0
  146.0529  138.4346  155.5118 H   0  0  0  0  0  0  0  0  0  0  0  0
  145.3710  140.0527  155.4885 H   0  0  0  0  0  0  0  0  0  0  0  0
  145.1252  139.6093  153.4445 H   0  0  0  0  0  0  0  0  0  0  0  0
  147.7308  143.2058  155.1211 H   0  0  0  0  0  0  0  0  0  0  0  0
  149.5910  142.9976  155.7132 H   0  0  0  0  0  0  0  0  0  0  0  0
  1  2  1  0  0  0  0
  1 22  1  0  0  0  0
  2  3  2  0  0  0  0
  2  4  1  0  0  0  0
  4 17  2  0  0  0  0
  4  5  1  0  0  0  0
  5  6  2  0  0  0  0
  6  7  1  0  0  0  0
  6 23  1  0  0  0  0
  7  8  1  0  0  0  0
  7 17  1  0  0  0  0
  8 18  1  0  0  0  0
  8 15  1  0  0  0  0
  8  9  1  0  0  0  0
  9 10  1  0  0  0  0
 10 19  1  0  0  0  0
 10 11  1  0  0  0  0
 10 13  1  0  0  0  0
 11 12  1  0  0  0  0
 11 24  1  0  0  0  0
 11 25  1  0  0  0  0
 12 26  1  0  0  0  0
 13 20  1  0  0  0  0
 13 14  1  0  0  0  0
 13 15  1  0  0  0  0
 14 27  1  0  0  0  0
 15 21  1  0  0  0  0
 15 16  1  0  0  0  0
 16 28  1  0  0  0  0
M  CHG  1   1  -1
M  END
> <s_m_source_file>
AV-unprocessed.smi

> <i_m_source_file_index>
160

> <i_lp_mmshare_version>
43012

> <i_f3d_flags>
0

> <s_epik_input>
W05IMl1DKD1PKWMxbltjSF1uKG4xKVtDQEBIXTJPW0NASF0oW0NIMl1bT0hdKVtDQEBIXShbT0hdKVtDQEhdMltPSF0=

> <s_epik_cmdline>
J2VwaWtfcHl0aG9uJywgJy1waCcsICc3LjAnLCAnLXRuJywgJzgnLCAnLW1hJywgJzIwMCcsICctbWV0YWxfYmluZGluZycsICctaW1hZScsICc8aW5maWxlLm1hZT4nLCAnLW9tYWUnLCAnPG91dGZpbGUubWFlPic=

> <r_lp_tautomer_probability>
1

> <r_epik_Ionization_Penalty>
6.6993

> <r_epik_Ionization_Penalty_Charging>
6.6993

> <r_epik_Ionization_Penalty_Neutral>
6.01698e-06

> <r_epik_State_Penalty>
6.69929

> <r_epik_Charging_Adjusted_Penalty>
13.3986

> <i_epik_Tot_Q>
-1

> <i_epik_Tot_abs_Q>
1

> <r_epik_Metal_State_Penalty>
2.62798

> <b_epik_Metal_Only>
1

> <s_epik_Chemistry_Notes>
This compound contains an acetal/aminal-like group ( X-CH(R)-Y where X, Y are N, S, or O) that may be acid/base labile, releasing an aldehyde.

> <s_lp_Force_Field>
OPLS_2005

> <r_lp_Energy>
50.1609

> <b_lp_Chiralities_Consistent>
1

> <s_lp_Variant>
AV-unprocessed.smi:160-18

> <Gold.Version>
5.8.1

> <Gold.Id.Protein>
6NUR|6NUR_protein|mol2

> <Gold.PLP.Fitness>
39.1403

> <Gold.PLP.PLP>
-21.1796

> <Gold.PLP.part.hbond>
-5.0000

> <Gold.PLP.part.metal>
0.0000

> <Gold.PLP.part.buried>
-4.0328

> <Gold.PLP.part.nonpolar>
-13.9181

> <Gold.PLP.part.repulsive>
0.1034

> <Gold.PLP.ligand.clash>
0.0000

> <Gold.PLP.ligand.torsion>
0.0278

> <Gold.PLP.Chemscore.Hbond>
6.0000

> <Gold.PLP.Chemscore.CHOScore>
0.0000

> <Gold.PLP.Chemscore.Metal>
0.0000

> <Gold.Chemscore.Hbonds>
donor molecule, donor type, donor heavy atom, donor atom, acceptor molecule, acceptor atom, score
      L1  H    12    26       P1 10175  1.00
      L1  H    14    27       P1  8028  1.00
      L1  H    16    28       P1  8028  1.00
      P1  H  6896  6909       L1     1  1.98
      P1  H  7997  8009       L1     5  1.00

> <Gold.PLP.Chemscore.Internal.Correction>
0.0162

> <Gold.Rescore>
     Score         DG    S(hbond)    S(metal)    S(lipo)     H(rot)  DE(clash)    DE(int)     intcor
      9.12     -10.05       3.82        0.00      18.45       4.04       0.04       0.90       ----

> <Gold.Chemscore.Fitness>
9.1158

> <Gold.Chemscore.DG>
-10.0513

> <Gold.Chemscore.ZeroCoef>
-5.4800

> <Gold.Chemscore.Hbond>
3.8190

> <Gold.Chemscore.Metal>
0.0000

> <Gold.Chemscore.Lipo>
18.4533

> <Gold.Chemscore.Internal_Hbond>
0.0000

> <Gold.Chemscore.DEClash>
0.0354

> <Gold.Chemscore.DEInternal>
0.9001

> <Gold.Chemscore.Rot>
4.0403

> <Gold.Chemscore.Internal.Correction>
   9.000000E+99

> <Gold.Chemscore.Hbonds>
donor molecule, donor type, donor heavy atom, donor atom, acceptor molecule, acceptor atom, score
      L1  H    12    26       P1 10175  0.99
      L1  H    14    27       P1  8028  0.53
      L1  H    16    28       P1  8028  1.00
      P1  H  6896  6909       L1     1  0.51
      P1  H  7997  8009       L1     5  0.24

> <Gold.Chemscore.Hbond.Weighted>
-12.7553

> <Gold.Chemscore.Metal.Weighted>
-0.0000

> <Gold.Chemscore.Lipo.Weighted>
-2.1590

> <Gold.Chemscore.Internal_Hbond.Weighted>
0.0000

> <Gold.Chemscore.DEClash.Weighted>
0.0354

> <Gold.Chemscore.DEInternal.Weighted>
0.9001

> <Gold.Chemscore.Rot.Weighted>
10.3431

> <Gold.Chemscore.Internal.Correction.Weighted>
   9.000000E+99

> <Gold.Protein.RotatedTorsions>
[ 6907 6896 6895 6894 ] final   89.21 input  -60.11 | X-H torsion
[ 7974 7965 7964 7962 ] final  -75.51 input  175.53 | X-H torsion
[ 8008 7997 7996 7995 ] final  172.87 input   59.86 | X-H torsion
[ 10167 10162 10161 10158 ] final  158.16 input  -65.29 | X-H torsion
[ 10718 10713 10712 10709 ] final   78.32 input   66.30 | X-H torsion
[ 10763 10752 10751 10750 ] final    0.73 input  -60.55 | X-H torsion
[ 11005 11000 10999 10996 ] final  104.39 input  -57.11 | X-H torsion

> <Gold.Protein.ActiveResidues>
 VAL166  LYS551  ARG553  GLY616  TRP617  ASP618  TYR619  PRO620  LYS621  CYS622 
 ASP623  PHE694  ASN695  SER759  ASP760  ASP761  ALA762  ILE779  LEU786  VAL792 
 PHE793  MET794  SER795  GLU796  ALA797  LYS798  CYS799  TRP800  GLU811  SER814 

> <Gold.Protein.RotatedAtoms>
  152.5434  134.2002  159.8708 H   0  0  0  0  0  0  0  0  0  0  0  0  # atno 6907 bound_to 6896
  151.1991  133.4614  159.2603 H   0  0  0  0  0  0  0  0  0  0  0  0  # atno 6908 bound_to 6896
  151.1007  134.9983  159.8503 H   0  0  0  0  0  0  0  0  0  0  0  0  # atno 6909 bound_to 6896
  145.6251  140.9353  143.1117 H   0  0  0  0  0  0  0  0  0  0  0  0  # atno 7974 bound_to 7965
  156.1132  140.1475  156.9309 H   0  0  0  0  0  0  0  0  0  0  0  0  # atno 8008 bound_to 7997
  154.4782  140.0888  156.7356 H   0  0  0  0  0  0  0  0  0  0  0  0  # atno 8009 bound_to 7997
  155.4560  140.3436  155.4309 H   0  0  0  0  0  0  0  0  0  0  0  0  # atno 8010 bound_to 7997
  139.4825  144.4850  151.8390 H   0  0  0  0  0  0  0  0  0  0  0  0  # atno 10167 bound_to 10162
  157.6741  130.9862  150.1769 H   0  0  0  0  0  0  0  0  0  0  0  0  # atno 10718 bound_to 10713
  153.3170  135.6966  153.7065 H   0  0  0  0  0  0  0  0  0  0  0  0  # atno 10763 bound_to 10752
  153.5920  135.3478  155.2915 H   0  0  0  0  0  0  0  0  0  0  0  0  # atno 10764 bound_to 10752
  154.8589  135.4320  154.2323 H   0  0  0  0  0  0  0  0  0  0  0  0  # atno 10765 bound_to 10752
  139.8791  134.9298  156.5354 H   0  0  0  0  0  0  0  0  0  0  0  0  # atno 11005 bound_to 11000
  144.7216  139.8012  143.7380 LP  0  0  0  0  0  0  0  0  0  0  0  0  # atno 17320 bound_to 7965
  146.1401  139.4456  143.0114 LP  0  0  0  0  0  0  0  0  0  0  0  0  # atno 17321 bound_to 7965
  140.4329  144.2091  150.5888 LP  0  0  0  0  0  0  0  0  0  0  0  0  # atno 17342 bound_to 10162
  140.4761  143.2395  151.9021 LP  0  0  0  0  0  0  0  0  0  0  0  0  # atno 17343 bound_to 10162
  156.2510  130.3700  149.8232 LP  0  0  0  0  0  0  0  0  0  0  0  0  # atno 17370 bound_to 10713
  156.6005  130.8544  151.3430 LP  0  0  0  0  0  0  0  0  0  0  0  0  # atno 17371 bound_to 10713
  140.8349  133.8250  155.9020 LP  0  0  0  0  0  0  0  0  0  0  0  0  # atno 17394 bound_to 11000
  140.9293  134.2043  157.4875 LP  0  0  0  0  0  0  0  0  0  0  0  0  # atno 17395 bound_to 11000

$$$$
