AV-unprocessed.smi:2413|AV-procd|sdf|9536|dock3
  -GOLD-   2272013173D 1   1.00000     0.00000
 Structure written by MMmdl.
 46 47  0  0  0  0  0  0  0  0  2 V2000
  146.3913  135.1459  162.1195 C   0  0  0  0  0  0  0  0  0  0  0  0
  146.9777  136.0611  161.0506 C   0  0  0  0  0  0  0  0  0  0  0  0
  146.8021  137.2773  161.1165 O   0  0  0  0  0  0  0  0  0  0  0  0
  147.6822  135.4629  160.0774 N   0  0  0  0  0  0  0  0  0  0  0  0
  148.3236  136.1418  158.9544 C   0  0  0  0  0  0  0  0  0  0  0  0
  149.2966  137.2441  159.4123 C   0  0  2  0  0  0  0  0  0  0  0  0
  149.3967  138.4156  158.4145 C   0  0  0  0  0  0  0  0  0  0  0  0
  150.4295  139.3693  158.8177 N   0  0  0  0  0  0  0  0  0  0  0  0
  150.4666  140.6109  158.1437 C   0  0  0  0  0  0  0  0  0  0  0  0
  150.0512  140.7377  156.8021 C   0  0  0  0  0  0  0  0  0  0  0  0
  150.1154  142.0195  156.2269 C   0  0  0  0  0  0  0  0  0  0  0  0
  150.5756  143.0725  156.9434 N   0  3  0  0  0  0  0  0  0  0  0  0
  151.0115  142.8910  158.2015 C   0  0  0  0  0  0  0  0  0  0  0  0
  151.4230  144.1083  159.0420 C   0  0  0  0  0  0  0  0  0  0  0  0
  150.2489  145.1063  159.1795 C   0  0  0  0  0  0  0  0  0  0  0  0
  152.6217  144.8092  158.3775 C   0  0  0  0  0  0  0  0  0  0  0  0
  151.8011  143.6799  160.4781 C   0  0  0  0  0  0  0  0  0  0  0  0
  150.9212  141.6984  158.8079 N   0  0  0  0  0  0  0  0  0  0  0  0
  151.7195  138.7438  159.0981 C   0  0  0  0  0  0  0  0  0  0  0  0
  151.5445  137.5672  160.0724 C   0  0  0  0  0  0  0  0  0  0  0  0
  150.5846  136.6524  159.5553 O   0  0  0  0  0  0  0  0  0  0  0  0
  145.8458  134.3202  161.6616 H   0  0  0  0  0  0  0  0  0  0  0  0
  145.7022  135.6938  162.7629 H   0  0  0  0  0  0  0  0  0  0  0  0
  147.1855  134.7335  162.7421 H   0  0  0  0  0  0  0  0  0  0  0  0
  147.7745  134.4578  160.1115 H   0  0  0  0  0  0  0  0  0  0  0  0
  148.8725  135.3890  158.3882 H   0  0  0  0  0  0  0  0  0  0  0  0
  147.5787  136.5512  158.2693 H   0  0  0  0  0  0  0  0  0  0  0  0
  148.9706  137.6173  160.3853 H   0  0  0  0  0  0  0  0  0  0  0  0
  149.6243  138.0402  157.4157 H   0  0  0  0  0  0  0  0  0  0  0  0
  148.4325  138.9221  158.3625 H   0  0  0  0  0  0  0  0  0  0  0  0
  149.7005  139.8983  156.2210 H   0  0  0  0  0  0  0  0  0  0  0  0
  149.8093  142.2384  155.2144 H   0  0  0  0  0  0  0  0  0  0  0  0
  150.5187  145.9515  159.8137 H   0  0  0  0  0  0  0  0  0  0  0  0
  149.3724  144.6318  159.6226 H   0  0  0  0  0  0  0  0  0  0  0  0
  149.9481  145.5203  158.2159 H   0  0  0  0  0  0  0  0  0  0  0  0
  152.3738  145.1490  157.3710 H   0  0  0  0  0  0  0  0  0  0  0  0
  153.4785  144.1393  158.2963 H   0  0  0  0  0  0  0  0  0  0  0  0
  152.9394  145.6818  158.9492 H   0  0  0  0  0  0  0  0  0  0  0  0
  152.0556  144.5428  161.0946 H   0  0  0  0  0  0  0  0  0  0  0  0
  152.6666  143.0167  160.4925 H   0  0  0  0  0  0  0  0  0  0  0  0
  150.9769  143.1603  160.9686 H   0  0  0  0  0  0  0  0  0  0  0  0
  152.1509  138.3905  158.1606 H   0  0  0  0  0  0  0  0  0  0  0  0
  152.4279  139.4491  159.5290 H   0  0  0  0  0  0  0  0  0  0  0  0
  152.4930  137.0468  160.2049 H   0  0  0  0  0  0  0  0  0  0  0  0
  151.2353  137.9197  161.0578 H   0  0  0  0  0  0  0  0  0  0  0  0
  150.5994  143.9989  156.5168 H   0  0  0  0  0  0  0  0  0  0  0  0
  1  2  1  0  0  0  0
  1 22  1  0  0  0  0
  1 23  1  0  0  0  0
  1 24  1  0  0  0  0
  2  3  2  0  0  0  0
  2  4  1  0  0  0  0
  4  5  1  0  0  0  0
  4 25  1  0  0  0  0
  5  6  1  0  0  0  0
  5 26  1  0  0  0  0
  5 27  1  0  0  0  0
  6 21  1  0  0  0  0
  6  7  1  0  0  0  0
  6 28  1  0  0  0  0
  7  8  1  0  0  0  0
  7 29  1  0  0  0  0
  7 30  1  0  0  0  0
  8  9  1  0  0  0  0
  8 19  1  0  0  0  0
  9 18  1  0  0  0  0
  9 10  2  0  0  0  0
 10 11  1  0  0  0  0
 10 31  1  0  0  0  0
 11 12  2  0  0  0  0
 11 32  1  0  0  0  0
 12 13  1  0  0  0  0
 12 46  1  0  0  0  0
 13 14  1  0  0  0  0
 13 18  2  0  0  0  0
 14 15  1  0  0  0  0
 14 16  1  0  0  0  0
 14 17  1  0  0  0  0
 15 33  1  0  0  0  0
 15 34  1  0  0  0  0
 15 35  1  0  0  0  0
 16 36  1  0  0  0  0
 16 37  1  0  0  0  0
 16 38  1  0  0  0  0
 17 39  1  0  0  0  0
 17 40  1  0  0  0  0
 17 41  1  0  0  0  0
 19 20  1  0  0  0  0
 19 42  1  0  0  0  0
 19 43  1  0  0  0  0
 20 21  1  0  0  0  0
 20 44  1  0  0  0  0
 20 45  1  0  0  0  0
M  CHG  1  12   1
M  END
> <s_m_source_file>
AV-unprocessed.smi

> <i_m_source_file_index>
2413

> <i_lp_mmshare_version>
43012

> <i_f3d_flags>
0

> <s_epik_input>
W0NIM11DKD1PKVtOSF1bQ0gyXVtDQEBIXTFbQ0gyXU4oW0NIMl1bQ0gyXU8xKWMyW2NIXVtjSF1uYyhuMilDKFtDSDNdKShbQ0gzXSlbQ0gzXQ==

> <s_epik_cmdline>
J2VwaWtfcHl0aG9uJywgJy1waCcsICc3LjAnLCAnLXRuJywgJzgnLCAnLW1hJywgJzIwMCcsICctbWV0YWxfYmluZGluZycsICctaW1hZScsICc8aW5maWxlLm1hZT4nLCAnLW9tYWUnLCAnPG91dGZpbGUubWFlPic=

> <r_lp_tautomer_probability>
0.999336

> <r_epik_Ionization_Penalty>
2.26127

> <r_epik_Ionization_Penalty_Charging>
2.26127

> <r_epik_Ionization_Penalty_Neutral>
4.08984e-07

> <r_epik_State_Penalty>
2.40914

> <r_epik_Charging_Adjusted_Penalty>
4.67041

> <i_epik_Tot_Q>
1

> <i_epik_Tot_abs_Q>
1

> <r_epik_Metal_State_Penalty>
2.42208

> <b_epik_Metal_Only>
0

> <s_lp_Force_Field>
OPLS_2005

> <r_lp_Energy>
13.7164

> <b_lp_Chiralities_Consistent>
1

> <s_lp_Variant>
AV-unprocessed.smi:2413-3

> <Gold.Version>
5.8.1

> <Gold.Id.Protein>
6NUR|6NUR_protein|mol2

> <Gold.PLP.Fitness>
50.6009

> <Gold.PLP.PLP>
-40.7251

> <Gold.PLP.part.hbond>
-4.0000

> <Gold.PLP.part.metal>
0.0000

> <Gold.PLP.part.buried>
-3.8439

> <Gold.PLP.part.nonpolar>
-33.5425

> <Gold.PLP.part.repulsive>
0.1515

> <Gold.PLP.ligand.clash>
0.0000

> <Gold.PLP.ligand.torsion>
0.9606

> <Gold.PLP.Chemscore.Hbond>
3.7680

> <Gold.PLP.Chemscore.CHOScore>
0.0000

> <Gold.PLP.Chemscore.Metal>
0.0000

> <Gold.Chemscore.Hbonds>
donor molecule, donor type, donor heavy atom, donor atom, acceptor molecule, acceptor atom, score
      L1  H    12    46       P1  8028  0.80
      P1  H  6896  6907       L1    21  1.00
      P1  H  6934  6947       L1     3  1.00

> <Gold.PLP.Chemscore.Internal.Correction>
0.4929

> <Gold.Rescore>
     Score         DG    S(hbond)    S(metal)    S(lipo)     H(rot)  DE(clash)    DE(int)     intcor
     19.94     -21.96       3.12        0.00      90.51       1.77       0.04       1.98       ----

> <Gold.Chemscore.Fitness>
19.9414

> <Gold.Chemscore.DG>
-21.9601

> <Gold.Chemscore.ZeroCoef>
-5.4800

> <Gold.Chemscore.Hbond>
3.1218

> <Gold.Chemscore.Metal>
0.0000

> <Gold.Chemscore.Lipo>
90.5059

> <Gold.Chemscore.Internal_Hbond>
0.0000

> <Gold.Chemscore.DEClash>
0.0381

> <Gold.Chemscore.DEInternal>
1.9806

> <Gold.Chemscore.Rot>
1.7719

> <Gold.Chemscore.Internal.Correction>
   9.000000E+99

> <Gold.Chemscore.Hbonds>
donor molecule, donor type, donor heavy atom, donor atom, acceptor molecule, acceptor atom, score
      L1  H    12    46       P1  8028  0.37
      P1  H  6896  6907       L1    21  0.85
      P1  H  6934  6947       L1     3  1.00

> <Gold.Chemscore.Hbond.Weighted>
-10.4270

> <Gold.Chemscore.Metal.Weighted>
-0.0000

> <Gold.Chemscore.Lipo.Weighted>
-10.5892

> <Gold.Chemscore.Internal_Hbond.Weighted>
0.0000

> <Gold.Chemscore.DEClash.Weighted>
0.0381

> <Gold.Chemscore.DEInternal.Weighted>
1.9806

> <Gold.Chemscore.Rot.Weighted>
4.5361

> <Gold.Chemscore.Internal.Correction.Weighted>
   9.000000E+99

> <Gold.Protein.RotatedTorsions>
[ 6907 6896 6895 6894 ] final  -36.08 input  -60.11 | X-H torsion
[ 7974 7965 7964 7962 ] final   96.22 input  175.53 | X-H torsion
[ 8008 7997 7996 7995 ] final  -49.65 input   59.86 | X-H torsion
[ 10167 10162 10161 10158 ] final  172.39 input  -65.29 | X-H torsion
[ 10718 10713 10712 10709 ] final  171.05 input   66.30 | X-H torsion
[ 10763 10752 10751 10750 ] final  -87.08 input  -60.55 | X-H torsion
[ 11005 11000 10999 10996 ] final -147.80 input  -57.11 | X-H torsion

> <Gold.Protein.ActiveResidues>
 VAL166  LYS551  ARG553  GLY616  TRP617  ASP618  TYR619  PRO620  LYS621  CYS622 
 ASP623  PHE694  ASN695  SER759  ASP760  ASP761  ALA762  ILE779  LEU786  VAL792 
 PHE793  MET794  SER795  GLU796  ALA797  LYS798  CYS799  TRP800  GLU811  SER814 

> <Gold.Protein.RotatedAtoms>
  151.0317  134.9544  159.8114 H   0  0  0  0  0  0  0  0  0  0  0  0  # atno 6907 bound_to 6896
  152.5347  134.2771  159.9003 H   0  0  0  0  0  0  0  0  0  0  0  0  # atno 6908 bound_to 6896
  151.2781  133.4180  159.2659 H   0  0  0  0  0  0  0  0  0  0  0  0  # atno 6909 bound_to 6896
  145.4418  139.2300  143.3088 H   0  0  0  0  0  0  0  0  0  0  0  0  # atno 7974 bound_to 7965
  154.4048  140.1291  156.4538 H   0  0  0  0  0  0  0  0  0  0  0  0  # atno 8008 bound_to 7997
  155.7340  140.3491  155.5053 H   0  0  0  0  0  0  0  0  0  0  0  0  # atno 8009 bound_to 7997
  155.9100  140.1034  157.1276 H   0  0  0  0  0  0  0  0  0  0  0  0  # atno 8010 bound_to 7997
  139.5075  144.3379  152.0047 H   0  0  0  0  0  0  0  0  0  0  0  0  # atno 10167 bound_to 10162
  156.9992  131.0171  151.2835 H   0  0  0  0  0  0  0  0  0  0  0  0  # atno 10718 bound_to 10713
  154.6296  135.5426  153.7666 H   0  0  0  0  0  0  0  0  0  0  0  0  # atno 10763 bound_to 10752
  153.0278  135.6432  154.1321 H   0  0  0  0  0  0  0  0  0  0  0  0  # atno 10764 bound_to 10752
  154.1251  135.2918  155.3179 H   0  0  0  0  0  0  0  0  0  0  0  0  # atno 10765 bound_to 10752
  140.7679  134.3223  157.5083 H   0  0  0  0  0  0  0  0  0  0  0  0  # atno 11005 bound_to 11000
  146.2552  140.5167  142.8876 LP  0  0  0  0  0  0  0  0  0  0  0  0  # atno 17320 bound_to 7965
  144.8117  140.6397  143.6411 LP  0  0  0  0  0  0  0  0  0  0  0  0  # atno 17321 bound_to 7965
  140.2818  144.3851  150.6116 LP  0  0  0  0  0  0  0  0  0  0  0  0  # atno 17342 bound_to 10162
  140.6012  143.2167  151.7068 LP  0  0  0  0  0  0  0  0  0  0  0  0  # atno 17343 bound_to 10162
  157.5403  130.8115  149.8020 LP  0  0  0  0  0  0  0  0  0  0  0  0  # atno 17370 bound_to 10713
  156.0178  130.3807  150.2057 LP  0  0  0  0  0  0  0  0  0  0  0  0  # atno 17371 bound_to 10713
  139.8760  134.9243  156.3345 LP  0  0  0  0  0  0  0  0  0  0  0  0  # atno 17394 bound_to 11000
  140.9601  133.7394  156.0390 LP  0  0  0  0  0  0  0  0  0  0  0  0  # atno 17395 bound_to 11000

$$$$
