AV-unprocessed.smi:2510|AV-procd|sdf|9872|dock3
  -GOLD-   2272013503D 1   1.00000     0.00000
 Structure written by MMmdl.
 48 49  0  0  0  0  0  0  0  0  1 V2000
  148.0682  139.5352  155.4071 C   0  0  0  0  0  0  0  0  0  0  0  0
  149.5754  139.6508  155.1169 C   0  0  0  0  0  0  0  0  0  0  0  0
  150.4719  140.1390  156.2915 C   0  0  0  0  0  0  0  0  0  0  0  0
  150.1080  141.5914  156.6563 C   0  0  0  0  0  0  0  0  0  0  0  0
  151.2354  142.3791  157.3423 C   0  0  0  0  0  0  0  0  0  0  0  0
  150.6474  139.1813  157.5049 C   0  0  1  0  0  0  0  0  0  0  0  0
  149.5760  138.2120  157.7073 N   0  0  0  0  0  0  0  0  0  0  0  0
  149.6498  137.1428  158.5146 C   0  0  0  0  0  0  0  0  0  0  0  0
  150.6370  136.8779  159.2005 O   0  0  0  0  0  0  0  0  0  0  0  0
  148.4247  136.2264  158.5477 C   0  0  0  0  0  0  0  0  0  0  0  0
  147.9479  136.0338  159.9628 C   0  0  0  0  0  0  0  0  0  0  0  0
  147.6137  134.8112  160.6174 C   0  0  0  0  0  0  0  0  0  0  0  0
  147.2622  135.1897  161.8824 C   0  0  0  0  0  0  0  0  0  0  0  0
  146.8199  134.3952  163.0635 C   0  0  0  0  0  0  0  0  0  0  0  0
  147.3881  136.5590  161.9229 N   0  0  0  0  0  0  0  0  0  0  0  0
  147.8028  137.0868  160.7567 N   0  0  0  0  0  0  0  0  0  0  0  0
  151.8678  138.5522  156.8237 C   0  0  2  0  0  0  0  0  0  0  0  0
  153.0107  138.0448  157.6933 C   0  0  0  0  0  0  0  0  0  0  0  0
  151.9940  139.8991  156.0981 C   0  0  1  0  0  0  0  0  0  0  0  0
  152.3734  139.8137  154.7321 O   0  0  0  0  0  0  0  0  0  0  0  0
  153.3169  138.7887  154.4758 C   0  0  0  0  0  0  0  0  0  0  0  0
  147.1961  137.1379  162.7282 H   0  0  0  0  0  0  0  0  0  0  0  0
  147.5607  139.0164  154.5939 H   0  0  0  0  0  0  0  0  0  0  0  0
  147.5999  140.5144  155.5023 H   0  0  0  0  0  0  0  0  0  0  0  0
  147.8678  138.9839  156.3222 H   0  0  0  0  0  0  0  0  0  0  0  0
  149.9178  138.6763  154.7687 H   0  0  0  0  0  0  0  0  0  0  0  0
  149.6974  140.3058  154.2540 H   0  0  0  0  0  0  0  0  0  0  0  0
  149.7555  142.1375  155.7819 H   0  0  0  0  0  0  0  0  0  0  0  0
  149.2542  141.5897  157.3346 H   0  0  0  0  0  0  0  0  0  0  0  0
  150.8880  143.3706  157.6327 H   0  0  0  0  0  0  0  0  0  0  0  0
  152.0938  142.5158  156.6853 H   0  0  0  0  0  0  0  0  0  0  0  0
  151.5807  141.8739  158.2446 H   0  0  0  0  0  0  0  0  0  0  0  0
  150.9406  139.7122  158.4143 H   0  0  0  0  0  0  0  0  0  0  0  0
  148.7209  138.3584  157.1898 H   0  0  0  0  0  0  0  0  0  0  0  0
  147.6386  136.6551  157.9247 H   0  0  0  0  0  0  0  0  0  0  0  0
  148.6809  135.2642  158.1026 H   0  0  0  0  0  0  0  0  0  0  0  0
  147.6387  133.8079  160.2185 H   0  0  0  0  0  0  0  0  0  0  0  0
  146.8511  133.3269  162.8484 H   0  0  0  0  0  0  0  0  0  0  0  0
  145.7982  134.6529  163.3426 H   0  0  0  0  0  0  0  0  0  0  0  0
  147.4650  134.5846  163.9216 H   0  0  0  0  0  0  0  0  0  0  0  0
  151.5521  137.7837  156.1154 H   0  0  0  0  0  0  0  0  0  0  0  0
  153.3911  138.8284  158.3490 H   0  0  0  0  0  0  0  0  0  0  0  0
  153.8439  137.6862  157.0897 H   0  0  0  0  0  0  0  0  0  0  0  0
  152.6849  137.2179  158.3245 H   0  0  0  0  0  0  0  0  0  0  0  0
  152.5945  140.6207  156.6578 H   0  0  0  0  0  0  0  0  0  0  0  0
  153.5980  138.8078  153.4229 H   0  0  0  0  0  0  0  0  0  0  0  0
  152.9033  137.8040  154.6911 H   0  0  0  0  0  0  0  0  0  0  0  0
  154.2224  138.9278  155.0679 H   0  0  0  0  0  0  0  0  0  0  0  0
  1  2  1  0  0  0  0
  1 23  1  0  0  0  0
  1 24  1  0  0  0  0
  1 25  1  0  0  0  0
  2  3  1  0  0  0  0
  2 26  1  0  0  0  0
  2 27  1  0  0  0  0
  3 19  1  0  0  0  0
  3  4  1  0  0  0  0
  3  6  1  0  0  0  0
  4  5  1  0  0  0  0
  4 28  1  0  0  0  0
  4 29  1  0  0  0  0
  5 30  1  0  0  0  0
  5 31  1  0  0  0  0
  5 32  1  0  0  0  0
  6  7  1  0  0  0  0
  6 17  1  0  0  0  0
  6 33  1  0  0  0  0
  7  8  1  0  0  0  0
  7 34  1  0  0  0  0
  8  9  2  0  0  0  0
  8 10  1  0  0  0  0
 10 11  1  0  0  0  0
 10 35  1  0  0  0  0
 10 36  1  0  0  0  0
 11 16  2  0  0  0  0
 11 12  1  0  0  0  0
 12 13  2  0  0  0  0
 12 37  1  0  0  0  0
 13 14  1  0  0  0  0
 13 15  1  0  0  0  0
 14 38  1  0  0  0  0
 14 39  1  0  0  0  0
 14 40  1  0  0  0  0
 15 22  1  0  0  0  0
 15 16  1  0  0  0  0
 17 18  1  0  0  0  0
 17 19  1  0  0  0  0
 17 41  1  0  0  0  0
 18 42  1  0  0  0  0
 18 43  1  0  0  0  0
 18 44  1  0  0  0  0
 19 20  1  0  0  0  0
 19 45  1  0  0  0  0
 20 21  1  0  0  0  0
 21 46  1  0  0  0  0
 21 47  1  0  0  0  0
 21 48  1  0  0  0  0
M  END
> <s_m_source_file>
AV-unprocessed.smi

> <i_m_source_file_index>
2510

> <i_lp_mmshare_version>
43012

> <i_f3d_flags>
0

> <s_epik_input>
W0NIM11PW0NAQEhdMVtDQEhdKFtDSDNdKVtDQEBIXShDMShbQ0gyXVtDSDNdKVtDSDJdW0NIM10pW05IXUMoPU8pW0NIMl1jMltjSF1jKFtDSDNdKVtuSF1uMg==

> <s_epik_cmdline>
J2VwaWtfcHl0aG9uJywgJy1waCcsICc3LjAnLCAnLXRuJywgJzgnLCAnLW1hJywgJzIwMCcsICctbWV0YWxfYmluZGluZycsICctaW1hZScsICc8aW5maWxlLm1hZT4nLCAnLW9tYWUnLCAnPG91dGZpbGUubWFlPic=

> <r_lp_tautomer_probability>
0.5

> <r_epik_Ionization_Penalty>
9.73156e-05

> <r_epik_Ionization_Penalty_Charging>
0

> <r_epik_Ionization_Penalty_Neutral>
9.73156e-05

> <r_epik_State_Penalty>
0.41068

> <r_epik_Charging_Adjusted_Penalty>
0.41068

> <i_epik_Tot_Q>
0

> <i_epik_Tot_abs_Q>
0

> <r_epik_Metal_State_Penalty>
0.410699

> <b_epik_Metal_Only>
0

> <s_lp_Force_Field>
OPLS_2005

> <r_lp_Energy>
23.9763

> <b_lp_Chiralities_Consistent>
1

> <s_lp_Variant>
AV-unprocessed.smi:2510-3

> <Gold.Version>
5.8.1

> <Gold.Id.Protein>
6NUR|6NUR_protein|mol2

> <Gold.PLP.Fitness>
38.6855

> <Gold.PLP.PLP>
-31.8836

> <Gold.PLP.part.hbond>
-4.0000

> <Gold.PLP.part.metal>
0.0000

> <Gold.PLP.part.buried>
-3.7389

> <Gold.PLP.part.nonpolar>
-24.7905

> <Gold.PLP.part.repulsive>
0.2977

> <Gold.PLP.ligand.clash>
0.0000

> <Gold.PLP.ligand.torsion>
1.1475

> <Gold.PLP.Chemscore.Hbond>
2.8224

> <Gold.PLP.Chemscore.CHOScore>
0.0000

> <Gold.PLP.Chemscore.Metal>
0.0000

> <Gold.Chemscore.Hbonds>
donor molecule, donor type, donor heavy atom, donor atom, acceptor molecule, acceptor atom, score
      P1  H  6896  6909       L1     9  1.00
      P1  H  6931  6943       L1    16  0.26
      P1  H  6934  6947       L1    16  0.87
      P1  H  7989  7998       L1    20  0.66

> <Gold.PLP.Chemscore.Internal.Correction>
0.6296

> <Gold.Rescore>
     Score         DG    S(hbond)    S(metal)    S(lipo)     H(rot)  DE(clash)    DE(int)     intcor
     16.04     -17.80       2.00        0.00      87.75       1.81       0.58       1.18       ----

> <Gold.Chemscore.Fitness>
16.0372

> <Gold.Chemscore.DG>
-17.7993

> <Gold.Chemscore.ZeroCoef>
-5.4800

> <Gold.Chemscore.Hbond>
2.0020

> <Gold.Chemscore.Metal>
0.0000

> <Gold.Chemscore.Lipo>
87.7503

> <Gold.Chemscore.Internal_Hbond>
0.0000

> <Gold.Chemscore.DEClash>
0.5797

> <Gold.Chemscore.DEInternal>
1.1825

> <Gold.Chemscore.Rot>
1.8102

> <Gold.Chemscore.Internal.Correction>
   9.000000E+99

> <Gold.Chemscore.Hbonds>
donor molecule, donor type, donor heavy atom, donor atom, acceptor molecule, acceptor atom, score
      P1  H  6896  6909       L1     9  0.95
      P1  H  6934  6947       L1    16  0.28
      P1  H  7989  7998       L1    20  0.65

> <Gold.Chemscore.Hbond.Weighted>
-6.6866

> <Gold.Chemscore.Metal.Weighted>
-0.0000

> <Gold.Chemscore.Lipo.Weighted>
-10.2668

> <Gold.Chemscore.Internal_Hbond.Weighted>
0.0000

> <Gold.Chemscore.DEClash.Weighted>
0.5797

> <Gold.Chemscore.DEInternal.Weighted>
1.1825

> <Gold.Chemscore.Rot.Weighted>
4.6341

> <Gold.Chemscore.Internal.Correction.Weighted>
   9.000000E+99

> <Gold.Protein.RotatedTorsions>
[ 6907 6896 6895 6894 ] final   83.32 input  -60.11 | X-H torsion
[ 7974 7965 7964 7962 ] final  140.54 input  175.53 | X-H torsion
[ 8008 7997 7996 7995 ] final  -76.83 input   59.86 | X-H torsion
[ 10167 10162 10161 10158 ] final  -71.27 input  -65.29 | X-H torsion
[ 10718 10713 10712 10709 ] final   46.66 input   66.30 | X-H torsion
[ 10763 10752 10751 10750 ] final  -16.56 input  -60.55 | X-H torsion
[ 11005 11000 10999 10996 ] final -145.83 input  -57.11 | X-H torsion

> <Gold.Protein.ActiveResidues>
 VAL166  LYS551  ARG553  GLY616  TRP617  ASP618  TYR619  PRO620  LYS621  CYS622 
 ASP623  PHE694  ASN695  SER759  ASP760  ASP761  ALA762  ILE779  LEU786  VAL792 
 PHE793  MET794  SER795  GLU796  ALA797  LYS798  CYS799  TRP800  GLU811  SER814 

> <Gold.Protein.RotatedAtoms>
  152.5324  134.2913  159.9043 H   0  0  0  0  0  0  0  0  0  0  0  0  # atno 6907 bound_to 6896
  151.2865  133.4178  159.2638 H   0  0  0  0  0  0  0  0  0  0  0  0  # atno 6908 bound_to 6896
  151.0238  134.9504  159.8131 H   0  0  0  0  0  0  0  0  0  0  0  0  # atno 6909 bound_to 6896
  144.9177  139.5208  143.5678 H   0  0  0  0  0  0  0  0  0  0  0  0  # atno 7974 bound_to 7965
  154.5541  140.0720  156.8715 H   0  0  0  0  0  0  0  0  0  0  0  0  # atno 8008 bound_to 7997
  155.2936  140.3379  155.4233 H   0  0  0  0  0  0  0  0  0  0  0  0  # atno 8009 bound_to 7997
  156.1987  140.1713  156.7931 H   0  0  0  0  0  0  0  0  0  0  0  0  # atno 8010 bound_to 7997
  140.5286  143.2324  151.7302 H   0  0  0  0  0  0  0  0  0  0  0  0  # atno 10167 bound_to 10162
  157.4504  130.8135  149.7782 H   0  0  0  0  0  0  0  0  0  0  0  0  # atno 10718 bound_to 10713
  153.5604  135.7010  153.5550 H   0  0  0  0  0  0  0  0  0  0  0  0  # atno 10763 bound_to 10752
  153.3434  135.4015  155.1590 H   0  0  0  0  0  0  0  0  0  0  0  0  # atno 10764 bound_to 10752
  154.8648  135.3748  154.5121 H   0  0  0  0  0  0  0  0  0  0  0  0  # atno 10765 bound_to 10752
  140.7882  134.2999  157.5022 H   0  0  0  0  0  0  0  0  0  0  0  0  # atno 11005 bound_to 11000
  146.3190  139.8033  142.8961 LP  0  0  0  0  0  0  0  0  0  0  0  0  # atno 17320 bound_to 7965
  145.3347  141.0274  143.3426 LP  0  0  0  0  0  0  0  0  0  0  0  0  # atno 17321 bound_to 7965
  139.4946  144.4148  152.0042 LP  0  0  0  0  0  0  0  0  0  0  0  0  # atno 17342 bound_to 10162
  140.3249  144.3385  150.6001 LP  0  0  0  0  0  0  0  0  0  0  0  0  # atno 17343 bound_to 10162
  155.9984  130.3894  150.2701 LP  0  0  0  0  0  0  0  0  0  0  0  0  # atno 17370 bound_to 10713
  157.0872  131.0160  151.3135 LP  0  0  0  0  0  0  0  0  0  0  0  0  # atno 17371 bound_to 10713
  139.8734  134.9359  156.3645 LP  0  0  0  0  0  0  0  0  0  0  0  0  # atno 17394 bound_to 11000
  140.9416  133.7511  156.0154 LP  0  0  0  0  0  0  0  0  0  0  0  0  # atno 17395 bound_to 11000

$$$$
