AV-unprocessed.smi:1022|AV-procd|sdf|4461|dock3
  -GOLD-   22720 2433D 1   1.00000     0.00000
 Structure written by MMmdl.
 32 33  0  0  0  0  0  0  0  0  2 V2000
  146.0149  133.1190  163.8629 C   0  0  0  0  0  0  0  0  0  0  0  0
  147.2205  132.4026  163.6653 O   0  0  0  0  0  0  0  0  0  0  0  0
  147.6666  132.4486  162.3186 C   0  0  0  0  0  0  0  0  0  0  0  0
  148.2765  133.8282  162.0090 C   0  0  1  0  0  0  0  0  0  0  0  0
  149.5830  134.0739  162.7771 C   0  0  0  0  0  0  0  0  0  0  0  0
  148.5059  133.9874  160.5744 N   0  0  0  0  0  0  0  0  0  0  0  0
  148.9721  135.0868  159.9641 C   0  0  0  0  0  0  0  0  0  0  0  0
  149.2551  136.0871  160.6279 O   0  0  0  0  0  0  0  0  0  0  0  0
  149.0776  134.9610  158.6216 N   0  5  0  0  0  0  0  0  0  0  0  0
  149.5395  135.9855  157.8859 C   0  0  0  0  0  0  0  0  0  0  0  0
  150.4464  136.8548  158.3535 N   0  0  0  0  0  0  0  0  0  0  0  0
  150.7874  137.8341  157.4320 N   0  0  0  0  0  0  0  0  0  0  0  0
  150.1367  137.6861  156.2756 C   0  0  0  0  0  0  0  0  0  0  0  0
  150.3285  138.6177  155.1259 C   0  0  0  0  0  0  0  0  0  0  0  0
  150.2171  140.1130  155.3172 C   0  0  0  0  0  0  0  0  0  0  0  0
  149.1692  139.3786  154.5200 C   0  0  0  0  0  0  0  0  0  0  0  0
  149.0471  136.3093  156.2241 S   0  0  0  0  0  0  0  0  0  0  0  0
  145.7191  133.0560  164.9100 H   0  0  0  0  0  0  0  0  0  0  0  0
  145.2067  132.7036  163.2595 H   0  0  0  0  0  0  0  0  0  0  0  0
  146.1361  134.1729  163.6095 H   0  0  0  0  0  0  0  0  0  0  0  0
  148.4039  131.6635  162.1431 H   0  0  0  0  0  0  0  0  0  0  0  0
  146.8292  132.2549  161.6464 H   0  0  0  0  0  0  0  0  0  0  0  0
  147.5669  134.5919  162.3319 H   0  0  0  0  0  0  0  0  0  0  0  0
  149.4269  133.9872  163.8524 H   0  0  0  0  0  0  0  0  0  0  0  0
  149.9703  135.0741  162.5800 H   0  0  0  0  0  0  0  0  0  0  0  0
  150.3544  133.3572  162.4934 H   0  0  0  0  0  0  0  0  0  0  0  0
  148.2829  133.1957  159.9894 H   0  0  0  0  0  0  0  0  0  0  0  0
  151.0990  138.2447  154.4537 H   0  0  0  0  0  0  0  0  0  0  0  0
  149.9342  140.4764  156.3032 H   0  0  0  0  0  0  0  0  0  0  0  0
  150.9169  140.7423  154.7709 H   0  0  0  0  0  0  0  0  0  0  0  0
  149.1705  139.5167  153.4409 H   0  0  0  0  0  0  0  0  0  0  0  0
  148.1865  139.2684  154.9742 H   0  0  0  0  0  0  0  0  0  0  0  0
  1  2  1  0  0  0  0
  1 18  1  0  0  0  0
  1 19  1  0  0  0  0
  1 20  1  0  0  0  0
  2  3  1  0  0  0  0
  3  4  1  0  0  0  0
  3 21  1  0  0  0  0
  3 22  1  0  0  0  0
  4  5  1  0  0  0  0
  4  6  1  0  0  0  0
  4 23  1  0  0  0  0
  5 24  1  0  0  0  0
  5 25  1  0  0  0  0
  5 26  1  0  0  0  0
  6  7  1  0  0  0  0
  6 27  1  0  0  0  0
  7  8  2  0  0  0  0
  7  9  1  0  0  0  0
  9 10  1  0  0  0  0
 10 17  1  0  0  0  0
 10 11  2  0  0  0  0
 11 12  1  0  0  0  0
 12 13  2  0  0  0  0
 13 14  1  0  0  0  0
 13 17  1  0  0  0  0
 14 16  1  0  0  0  0
 14 15  1  0  0  0  0
 14 28  1  0  0  0  0
 15 16  1  0  0  0  0
 15 29  1  0  0  0  0
 15 30  1  0  0  0  0
 16 31  1  0  0  0  0
 16 32  1  0  0  0  0
M  CHG  1   9  -1
M  END
> <s_m_source_file>
AV-unprocessed.smi

> <i_m_source_file_index>
1022

> <i_lp_mmshare_version>
43012

> <i_f3d_flags>
0

> <s_epik_input>
W0NIM11PW0NIMl1bQ0BIXShbQ0gzXSlbTkhdQyg9TylbTkhdYzFubmMoczEpW0NIXTJbQ0gyXVtDSDJdMg==

> <s_epik_cmdline>
J2VwaWtfcHl0aG9uJywgJy1waCcsICc3LjAnLCAnLXRuJywgJzgnLCAnLW1hJywgJzIwMCcsICctbWV0YWxfYmluZGluZycsICctaW1hZScsICc8aW5maWxlLm1hZT4nLCAnLW9tYWUnLCAnPG91dGZpbGUubWFlPic=

> <r_lp_tautomer_probability>
1

> <r_epik_Ionization_Penalty>
3.79487

> <r_epik_Ionization_Penalty_Charging>
3.64217

> <r_epik_Ionization_Penalty_Neutral>
0.152695

> <r_epik_State_Penalty>
3.6409

> <r_epik_Charging_Adjusted_Penalty>
7.28307

> <i_epik_Tot_Q>
-1

> <i_epik_Tot_abs_Q>
1

> <r_epik_Metal_State_Penalty>
0.534129

> <b_epik_Metal_Only>
1

> <s_lp_Force_Field>
OPLS_2005

> <r_lp_Energy>
0.506403

> <b_lp_Chiralities_Consistent>
1

> <s_lp_Variant>
AV-unprocessed.smi:1022-4

> <Gold.Version>
5.8.1

> <Gold.Id.Protein>
6NUR|6NUR_protein|mol2

> <Gold.PLP.Fitness>
39.1171

> <Gold.PLP.PLP>
-30.0568

> <Gold.PLP.part.hbond>
-4.0000

> <Gold.PLP.part.metal>
0.0000

> <Gold.PLP.part.buried>
-2.7077

> <Gold.PLP.part.nonpolar>
-24.2010

> <Gold.PLP.part.repulsive>
0.1572

> <Gold.PLP.ligand.clash>
0.0000

> <Gold.PLP.ligand.torsion>
0.3907

> <Gold.PLP.Chemscore.Hbond>
3.2071

> <Gold.PLP.Chemscore.CHOScore>
0.0000

> <Gold.PLP.Chemscore.Metal>
0.0000

> <Gold.PLP.Chemscore.Internal.Correction>
0.2204

> <Gold.Rescore>
     Score         DG    S(hbond)    S(metal)    S(lipo)     H(rot)  DE(clash)    DE(int)     intcor
     13.70     -14.90       2.11        0.00      57.20       1.69       0.12       1.07       ----

> <Gold.Chemscore.Fitness>
13.7032

> <Gold.Chemscore.DG>
-14.9005

> <Gold.Chemscore.ZeroCoef>
-5.4800

> <Gold.Chemscore.Hbond>
2.1137

> <Gold.Chemscore.Metal>
0.0000

> <Gold.Chemscore.Lipo>
57.2004

> <Gold.Chemscore.Internal_Hbond>
0.0000

> <Gold.Chemscore.DEClash>
0.1243

> <Gold.Chemscore.DEInternal>
1.0730

> <Gold.Chemscore.Rot>
1.6921

> <Gold.Chemscore.Internal.Correction>
   9.000000E+99

> <Gold.Chemscore.Hbonds>
donor molecule, donor type, donor heavy atom, donor atom, acceptor molecule, acceptor atom, score
      P1  H  6931  6943       L1     8  0.01

> <Gold.Chemscore.Hbond.Weighted>
-7.0597

> <Gold.Chemscore.Metal.Weighted>
-0.0000

> <Gold.Chemscore.Lipo.Weighted>
-6.6924

> <Gold.Chemscore.Internal_Hbond.Weighted>
0.0000

> <Gold.Chemscore.DEClash.Weighted>
0.1243

> <Gold.Chemscore.DEInternal.Weighted>
1.0730

> <Gold.Chemscore.Rot.Weighted>
4.3317

> <Gold.Chemscore.Internal.Correction.Weighted>
   9.000000E+99

> <Gold.Protein.RotatedTorsions>
[ 6907 6896 6895 6894 ] final  -85.98 input  -60.11 | X-H torsion
[ 7974 7965 7964 7962 ] final  -76.68 input  175.53 | X-H torsion
[ 8008 7997 7996 7995 ] final -128.62 input   59.86 | X-H torsion
[ 10167 10162 10161 10158 ] final   35.44 input  -65.29 | X-H torsion
[ 10718 10713 10712 10709 ] final  -55.62 input   66.30 | X-H torsion
[ 10763 10752 10751 10750 ] final -163.81 input  -60.55 | X-H torsion
[ 11005 11000 10999 10996 ] final -155.58 input  -57.11 | X-H torsion

> <Gold.Protein.ActiveResidues>
 VAL166  LYS551  ARG553  GLY616  TRP617  ASP618  TYR619  PRO620  LYS621  CYS622 
 ASP623  PHE694  ASN695  SER759  ASP760  ASP761  ALA762  ILE779  LEU786  VAL792 
 PHE793  MET794  SER795  GLU796  ALA797  LYS798  CYS799  TRP800  GLU811  SER814 

> <Gold.Protein.RotatedAtoms>
  150.6868  134.3120  159.4750 H   0  0  0  0  0  0  0  0  0  0  0  0  # atno 6907 bound_to 6896
  152.1005  134.9342  160.0579 H   0  0  0  0  0  0  0  0  0  0  0  0  # atno 6908 bound_to 6896
  152.0623  133.4033  159.4460 H   0  0  0  0  0  0  0  0  0  0  0  0  # atno 6909 bound_to 6896
  145.6097  140.9389  143.1196 H   0  0  0  0  0  0  0  0  0  0  0  0  # atno 7974 bound_to 7965
  155.2657  140.0438  157.3002 H   0  0  0  0  0  0  0  0  0  0  0  0  # atno 8008 bound_to 7997
  154.5683  140.2366  155.8198 H   0  0  0  0  0  0  0  0  0  0  0  0  # atno 8009 bound_to 7997
  156.2103  140.3001  155.9725 H   0  0  0  0  0  0  0  0  0  0  0  0  # atno 8010 bound_to 7997
  140.4221  144.1444  150.6149 H   0  0  0  0  0  0  0  0  0  0  0  0  # atno 10167 bound_to 10162
  156.1354  130.4157  150.0195 H   0  0  0  0  0  0  0  0  0  0  0  0  # atno 10718 bound_to 10713
  154.7087  135.3002  154.9230 H   0  0  0  0  0  0  0  0  0  0  0  0  # atno 10763 bound_to 10752
  154.0139  135.6691  153.4771 H   0  0  0  0  0  0  0  0  0  0  0  0  # atno 10764 bound_to 10752
  153.0738  135.5046  154.8273 H   0  0  0  0  0  0  0  0  0  0  0  0  # atno 10765 bound_to 10752
  140.6849  134.4104  157.5224 H   0  0  0  0  0  0  0  0  0  0  0  0  # atno 11005 bound_to 11000
  144.7275  139.7829  143.7359 LP  0  0  0  0  0  0  0  0  0  0  0  0  # atno 17320 bound_to 7965
  146.1514  139.4598  143.0046 LP  0  0  0  0  0  0  0  0  0  0  0  0  # atno 17321 bound_to 7965
  140.4522  143.2482  151.9333 LP  0  0  0  0  0  0  0  0  0  0  0  0  # atno 17342 bound_to 10162
  139.4783  144.5551  151.8326 LP  0  0  0  0  0  0  0  0  0  0  0  0  # atno 17343 bound_to 10162
  156.8095  130.9320  151.3644 LP  0  0  0  0  0  0  0  0  0  0  0  0  # atno 17370 bound_to 10713
  157.6527  130.8898  149.9666 LP  0  0  0  0  0  0  0  0  0  0  0  0  # atno 17371 bound_to 10713
  139.8940  134.8716  156.2195 LP  0  0  0  0  0  0  0  0  0  0  0  0  # atno 17394 bound_to 11000
  141.0288  133.7000  156.1394 LP  0  0  0  0  0  0  0  0  0  0  0  0  # atno 17395 bound_to 11000

$$$$
