AV-unprocessed.smi:218|AV-procd|sdf|1676|dock1
  -GOLD-   2262020103D 1   1.00000     0.00000
 Structure written by MMmdl.
 54 57  0  0  0  0  0  0  0  0  1 V2000
  152.7767  143.3634  159.9498 C   0  0  0  0  0  0  0  0  0  0  0  0
  152.5733  142.9432  158.4891 C   0  0  0  0  0  0  0  0  0  0  0  0
  151.6377  143.9194  157.7548 C   0  0  0  0  0  0  0  0  0  0  0  0
  152.0042  141.6324  158.5093 O   0  0  0  0  0  0  0  0  0  0  0  0
  151.5638  141.0486  157.3369 C   0  0  0  0  0  0  0  0  0  0  0  0
  150.2340  141.2842  156.9318 C   0  0  0  0  0  0  0  0  0  0  0  0
  149.7715  140.6988  155.7358 C   0  0  0  0  0  0  0  0  0  0  0  0
  148.3523  140.9326  155.2594 C   0  0  0  0  0  0  0  0  0  0  0  0
  147.3490  140.5000  156.2228 N   0  0  0  0  0  0  0  0  0  0  0  0
  146.3192  139.7230  155.8249 C   0  0  0  0  0  0  0  0  0  0  0  0
  145.0328  140.0960  156.0520 N   0  0  0  0  0  0  0  0  0  0  0  0
  144.0299  139.3105  155.6485 C   0  0  0  0  0  0  0  0  0  0  0  0
  144.0929  138.1381  155.0140 N   0  0  0  0  0  0  0  0  0  0  0  0
  145.3826  137.7581  154.7811 C   0  0  0  0  0  0  0  0  0  0  0  0
  146.5430  138.4915  155.1564 C   0  0  0  0  0  0  0  0  0  0  0  0
  147.6831  137.8026  154.7650 N   0  0  0  0  0  0  0  0  0  0  0  0
  147.2189  136.7259  154.1905 C   0  0  0  0  0  0  0  0  0  0  0  0
  145.8464  136.6157  154.1566 N   0  0  0  0  0  0  0  0  0  0  0  0
  145.0454  135.4943  153.5638 C   0  0  2  0  0  0  0  0  0  0  0  0
  145.9089  134.5167  153.0605 O   0  0  0  0  0  0  0  0  0  0  0  0
  145.6998  134.3333  151.6598 C   0  0  1  0  0  0  0  0  0  0  0  0
  145.9738  132.8699  151.2801 C   0  0  0  0  0  0  0  0  0  0  0  0
  147.3042  132.5254  151.6019 O   0  0  0  0  0  0  0  0  0  0  0  0
  144.2387  134.7485  151.4786 C   0  0  2  0  0  0  0  0  0  0  0  0
  143.9033  135.0623  150.1405 O   0  0  0  0  0  0  0  0  0  0  0  0
  144.1228  135.9425  152.4145 C   0  0  2  0  0  0  0  0  0  0  0  0
  144.5267  137.1577  151.8007 O   0  0  0  0  0  0  0  0  0  0  0  0
  150.6571  139.8909  154.9937 C   0  0  0  0  0  0  0  0  0  0  0  0
  151.9656  139.7091  155.4808 C   0  0  0  0  0  0  0  0  0  0  0  0
  152.4153  140.2710  156.6227 N   0  0  0  0  0  0  0  0  0  0  0  0
  144.4950  135.0734  154.4062 H   0  0  0  0  0  0  0  0  0  0  0  0
  146.3431  135.0126  151.0979 H   0  0  0  0  0  0  0  0  0  0  0  0
  143.5851  133.9488  151.8308 H   0  0  0  0  0  0  0  0  0  0  0  0
  143.1062  136.0679  152.7883 H   0  0  0  0  0  0  0  0  0  0  0  0
  153.2240  144.3555  160.0152 H   0  0  0  0  0  0  0  0  0  0  0  0
  153.4381  142.6676  160.4669 H   0  0  0  0  0  0  0  0  0  0  0  0
  151.8301  143.3865  160.4905 H   0  0  0  0  0  0  0  0  0  0  0  0
  153.5559  142.9391  158.0149 H   0  0  0  0  0  0  0  0  0  0  0  0
  152.0406  144.9322  157.7704 H   0  0  0  0  0  0  0  0  0  0  0  0
  150.6532  143.9454  158.2224 H   0  0  0  0  0  0  0  0  0  0  0  0
  151.4994  143.6405  156.7106 H   0  0  0  0  0  0  0  0  0  0  0  0
  149.5854  141.9083  157.5290 H   0  0  0  0  0  0  0  0  0  0  0  0
  148.2293  141.9979  155.0601 H   0  0  0  0  0  0  0  0  0  0  0  0
  148.1956  140.4076  154.3159 H   0  0  0  0  0  0  0  0  0  0  0  0
  147.4983  140.7842  157.1803 H   0  0  0  0  0  0  0  0  0  0  0  0
  143.0352  139.6722  155.8635 H   0  0  0  0  0  0  0  0  0  0  0  0
  147.8722  135.9737  153.7724 H   0  0  0  0  0  0  0  0  0  0  0  0
  145.2751  132.1941  151.7737 H   0  0  0  0  0  0  0  0  0  0  0  0
  145.8532  132.7322  150.2052 H   0  0  0  0  0  0  0  0  0  0  0  0
  147.6638  132.0163  150.8914 H   0  0  0  0  0  0  0  0  0  0  0  0
  142.9967  134.8317  150.0024 H   0  0  0  0  0  0  0  0  0  0  0  0
  143.9401  137.3390  151.0824 H   0  0  0  0  0  0  0  0  0  0  0  0
  150.3432  139.4193  154.0739 H   0  0  0  0  0  0  0  0  0  0  0  0
  152.6703  139.0963  154.9386 H   0  0  0  0  0  0  0  0  0  0  0  0
  1  2  1  0  0  0  0
  1 35  1  0  0  0  0
  1 36  1  0  0  0  0
  1 37  1  0  0  0  0
  2  3  1  0  0  0  0
  2  4  1  0  0  0  0
  2 38  1  0  0  0  0
  3 39  1  0  0  0  0
  3 40  1  0  0  0  0
  3 41  1  0  0  0  0
  4  5  1  0  0  0  0
  5 30  1  0  0  0  0
  5  6  2  0  0  0  0
  6  7  1  0  0  0  0
  6 42  1  0  0  0  0
  7  8  1  0  0  0  0
  7 28  2  0  0  0  0
  8  9  1  0  0  0  0
  8 43  1  0  0  0  0
  8 44  1  0  0  0  0
  9 10  1  0  0  0  0
  9 45  1  0  0  0  0
 10 15  1  0  0  0  0
 10 11  2  0  0  0  0
 11 12  1  0  0  0  0
 12 13  2  0  0  0  0
 12 46  1  0  0  0  0
 13 14  1  0  0  0  0
 14 18  1  0  0  0  0
 14 15  2  0  0  0  0
 15 16  1  0  0  0  0
 16 17  2  0  0  0  0
 17 18  1  0  0  0  0
 17 47  1  0  0  0  0
 18 19  1  0  0  0  0
 19 31  1  0  0  0  0
 19 26  1  0  0  0  0
 19 20  1  0  0  0  0
 20 21  1  0  0  0  0
 21 32  1  0  0  0  0
 21 22  1  0  0  0  0
 21 24  1  0  0  0  0
 22 23  1  0  0  0  0
 22 48  1  0  0  0  0
 22 49  1  0  0  0  0
 23 50  1  0  0  0  0
 24 33  1  0  0  0  0
 24 25  1  0  0  0  0
 24 26  1  0  0  0  0
 25 51  1  0  0  0  0
 26 34  1  0  0  0  0
 26 27  1  0  0  0  0
 27 52  1  0  0  0  0
 28 29  1  0  0  0  0
 28 53  1  0  0  0  0
 29 30  2  0  0  0  0
 29 54  1  0  0  0  0
M  END
> <s_m_source_file>
AV-unprocessed.smi

> <i_m_source_file_index>
218

> <i_lp_mmshare_version>
43012

> <i_f3d_flags>
0

> <s_epik_input>
W0NIM11bQ0hdKFtDSDNdKU9jMVtjSF1jKFtjSF1bY0hdbjEpW0NIMl1bTkhdYyhuW2NIXW4yKWMoYzIzKW5bY0hdbjNbQ0BASF00T1tDQEhdKFtDSDJdW09IXSlbQ0BASF0oW09IXSlbQ0BIXTRbT0hd

> <s_epik_cmdline>
J2VwaWtfcHl0aG9uJywgJy1waCcsICc3LjAnLCAnLXRuJywgJzgnLCAnLW1hJywgJzIwMCcsICctbWV0YWxfYmluZGluZycsICctaW1hZScsICc8aW5maWxlLm1hZT4nLCAnLW9tYWUnLCAnPG91dGZpbGUubWFlPic=

> <r_lp_tautomer_probability>
1

> <r_epik_Ionization_Penalty>
0.00457014

> <r_epik_Ionization_Penalty_Charging>
0

> <r_epik_Ionization_Penalty_Neutral>
0.00457014

> <r_epik_State_Penalty>
-0

> <r_epik_Charging_Adjusted_Penalty>
0

> <i_epik_Tot_Q>
0

> <i_epik_Tot_abs_Q>
0

> <r_epik_Metal_State_Penalty>
-0

> <b_epik_Metal_Only>
0

> <s_epik_Chemistry_Notes>
This compound contains an acetal/aminal-like group ( X-CH(R)-Y where X, Y are N, S, or O) that may be acid/base labile, releasing an aldehyde.

> <s_lp_Force_Field>
OPLS_2005

> <r_lp_Energy>
48.139

> <b_lp_Chiralities_Consistent>
1

> <s_lp_Variant>
AV-unprocessed.smi:218-15

> <Gold.Version>
5.8.1

> <Gold.Id.Protein>
6NUR|6NUR_protein|mol2

> <Gold.PLP.Fitness>
49.4297

> <Gold.PLP.PLP>
-37.1689

> <Gold.PLP.part.hbond>
-3.8555

> <Gold.PLP.part.metal>
0.0000

> <Gold.PLP.part.buried>
-4.8264

> <Gold.PLP.part.nonpolar>
-29.1133

> <Gold.PLP.part.repulsive>
0.3322

> <Gold.PLP.ligand.clash>
0.0000

> <Gold.PLP.ligand.torsion>
0.9805

> <Gold.PLP.Chemscore.Hbond>
3.7273

> <Gold.PLP.Chemscore.CHOScore>
0.8615

> <Gold.PLP.Chemscore.Metal>
0.0000

> <Gold.Chemscore.Hbonds>
donor molecule, donor type, donor heavy atom, donor atom, acceptor molecule, acceptor atom, score
      L1  H    23    50       P1 10747  0.98
      L1  H    25    51       P1 10186  0.91
      L1  H    27    52       P1 10171  0.70
      P1  H  7997  8008       L1    30  1.00
      L1  C    17    47       P1  7948  0.88

> <Gold.PLP.Chemscore.Internal.Correction>
0.4555

> <Gold.Rescore>
     Score         DG    S(hbond)    S(metal)    S(lipo)     H(rot)  DE(clash)    DE(int)     intcor
     12.27     -13.61       3.24        0.00      84.29       4.90       0.35       0.98       ----

> <Gold.Chemscore.Fitness>
12.2727

> <Gold.Chemscore.DG>
-13.6103

> <Gold.Chemscore.ZeroCoef>
-5.4800

> <Gold.Chemscore.Hbond>
3.2396

> <Gold.Chemscore.Metal>
0.0000

> <Gold.Chemscore.Lipo>
84.2872

> <Gold.Chemscore.Internal_Hbond>
0.0000

> <Gold.Chemscore.DEClash>
0.3530

> <Gold.Chemscore.DEInternal>
0.9846

> <Gold.Chemscore.Rot>
4.9029

> <Gold.Chemscore.Internal.Correction>
   9.000000E+99

> <Gold.Chemscore.Hbonds>
donor molecule, donor type, donor heavy atom, donor atom, acceptor molecule, acceptor atom, score
      L1  H    23    50       P1 10747  0.93
      L1  H    25    51       P1 10186  0.48
      L1  H    27    52       P1 10171  0.70
      P1  H  7997  8008       L1    30  0.38

> <Gold.Chemscore.Hbond.Weighted>
-10.8203

> <Gold.Chemscore.Metal.Weighted>
-0.0000

> <Gold.Chemscore.Lipo.Weighted>
-9.8616

> <Gold.Chemscore.Internal_Hbond.Weighted>
0.0000

> <Gold.Chemscore.DEClash.Weighted>
0.3530

> <Gold.Chemscore.DEInternal.Weighted>
0.9846

> <Gold.Chemscore.Rot.Weighted>
12.5515

> <Gold.Chemscore.Internal.Correction.Weighted>
   9.000000E+99

> <Gold.Protein.RotatedTorsions>
[ 6907 6896 6895 6894 ] final   16.28 input  -60.11 | X-H torsion
[ 7974 7965 7964 7962 ] final   59.25 input  175.53 | X-H torsion
[ 8008 7997 7996 7995 ] final  -50.08 input   59.86 | X-H torsion
[ 10167 10162 10161 10158 ] final  -84.80 input  -65.29 | X-H torsion
[ 10718 10713 10712 10709 ] final   73.56 input   66.30 | X-H torsion
[ 10763 10752 10751 10750 ] final   30.48 input  -60.55 | X-H torsion
[ 11005 11000 10999 10996 ] final  -10.39 input  -57.11 | X-H torsion

> <Gold.Protein.ActiveResidues>
 VAL166  LYS551  ARG553  GLY616  TRP617  ASP618  TYR619  PRO620  LYS621  CYS622 
 ASP623  PHE694  ASN695  SER759  ASP760  ASP761  ALA762  ILE779  LEU786  VAL792 
 PHE793  MET794  SER795  GLU796  ALA797  LYS798  CYS799  TRP800  GLU811  SER814 

> <Gold.Protein.RotatedAtoms>
  151.8313  135.0620  160.0436 H   0  0  0  0  0  0  0  0  0  0  0  0  # atno 6907 bound_to 6896
  152.2878  133.5527  159.5546 H   0  0  0  0  0  0  0  0  0  0  0  0  # atno 6908 bound_to 6896
  150.7217  134.0388  159.3801 H   0  0  0  0  0  0  0  0  0  0  0  0  # atno 6909 bound_to 6896
  145.9092  139.3641  143.0546 H   0  0  0  0  0  0  0  0  0  0  0  0  # atno 7974 bound_to 7965
  154.4055  140.1281  156.4607 H   0  0  0  0  0  0  0  0  0  0  0  0  # atno 8008 bound_to 7997
  155.7275  140.3492  155.5024 H   0  0  0  0  0  0  0  0  0  0  0  0  # atno 8009 bound_to 7997
  155.9157  140.1044  157.1235 H   0  0  0  0  0  0  0  0  0  0  0  0  # atno 8010 bound_to 7997
  140.4098  143.2627  151.9033 H   0  0  0  0  0  0  0  0  0  0  0  0  # atno 10167 bound_to 10162
  157.6553  130.9634  150.1086 H   0  0  0  0  0  0  0  0  0  0  0  0  # atno 10718 bound_to 10713
  153.0369  135.6463  154.1052 H   0  0  0  0  0  0  0  0  0  0  0  0  # atno 10763 bound_to 10752
  154.0765  135.2876  155.3300 H   0  0  0  0  0  0  0  0  0  0  0  0  # atno 10764 bound_to 10752
  154.6559  135.5409  153.8022 H   0  0  0  0  0  0  0  0  0  0  0  0  # atno 10765 bound_to 10752
  140.7443  133.8645  155.8993 H   0  0  0  0  0  0  0  0  0  0  0  0  # atno 11005 bound_to 11000
  145.8693  140.9429  143.0659 LP  0  0  0  0  0  0  0  0  0  0  0  0  # atno 17320 bound_to 7965
  144.6742  140.0633  143.7475 LP  0  0  0  0  0  0  0  0  0  0  0  0  # atno 17321 bound_to 7965
  139.4783  144.5549  151.8329 LP  0  0  0  0  0  0  0  0  0  0  0  0  # atno 17342 bound_to 10162
  140.4650  144.1667  150.5911 LP  0  0  0  0  0  0  0  0  0  0  0  0  # atno 17343 bound_to 10162
  156.1989  130.3659  149.8814 LP  0  0  0  0  0  0  0  0  0  0  0  0  # atno 17370 bound_to 10713
  156.6723  130.8825  151.3564 LP  0  0  0  0  0  0  0  0  0  0  0  0  # atno 17371 bound_to 10713
  140.9809  134.1407  157.4495 LP  0  0  0  0  0  0  0  0  0  0  0  0  # atno 17394 bound_to 11000
  139.8800  135.0010  156.6042 LP  0  0  0  0  0  0  0  0  0  0  0  0  # atno 17395 bound_to 11000

$$$$
