AV-unprocessed.smi:639|AV-procd|sdf|3144|dock5
  -GOLD-   22720 0 73D 1   1.00000     0.00000
 Structure written by MMmdl.
 24 25  0  0  0  0  0  0  0  0  1 V2000
  144.1036  132.4482  148.9221 C   0  0  0  0  0  0  0  0  0  0  0  0
  144.1402  133.1759  150.1725 N   0  0  0  0  0  0  0  0  0  0  0  0
  144.9276  134.2522  150.5169 C   0  0  0  0  0  0  0  0  0  0  0  0
  144.6138  134.6055  151.8011 C   0  0  0  0  0  0  0  0  0  0  0  0
  145.1989  135.7221  152.6437 C   0  0  1  0  0  0  0  0  0  0  0  0
  145.5959  135.2445  154.0529 C   0  0  0  0  0  0  0  0  0  0  0  0
  146.3150  136.3909  151.9913 N   0  0  0  0  0  0  0  0  0  0  0  0
  146.0453  137.6648  151.6746 C   0  0  0  0  0  0  0  0  0  0  0  0
  146.8037  138.4429  151.1010 O   0  0  0  0  0  0  0  0  0  0  0  0
  144.8086  137.9404  152.0998 N   0  0  0  0  0  0  0  0  0  0  0  0
  144.2305  136.8973  152.6931 C   0  0  0  0  0  0  0  0  0  0  0  0
  143.1095  136.8668  153.1990 O   0  0  0  0  0  0  0  0  0  0  0  0
  143.6020  133.6631  152.1533 C   0  0  0  0  0  0  0  0  0  0  0  0
  143.3207  132.8136  151.1794 N   0  0  0  0  0  0  0  0  0  0  0  0
  145.0315  132.6067  148.3719 H   0  0  0  0  0  0  0  0  0  0  0  0
  143.2668  132.7998  148.3180 H   0  0  0  0  0  0  0  0  0  0  0  0
  143.9852  131.3808  149.1124 H   0  0  0  0  0  0  0  0  0  0  0  0
  145.6436  134.6750  149.8276 H   0  0  0  0  0  0  0  0  0  0  0  0
  144.7441  134.8226  154.5874 H   0  0  0  0  0  0  0  0  0  0  0  0
  145.9899  136.0618  154.6587 H   0  0  0  0  0  0  0  0  0  0  0  0
  146.3659  134.4740  154.0011 H   0  0  0  0  0  0  0  0  0  0  0  0
  147.1877  135.9259  151.7869 H   0  0  0  0  0  0  0  0  0  0  0  0
  144.3664  138.8418  151.9936 H   0  0  0  0  0  0  0  0  0  0  0  0
  143.0656  133.5714  153.0863 H   0  0  0  0  0  0  0  0  0  0  0  0
  1  2  1  0  0  0  0
  1 15  1  0  0  0  0
  1 16  1  0  0  0  0
  1 17  1  0  0  0  0
  2 14  1  0  0  0  0
  2  3  1  0  0  0  0
  3  4  2  0  0  0  0
  3 18  1  0  0  0  0
  4  5  1  0  0  0  0
  4 13  1  0  0  0  0
  5 11  1  0  0  0  0
  5  6  1  0  0  0  0
  5  7  1  0  0  0  0
  6 19  1  0  0  0  0
  6 20  1  0  0  0  0
  6 21  1  0  0  0  0
  7  8  1  0  0  0  0
  7 22  1  0  0  0  0
  8  9  2  0  0  0  0
  8 10  1  0  0  0  0
 10 11  1  0  0  0  0
 10 23  1  0  0  0  0
 11 12  2  0  0  0  0
 13 14  2  0  0  0  0
 13 24  1  0  0  0  0
M  END
> <s_m_source_file>
AV-unprocessed.smi

> <i_m_source_file_index>
639

> <i_lp_mmshare_version>
43012

> <i_f3d_flags>
0

> <s_epik_input>
W0NIM11uMVtjSF1jKFtjSF1uMSlbQ0BAXTIoW0NIM10pW05IXUMoPU8pW05IXUMyPU8=

> <s_epik_cmdline>
J2VwaWtfcHl0aG9uJywgJy1waCcsICc3LjAnLCAnLXRuJywgJzgnLCAnLW1hJywgJzIwMCcsICctbWV0YWxfYmluZGluZycsICctaW1hZScsICc8aW5maWxlLm1hZT4nLCAnLW9tYWUnLCAnPG91dGZpbGUubWFlPic=

> <r_lp_tautomer_probability>
1

> <r_epik_Ionization_Penalty>
0.0282779

> <r_epik_Ionization_Penalty_Charging>
0

> <r_epik_Ionization_Penalty_Neutral>
0.0282779

> <r_epik_State_Penalty>
0.022996

> <r_epik_Charging_Adjusted_Penalty>
0.022996

> <i_epik_Tot_Q>
0

> <i_epik_Tot_abs_Q>
0

> <r_epik_Metal_State_Penalty>
0.428533

> <b_epik_Metal_Only>
0

> <s_lp_Force_Field>
OPLS_2005

> <r_lp_Energy>
13.4697

> <b_lp_Chiralities_Consistent>
1

> <s_lp_Variant>
AV-unprocessed.smi:639-1

> <Gold.Version>
5.8.1

> <Gold.Id.Protein>
6NUR|6NUR_protein|mol2

> <Gold.PLP.Fitness>
36.4021

> <Gold.PLP.PLP>
-22.6186

> <Gold.PLP.part.hbond>
-4.0000

> <Gold.PLP.part.metal>
0.0000

> <Gold.PLP.part.buried>
-3.1641

> <Gold.PLP.part.nonpolar>
-17.7197

> <Gold.PLP.part.repulsive>
0.8032

> <Gold.PLP.ligand.clash>
0.0000

> <Gold.PLP.ligand.torsion>
0.3930

> <Gold.PLP.Chemscore.Hbond>
2.8160

> <Gold.PLP.Chemscore.CHOScore>
1.9982

> <Gold.PLP.Chemscore.Metal>
0.0000

> <Gold.Chemscore.Hbonds>
donor molecule, donor type, donor heavy atom, donor atom, acceptor molecule, acceptor atom, score
      L1  H     7    22       P1  7948  0.82
      L1  H    10    23       P1 10175  1.00
      P1  H  7954  7966       L1     9  1.00
      L1  C     3    18       P1  7921  1.00
      L1  C    13    24       P1 10957  1.00

> <Gold.PLP.Chemscore.Internal.Correction>
0.1268

> <Gold.Rescore>
     Score         DG    S(hbond)    S(metal)    S(lipo)     H(rot)  DE(clash)    DE(int)     intcor
     15.40     -16.09       2.78        0.00      33.17       1.00       0.48       0.21       ----

> <Gold.Chemscore.Fitness>
15.4008

> <Gold.Chemscore.DG>
-16.0948

> <Gold.Chemscore.ZeroCoef>
-5.4800

> <Gold.Chemscore.Hbond>
2.7826

> <Gold.Chemscore.Metal>
0.0000

> <Gold.Chemscore.Lipo>
33.1715

> <Gold.Chemscore.Internal_Hbond>
0.0000

> <Gold.Chemscore.DEClash>
0.4848

> <Gold.Chemscore.DEInternal>
0.2092

> <Gold.Chemscore.Rot>
1.0000

> <Gold.Chemscore.Internal.Correction>
   9.000000E+99

> <Gold.Chemscore.Hbonds>
donor molecule, donor type, donor heavy atom, donor atom, acceptor molecule, acceptor atom, score
      L1  H     7    22       P1  7948  0.81
      L1  H    10    23       P1 10175  1.00
      P1  H  7954  7966       L1     9  0.97

> <Gold.Chemscore.Hbond.Weighted>
-9.2937

> <Gold.Chemscore.Metal.Weighted>
-0.0000

> <Gold.Chemscore.Lipo.Weighted>
-3.8811

> <Gold.Chemscore.Internal_Hbond.Weighted>
0.0000

> <Gold.Chemscore.DEClash.Weighted>
0.4848

> <Gold.Chemscore.DEInternal.Weighted>
0.2092

> <Gold.Chemscore.Rot.Weighted>
2.5600

> <Gold.Chemscore.Internal.Correction.Weighted>
   9.000000E+99

> <Gold.Protein.RotatedTorsions>
[ 6907 6896 6895 6894 ] final   99.91 input  -60.11 | X-H torsion
[ 7974 7965 7964 7962 ] final  -45.46 input  175.53 | X-H torsion
[ 8008 7997 7996 7995 ] final  -49.60 input   59.86 | X-H torsion
[ 10167 10162 10161 10158 ] final   90.24 input  -65.29 | X-H torsion
[ 10718 10713 10712 10709 ] final   19.34 input   66.30 | X-H torsion
[ 10763 10752 10751 10750 ] final   48.90 input  -60.55 | X-H torsion
[ 11005 11000 10999 10996 ] final  -11.03 input  -57.11 | X-H torsion

> <Gold.Protein.ActiveResidues>
 VAL166  LYS551  ARG553  GLY616  TRP617  ASP618  TYR619  PRO620  LYS621  CYS622 
 ASP623  PHE694  ASN695  SER759  ASP760  ASP761  ALA762  ILE779  LEU786  VAL792 
 PHE793  MET794  SER795  GLU796  ALA797  LYS798  CYS799  TRP800  GLU811  SER814 

> <Gold.Protein.RotatedAtoms>
  152.5383  134.0357  159.8044 H   0  0  0  0  0  0  0  0  0  0  0  0  # atno 6907 bound_to 6896
  151.0520  133.5608  159.2648 H   0  0  0  0  0  0  0  0  0  0  0  0  # atno 6908 bound_to 6896
  151.2539  135.0639  159.9126 H   0  0  0  0  0  0  0  0  0  0  0  0  # atno 6909 bound_to 6896
  145.9818  140.7275  142.9360 H   0  0  0  0  0  0  0  0  0  0  0  0  # atno 7974 bound_to 7965
  154.4047  140.1293  156.4529 H   0  0  0  0  0  0  0  0  0  0  0  0  # atno 8008 bound_to 7997
  155.7349  140.3491  155.5057 H   0  0  0  0  0  0  0  0  0  0  0  0  # atno 8009 bound_to 7997
  155.9093  140.1033  157.1281 H   0  0  0  0  0  0  0  0  0  0  0  0  # atno 8010 bound_to 7997
  139.8492  144.6602  150.9189 H   0  0  0  0  0  0  0  0  0  0  0  0  # atno 10167 bound_to 10162
  157.1091  130.6501  149.5892 H   0  0  0  0  0  0  0  0  0  0  0  0  # atno 10718 bound_to 10713
  152.9789  135.5929  154.4001 H   0  0  0  0  0  0  0  0  0  0  0  0  # atno 10763 bound_to 10752
  154.3648  135.2767  155.2302 H   0  0  0  0  0  0  0  0  0  0  0  0  # atno 10764 bound_to 10752
  154.4283  135.6042  153.6107 H   0  0  0  0  0  0  0  0  0  0  0  0  # atno 10765 bound_to 10752
  140.7510  133.8592  155.9045 H   0  0  0  0  0  0  0  0  0  0  0  0  # atno 11005 bound_to 11000
  144.6863  140.2921  143.7276 LP  0  0  0  0  0  0  0  0  0  0  0  0  # atno 17320 bound_to 7965
  145.7758  139.1873  143.2186 LP  0  0  0  0  0  0  0  0  0  0  0  0  # atno 17321 bound_to 7965
  140.7789  143.3842  151.1423 LP  0  0  0  0  0  0  0  0  0  0  0  0  # atno 17342 bound_to 10162
  139.7482  143.8820  152.3069 LP  0  0  0  0  0  0  0  0  0  0  0  0  # atno 17343 bound_to 10162
  155.9855  130.4885  150.7033 LP  0  0  0  0  0  0  0  0  0  0  0  0  # atno 17370 bound_to 10713
  157.4575  131.0879  151.0781 LP  0  0  0  0  0  0  0  0  0  0  0  0  # atno 17371 bound_to 10713
  140.9751  134.1480  157.4543 LP  0  0  0  0  0  0  0  0  0  0  0  0  # atno 17394 bound_to 11000
  139.8788  134.9992  156.5940 LP  0  0  0  0  0  0  0  0  0  0  0  0  # atno 17395 bound_to 11000

$$$$
