AV-unprocessed.smi:3181|AV-procd|sdf|12147|dock2
  -GOLD-   2272017583D 1   1.00000     0.00000
 Structure written by MMmdl.
 42 43  0  0  0  0  0  0  0  0  2 V2000
  149.0632  141.5662  154.7132 C   0  0  0  0  0  0  0  0  0  0  0  0
  150.2208  141.4161  155.7145 C   0  0  2  0  0  0  0  0  0  0  0  0
  150.3556  139.9689  156.2415 C   0  0  0  0  0  0  0  0  0  0  0  0
  151.3301  139.1881  155.5023 N   0  0  0  0  0  0  0  0  0  0  0  0
  151.3665  137.8852  155.2171 C   0  0  0  0  0  0  0  0  0  0  0  0
  152.4315  137.5213  154.5167 N   0  0  0  0  0  0  0  0  0  0  0  0
  153.0567  138.7313  154.4046 C   0  0  0  0  0  0  0  0  0  0  0  0
  152.4384  139.7632  154.9796 N   0  0  0  0  0  0  0  0  0  0  0  0
  150.0244  142.3678  156.8325 N   0  3  0  0  0  0  0  0  0  0  0  0
  151.2468  142.8036  157.5471 C   0  0  2  0  0  0  0  0  0  0  0  0
  151.7041  141.6953  158.5119 C   0  0  0  0  0  0  0  0  0  0  0  0
  152.9482  142.1194  159.3109 C   0  0  0  0  0  0  0  0  0  0  0  0
  152.7262  143.4340  160.0864 C   0  0  2  0  0  0  0  0  0  0  0  0
  151.8055  143.2262  161.3060 C   0  0  0  0  0  0  0  0  0  0  0  0
  152.2553  144.5488  159.1177 C   0  0  2  0  0  0  0  0  0  0  0  0
  152.0508  145.9079  159.8072 C   0  0  0  0  0  0  0  0  0  0  0  0
  151.0089  144.1211  158.3159 C   0  0  0  0  0  0  0  0  0  0  0  0
  149.2135  140.9457  153.8294 H   0  0  0  0  0  0  0  0  0  0  0  0
  148.9747  142.5973  154.3690 H   0  0  0  0  0  0  0  0  0  0  0  0
  148.1103  141.2822  155.1611 H   0  0  0  0  0  0  0  0  0  0  0  0
  151.1357  141.6840  155.1863 H   0  0  0  0  0  0  0  0  0  0  0  0
  150.6508  139.9575  157.2908 H   0  0  0  0  0  0  0  0  0  0  0  0
  149.3938  139.4570  156.1855 H   0  0  0  0  0  0  0  0  0  0  0  0
  150.5985  137.1898  155.5237 H   0  0  0  0  0  0  0  0  0  0  0  0
  153.9951  138.8554  153.8839 H   0  0  0  0  0  0  0  0  0  0  0  0
  149.5738  143.1971  156.4724 H   0  0  0  0  0  0  0  0  0  0  0  0
  152.0462  142.9595  156.8225 H   0  0  0  0  0  0  0  0  0  0  0  0
  150.8954  141.4386  159.1974 H   0  0  0  0  0  0  0  0  0  0  0  0
  151.9277  140.7862  157.9524 H   0  0  0  0  0  0  0  0  0  0  0  0
  153.2418  141.3219  159.9943 H   0  0  0  0  0  0  0  0  0  0  0  0
  153.7850  142.2469  158.6227 H   0  0  0  0  0  0  0  0  0  0  0  0
  153.6967  143.7347  160.4839 H   0  0  0  0  0  0  0  0  0  0  0  0
  150.7835  142.9848  161.0155 H   0  0  0  0  0  0  0  0  0  0  0  0
  151.7695  144.1153  161.9352 H   0  0  0  0  0  0  0  0  0  0  0  0
  152.1690  142.4110  161.9322 H   0  0  0  0  0  0  0  0  0  0  0  0
  153.0601  144.6947  158.3951 H   0  0  0  0  0  0  0  0  0  0  0  0
  151.2012  145.8918  160.4901 H   0  0  0  0  0  0  0  0  0  0  0  0
  151.8624  146.6920  159.0733 H   0  0  0  0  0  0  0  0  0  0  0  0
  152.9344  146.1979  160.3766 H   0  0  0  0  0  0  0  0  0  0  0  0
  150.7467  144.9189  157.6211 H   0  0  0  0  0  0  0  0  0  0  0  0
  150.1547  144.0124  158.9852 H   0  0  0  0  0  0  0  0  0  0  0  0
  149.4006  141.9332  157.4974 H   0  0  0  0  0  0  0  0  0  0  0  0
  1  2  1  0  0  0  0
  1 18  1  0  0  0  0
  1 19  1  0  0  0  0
  1 20  1  0  0  0  0
  2  3  1  0  0  0  0
  2  9  1  0  0  0  0
  2 21  1  0  0  0  0
  3  4  1  0  0  0  0
  3 22  1  0  0  0  0
  3 23  1  0  0  0  0
  4  8  1  0  0  0  0
  4  5  1  0  0  0  0
  5  6  2  0  0  0  0
  5 24  1  0  0  0  0
  6  7  1  0  0  0  0
  7  8  2  0  0  0  0
  7 25  1  0  0  0  0
  9 10  1  0  0  0  0
  9 26  1  0  0  0  0
  9 42  1  0  0  0  0
 10 17  1  0  0  0  0
 10 11  1  0  0  0  0
 10 27  1  0  0  0  0
 11 12  1  0  0  0  0
 11 28  1  0  0  0  0
 11 29  1  0  0  0  0
 12 13  1  0  0  0  0
 12 30  1  0  0  0  0
 12 31  1  0  0  0  0
 13 14  1  0  0  0  0
 13 15  1  0  0  0  0
 13 32  1  0  0  0  0
 14 33  1  0  0  0  0
 14 34  1  0  0  0  0
 14 35  1  0  0  0  0
 15 16  1  0  0  0  0
 15 17  1  0  0  0  0
 15 36  1  0  0  0  0
 16 37  1  0  0  0  0
 16 38  1  0  0  0  0
 16 39  1  0  0  0  0
 17 40  1  0  0  0  0
 17 41  1  0  0  0  0
M  CHG  1   9   1
M  END
> <s_m_source_file>
AV-unprocessed.smi

> <i_m_source_file_index>
3181

> <i_lp_mmshare_version>
43012

> <i_f3d_flags>
0

> <s_epik_input>
bjFbY0hdbltjSF1uMVtDSDJdW0NAQEhdKFtDSDNdKVtOSF1bQ0BASF0yW0NIMl1bQ0gyXVtDQEBIXShbQ0gzXSlbQ0BASF0oW0NIM10pW0NIMl0y

> <s_epik_cmdline>
J2VwaWtfcHl0aG9uJywgJy1waCcsICc3LjAnLCAnLXRuJywgJzgnLCAnLW1hJywgJzIwMCcsICctbWV0YWxfYmluZGluZycsICctaW1hZScsICc8aW5maWxlLm1hZT4nLCAnLW9tYWUnLCAnPG91dGZpbGUubWFlPic=

> <r_lp_tautomer_probability>
1

> <r_epik_Ionization_Penalty>
0.000617007

> <r_epik_Ionization_Penalty_Charging>
0.000616215

> <r_epik_Ionization_Penalty_Neutral>
7.92544e-07

> <r_epik_State_Penalty>
0.000388807

> <r_epik_Charging_Adjusted_Penalty>
0.00100502

> <i_epik_Tot_Q>
1

> <i_epik_Tot_abs_Q>
1

> <r_epik_Metal_State_Penalty>
-0

> <b_epik_Metal_Only>
0

> <s_lp_Force_Field>
OPLS_2005

> <r_lp_Energy>
20.1212

> <b_lp_Chiralities_Consistent>
1

> <s_lp_Variant>
AV-unprocessed.smi:3181-13

> <Gold.Version>
5.8.1

> <Gold.Id.Protein>
6NUR|6NUR_protein|mol2

> <Gold.PLP.Fitness>
50.5588

> <Gold.PLP.PLP>
-43.4616

> <Gold.PLP.part.hbond>
-3.4689

> <Gold.PLP.part.metal>
0.0000

> <Gold.PLP.part.buried>
-4.0867

> <Gold.PLP.part.nonpolar>
-36.9900

> <Gold.PLP.part.repulsive>
0.1487

> <Gold.PLP.ligand.clash>
0.0000

> <Gold.PLP.ligand.torsion>
1.2968

> <Gold.PLP.Chemscore.Hbond>
3.2160

> <Gold.PLP.Chemscore.CHOScore>
0.0000

> <Gold.PLP.Chemscore.Metal>
0.0000

> <Gold.Chemscore.Hbonds>
donor molecule, donor type, donor heavy atom, donor atom, acceptor molecule, acceptor atom, score
      L1  H     9    26       P1  8028  2.00
      P1  H  7989  7998       L1     8  0.66
      P1  H 10752 10763       L1     6  0.62

> <Gold.PLP.Chemscore.Internal.Correction>
0.0428

> <Gold.Rescore>
     Score         DG    S(hbond)    S(metal)    S(lipo)     H(rot)  DE(clash)    DE(int)     intcor
     18.44     -21.38       2.64        0.00     106.75       2.11       1.70       1.24       ----

> <Gold.Chemscore.Fitness>
18.4414

> <Gold.Chemscore.DG>
-21.3807

> <Gold.Chemscore.ZeroCoef>
-5.4800

> <Gold.Chemscore.Hbond>
2.6382

> <Gold.Chemscore.Metal>
0.0000

> <Gold.Chemscore.Lipo>
106.7481

> <Gold.Chemscore.Internal_Hbond>
0.0000

> <Gold.Chemscore.DEClash>
1.7003

> <Gold.Chemscore.DEInternal>
1.2390

> <Gold.Chemscore.Rot>
2.1095

> <Gold.Chemscore.Internal.Correction>
   9.000000E+99

> <Gold.Chemscore.Hbonds>
donor molecule, donor type, donor heavy atom, donor atom, acceptor molecule, acceptor atom, score
      L1  H     9    26       P1  8028  1.00
      P1  H  7989  7998       L1     8  0.12
      P1  H 10752 10763       L1     6  0.63

> <Gold.Chemscore.Hbond.Weighted>
-8.8115

> <Gold.Chemscore.Metal.Weighted>
-0.0000

> <Gold.Chemscore.Lipo.Weighted>
-12.4895

> <Gold.Chemscore.Internal_Hbond.Weighted>
0.0000

> <Gold.Chemscore.DEClash.Weighted>
1.7003

> <Gold.Chemscore.DEInternal.Weighted>
1.2390

> <Gold.Chemscore.Rot.Weighted>
5.4003

> <Gold.Chemscore.Internal.Correction.Weighted>
   9.000000E+99

> <Gold.Protein.RotatedTorsions>
[ 6907 6896 6895 6894 ] final  -82.28 input  -60.11 | X-H torsion
[ 7974 7965 7964 7962 ] final  178.50 input  175.53 | X-H torsion
[ 8008 7997 7996 7995 ] final  139.81 input   59.86 | X-H torsion
[ 10167 10162 10161 10158 ] final  132.76 input  -65.29 | X-H torsion
[ 10718 10713 10712 10709 ] final  -87.71 input   66.30 | X-H torsion
[ 10763 10752 10751 10750 ] final   45.87 input  -60.55 | X-H torsion
[ 11005 11000 10999 10996 ] final  116.67 input  -57.11 | X-H torsion

> <Gold.Protein.ActiveResidues>
 VAL166  LYS551  ARG553  GLY616  TRP617  ASP618  TYR619  PRO620  LYS621  CYS622 
 ASP623  PHE694  ASN695  SER759  ASP760  ASP761  ALA762  ILE779  LEU786  VAL792 
 PHE793  MET794  SER795  GLU796  ALA797  LYS798  CYS799  TRP800  GLU811  SER814 

> <Gold.Protein.RotatedAtoms>
  150.6899  134.3689  159.4983 H   0  0  0  0  0  0  0  0  0  0  0  0  # atno 6907 bound_to 6896
  152.1508  134.8987  160.0557 H   0  0  0  0  0  0  0  0  0  0  0  0  # atno 6908 bound_to 6896
  152.0085  133.3818  159.4247 H   0  0  0  0  0  0  0  0  0  0  0  0  # atno 6909 bound_to 6896
  144.7155  140.0407  143.6437 H   0  0  0  0  0  0  0  0  0  0  0  0  # atno 7974 bound_to 7965
  156.2986  140.2358  156.4299 H   0  0  0  0  0  0  0  0  0  0  0  0  # atno 8008 bound_to 7997
  154.8280  140.0434  157.1477 H   0  0  0  0  0  0  0  0  0  0  0  0  # atno 8009 bound_to 7997
  154.9240  140.3007  155.5205 H   0  0  0  0  0  0  0  0  0  0  0  0  # atno 8010 bound_to 7997
  139.5325  144.6647  151.4899 H   0  0  0  0  0  0  0  0  0  0  0  0  # atno 10167 bound_to 10162
  155.9985  130.4810  150.4909 H   0  0  0  0  0  0  0  0  0  0  0  0  # atno 10718 bound_to 10713
  152.9818  135.6026  154.3507 H   0  0  0  0  0  0  0  0  0  0  0  0  # atno 10763 bound_to 10752
  154.3196  135.2770  155.2528 H   0  0  0  0  0  0  0  0  0  0  0  0  # atno 10764 bound_to 10752
  154.4700  135.5944  153.6371 H   0  0  0  0  0  0  0  0  0  0  0  0  # atno 10765 bound_to 10752
  139.9049  134.9601  156.7233 H   0  0  0  0  0  0  0  0  0  0  0  0  # atno 11005 bound_to 11000
  146.0026  139.3104  143.0918 LP  0  0  0  0  0  0  0  0  0  0  0  0  # atno 17320 bound_to 7965
  145.8775  140.9383  143.0618 LP  0  0  0  0  0  0  0  0  0  0  0  0  # atno 17321 bound_to 7965
  140.6513  143.8691  150.6788 LP  0  0  0  0  0  0  0  0  0  0  0  0  # atno 17342 bound_to 10162
  140.2057  143.3924  152.1757 LP  0  0  0  0  0  0  0  0  0  0  0  0  # atno 17343 bound_to 10162
  157.2904  131.0625  151.2137 LP  0  0  0  0  0  0  0  0  0  0  0  0  # atno 17370 bound_to 10713
  157.3152  130.6910  149.6238 LP  0  0  0  0  0  0  0  0  0  0  0  0  # atno 17371 bound_to 10713
  140.6983  133.9329  155.8008 LP  0  0  0  0  0  0  0  0  0  0  0  0  # atno 17394 bound_to 11000
  141.0391  134.0647  157.3924 LP  0  0  0  0  0  0  0  0  0  0  0  0  # atno 17395 bound_to 11000

$$$$
