AV-unprocessed.smi:2666|AV-procd|sdf|10333|dock4
  -GOLD-   2272014353D 1   1.00000     0.00000
 Structure written by MMmdl.
 43 44  0  0  0  0  0  0  0  0  1 V2000
  149.9031  134.8251  156.0133 O   0  0  0  0  0  0  0  0  0  0  0  0
  149.5557  135.1217  154.8708 C   0  0  0  0  0  0  0  0  0  0  0  0
  149.8367  136.2813  154.2521 N   0  0  0  0  0  0  0  0  0  0  0  0
  150.6006  137.3761  154.7390 C   0  0  0  0  0  0  0  0  0  0  0  0
  151.4537  137.1535  155.8395 C   0  0  0  0  0  0  0  0  0  0  0  0
  152.2086  138.2263  156.3510 C   0  0  0  0  0  0  0  0  0  0  0  0
  152.0719  139.4899  155.7447 C   0  0  0  0  0  0  0  0  0  0  0  0
  151.2477  139.7250  154.7021 N   0  0  0  0  0  0  0  0  0  0  0  0
  150.5284  138.6908  154.2149 C   0  0  0  0  0  0  0  0  0  0  0  0
  148.8164  134.3234  154.0856 N   0  0  0  0  0  0  0  0  0  0  0  0
  148.3098  132.9937  154.4384 C   0  0  1  0  0  0  0  0  0  0  0  0
  147.2632  133.1386  155.5727 C   0  0  0  0  0  0  0  0  0  0  0  0
  145.9324  133.7930  155.1554 C   0  0  0  0  0  0  0  0  0  0  0  0
  144.8623  133.2648  155.9101 O   0  0  0  0  0  0  0  0  0  0  0  0
  147.7582  132.2816  153.1685 C   0  0  0  0  0  0  0  0  0  0  0  0
  146.8025  133.1843  152.3492 C   0  0  0  0  0  0  0  0  0  0  0  0
  146.2419  132.4732  151.1068 C   0  0  0  0  0  0  0  0  0  0  0  0
  145.5334  131.1661  151.4814 C   0  0  0  0  0  0  0  0  0  0  0  0
  146.4782  130.2471  152.2645 C   0  0  0  0  0  0  0  0  0  0  0  0
  147.0360  130.9523  153.5108 C   0  0  0  0  0  0  0  0  0  0  0  0
  149.4071  136.4194  153.3493 H   0  0  0  0  0  0  0  0  0  0  0  0
  151.5356  136.1726  156.2849 H   0  0  0  0  0  0  0  0  0  0  0  0
  152.8757  138.0844  157.1883 H   0  0  0  0  0  0  0  0  0  0  0  0
  152.6347  140.3358  156.1112 H   0  0  0  0  0  0  0  0  0  0  0  0
  149.8690  138.9455  153.3999 H   0  0  0  0  0  0  0  0  0  0  0  0
  148.5816  134.6606  153.1637 H   0  0  0  0  0  0  0  0  0  0  0  0
  149.1272  132.3798  154.8209 H   0  0  0  0  0  0  0  0  0  0  0  0
  147.0518  132.1525  155.9881 H   0  0  0  0  0  0  0  0  0  0  0  0
  147.6706  133.7279  156.3928 H   0  0  0  0  0  0  0  0  0  0  0  0
  145.9604  134.8767  155.2695 H   0  0  0  0  0  0  0  0  0  0  0  0
  145.7377  133.5937  154.1013 H   0  0  0  0  0  0  0  0  0  0  0  0
  144.3657  132.6783  155.3600 H   0  0  0  0  0  0  0  0  0  0  0  0
  148.6084  132.0364  152.5299 H   0  0  0  0  0  0  0  0  0  0  0  0
  145.9777  133.5158  152.9814 H   0  0  0  0  0  0  0  0  0  0  0  0
  147.3134  134.0842  152.0110 H   0  0  0  0  0  0  0  0  0  0  0  0
  145.5497  133.1327  150.5826 H   0  0  0  0  0  0  0  0  0  0  0  0
  147.0541  132.2615  150.4103 H   0  0  0  0  0  0  0  0  0  0  0  0
  144.6494  131.3846  152.0821 H   0  0  0  0  0  0  0  0  0  0  0  0
  145.1814  130.6609  150.5816 H   0  0  0  0  0  0  0  0  0  0  0  0
  145.9529  129.3373  152.5567 H   0  0  0  0  0  0  0  0  0  0  0  0
  147.3022  129.9352  151.6215 H   0  0  0  0  0  0  0  0  0  0  0  0
  147.7124  130.2614  154.0137 H   0  0  0  0  0  0  0  0  0  0  0  0
  146.2232  131.1483  154.2114 H   0  0  0  0  0  0  0  0  0  0  0  0
  1  2  2  0  0  0  0
  2  3  1  0  0  0  0
  2 10  1  0  0  0  0
  3  4  1  0  0  0  0
  3 21  1  0  0  0  0
  4  9  1  0  0  0  0
  4  5  2  0  0  0  0
  5  6  1  0  0  0  0
  5 22  1  0  0  0  0
  6  7  2  0  0  0  0
  6 23  1  0  0  0  0
  7  8  1  0  0  0  0
  7 24  1  0  0  0  0
  8  9  2  0  0  0  0
  9 25  1  0  0  0  0
 10 11  1  0  0  0  0
 10 26  1  0  0  0  0
 11 12  1  0  0  0  0
 11 15  1  0  0  0  0
 11 27  1  0  0  0  0
 12 13  1  0  0  0  0
 12 28  1  0  0  0  0
 12 29  1  0  0  0  0
 13 14  1  0  0  0  0
 13 30  1  0  0  0  0
 13 31  1  0  0  0  0
 14 32  1  0  0  0  0
 15 20  1  0  0  0  0
 15 16  1  0  0  0  0
 15 33  1  0  0  0  0
 16 17  1  0  0  0  0
 16 34  1  0  0  0  0
 16 35  1  0  0  0  0
 17 18  1  0  0  0  0
 17 36  1  0  0  0  0
 17 37  1  0  0  0  0
 18 19  1  0  0  0  0
 18 38  1  0  0  0  0
 18 39  1  0  0  0  0
 19 20  1  0  0  0  0
 19 40  1  0  0  0  0
 19 41  1  0  0  0  0
 20 42  1  0  0  0  0
 20 43  1  0  0  0  0
M  END
> <s_m_source_file>
AV-unprocessed.smi

> <i_m_source_file_index>
2666

> <i_lp_mmshare_version>
43012

> <i_f3d_flags>
0

> <s_epik_input>
W2NIXTFuW2NIXVtjSF1bY0hdYzFbTkhdQyg9TylbTkhdW0NASF0oW0NIMl1bQ0gyXVtPSF0pW0NIXTJbQ0gyXVtDSDJdW0NIMl1bQ0gyXVtDSDJdMg==

> <s_epik_cmdline>
J2VwaWtfcHl0aG9uJywgJy1waCcsICc3LjAnLCAnLXRuJywgJzgnLCAnLW1hJywgJzIwMCcsICctbWV0YWxfYmluZGluZycsICctaW1hZScsICc8aW5maWxlLm1hZT4nLCAnLW9tYWUnLCAnPG91dGZpbGUubWFlPic=

> <r_epik_Ionization_Penalty>
0.00500145

> <r_epik_Ionization_Penalty_Charging>
0

> <r_epik_Ionization_Penalty_Neutral>
0.00500145

> <r_epik_State_Penalty>
0.00360517

> <r_epik_Charging_Adjusted_Penalty>
0.00360517

> <i_epik_Tot_Q>
0

> <i_epik_Tot_abs_Q>
0

> <r_epik_Metal_State_Penalty>
-0

> <b_epik_Metal_Only>
0

> <s_lp_Force_Field>
OPLS_2005

> <r_lp_Energy>
18.9025

> <b_lp_Chiralities_Consistent>
1

> <s_lp_Variant>
AV-unprocessed.smi:2666-2

> <Gold.Version>
5.8.1

> <Gold.Id.Protein>
6NUR|6NUR_protein|mol2

> <Gold.PLP.Fitness>
45.3944

> <Gold.PLP.PLP>
-31.8817

> <Gold.PLP.part.hbond>
-4.9004

> <Gold.PLP.part.metal>
0.0000

> <Gold.PLP.part.buried>
-3.1857

> <Gold.PLP.part.nonpolar>
-25.0322

> <Gold.PLP.part.repulsive>
0.1513

> <Gold.PLP.ligand.clash>
0.0000

> <Gold.PLP.ligand.torsion>
0.5249

> <Gold.PLP.Chemscore.Hbond>
3.8393

> <Gold.PLP.Chemscore.CHOScore>
1.0000

> <Gold.PLP.Chemscore.Metal>
0.0000

> <Gold.Chemscore.Hbonds>
donor molecule, donor type, donor heavy atom, donor atom, acceptor molecule, acceptor atom, score
      L1  H     3    21       P1  7948  1.00
      L1  H    10    26       P1  7948  0.84
      L1  H    14    32       P1 10957  1.00
      P1  H  7989  7998       L1     8  1.00
      L1  C     9    25       P1  7957  1.00

> <Gold.PLP.Chemscore.Internal.Correction>
0.0447

> <Gold.Rescore>
     Score         DG    S(hbond)    S(metal)    S(lipo)     H(rot)  DE(clash)    DE(int)     intcor
     16.74     -18.75       2.91        0.00      78.93       2.23       0.02       1.99       ----

> <Gold.Chemscore.Fitness>
16.7403

> <Gold.Chemscore.DG>
-18.7506

> <Gold.Chemscore.ZeroCoef>
-5.4800

> <Gold.Chemscore.Hbond>
2.9137

> <Gold.Chemscore.Metal>
0.0000

> <Gold.Chemscore.Lipo>
78.9311

> <Gold.Chemscore.Internal_Hbond>
0.0000

> <Gold.Chemscore.DEClash>
0.0158

> <Gold.Chemscore.DEInternal>
1.9944

> <Gold.Chemscore.Rot>
2.2251

> <Gold.Chemscore.Internal.Correction>
   9.000000E+99

> <Gold.Chemscore.Hbonds>
donor molecule, donor type, donor heavy atom, donor atom, acceptor molecule, acceptor atom, score
      L1  H     3    21       P1  7948  0.69
      L1  H    10    26       P1  7948  0.30
      L1  H    14    32       P1 10957  0.94
      P1  H  7989  7998       L1     8  0.81

> <Gold.Chemscore.Hbond.Weighted>
-9.7318

> <Gold.Chemscore.Metal.Weighted>
-0.0000

> <Gold.Chemscore.Lipo.Weighted>
-9.2349

> <Gold.Chemscore.Internal_Hbond.Weighted>
0.0000

> <Gold.Chemscore.DEClash.Weighted>
0.0158

> <Gold.Chemscore.DEInternal.Weighted>
1.9944

> <Gold.Chemscore.Rot.Weighted>
5.6962

> <Gold.Chemscore.Internal.Correction.Weighted>
   9.000000E+99

> <Gold.Protein.RotatedTorsions>
[ 6907 6896 6895 6894 ] final   87.06 input  -60.11 | X-H torsion
[ 7974 7965 7964 7962 ] final -155.70 input  175.53 | X-H torsion
[ 8008 7997 7996 7995 ] final   93.87 input   59.86 | X-H torsion
[ 10167 10162 10161 10158 ] final -155.45 input  -65.29 | X-H torsion
[ 10718 10713 10712 10709 ] final  143.13 input   66.30 | X-H torsion
[ 10763 10752 10751 10750 ] final  144.74 input  -60.55 | X-H torsion
[ 11005 11000 10999 10996 ] final   12.18 input  -57.11 | X-H torsion

> <Gold.Protein.ActiveResidues>
 VAL166  LYS551  ARG553  GLY616  TRP617  ASP618  TYR619  PRO620  LYS621  CYS622 
 ASP623  PHE694  ASN695  SER759  ASP760  ASP761  ALA762  ILE779  LEU786  VAL792 
 PHE793  MET794  SER795  GLU796  ALA797  LYS798  CYS799  TRP800  GLU811  SER814 

> <Gold.Protein.RotatedAtoms>
  152.5405  134.2334  159.8833 H   0  0  0  0  0  0  0  0  0  0  0  0  # atno 6907 bound_to 6896
  151.2305  133.4446  159.2611 H   0  0  0  0  0  0  0  0  0  0  0  0  # atno 6908 bound_to 6896
  151.0720  134.9817  159.8369 H   0  0  0  0  0  0  0  0  0  0  0  0  # atno 6909 bound_to 6896
  144.7628  140.4213  143.5964 H   0  0  0  0  0  0  0  0  0  0  0  0  # atno 7974 bound_to 7965
  156.0516  140.3307  155.7357 H   0  0  0  0  0  0  0  0  0  0  0  0  # atno 8008 bound_to 7997
  155.5593  140.0617  157.2850 H   0  0  0  0  0  0  0  0  0  0  0  0  # atno 8009 bound_to 7997
  154.4438  140.1880  156.0754 H   0  0  0  0  0  0  0  0  0  0  0  0  # atno 8010 bound_to 7997
  139.6930  143.9388  152.2394 H   0  0  0  0  0  0  0  0  0  0  0  0  # atno 10167 bound_to 10162
  157.3726  131.0981  151.0814 H   0  0  0  0  0  0  0  0  0  0  0  0  # atno 10718 bound_to 10713
  153.9938  135.2929  155.3409 H   0  0  0  0  0  0  0  0  0  0  0  0  # atno 10763 bound_to 10752
  154.7199  135.5113  153.8799 H   0  0  0  0  0  0  0  0  0  0  0  0  # atno 10764 bound_to 10752
  153.0797  135.6675  154.0188 H   0  0  0  0  0  0  0  0  0  0  0  0  # atno 10765 bound_to 10752
  140.4949  134.0803  155.7780 H   0  0  0  0  0  0  0  0  0  0  0  0  # atno 11005 bound_to 11000
  145.6565  139.1574  143.2832 LP  0  0  0  0  0  0  0  0  0  0  0  0  # atno 17320 bound_to 7965
  146.1707  140.6650  142.9234 LP  0  0  0  0  0  0  0  0  0  0  0  0  # atno 17321 bound_to 7965
  139.9210  144.6800  150.8462 LP  0  0  0  0  0  0  0  0  0  0  0  0  # atno 17342 bound_to 10162
  140.7688  143.3375  151.2278 LP  0  0  0  0  0  0  0  0  0  0  0  0  # atno 17343 bound_to 10162
  157.1913  130.6353  149.5705 LP  0  0  0  0  0  0  0  0  0  0  0  0  # atno 17370 bound_to 10713
  155.9758  130.4721  150.6488 LP  0  0  0  0  0  0  0  0  0  0  0  0  # atno 17371 bound_to 10713
  141.1465  133.9045  157.2202 LP  0  0  0  0  0  0  0  0  0  0  0  0  # atno 17394 bound_to 11000
  139.9747  135.0117  156.9601 LP  0  0  0  0  0  0  0  0  0  0  0  0  # atno 17395 bound_to 11000

$$$$
