AV-unprocessed.smi:2728|AV-procd|sdf|10525|dock1
  -GOLD-   2272014563D 1   1.00000     0.00000
 Structure written by MMmdl.
 34 35  0  0  0  0  0  0  0  0  1 V2000
  146.9104  139.0038  154.3930 O   0  0  0  0  0  0  0  0  0  0  0  0
  147.6843  139.1884  153.4530 C   0  0  0  0  0  0  0  0  0  0  0  0
  147.4204  138.8100  152.1938 N   0  0  0  0  0  0  0  0  0  0  0  0
  146.1977  138.1448  151.7590 C   0  0  0  0  0  0  0  0  0  0  0  0
  145.7758  137.0397  152.7419 C   0  0  0  0  0  0  0  0  0  0  0  0
  145.1290  135.8582  152.0461 C   0  0  0  0  0  0  0  0  0  0  0  0
  145.1133  135.6206  150.7353 C   0  0  0  0  0  0  0  0  0  0  0  0
  144.4005  134.3432  150.3856 C   0  0  0  0  0  0  0  0  0  0  0  0
  143.9406  133.7853  151.7510 C   0  0  0  0  0  0  0  0  0  0  0  0
  144.4321  134.7760  152.8304 C   0  0  0  0  0  0  0  0  0  0  0  0
  148.8869  139.7843  153.5402 N   0  0  0  0  0  0  0  0  0  0  0  0
  149.5118  140.3377  154.6896 C   0  0  0  0  0  0  0  0  0  0  0  0
  148.6454  141.0277  155.5679 C   0  0  0  0  0  0  0  0  0  0  0  0
  149.1663  141.6104  156.7398 C   0  0  0  0  0  0  0  0  0  0  0  0
  150.5424  141.4873  157.0015 C   0  0  0  0  0  0  0  0  0  0  0  0
  151.0885  142.0301  158.1155 F   0  0  0  0  0  0  0  0  0  0  0  0
  151.3367  140.7857  156.0760 C   0  0  0  0  0  0  0  0  0  0  0  0
  150.8385  140.2266  154.9526 N   0  0  0  0  0  0  0  0  0  0  0  0
  148.1118  138.9997  151.4831 H   0  0  0  0  0  0  0  0  0  0  0  0
  145.4000  138.8789  151.6328 H   0  0  0  0  0  0  0  0  0  0  0  0
  146.3813  137.7138  150.7744 H   0  0  0  0  0  0  0  0  0  0  0  0
  146.6475  136.6874  153.2953 H   0  0  0  0  0  0  0  0  0  0  0  0
  145.0743  137.4319  153.4793 H   0  0  0  0  0  0  0  0  0  0  0  0
  145.5585  136.2531  149.9814 H   0  0  0  0  0  0  0  0  0  0  0  0
  143.5565  134.5493  149.7270 H   0  0  0  0  0  0  0  0  0  0  0  0
  145.0812  133.6595  149.8781 H   0  0  0  0  0  0  0  0  0  0  0  0
  142.8544  133.6938  151.7809 H   0  0  0  0  0  0  0  0  0  0  0  0
  144.3535  132.7905  151.9216 H   0  0  0  0  0  0  0  0  0  0  0  0
  145.1300  134.3037  153.5223 H   0  0  0  0  0  0  0  0  0  0  0  0
  143.5999  135.1869  153.4026 H   0  0  0  0  0  0  0  0  0  0  0  0
  149.4126  139.8595  152.6821 H   0  0  0  0  0  0  0  0  0  0  0  0
  147.5903  141.1110  155.3510 H   0  0  0  0  0  0  0  0  0  0  0  0
  148.5210  142.1408  157.4243 H   0  0  0  0  0  0  0  0  0  0  0  0
  152.3976  140.6692  156.2407 H   0  0  0  0  0  0  0  0  0  0  0  0
  1  2  2  0  0  0  0
  2  3  1  0  0  0  0
  2 11  1  0  0  0  0
  3  4  1  0  0  0  0
  3 19  1  0  0  0  0
  4  5  1  0  0  0  0
  4 20  1  0  0  0  0
  4 21  1  0  0  0  0
  5  6  1  0  0  0  0
  5 22  1  0  0  0  0
  5 23  1  0  0  0  0
  6 10  1  0  0  0  0
  6  7  2  0  0  0  0
  7  8  1  0  0  0  0
  7 24  1  0  0  0  0
  8  9  1  0  0  0  0
  8 25  1  0  0  0  0
  8 26  1  0  0  0  0
  9 10  1  0  0  0  0
  9 27  1  0  0  0  0
  9 28  1  0  0  0  0
 10 29  1  0  0  0  0
 10 30  1  0  0  0  0
 11 12  1  0  0  0  0
 11 31  1  0  0  0  0
 12 18  1  0  0  0  0
 12 13  2  0  0  0  0
 13 14  1  0  0  0  0
 13 32  1  0  0  0  0
 14 15  2  0  0  0  0
 14 33  1  0  0  0  0
 15 16  1  0  0  0  0
 15 17  1  0  0  0  0
 17 18  2  0  0  0  0
 17 34  1  0  0  0  0
M  END
> <s_m_source_file>
AV-unprocessed.smi

> <i_m_source_file_index>
2728

> <i_lp_mmshare_version>
43012

> <i_f3d_flags>
0

> <s_epik_input>
bjFbY0hdYyhGKVtjSF1bY0hdYzFbTkhdQyg9TylbTkhdW0NIMl1bQ0gyXUMyPVtDSF1bQ0gyXVtDSDJdW0NIMl0y

> <s_epik_cmdline>
J2VwaWtfcHl0aG9uJywgJy1waCcsICc3LjAnLCAnLXRuJywgJzgnLCAnLW1hJywgJzIwMCcsICctbWV0YWxfYmluZGluZycsICctaW1hZScsICc8aW5maWxlLm1hZT4nLCAnLW9tYWUnLCAnPG91dGZpbGUubWFlPic=

> <r_lp_tautomer_probability>
1

> <r_epik_Ionization_Penalty>
3.75783e-05

> <r_epik_Ionization_Penalty_Charging>
0

> <r_epik_Ionization_Penalty_Neutral>
3.75783e-05

> <r_epik_State_Penalty>
-0

> <r_epik_Charging_Adjusted_Penalty>
0

> <i_epik_Tot_Q>
0

> <i_epik_Tot_abs_Q>
0

> <r_epik_Metal_State_Penalty>
-0

> <b_epik_Metal_Only>
0

> <s_lp_Force_Field>
OPLS_2005

> <r_lp_Energy>
20.4042

> <b_lp_Chiralities_Consistent>
1

> <s_lp_Variant>
AV-unprocessed.smi:2728-1

> <Gold.Version>
5.8.1

> <Gold.Id.Protein>
6NUR|6NUR_protein|mol2

> <Gold.PLP.Fitness>
41.3819

> <Gold.PLP.PLP>
-34.2826

> <Gold.PLP.part.hbond>
-3.8459

> <Gold.PLP.part.metal>
0.0000

> <Gold.PLP.part.buried>
-4.0911

> <Gold.PLP.part.nonpolar>
-27.8999

> <Gold.PLP.part.repulsive>
0.3893

> <Gold.PLP.ligand.clash>
0.0000

> <Gold.PLP.ligand.torsion>
0.7506

> <Gold.PLP.Chemscore.Hbond>
2.8640

> <Gold.PLP.Chemscore.CHOScore>
0.0000

> <Gold.PLP.Chemscore.Metal>
0.0000

> <Gold.Chemscore.Hbonds>
donor molecule, donor type, donor heavy atom, donor atom, acceptor molecule, acceptor atom, score
      L1  H     3    19       P1  7957  0.86
      L1  H    11    31       P1  7957  1.00
      P1  H  7989  7998       L1    18  1.00

> <Gold.PLP.Chemscore.Internal.Correction>
0.0086

> <Gold.Rescore>
     Score         DG    S(hbond)    S(metal)    S(lipo)     H(rot)  DE(clash)    DE(int)     intcor
     14.31     -17.76       2.73        0.00      59.46       1.48       0.16       3.29       ----

> <Gold.Chemscore.Fitness>
14.3075

> <Gold.Chemscore.DG>
-17.7559

> <Gold.Chemscore.ZeroCoef>
-5.4800

> <Gold.Chemscore.Hbond>
2.7282

> <Gold.Chemscore.Metal>
0.0000

> <Gold.Chemscore.Lipo>
59.4607

> <Gold.Chemscore.Internal_Hbond>
0.0000

> <Gold.Chemscore.DEClash>
0.1584

> <Gold.Chemscore.DEInternal>
3.2900

> <Gold.Chemscore.Rot>
1.4818

> <Gold.Chemscore.Internal.Correction>
   9.000000E+99

> <Gold.Chemscore.Hbonds>
donor molecule, donor type, donor heavy atom, donor atom, acceptor molecule, acceptor atom, score
      L1  H     3    19       P1  7957  0.63
      L1  H    11    31       P1  7957  0.93
      P1  H  7989  7998       L1    18  0.35

> <Gold.Chemscore.Hbond.Weighted>
-9.1123

> <Gold.Chemscore.Metal.Weighted>
-0.0000

> <Gold.Chemscore.Lipo.Weighted>
-6.9569

> <Gold.Chemscore.Internal_Hbond.Weighted>
0.0000

> <Gold.Chemscore.DEClash.Weighted>
0.1584

> <Gold.Chemscore.DEInternal.Weighted>
3.2900

> <Gold.Chemscore.Rot.Weighted>
3.7933

> <Gold.Chemscore.Internal.Correction.Weighted>
   9.000000E+99

> <Gold.Protein.RotatedTorsions>
[ 6907 6896 6895 6894 ] final   13.97 input  -60.11 | X-H torsion
[ 7974 7965 7964 7962 ] final   53.38 input  175.53 | X-H torsion
[ 8008 7997 7996 7995 ] final   -8.09 input   59.86 | X-H torsion
[ 10167 10162 10161 10158 ] final   15.10 input  -65.29 | X-H torsion
[ 10718 10713 10712 10709 ] final  144.52 input   66.30 | X-H torsion
[ 10763 10752 10751 10750 ] final  111.44 input  -60.55 | X-H torsion
[ 11005 11000 10999 10996 ] final    8.33 input  -57.11 | X-H torsion

> <Gold.Protein.ActiveResidues>
 VAL166  LYS551  ARG553  GLY616  TRP617  ASP618  TYR619  PRO620  LYS621  CYS622 
 ASP623  PHE694  ASN695  SER759  ASP760  ASP761  ALA762  ILE779  LEU786  VAL792 
 PHE793  MET794  SER795  GLU796  ALA797  LYS798  CYS799  TRP800  GLU811  SER814 

> <Gold.Protein.RotatedAtoms>
  151.7948  135.0725  160.0391 H   0  0  0  0  0  0  0  0  0  0  0  0  # atno 6907 bound_to 6896
  152.3131  133.5769  159.5702 H   0  0  0  0  0  0  0  0  0  0  0  0  # atno 6908 bound_to 6896
  150.7330  134.0039  159.3689 H   0  0  0  0  0  0  0  0  0  0  0  0  # atno 6909 bound_to 6896
  145.9717  139.4156  143.0186 H   0  0  0  0  0  0  0  0  0  0  0  0  # atno 7974 bound_to 7965
  154.5775  140.2390  155.8101 H   0  0  0  0  0  0  0  0  0  0  0  0  # atno 8008 bound_to 7997
  156.2154  140.3014  155.9784 H   0  0  0  0  0  0  0  0  0  0  0  0  # atno 8009 bound_to 7997
  155.2601  140.0414  157.2987 H   0  0  0  0  0  0  0  0  0  0  0  0  # atno 8010 bound_to 7997
  140.5890  143.8832  150.6856 H   0  0  0  0  0  0  0  0  0  0  0  0  # atno 10167 bound_to 10162
  157.3562  131.0958  151.0956 H   0  0  0  0  0  0  0  0  0  0  0  0  # atno 10718 bound_to 10713
  153.4634  135.3717  155.2351 H   0  0  0  0  0  0  0  0  0  0  0  0  # atno 10763 bound_to 10752
  154.8757  135.3914  154.3898 H   0  0  0  0  0  0  0  0  0  0  0  0  # atno 10764 bound_to 10752
  153.4475  135.7085  153.6194 H   0  0  0  0  0  0  0  0  0  0  0  0  # atno 10765 bound_to 10752
  140.5382  134.0400  155.7895 H   0  0  0  0  0  0  0  0  0  0  0  0  # atno 11005 bound_to 11000
  145.7896  140.9820  143.1056 LP  0  0  0  0  0  0  0  0  0  0  0  0  # atno 17320 bound_to 7965
  144.6838  139.9666  143.7481 LP  0  0  0  0  0  0  0  0  0  0  0  0  # atno 17321 bound_to 7965
  140.2351  143.3706  152.1534 LP  0  0  0  0  0  0  0  0  0  0  0  0  # atno 17342 bound_to 10162
  139.5216  144.7047  151.5388 LP  0  0  0  0  0  0  0  0  0  0  0  0  # atno 17343 bound_to 10162
  157.2113  130.6439  149.5775 LP  0  0  0  0  0  0  0  0  0  0  0  0  # atno 17370 bound_to 10713
  155.9729  130.4659  150.6269 LP  0  0  0  0  0  0  0  0  0  0  0  0  # atno 17371 bound_to 10713
  141.1242  133.9410  157.2668 LP  0  0  0  0  0  0  0  0  0  0  0  0  # atno 17394 bound_to 11000
  139.9518  135.0174  156.9015 LP  0  0  0  0  0  0  0  0  0  0  0  0  # atno 17395 bound_to 11000

$$$$
