AV-unprocessed.smi:570|AV-procd|sdf|2962|dock3
  -GOLD-   2262023463D 1   1.00000     0.00000
 Structure written by MMmdl.
 39 40  0  0  0  0  0  0  0  0  2 V2000
  156.0965  139.3908  161.7518 C   0  0  0  0  0  0  0  0  0  0  0  0
  154.7161  139.6895  161.8612 O   0  0  0  0  0  0  0  0  0  0  0  0
  154.2465  140.5029  160.7940 C   0  0  0  0  0  0  0  0  0  0  0  0
  154.5470  139.8523  159.4274 C   0  0  0  0  0  0  0  0  0  0  0  0
  153.5324  138.7835  158.9708 C   0  0  0  0  0  0  0  0  0  0  0  0
  153.7353  138.4848  157.5563 N   0  5  0  0  0  0  0  0  0  0  0  0
  152.7244  138.3655  156.6462 C   0  0  0  0  0  0  0  0  0  0  0  0
  152.4256  137.3969  155.9384 O   0  0  0  0  0  0  0  0  0  0  0  0
  151.8910  139.6238  156.5382 C   0  0  0  0  0  0  0  0  0  0  0  0
  152.1577  140.6341  157.4053 N   0  0  0  0  0  0  0  0  0  0  0  0
  151.4299  141.7536  157.3472 C   0  0  0  0  0  0  0  0  0  0  0  0
  151.7397  142.7754  158.2544 N   0  0  0  0  0  0  0  0  0  0  0  0
  152.8141  142.6389  159.2406 C   0  0  0  0  0  0  0  0  0  0  0  0
  152.4874  143.4312  160.5178 C   0  0  0  0  0  0  0  0  0  0  0  0
  152.2234  144.7892  160.1879 O   0  0  0  0  0  0  0  0  0  0  0  0
  151.0952  144.9072  159.3299 C   0  0  0  0  0  0  0  0  0  0  0  0
  151.3645  144.1701  158.0072 C   0  0  0  0  0  0  0  0  0  0  0  0
  150.4286  141.9686  156.4867 N   0  0  0  0  0  0  0  0  0  0  0  0
  150.1395  140.9860  155.6095 C   0  0  0  0  0  0  0  0  0  0  0  0
  150.8479  139.7695  155.5834 C   0  0  0  0  0  0  0  0  0  0  0  0
  150.4358  138.5762  154.3986 Cl  0  0  0  0  0  0  0  0  0  0  0  0
  156.4032  138.7655  162.5902 H   0  0  0  0  0  0  0  0  0  0  0  0
  156.6997  140.2993  161.7712 H   0  0  0  0  0  0  0  0  0  0  0  0
  156.3104  138.8472  160.8307 H   0  0  0  0  0  0  0  0  0  0  0  0
  153.1661  140.6155  160.8950 H   0  0  0  0  0  0  0  0  0  0  0  0
  154.6698  141.5079  160.8602 H   0  0  0  0  0  0  0  0  0  0  0  0
  154.6238  140.6353  158.6716 H   0  0  0  0  0  0  0  0  0  0  0  0
  155.5341  139.3909  159.4820 H   0  0  0  0  0  0  0  0  0  0  0  0
  153.6535  137.8927  159.5883 H   0  0  0  0  0  0  0  0  0  0  0  0
  152.5233  139.1482  159.1668 H   0  0  0  0  0  0  0  0  0  0  0  0
  152.9896  141.6002  159.5182 H   0  0  0  0  0  0  0  0  0  0  0  0
  153.7402  143.0078  158.7986 H   0  0  0  0  0  0  0  0  0  0  0  0
  151.6310  142.9970  161.0367 H   0  0  0  0  0  0  0  0  0  0  0  0
  153.3300  143.3926  161.2082 H   0  0  0  0  0  0  0  0  0  0  0  0
  150.2053  144.5102  159.8211 H   0  0  0  0  0  0  0  0  0  0  0  0
  150.9063  145.9630  159.1365 H   0  0  0  0  0  0  0  0  0  0  0  0
  152.1735  144.6581  157.4627 H   0  0  0  0  0  0  0  0  0  0  0  0
  150.4714  144.2503  157.3874 H   0  0  0  0  0  0  0  0  0  0  0  0
  149.3355  141.1774  154.9143 H   0  0  0  0  0  0  0  0  0  0  0  0
  1  2  1  0  0  0  0
  1 22  1  0  0  0  0
  1 23  1  0  0  0  0
  1 24  1  0  0  0  0
  2  3  1  0  0  0  0
  3  4  1  0  0  0  0
  3 25  1  0  0  0  0
  3 26  1  0  0  0  0
  4  5  1  0  0  0  0
  4 27  1  0  0  0  0
  4 28  1  0  0  0  0
  5  6  1  0  0  0  0
  5 29  1  0  0  0  0
  5 30  1  0  0  0  0
  6  7  1  0  0  0  0
  7  8  2  0  0  0  0
  7  9  1  0  0  0  0
  9 20  1  0  0  0  0
  9 10  2  0  0  0  0
 10 11  1  0  0  0  0
 11 12  1  0  0  0  0
 11 18  2  0  0  0  0
 12 17  1  0  0  0  0
 12 13  1  0  0  0  0
 13 14  1  0  0  0  0
 13 31  1  0  0  0  0
 13 32  1  0  0  0  0
 14 15  1  0  0  0  0
 14 33  1  0  0  0  0
 14 34  1  0  0  0  0
 15 16  1  0  0  0  0
 16 17  1  0  0  0  0
 16 35  1  0  0  0  0
 16 36  1  0  0  0  0
 17 37  1  0  0  0  0
 17 38  1  0  0  0  0
 18 19  1  0  0  0  0
 19 20  2  0  0  0  0
 19 39  1  0  0  0  0
 20 21  1  0  0  0  0
M  CHG  1   6  -1
M  END
> <s_m_source_file>
AV-unprocessed.smi

> <i_m_source_file_index>
570

> <i_lp_mmshare_version>
43012

> <i_f3d_flags>
0

> <s_epik_input>
W0NIM11PW0NIMl1bQ0gyXVtDSDJdW05IXUMoPU8pYzFuYyhuW2NIXWMxQ2wpTjJbQ0gyXVtDSDJdT1tDSDJdW0NIMl0y

> <s_epik_cmdline>
J2VwaWtfcHl0aG9uJywgJy1waCcsICc3LjAnLCAnLXRuJywgJzgnLCAnLW1hJywgJzIwMCcsICctbWV0YWxfYmluZGluZycsICctaW1hZScsICc8aW5maWxlLm1hZT4nLCAnLW9tYWUnLCAnPG91dGZpbGUubWFlPic=

> <r_lp_tautomer_probability>
1

> <r_epik_Ionization_Penalty>
6.0123

> <r_epik_Ionization_Penalty_Charging>
6.01228

> <r_epik_Ionization_Penalty_Neutral>
2.47988e-05

> <r_epik_State_Penalty>
6.01226

> <r_epik_Charging_Adjusted_Penalty>
12.0245

> <i_epik_Tot_Q>
-1

> <i_epik_Tot_abs_Q>
1

> <r_epik_Metal_State_Penalty>
1.96418

> <b_epik_Metal_Only>
1

> <s_lp_Force_Field>
OPLS_2005

> <r_lp_Energy>
20.8632

> <b_lp_Chiralities_Consistent>
1

> <s_lp_Variant>
AV-unprocessed.smi:570-2

> <Gold.Version>
5.8.1

> <Gold.Id.Protein>
6NUR|6NUR_protein|mol2

> <Gold.PLP.Fitness>
45.1247

> <Gold.PLP.PLP>
-39.4887

> <Gold.PLP.part.hbond>
-2.4464

> <Gold.PLP.part.metal>
0.0000

> <Gold.PLP.part.buried>
-3.3975

> <Gold.PLP.part.nonpolar>
-33.2321

> <Gold.PLP.part.repulsive>
0.1912

> <Gold.PLP.ligand.clash>
0.0000

> <Gold.PLP.ligand.torsion>
0.9330

> <Gold.PLP.Chemscore.Hbond>
2.4073

> <Gold.PLP.Chemscore.CHOScore>
0.0000

> <Gold.PLP.Chemscore.Metal>
0.0000

> <Gold.Chemscore.Hbonds>
donor molecule, donor type, donor heavy atom, donor atom, acceptor molecule, acceptor atom, score
      P1  H  7997  8009       L1     6  1.76
      P1  H 10752 10764       L1     8  0.41

> <Gold.PLP.Chemscore.Internal.Correction>
0.2802

> <Gold.Rescore>
     Score         DG    S(hbond)    S(metal)    S(lipo)     H(rot)  DE(clash)    DE(int)     intcor
     14.22     -16.81       1.34        0.00      93.59       1.59       0.00       2.58       ----

> <Gold.Chemscore.Fitness>
14.2188

> <Gold.Chemscore.DG>
-16.8063

> <Gold.Chemscore.ZeroCoef>
-5.4800

> <Gold.Chemscore.Hbond>
1.3352

> <Gold.Chemscore.Metal>
0.0000

> <Gold.Chemscore.Lipo>
93.5854

> <Gold.Chemscore.Internal_Hbond>
0.0000

> <Gold.Chemscore.DEClash>
0.0038

> <Gold.Chemscore.DEInternal>
2.5837

> <Gold.Chemscore.Rot>
1.5949

> <Gold.Chemscore.Internal.Correction>
   9.000000E+99

> <Gold.Chemscore.Hbonds>
donor molecule, donor type, donor heavy atom, donor atom, acceptor molecule, acceptor atom, score
      P1  H  7997  8009       L1     6  0.10
      P1  H 10752 10764       L1     8  0.41

> <Gold.Chemscore.Hbond.Weighted>
-4.4597

> <Gold.Chemscore.Metal.Weighted>
-0.0000

> <Gold.Chemscore.Lipo.Weighted>
-10.9495

> <Gold.Chemscore.Internal_Hbond.Weighted>
0.0000

> <Gold.Chemscore.DEClash.Weighted>
0.0038

> <Gold.Chemscore.DEInternal.Weighted>
2.5837

> <Gold.Chemscore.Rot.Weighted>
4.0830

> <Gold.Chemscore.Internal.Correction.Weighted>
   9.000000E+99

> <Gold.Protein.RotatedTorsions>
[ 6907 6896 6895 6894 ] final   40.09 input  -60.11 | X-H torsion
[ 7974 7965 7964 7962 ] final  173.11 input  175.53 | X-H torsion
[ 8008 7997 7996 7995 ] final  146.50 input   59.86 | X-H torsion
[ 10167 10162 10161 10158 ] final -123.09 input  -65.29 | X-H torsion
[ 10718 10713 10712 10709 ] final   -1.41 input   66.30 | X-H torsion
[ 10763 10752 10751 10750 ] final  -35.87 input  -60.55 | X-H torsion
[ 11005 11000 10999 10996 ] final  -12.44 input  -57.11 | X-H torsion

> <Gold.Protein.ActiveResidues>
 VAL166  LYS551  ARG553  GLY616  TRP617  ASP618  TYR619  PRO620  LYS621  CYS622 
 ASP623  PHE694  ASN695  SER759  ASP760  ASP761  ALA762  ILE779  LEU786  VAL792 
 PHE793  MET794  SER795  GLU796  ALA797  LYS798  CYS799  TRP800  GLU811  SER814 

> <Gold.Protein.RotatedAtoms>
  152.1781  134.8778  160.0528 H   0  0  0  0  0  0  0  0  0  0  0  0  # atno 6907 bound_to 6896
  151.9712  133.3721  159.4080 H   0  0  0  0  0  0  0  0  0  0  0  0  # atno 6908 bound_to 6896
  150.6913  134.4061  159.5184 H   0  0  0  0  0  0  0  0  0  0  0  0  # atno 6909 bound_to 6896
  144.7251  139.9599  143.6434 H   0  0  0  0  0  0  0  0  0  0  0  0  # atno 7974 bound_to 7965
  156.2853  140.2181  156.5387 H   0  0  0  0  0  0  0  0  0  0  0  0  # atno 8008 bound_to 7997
  154.7388  140.0489  157.0815 H   0  0  0  0  0  0  0  0  0  0  0  0  # atno 8009 bound_to 7997
  155.0257  140.3129  155.4780 H   0  0  0  0  0  0  0  0  0  0  0  0  # atno 8010 bound_to 7997
  140.0072  143.5479  152.2278 H   0  0  0  0  0  0  0  0  0  0  0  0  # atno 10167 bound_to 10162
  156.8059  130.5408  149.5715 H   0  0  0  0  0  0  0  0  0  0  0  0  # atno 10718 bound_to 10713
  153.8703  135.6831  153.4775 H   0  0  0  0  0  0  0  0  0  0  0  0  # atno 10763 bound_to 10752
  153.1291  135.4706  154.9317 H   0  0  0  0  0  0  0  0  0  0  0  0  # atno 10764 bound_to 10752
  154.7717  135.3240  154.8126 H   0  0  0  0  0  0  0  0  0  0  0  0  # atno 10765 bound_to 10752
  140.7657  133.8478  155.9163 H   0  0  0  0  0  0  0  0  0  0  0  0  # atno 11005 bound_to 11000
  146.0645  139.3637  143.0560 LP  0  0  0  0  0  0  0  0  0  0  0  0  # atno 17320 bound_to 7965
  145.8048  140.9754  143.0979 LP  0  0  0  0  0  0  0  0  0  0  0  0  # atno 17321 bound_to 7965
  139.6230  144.7632  151.2699 LP  0  0  0  0  0  0  0  0  0  0  0  0  # atno 17342 bound_to 10162
  140.7396  143.6614  150.8161 LP  0  0  0  0  0  0  0  0  0  0  0  0  # atno 17343 bound_to 10162
  156.1073  130.6014  150.9991 LP  0  0  0  0  0  0  0  0  0  0  0  0  # atno 17370 bound_to 10713
  157.6530  131.0894  150.8009 LP  0  0  0  0  0  0  0  0  0  0  0  0  # atno 17371 bound_to 10713
  140.9621  134.1642  157.4646 LP  0  0  0  0  0  0  0  0  0  0  0  0  # atno 17394 bound_to 11000
  139.8763  134.9948  156.5713 LP  0  0  0  0  0  0  0  0  0  0  0  0  # atno 17395 bound_to 11000

$$$$
