AV-unprocessed.smi:1873|AV-procd|sdf|7609|dock7
  -GOLD-   22720 9333D 1   1.00000     0.00000
 Structure written by MMmdl.
 37 39  0  0  0  0  0  0  0  0  2 V2000
  150.5204  139.4327  153.8850 O   0  0  0  0  0  0  0  0  0  0  0  0
  149.8970  138.9369  155.0543 C   0  0  2  0  0  0  0  0  0  0  0  0
  150.7299  139.3301  156.2904 C   0  0  0  0  0  0  0  0  0  0  0  0
  150.7157  140.7758  156.5451 N   0  0  0  0  0  0  0  0  0  0  0  0
  150.0147  141.7664  155.9300 C   0  0  0  0  0  0  0  0  0  0  0  0
  150.3397  142.9396  156.5411 N   0  3  0  0  0  0  0  0  0  0  0  0
  151.2626  142.6947  157.5606 C   0  0  0  0  0  0  0  0  0  0  0  0
  151.8850  143.5592  158.4558 C   0  0  0  0  0  0  0  0  0  0  0  0
  152.7811  142.9783  159.3776 C   0  0  0  0  0  0  0  0  0  0  0  0
  153.0289  141.5900  159.3868 C   0  0  0  0  0  0  0  0  0  0  0  0
  152.3914  140.7226  158.4755 C   0  0  0  0  0  0  0  0  0  0  0  0
  151.5085  141.3055  157.5675 C   0  0  0  0  0  0  0  0  0  0  0  0
  149.6687  137.4354  154.9941 C   0  0  0  0  0  0  0  0  0  0  0  0
  150.7506  136.5488  154.8078 C   0  0  0  0  0  0  0  0  0  0  0  0
  150.5286  135.1589  154.7614 C   0  0  0  0  0  0  0  0  0  0  0  0
  149.2289  134.6342  154.9097 C   0  0  0  0  0  0  0  0  0  0  0  0
  149.0742  133.2681  154.8428 O   0  0  0  0  0  0  0  0  0  0  0  0
  149.3643  132.6220  153.6822 C   0  0  0  0  0  0  0  0  0  0  0  0
  149.2507  131.2809  153.8452 F   0  0  0  0  0  0  0  0  0  0  0  0
  148.4858  132.9926  152.7197 F   0  0  0  0  0  0  0  0  0  0  0  0
  148.1443  135.5260  155.0881 C   0  0  0  0  0  0  0  0  0  0  0  0
  148.3652  136.9158  155.1347 C   0  0  0  0  0  0  0  0  0  0  0  0
  149.9106  139.3592  153.1666 H   0  0  0  0  0  0  0  0  0  0  0  0
  148.9234  139.4248  155.1151 H   0  0  0  0  0  0  0  0  0  0  0  0
  150.3683  138.8199  157.1843 H   0  0  0  0  0  0  0  0  0  0  0  0
  151.7708  139.0294  156.1623 H   0  0  0  0  0  0  0  0  0  0  0  0
  149.3214  141.6426  155.1103 H   0  0  0  0  0  0  0  0  0  0  0  0
  151.6968  144.6229  158.4517 H   0  0  0  0  0  0  0  0  0  0  0  0
  153.2882  143.6106  160.0921 H   0  0  0  0  0  0  0  0  0  0  0  0
  153.7225  141.1817  160.1078 H   0  0  0  0  0  0  0  0  0  0  0  0
  152.5864  139.6605  158.4902 H   0  0  0  0  0  0  0  0  0  0  0  0
  151.7552  136.9312  154.7009 H   0  0  0  0  0  0  0  0  0  0  0  0
  151.3637  134.4895  154.6155 H   0  0  0  0  0  0  0  0  0  0  0  0
  150.3671  132.8609  153.3270 H   0  0  0  0  0  0  0  0  0  0  0  0
  147.1341  135.1571  155.1856 H   0  0  0  0  0  0  0  0  0  0  0  0
  147.5265  137.5814  155.2767 H   0  0  0  0  0  0  0  0  0  0  0  0
  149.9563  143.8391  156.2802 H   0  0  0  0  0  0  0  0  0  0  0  0
  1  2  1  0  0  0  0
  1 23  1  0  0  0  0
  2  3  1  0  0  0  0
  2 13  1  0  0  0  0
  2 24  1  0  0  0  0
  3  4  1  0  0  0  0
  3 25  1  0  0  0  0
  3 26  1  0  0  0  0
  4 12  1  0  0  0  0
  4  5  1  0  0  0  0
  5  6  2  0  0  0  0
  5 27  1  0  0  0  0
  6  7  1  0  0  0  0
  6 37  1  0  0  0  0
  7 12  2  0  0  0  0
  7  8  1  0  0  0  0
  8  9  2  0  0  0  0
  8 28  1  0  0  0  0
  9 10  1  0  0  0  0
  9 29  1  0  0  0  0
 10 11  2  0  0  0  0
 10 30  1  0  0  0  0
 11 12  1  0  0  0  0
 11 31  1  0  0  0  0
 13 22  1  0  0  0  0
 13 14  2  0  0  0  0
 14 15  1  0  0  0  0
 14 32  1  0  0  0  0
 15 16  2  0  0  0  0
 15 33  1  0  0  0  0
 16 17  1  0  0  0  0
 16 21  1  0  0  0  0
 17 18  1  0  0  0  0
 18 19  1  0  0  0  0
 18 20  1  0  0  0  0
 18 34  1  0  0  0  0
 21 22  2  0  0  0  0
 21 35  1  0  0  0  0
 22 36  1  0  0  0  0
M  CHG  1   6   1
M  END
> <s_m_source_file>
AV-unprocessed.smi

> <i_m_source_file_index>
1873

> <i_lp_mmshare_version>
43012

> <i_f3d_flags>
0

> <s_epik_input>
RltDSF0oRilPYyhbY0hdW2NIXTEpW2NIXVtjSF1jMVtDQEhdKFtPSF0pW0NIMl1uKFtjSF1uMiljKGMyMylbY0hdW2NIXVtjSF1bY0hdMw==

> <s_epik_cmdline>
J2VwaWtfcHl0aG9uJywgJy1waCcsICc3LjAnLCAnLXRuJywgJzgnLCAnLW1hJywgJzIwMCcsICctbWV0YWxfYmluZGluZycsICctaW1hZScsICc8aW5maWxlLm1hZT4nLCAnLW9tYWUnLCAnPG91dGZpbGUubWFlPic=

> <r_lp_tautomer_probability>
1

> <r_epik_Ionization_Penalty>
1.3029

> <r_epik_Ionization_Penalty_Charging>
1.3029

> <r_epik_Ionization_Penalty_Neutral>
2.50501e-07

> <r_epik_State_Penalty>
1.377

> <r_epik_Charging_Adjusted_Penalty>
2.6799

> <i_epik_Tot_Q>
1

> <i_epik_Tot_abs_Q>
1

> <r_epik_Metal_State_Penalty>
5.40879

> <b_epik_Metal_Only>
0

> <s_lp_Force_Field>
OPLS_2005

> <r_lp_Energy>
14.9016

> <b_lp_Chiralities_Consistent>
1

> <s_lp_Variant>
AV-unprocessed.smi:1873-3

> <Gold.Version>
5.8.1

> <Gold.Id.Protein>
6NUR|6NUR_protein|mol2

> <Gold.PLP.Fitness>
52.4473

> <Gold.PLP.PLP>
-41.8347

> <Gold.PLP.part.hbond>
-2.8231

> <Gold.PLP.part.metal>
0.0000

> <Gold.PLP.part.buried>
-4.0875

> <Gold.PLP.part.nonpolar>
-35.9025

> <Gold.PLP.part.repulsive>
0.1239

> <Gold.PLP.ligand.clash>
0.0000

> <Gold.PLP.ligand.torsion>
0.1606

> <Gold.PLP.Chemscore.Hbond>
3.6100

> <Gold.PLP.Chemscore.CHOScore>
0.0000

> <Gold.PLP.Chemscore.Metal>
0.0000

> <Gold.Chemscore.Hbonds>
donor molecule, donor type, donor heavy atom, donor atom, acceptor molecule, acceptor atom, score
      L1  H     1    23       P1  7957  0.61
      L1  H     6    37       P1  8028  1.89
      P1  H  7989  7998       L1     1  1.00

> <Gold.PLP.Chemscore.Internal.Correction>
0.1040

> <Gold.Rescore>
     Score         DG    S(hbond)    S(metal)    S(lipo)     H(rot)  DE(clash)    DE(int)     intcor
     18.14     -18.49       2.20        0.00     102.25       2.47       0.22       0.13       ----

> <Gold.Chemscore.Fitness>
18.1362

> <Gold.Chemscore.DG>
-18.4854

> <Gold.Chemscore.ZeroCoef>
-5.4800

> <Gold.Chemscore.Hbond>
2.2026

> <Gold.Chemscore.Metal>
0.0000

> <Gold.Chemscore.Lipo>
102.2539

> <Gold.Chemscore.Internal_Hbond>
0.0000

> <Gold.Chemscore.DEClash>
0.2226

> <Gold.Chemscore.DEInternal>
0.1266

> <Gold.Chemscore.Rot>
2.4668

> <Gold.Chemscore.Internal.Correction>
   9.000000E+99

> <Gold.Chemscore.Hbonds>
donor molecule, donor type, donor heavy atom, donor atom, acceptor molecule, acceptor atom, score
      L1  H     1    23       P1  7957  0.60
      L1  H     6    37       P1  8028  0.88
      P1  H  7989  7998       L1     1  0.54

> <Gold.Chemscore.Hbond.Weighted>
-7.3567

> <Gold.Chemscore.Metal.Weighted>
-0.0000

> <Gold.Chemscore.Lipo.Weighted>
-11.9637

> <Gold.Chemscore.Internal_Hbond.Weighted>
0.0000

> <Gold.Chemscore.DEClash.Weighted>
0.2226

> <Gold.Chemscore.DEInternal.Weighted>
0.1266

> <Gold.Chemscore.Rot.Weighted>
6.3151

> <Gold.Chemscore.Internal.Correction.Weighted>
   9.000000E+99

> <Gold.Protein.RotatedTorsions>
[ 6907 6896 6895 6894 ] final -158.05 input  -60.11 | X-H torsion
[ 7974 7965 7964 7962 ] final  -77.85 input  175.53 | X-H torsion
[ 8008 7997 7996 7995 ] final   50.48 input   59.86 | X-H torsion
[ 10167 10162 10161 10158 ] final   93.73 input  -65.29 | X-H torsion
[ 10718 10713 10712 10709 ] final  -88.72 input   66.30 | X-H torsion
[ 10763 10752 10751 10750 ] final  -10.28 input  -60.55 | X-H torsion
[ 11005 11000 10999 10996 ] final  -22.56 input  -57.11 | X-H torsion

> <Gold.Protein.ActiveResidues>
 VAL166  LYS551  ARG553  GLY616  TRP617  ASP618  TYR619  PRO620  LYS621  CYS622 
 ASP623  PHE694  ASN695  SER759  ASP760  ASP761  ALA762  ILE779  LEU786  VAL792 
 PHE793  MET794  SER795  GLU796  ALA797  LYS798  CYS799  TRP800  GLU811  SER814 

> <Gold.Protein.RotatedAtoms>
  151.3122  133.4075  159.2647 H   0  0  0  0  0  0  0  0  0  0  0  0  # atno 6907 bound_to 6896
  151.0104  134.9393  159.8014 H   0  0  0  0  0  0  0  0  0  0  0  0  # atno 6908 bound_to 6896
  152.5299  134.3087  159.9158 H   0  0  0  0  0  0  0  0  0  0  0  0  # atno 6909 bound_to 6896
  145.5943  140.9423  143.1275 H   0  0  0  0  0  0  0  0  0  0  0  0  # atno 7974 bound_to 7965
  155.4194  140.3446  155.4270 H   0  0  0  0  0  0  0  0  0  0  0  0  # atno 8008 bound_to 7997
  156.1402  140.1540  156.8964 H   0  0  0  0  0  0  0  0  0  0  0  0  # atno 8009 bound_to 7997
  154.4964  140.0826  156.7687 H   0  0  0  0  0  0  0  0  0  0  0  0  # atno 8010 bound_to 7997
  139.8152  144.6756  150.9589 H   0  0  0  0  0  0  0  0  0  0  0  0  # atno 10167 bound_to 10162
  155.9983  130.4846  150.5061 H   0  0  0  0  0  0  0  0  0  0  0  0  # atno 10718 bound_to 10713
  153.4669  135.7016  153.6016 H   0  0  0  0  0  0  0  0  0  0  0  0  # atno 10763 bound_to 10752
  153.4287  135.3808  155.2157 H   0  0  0  0  0  0  0  0  0  0  0  0  # atno 10764 bound_to 10752
  154.8726  135.3945  154.4102 H   0  0  0  0  0  0  0  0  0  0  0  0  # atno 10765 bound_to 10752
  140.8669  133.7748  156.0140 H   0  0  0  0  0  0  0  0  0  0  0  0  # atno 11005 bound_to 11000
  144.7337  139.7647  143.7337 LP  0  0  0  0  0  0  0  0  0  0  0  0  # atno 17320 bound_to 7965
  146.1624  139.4743  142.9980 LP  0  0  0  0  0  0  0  0  0  0  0  0  # atno 17321 bound_to 7965
  140.7816  143.4146  151.0938 LP  0  0  0  0  0  0  0  0  0  0  0  0  # atno 17342 bound_to 10162
  139.7810  143.8356  152.3137 LP  0  0  0  0  0  0  0  0  0  0  0  0  # atno 17343 bound_to 10162
  157.3040  131.0651  151.2048 LP  0  0  0  0  0  0  0  0  0  0  0  0  # atno 17370 bound_to 10713
  157.3017  130.6846  149.6168 LP  0  0  0  0  0  0  0  0  0  0  0  0  # atno 17371 bound_to 10713
  140.8619  134.2831  157.5231 LP  0  0  0  0  0  0  0  0  0  0  0  0  # atno 17394 bound_to 11000
  139.8710  134.9522  156.4108 LP  0  0  0  0  0  0  0  0  0  0  0  0  # atno 17395 bound_to 11000

$$$$
