AV-unprocessed.smi:1872|AV-procd|sdf|7604|dock8
  -GOLD-   22720 9323D 1   1.00000     0.00000
 Structure written by MMmdl.
 39 41  0  0  0  0  0  0  0  0  1 V2000
  154.1181  140.1679  160.7226 C   0  0  0  0  0  0  0  0  0  0  0  0
  153.2310  141.3443  160.4629 C   0  0  0  0  0  0  0  0  0  0  0  0
  153.3167  142.4699  161.1720 N   0  0  0  0  0  0  0  0  0  0  0  0
  152.3409  143.2633  160.5996 C   0  0  0  0  0  0  0  0  0  0  0  0
  151.9347  144.5826  160.9037 C   0  0  0  0  0  0  0  0  0  0  0  0
  150.8987  145.1974  160.1706 C   0  0  0  0  0  0  0  0  0  0  0  0
  150.2547  144.5037  159.1256 C   0  0  0  0  0  0  0  0  0  0  0  0
  150.6439  143.1888  158.8061 C   0  0  0  0  0  0  0  0  0  0  0  0
  151.6794  142.5796  159.5402 C   0  0  0  0  0  0  0  0  0  0  0  0
  152.2905  141.3303  159.4865 N   0  0  0  0  0  0  0  0  0  0  0  0
  151.9730  140.2492  158.5634 C   0  0  0  0  0  0  0  0  0  0  0  0
  151.8620  140.7208  157.0996 C   0  0  1  0  0  0  0  0  0  0  0  0
  152.5548  139.8294  156.2467 O   0  0  0  0  0  0  0  0  0  0  0  0
  150.4073  140.9004  156.6932 C   0  0  0  0  0  0  0  0  0  0  0  0
  149.3823  140.6648  157.6327 C   0  0  0  0  0  0  0  0  0  0  0  0
  148.0318  140.8145  157.2633 C   0  0  0  0  0  0  0  0  0  0  0  0
  147.6836  141.1905  155.9504 C   0  0  0  0  0  0  0  0  0  0  0  0
  146.3463  141.3303  155.6552 O   0  0  0  0  0  0  0  0  0  0  0  0
  145.8665  142.5510  155.2964 C   0  0  0  0  0  0  0  0  0  0  0  0
  146.1999  142.8143  154.0098 F   0  0  0  0  0  0  0  0  0  0  0  0
  144.5134  142.5716  155.3809 F   0  0  0  0  0  0  0  0  0  0  0  0
  148.7134  141.4346  155.0104 C   0  0  0  0  0  0  0  0  0  0  0  0
  150.0642  141.2842  155.3786 C   0  0  0  0  0  0  0  0  0  0  0  0
  154.7894  140.3725  161.5574 H   0  0  0  0  0  0  0  0  0  0  0  0
  154.7239  139.9486  159.8432 H   0  0  0  0  0  0  0  0  0  0  0  0
  153.5230  139.2899  160.9717 H   0  0  0  0  0  0  0  0  0  0  0  0
  152.4215  145.1223  161.7025 H   0  0  0  0  0  0  0  0  0  0  0  0
  150.5964  146.2061  160.4116 H   0  0  0  0  0  0  0  0  0  0  0  0
  149.4610  144.9813  158.5700 H   0  0  0  0  0  0  0  0  0  0  0  0
  150.1506  142.6532  158.0087 H   0  0  0  0  0  0  0  0  0  0  0  0
  152.7408  139.4797  158.6538 H   0  0  0  0  0  0  0  0  0  0  0  0
  151.0409  139.7812  158.8811 H   0  0  0  0  0  0  0  0  0  0  0  0
  152.3594  141.6857  156.9992 H   0  0  0  0  0  0  0  0  0  0  0  0
  152.5439  138.9699  156.6395 H   0  0  0  0  0  0  0  0  0  0  0  0
  149.6280  140.3660  158.6413 H   0  0  0  0  0  0  0  0  0  0  0  0
  147.2558  140.6338  157.9925 H   0  0  0  0  0  0  0  0  0  0  0  0
  146.2816  143.3460  155.9165 H   0  0  0  0  0  0  0  0  0  0  0  0
  148.4815  141.7419  154.0014 H   0  0  0  0  0  0  0  0  0  0  0  0
  150.8361  141.4653  154.6449 H   0  0  0  0  0  0  0  0  0  0  0  0
  1  2  1  0  0  0  0
  1 24  1  0  0  0  0
  1 25  1  0  0  0  0
  1 26  1  0  0  0  0
  2 10  1  0  0  0  0
  2  3  2  0  0  0  0
  3  4  1  0  0  0  0
  4  9  2  0  0  0  0
  4  5  1  0  0  0  0
  5  6  2  0  0  0  0
  5 27  1  0  0  0  0
  6  7  1  0  0  0  0
  6 28  1  0  0  0  0
  7  8  2  0  0  0  0
  7 29  1  0  0  0  0
  8  9  1  0  0  0  0
  8 30  1  0  0  0  0
  9 10  1  0  0  0  0
 10 11  1  0  0  0  0
 11 12  1  0  0  0  0
 11 31  1  0  0  0  0
 11 32  1  0  0  0  0
 12 13  1  0  0  0  0
 12 14  1  0  0  0  0
 12 33  1  0  0  0  0
 13 34  1  0  0  0  0
 14 23  1  0  0  0  0
 14 15  2  0  0  0  0
 15 16  1  0  0  0  0
 15 35  1  0  0  0  0
 16 17  2  0  0  0  0
 16 36  1  0  0  0  0
 17 18  1  0  0  0  0
 17 22  1  0  0  0  0
 18 19  1  0  0  0  0
 19 20  1  0  0  0  0
 19 21  1  0  0  0  0
 19 37  1  0  0  0  0
 22 23  2  0  0  0  0
 22 38  1  0  0  0  0
 23 39  1  0  0  0  0
M  END
> <s_m_source_file>
AV-unprocessed.smi

> <i_m_source_file_index>
1872

> <i_lp_mmshare_version>
43012

> <i_f3d_flags>
0

> <s_epik_input>
W2NIXTFbY0hdW2NIXVtjSF1jKGMxMiluKGMobjIpW0NIM10pW0NIMl1bQ0BIXShbT0hdKWMzW2NIXVtjSF1jKE9bQ0hdKEYpRilbY0hdW2NIXTM=

> <s_epik_cmdline>
J2VwaWtfcHl0aG9uJywgJy1waCcsICc3LjAnLCAnLXRuJywgJzgnLCAnLW1hJywgJzIwMCcsICctbWV0YWxfYmluZGluZycsICctaW1hZScsICc8aW5maWxlLm1hZT4nLCAnLW9tYWUnLCAnPG91dGZpbGUubWFlPic=

> <r_lp_tautomer_probability>
1

> <r_epik_Ionization_Penalty>
0.129663

> <r_epik_Ionization_Penalty_Charging>
0

> <r_epik_Ionization_Penalty_Neutral>
0.129663

> <r_epik_State_Penalty>
0.119073

> <r_epik_Charging_Adjusted_Penalty>
0.119073

> <i_epik_Tot_Q>
0

> <i_epik_Tot_abs_Q>
0

> <r_epik_Metal_State_Penalty>
0.000131867

> <b_epik_Metal_Only>
0

> <s_lp_Force_Field>
OPLS_2005

> <r_lp_Energy>
11.3105

> <b_lp_Chiralities_Consistent>
1

> <s_lp_Variant>
AV-unprocessed.smi:1872-2

> <Gold.Version>
5.8.1

> <Gold.Id.Protein>
6NUR|6NUR_protein|mol2

> <Gold.PLP.Fitness>
50.4608

> <Gold.PLP.PLP>
-49.2425

> <Gold.PLP.part.hbond>
-1.0000

> <Gold.PLP.part.metal>
0.0000

> <Gold.PLP.part.buried>
-7.9504

> <Gold.PLP.part.nonpolar>
-40.3558

> <Gold.PLP.part.repulsive>
0.1039

> <Gold.PLP.ligand.clash>
0.0000

> <Gold.PLP.ligand.torsion>
0.9144

> <Gold.PLP.Chemscore.Hbond>
1.0000

> <Gold.PLP.Chemscore.CHOScore>
0.0000

> <Gold.PLP.Chemscore.Metal>
0.0000

> <Gold.Chemscore.Hbonds>
donor molecule, donor type, donor heavy atom, donor atom, acceptor molecule, acceptor atom, score
      P1  H  7997  8008       L1    13  1.00

> <Gold.PLP.Chemscore.Internal.Correction>
0.0470

> <Gold.Rescore>
     Score         DG    S(hbond)    S(metal)    S(lipo)     H(rot)  DE(clash)    DE(int)     intcor
     14.14     -15.38       0.76        0.00     112.13       2.25       0.24       1.00       ----

> <Gold.Chemscore.Fitness>
14.1367

> <Gold.Chemscore.DG>
-15.3755

> <Gold.Chemscore.ZeroCoef>
-5.4800

> <Gold.Chemscore.Hbond>
0.7623

> <Gold.Chemscore.Metal>
0.0000

> <Gold.Chemscore.Lipo>
112.1294

> <Gold.Chemscore.Internal_Hbond>
0.0000

> <Gold.Chemscore.DEClash>
0.2404

> <Gold.Chemscore.DEInternal>
0.9985

> <Gold.Chemscore.Rot>
2.2538

> <Gold.Chemscore.Internal.Correction>
   9.000000E+99

> <Gold.Chemscore.Hbonds>
donor molecule, donor type, donor heavy atom, donor atom, acceptor molecule, acceptor atom, score
      P1  H  7997  8008       L1    13  0.21

> <Gold.Chemscore.Hbond.Weighted>
-2.5460

> <Gold.Chemscore.Metal.Weighted>
-0.0000

> <Gold.Chemscore.Lipo.Weighted>
-13.1191

> <Gold.Chemscore.Internal_Hbond.Weighted>
0.0000

> <Gold.Chemscore.DEClash.Weighted>
0.2404

> <Gold.Chemscore.DEInternal.Weighted>
0.9985

> <Gold.Chemscore.Rot.Weighted>
5.7697

> <Gold.Chemscore.Internal.Correction.Weighted>
   9.000000E+99

> <Gold.Protein.RotatedTorsions>
[ 6907 6896 6895 6894 ] final    5.79 input  -60.11 | X-H torsion
[ 7974 7965 7964 7962 ] final -174.68 input  175.53 | X-H torsion
[ 8008 7997 7996 7995 ] final  -36.05 input   59.86 | X-H torsion
[ 10167 10162 10161 10158 ] final  154.57 input  -65.29 | X-H torsion
[ 10718 10713 10712 10709 ] final  162.94 input   66.30 | X-H torsion
[ 10763 10752 10751 10750 ] final   -7.51 input  -60.55 | X-H torsion
[ 11005 11000 10999 10996 ] final  140.52 input  -57.11 | X-H torsion

> <Gold.Protein.ActiveResidues>
 VAL166  LYS551  ARG553  GLY616  TRP617  ASP618  TYR619  PRO620  LYS621  CYS622 
 ASP623  PHE694  ASN695  SER759  ASP760  ASP761  ALA762  ILE779  LEU786  VAL792 
 PHE793  MET794  SER795  GLU796  ALA797  LYS798  CYS799  TRP800  GLU811  SER814 

> <Gold.Protein.RotatedAtoms>
  151.6632  135.0986  160.0183 H   0  0  0  0  0  0  0  0  0  0  0  0  # atno 6907 bound_to 6896
  152.3935  133.6708  159.6265 H   0  0  0  0  0  0  0  0  0  0  0  0  # atno 6908 bound_to 6896
  150.7846  133.8831  159.3333 H   0  0  0  0  0  0  0  0  0  0  0  0  # atno 6909 bound_to 6896
  144.7131  140.1435  143.6390 H   0  0  0  0  0  0  0  0  0  0  0  0  # atno 7974 bound_to 7965
  154.4081  140.1641  156.2311 H   0  0  0  0  0  0  0  0  0  0  0  0  # atno 8008 bound_to 7997
  155.9282  140.3416  155.6204 H   0  0  0  0  0  0  0  0  0  0  0  0  # atno 8009 bound_to 7997
  155.7139  140.0760  157.2350 H   0  0  0  0  0  0  0  0  0  0  0  0  # atno 8010 bound_to 7997
  139.4823  144.5175  151.7929 H   0  0  0  0  0  0  0  0  0  0  0  0  # atno 10167 bound_to 10162
  157.1154  131.0479  151.2438 H   0  0  0  0  0  0  0  0  0  0  0  0  # atno 10718 bound_to 10713
  153.4274  135.7011  153.6253 H   0  0  0  0  0  0  0  0  0  0  0  0  # atno 10763 bound_to 10752
  153.4682  135.3720  155.2377 H   0  0  0  0  0  0  0  0  0  0  0  0  # atno 10764 bound_to 10752
  154.8724  135.4036  154.3652 H   0  0  0  0  0  0  0  0  0  0  0  0  # atno 10765 bound_to 10752
  140.0333  134.9341  157.0705 H   0  0  0  0  0  0  0  0  0  0  0  0  # atno 11005 bound_to 11000
  145.9181  139.2528  143.1398 LP  0  0  0  0  0  0  0  0  0  0  0  0  # atno 17320 bound_to 7965
  145.9648  140.8807  143.0192 LP  0  0  0  0  0  0  0  0  0  0  0  0  # atno 17321 bound_to 7965
  140.4685  144.1621  150.5915 LP  0  0  0  0  0  0  0  0  0  0  0  0  # atno 17342 bound_to 10162
  140.4408  143.2527  151.9475 LP  0  0  0  0  0  0  0  0  0  0  0  0  # atno 17343 bound_to 10162
  157.4522  130.7605  149.7162 LP  0  0  0  0  0  0  0  0  0  0  0  0  # atno 17370 bound_to 10713
  155.9840  130.3995  150.3331 LP  0  0  0  0  0  0  0  0  0  0  0  0  # atno 17371 bound_to 10713
  140.4189  134.1902  155.7164 LP  0  0  0  0  0  0  0  0  0  0  0  0  # atno 17394 bound_to 11000
  141.1843  133.8346  157.1143 LP  0  0  0  0  0  0  0  0  0  0  0  0  # atno 17395 bound_to 11000

$$$$
