AV-unprocessed.smi:1832|AV-procd|sdf|7464|dock10
  -GOLD-   22720 9153D 1   1.00000     0.00000
 Structure written by MMmdl.
 35 35  0  0  0  0  0  0  0  0  1 V2000
  152.6241  142.9081  162.4557 C   0  0  0  0  0  0  0  0  0  0  0  0
  152.7013  142.8589  160.9262 C   0  0  0  0  0  0  0  0  0  0  0  0
  151.8584  143.9588  160.2607 C   0  0  0  0  0  0  0  0  0  0  0  0
  151.8412  143.8209  158.8092 N   0  0  0  0  0  0  0  0  0  0  0  0
  151.3239  142.7805  158.1383 C   0  0  0  0  0  0  0  0  0  0  0  0
  150.8132  141.8068  158.6941 O   0  0  0  0  0  0  0  0  0  0  0  0
  151.4222  142.8533  156.6076 C   0  0  0  0  0  0  0  0  0  0  0  0
  150.7706  141.7212  155.9270 N   0  0  0  0  0  0  0  0  0  0  0  0
  149.5787  141.9957  155.2271 C   0  0  0  0  0  0  0  0  0  0  0  0
  148.8980  141.0377  154.5595 C   0  0  0  0  0  0  0  0  0  0  0  0
  147.6623  141.2925  153.8132 C   0  0  0  0  0  0  0  0  0  0  0  0
  147.1462  140.4890  153.0352 O   0  0  0  0  0  0  0  0  0  0  0  0
  147.1168  142.4996  154.0424 N   0  0  0  0  0  0  0  0  0  0  0  0
  145.8967  142.9862  153.4166 C   0  0  0  0  0  0  0  0  0  0  0  0
  149.4414  139.6934  154.5905 C   0  0  0  0  0  0  0  0  0  0  0  0
  150.5836  139.4257  155.2531 C   0  0  0  0  0  0  0  0  0  0  0  0
  151.3214  140.4701  155.9688 C   0  0  0  0  0  0  0  0  0  0  0  0
  152.3703  140.2347  156.5694 O   0  0  0  0  0  0  0  0  0  0  0  0
  153.2308  142.1196  162.9012 H   0  0  0  0  0  0  0  0  0  0  0  0
  151.5988  142.7746  162.8017 H   0  0  0  0  0  0  0  0  0  0  0  0
  152.9864  143.8628  162.8379 H   0  0  0  0  0  0  0  0  0  0  0  0
  153.7424  142.9562  160.6160 H   0  0  0  0  0  0  0  0  0  0  0  0
  152.3681  141.8782  160.5850 H   0  0  0  0  0  0  0  0  0  0  0  0
  150.8391  143.9499  160.6508 H   0  0  0  0  0  0  0  0  0  0  0  0
  152.2725  144.9387  160.5000 H   0  0  0  0  0  0  0  0  0  0  0  0
  152.2466  144.5760  158.2750 H   0  0  0  0  0  0  0  0  0  0  0  0
  150.9955  143.7974  156.2632 H   0  0  0  0  0  0  0  0  0  0  0  0
  152.4776  142.9051  156.3369 H   0  0  0  0  0  0  0  0  0  0  0  0
  149.2792  143.0330  155.2706 H   0  0  0  0  0  0  0  0  0  0  0  0
  147.5824  143.1194  154.6891 H   0  0  0  0  0  0  0  0  0  0  0  0
  145.6789  143.9961  153.7640 H   0  0  0  0  0  0  0  0  0  0  0  0
  145.0493  142.3479  153.6693 H   0  0  0  0  0  0  0  0  0  0  0  0
  146.0016  143.0143  152.3312 H   0  0  0  0  0  0  0  0  0  0  0  0
  148.9355  138.8872  154.0788 H   0  0  0  0  0  0  0  0  0  0  0  0
  150.9665  138.4159  155.2580 H   0  0  0  0  0  0  0  0  0  0  0  0
  1  2  1  0  0  0  0
  1 19  1  0  0  0  0
  1 20  1  0  0  0  0
  1 21  1  0  0  0  0
  2  3  1  0  0  0  0
  2 22  1  0  0  0  0
  2 23  1  0  0  0  0
  3  4  1  0  0  0  0
  3 24  1  0  0  0  0
  3 25  1  0  0  0  0
  4  5  1  0  0  0  0
  4 26  1  0  0  0  0
  5  6  2  0  0  0  0
  5  7  1  0  0  0  0
  7  8  1  0  0  0  0
  7 27  1  0  0  0  0
  7 28  1  0  0  0  0
  8 17  1  0  0  0  0
  8  9  1  0  0  0  0
  9 10  2  0  0  0  0
  9 29  1  0  0  0  0
 10 11  1  0  0  0  0
 10 15  1  0  0  0  0
 11 12  2  0  0  0  0
 11 13  1  0  0  0  0
 13 14  1  0  0  0  0
 13 30  1  0  0  0  0
 14 31  1  0  0  0  0
 14 32  1  0  0  0  0
 14 33  1  0  0  0  0
 15 16  2  0  0  0  0
 15 34  1  0  0  0  0
 16 17  1  0  0  0  0
 16 35  1  0  0  0  0
 17 18  2  0  0  0  0
M  END
> <s_m_source_file>
AV-unprocessed.smi

> <i_m_source_file_index>
1832

> <i_lp_mmshare_version>
43012

> <i_f3d_flags>
0

> <s_epik_input>
W0NIM11bQ0gyXVtDSDJdW05IXUMoPU8pW0NIMl1uMVtjSF1jKEMoPU8pW05IXVtDSDNdKVtjSF1bY0hdYzE9Tw==

> <s_epik_cmdline>
J2VwaWtfcHl0aG9uJywgJy1waCcsICc3LjAnLCAnLXRuJywgJzgnLCAnLW1hJywgJzIwMCcsICctbWV0YWxfYmluZGluZycsICctaW1hZScsICc8aW5maWxlLm1hZT4nLCAnLW9tYWUnLCAnPG91dGZpbGUubWFlPic=

> <r_lp_tautomer_probability>
1

> <r_epik_Ionization_Penalty>
3.67838e-07

> <r_epik_Ionization_Penalty_Charging>
4.72549e-08

> <r_epik_Ionization_Penalty_Neutral>
3.20583e-07

> <r_epik_State_Penalty>
-0

> <r_epik_Charging_Adjusted_Penalty>
4.72549e-08

> <i_epik_Tot_Q>
0

> <i_epik_Tot_abs_Q>
0

> <r_epik_Metal_State_Penalty>
-0

> <b_epik_Metal_Only>
0

> <s_lp_Force_Field>
OPLS_2005

> <r_lp_Energy>
14.7098

> <b_lp_Chiralities_Consistent>
1

> <s_lp_Variant>
AV-unprocessed.smi:1832-1

> <Gold.Version>
5.8.1

> <Gold.Id.Protein>
6NUR|6NUR_protein|mol2

> <Gold.PLP.Fitness>
45.3359

> <Gold.PLP.PLP>
-38.4879

> <Gold.PLP.part.hbond>
-2.0000

> <Gold.PLP.part.metal>
0.0000

> <Gold.PLP.part.buried>
-3.7777

> <Gold.PLP.part.nonpolar>
-30.7339

> <Gold.PLP.part.repulsive>
0.3559

> <Gold.PLP.ligand.clash>
0.0000

> <Gold.PLP.ligand.torsion>
0.2017

> <Gold.PLP.Chemscore.Hbond>
1.9913

> <Gold.PLP.Chemscore.CHOScore>
0.4175

> <Gold.PLP.Chemscore.Metal>
0.0000

> <Gold.Chemscore.Hbonds>
donor molecule, donor type, donor heavy atom, donor atom, acceptor molecule, acceptor atom, score
      L1  H    13    30       P1  8028  0.49
      P1  H  7997  8008       L1    18  0.99
      L1  C     9    29       P1  8028  0.34

> <Gold.PLP.Chemscore.Internal.Correction>
0.0251

> <Gold.Rescore>
     Score         DG    S(hbond)    S(metal)    S(lipo)     H(rot)  DE(clash)    DE(int)     intcor
     14.26     -16.55       1.86        0.00      80.45       1.78       1.97       0.31       ----

> <Gold.Chemscore.Fitness>
14.2578

> <Gold.Chemscore.DG>
-16.5467

> <Gold.Chemscore.ZeroCoef>
-5.4800

> <Gold.Chemscore.Hbond>
1.8583

> <Gold.Chemscore.Metal>
0.0000

> <Gold.Chemscore.Lipo>
80.4537

> <Gold.Chemscore.Internal_Hbond>
0.0000

> <Gold.Chemscore.DEClash>
1.9743

> <Gold.Chemscore.DEInternal>
0.3146

> <Gold.Chemscore.Rot>
1.7785

> <Gold.Chemscore.Internal.Correction>
   9.000000E+99

> <Gold.Chemscore.Hbonds>
donor molecule, donor type, donor heavy atom, donor atom, acceptor molecule, acceptor atom, score
      L1  H    13    30       P1  8028  0.26
      P1  H  7997  8008       L1    18  0.91

> <Gold.Chemscore.Hbond.Weighted>
-6.2067

> <Gold.Chemscore.Metal.Weighted>
-0.0000

> <Gold.Chemscore.Lipo.Weighted>
-9.4131

> <Gold.Chemscore.Internal_Hbond.Weighted>
0.0000

> <Gold.Chemscore.DEClash.Weighted>
1.9743

> <Gold.Chemscore.DEInternal.Weighted>
0.3146

> <Gold.Chemscore.Rot.Weighted>
4.5530

> <Gold.Chemscore.Internal.Correction.Weighted>
   9.000000E+99

> <Gold.Protein.RotatedTorsions>
[ 6907 6896 6895 6894 ] final  161.48 input  -60.11 | X-H torsion
[ 7974 7965 7964 7962 ] final   34.63 input  175.53 | X-H torsion
[ 8008 7997 7996 7995 ] final  -36.66 input   59.86 | X-H torsion
[ 10167 10162 10161 10158 ] final   82.01 input  -65.29 | X-H torsion
[ 10718 10713 10712 10709 ] final  142.16 input   66.30 | X-H torsion
[ 10763 10752 10751 10750 ] final   37.13 input  -60.55 | X-H torsion
[ 11005 11000 10999 10996 ] final  141.08 input  -57.11 | X-H torsion

> <Gold.Protein.ActiveResidues>
 VAL166  LYS551  ARG553  GLY616  TRP617  ASP618  TYR619  PRO620  LYS621  CYS622 
 ASP623  PHE694  ASN695  SER759  ASP760  ASP761  ALA762  ILE779  LEU786  VAL792 
 PHE793  MET794  SER795  GLU796  ALA797  LYS798  CYS799  TRP800  GLU811  SER814 

> <Gold.Protein.RotatedAtoms>
  151.9550  133.3677  159.4013 H   0  0  0  0  0  0  0  0  0  0  0  0  # atno 6907 bound_to 6896
  150.6974  134.4300  159.5253 H   0  0  0  0  0  0  0  0  0  0  0  0  # atno 6908 bound_to 6896
  152.1980  134.8613  160.0561 H   0  0  0  0  0  0  0  0  0  0  0  0  # atno 6909 bound_to 6896
  146.1339  139.6244  142.9208 H   0  0  0  0  0  0  0  0  0  0  0  0  # atno 7974 bound_to 7965
  154.4068  140.1625  156.2410 H   0  0  0  0  0  0  0  0  0  0  0  0  # atno 8008 bound_to 7997
  155.9201  140.3422  155.6143 H   0  0  0  0  0  0  0  0  0  0  0  0  # atno 8009 bound_to 7997
  155.7232  140.0771  157.2312 H   0  0  0  0  0  0  0  0  0  0  0  0  # atno 8010 bound_to 7997
  139.9332  144.6138  150.8324 H   0  0  0  0  0  0  0  0  0  0  0  0  # atno 10167 bound_to 10162
  157.3838  131.0995  151.0713 H   0  0  0  0  0  0  0  0  0  0  0  0  # atno 10718 bound_to 10713
  153.0049  135.6286  154.2095 H   0  0  0  0  0  0  0  0  0  0  0  0  # atno 10763 bound_to 10752
  154.1839  135.2812  155.3045 H   0  0  0  0  0  0  0  0  0  0  0  0  # atno 10764 bound_to 10752
  154.5813  135.5646  153.7248 H   0  0  0  0  0  0  0  0  0  0  0  0  # atno 10765 bound_to 10752
  140.0375  134.9322  157.0780 H   0  0  0  0  0  0  0  0  0  0  0  0  # atno 11005 bound_to 11000
  145.5199  141.0432  143.2441 LP  0  0  0  0  0  0  0  0  0  0  0  0  # atno 17320 bound_to 7965
  144.7719  139.6715  143.7191 LP  0  0  0  0  0  0  0  0  0  0  0  0  # atno 17321 bound_to 7965
  140.7631  143.3216  151.2610 LP  0  0  0  0  0  0  0  0  0  0  0  0  # atno 17342 bound_to 10162
  139.6765  143.9929  152.2784 LP  0  0  0  0  0  0  0  0  0  0  0  0  # atno 17343 bound_to 10162
  157.1772  130.6293  149.5660 LP  0  0  0  0  0  0  0  0  0  0  0  0  # atno 17370 bound_to 10713
  155.9782  130.4765  150.6639 LP  0  0  0  0  0  0  0  0  0  0  0  0  # atno 17371 bound_to 10713
  140.4124  134.1967  155.7163 LP  0  0  0  0  0  0  0  0  0  0  0  0  # atno 17394 bound_to 11000
  141.1865  133.8301  157.1066 LP  0  0  0  0  0  0  0  0  0  0  0  0  # atno 17395 bound_to 11000

$$$$
