AV-unprocessed.smi:3348|AV-procd|sdf|12928|dock3
  -GOLD-   2272019353D 1   1.00000     0.00000
 Structure written by MMmdl.
 46 47  0  0  0  0  0  0  0  0  1 V2000
  147.4624  141.4938  155.8148 C   0  0  0  0  0  0  0  0  0  0  0  0
  148.9097  140.9610  155.7552 C   0  0  1  0  0  0  0  0  0  0  0  0
  149.1843  140.1683  154.4605 C   0  0  0  0  0  0  0  0  0  0  0  0
  150.3340  139.2875  154.5689 N   0  0  0  0  0  0  0  0  0  0  0  0
  150.3873  137.9249  154.3649 C   0  0  0  0  0  0  0  0  0  0  0  0
  151.6765  137.5312  154.5826 C   0  0  0  0  0  0  0  0  0  0  0  0
  152.3456  138.7397  154.9239 C   0  0  0  0  0  0  0  0  0  0  0  0
  151.5391  139.7887  154.9176 N   0  0  0  0  0  0  0  0  0  0  0  0
  149.8940  142.0419  155.8687 N   0  0  0  0  0  0  0  0  0  0  0  0
  150.9126  141.8670  156.9034 C   0  0  0  0  0  0  0  0  0  0  0  0
  150.3996  142.3574  158.2607 C   0  0  0  0  0  0  0  0  0  0  0  0
  151.3449  141.9975  159.2570 O   0  0  0  0  0  0  0  0  0  0  0  0
  152.5562  142.7445  159.2227 C   0  0  2  0  0  0  0  0  0  0  0  0
  153.7365  141.8649  159.6867 C   0  0  0  0  0  0  0  0  0  0  0  0
  153.5907  141.4501  161.1602 C   0  0  0  0  0  0  0  0  0  0  0  0
  153.4280  142.6767  162.0707 C   0  0  0  0  0  0  0  0  0  0  0  0
  152.2537  143.5586  161.6166 C   0  0  0  0  0  0  0  0  0  0  0  0
  152.3994  143.9780  160.1399 C   0  0  2  0  0  0  0  0  0  0  0  0
  151.2489  144.8902  159.6868 C   0  0  0  0  0  0  0  0  0  0  0  0
  146.7358  140.6881  155.7129 H   0  0  0  0  0  0  0  0  0  0  0  0
  147.2721  142.2118  155.0165 H   0  0  0  0  0  0  0  0  0  0  0  0
  147.2437  141.9811  156.7641 H   0  0  0  0  0  0  0  0  0  0  0  0
  149.0479  140.2780  156.5944 H   0  0  0  0  0  0  0  0  0  0  0  0
  148.3091  139.5786  154.1822 H   0  0  0  0  0  0  0  0  0  0  0  0
  149.3701  140.8550  153.6333 H   0  0  0  0  0  0  0  0  0  0  0  0
  149.5131  137.3568  154.0829 H   0  0  0  0  0  0  0  0  0  0  0  0
  152.0801  136.5323  154.5098 H   0  0  0  0  0  0  0  0  0  0  0  0
  153.3859  138.8848  155.1752 H   0  0  0  0  0  0  0  0  0  0  0  0
  149.4159  142.9255  156.0159 H   0  0  0  0  0  0  0  0  0  0  0  0
  151.2118  140.8235  156.9950 H   0  0  0  0  0  0  0  0  0  0  0  0
  151.8063  142.4303  156.6327 H   0  0  0  0  0  0  0  0  0  0  0  0
  150.2847  143.4407  158.2285 H   0  0  0  0  0  0  0  0  0  0  0  0
  149.4193  141.9316  158.4818 H   0  0  0  0  0  0  0  0  0  0  0  0
  152.7446  143.0969  158.2070 H   0  0  0  0  0  0  0  0  0  0  0  0
  153.8310  140.9788  159.0598 H   0  0  0  0  0  0  0  0  0  0  0  0
  154.6668  142.4200  159.5622 H   0  0  0  0  0  0  0  0  0  0  0  0
  152.7263  140.7943  161.2723 H   0  0  0  0  0  0  0  0  0  0  0  0
  154.4597  140.8697  161.4706 H   0  0  0  0  0  0  0  0  0  0  0  0
  153.2752  142.3568  163.1019 H   0  0  0  0  0  0  0  0  0  0  0  0
  154.3483  143.2619  162.0623 H   0  0  0  0  0  0  0  0  0  0  0  0
  151.3163  143.0189  161.7586 H   0  0  0  0  0  0  0  0  0  0  0  0
  152.1969  144.4435  162.2513 H   0  0  0  0  0  0  0  0  0  0  0  0
  153.3168  144.5629  160.0573 H   0  0  0  0  0  0  0  0  0  0  0  0
  150.2859  144.3834  159.7549 H   0  0  0  0  0  0  0  0  0  0  0  0
  151.3846  145.2085  158.6528 H   0  0  0  0  0  0  0  0  0  0  0  0
  151.1950  145.7879  160.3033 H   0  0  0  0  0  0  0  0  0  0  0  0
  1  2  1  0  0  0  0
  1 20  1  0  0  0  0
  1 21  1  0  0  0  0
  1 22  1  0  0  0  0
  2  3  1  0  0  0  0
  2  9  1  0  0  0  0
  2 23  1  0  0  0  0
  3  4  1  0  0  0  0
  3 24  1  0  0  0  0
  3 25  1  0  0  0  0
  4  8  1  0  0  0  0
  4  5  1  0  0  0  0
  5  6  2  0  0  0  0
  5 26  1  0  0  0  0
  6  7  1  0  0  0  0
  6 27  1  0  0  0  0
  7  8  2  0  0  0  0
  7 28  1  0  0  0  0
  9 10  1  0  0  0  0
  9 29  1  0  0  0  0
 10 11  1  0  0  0  0
 10 30  1  0  0  0  0
 10 31  1  0  0  0  0
 11 12  1  0  0  0  0
 11 32  1  0  0  0  0
 11 33  1  0  0  0  0
 12 13  1  0  0  0  0
 13 18  1  0  0  0  0
 13 14  1  0  0  0  0
 13 34  1  0  0  0  0
 14 15  1  0  0  0  0
 14 35  1  0  0  0  0
 14 36  1  0  0  0  0
 15 16  1  0  0  0  0
 15 37  1  0  0  0  0
 15 38  1  0  0  0  0
 16 17  1  0  0  0  0
 16 39  1  0  0  0  0
 16 40  1  0  0  0  0
 17 18  1  0  0  0  0
 17 41  1  0  0  0  0
 17 42  1  0  0  0  0
 18 19  1  0  0  0  0
 18 43  1  0  0  0  0
 19 44  1  0  0  0  0
 19 45  1  0  0  0  0
 19 46  1  0  0  0  0
M  END
> <s_m_source_file>
AV-unprocessed.smi

> <i_m_source_file_index>
3348

> <i_lp_mmshare_version>
43012

> <i_f3d_flags>
0

> <s_epik_input>
bjFbY0hdW2NIXVtjSF1uMVtDSDJdW0NAQEhdKFtDSDNdKVtOSF1bQ0gyXVtDSDJdT1tDQEBIXTJbQ0gyXVtDSDJdW0NIMl1bQ0gyXVtDQEhdMltDSDNd

> <s_epik_cmdline>
J2VwaWtfcHl0aG9uJywgJy1waCcsICc3LjAnLCAnLXRuJywgJzgnLCAnLW1hJywgJzIwMCcsICctbWV0YWxfYmluZGluZycsICctaW1hZScsICc8aW5maWxlLm1hZT4nLCAnLW9tYWUnLCAnPG91dGZpbGUubWFlPic=

> <r_lp_tautomer_probability>
1

> <r_epik_Ionization_Penalty>
2.46945

> <r_epik_Ionization_Penalty_Charging>
0

> <r_epik_Ionization_Penalty_Neutral>
2.46945

> <r_epik_State_Penalty>
2.6322

> <r_epik_Charging_Adjusted_Penalty>
2.6322

> <i_epik_Tot_Q>
0

> <i_epik_Tot_abs_Q>
0

> <r_epik_Metal_State_Penalty>
2.63217

> <b_epik_Metal_Only>
0

> <s_lp_Force_Field>
OPLS_2005

> <r_lp_Energy>
17.7248

> <b_lp_Chiralities_Consistent>
1

> <s_lp_Variant>
AV-unprocessed.smi:3348-14

> <Gold.Version>
5.8.1

> <Gold.Id.Protein>
6NUR|6NUR_protein|mol2

> <Gold.PLP.Fitness>
56.9814

> <Gold.PLP.PLP>
-51.8921

> <Gold.PLP.part.hbond>
-2.0578

> <Gold.PLP.part.metal>
0.0000

> <Gold.PLP.part.buried>
-5.7107

> <Gold.PLP.part.nonpolar>
-43.9429

> <Gold.PLP.part.repulsive>
0.0595

> <Gold.PLP.ligand.clash>
0.0000

> <Gold.PLP.ligand.torsion>
1.4604

> <Gold.PLP.Chemscore.Hbond>
1.6000

> <Gold.PLP.Chemscore.CHOScore>
1.0000

> <Gold.PLP.Chemscore.Metal>
0.0000

> <Gold.Chemscore.Hbonds>
donor molecule, donor type, donor heavy atom, donor atom, acceptor molecule, acceptor atom, score
      L1  H     9    29       P1  8028  1.00
      P1  H  7989  7998       L1     8  0.75
      L1  C     5    26       P1  7948  0.97

> <Gold.PLP.Chemscore.Internal.Correction>
0.2100

> <Gold.Rescore>
     Score         DG    S(hbond)    S(metal)    S(lipo)     H(rot)  DE(clash)    DE(int)     intcor
     18.62     -20.47       0.99        0.00     137.53       1.72       0.04       1.81       ----

> <Gold.Chemscore.Fitness>
18.6172

> <Gold.Chemscore.DG>
-20.4697

> <Gold.Chemscore.ZeroCoef>
-5.4800

> <Gold.Chemscore.Hbond>
0.9914

> <Gold.Chemscore.Metal>
0.0000

> <Gold.Chemscore.Lipo>
137.5289

> <Gold.Chemscore.Internal_Hbond>
0.0000

> <Gold.Chemscore.DEClash>
0.0437

> <Gold.Chemscore.DEInternal>
1.8087

> <Gold.Chemscore.Rot>
1.7237

> <Gold.Chemscore.Internal.Correction>
   9.000000E+99

> <Gold.Chemscore.Hbonds>
donor molecule, donor type, donor heavy atom, donor atom, acceptor molecule, acceptor atom, score
      L1  H     9    29       P1  8028  0.99
      P1  H  7989  7998       L1     8  0.09

> <Gold.Chemscore.Hbond.Weighted>
-3.3114

> <Gold.Chemscore.Metal.Weighted>
-0.0000

> <Gold.Chemscore.Lipo.Weighted>
-16.0909

> <Gold.Chemscore.Internal_Hbond.Weighted>
0.0000

> <Gold.Chemscore.DEClash.Weighted>
0.0437

> <Gold.Chemscore.DEInternal.Weighted>
1.8087

> <Gold.Chemscore.Rot.Weighted>
4.4126

> <Gold.Chemscore.Internal.Correction.Weighted>
   9.000000E+99

> <Gold.Protein.RotatedTorsions>
[ 6907 6896 6895 6894 ] final  -21.31 input  -60.11 | X-H torsion
[ 7974 7965 7964 7962 ] final  141.69 input  175.53 | X-H torsion
[ 8008 7997 7996 7995 ] final -165.49 input   59.86 | X-H torsion
[ 10167 10162 10161 10158 ] final   46.37 input  -65.29 | X-H torsion
[ 10718 10713 10712 10709 ] final  172.12 input   66.30 | X-H torsion
[ 10763 10752 10751 10750 ] final   52.66 input  -60.55 | X-H torsion
[ 11005 11000 10999 10996 ] final   70.05 input  -57.11 | X-H torsion

> <Gold.Protein.ActiveResidues>
 VAL166  LYS551  ARG553  GLY616  TRP617  ASP618  TYR619  PRO620  LYS621  CYS622 
 ASP623  PHE694  ASN695  SER759  ASP760  ASP761  ALA762  ILE779  LEU786  VAL792 
 PHE793  MET794  SER795  GLU796  ALA797  LYS798  CYS799  TRP800  GLU811  SER814 

> <Gold.Protein.RotatedAtoms>
  151.2352  135.0569  159.9003 H   0  0  0  0  0  0  0  0  0  0  0  0  # atno 6907 bound_to 6896
  152.5400  134.0494  159.8113 H   0  0  0  0  0  0  0  0  0  0  0  0  # atno 6908 bound_to 6896
  151.0679  133.5441  159.2661 H   0  0  0  0  0  0  0  0  0  0  0  0  # atno 6909 bound_to 6896
  144.9074  139.5339  143.5725 H   0  0  0  0  0  0  0  0  0  0  0  0  # atno 7974 bound_to 7965
  155.8505  140.0962  157.1678 H   0  0  0  0  0  0  0  0  0  0  0  0  # atno 8008 bound_to 7997
  154.3985  140.1384  156.3900 H   0  0  0  0  0  0  0  0  0  0  0  0  # atno 8009 bound_to 7997
  155.7966  140.3454  155.5382 H   0  0  0  0  0  0  0  0  0  0  0  0  # atno 8010 bound_to 7997
  140.3146  144.2779  150.6193 H   0  0  0  0  0  0  0  0  0  0  0  0  # atno 10167 bound_to 10162
  156.9836  131.0126  151.2875 H   0  0  0  0  0  0  0  0  0  0  0  0  # atno 10718 bound_to 10713
  152.9790  135.5805  154.4615 H   0  0  0  0  0  0  0  0  0  0  0  0  # atno 10763 bound_to 10752
  154.4190  135.2771  155.1989 H   0  0  0  0  0  0  0  0  0  0  0  0  # atno 10764 bound_to 10752
  154.3747  135.6160  153.5812 H   0  0  0  0  0  0  0  0  0  0  0  0  # atno 10765 bound_to 10752
  139.9619  134.7046  156.0627 H   0  0  0  0  0  0  0  0  0  0  0  0  # atno 11005 bound_to 11000
  146.3141  139.7853  142.8997 LP  0  0  0  0  0  0  0  0  0  0  0  0  # atno 17320 bound_to 7965
  145.3513  141.0308  143.3337 LP  0  0  0  0  0  0  0  0  0  0  0  0  # atno 17321 bound_to 7965
  140.5537  143.2202  151.7883 LP  0  0  0  0  0  0  0  0  0  0  0  0  # atno 17342 bound_to 10162
  139.4886  144.4442  151.9730 LP  0  0  0  0  0  0  0  0  0  0  0  0  # atno 17343 bound_to 10162
  157.5508  130.8181  149.8143 LP  0  0  0  0  0  0  0  0  0  0  0  0  # atno 17370 bound_to 10713
  156.0234  130.3787  150.1893 LP  0  0  0  0  0  0  0  0  0  0  0  0  # atno 17371 bound_to 10713
  141.1297  133.6590  156.3431 LP  0  0  0  0  0  0  0  0  0  0  0  0  # atno 17394 bound_to 11000
  140.5481  134.6055  157.5399 LP  0  0  0  0  0  0  0  0  0  0  0  0  # atno 17395 bound_to 11000

$$$$
