AV-unprocessed.smi:40|AV-procd|sdf|379|dock1
  -GOLD-   2262016233D 1   1.00000     0.00000
 Structure written by MMmdl.
 47 48  0  0  0  0  0  0  0  0  1 V2000
  153.1271  142.6200  161.7084 C   0  0  0  0  0  0  0  0  0  0  0  0
  152.5092  143.4910  160.6089 C   0  0  0  0  0  0  0  0  0  0  0  0
  152.5360  142.8080  159.2347 C   0  0  0  0  0  0  0  0  0  0  0  0
  151.6226  143.4998  158.2085 C   0  0  0  0  0  0  0  0  0  0  0  0
  151.3427  142.6357  156.9706 C   0  0  0  0  0  0  0  0  0  0  0  0
  151.0605  141.3125  157.3927 O   0  0  0  0  0  0  0  0  0  0  0  0
  151.0962  140.2842  156.5306 C   0  0  0  0  0  0  0  0  0  0  0  0
  151.3512  140.4035  155.3324 O   0  0  0  0  0  0  0  0  0  0  0  0
  150.7936  139.0165  157.1833 N   0  0  0  0  0  0  0  0  0  0  0  0
  150.7263  137.7572  156.6768 C   0  0  0  0  0  0  0  0  0  0  0  0
  151.3676  136.7226  157.1969 N   0  0  0  0  0  0  0  0  0  0  0  0
  151.3020  135.4459  156.7111 C   0  0  0  0  0  0  0  0  0  0  0  0
  151.9045  134.5350  157.2738 O   0  0  0  0  0  0  0  0  0  0  0  0
  150.5116  135.2313  155.5557 N   0  0  0  0  0  0  0  0  0  0  0  0
  150.3380  133.8413  154.9770 C   0  0  2  0  0  0  0  0  0  0  0  0
  149.6056  133.9320  153.7945 O   0  0  0  0  0  0  0  0  0  0  0  0
  148.8506  132.7383  153.6349 C   0  0  2  0  0  0  0  0  0  0  0  0
  147.7112  132.9337  152.6237 C   0  0  0  0  0  0  0  0  0  0  0  0
  148.4413  132.3446  155.0635 C   0  0  2  0  0  0  0  0  0  0  0  0
  147.2225  132.9574  155.4451 O   0  0  0  0  0  0  0  0  0  0  0  0
  149.6355  132.8135  155.8967 C   0  0  2  0  0  0  0  0  0  0  0  0
  149.3013  133.2617  157.1999 O   0  0  0  0  0  0  0  0  0  0  0  0
  149.8183  136.2958  155.0009 C   0  0  0  0  0  0  0  0  0  0  0  0
  149.8976  137.5451  155.5087 C   0  0  0  0  0  0  0  0  0  0  0  0
  149.2185  138.5587  154.9436 F   0  0  0  0  0  0  0  0  0  0  0  0
  151.3441  133.5092  154.7176 H   0  0  0  0  0  0  0  0  0  0  0  0
  149.5328  131.9771  153.2521 H   0  0  0  0  0  0  0  0  0  0  0  0
  148.3022  131.2665  155.1499 H   0  0  0  0  0  0  0  0  0  0  0  0
  150.3287  131.9792  156.0109 H   0  0  0  0  0  0  0  0  0  0  0  0
  153.0953  143.1294  162.6715 H   0  0  0  0  0  0  0  0  0  0  0  0
  154.1706  142.3913  161.4883 H   0  0  0  0  0  0  0  0  0  0  0  0
  152.5907  141.6765  161.8121 H   0  0  0  0  0  0  0  0  0  0  0  0
  151.4814  143.7385  160.8764 H   0  0  0  0  0  0  0  0  0  0  0  0
  153.0521  144.4357  160.5580 H   0  0  0  0  0  0  0  0  0  0  0  0
  153.5624  142.8028  158.8666 H   0  0  0  0  0  0  0  0  0  0  0  0
  152.2422  141.7629  159.3387 H   0  0  0  0  0  0  0  0  0  0  0  0
  150.6753  143.7557  158.6839 H   0  0  0  0  0  0  0  0  0  0  0  0
  152.0721  144.4422  157.8933 H   0  0  0  0  0  0  0  0  0  0  0  0
  150.4981  143.0337  156.4066 H   0  0  0  0  0  0  0  0  0  0  0  0
  152.2122  142.6399  156.3119 H   0  0  0  0  0  0  0  0  0  0  0  0
  150.6351  139.1024  158.1769 H   0  0  0  0  0  0  0  0  0  0  0  0
  147.1090  132.0297  152.5321 H   0  0  0  0  0  0  0  0  0  0  0  0
  148.1079  133.1714  151.6365 H   0  0  0  0  0  0  0  0  0  0  0  0
  147.0515  133.7515  152.9153 H   0  0  0  0  0  0  0  0  0  0  0  0
  147.4029  133.5740  156.1381 H   0  0  0  0  0  0  0  0  0  0  0  0
  148.8721  134.1003  157.1277 H   0  0  0  0  0  0  0  0  0  0  0  0
  149.1951  136.1385  154.1322 H   0  0  0  0  0  0  0  0  0  0  0  0
  1  2  1  0  0  0  0
  1 30  1  0  0  0  0
  1 31  1  0  0  0  0
  1 32  1  0  0  0  0
  2  3  1  0  0  0  0
  2 33  1  0  0  0  0
  2 34  1  0  0  0  0
  3  4  1  0  0  0  0
  3 35  1  0  0  0  0
  3 36  1  0  0  0  0
  4  5  1  0  0  0  0
  4 37  1  0  0  0  0
  4 38  1  0  0  0  0
  5  6  1  0  0  0  0
  5 39  1  0  0  0  0
  5 40  1  0  0  0  0
  6  7  1  0  0  0  0
  7  8  2  0  0  0  0
  7  9  1  0  0  0  0
  9 10  1  0  0  0  0
  9 41  1  0  0  0  0
 10 24  1  0  0  0  0
 10 11  2  0  0  0  0
 11 12  1  0  0  0  0
 12 13  2  0  0  0  0
 12 14  1  0  0  0  0
 14 15  1  0  0  0  0
 14 23  1  0  0  0  0
 15 26  1  0  0  0  0
 15 21  1  0  0  0  0
 15 16  1  0  0  0  0
 16 17  1  0  0  0  0
 17 27  1  0  0  0  0
 17 18  1  0  0  0  0
 17 19  1  0  0  0  0
 18 42  1  0  0  0  0
 18 43  1  0  0  0  0
 18 44  1  0  0  0  0
 19 28  1  0  0  0  0
 19 20  1  0  0  0  0
 19 21  1  0  0  0  0
 20 45  1  0  0  0  0
 21 29  1  0  0  0  0
 21 22  1  0  0  0  0
 22 46  1  0  0  0  0
 23 24  2  0  0  0  0
 23 47  1  0  0  0  0
 24 25  1  0  0  0  0
M  END
> <s_m_source_file>
AV-unprocessed.smi

> <i_m_source_file_index>
40

> <i_lp_mmshare_version>
43012

> <i_f3d_flags>
0

> <s_epik_input>
W0NIM11bQ0gyXVtDSDJdW0NIMl1bQ0gyXU9DKD1PKVtOSF1jMW5jKD1PKW4oW2NIXWMxRilbQ0BASF0yT1tDQEhdKFtDSDNdKVtDQEBIXShbT0hdKVtDQEhdMltPSF0=

> <s_epik_cmdline>
J2VwaWtfcHl0aG9uJywgJy1waCcsICc3LjAnLCAnLXRuJywgJzgnLCAnLW1hJywgJzIwMCcsICctbWV0YWxfYmluZGluZycsICctaW1hZScsICc8aW5maWxlLm1hZT4nLCAnLW9tYWUnLCAnPG91dGZpbGUubWFlPic=

> <r_lp_tautomer_probability>
1

> <r_epik_Ionization_Penalty>
2.29506e-06

> <r_epik_Ionization_Penalty_Charging>
8.26867e-09

> <r_epik_Ionization_Penalty_Neutral>
2.2868e-06

> <r_epik_State_Penalty>
-0

> <r_epik_Charging_Adjusted_Penalty>
8.26867e-09

> <i_epik_Tot_Q>
0

> <i_epik_Tot_abs_Q>
0

> <r_epik_Metal_State_Penalty>
-0

> <b_epik_Metal_Only>
0

> <s_epik_Chemistry_Notes>
This compound has an ester and may undergo hydrolysis at high or low pH. This compound contains an acetal/aminal-like group ( X-CH(R)-Y where X, Y are N, S, or O) that may be acid/base labile, releasing an aldehyde.

> <s_lp_Force_Field>
OPLS_2005

> <r_lp_Energy>
38.6632

> <b_lp_Chiralities_Consistent>
1

> <s_lp_Variant>
AV-unprocessed.smi:40-13

> <Gold.Version>
5.8.1

> <Gold.Id.Protein>
6NUR|6NUR_protein|mol2

> <Gold.PLP.Fitness>
41.3682

> <Gold.PLP.PLP>
-36.5844

> <Gold.PLP.part.hbond>
-2.0000

> <Gold.PLP.part.metal>
0.0000

> <Gold.PLP.part.buried>
-5.5562

> <Gold.PLP.part.nonpolar>
-29.6546

> <Gold.PLP.part.repulsive>
0.8451

> <Gold.PLP.ligand.clash>
0.0000

> <Gold.PLP.ligand.torsion>
0.7702

> <Gold.PLP.Chemscore.Hbond>
1.0002

> <Gold.PLP.Chemscore.CHOScore>
1.0000

> <Gold.PLP.Chemscore.Metal>
0.0000

> <Gold.Chemscore.Hbonds>
donor molecule, donor type, donor heavy atom, donor atom, acceptor molecule, acceptor atom, score
      P1  H  7989  7998       L1     8  0.93
      L1  C    23    47       P1  7948  1.00

> <Gold.PLP.Chemscore.Internal.Correction>
0.3237

> <Gold.Rescore>
     Score         DG    S(hbond)    S(metal)    S(lipo)     H(rot)  DE(clash)    DE(int)     intcor
      6.55      -9.90       1.30        0.00      81.50       3.70       0.21       3.14       ----

> <Gold.Chemscore.Fitness>
6.5472

> <Gold.Chemscore.DG>
-9.8975

> <Gold.Chemscore.ZeroCoef>
-5.4800

> <Gold.Chemscore.Hbond>
1.3003

> <Gold.Chemscore.Metal>
0.0000

> <Gold.Chemscore.Lipo>
81.4988

> <Gold.Chemscore.Internal_Hbond>
0.0000

> <Gold.Chemscore.DEClash>
0.2083

> <Gold.Chemscore.DEInternal>
3.1419

> <Gold.Chemscore.Rot>
3.6957

> <Gold.Chemscore.Internal.Correction>
   9.000000E+99

> <Gold.Chemscore.Hbonds>
donor molecule, donor type, donor heavy atom, donor atom, acceptor molecule, acceptor atom, score
      P1  H  6896  6907       L1    13  0.01
      P1  H  7989  7998       L1     8  0.91

> <Gold.Chemscore.Hbond.Weighted>
-4.3431

> <Gold.Chemscore.Metal.Weighted>
-0.0000

> <Gold.Chemscore.Lipo.Weighted>
-9.5354

> <Gold.Chemscore.Internal_Hbond.Weighted>
0.0000

> <Gold.Chemscore.DEClash.Weighted>
0.2083

> <Gold.Chemscore.DEInternal.Weighted>
3.1419

> <Gold.Chemscore.Rot.Weighted>
9.4610

> <Gold.Chemscore.Internal.Correction.Weighted>
   9.000000E+99

> <Gold.Protein.RotatedTorsions>
[ 6907 6896 6895 6894 ] final -127.52 input  -60.11 | X-H torsion
[ 7974 7965 7964 7962 ] final  138.50 input  175.53 | X-H torsion
[ 8008 7997 7996 7995 ] final   69.84 input   59.86 | X-H torsion
[ 10167 10162 10161 10158 ] final  113.64 input  -65.29 | X-H torsion
[ 10718 10713 10712 10709 ] final   56.40 input   66.30 | X-H torsion
[ 10763 10752 10751 10750 ] final -156.97 input  -60.55 | X-H torsion
[ 11005 11000 10999 10996 ] final   64.73 input  -57.11 | X-H torsion

> <Gold.Protein.ActiveResidues>
 VAL166  LYS551  ARG553  GLY616  TRP617  ASP618  TYR619  PRO620  LYS621  CYS622 
 ASP623  PHE694  ASN695  SER759  ASP760  ASP761  ALA762  ILE779  LEU786  VAL792 
 PHE793  MET794  SER795  GLU796  ALA797  LYS798  CYS799  TRP800  GLU811  SER814 

> <Gold.Protein.RotatedAtoms>
  150.9082  133.7032  159.2861 H   0  0  0  0  0  0  0  0  0  0  0  0  # atno 6907 bound_to 6896
  151.4527  135.1030  159.9712 H   0  0  0  0  0  0  0  0  0  0  0  0  # atno 6908 bound_to 6896
  152.4915  133.8463  159.7234 H   0  0  0  0  0  0  0  0  0  0  0  0  # atno 6909 bound_to 6896
  144.9367  139.4981  143.5592 H   0  0  0  0  0  0  0  0  0  0  0  0  # atno 7974 bound_to 7965
  155.7297  140.3492  155.5053 H   0  0  0  0  0  0  0  0  0  0  0  0  # atno 8008 bound_to 7997
  155.9194  140.1064  157.1240 H   0  0  0  0  0  0  0  0  0  0  0  0  # atno 8009 bound_to 7997
  154.4067  140.1252  156.4646 H   0  0  0  0  0  0  0  0  0  0  0  0  # atno 8010 bound_to 7997
  139.6446  144.7126  151.2168 H   0  0  0  0  0  0  0  0  0  0  0  0  # atno 10167 bound_to 10162
  157.5427  130.8709  149.8846 H   0  0  0  0  0  0  0  0  0  0  0  0  # atno 10718 bound_to 10713
  154.7672  135.3134  154.8262 H   0  0  0  0  0  0  0  0  0  0  0  0  # atno 10763 bound_to 10752
  153.9007  135.6816  153.4759 H   0  0  0  0  0  0  0  0  0  0  0  0  # atno 10764 bound_to 10752
  153.1280  135.4793  154.9236 H   0  0  0  0  0  0  0  0  0  0  0  0  # atno 10765 bound_to 10752
  139.9940  134.6546  156.0042 H   0  0  0  0  0  0  0  0  0  0  0  0  # atno 11005 bound_to 11000
  146.3269  139.8356  142.8900 LP  0  0  0  0  0  0  0  0  0  0  0  0  # atno 17320 bound_to 7965
  145.3056  141.0206  143.3584 LP  0  0  0  0  0  0  0  0  0  0  0  0  # atno 17321 bound_to 7965
  140.7508  143.6253  150.8474 LP  0  0  0  0  0  0  0  0  0  0  0  0  # atno 17342 bound_to 10162
  139.9894  143.5863  152.2915 LP  0  0  0  0  0  0  0  0  0  0  0  0  # atno 17343 bound_to 10162
  156.0510  130.3717  150.1201 LP  0  0  0  0  0  0  0  0  0  0  0  0  # atno 17370 bound_to 10713
  156.9380  130.9735  151.3521 LP  0  0  0  0  0  0  0  0  0  0  0  0  # atno 17371 bound_to 10713
  141.1589  133.6540  156.4253 LP  0  0  0  0  0  0  0  0  0  0  0  0  # atno 17394 bound_to 11000
  140.4854  134.6626  157.5188 LP  0  0  0  0  0  0  0  0  0  0  0  0  # atno 17395 bound_to 11000

$$$$
