AV-unprocessed.smi:1244|AV-procd|sdf|5234|dock10
  -GOLD-   22720 4343D 1   1.00000     0.00000
 Structure written by MMmdl.
 56 58  0  0  0  0  0  0  0  0  3 V2000
  150.7953  139.6480  155.2904 C   0  0  0  0  0  0  0  0  0  0  0  0
  149.8472  138.4731  155.0262 C   0  0  1  0  0  0  0  0  0  0  0  0
  150.4535  137.1309  155.4730 C   0  0  0  0  0  0  0  0  0  0  0  0
  149.4787  136.0315  155.2838 N   0  3  1  0  0  0  0  0  0  0  0  0
  150.0566  134.7023  155.6046 C   0  0  0  0  0  0  0  0  0  0  0  0
  149.3515  133.5568  154.8533 C   0  0  0  0  0  0  0  0  0  0  0  0
  148.3703  134.0630  153.9005 N   0  0  0  0  0  0  0  0  0  0  0  0
  147.5729  133.2989  153.1406 C   0  0  0  0  0  0  0  0  0  0  0  0
  147.5743  132.0689  153.1805 O   0  0  0  0  0  0  0  0  0  0  0  0
  146.8018  134.0492  152.3353 N   0  0  0  0  0  0  0  0  0  0  0  0
  145.8716  133.6150  151.3475 C   0  0  0  0  0  0  0  0  0  0  0  0
  146.1533  132.5119  150.5002 C   0  0  0  0  0  0  0  0  0  0  0  0
  145.2232  132.1232  149.5180 C   0  0  0  0  0  0  0  0  0  0  0  0
  144.0211  132.8404  149.3984 C   0  0  0  0  0  0  0  0  0  0  0  0
  143.7721  133.8709  150.2322 N   0  3  0  0  0  0  0  0  0  0  0  0
  144.6198  134.2835  151.2078 C   0  0  0  0  0  0  0  0  0  0  0  0
  144.2142  135.3702  152.0164 N   0  0  0  0  0  0  0  0  0  0  0  0
  143.2352  136.3332  151.5250 C   0  0  0  0  0  0  0  0  0  0  0  0
  142.7941  137.1151  152.7596 C   0  0  0  0  0  0  0  0  0  0  0  0
  142.8356  136.0526  153.8537 C   0  0  0  0  0  0  0  0  0  0  0  0
  144.0095  135.1560  153.4455 C   0  0  0  0  0  0  0  0  0  0  0  0
  148.2232  136.3275  156.0178 C   0  0  0  0  0  0  0  0  0  0  0  0
  147.6477  137.6973  155.6071 C   0  0  2  0  0  0  0  0  0  0  0  0
  147.0031  137.7000  154.2091 C   0  0  0  0  0  0  0  0  0  0  0  0
  148.6414  138.7124  155.7472 O   0  0  0  0  0  0  0  0  0  0  0  0
  151.7349  139.5237  154.7515 H   0  0  0  0  0  0  0  0  0  0  0  0
  151.0272  139.7381  156.3522 H   0  0  0  0  0  0  0  0  0  0  0  0
  150.3494  140.5886  154.9660 H   0  0  0  0  0  0  0  0  0  0  0  0
  149.6383  138.4437  153.9566 H   0  0  0  0  0  0  0  0  0  0  0  0
  151.3552  136.9290  154.8930 H   0  0  0  0  0  0  0  0  0  0  0  0
  150.7508  137.1773  156.5223 H   0  0  0  0  0  0  0  0  0  0  0  0
  151.1105  134.7019  155.3216 H   0  0  0  0  0  0  0  0  0  0  0  0
  150.0272  134.5356  156.6825 H   0  0  0  0  0  0  0  0  0  0  0  0
  150.0686  132.9635  154.2877 H   0  0  0  0  0  0  0  0  0  0  0  0
  148.8721  132.8751  155.5582 H   0  0  0  0  0  0  0  0  0  0  0  0
  148.3077  135.0661  153.8018 H   0  0  0  0  0  0  0  0  0  0  0  0
  146.9792  135.0427  152.3552 H   0  0  0  0  0  0  0  0  0  0  0  0
  147.0698  131.9493  150.5906 H   0  0  0  0  0  0  0  0  0  0  0  0
  145.4311  131.2877  148.8653 H   0  0  0  0  0  0  0  0  0  0  0  0
  143.2517  132.6181  148.6731 H   0  0  0  0  0  0  0  0  0  0  0  0
  143.6659  136.9866  150.7654 H   0  0  0  0  0  0  0  0  0  0  0  0
  142.3764  135.8191  151.0911 H   0  0  0  0  0  0  0  0  0  0  0  0
  143.5146  137.9042  152.9798 H   0  0  0  0  0  0  0  0  0  0  0  0
  141.8117  137.5739  152.6444 H   0  0  0  0  0  0  0  0  0  0  0  0
  142.9508  136.4734  154.8529 H   0  0  0  0  0  0  0  0  0  0  0  0
  141.9098  135.4759  153.8377 H   0  0  0  0  0  0  0  0  0  0  0  0
  143.8091  134.1099  153.6815 H   0  0  0  0  0  0  0  0  0  0  0  0
  144.9113  135.4598  153.9777 H   0  0  0  0  0  0  0  0  0  0  0  0
  147.4761  135.5544  155.8422 H   0  0  0  0  0  0  0  0  0  0  0  0
  148.4301  136.3258  157.0895 H   0  0  0  0  0  0  0  0  0  0  0  0
  146.8585  137.9497  156.3157 H   0  0  0  0  0  0  0  0  0  0  0  0
  146.1607  137.0089  154.1711 H   0  0  0  0  0  0  0  0  0  0  0  0
  147.7015  137.3999  153.4283 H   0  0  0  0  0  0  0  0  0  0  0  0
  146.6256  138.6913  153.9576 H   0  0  0  0  0  0  0  0  0  0  0  0
  149.2532  136.0193  154.2992 H   0  0  0  0  0  0  0  0  0  0  0  0
  142.8857  134.3648  150.1274 H   0  0  0  0  0  0  0  0  0  0  0  0
  1  2  1  0  0  0  0
  1 26  1  0  0  0  0
  1 27  1  0  0  0  0
  1 28  1  0  0  0  0
  2 25  1  0  0  0  0
  2  3  1  0  0  0  0
  2 29  1  0  0  0  0
  3  4  1  0  0  0  0
  3 30  1  0  0  0  0
  3 31  1  0  0  0  0
  4  5  1  0  0  0  0
  4 22  1  0  0  0  0
  4 55  1  0  0  0  0
  5  6  1  0  0  0  0
  5 32  1  0  0  0  0
  5 33  1  0  0  0  0
  6  7  1  0  0  0  0
  6 34  1  0  0  0  0
  6 35  1  0  0  0  0
  7  8  1  0  0  0  0
  7 36  1  0  0  0  0
  8  9  2  0  0  0  0
  8 10  1  0  0  0  0
 10 11  1  0  0  0  0
 10 37  1  0  0  0  0
 11 16  1  0  0  0  0
 11 12  2  0  0  0  0
 12 13  1  0  0  0  0
 12 38  1  0  0  0  0
 13 14  2  0  0  0  0
 13 39  1  0  0  0  0
 14 15  1  0  0  0  0
 14 40  1  0  0  0  0
 15 16  2  0  0  0  0
 15 56  1  0  0  0  0
 16 17  1  0  0  0  0
 17 21  1  0  0  0  0
 17 18  1  0  0  0  0
 18 19  1  0  0  0  0
 18 41  1  0  0  0  0
 18 42  1  0  0  0  0
 19 20  1  0  0  0  0
 19 43  1  0  0  0  0
 19 44  1  0  0  0  0
 20 21  1  0  0  0  0
 20 45  1  0  0  0  0
 20 46  1  0  0  0  0
 21 47  1  0  0  0  0
 21 48  1  0  0  0  0
 22 23  1  0  0  0  0
 22 49  1  0  0  0  0
 22 50  1  0  0  0  0
 23 24  1  0  0  0  0
 23 25  1  0  0  0  0
 23 51  1  0  0  0  0
 24 52  1  0  0  0  0
 24 53  1  0  0  0  0
 24 54  1  0  0  0  0
M  CHG  1   4   1
M  CHG  1  15   1
M  END
> <s_m_source_file>
AV-unprocessed.smi

> <i_m_source_file_index>
1244

> <i_lp_mmshare_version>
43012

> <i_f3d_flags>
0

> <s_epik_input>
W0NIM11bQ0BASF0xW0NIMl1OKFtDSDJdW0NASF0oTzEpW0NIM10pW0NIMl1bQ0gyXVtOSF1DKD1PKVtOSF1jMltjSF1bY0hdW2NIXW5jMk4zW0NIMl1bQ0gyXVtDSDJdW0NIMl0z

> <s_epik_cmdline>
J2VwaWtfcHl0aG9uJywgJy1waCcsICc3LjAnLCAnLXRuJywgJzgnLCAnLW1hJywgJzIwMCcsICctbWV0YWxfYmluZGluZycsICctaW1hZScsICc8aW5maWxlLm1hZT4nLCAnLW9tYWUnLCAnPG91dGZpbGUubWFlPic=

> <r_lp_tautomer_probability>
0.999994

> <r_epik_Ionization_Penalty>
1.81601

> <r_epik_Ionization_Penalty_Charging>
1.81599

> <r_epik_Ionization_Penalty_Neutral>
2.01972e-05

> <r_epik_State_Penalty>
1.85672

> <r_epik_Charging_Adjusted_Penalty>
3.6727

> <i_epik_Tot_Q>
2

> <i_epik_Tot_abs_Q>
2

> <r_epik_Metal_State_Penalty>
1.93796

> <b_epik_Metal_Only>
0

> <s_lp_Force_Field>
OPLS_2005

> <r_lp_Energy>
54.6365

> <b_lp_Chiralities_Consistent>
1

> <s_lp_Variant>
AV-unprocessed.smi:1244-14

> <Gold.Version>
5.8.1

> <Gold.Id.Protein>
6NUR|6NUR_protein|mol2

> <Gold.PLP.Fitness>
47.5876

> <Gold.PLP.PLP>
-35.0222

> <Gold.PLP.part.hbond>
-3.9579

> <Gold.PLP.part.metal>
0.0000

> <Gold.PLP.part.buried>
-1.1649

> <Gold.PLP.part.nonpolar>
-29.5117

> <Gold.PLP.part.repulsive>
1.0462

> <Gold.PLP.ligand.clash>
0.0000

> <Gold.PLP.ligand.torsion>
1.2831

> <Gold.PLP.Chemscore.Hbond>
4.9019

> <Gold.PLP.Chemscore.CHOScore>
0.0000

> <Gold.PLP.Chemscore.Metal>
0.0000

> <Gold.Chemscore.Hbonds>
donor molecule, donor type, donor heavy atom, donor atom, acceptor molecule, acceptor atom, score
      L1  H     7    36       P1  7948  0.11
      L1  H    10    37       P1  7948  0.15
      L1  H    15    56       P1 10186  2.00

> <Gold.PLP.Chemscore.Internal.Correction>
0.4258

> <Gold.Rescore>
     Score         DG    S(hbond)    S(metal)    S(lipo)     H(rot)  DE(clash)    DE(int)     intcor
     15.53     -19.34       2.32        0.00      87.84       1.63       1.68       2.13       ----

> <Gold.Chemscore.Fitness>
15.5345

> <Gold.Chemscore.DG>
-19.3432

> <Gold.Chemscore.ZeroCoef>
-5.4800

> <Gold.Chemscore.Hbond>
2.3223

> <Gold.Chemscore.Metal>
0.0000

> <Gold.Chemscore.Lipo>
87.8421

> <Gold.Chemscore.Internal_Hbond>
0.0000

> <Gold.Chemscore.DEClash>
1.6787

> <Gold.Chemscore.DEInternal>
2.1301

> <Gold.Chemscore.Rot>
1.6293

> <Gold.Chemscore.Internal.Correction>
   9.000000E+99

> <Gold.Chemscore.Hbonds>
donor molecule, donor type, donor heavy atom, donor atom, acceptor molecule, acceptor atom, score
      L1  H     4    55       P1  7948  0.05
      L1  H     7    36       P1  7948  0.11
      L1  H    10    37       P1  7948  0.16
      L1  H    15    56       P1 10186  0.84

> <Gold.Chemscore.Hbond.Weighted>
-7.7566

> <Gold.Chemscore.Metal.Weighted>
-0.0000

> <Gold.Chemscore.Lipo.Weighted>
-10.2775

> <Gold.Chemscore.Internal_Hbond.Weighted>
0.0000

> <Gold.Chemscore.DEClash.Weighted>
1.6787

> <Gold.Chemscore.DEInternal.Weighted>
2.1301

> <Gold.Chemscore.Rot.Weighted>
4.1709

> <Gold.Chemscore.Internal.Correction.Weighted>
   9.000000E+99

> <Gold.Protein.RotatedTorsions>
[ 6907 6896 6895 6894 ] final   32.14 input  -60.11 | X-H torsion
[ 7974 7965 7964 7962 ] final -171.96 input  175.53 | X-H torsion
[ 8008 7997 7996 7995 ] final  -57.28 input   59.86 | X-H torsion
[ 10167 10162 10161 10158 ] final -144.32 input  -65.29 | X-H torsion
[ 10718 10713 10712 10709 ] final  126.70 input   66.30 | X-H torsion
[ 10763 10752 10751 10750 ] final  120.50 input  -60.55 | X-H torsion
[ 11005 11000 10999 10996 ] final  -88.50 input  -57.11 | X-H torsion

> <Gold.Protein.ActiveResidues>
 VAL166  LYS551  ARG553  GLY616  TRP617  ASP618  TYR619  PRO620  LYS621  CYS622 
 ASP623  PHE694  ASN695  SER759  ASP760  ASP761  ALA762  ILE779  LEU786  VAL792 
 PHE793  MET794  SER795  GLU796  ALA797  LYS798  CYS799  TRP800  GLU811  SER814 

> <Gold.Protein.RotatedAtoms>
  152.0702  134.9538  160.0574 H   0  0  0  0  0  0  0  0  0  0  0  0  # atno 6907 bound_to 6896
  152.0867  133.4175  159.4533 H   0  0  0  0  0  0  0  0  0  0  0  0  # atno 6908 bound_to 6896
  150.6836  134.2839  159.4682 H   0  0  0  0  0  0  0  0  0  0  0  0  # atno 6909 bound_to 6896
  144.7151  140.1843  143.6355 H   0  0  0  0  0  0  0  0  0  0  0  0  # atno 7974 bound_to 7965
  154.4262  140.1110  156.5773 H   0  0  0  0  0  0  0  0  0  0  0  0  # atno 8008 bound_to 7997
  155.6149  140.3494  155.4615 H   0  0  0  0  0  0  0  0  0  0  0  0  # atno 8009 bound_to 7997
  156.0070  140.1211  157.0481 H   0  0  0  0  0  0  0  0  0  0  0  0  # atno 8010 bound_to 7997
  139.7910  143.7967  152.2650 H   0  0  0  0  0  0  0  0  0  0  0  0  # atno 10167 bound_to 10162
  157.5396  131.1097  150.8879 H   0  0  0  0  0  0  0  0  0  0  0  0  # atno 10718 bound_to 10713
  153.5995  135.3451  155.2940 H   0  0  0  0  0  0  0  0  0  0  0  0  # atno 10763 bound_to 10752
  154.8638  135.4224  154.2428 H   0  0  0  0  0  0  0  0  0  0  0  0  # atno 10764 bound_to 10752
  153.3254  135.7041  153.7065 H   0  0  0  0  0  0  0  0  0  0  0  0  # atno 10765 bound_to 10752
  141.1600  133.7574  156.9461 H   0  0  0  0  0  0  0  0  0  0  0  0  # atno 11005 bound_to 11000
  145.8827  139.2332  143.1596 LP  0  0  0  0  0  0  0  0  0  0  0  0  # atno 17320 bound_to 7965
  145.9979  140.8546  143.0033 LP  0  0  0  0  0  0  0  0  0  0  0  0  # atno 17321 bound_to 7965
  139.8058  144.7356  150.9763 LP  0  0  0  0  0  0  0  0  0  0  0  0  # atno 17342 bound_to 10162
  140.7820  143.4300  151.0710 LP  0  0  0  0  0  0  0  0  0  0  0  0  # atno 17343 bound_to 10162
  156.9436  130.5393  149.5280 LP  0  0  0  0  0  0  0  0  0  0  0  0  # atno 17370 bound_to 10713
  156.0486  130.5559  150.8938 LP  0  0  0  0  0  0  0  0  0  0  0  0  # atno 17371 bound_to 10713
  140.1289  134.9369  157.2309 LP  0  0  0  0  0  0  0  0  0  0  0  0  # atno 17394 bound_to 11000
  140.2978  134.3166  155.7297 LP  0  0  0  0  0  0  0  0  0  0  0  0  # atno 17395 bound_to 11000

$$$$
