AV-unprocessed.smi:2877|AV-procd|sdf|11044|dock2
  -GOLD-   2272015513D 1   1.00000     0.00000
 Structure written by MMmdl.
 40 41  0  0  0  0  0  0  0  0  2 V2000
  146.5906  137.5396  160.5317 O   0  0  0  0  0  0  0  0  0  0  0  0
  147.2751  136.5859  160.9199 C   0  0  0  0  0  0  0  0  0  0  0  0
  148.6426  136.2529  160.2603 C   0  0  0  0  0  0  0  0  0  0  0  0
  148.8707  136.6805  158.7874 C   0  0  0  0  0  0  0  0  0  0  0  0
  149.7696  137.8318  158.7361 N   0  5  0  0  0  0  0  0  0  0  0  0
  151.1315  137.7432  158.7531 C   0  0  0  0  0  0  0  0  0  0  0  0
  151.8717  137.0624  159.4729 O   0  0  0  0  0  0  0  0  0  0  0  0
  151.7772  138.6521  157.6855 C   0  0  0  0  0  0  0  0  0  0  0  0
  153.0914  138.4153  157.6448 F   0  0  0  0  0  0  0  0  0  0  0  0
  151.2810  138.3399  156.4842 F   0  0  0  0  0  0  0  0  0  0  0  0
  151.5410  140.1297  158.0001 C   0  0  0  0  0  0  0  0  0  0  0  0
  152.0714  140.7199  159.1707 C   0  0  0  0  0  0  0  0  0  0  0  0
  151.8329  142.0870  159.4073 C   0  0  0  0  0  0  0  0  0  0  0  0
  151.0728  142.8149  158.4728 C   0  0  0  0  0  0  0  0  0  0  0  0
  150.5865  142.1401  157.3360 C   0  0  0  0  0  0  0  0  0  0  0  0
  150.8095  140.8300  157.0992 N   0  0  0  0  0  0  0  0  0  0  0  0
  146.8513  135.7940  161.9385 N   0  0  0  0  0  0  0  0  0  0  0  0
  145.5309  135.9453  162.5663 C   0  0  0  0  0  0  0  0  0  0  0  0
  144.6488  134.7507  162.1579 C   0  0  0  0  0  0  0  0  0  0  0  0
  145.3187  133.4155  162.5350 C   0  0  0  0  0  0  0  0  0  0  0  0
  146.7764  133.3501  162.0405 C   0  0  0  0  0  0  0  0  0  0  0  0
  147.5537  134.6113  162.4588 C   0  0  0  0  0  0  0  0  0  0  0  0
  149.4212  136.7068  160.8750 H   0  0  0  0  0  0  0  0  0  0  0  0
  148.7839  135.1727  160.3165 H   0  0  0  0  0  0  0  0  0  0  0  0
  149.2911  135.8388  158.2361 H   0  0  0  0  0  0  0  0  0  0  0  0
  147.9075  136.8813  158.3156 H   0  0  0  0  0  0  0  0  0  0  0  0
  152.6595  140.1420  159.8681 H   0  0  0  0  0  0  0  0  0  0  0  0
  152.2275  142.5688  160.2895 H   0  0  0  0  0  0  0  0  0  0  0  0
  150.8696  143.8649  158.6221 H   0  0  0  0  0  0  0  0  0  0  0  0
  150.0015  142.6672  156.5970 H   0  0  0  0  0  0  0  0  0  0  0  0
  145.6462  135.9735  163.6507 H   0  0  0  0  0  0  0  0  0  0  0  0
  145.0343  136.8791  162.2998 H   0  0  0  0  0  0  0  0  0  0  0  0
  143.6704  134.8252  162.6331 H   0  0  0  0  0  0  0  0  0  0  0  0
  144.4739  134.7802  161.0815 H   0  0  0  0  0  0  0  0  0  0  0  0
  145.3062  133.3064  163.6202 H   0  0  0  0  0  0  0  0  0  0  0  0
  144.7460  132.5787  162.1345 H   0  0  0  0  0  0  0  0  0  0  0  0
  147.2644  132.4590  162.4361 H   0  0  0  0  0  0  0  0  0  0  0  0
  146.7918  133.2566  160.9537 H   0  0  0  0  0  0  0  0  0  0  0  0
  148.5908  134.5335  162.1374 H   0  0  0  0  0  0  0  0  0  0  0  0
  147.5988  134.6739  163.5471 H   0  0  0  0  0  0  0  0  0  0  0  0
  1  2  2  0  0  0  0
  2  3  1  0  0  0  0
  2 17  1  0  0  0  0
  3  4  1  0  0  0  0
  3 23  1  0  0  0  0
  3 24  1  0  0  0  0
  4  5  1  0  0  0  0
  4 25  1  0  0  0  0
  4 26  1  0  0  0  0
  5  6  1  0  0  0  0
  6  7  2  0  0  0  0
  6  8  1  0  0  0  0
  8  9  1  0  0  0  0
  8 10  1  0  0  0  0
  8 11  1  0  0  0  0
 11 16  1  0  0  0  0
 11 12  2  0  0  0  0
 12 13  1  0  0  0  0
 12 27  1  0  0  0  0
 13 14  2  0  0  0  0
 13 28  1  0  0  0  0
 14 15  1  0  0  0  0
 14 29  1  0  0  0  0
 15 16  2  0  0  0  0
 15 30  1  0  0  0  0
 17 22  1  0  0  0  0
 17 18  1  0  0  0  0
 18 19  1  0  0  0  0
 18 31  1  0  0  0  0
 18 32  1  0  0  0  0
 19 20  1  0  0  0  0
 19 33  1  0  0  0  0
 19 34  1  0  0  0  0
 20 21  1  0  0  0  0
 20 35  1  0  0  0  0
 20 36  1  0  0  0  0
 21 22  1  0  0  0  0
 21 37  1  0  0  0  0
 21 38  1  0  0  0  0
 22 39  1  0  0  0  0
 22 40  1  0  0  0  0
M  CHG  1   5  -1
M  END
> <s_m_source_file>
AV-unprocessed.smi

> <i_m_source_file_index>
2877

> <i_lp_mmshare_version>
43012

> <i_f3d_flags>
0

> <s_epik_input>
W0NIMl0xW0NIMl1bQ0gyXVtDSDJdW0NIMl1OMUMoPU8pW0NIMl1bQ0gyXVtOSF1DKD1PKUMoRikoRiljMltjSF1bY0hdW2NIXVtjSF1uMg==

> <s_epik_cmdline>
J2VwaWtfcHl0aG9uJywgJy1waCcsICc3LjAnLCAnLXRuJywgJzgnLCAnLW1hJywgJzIwMCcsICctbWV0YWxfYmluZGluZycsICctaW1hZScsICc8aW5maWxlLm1hZT4nLCAnLW9tYWUnLCAnPG91dGZpbGUubWFlPic=

> <r_lp_tautomer_probability>
1

> <r_epik_Ionization_Penalty>
5.30743

> <r_epik_Ionization_Penalty_Charging>
5.30743

> <r_epik_Ionization_Penalty_Neutral>
2.29237e-06

> <r_epik_State_Penalty>
5.30735

> <r_epik_Charging_Adjusted_Penalty>
10.6148

> <i_epik_Tot_Q>
-1

> <i_epik_Tot_abs_Q>
1

> <r_epik_Metal_State_Penalty>
1.35027

> <b_epik_Metal_Only>
1

> <s_lp_Force_Field>
OPLS_2005

> <r_lp_Energy>
42.7236

> <b_lp_Chiralities_Consistent>
1

> <s_lp_Variant>
AV-unprocessed.smi:2877-2

> <Gold.Version>
5.8.1

> <Gold.Id.Protein>
6NUR|6NUR_protein|mol2

> <Gold.PLP.Fitness>
44.9557

> <Gold.PLP.PLP>
-38.5759

> <Gold.PLP.part.hbond>
-2.0000

> <Gold.PLP.part.metal>
0.0000

> <Gold.PLP.part.buried>
-5.8495

> <Gold.PLP.part.nonpolar>
-31.0246

> <Gold.PLP.part.repulsive>
0.0204

> <Gold.PLP.ligand.clash>
0.0000

> <Gold.PLP.ligand.torsion>
1.3880

> <Gold.PLP.Chemscore.Hbond>
2.0000

> <Gold.PLP.Chemscore.CHOScore>
1.0000

> <Gold.PLP.Chemscore.Metal>
0.0000

> <Gold.Chemscore.Hbonds>
donor molecule, donor type, donor heavy atom, donor atom, acceptor molecule, acceptor atom, score
      P1  H  6896  6908       L1     7  1.00
      P1  H  6934  6947       L1     1  1.00
      L1  C    15    30       P1  8028  1.00

> <Gold.PLP.Chemscore.Internal.Correction>
0.1557

> <Gold.Rescore>
     Score         DG    S(hbond)    S(metal)    S(lipo)     H(rot)  DE(clash)    DE(int)     intcor
     16.72     -18.24       1.94        0.00      95.07       1.89       0.23       1.29       ----

> <Gold.Chemscore.Fitness>
16.7229

> <Gold.Chemscore.DG>
-18.2411

> <Gold.Chemscore.ZeroCoef>
-5.4800

> <Gold.Chemscore.Hbond>
1.9366

> <Gold.Chemscore.Metal>
0.0000

> <Gold.Chemscore.Lipo>
95.0739

> <Gold.Chemscore.Internal_Hbond>
0.0000

> <Gold.Chemscore.DEClash>
0.2256

> <Gold.Chemscore.DEInternal>
1.2926

> <Gold.Chemscore.Rot>
1.8871

> <Gold.Chemscore.Internal.Correction>
   9.000000E+99

> <Gold.Chemscore.Hbonds>
donor molecule, donor type, donor heavy atom, donor atom, acceptor molecule, acceptor atom, score
      P1  H  6896  6908       L1     7  0.91
      P1  H  6934  6947       L1     1  0.92

> <Gold.Chemscore.Hbond.Weighted>
-6.4684

> <Gold.Chemscore.Metal.Weighted>
-0.0000

> <Gold.Chemscore.Lipo.Weighted>
-11.1236

> <Gold.Chemscore.Internal_Hbond.Weighted>
0.0000

> <Gold.Chemscore.DEClash.Weighted>
0.2256

> <Gold.Chemscore.DEInternal.Weighted>
1.2926

> <Gold.Chemscore.Rot.Weighted>
4.8309

> <Gold.Chemscore.Internal.Correction.Weighted>
   9.000000E+99

> <Gold.Protein.RotatedTorsions>
[ 6907 6896 6895 6894 ] final -132.27 input  -60.11 | X-H torsion
[ 7974 7965 7964 7962 ] final  -76.08 input  175.53 | X-H torsion
[ 8008 7997 7996 7995 ] final   84.46 input   59.86 | X-H torsion
[ 10167 10162 10161 10158 ] final -122.34 input  -65.29 | X-H torsion
[ 10718 10713 10712 10709 ] final  -47.55 input   66.30 | X-H torsion
[ 10763 10752 10751 10750 ] final  120.32 input  -60.55 | X-H torsion
[ 11005 11000 10999 10996 ] final -127.82 input  -57.11 | X-H torsion

> <Gold.Protein.ActiveResidues>
 VAL166  LYS551  ARG553  GLY616  TRP617  ASP618  TYR619  PRO620  LYS621  CYS622 
 ASP623  PHE694  ASN695  SER759  ASP760  ASP761  ALA762  ILE779  LEU786  VAL792 
 PHE793  MET794  SER795  GLU796  ALA797  LYS798  CYS799  TRP800  GLU811  SER814 

> <Gold.Protein.RotatedAtoms>
  150.9605  133.6450  159.2755 H   0  0  0  0  0  0  0  0  0  0  0  0  # atno 6907 bound_to 6896
  151.3775  135.0932  159.9495 H   0  0  0  0  0  0  0  0  0  0  0  0  # atno 6908 bound_to 6896
  152.5146  133.9146  159.7559 H   0  0  0  0  0  0  0  0  0  0  0  0  # atno 6909 bound_to 6896
  145.6175  140.9371  143.1156 H   0  0  0  0  0  0  0  0  0  0  0  0  # atno 7974 bound_to 7965
  155.9374  140.3410  155.6298 H   0  0  0  0  0  0  0  0  0  0  0  0  # atno 8008 bound_to 7997
  155.7083  140.0768  157.2400 H   0  0  0  0  0  0  0  0  0  0  0  0  # atno 8009 bound_to 7997
  154.4096  140.1627  156.2255 H   0  0  0  0  0  0  0  0  0  0  0  0  # atno 8010 bound_to 7997
  140.0153  143.5400  152.2245 H   0  0  0  0  0  0  0  0  0  0  0  0  # atno 10167 bound_to 10162
  156.2073  130.4159  149.9161 H   0  0  0  0  0  0  0  0  0  0  0  0  # atno 10718 bound_to 10713
  153.5967  135.3456  155.2930 H   0  0  0  0  0  0  0  0  0  0  0  0  # atno 10763 bound_to 10752
  154.8643  135.4217  154.2457 H   0  0  0  0  0  0  0  0  0  0  0  0  # atno 10764 bound_to 10752
  153.3277  135.7042  153.7046 H   0  0  0  0  0  0  0  0  0  0  0  0  # atno 10765 bound_to 10752
  140.9568  134.0991  157.4008 H   0  0  0  0  0  0  0  0  0  0  0  0  # atno 11005 bound_to 11000
  144.7244  139.7923  143.7370 LP  0  0  0  0  0  0  0  0  0  0  0  0  # atno 17320 bound_to 7965
  146.1456  139.4525  143.0081 LP  0  0  0  0  0  0  0  0  0  0  0  0  # atno 17321 bound_to 7965
  139.6177  144.7623  151.2810 LP  0  0  0  0  0  0  0  0  0  0  0  0  # atno 17342 bound_to 10162
  140.7365  143.6706  150.8085 LP  0  0  0  0  0  0  0  0  0  0  0  0  # atno 17343 bound_to 10162
  156.6851  130.8873  151.3581 LP  0  0  0  0  0  0  0  0  0  0  0  0  # atno 17370 bound_to 10713
  157.7019  130.9342  150.0812 LP  0  0  0  0  0  0  0  0  0  0  0  0  # atno 17371 bound_to 10713
  139.8865  135.0081  156.6501 LP  0  0  0  0  0  0  0  0  0  0  0  0  # atno 17394 bound_to 11000
  140.7525  133.8885  155.8357 LP  0  0  0  0  0  0  0  0  0  0  0  0  # atno 17395 bound_to 11000

$$$$
