AV-unprocessed.smi:40|AV-procd|sdf|367|dock2
  -GOLD-   2262016203D 1   1.00000     0.00000
 Structure written by MMmdl.
 47 48  0  0  0  0  0  0  0  0  1 V2000
  151.9097  145.7207  159.5544 C   0  0  0  0  0  0  0  0  0  0  0  0
  151.7670  144.2091  159.3464 C   0  0  0  0  0  0  0  0  0  0  0  0
  151.2269  143.8557  157.9534 C   0  0  0  0  0  0  0  0  0  0  0  0
  151.0831  142.3427  157.7425 C   0  0  0  0  0  0  0  0  0  0  0  0
  150.7033  141.9913  156.2964 C   0  0  0  0  0  0  0  0  0  0  0  0
  149.5628  141.1450  156.2746 O   0  0  0  0  0  0  0  0  0  0  0  0
  149.0588  140.6830  155.1103 C   0  0  0  0  0  0  0  0  0  0  0  0
  149.5406  140.9295  154.0050 O   0  0  0  0  0  0  0  0  0  0  0  0
  147.8989  139.8333  155.3268 N   0  0  0  0  0  0  0  0  0  0  0  0
  147.1250  139.1887  154.4188 C   0  0  0  0  0  0  0  0  0  0  0  0
  147.4009  139.1751  153.1246 N   0  0  0  0  0  0  0  0  0  0  0  0
  146.6500  138.5194  152.1872 C   0  0  0  0  0  0  0  0  0  0  0  0
  146.9369  138.5962  150.9941 O   0  0  0  0  0  0  0  0  0  0  0  0
  145.5385  137.7694  152.6429 N   0  0  0  0  0  0  0  0  0  0  0  0
  144.6727  137.0634  151.6106 C   0  0  2  0  0  0  0  0  0  0  0  0
  143.6940  136.3057  152.2665 O   0  0  0  0  0  0  0  0  0  0  0  0
  143.9610  134.9069  152.1765 C   0  0  2  0  0  0  0  0  0  0  0  0
  144.7660  134.4115  153.3888 C   0  0  0  0  0  0  0  0  0  0  0  0
  144.7190  134.7641  150.8586 C   0  0  1  0  0  0  0  0  0  0  0  0
  143.7765  134.5744  149.8167 O   0  0  0  0  0  0  0  0  0  0  0  0
  145.4923  136.0777  150.7437 C   0  0  1  0  0  0  0  0  0  0  0  0
  145.6231  136.4861  149.3941 O   0  0  0  0  0  0  0  0  0  0  0  0
  145.2200  137.7915  153.9958 C   0  0  0  0  0  0  0  0  0  0  0  0
  145.9733  138.4566  154.8984 C   0  0  0  0  0  0  0  0  0  0  0  0
  145.6528  138.4414  156.2040 F   0  0  0  0  0  0  0  0  0  0  0  0
  144.1972  137.8676  151.0465 H   0  0  0  0  0  0  0  0  0  0  0  0
  143.0156  134.3626  152.1553 H   0  0  0  0  0  0  0  0  0  0  0  0
  145.3875  133.9022  150.8592 H   0  0  0  0  0  0  0  0  0  0  0  0
  146.4827  135.9465  151.1823 H   0  0  0  0  0  0  0  0  0  0  0  0
  152.3040  145.9411  160.5466 H   0  0  0  0  0  0  0  0  0  0  0  0
  150.9471  146.2238  159.4588 H   0  0  0  0  0  0  0  0  0  0  0  0
  152.5903  146.1553  158.8218 H   0  0  0  0  0  0  0  0  0  0  0  0
  152.7378  143.7342  159.4938 H   0  0  0  0  0  0  0  0  0  0  0  0
  151.1049  143.8016  160.1113 H   0  0  0  0  0  0  0  0  0  0  0  0
  150.2584  144.3353  157.8057 H   0  0  0  0  0  0  0  0  0  0  0  0
  151.8935  144.2640  157.1926 H   0  0  0  0  0  0  0  0  0  0  0  0
  152.0216  141.8489  157.9972 H   0  0  0  0  0  0  0  0  0  0  0  0
  150.3303  141.9494  158.4267 H   0  0  0  0  0  0  0  0  0  0  0  0
  150.5384  142.8930  155.7048 H   0  0  0  0  0  0  0  0  0  0  0  0
  151.5265  141.4556  155.8233 H   0  0  0  0  0  0  0  0  0  0  0  0
  147.6401  139.7317  156.2975 H   0  0  0  0  0  0  0  0  0  0  0  0
  144.9493  133.3392  153.3187 H   0  0  0  0  0  0  0  0  0  0  0  0
  144.2228  134.5912  154.3167 H   0  0  0  0  0  0  0  0  0  0  0  0
  145.7347  134.9055  153.4642 H   0  0  0  0  0  0  0  0  0  0  0  0
  142.9100  134.5816  150.1947 H   0  0  0  0  0  0  0  0  0  0  0  0
  145.8592  135.7312  148.8767 H   0  0  0  0  0  0  0  0  0  0  0  0
  144.3528  137.2725  154.3733 H   0  0  0  0  0  0  0  0  0  0  0  0
  1  2  1  0  0  0  0
  1 30  1  0  0  0  0
  1 31  1  0  0  0  0
  1 32  1  0  0  0  0
  2  3  1  0  0  0  0
  2 33  1  0  0  0  0
  2 34  1  0  0  0  0
  3  4  1  0  0  0  0
  3 35  1  0  0  0  0
  3 36  1  0  0  0  0
  4  5  1  0  0  0  0
  4 37  1  0  0  0  0
  4 38  1  0  0  0  0
  5  6  1  0  0  0  0
  5 39  1  0  0  0  0
  5 40  1  0  0  0  0
  6  7  1  0  0  0  0
  7  8  2  0  0  0  0
  7  9  1  0  0  0  0
  9 10  1  0  0  0  0
  9 41  1  0  0  0  0
 10 24  1  0  0  0  0
 10 11  2  0  0  0  0
 11 12  1  0  0  0  0
 12 13  2  0  0  0  0
 12 14  1  0  0  0  0
 14 15  1  0  0  0  0
 14 23  1  0  0  0  0
 15 26  1  0  0  0  0
 15 21  1  0  0  0  0
 15 16  1  0  0  0  0
 16 17  1  0  0  0  0
 17 27  1  0  0  0  0
 17 18  1  0  0  0  0
 17 19  1  0  0  0  0
 18 42  1  0  0  0  0
 18 43  1  0  0  0  0
 18 44  1  0  0  0  0
 19 28  1  0  0  0  0
 19 20  1  0  0  0  0
 19 21  1  0  0  0  0
 20 45  1  0  0  0  0
 21 29  1  0  0  0  0
 21 22  1  0  0  0  0
 22 46  1  0  0  0  0
 23 24  2  0  0  0  0
 23 47  1  0  0  0  0
 24 25  1  0  0  0  0
M  END
> <s_m_source_file>
AV-unprocessed.smi

> <i_m_source_file_index>
40

> <i_lp_mmshare_version>
43012

> <i_f3d_flags>
0

> <s_epik_input>
W0NIM11bQ0gyXVtDSDJdW0NIMl1bQ0gyXU9DKD1PKVtOSF1jMW5jKD1PKW4oW2NIXWMxRilbQ0BASF0yT1tDQEhdKFtDSDNdKVtDQEBIXShbT0hdKVtDQEhdMltPSF0=

> <s_epik_cmdline>
J2VwaWtfcHl0aG9uJywgJy1waCcsICc3LjAnLCAnLXRuJywgJzgnLCAnLW1hJywgJzIwMCcsICctbWV0YWxfYmluZGluZycsICctaW1hZScsICc8aW5maWxlLm1hZT4nLCAnLW9tYWUnLCAnPG91dGZpbGUubWFlPic=

> <r_lp_tautomer_probability>
1

> <r_epik_Ionization_Penalty>
2.29506e-06

> <r_epik_Ionization_Penalty_Charging>
8.26867e-09

> <r_epik_Ionization_Penalty_Neutral>
2.2868e-06

> <r_epik_State_Penalty>
-0

> <r_epik_Charging_Adjusted_Penalty>
8.26867e-09

> <i_epik_Tot_Q>
0

> <i_epik_Tot_abs_Q>
0

> <r_epik_Metal_State_Penalty>
-0

> <b_epik_Metal_Only>
0

> <s_epik_Chemistry_Notes>
This compound has an ester and may undergo hydrolysis at high or low pH. This compound contains an acetal/aminal-like group ( X-CH(R)-Y where X, Y are N, S, or O) that may be acid/base labile, releasing an aldehyde.

> <s_lp_Force_Field>
OPLS_2005

> <r_lp_Energy>
38.6642

> <b_lp_Chiralities_Consistent>
1

> <s_lp_Variant>
AV-unprocessed.smi:40-1

> <Gold.Version>
5.8.1

> <Gold.Id.Protein>
6NUR|6NUR_protein|mol2

> <Gold.PLP.Fitness>
47.5921

> <Gold.PLP.PLP>
-38.0496

> <Gold.PLP.part.hbond>
-6.2958

> <Gold.PLP.part.metal>
0.0000

> <Gold.PLP.part.buried>
-1.9353

> <Gold.PLP.part.nonpolar>
-33.3866

> <Gold.PLP.part.repulsive>
3.0068

> <Gold.PLP.ligand.clash>
0.0000

> <Gold.PLP.ligand.torsion>
0.4588

> <Gold.PLP.Chemscore.Hbond>
3.4538

> <Gold.PLP.Chemscore.CHOScore>
0.0000

> <Gold.PLP.Chemscore.Metal>
0.0000

> <Gold.Chemscore.Hbonds>
donor molecule, donor type, donor heavy atom, donor atom, acceptor molecule, acceptor atom, score
      L1  H    20    45       P1 10186  0.75
      L1  H    22    46       P1  7921  1.00
      P1  H  7954  7966       L1    13  0.99
      P1  H  7989  7998       L1     8  0.35
      P1  H  8011  8017       L1     8  0.41

> <Gold.PLP.Chemscore.Internal.Correction>
0.0987

> <Gold.Rescore>
     Score         DG    S(hbond)    S(metal)    S(lipo)     H(rot)  DE(clash)    DE(int)     intcor
      9.84     -14.71       2.98        0.00      74.82       3.70       2.10       2.77       ----

> <Gold.Chemscore.Fitness>
9.8357

> <Gold.Chemscore.DG>
-14.7133

> <Gold.Chemscore.ZeroCoef>
-5.4800

> <Gold.Chemscore.Hbond>
2.9761

> <Gold.Chemscore.Metal>
0.0000

> <Gold.Chemscore.Lipo>
74.8206

> <Gold.Chemscore.Internal_Hbond>
0.0000

> <Gold.Chemscore.DEClash>
2.1033

> <Gold.Chemscore.DEInternal>
2.7743

> <Gold.Chemscore.Rot>
3.6957

> <Gold.Chemscore.Internal.Correction>
   9.000000E+99

> <Gold.Chemscore.Hbonds>
donor molecule, donor type, donor heavy atom, donor atom, acceptor molecule, acceptor atom, score
      L1  H    20    45       P1 10186  0.47
      L1  H    22    46       P1  7921  0.95
      P1  H  7954  7966       L1    13  0.94
      P1  H  7989  7998       L1     8  0.34
      P1  H  8011  8017       L1     8  0.40

> <Gold.Chemscore.Hbond.Weighted>
-9.9403

> <Gold.Chemscore.Metal.Weighted>
-0.0000

> <Gold.Chemscore.Lipo.Weighted>
-8.7540

> <Gold.Chemscore.Internal_Hbond.Weighted>
0.0000

> <Gold.Chemscore.DEClash.Weighted>
2.1033

> <Gold.Chemscore.DEInternal.Weighted>
2.7743

> <Gold.Chemscore.Rot.Weighted>
9.4610

> <Gold.Chemscore.Internal.Correction.Weighted>
   9.000000E+99

> <Gold.Protein.RotatedTorsions>
[ 6907 6896 6895 6894 ] final  -56.21 input  -60.11 | X-H torsion
[ 7974 7965 7964 7962 ] final  -38.07 input  175.53 | X-H torsion
[ 8008 7997 7996 7995 ] final  156.19 input   59.86 | X-H torsion
[ 10167 10162 10161 10158 ] final -139.51 input  -65.29 | X-H torsion
[ 10718 10713 10712 10709 ] final -109.74 input   66.30 | X-H torsion
[ 10763 10752 10751 10750 ] final  -38.97 input  -60.55 | X-H torsion
[ 11005 11000 10999 10996 ] final   41.92 input  -57.11 | X-H torsion

> <Gold.Protein.ActiveResidues>
 VAL166  LYS551  ARG553  GLY616  TRP617  ASP618  TYR619  PRO620  LYS621  CYS622 
 ASP623  PHE694  ASN695  SER759  ASP760  ASP761  ALA762  ILE779  LEU786  VAL792 
 PHE793  MET794  SER795  GLU796  ALA797  LYS798  CYS799  TRP800  GLU811  SER814 

> <Gold.Protein.RotatedAtoms>
  150.8187  134.7383  159.6752 H   0  0  0  0  0  0  0  0  0  0  0  0  # atno 6907 bound_to 6896
  152.4304  134.5785  159.9951 H   0  0  0  0  0  0  0  0  0  0  0  0  # atno 6908 bound_to 6896
  151.5975  133.3322  159.3076 H   0  0  0  0  0  0  0  0  0  0  0  0  # atno 6909 bound_to 6896
  146.0519  140.6469  142.9038 H   0  0  0  0  0  0  0  0  0  0  0  0  # atno 7974 bound_to 7965
  156.2436  140.1919  156.6918 H   0  0  0  0  0  0  0  0  0  0  0  0  # atno 8008 bound_to 7997
  154.6246  140.0604  156.9684 H   0  0  0  0  0  0  0  0  0  0  0  0  # atno 8009 bound_to 7997
  155.1807  140.3276  155.4378 H   0  0  0  0  0  0  0  0  0  0  0  0  # atno 8010 bound_to 7997
  139.8372  143.7369  152.2664 H   0  0  0  0  0  0  0  0  0  0  0  0  # atno 10167 bound_to 10162
  156.0553  130.5779  150.8141 H   0  0  0  0  0  0  0  0  0  0  0  0  # atno 10718 bound_to 10713
  153.9216  135.6781  153.4747 H   0  0  0  0  0  0  0  0  0  0  0  0  # atno 10763 bound_to 10752
  153.1025  135.4821  154.8890 H   0  0  0  0  0  0  0  0  0  0  0  0  # atno 10764 bound_to 10752
  154.7475  135.3176  154.8575 H   0  0  0  0  0  0  0  0  0  0  0  0  # atno 10765 bound_to 10752
  140.1788  134.4130  155.8212 H   0  0  0  0  0  0  0  0  0  0  0  0  # atno 11005 bound_to 11000
  144.7127  140.4099  143.7068 LP  0  0  0  0  0  0  0  0  0  0  0  0  # atno 17320 bound_to 7965
  145.6709  139.1599  143.2755 LP  0  0  0  0  0  0  0  0  0  0  0  0  # atno 17321 bound_to 7965
  139.7595  144.7511  151.0386 LP  0  0  0  0  0  0  0  0  0  0  0  0  # atno 17342 bound_to 10162
  140.7801  143.4767  151.0072 LP  0  0  0  0  0  0  0  0  0  0  0  0  # atno 17343 bound_to 10162
  157.5517  131.0944  150.9686 LP  0  0  0  0  0  0  0  0  0  0  0  0  # atno 17370 bound_to 10713
  156.9944  130.5576  149.5306 LP  0  0  0  0  0  0  0  0  0  0  0  0  # atno 17371 bound_to 10713
  141.2222  133.6990  156.7894 LP  0  0  0  0  0  0  0  0  0  0  0  0  # atno 17394 bound_to 11000
  140.2291  134.8699  157.3458 LP  0  0  0  0  0  0  0  0  0  0  0  0  # atno 17395 bound_to 11000

$$$$
