AV-unprocessed.smi:2042|AV-procd|sdf|8294|dock1
  -GOLD-   2272010563D 1   1.00000     0.00000
 Structure written by MMmdl.
 30 31  0  0  0  0  0  0  0  0  1 V2000
  147.1639  133.4570  153.9812 O   0  0  0  0  0  0  0  0  0  0  0  0
  147.8162  132.8536  153.1326 C   0  0  0  0  0  0  0  0  0  0  0  0
  147.3277  132.4136  151.9560 N   0  0  0  0  0  0  0  0  0  0  0  0
  145.9979  132.4818  151.4584 C   0  0  0  0  0  0  0  0  0  0  0  0
  144.9205  133.1088  152.1307 C   0  0  0  0  0  0  0  0  0  0  0  0
  143.6439  133.0883  151.5364 C   0  0  0  0  0  0  0  0  0  0  0  0
  143.4884  132.4380  150.2971 C   0  0  0  0  0  0  0  0  0  0  0  0
  144.5030  131.8266  149.6508 N   0  0  0  0  0  0  0  0  0  0  0  0
  145.7238  131.8496  150.2270 C   0  0  0  0  0  0  0  0  0  0  0  0
  149.1264  132.6073  153.3130 N   0  0  0  0  0  0  0  0  0  0  0  0
  149.9649  132.9462  154.4640 C   0  0  2  0  0  0  0  0  0  0  0  0
  149.5345  132.1525  155.7118 C   0  0  0  0  0  0  0  0  0  0  0  0
  150.1835  132.7881  156.9475 C   0  0  0  0  0  0  0  0  0  0  0  0
  150.3446  134.5756  156.5742 S   0  0  0  0  0  0  0  0  0  0  0  0
  149.3009  135.3258  157.2890 O   0  0  0  0  0  0  0  0  0  0  0  0
  151.7606  134.9586  156.6808 O   0  0  0  0  0  0  0  0  0  0  0  0
  149.8816  134.4426  154.8066 C   0  0  0  0  0  0  0  0  0  0  0  0
  148.0034  132.0118  151.3228 H   0  0  0  0  0  0  0  0  0  0  0  0
  145.0390  133.5897  153.0888 H   0  0  0  0  0  0  0  0  0  0  0  0
  142.8013  133.5569  152.0230 H   0  0  0  0  0  0  0  0  0  0  0  0
  142.5224  132.4032  149.8154 H   0  0  0  0  0  0  0  0  0  0  0  0
  146.5104  131.3467  149.6831 H   0  0  0  0  0  0  0  0  0  0  0  0
  149.6020  132.1520  152.5472 H   0  0  0  0  0  0  0  0  0  0  0  0
  151.0058  132.6879  154.2605 H   0  0  0  0  0  0  0  0  0  0  0  0
  148.4503  132.2115  155.8196 H   0  0  0  0  0  0  0  0  0  0  0  0
  149.7877  131.0951  155.6274 H   0  0  0  0  0  0  0  0  0  0  0  0
  149.6008  132.6425  157.8572 H   0  0  0  0  0  0  0  0  0  0  0  0
  151.1847  132.3872  157.1073 H   0  0  0  0  0  0  0  0  0  0  0  0
  150.5420  135.0614  154.1990 H   0  0  0  0  0  0  0  0  0  0  0  0
  148.8619  134.8156  154.7021 H   0  0  0  0  0  0  0  0  0  0  0  0
  1  2  2  0  0  0  0
  2  3  1  0  0  0  0
  2 10  1  0  0  0  0
  3  4  1  0  0  0  0
  3 18  1  0  0  0  0
  4  9  1  0  0  0  0
  4  5  2  0  0  0  0
  5  6  1  0  0  0  0
  5 19  1  0  0  0  0
  6  7  2  0  0  0  0
  6 20  1  0  0  0  0
  7  8  1  0  0  0  0
  7 21  1  0  0  0  0
  8  9  2  0  0  0  0
  9 22  1  0  0  0  0
 10 11  1  0  0  0  0
 10 23  1  0  0  0  0
 11 17  1  0  0  0  0
 11 12  1  0  0  0  0
 11 24  1  0  0  0  0
 12 13  1  0  0  0  0
 12 25  1  0  0  0  0
 12 26  1  0  0  0  0
 13 14  1  0  0  0  0
 13 27  1  0  0  0  0
 13 28  1  0  0  0  0
 14 15  2  0  0  0  0
 14 16  2  0  0  0  0
 14 17  1  0  0  0  0
 17 29  1  0  0  0  0
 17 30  1  0  0  0  0
M  END
> <s_m_source_file>
AV-unprocessed.smi

> <i_m_source_file_index>
2042

> <i_lp_mmshare_version>
43012

> <i_f3d_flags>
0

> <s_epik_input>
Tz1TMSg9TylbQ0gyXVtDSDJdW0NASF0oW0NIMl0xKVtOSF1DKD1PKVtOSF1jMltjSF1bY0hdW2NIXW5bY0hdMg==

> <s_epik_cmdline>
J2VwaWtfcHl0aG9uJywgJy1waCcsICc3LjAnLCAnLXRuJywgJzgnLCAnLW1hJywgJzIwMCcsICctbWV0YWxfYmluZGluZycsICctaW1hZScsICc8aW5maWxlLm1hZT4nLCAnLW9tYWUnLCAnPG91dGZpbGUubWFlPic=

> <r_epik_Ionization_Penalty>
0.00421056

> <r_epik_Ionization_Penalty_Charging>
0

> <r_epik_Ionization_Penalty_Neutral>
0.00421056

> <r_epik_State_Penalty>
0.00300625

> <r_epik_Charging_Adjusted_Penalty>
0.00300625

> <i_epik_Tot_Q>
0

> <i_epik_Tot_abs_Q>
0

> <r_epik_Metal_State_Penalty>
-0

> <b_epik_Metal_Only>
0

> <s_lp_Force_Field>
OPLS_2005

> <r_lp_Energy>
18.6302

> <b_lp_Chiralities_Consistent>
1

> <s_lp_Variant>
AV-unprocessed.smi:2042-1

> <Gold.Version>
5.8.1

> <Gold.Id.Protein>
6NUR|6NUR_protein|mol2

> <Gold.PLP.Fitness>
41.1944

> <Gold.PLP.PLP>
-27.3002

> <Gold.PLP.part.hbond>
-3.0000

> <Gold.PLP.part.metal>
0.0000

> <Gold.PLP.part.buried>
-4.4728

> <Gold.PLP.part.nonpolar>
-20.5422

> <Gold.PLP.part.repulsive>
0.2377

> <Gold.PLP.ligand.clash>
0.0000

> <Gold.PLP.ligand.torsion>
0.0430

> <Gold.PLP.Chemscore.Hbond>
2.1930

> <Gold.PLP.Chemscore.CHOScore>
2.4668

> <Gold.PLP.Chemscore.Metal>
0.0000

> <Gold.Chemscore.Hbonds>
donor molecule, donor type, donor heavy atom, donor atom, acceptor molecule, acceptor atom, score
      L1  H     3    18       P1 10747  1.00
      P1  H 10752 10764       L1    16  0.65
      P1  H 10785 10796       L1     8  0.13
      L1  C     7    21       P1 10186  0.89
      L1  C     7    21       P1 10952  0.65
      L1  C     9    22       P1 10747  0.92

> <Gold.PLP.Chemscore.Internal.Correction>
0.0006

> <Gold.Rescore>
     Score         DG    S(hbond)    S(metal)    S(lipo)     H(rot)  DE(clash)    DE(int)     intcor
     15.88     -17.34       2.25        0.00      58.99       1.00       0.24       1.22       ----

> <Gold.Chemscore.Fitness>
15.8767

> <Gold.Chemscore.DG>
-17.3400

> <Gold.Chemscore.ZeroCoef>
-5.4800

> <Gold.Chemscore.Hbond>
2.2511

> <Gold.Chemscore.Metal>
0.0000

> <Gold.Chemscore.Lipo>
58.9855

> <Gold.Chemscore.Internal_Hbond>
0.0000

> <Gold.Chemscore.DEClash>
0.2397

> <Gold.Chemscore.DEInternal>
1.2235

> <Gold.Chemscore.Rot>
1.0000

> <Gold.Chemscore.Internal.Correction>
   9.000000E+99

> <Gold.Chemscore.Hbonds>
donor molecule, donor type, donor heavy atom, donor atom, acceptor molecule, acceptor atom, score
      L1  H     3    18       P1 10747  1.00
      P1  H 10752 10764       L1    16  0.62
      P1  H 10785 10796       L1     8  0.02

> <Gold.Chemscore.Hbond.Weighted>
-7.5186

> <Gold.Chemscore.Metal.Weighted>
-0.0000

> <Gold.Chemscore.Lipo.Weighted>
-6.9013

> <Gold.Chemscore.Internal_Hbond.Weighted>
0.0000

> <Gold.Chemscore.DEClash.Weighted>
0.2397

> <Gold.Chemscore.DEInternal.Weighted>
1.2235

> <Gold.Chemscore.Rot.Weighted>
2.5600

> <Gold.Chemscore.Internal.Correction.Weighted>
   9.000000E+99

> <Gold.Protein.RotatedTorsions>
[ 6907 6896 6895 6894 ] final -100.81 input  -60.11 | X-H torsion
[ 7974 7965 7964 7962 ] final  -99.81 input  175.53 | X-H torsion
[ 8008 7997 7996 7995 ] final   67.33 input   59.86 | X-H torsion
[ 10167 10162 10161 10158 ] final   12.64 input  -65.29 | X-H torsion
[ 10718 10713 10712 10709 ] final   43.08 input   66.30 | X-H torsion
[ 10763 10752 10751 10750 ] final  -15.81 input  -60.55 | X-H torsion
[ 11005 11000 10999 10996 ] final  118.16 input  -57.11 | X-H torsion

> <Gold.Protein.ActiveResidues>
 VAL166  LYS551  ARG553  GLY616  TRP617  ASP618  TYR619  PRO620  LYS621  CYS622 
 ASP623  PHE694  ASN695  SER759  ASP760  ASP761  ALA762  ILE779  LEU786  VAL792 
 PHE793  MET794  SER795  GLU796  ALA797  LYS798  CYS799  TRP800  GLU811  SER814 

> <Gold.Protein.RotatedAtoms>
  150.7130  134.0829  159.3904 H   0  0  0  0  0  0  0  0  0  0  0  0  # atno 6907 bound_to 6896
  151.8814  135.0450  160.0498 H   0  0  0  0  0  0  0  0  0  0  0  0  # atno 6908 bound_to 6896
  152.2565  133.5224  159.5393 H   0  0  0  0  0  0  0  0  0  0  0  0  # atno 6909 bound_to 6896
  145.3027  140.9381  143.2814 H   0  0  0  0  0  0  0  0  0  0  0  0  # atno 7974 bound_to 7965
  155.6913  140.3496  155.4894 H   0  0  0  0  0  0  0  0  0  0  0  0  # atno 8008 bound_to 7997
  155.9522  140.1121  157.0989 H   0  0  0  0  0  0  0  0  0  0  0  0  # atno 8009 bound_to 7997
  154.4124  140.1192  156.5054 H   0  0  0  0  0  0  0  0  0  0  0  0  # atno 8010 bound_to 7997
  140.6055  143.8517  150.7009 H   0  0  0  0  0  0  0  0  0  0  0  0  # atno 10167 bound_to 10162
  157.4120  130.7919  149.7438 H   0  0  0  0  0  0  0  0  0  0  0  0  # atno 10718 bound_to 10713
  153.5490  135.7012  153.5600 H   0  0  0  0  0  0  0  0  0  0  0  0  # atno 10763 bound_to 10752
  153.3532  135.3989  155.1662 H   0  0  0  0  0  0  0  0  0  0  0  0  # atno 10764 bound_to 10752
  154.8664  135.3770  154.5000 H   0  0  0  0  0  0  0  0  0  0  0  0  # atno 10765 bound_to 10752
  139.9099  134.9617  156.7460 H   0  0  0  0  0  0  0  0  0  0  0  0  # atno 11005 bound_to 11000
  144.9080  139.4565  143.6601 LP  0  0  0  0  0  0  0  0  0  0  0  0  # atno 17320 bound_to 7965
  146.3146  139.7872  142.8993 LP  0  0  0  0  0  0  0  0  0  0  0  0  # atno 17321 bound_to 7965
  140.2073  143.3911  152.1745 LP  0  0  0  0  0  0  0  0  0  0  0  0  # atno 17342 bound_to 10162
  139.5322  144.7171  151.5018 LP  0  0  0  0  0  0  0  0  0  0  0  0  # atno 17343 bound_to 10162
  155.9853  130.3984  150.3266 LP  0  0  0  0  0  0  0  0  0  0  0  0  # atno 17370 bound_to 10713
  157.1405  131.0295  151.2929 LP  0  0  0  0  0  0  0  0  0  0  0  0  # atno 17371 bound_to 10713
  140.6811  133.9473  155.7911 LP  0  0  0  0  0  0  0  0  0  0  0  0  # atno 17394 bound_to 11000
  141.0509  134.0486  157.3784 LP  0  0  0  0  0  0  0  0  0  0  0  0  # atno 17395 bound_to 11000

$$$$
