AV-unprocessed.smi:2859|AV-procd|sdf|11004|dock10
  -GOLD-   2272015463D 1   1.00000     0.00000
 Structure written by MMmdl.
 51 52  0  0  0  0  0  0  0  0  1 V2000
  152.3610  131.1670  156.4316 C   0  0  0  0  0  0  0  0  0  0  0  0
  151.2739  130.4152  155.6311 C   0  0  0  0  0  0  0  0  0  0  0  0
  151.9841  129.6152  154.5194 C   0  0  0  0  0  0  0  0  0  0  0  0
  150.5658  129.4480  156.6023 C   0  0  0  0  0  0  0  0  0  0  0  0
  150.2411  131.3674  155.0043 C   0  0  0  0  0  0  0  0  0  0  0  0
  149.2253  130.9440  154.1136 C   0  0  0  0  0  0  0  0  0  0  0  0
  148.3302  131.9315  153.6317 C   0  0  0  0  0  0  0  0  0  0  0  0
  147.2707  131.6371  152.7433 N   0  0  0  0  0  0  0  0  0  0  0  0
  146.5284  130.3940  152.9294 C   0  0  0  0  0  0  0  0  0  0  0  0
  145.6643  130.0926  151.6955 C   0  0  0  0  0  0  0  0  0  0  0  0
  144.8222  131.2041  151.4169 O   0  0  0  0  0  0  0  0  0  0  0  0
  145.5694  132.3771  151.0955 C   0  0  1  0  0  0  0  0  0  0  0  0
  144.5909  133.4932  150.7004 C   0  0  0  0  0  0  0  0  0  0  0  0
  143.2914  133.1836  150.6696 N   0  0  0  0  0  0  0  0  0  0  0  0
  144.9953  134.6173  150.4083 O   0  0  0  0  0  0  0  0  0  0  0  0
  146.4508  132.7670  152.3038 C   0  0  0  0  0  0  0  0  0  0  0  0
  148.4736  133.2208  154.0166 N   0  0  0  0  0  0  0  0  0  0  0  0
  149.4870  133.5417  154.8271 C   0  0  0  0  0  0  0  0  0  0  0  0
  149.5319  134.9824  155.3629 C   0  0  0  0  0  0  0  0  0  0  0  0
  150.8275  135.6647  154.8878 C   0  0  0  0  0  0  0  0  0  0  0  0
  149.4738  135.0039  156.9088 C   0  0  0  0  0  0  0  0  0  0  0  0
  148.3075  135.7927  154.8758 C   0  0  0  0  0  0  0  0  0  0  0  0
  150.3460  132.6678  155.3600 N   0  0  0  0  0  0  0  0  0  0  0  0
  153.0813  130.4735  156.8670 H   0  0  0  0  0  0  0  0  0  0  0  0
  151.9318  131.7389  157.2552 H   0  0  0  0  0  0  0  0  0  0  0  0
  152.9242  131.8547  155.7995 H   0  0  0  0  0  0  0  0  0  0  0  0
  152.4865  130.2787  153.8146 H   0  0  0  0  0  0  0  0  0  0  0  0
  151.2838  129.0021  153.9508 H   0  0  0  0  0  0  0  0  0  0  0  0
  152.7370  128.9427  154.9320 H   0  0  0  0  0  0  0  0  0  0  0  0
  151.2762  128.7701  157.0765 H   0  0  0  0  0  0  0  0  0  0  0  0
  149.8250  128.8311  156.0924 H   0  0  0  0  0  0  0  0  0  0  0  0
  150.0504  129.9920  157.3948 H   0  0  0  0  0  0  0  0  0  0  0  0
  149.1267  129.9093  153.8292 H   0  0  0  0  0  0  0  0  0  0  0  0
  147.2141  129.5604  153.0834 H   0  0  0  0  0  0  0  0  0  0  0  0
  145.9014  130.4774  153.8181 H   0  0  0  0  0  0  0  0  0  0  0  0
  146.2876  129.8673  150.8287 H   0  0  0  0  0  0  0  0  0  0  0  0
  145.0445  129.2146  151.8781 H   0  0  0  0  0  0  0  0  0  0  0  0
  146.2012  132.1740  150.2291 H   0  0  0  0  0  0  0  0  0  0  0  0
  142.6160  133.8866  150.4059 H   0  0  0  0  0  0  0  0  0  0  0  0
  142.9915  132.2479  150.9007 H   0  0  0  0  0  0  0  0  0  0  0  0
  145.8291  133.0903  153.1401 H   0  0  0  0  0  0  0  0  0  0  0  0
  147.0725  133.6171  152.0214 H   0  0  0  0  0  0  0  0  0  0  0  0
  150.8943  136.6904  155.2518 H   0  0  0  0  0  0  0  0  0  0  0  0
  150.8815  135.6974  153.7990 H   0  0  0  0  0  0  0  0  0  0  0  0
  151.7090  135.1302  155.2442 H   0  0  0  0  0  0  0  0  0  0  0  0
  150.3390  134.5139  157.3574 H   0  0  0  0  0  0  0  0  0  0  0  0
  148.5798  134.5010  157.2798 H   0  0  0  0  0  0  0  0  0  0  0  0
  149.4579  136.0248  157.2916 H   0  0  0  0  0  0  0  0  0  0  0  0
  148.3089  136.8016  155.2900 H   0  0  0  0  0  0  0  0  0  0  0  0
  147.3725  135.3171  155.1746 H   0  0  0  0  0  0  0  0  0  0  0  0
  148.2921  135.8987  153.7903 H   0  0  0  0  0  0  0  0  0  0  0  0
  1  2  1  0  0  0  0
  1 24  1  0  0  0  0
  1 25  1  0  0  0  0
  1 26  1  0  0  0  0
  2  3  1  0  0  0  0
  2  4  1  0  0  0  0
  2  5  1  0  0  0  0
  3 27  1  0  0  0  0
  3 28  1  0  0  0  0
  3 29  1  0  0  0  0
  4 30  1  0  0  0  0
  4 31  1  0  0  0  0
  4 32  1  0  0  0  0
  5 23  1  0  0  0  0
  5  6  2  0  0  0  0
  6  7  1  0  0  0  0
  6 33  1  0  0  0  0
  7  8  1  0  0  0  0
  7 17  2  0  0  0  0
  8 16  1  0  0  0  0
  8  9  1  0  0  0  0
  9 10  1  0  0  0  0
  9 34  1  0  0  0  0
  9 35  1  0  0  0  0
 10 11  1  0  0  0  0
 10 36  1  0  0  0  0
 10 37  1  0  0  0  0
 11 12  1  0  0  0  0
 12 13  1  0  0  0  0
 12 16  1  0  0  0  0
 12 38  1  0  0  0  0
 13 14  1  0  0  0  0
 13 15  2  0  0  0  0
 14 39  1  0  0  0  0
 14 40  1  0  0  0  0
 16 41  1  0  0  0  0
 16 42  1  0  0  0  0
 17 18  1  0  0  0  0
 18 19  1  0  0  0  0
 18 23  2  0  0  0  0
 19 20  1  0  0  0  0
 19 21  1  0  0  0  0
 19 22  1  0  0  0  0
 20 43  1  0  0  0  0
 20 44  1  0  0  0  0
 20 45  1  0  0  0  0
 21 46  1  0  0  0  0
 21 47  1  0  0  0  0
 21 48  1  0  0  0  0
 22 49  1  0  0  0  0
 22 50  1  0  0  0  0
 22 51  1  0  0  0  0
M  END
> <s_m_source_file>
AV-unprocessed.smi

> <i_m_source_file_index>
2859

> <i_lp_mmshare_version>
43012

> <i_f3d_flags>
0

> <s_epik_input>
W0NIM11DKFtDSDNdKShbQ0gzXSljMVtjSF1jKG5jKG4xKUMoW0NIM10pKFtDSDNdKVtDSDNdKU4yW0NIMl1bQ0gyXU9bQ0BIXShbQ0gyXTIpQyg9TylbTkgyXQ==

> <s_epik_cmdline>
J2VwaWtfcHl0aG9uJywgJy1waCcsICc3LjAnLCAnLXRuJywgJzgnLCAnLW1hJywgJzIwMCcsICctbWV0YWxfYmluZGluZycsICctaW1hZScsICc8aW5maWxlLm1hZT4nLCAnLW9tYWUnLCAnPG91dGZpbGUubWFlPic=

> <r_lp_tautomer_probability>
1

> <r_epik_Ionization_Penalty>
0.0011326

> <r_epik_Ionization_Penalty_Charging>
0

> <r_epik_Ionization_Penalty_Neutral>
0.0011326

> <r_epik_State_Penalty>
0.000721507

> <r_epik_Charging_Adjusted_Penalty>
0.000721507

> <i_epik_Tot_Q>
0

> <i_epik_Tot_abs_Q>
0

> <r_epik_Metal_State_Penalty>
-0

> <b_epik_Metal_Only>
0

> <s_lp_Force_Field>
OPLS_2005

> <r_lp_Energy>
9.66703

> <b_lp_Chiralities_Consistent>
1

> <s_lp_Variant>
AV-unprocessed.smi:2859-1

> <Gold.Version>
5.8.1

> <Gold.Id.Protein>
6NUR|6NUR_protein|mol2

> <Gold.PLP.Fitness>
35.6959

> <Gold.PLP.PLP>
-33.3082

> <Gold.PLP.part.hbond>
-1.0000

> <Gold.PLP.part.metal>
0.0000

> <Gold.PLP.part.buried>
-6.5938

> <Gold.PLP.part.nonpolar>
-26.1197

> <Gold.PLP.part.repulsive>
0.8731

> <Gold.PLP.ligand.clash>
0.0000

> <Gold.PLP.ligand.torsion>
0.6144

> <Gold.PLP.Chemscore.Hbond>
1.0000

> <Gold.PLP.Chemscore.CHOScore>
0.0000

> <Gold.PLP.Chemscore.Metal>
0.0000

> <Gold.Chemscore.Hbonds>
donor molecule, donor type, donor heavy atom, donor atom, acceptor molecule, acceptor atom, score
      L1  H    14    39       P1 10186  1.00

> <Gold.PLP.Chemscore.Internal.Correction>
0.6165

> <Gold.Rescore>
     Score         DG    S(hbond)    S(metal)    S(lipo)     H(rot)  DE(clash)    DE(int)     intcor
     12.33     -12.98       0.99        0.00      76.06       1.83       0.06       0.59       ----

> <Gold.Chemscore.Fitness>
12.3319

> <Gold.Chemscore.DG>
-12.9805

> <Gold.Chemscore.ZeroCoef>
-5.4800

> <Gold.Chemscore.Hbond>
0.9858

> <Gold.Chemscore.Metal>
0.0000

> <Gold.Chemscore.Lipo>
76.0555

> <Gold.Chemscore.Internal_Hbond>
0.0000

> <Gold.Chemscore.DEClash>
0.0586

> <Gold.Chemscore.DEInternal>
0.5900

> <Gold.Chemscore.Rot>
1.8323

> <Gold.Chemscore.Internal.Correction>
   9.000000E+99

> <Gold.Chemscore.Hbonds>
donor molecule, donor type, donor heavy atom, donor atom, acceptor molecule, acceptor atom, score
      L1  H    14    39       P1 10186  0.92

> <Gold.Chemscore.Hbond.Weighted>
-3.2927

> <Gold.Chemscore.Metal.Weighted>
-0.0000

> <Gold.Chemscore.Lipo.Weighted>
-8.8985

> <Gold.Chemscore.Internal_Hbond.Weighted>
0.0000

> <Gold.Chemscore.DEClash.Weighted>
0.0586

> <Gold.Chemscore.DEInternal.Weighted>
0.5900

> <Gold.Chemscore.Rot.Weighted>
4.6907

> <Gold.Chemscore.Internal.Correction.Weighted>
   9.000000E+99

> <Gold.Protein.RotatedTorsions>
[ 6907 6896 6895 6894 ] final -116.23 input  -60.11 | X-H torsion
[ 7974 7965 7964 7962 ] final  165.73 input  175.53 | X-H torsion
[ 8008 7997 7996 7995 ] final  131.37 input   59.86 | X-H torsion
[ 10167 10162 10161 10158 ] final   27.92 input  -65.29 | X-H torsion
[ 10718 10713 10712 10709 ] final   29.88 input   66.30 | X-H torsion
[ 10763 10752 10751 10750 ] final  -67.38 input  -60.55 | X-H torsion
[ 11005 11000 10999 10996 ] final -171.50 input  -57.11 | X-H torsion

> <Gold.Protein.ActiveResidues>
 VAL166  LYS551  ARG553  GLY616  TRP617  ASP618  TYR619  PRO620  LYS621  CYS622 
 ASP623  PHE694  ASN695  SER759  ASP760  ASP761  ALA762  ILE779  LEU786  VAL792 
 PHE793  MET794  SER795  GLU796  ALA797  LYS798  CYS799  TRP800  GLU811  SER814 

> <Gold.Protein.RotatedAtoms>
  150.8040  133.8546  159.3214 H   0  0  0  0  0  0  0  0  0  0  0  0  # atno 6907 bound_to 6896
  151.6350  135.1017  160.0139 H   0  0  0  0  0  0  0  0  0  0  0  0  # atno 6908 bound_to 6896
  152.4129  133.6952  159.6448 H   0  0  0  0  0  0  0  0  0  0  0  0  # atno 6909 bound_to 6896
  144.7491  139.8512  143.6372 H   0  0  0  0  0  0  0  0  0  0  0  0  # atno 7974 bound_to 7965
  156.2969  140.2573  156.2914 H   0  0  0  0  0  0  0  0  0  0  0  0  # atno 8008 bound_to 7997
  154.9506  140.0394  157.2160 H   0  0  0  0  0  0  0  0  0  0  0  0  # atno 8009 bound_to 7997
  154.8040  140.2833  155.5905 H   0  0  0  0  0  0  0  0  0  0  0  0  # atno 8010 bound_to 7997
  140.4897  144.0487  150.6293 H   0  0  0  0  0  0  0  0  0  0  0  0  # atno 10167 bound_to 10162
  157.2524  130.7121  149.6412 H   0  0  0  0  0  0  0  0  0  0  0  0  # atno 10718 bound_to 10713
  154.3736  135.6089  153.5753 H   0  0  0  0  0  0  0  0  0  0  0  0  # atno 10763 bound_to 10752
  152.9789  135.5844  154.4492 H   0  0  0  0  0  0  0  0  0  0  0  0  # atno 10764 bound_to 10752
  154.4250  135.2846  155.1928 H   0  0  0  0  0  0  0  0  0  0  0  0  # atno 10765 bound_to 10752
  140.5075  134.5834  157.5008 H   0  0  0  0  0  0  0  0  0  0  0  0  # atno 11005 bound_to 11000
  146.1414  139.4473  143.0106 LP  0  0  0  0  0  0  0  0  0  0  0  0  # atno 17320 bound_to 7965
  145.7011  141.0135  143.1503 LP  0  0  0  0  0  0  0  0  0  0  0  0  # atno 17321 bound_to 7965
  140.3752  143.2832  152.0233 LP  0  0  0  0  0  0  0  0  0  0  0  0  # atno 17342 bound_to 10162
  139.4849  144.6198  151.7276 LP  0  0  0  0  0  0  0  0  0  0  0  0  # atno 17343 bound_to 10162
  155.9666  130.4423  150.5377 LP  0  0  0  0  0  0  0  0  0  0  0  0  # atno 17370 bound_to 10713
  157.3264  131.0691  151.1894 LP  0  0  0  0  0  0  0  0  0  0  0  0  # atno 17371 bound_to 10713
  139.9678  134.7344  156.0103 LP  0  0  0  0  0  0  0  0  0  0  0  0  # atno 17394 bound_to 11000
  141.1403  133.6566  156.3711 LP  0  0  0  0  0  0  0  0  0  0  0  0  # atno 17395 bound_to 11000

$$$$
