AV-unprocessed.smi:3141|AV-procd|sdf|11966|dock6
  -GOLD-   2272017363D 1   1.00000     0.00000
 Structure written by MMmdl.
 35 37  0  0  0  0  0  0  0  0  1 V2000
  150.7676  142.4613  158.9735 O   0  0  0  0  0  0  0  0  0  0  0  0
  150.5415  143.1293  157.9641 C   0  0  0  0  0  0  0  0  0  0  0  0
  150.6217  144.4653  157.9102 N   0  0  0  0  0  0  0  0  0  0  0  0
  150.9808  145.3157  158.9982 C   0  0  0  0  0  0  0  0  0  0  0  0
  152.1017  144.8606  159.9081 C   0  0  0  0  0  0  0  0  0  0  0  0
  150.6807  144.8264  160.3987 C   0  0  0  0  0  0  0  0  0  0  0  0
  150.1791  142.6065  156.7845 N   0  0  0  0  0  0  0  0  0  0  0  0
  149.9847  141.1820  156.5277 C   0  0  2  0  0  0  0  0  0  0  0  0
  151.1586  140.3655  157.1011 C   0  0  0  0  0  0  0  0  0  0  0  0
  151.9363  139.8299  155.8972 C   0  0  0  0  0  0  0  0  0  0  0  0
  150.8780  139.6649  154.8116 C   0  0  0  0  0  0  0  0  0  0  0  0
  149.9604  140.8771  155.0104 C   0  0  1  0  0  0  0  0  0  0  0  0
  148.6204  140.6784  154.4804 N   0  0  0  0  0  0  0  0  0  0  0  0
  147.5893  141.6091  154.4626 C   0  0  0  0  0  0  0  0  0  0  0  0
  146.5072  140.9900  153.8792 C   0  0  0  0  0  0  0  0  0  0  0  0
  146.8453  139.6848  153.5311 N   0  0  0  0  0  0  0  0  0  0  0  0
  148.1089  139.5724  153.9190 C   0  0  0  0  0  0  0  0  0  0  0  0
  150.4152  144.9172  157.0315 H   0  0  0  0  0  0  0  0  0  0  0  0
  150.8984  146.3903  158.8411 H   0  0  0  0  0  0  0  0  0  0  0  0
  152.5806  143.9080  159.6901 H   0  0  0  0  0  0  0  0  0  0  0  0
  152.7562  145.6267  160.3191 H   0  0  0  0  0  0  0  0  0  0  0  0
  150.3864  145.5697  161.1370 H   0  0  0  0  0  0  0  0  0  0  0  0
  150.2120  143.8503  160.5089 H   0  0  0  0  0  0  0  0  0  0  0  0
  150.0153  143.2360  156.0124 H   0  0  0  0  0  0  0  0  0  0  0  0
  149.0672  140.8512  157.0184 H   0  0  0  0  0  0  0  0  0  0  0  0
  151.7965  140.9369  157.7770 H   0  0  0  0  0  0  0  0  0  0  0  0
  150.7628  139.5247  157.6725 H   0  0  0  0  0  0  0  0  0  0  0  0
  152.6762  140.5658  155.5796 H   0  0  0  0  0  0  0  0  0  0  0  0
  152.4625  138.9007  156.1168 H   0  0  0  0  0  0  0  0  0  0  0  0
  151.3080  139.6256  153.8103 H   0  0  0  0  0  0  0  0  0  0  0  0
  150.3360  138.7330  154.9777 H   0  0  0  0  0  0  0  0  0  0  0  0
  150.4113  141.7124  154.4706 H   0  0  0  0  0  0  0  0  0  0  0  0
  147.7058  142.6067  154.8594 H   0  0  0  0  0  0  0  0  0  0  0  0
  145.5190  141.3805  153.6862 H   0  0  0  0  0  0  0  0  0  0  0  0
  148.6761  138.6617  153.7934 H   0  0  0  0  0  0  0  0  0  0  0  0
  1  2  2  0  0  0  0
  2  3  1  0  0  0  0
  2  7  1  0  0  0  0
  3  4  1  0  0  0  0
  3 18  1  0  0  0  0
  4  6  1  0  0  0  0
  4  5  1  0  0  0  0
  4 19  1  0  0  0  0
  5  6  1  0  0  0  0
  5 20  1  0  0  0  0
  5 21  1  0  0  0  0
  6 22  1  0  0  0  0
  6 23  1  0  0  0  0
  7  8  1  0  0  0  0
  7 24  1  0  0  0  0
  8 12  1  0  0  0  0
  8  9  1  0  0  0  0
  8 25  1  0  0  0  0
  9 10  1  0  0  0  0
  9 26  1  0  0  0  0
  9 27  1  0  0  0  0
 10 11  1  0  0  0  0
 10 28  1  0  0  0  0
 10 29  1  0  0  0  0
 11 12  1  0  0  0  0
 11 30  1  0  0  0  0
 11 31  1  0  0  0  0
 12 13  1  0  0  0  0
 12 32  1  0  0  0  0
 13 17  1  0  0  0  0
 13 14  1  0  0  0  0
 14 15  2  0  0  0  0
 14 33  1  0  0  0  0
 15 16  1  0  0  0  0
 15 34  1  0  0  0  0
 16 17  2  0  0  0  0
 17 35  1  0  0  0  0
M  END
> <s_m_source_file>
AV-unprocessed.smi

> <i_m_source_file_index>
3141

> <i_lp_mmshare_version>
43012

> <i_f3d_flags>
0

> <s_epik_input>
W0NIMl0xW0NIMl1bQ0hdMVtOSF1DKD1PKVtOSF1bQ0BASF0yW0NIMl1bQ0gyXVtDSDJdW0NASF0ybjNbY0hdW2NIXW5bY0hdMw==

> <s_epik_cmdline>
J2VwaWtfcHl0aG9uJywgJy1waCcsICc3LjAnLCAnLXRuJywgJzgnLCAnLW1hJywgJzIwMCcsICctbWV0YWxfYmluZGluZycsICctaW1hZScsICc8aW5maWxlLm1hZT4nLCAnLW9tYWUnLCAnPG91dGZpbGUubWFlPic=

> <r_lp_tautomer_probability>
1

> <r_epik_Ionization_Penalty>
0.728419

> <r_epik_Ionization_Penalty_Charging>
0.728357

> <r_epik_Ionization_Penalty_Neutral>
6.27871e-05

> <r_epik_State_Penalty>
0.753408

> <r_epik_Charging_Adjusted_Penalty>
1.48176

> <i_epik_Tot_Q>
0

> <i_epik_Tot_abs_Q>
0

> <r_epik_Metal_State_Penalty>
0.332413

> <b_epik_Metal_Only>
0

> <s_lp_Force_Field>
OPLS_2005

> <r_lp_Energy>
34.1677

> <b_lp_Chiralities_Consistent>
1

> <s_lp_Variant>
AV-unprocessed.smi:3141-5

> <Gold.Version>
5.8.1

> <Gold.Id.Protein>
6NUR|6NUR_protein|mol2

> <Gold.PLP.Fitness>
43.5596

> <Gold.PLP.PLP>
-34.4655

> <Gold.PLP.part.hbond>
-2.3752

> <Gold.PLP.part.metal>
0.0000

> <Gold.PLP.part.buried>
-1.4596

> <Gold.PLP.part.nonpolar>
-31.0504

> <Gold.PLP.part.repulsive>
0.3331

> <Gold.PLP.ligand.clash>
0.0000

> <Gold.PLP.ligand.torsion>
0.5163

> <Gold.PLP.Chemscore.Hbond>
1.3621

> <Gold.PLP.Chemscore.CHOScore>
2.0000

> <Gold.PLP.Chemscore.Metal>
0.0000

> <Gold.Chemscore.Hbonds>
donor molecule, donor type, donor heavy atom, donor atom, acceptor molecule, acceptor atom, score
      L1  H     3    18       P1  8028  0.69
      L1  H     7    24       P1  8028  0.74
      L1  C    14    33       P1  8028  1.00
      L1  C    15    34       P1 10175  1.00

> <Gold.PLP.Chemscore.Internal.Correction>
0.0404

> <Gold.Rescore>
     Score         DG    S(hbond)    S(metal)    S(lipo)     H(rot)  DE(clash)    DE(int)     intcor
     10.65     -15.20       1.42        0.00      76.83       1.57       0.11       4.44       ----

> <Gold.Chemscore.Fitness>
10.6534

> <Gold.Chemscore.DG>
-15.1987

> <Gold.Chemscore.ZeroCoef>
-5.4800

> <Gold.Chemscore.Hbond>
1.4223

> <Gold.Chemscore.Metal>
0.0000

> <Gold.Chemscore.Lipo>
76.8262

> <Gold.Chemscore.Internal_Hbond>
0.0000

> <Gold.Chemscore.DEClash>
0.1091

> <Gold.Chemscore.DEInternal>
4.4362

> <Gold.Chemscore.Rot>
1.5705

> <Gold.Chemscore.Internal.Correction>
   9.000000E+99

> <Gold.Chemscore.Hbonds>
donor molecule, donor type, donor heavy atom, donor atom, acceptor molecule, acceptor atom, score
      L1  H     3    18       P1  8028  0.26
      L1  H     7    24       P1  8028  0.74

> <Gold.Chemscore.Hbond.Weighted>
-4.7506

> <Gold.Chemscore.Metal.Weighted>
-0.0000

> <Gold.Chemscore.Lipo.Weighted>
-8.9887

> <Gold.Chemscore.Internal_Hbond.Weighted>
0.0000

> <Gold.Chemscore.DEClash.Weighted>
0.1091

> <Gold.Chemscore.DEInternal.Weighted>
4.4362

> <Gold.Chemscore.Rot.Weighted>
4.0206

> <Gold.Chemscore.Internal.Correction.Weighted>
   9.000000E+99

> <Gold.Protein.RotatedTorsions>
[ 6907 6896 6895 6894 ] final -157.16 input  -60.11 | X-H torsion
[ 7974 7965 7964 7962 ] final  -39.68 input  175.53 | X-H torsion
[ 8008 7997 7996 7995 ] final -161.79 input   59.86 | X-H torsion
[ 10167 10162 10161 10158 ] final  175.15 input  -65.29 | X-H torsion
[ 10718 10713 10712 10709 ] final -139.97 input   66.30 | X-H torsion
[ 10763 10752 10751 10750 ] final  -99.96 input  -60.55 | X-H torsion
[ 11005 11000 10999 10996 ] final  133.84 input  -57.11 | X-H torsion

> <Gold.Protein.ActiveResidues>
 VAL166  LYS551  ARG553  GLY616  TRP617  ASP618  TYR619  PRO620  LYS621  CYS622 
 ASP623  PHE694  ASN695  SER759  ASP760  ASP761  ALA762  ILE779  LEU786  VAL792 
 PHE793  MET794  SER795  GLU796  ALA797  LYS798  CYS799  TRP800  GLU811  SER814 

> <Gold.Protein.RotatedAtoms>
  151.2986  133.4133  159.2637 H   0  0  0  0  0  0  0  0  0  0  0  0  # atno 6907 bound_to 6896
  151.0215  134.9473  159.8072 H   0  0  0  0  0  0  0  0  0  0  0  0  # atno 6908 bound_to 6896
  152.5325  134.2949  159.9109 H   0  0  0  0  0  0  0  0  0  0  0  0  # atno 6909 bound_to 6896
  146.0374  140.6653  142.9103 H   0  0  0  0  0  0  0  0  0  0  0  0  # atno 7974 bound_to 7965
  155.7973  140.0887  157.1976 H   0  0  0  0  0  0  0  0  0  0  0  0  # atno 8008 bound_to 7997
  154.3983  140.1479  156.3291 H   0  0  0  0  0  0  0  0  0  0  0  0  # atno 8009 bound_to 7997
  155.8498  140.3435  155.5689 H   0  0  0  0  0  0  0  0  0  0  0  0  # atno 8010 bound_to 7997
  139.5167  144.3065  152.0331 H   0  0  0  0  0  0  0  0  0  0  0  0  # atno 10167 bound_to 10162
  156.3169  130.7513  151.1602 H   0  0  0  0  0  0  0  0  0  0  0  0  # atno 10718 bound_to 10713
  154.7541  135.4952  153.9342 H   0  0  0  0  0  0  0  0  0  0  0  0  # atno 10763 bound_to 10752
  153.1176  135.6724  153.9399 H   0  0  0  0  0  0  0  0  0  0  0  0  # atno 10764 bound_to 10752
  153.9141  135.3095  155.3427 H   0  0  0  0  0  0  0  0  0  0  0  0  # atno 10765 bound_to 10752
  139.9877  134.9526  156.9782 H   0  0  0  0  0  0  0  0  0  0  0  0  # atno 11005 bound_to 11000
  144.7058  140.3845  143.7119 LP  0  0  0  0  0  0  0  0  0  0  0  0  # atno 17320 bound_to 7965
  145.6941  139.1646  143.2630 LP  0  0  0  0  0  0  0  0  0  0  0  0  # atno 17321 bound_to 7965
  140.2511  144.4168  150.6221 LP  0  0  0  0  0  0  0  0  0  0  0  0  # atno 17342 bound_to 10162
  140.6224  143.2177  151.6667 LP  0  0  0  0  0  0  0  0  0  0  0  0  # atno 17343 bound_to 10162
  157.7403  131.0518  150.5172 LP  0  0  0  0  0  0  0  0  0  0  0  0  # atno 17370 bound_to 10713
  156.5319  130.4187  149.6197 LP  0  0  0  0  0  0  0  0  0  0  0  0  # atno 17371 bound_to 10713
  140.4969  134.1136  155.7243 LP  0  0  0  0  0  0  0  0  0  0  0  0  # atno 17394 bound_to 11000
  141.1539  133.8918  157.2028 LP  0  0  0  0  0  0  0  0  0  0  0  0  # atno 17395 bound_to 11000

$$$$
