AV-unprocessed.smi:1995|AV-procd|sdf|8076|dock3
  -GOLD-   2272010283D 1   1.00000     0.00000
 Structure written by MMmdl.
 42 43  0  0  0  0  0  0  0  0  1 V2000
  144.0543  138.9003  155.3889 C   0  0  0  0  0  0  0  0  0  0  0  0
  145.5199  139.2609  155.6940 C   0  0  0  0  0  0  0  0  0  0  0  0
  146.5918  138.4907  154.8588 C   0  0  1  0  0  0  0  0  0  0  0  0
  146.6249  137.0433  155.4195 C   0  0  0  0  0  0  0  0  0  0  0  0
  146.1122  138.4389  153.3715 C   0  0  0  0  0  0  0  0  0  0  0  0
  146.5004  137.2184  152.6630 N   0  0  0  0  0  0  0  0  0  0  0  0
  145.6656  136.2595  152.2362 C   0  0  0  0  0  0  0  0  0  0  0  0
  144.4460  136.2965  152.3992 O   0  0  0  0  0  0  0  0  0  0  0  0
  146.3349  135.2764  151.6124 N   0  0  0  0  0  0  0  0  0  0  0  0
  145.8012  134.1109  151.0083 C   0  0  0  0  0  0  0  0  0  0  0  0
  146.6395  133.1690  150.5715 N   0  0  0  0  0  0  0  0  0  0  0  0
  145.9624  132.0882  149.9990 C   0  0  0  0  0  0  0  0  0  0  0  0
  144.5964  132.2244  150.0096 C   0  0  0  0  0  0  0  0  0  0  0  0
  144.0988  133.7252  150.7432 S   0  0  0  0  0  0  0  0  0  0  0  0
  147.9329  139.1288  154.9916 N   0  0  0  0  0  0  0  0  0  0  0  0
  148.0018  140.5353  154.5761 C   0  0  0  0  0  0  0  0  0  0  0  0
  149.3725  141.1608  154.8860 C   0  0  0  0  0  0  0  0  0  0  0  0
  150.3982  140.4035  154.2551 O   0  0  0  0  0  0  0  0  0  0  0  0
  150.4025  139.0428  154.6701 C   0  0  0  0  0  0  0  0  0  0  0  0
  149.0396  138.4006  154.3591 C   0  0  0  0  0  0  0  0  0  0  0  0
  143.3802  139.4737  156.0253 H   0  0  0  0  0  0  0  0  0  0  0  0
  143.8498  137.8451  155.5686 H   0  0  0  0  0  0  0  0  0  0  0  0
  143.7895  139.1222  154.3555 H   0  0  0  0  0  0  0  0  0  0  0  0
  145.6277  140.3350  155.5389 H   0  0  0  0  0  0  0  0  0  0  0  0
  145.7004  139.1225  156.7598 H   0  0  0  0  0  0  0  0  0  0  0  0
  145.6238  136.6357  155.5623 H   0  0  0  0  0  0  0  0  0  0  0  0
  147.1301  136.9957  156.3843 H   0  0  0  0  0  0  0  0  0  0  0  0
  147.1421  136.3575  154.7481 H   0  0  0  0  0  0  0  0  0  0  0  0
  145.0246  138.4783  153.3220 H   0  0  0  0  0  0  0  0  0  0  0  0
  146.4625  139.3096  152.8168 H   0  0  0  0  0  0  0  0  0  0  0  0
  147.4863  137.1002  152.4808 H   0  0  0  0  0  0  0  0  0  0  0  0
  147.3376  135.3762  151.5536 H   0  0  0  0  0  0  0  0  0  0  0  0
  146.5336  131.2601  149.6063 H   0  0  0  0  0  0  0  0  0  0  0  0
  143.8556  131.5353  149.6319 H   0  0  0  0  0  0  0  0  0  0  0  0
  147.8141  140.6232  153.5062 H   0  0  0  0  0  0  0  0  0  0  0  0
  147.2429  141.1306  155.0797 H   0  0  0  0  0  0  0  0  0  0  0  0
  149.4123  142.1868  154.5201 H   0  0  0  0  0  0  0  0  0  0  0  0
  149.5459  141.1981  155.9627 H   0  0  0  0  0  0  0  0  0  0  0  0
  151.1990  138.5139  154.1465 H   0  0  0  0  0  0  0  0  0  0  0  0
  150.6244  138.9800  155.7366 H   0  0  0  0  0  0  0  0  0  0  0  0
  149.0748  137.3679  154.7018 H   0  0  0  0  0  0  0  0  0  0  0  0
  148.9060  138.3713  153.2778 H   0  0  0  0  0  0  0  0  0  0  0  0
  1  2  1  0  0  0  0
  1 21  1  0  0  0  0
  1 22  1  0  0  0  0
  1 23  1  0  0  0  0
  2  3  1  0  0  0  0
  2 24  1  0  0  0  0
  2 25  1  0  0  0  0
  3  4  1  0  0  0  0
  3  5  1  0  0  0  0
  3 15  1  0  0  0  0
  4 26  1  0  0  0  0
  4 27  1  0  0  0  0
  4 28  1  0  0  0  0
  5  6  1  0  0  0  0
  5 29  1  0  0  0  0
  5 30  1  0  0  0  0
  6  7  1  0  0  0  0
  6 31  1  0  0  0  0
  7  8  2  0  0  0  0
  7  9  1  0  0  0  0
  9 10  1  0  0  0  0
  9 32  1  0  0  0  0
 10 14  1  0  0  0  0
 10 11  2  0  0  0  0
 11 12  1  0  0  0  0
 12 13  2  0  0  0  0
 12 33  1  0  0  0  0
 13 14  1  0  0  0  0
 13 34  1  0  0  0  0
 15 20  1  0  0  0  0
 15 16  1  0  0  0  0
 16 17  1  0  0  0  0
 16 35  1  0  0  0  0
 16 36  1  0  0  0  0
 17 18  1  0  0  0  0
 17 37  1  0  0  0  0
 17 38  1  0  0  0  0
 18 19  1  0  0  0  0
 19 20  1  0  0  0  0
 19 39  1  0  0  0  0
 19 40  1  0  0  0  0
 20 41  1  0  0  0  0
 20 42  1  0  0  0  0
M  END
> <s_m_source_file>
AV-unprocessed.smi

> <i_m_source_file_index>
1995

> <i_lp_mmshare_version>
43012

> <i_f3d_flags>
0

> <s_epik_input>
W0NIMl0xW0NIMl1PW0NIMl1bQ0gyXU4xW0NAQF0oW0NIM10pKFtDSDJdW0NIM10pW0NIMl1bTkhdQyg9TylbTkhdYzJuW2NIXVtjSF1zMg==

> <s_epik_cmdline>
J2VwaWtfcHl0aG9uJywgJy1waCcsICc3LjAnLCAnLXRuJywgJzgnLCAnLW1hJywgJzIwMCcsICctbWV0YWxfYmluZGluZycsICctaW1hZScsICc8aW5maWxlLm1hZT4nLCAnLW9tYWUnLCAnPG91dGZpbGUubWFlPic=

> <r_lp_tautomer_probability>
0.999

> <r_epik_Ionization_Penalty>
0.295852

> <r_epik_Ionization_Penalty_Charging>
0

> <r_epik_Ionization_Penalty_Neutral>
0.295852

> <r_epik_State_Penalty>
0.288723

> <r_epik_Charging_Adjusted_Penalty>
0.288723

> <i_epik_Tot_Q>
0

> <i_epik_Tot_abs_Q>
0

> <r_epik_Metal_State_Penalty>
0.29791

> <b_epik_Metal_Only>
0

> <s_lp_Force_Field>
OPLS_2005

> <r_lp_Energy>
39.4988

> <b_lp_Chiralities_Consistent>
1

> <s_lp_Variant>
AV-unprocessed.smi:1995-1

> <Gold.Version>
5.8.1

> <Gold.Id.Protein>
6NUR|6NUR_protein|mol2

> <Gold.PLP.Fitness>
37.4428

> <Gold.PLP.PLP>
-27.3048

> <Gold.PLP.part.hbond>
-2.7536

> <Gold.PLP.part.metal>
0.0000

> <Gold.PLP.part.buried>
-4.9001

> <Gold.PLP.part.nonpolar>
-21.0579

> <Gold.PLP.part.repulsive>
0.6833

> <Gold.PLP.ligand.clash>
0.0000

> <Gold.PLP.ligand.torsion>
0.8096

> <Gold.PLP.Chemscore.Hbond>
2.9920

> <Gold.PLP.Chemscore.CHOScore>
0.8611

> <Gold.PLP.Chemscore.Metal>
0.0000

> <Gold.Chemscore.Hbonds>
donor molecule, donor type, donor heavy atom, donor atom, acceptor molecule, acceptor atom, score
      L1  H     6    31       P1  7948  1.00
      L1  H     9    32       P1  7948  1.00
      P1  H  7989  7998       L1    18  0.94
      L1  C    12    33       P1 10747  0.83

> <Gold.PLP.Chemscore.Internal.Correction>
0.1979

> <Gold.Rescore>
     Score         DG    S(hbond)    S(metal)    S(lipo)     H(rot)  DE(clash)    DE(int)     intcor
     16.29     -17.69       2.86        0.00      60.77       1.74       0.00       1.41       ----

> <Gold.Chemscore.Fitness>
16.2879

> <Gold.Chemscore.DG>
-17.6943

> <Gold.Chemscore.ZeroCoef>
-5.4800

> <Gold.Chemscore.Hbond>
2.8624

> <Gold.Chemscore.Metal>
0.0000

> <Gold.Chemscore.Lipo>
60.7719

> <Gold.Chemscore.Internal_Hbond>
0.0000

> <Gold.Chemscore.DEClash>
0.0009

> <Gold.Chemscore.DEInternal>
1.4055

> <Gold.Chemscore.Rot>
1.7408

> <Gold.Chemscore.Internal.Correction>
   9.000000E+99

> <Gold.Chemscore.Hbonds>
donor molecule, donor type, donor heavy atom, donor atom, acceptor molecule, acceptor atom, score
      L1  H     6    31       P1  7948  0.98
      L1  H     9    32       P1  7948  0.93
      P1  H  7989  7998       L1    18  0.80

> <Gold.Chemscore.Hbond.Weighted>
-9.5605

> <Gold.Chemscore.Metal.Weighted>
-0.0000

> <Gold.Chemscore.Lipo.Weighted>
-7.1103

> <Gold.Chemscore.Internal_Hbond.Weighted>
0.0000

> <Gold.Chemscore.DEClash.Weighted>
0.0009

> <Gold.Chemscore.DEInternal.Weighted>
1.4055

> <Gold.Chemscore.Rot.Weighted>
4.4565

> <Gold.Chemscore.Internal.Correction.Weighted>
   9.000000E+99

> <Gold.Protein.RotatedTorsions>
[ 6907 6896 6895 6894 ] final  -29.71 input  -60.11 | X-H torsion
[ 7974 7965 7964 7962 ] final  -58.67 input  175.53 | X-H torsion
[ 8008 7997 7996 7995 ] final  103.90 input   59.86 | X-H torsion
[ 10167 10162 10161 10158 ] final   -0.44 input  -65.29 | X-H torsion
[ 10718 10713 10712 10709 ] final -101.14 input   66.30 | X-H torsion
[ 10763 10752 10751 10750 ] final  108.40 input  -60.55 | X-H torsion
[ 11005 11000 10999 10996 ] final  101.83 input  -57.11 | X-H torsion

> <Gold.Protein.ActiveResidues>
 VAL166  LYS551  ARG553  GLY616  TRP617  ASP618  TYR619  PRO620  LYS621  CYS622 
 ASP623  PHE694  ASN695  SER759  ASP760  ASP761  ALA762  ILE779  LEU786  VAL792 
 PHE793  MET794  SER795  GLU796  ALA797  LYS798  CYS799  TRP800  GLU811  SER814 

> <Gold.Protein.RotatedAtoms>
  151.1154  135.0050  159.8513 H   0  0  0  0  0  0  0  0  0  0  0  0  # atno 6907 bound_to 6896
  152.5445  134.1786  159.8636 H   0  0  0  0  0  0  0  0  0  0  0  0  # atno 6908 bound_to 6896
  151.1839  133.4663  159.2627 H   0  0  0  0  0  0  0  0  0  0  0  0  # atno 6909 bound_to 6896
  145.8366  140.8445  143.0056 H   0  0  0  0  0  0  0  0  0  0  0  0  # atno 7974 bound_to 7965
  156.1525  140.3157  155.8671 H   0  0  0  0  0  0  0  0  0  0  0  0  # atno 8008 bound_to 7997
  155.3943  140.0495  157.3056 H   0  0  0  0  0  0  0  0  0  0  0  0  # atno 8009 bound_to 7997
  154.5071  140.2151  155.9240 H   0  0  0  0  0  0  0  0  0  0  0  0  # atno 8010 bound_to 7997
  140.6767  143.6894  150.8040 H   0  0  0  0  0  0  0  0  0  0  0  0  # atno 10167 bound_to 10162
  156.0185  130.5360  150.6920 H   0  0  0  0  0  0  0  0  0  0  0  0  # atno 10718 bound_to 10713
  153.4201  135.3813  155.2106 H   0  0  0  0  0  0  0  0  0  0  0  0  # atno 10763 bound_to 10752
  154.8744  135.3815  154.4394 H   0  0  0  0  0  0  0  0  0  0  0  0  # atno 10764 bound_to 10752
  153.4913  135.7088  153.5945 H   0  0  0  0  0  0  0  0  0  0  0  0  # atno 10765 bound_to 10752
  139.8775  134.9199  156.4966 H   0  0  0  0  0  0  0  0  0  0  0  0  # atno 11005 bound_to 11000
  144.6736  140.0750  143.7471 LP  0  0  0  0  0  0  0  0  0  0  0  0  # atno 17320 bound_to 7965
  145.9512  139.2735  143.1211 LP  0  0  0  0  0  0  0  0  0  0  0  0  # atno 17321 bound_to 7965
  140.0588  143.5176  152.2638 LP  0  0  0  0  0  0  0  0  0  0  0  0  # atno 17342 bound_to 10162
  139.6064  144.7597  151.3051 LP  0  0  0  0  0  0  0  0  0  0  0  0  # atno 17343 bound_to 10162
  157.4599  131.0882  151.0756 LP  0  0  0  0  0  0  0  0  0  0  0  0  # atno 17370 bound_to 10713
  157.1247  130.6077  149.5514 LP  0  0  0  0  0  0  0  0  0  0  0  0  # atno 17371 bound_to 10713
  140.8620  133.8052  155.9275 LP  0  0  0  0  0  0  0  0  0  0  0  0  # atno 17394 bound_to 11000
  140.9040  134.2344  157.5025 LP  0  0  0  0  0  0  0  0  0  0  0  0  # atno 17395 bound_to 11000

$$$$
