AV-unprocessed.smi:2416|AV-procd|sdf|9546|dock4
  -GOLD-   2272013183D 1   1.00000     0.00000
 Structure written by MMmdl.
 40 41  0  0  0  0  0  0  0  0  1 V2000
  138.1608  141.3862  156.2994 C   0  0  0  0  0  0  0  0  0  0  0  0
  138.4882  140.1632  155.6503 O   0  0  0  0  0  0  0  0  0  0  0  0
  138.8660  140.2308  154.2679 C   0  0  1  0  0  0  0  0  0  0  0  0
  137.7782  140.9367  153.4488 C   0  0  0  0  0  0  0  0  0  0  0  0
  140.3291  140.6945  154.1364 C   0  0  0  0  0  0  0  0  0  0  0  0
  140.7355  139.2421  154.3760 C   0  0  2  0  0  0  0  0  0  0  0  0
  141.8845  138.8443  153.5693 N   0  0  0  0  0  0  0  0  0  0  0  0
  142.2482  137.5751  153.3394 C   0  0  0  0  0  0  0  0  0  0  0  0
  141.6390  136.6035  153.7876 O   0  0  0  0  0  0  0  0  0  0  0  0
  143.3477  137.5175  152.5675 N   0  0  0  0  0  0  0  0  0  0  0  0
  144.0220  136.3650  152.0835 C   0  0  0  0  0  0  0  0  0  0  0  0
  143.2484  135.1821  152.0693 C   0  0  0  0  0  0  0  0  0  0  0  0
  143.8250  133.9822  151.6088 C   0  0  0  0  0  0  0  0  0  0  0  0
  145.1627  133.9979  151.1760 C   0  0  0  0  0  0  0  0  0  0  0  0
  145.7598  132.8695  150.7248 F   0  0  0  0  0  0  0  0  0  0  0  0
  145.8645  135.2166  151.2242 C   0  0  0  0  0  0  0  0  0  0  0  0
  145.3126  136.3676  151.6643 N   0  0  0  0  0  0  0  0  0  0  0  0
  139.3535  138.8144  153.8168 C   0  0  0  0  0  0  0  0  0  0  0  0
  138.6938  137.6141  154.5051 C   0  0  0  0  0  0  0  0  0  0  0  0
  139.2774  138.5239  152.3057 C   0  0  0  0  0  0  0  0  0  0  0  0
  138.0356  141.1993  157.3658 H   0  0  0  0  0  0  0  0  0  0  0  0
  137.2203  141.7978  155.9338 H   0  0  0  0  0  0  0  0  0  0  0  0
  138.9397  142.1397  156.1867 H   0  0  0  0  0  0  0  0  0  0  0  0
  137.9896  140.9042  152.3806 H   0  0  0  0  0  0  0  0  0  0  0  0
  137.6944  141.9920  153.7068 H   0  0  0  0  0  0  0  0  0  0  0  0
  136.8035  140.4734  153.6031 H   0  0  0  0  0  0  0  0  0  0  0  0
  140.5688  141.0563  153.1349 H   0  0  0  0  0  0  0  0  0  0  0  0
  140.6860  141.3884  154.8965 H   0  0  0  0  0  0  0  0  0  0  0  0
  140.8479  139.0257  155.4410 H   0  0  0  0  0  0  0  0  0  0  0  0
  142.4393  139.5849  153.1660 H   0  0  0  0  0  0  0  0  0  0  0  0
  143.7471  138.4021  152.2914 H   0  0  0  0  0  0  0  0  0  0  0  0
  142.2217  135.1894  152.4061 H   0  0  0  0  0  0  0  0  0  0  0  0
  143.2502  133.0679  151.5886 H   0  0  0  0  0  0  0  0  0  0  0  0
  146.8938  135.2702  150.9021 H   0  0  0  0  0  0  0  0  0  0  0  0
  139.1331  136.6711  154.1780 H   0  0  0  0  0  0  0  0  0  0  0  0
  137.6251  137.5712  154.2933 H   0  0  0  0  0  0  0  0  0  0  0  0
  138.8087  137.6509  155.5886 H   0  0  0  0  0  0  0  0  0  0  0  0
  139.7948  137.5995  152.0465 H   0  0  0  0  0  0  0  0  0  0  0  0
  139.7281  139.3176  151.7099 H   0  0  0  0  0  0  0  0  0  0  0  0
  138.2449  138.4180  151.9712 H   0  0  0  0  0  0  0  0  0  0  0  0
  1  2  1  0  0  0  0
  1 21  1  0  0  0  0
  1 22  1  0  0  0  0
  1 23  1  0  0  0  0
  2  3  1  0  0  0  0
  3 18  1  0  0  0  0
  3  4  1  0  0  0  0
  3  5  1  0  0  0  0
  4 24  1  0  0  0  0
  4 25  1  0  0  0  0
  4 26  1  0  0  0  0
  5  6  1  0  0  0  0
  5 27  1  0  0  0  0
  5 28  1  0  0  0  0
  6  7  1  0  0  0  0
  6 18  1  0  0  0  0
  6 29  1  0  0  0  0
  7  8  1  0  0  0  0
  7 30  1  0  0  0  0
  8  9  2  0  0  0  0
  8 10  1  0  0  0  0
 10 11  1  0  0  0  0
 10 31  1  0  0  0  0
 11 17  1  0  0  0  0
 11 12  2  0  0  0  0
 12 13  1  0  0  0  0
 12 32  1  0  0  0  0
 13 14  2  0  0  0  0
 13 33  1  0  0  0  0
 14 15  1  0  0  0  0
 14 16  1  0  0  0  0
 16 17  2  0  0  0  0
 16 34  1  0  0  0  0
 18 19  1  0  0  0  0
 18 20  1  0  0  0  0
 19 35  1  0  0  0  0
 19 36  1  0  0  0  0
 19 37  1  0  0  0  0
 20 38  1  0  0  0  0
 20 39  1  0  0  0  0
 20 40  1  0  0  0  0
M  END
> <s_m_source_file>
AV-unprocessed.smi

> <i_m_source_file_index>
2416

> <i_lp_mmshare_version>
43012

> <i_f3d_flags>
0

> <s_epik_input>
W0NIM11PW0NAQF0xKFtDSDNdKVtDSDJdW0NASF0oQzEoW0NIM10pW0NIM10pW05IXUMoPU8pW05IXWMyW2NIXVtjSF1jKEYpW2NIXW4y

> <s_epik_cmdline>
J2VwaWtfcHl0aG9uJywgJy1waCcsICc3LjAnLCAnLXRuJywgJzgnLCAnLW1hJywgJzIwMCcsICctbWV0YWxfYmluZGluZycsICctaW1hZScsICc8aW5maWxlLm1hZT4nLCAnLW9tYWUnLCAnPG91dGZpbGUubWFlPic=

> <r_lp_tautomer_probability>
1

> <r_epik_Ionization_Penalty>
3.67756e-05

> <r_epik_Ionization_Penalty_Charging>
0

> <r_epik_Ionization_Penalty_Neutral>
3.67756e-05

> <r_epik_State_Penalty>
-0

> <r_epik_Charging_Adjusted_Penalty>
0

> <i_epik_Tot_Q>
0

> <i_epik_Tot_abs_Q>
0

> <r_epik_Metal_State_Penalty>
-0

> <b_epik_Metal_Only>
0

> <s_lp_Force_Field>
OPLS_2005

> <r_lp_Energy>
27.4539

> <b_lp_Chiralities_Consistent>
1

> <s_lp_Variant>
AV-unprocessed.smi:2416-3

> <Gold.Version>
5.8.1

> <Gold.Id.Protein>
6NUR|6NUR_protein|mol2

> <Gold.PLP.Fitness>
39.2914

> <Gold.PLP.PLP>
-30.7886

> <Gold.PLP.part.hbond>
-3.0000

> <Gold.PLP.part.metal>
0.0000

> <Gold.PLP.part.buried>
-2.0922

> <Gold.PLP.part.nonpolar>
-25.7161

> <Gold.PLP.part.repulsive>
0.3495

> <Gold.PLP.ligand.clash>
0.0000

> <Gold.PLP.ligand.torsion>
0.3148

> <Gold.PLP.Chemscore.Hbond>
1.9199

> <Gold.PLP.Chemscore.CHOScore>
1.0000

> <Gold.PLP.Chemscore.Metal>
0.0000

> <Gold.Chemscore.Hbonds>
donor molecule, donor type, donor heavy atom, donor atom, acceptor molecule, acceptor atom, score
      L1  H     7    30       P1 10175  1.00
      L1  H    10    31       P1 10175  0.90
      L1  C    16    34       P1  7948  1.00

> <Gold.PLP.Chemscore.Internal.Correction>
0.3729

> <Gold.Rescore>
     Score         DG    S(hbond)    S(metal)    S(lipo)     H(rot)  DE(clash)    DE(int)     intcor
     13.10     -16.44       1.90        0.00      66.96       1.27       1.55       1.78       ----

> <Gold.Chemscore.Fitness>
13.0995

> <Gold.Chemscore.DG>
-16.4372

> <Gold.Chemscore.ZeroCoef>
-5.4800

> <Gold.Chemscore.Hbond>
1.9047

> <Gold.Chemscore.Metal>
0.0000

> <Gold.Chemscore.Lipo>
66.9634

> <Gold.Chemscore.Internal_Hbond>
0.0000

> <Gold.Chemscore.DEClash>
1.5527

> <Gold.Chemscore.DEInternal>
1.7850

> <Gold.Chemscore.Rot>
1.2653

> <Gold.Chemscore.Internal.Correction>
   9.000000E+99

> <Gold.Chemscore.Hbonds>
donor molecule, donor type, donor heavy atom, donor atom, acceptor molecule, acceptor atom, score
      L1  H     7    30       P1 10175  0.97
      L1  H    10    31       P1 10175  0.83

> <Gold.Chemscore.Hbond.Weighted>
-6.3617

> <Gold.Chemscore.Metal.Weighted>
-0.0000

> <Gold.Chemscore.Lipo.Weighted>
-7.8347

> <Gold.Chemscore.Internal_Hbond.Weighted>
0.0000

> <Gold.Chemscore.DEClash.Weighted>
1.5527

> <Gold.Chemscore.DEInternal.Weighted>
1.7850

> <Gold.Chemscore.Rot.Weighted>
3.2392

> <Gold.Chemscore.Internal.Correction.Weighted>
   9.000000E+99

> <Gold.Protein.RotatedTorsions>
[ 6907 6896 6895 6894 ] final   82.72 input  -60.11 | X-H torsion
[ 7974 7965 7964 7962 ] final   90.66 input  175.53 | X-H torsion
[ 8008 7997 7996 7995 ] final  102.55 input   59.86 | X-H torsion
[ 10167 10162 10161 10158 ] final  126.00 input  -65.29 | X-H torsion
[ 10718 10713 10712 10709 ] final -153.33 input   66.30 | X-H torsion
[ 10763 10752 10751 10750 ] final -100.73 input  -60.55 | X-H torsion
[ 11005 11000 10999 10996 ] final  -73.15 input  -57.11 | X-H torsion

> <Gold.Protein.ActiveResidues>
 VAL166  LYS551  ARG553  GLY616  TRP617  ASP618  TYR619  PRO620  LYS621  CYS622 
 ASP623  PHE694  ASN695  SER759  ASP760  ASP761  ALA762  ILE779  LEU786  VAL792 
 PHE793  MET794  SER795  GLU796  ALA797  LYS798  CYS799  TRP800  GLU811  SER814 

> <Gold.Protein.RotatedAtoms>
  152.5307  134.3006  159.9076 H   0  0  0  0  0  0  0  0  0  0  0  0  # atno 6907 bound_to 6896
  151.2957  133.4138  159.2644 H   0  0  0  0  0  0  0  0  0  0  0  0  # atno 6908 bound_to 6896
  151.0162  134.9451  159.8091 H   0  0  0  0  0  0  0  0  0  0  0  0  # atno 6909 bound_to 6896
  145.5160  139.2278  143.2698 H   0  0  0  0  0  0  0  0  0  0  0  0  # atno 7974 bound_to 7965
  156.1403  140.3179  155.8486 H   0  0  0  0  0  0  0  0  0  0  0  0  # atno 8008 bound_to 7997
  155.4166  140.0509  157.3045 H   0  0  0  0  0  0  0  0  0  0  0  0  # atno 8009 bound_to 7997
  154.4971  140.2115  155.9436 H   0  0  0  0  0  0  0  0  0  0  0  0  # atno 8010 bound_to 7997
  139.5655  144.6908  151.3923 H   0  0  0  0  0  0  0  0  0  0  0  0  # atno 10167 bound_to 10162
  156.4843  130.8318  151.2543 H   0  0  0  0  0  0  0  0  0  0  0  0  # atno 10718 bound_to 10713
  154.7602  135.4924  153.9450 H   0  0  0  0  0  0  0  0  0  0  0  0  # atno 10763 bound_to 10752
  153.1243  135.6739  153.9291 H   0  0  0  0  0  0  0  0  0  0  0  0  # atno 10764 bound_to 10752
  153.9014  135.3109  155.3427 H   0  0  0  0  0  0  0  0  0  0  0  0  # atno 10765 bound_to 10752
  141.1619  133.6869  156.7167 H   0  0  0  0  0  0  0  0  0  0  0  0  # atno 11005 bound_to 11000
  146.2136  140.5969  142.9048 LP  0  0  0  0  0  0  0  0  0  0  0  0  # atno 17320 bound_to 7965
  144.7702  140.5620  143.6676 LP  0  0  0  0  0  0  0  0  0  0  0  0  # atno 17321 bound_to 7965
  140.6938  143.7798  150.7295 LP  0  0  0  0  0  0  0  0  0  0  0  0  # atno 17342 bound_to 10162
  140.1288  143.4544  152.2267 LP  0  0  0  0  0  0  0  0  0  0  0  0  # atno 17343 bound_to 10162
  157.7480  131.0034  150.3038 LP  0  0  0  0  0  0  0  0  0  0  0  0  # atno 17370 bound_to 10713
  156.3490  130.3828  149.7345 LP  0  0  0  0  0  0  0  0  0  0  0  0  # atno 17371 bound_to 10713
  140.2846  134.8289  157.3964 LP  0  0  0  0  0  0  0  0  0  0  0  0  # atno 17394 bound_to 11000
  140.1401  134.4982  155.8038 LP  0  0  0  0  0  0  0  0  0  0  0  0  # atno 17395 bound_to 11000

$$$$
