AV-unprocessed.smi:2255|AV-procd|sdf|9125|dock1
  -GOLD-   2272012333D 1   1.00000     0.00000
 Structure written by MMmdl.
 46 47  0  0  0  0  0  0  0  0  1 V2000
  145.3537  132.1127  149.4208 C   0  0  0  0  0  0  0  0  0  0  0  0
  144.9418  133.1753  150.4178 C   0  0  0  0  0  0  0  0  0  0  0  0
  143.6743  133.1424  151.0315 C   0  0  0  0  0  0  0  0  0  0  0  0
  143.3528  134.1638  151.9432 C   0  0  0  0  0  0  0  0  0  0  0  0
  144.3043  135.1693  152.2010 C   0  0  0  0  0  0  0  0  0  0  0  0
  145.5545  135.1282  151.5435 C   0  0  0  0  0  0  0  0  0  0  0  0
  146.4402  136.1902  151.8666 N   0  0  0  0  0  0  0  0  0  0  0  0
  146.1423  137.3878  152.4008 C   0  0  0  0  0  0  0  0  0  0  0  0
  145.0072  137.7890  152.6593 O   0  0  0  0  0  0  0  0  0  0  0  0
  147.2529  138.1080  152.6170 N   0  0  0  0  0  0  0  0  0  0  0  0
  147.3029  139.4491  153.1969 C   0  0  0  0  0  0  0  0  0  0  0  0
  147.9154  139.4435  154.6137 C   0  0  0  0  0  0  0  0  0  0  0  0
  149.4018  139.0386  154.6871 C   0  0  0  0  0  0  0  0  0  0  0  0
  149.7233  137.8771  154.4317 O   0  0  0  0  0  0  0  0  0  0  0  0
  150.3202  139.9698  155.0456 N   0  0  0  0  0  0  0  0  0  0  0  0
  151.7427  139.6295  155.1767 C   0  0  0  0  0  0  0  0  0  0  0  0
  152.0621  138.9790  156.5385 C   0  0  0  0  0  0  0  0  0  0  0  0
  151.2570  139.5079  157.7461 C   0  0  0  0  0  0  0  0  0  0  0  0
  151.0386  141.0337  157.7770 C   0  0  0  0  0  0  0  0  0  0  0  0
  149.8310  141.5058  156.9399 C   0  0  0  0  0  0  0  0  0  0  0  0
  150.0143  141.3588  155.4181 C   0  0  0  0  0  0  0  0  0  0  0  0
  145.8550  134.1385  150.6662 N   0  0  0  0  0  0  0  0  0  0  0  0
  144.6264  131.3013  149.3842 H   0  0  0  0  0  0  0  0  0  0  0  0
  146.3211  131.6892  149.6922 H   0  0  0  0  0  0  0  0  0  0  0  0
  145.4347  132.5442  148.4227 H   0  0  0  0  0  0  0  0  0  0  0  0
  142.9654  132.3580  150.8101 H   0  0  0  0  0  0  0  0  0  0  0  0
  142.3919  134.1781  152.4359 H   0  0  0  0  0  0  0  0  0  0  0  0
  144.0723  135.9621  152.8973 H   0  0  0  0  0  0  0  0  0  0  0  0
  147.4162  136.0109  151.6845 H   0  0  0  0  0  0  0  0  0  0  0  0
  148.1388  137.6925  152.3687 H   0  0  0  0  0  0  0  0  0  0  0  0
  147.9221  140.0637  152.5433 H   0  0  0  0  0  0  0  0  0  0  0  0
  146.3212  139.9260  153.2118 H   0  0  0  0  0  0  0  0  0  0  0  0
  147.7905  140.4338  155.0523 H   0  0  0  0  0  0  0  0  0  0  0  0
  147.3447  138.7499  155.2312 H   0  0  0  0  0  0  0  0  0  0  0  0
  152.0632  138.9745  154.3646 H   0  0  0  0  0  0  0  0  0  0  0  0
  152.3578  140.5227  155.0647 H   0  0  0  0  0  0  0  0  0  0  0  0
  151.9003  137.9027  156.4678 H   0  0  0  0  0  0  0  0  0  0  0  0
  153.1278  139.1011  156.7341 H   0  0  0  0  0  0  0  0  0  0  0  0
  150.2897  139.0058  157.7905 H   0  0  0  0  0  0  0  0  0  0  0  0
  151.7792  139.2063  158.6546 H   0  0  0  0  0  0  0  0  0  0  0  0
  150.8570  141.3276  158.8114 H   0  0  0  0  0  0  0  0  0  0  0  0
  151.9466  141.5569  157.4754 H   0  0  0  0  0  0  0  0  0  0  0  0
  148.9362  140.9716  157.2604 H   0  0  0  0  0  0  0  0  0  0  0  0
  149.6413  142.5565  157.1618 H   0  0  0  0  0  0  0  0  0  0  0  0
  150.8126  142.0235  155.0860 H   0  0  0  0  0  0  0  0  0  0  0  0
  149.1297  141.7328  154.9046 H   0  0  0  0  0  0  0  0  0  0  0  0
  1  2  1  0  0  0  0
  1 23  1  0  0  0  0
  1 24  1  0  0  0  0
  1 25  1  0  0  0  0
  2 22  1  0  0  0  0
  2  3  2  0  0  0  0
  3  4  1  0  0  0  0
  3 26  1  0  0  0  0
  4  5  2  0  0  0  0
  4 27  1  0  0  0  0
  5  6  1  0  0  0  0
  5 28  1  0  0  0  0
  6  7  1  0  0  0  0
  6 22  2  0  0  0  0
  7  8  1  0  0  0  0
  7 29  1  0  0  0  0
  8  9  2  0  0  0  0
  8 10  1  0  0  0  0
 10 11  1  0  0  0  0
 10 30  1  0  0  0  0
 11 12  1  0  0  0  0
 11 31  1  0  0  0  0
 11 32  1  0  0  0  0
 12 13  1  0  0  0  0
 12 33  1  0  0  0  0
 12 34  1  0  0  0  0
 13 14  2  0  0  0  0
 13 15  1  0  0  0  0
 15 21  1  0  0  0  0
 15 16  1  0  0  0  0
 16 17  1  0  0  0  0
 16 35  1  0  0  0  0
 16 36  1  0  0  0  0
 17 18  1  0  0  0  0
 17 37  1  0  0  0  0
 17 38  1  0  0  0  0
 18 19  1  0  0  0  0
 18 39  1  0  0  0  0
 18 40  1  0  0  0  0
 19 20  1  0  0  0  0
 19 41  1  0  0  0  0
 19 42  1  0  0  0  0
 20 21  1  0  0  0  0
 20 43  1  0  0  0  0
 20 44  1  0  0  0  0
 21 45  1  0  0  0  0
 21 46  1  0  0  0  0
M  END
> <s_m_source_file>
AV-unprocessed.smi

> <i_m_source_file_index>
2255

> <i_lp_mmshare_version>
43012

> <i_f3d_flags>
0

> <s_epik_input>
W0NIM11jMVtjSF1bY0hdW2NIXWMobjEpW05IXUMoPU8pW05IXVtDSDJdW0NIMl1DKD1PKU4yW0NIMl1bQ0gyXVtDSDJdW0NIMl1bQ0gyXVtDSDJdMg==

> <s_epik_cmdline>
J2VwaWtfcHl0aG9uJywgJy1waCcsICc3LjAnLCAnLXRuJywgJzgnLCAnLW1hJywgJzIwMCcsICctbWV0YWxfYmluZGluZycsICctaW1hZScsICc8aW5maWxlLm1hZT4nLCAnLW9tYWUnLCAnPG91dGZpbGUubWFlPic=

> <r_lp_tautomer_probability>
1

> <r_epik_Ionization_Penalty>
7.16633e-05

> <r_epik_Ionization_Penalty_Charging>
0

> <r_epik_Ionization_Penalty_Neutral>
7.16633e-05

> <r_epik_State_Penalty>
-0

> <r_epik_Charging_Adjusted_Penalty>
0

> <i_epik_Tot_Q>
0

> <i_epik_Tot_abs_Q>
0

> <r_epik_Metal_State_Penalty>
-0

> <b_epik_Metal_Only>
0

> <s_lp_Force_Field>
OPLS_2005

> <r_lp_Energy>
24.0956

> <b_lp_Chiralities_Consistent>
1

> <s_lp_Variant>
AV-unprocessed.smi:2255-1

> <Gold.Version>
5.8.1

> <Gold.Id.Protein>
6NUR|6NUR_protein|mol2

> <Gold.PLP.Fitness>
42.2806

> <Gold.PLP.PLP>
-36.8543

> <Gold.PLP.part.hbond>
-1.9079

> <Gold.PLP.part.metal>
0.0000

> <Gold.PLP.part.buried>
-2.7352

> <Gold.PLP.part.nonpolar>
-33.4997

> <Gold.PLP.part.repulsive>
1.8044

> <Gold.PLP.ligand.clash>
0.0000

> <Gold.PLP.ligand.torsion>
0.2081

> <Gold.PLP.Chemscore.Hbond>
1.9440

> <Gold.PLP.Chemscore.CHOScore>
0.0000

> <Gold.PLP.Chemscore.Metal>
0.0000

> <Gold.Chemscore.Hbonds>
donor molecule, donor type, donor heavy atom, donor atom, acceptor molecule, acceptor atom, score
      L1  H     7    29       P1  7948  0.99
      L1  H    10    30       P1  7948  0.93

> <Gold.PLP.Chemscore.Internal.Correction>
0.0105

> <Gold.Rescore>
     Score         DG    S(hbond)    S(metal)    S(lipo)     H(rot)  DE(clash)    DE(int)     intcor
     15.13     -17.38       1.96        0.00      78.54       1.49       0.03       2.22       ----

> <Gold.Chemscore.Fitness>
15.1310

> <Gold.Chemscore.DG>
-17.3765

> <Gold.Chemscore.ZeroCoef>
-5.4800

> <Gold.Chemscore.Hbond>
1.9561

> <Gold.Chemscore.Metal>
0.0000

> <Gold.Chemscore.Lipo>
78.5386

> <Gold.Chemscore.Internal_Hbond>
0.0000

> <Gold.Chemscore.DEClash>
0.0291

> <Gold.Chemscore.DEInternal>
2.2164

> <Gold.Chemscore.Rot>
1.4946

> <Gold.Chemscore.Internal.Correction>
   9.000000E+99

> <Gold.Chemscore.Hbonds>
donor molecule, donor type, donor heavy atom, donor atom, acceptor molecule, acceptor atom, score
      L1  H     7    29       P1  7948  0.91
      L1  H    10    30       P1  7948  0.90

> <Gold.Chemscore.Hbond.Weighted>
-6.5335

> <Gold.Chemscore.Metal.Weighted>
-0.0000

> <Gold.Chemscore.Lipo.Weighted>
-9.1890

> <Gold.Chemscore.Internal_Hbond.Weighted>
0.0000

> <Gold.Chemscore.DEClash.Weighted>
0.0291

> <Gold.Chemscore.DEInternal.Weighted>
2.2164

> <Gold.Chemscore.Rot.Weighted>
3.8261

> <Gold.Chemscore.Internal.Correction.Weighted>
   9.000000E+99

> <Gold.Protein.RotatedTorsions>
[ 6907 6896 6895 6894 ] final -147.52 input  -60.11 | X-H torsion
[ 7974 7965 7964 7962 ] final   58.48 input  175.53 | X-H torsion
[ 8008 7997 7996 7995 ] final   92.51 input   59.86 | X-H torsion
[ 10167 10162 10161 10158 ] final   -4.51 input  -65.29 | X-H torsion
[ 10718 10713 10712 10709 ] final  104.88 input   66.30 | X-H torsion
[ 10763 10752 10751 10750 ] final   11.14 input  -60.55 | X-H torsion
[ 11005 11000 10999 10996 ] final   32.54 input  -57.11 | X-H torsion

> <Gold.Protein.ActiveResidues>
 VAL166  LYS551  ARG553  GLY616  TRP617  ASP618  TYR619  PRO620  LYS621  CYS622 
 ASP623  PHE694  ASN695  SER759  ASP760  ASP761  ALA762  ILE779  LEU786  VAL792 
 PHE793  MET794  SER795  GLU796  ALA797  LYS798  CYS799  TRP800  GLU811  SER814 

> <Gold.Protein.RotatedAtoms>
  151.1568  133.4871  159.2594 H   0  0  0  0  0  0  0  0  0  0  0  0  # atno 6907 bound_to 6896
  151.1496  135.0220  159.8672 H   0  0  0  0  0  0  0  0  0  0  0  0  # atno 6908 bound_to 6896
  152.5463  134.1453  159.8549 H   0  0  0  0  0  0  0  0  0  0  0  0  # atno 6909 bound_to 6896
  145.9177  139.3704  143.0497 H   0  0  0  0  0  0  0  0  0  0  0  0  # atno 7974 bound_to 7965
  156.0362  140.3324  155.7194 H   0  0  0  0  0  0  0  0  0  0  0  0  # atno 8008 bound_to 7997
  155.5812  140.0637  157.2800 H   0  0  0  0  0  0  0  0  0  0  0  0  # atno 8009 bound_to 7997
  154.4374  140.1843  156.0966 H   0  0  0  0  0  0  0  0  0  0  0  0  # atno 8010 bound_to 7997
  140.6930  143.6415  150.8431 H   0  0  0  0  0  0  0  0  0  0  0  0  # atno 10167 bound_to 10162
  157.6725  131.0814  150.5773 H   0  0  0  0  0  0  0  0  0  0  0  0  # atno 10718 bound_to 10713
  153.1957  135.6849  153.8295 H   0  0  0  0  0  0  0  0  0  0  0  0  # atno 10763 bound_to 10752
  153.7579  135.3214  155.3333 H   0  0  0  0  0  0  0  0  0  0  0  0  # atno 10764 bound_to 10752
  154.8143  135.4696  154.0700 H   0  0  0  0  0  0  0  0  0  0  0  0  # atno 10765 bound_to 10752
  140.2724  134.3067  155.7824 H   0  0  0  0  0  0  0  0  0  0  0  0  # atno 11005 bound_to 11000
  145.8590  140.9486  143.0710 LP  0  0  0  0  0  0  0  0  0  0  0  0  # atno 17320 bound_to 7965
  144.6749  140.0505  143.7479 LP  0  0  0  0  0  0  0  0  0  0  0  0  # atno 17321 bound_to 7965
  140.0130  143.5622  152.2831 LP  0  0  0  0  0  0  0  0  0  0  0  0  # atno 17342 bound_to 10162
  139.6353  144.7649  151.2450 LP  0  0  0  0  0  0  0  0  0  0  0  0  # atno 17343 bound_to 10162
  156.6074  130.4371  149.5872 LP  0  0  0  0  0  0  0  0  0  0  0  0  # atno 17370 bound_to 10713
  156.2457  130.6878  151.1598 LP  0  0  0  0  0  0  0  0  0  0  0  0  # atno 17371 bound_to 10713
  141.2175  133.7475  156.9355 LP  0  0  0  0  0  0  0  0  0  0  0  0  # atno 17394 bound_to 11000
  140.1361  134.9324  157.2403 LP  0  0  0  0  0  0  0  0  0  0  0  0  # atno 17395 bound_to 11000

$$$$
