AV-unprocessed.smi:2243|AV-procd|sdf|9065|dock8
  -GOLD-   2272012273D 1   1.00000     0.00000
 Structure written by MMmdl.
 35 36  0  0  0  0  0  0  0  0  2 V2000
  147.4637  140.1400  151.3428 C   0  0  0  0  0  0  0  0  0  0  0  0
  147.1623  139.3809  152.6466 C   0  0  1  0  0  0  0  0  0  0  0  0
  147.1188  137.9510  152.3365 N   0  0  0  0  0  0  0  0  0  0  0  0
  146.0194  137.2445  152.0298 C   0  0  0  0  0  0  0  0  0  0  0  0
  144.8859  137.7230  151.9794 O   0  0  0  0  0  0  0  0  0  0  0  0
  146.3121  135.9572  151.7897 N   0  0  0  0  0  0  0  0  0  0  0  0
  145.3814  134.9508  151.4428 C   0  0  0  0  0  0  0  0  0  0  0  0
  145.4379  134.2388  150.3183 N   0  3  0  0  0  0  0  0  0  0  0  0
  144.3868  133.3557  150.3024 C   0  0  0  0  0  0  0  0  0  0  0  0
  143.6982  133.5736  151.4717 C   0  0  0  0  0  0  0  0  0  0  0  0
  144.3115  134.5737  152.1994 O   0  0  0  0  0  0  0  0  0  0  0  0
  148.1906  139.6641  153.7744 C   0  0  0  0  0  0  0  0  0  0  0  0
  148.7396  141.1065  153.7294 C   0  0  0  0  0  0  0  0  0  0  0  0
  149.8132  141.3324  154.8060 C   0  0  0  0  0  0  0  0  0  0  0  0
  150.8673  140.3916  154.6470 O   0  0  0  0  0  0  0  0  0  0  0  0
  150.4313  139.0484  154.8124 C   0  0  0  0  0  0  0  0  0  0  0  0
  149.3906  138.6953  153.7372 C   0  0  0  0  0  0  0  0  0  0  0  0
  147.3793  141.2184  151.4738 H   0  0  0  0  0  0  0  0  0  0  0  0
  146.7594  139.8632  150.5573 H   0  0  0  0  0  0  0  0  0  0  0  0
  148.4684  139.9237  150.9784 H   0  0  0  0  0  0  0  0  0  0  0  0
  146.1828  139.7128  152.9957 H   0  0  0  0  0  0  0  0  0  0  0  0
  148.0041  137.4658  152.3528 H   0  0  0  0  0  0  0  0  0  0  0  0
  146.1224  134.3055  149.5753 H   0  0  0  0  0  0  0  0  0  0  0  0
  144.2360  132.6742  149.4776 H   0  0  0  0  0  0  0  0  0  0  0  0
  142.8135  133.1351  151.9100 H   0  0  0  0  0  0  0  0  0  0  0  0
  147.6858  139.5326  154.7328 H   0  0  0  0  0  0  0  0  0  0  0  0
  149.1665  141.3069  152.7457 H   0  0  0  0  0  0  0  0  0  0  0  0
  147.9391  141.8319  153.8744 H   0  0  0  0  0  0  0  0  0  0  0  0
  150.2248  142.3381  154.7184 H   0  0  0  0  0  0  0  0  0  0  0  0
  149.3847  141.2505  155.8063 H   0  0  0  0  0  0  0  0  0  0  0  0
  151.2940  138.3874  154.7274 H   0  0  0  0  0  0  0  0  0  0  0  0
  150.0204  138.9075  155.8134 H   0  0  0  0  0  0  0  0  0  0  0  0
  149.0644  137.6674  153.8929 H   0  0  0  0  0  0  0  0  0  0  0  0
  149.8627  138.7289  152.7545 H   0  0  0  0  0  0  0  0  0  0  0  0
  147.2784  135.6745  151.8600 H   0  0  0  0  0  0  0  0  0  0  0  0
  1  2  1  0  0  0  0
  1 18  1  0  0  0  0
  1 19  1  0  0  0  0
  1 20  1  0  0  0  0
  2  3  1  0  0  0  0
  2 12  1  0  0  0  0
  2 21  1  0  0  0  0
  3 22  1  0  0  0  0
  3  4  1  0  0  0  0
  4  6  1  0  0  0  0
  4  5  2  0  0  0  0
  6  7  1  0  0  0  0
  6 35  1  0  0  0  0
  7 11  1  0  0  0  0
  7  8  2  0  0  0  0
  8 23  1  0  0  0  0
  8  9  1  0  0  0  0
  9 24  1  0  0  0  0
  9 10  2  0  0  0  0
 10 25  1  0  0  0  0
 10 11  1  0  0  0  0
 12 17  1  0  0  0  0
 12 13  1  0  0  0  0
 12 26  1  0  0  0  0
 13 14  1  0  0  0  0
 13 27  1  0  0  0  0
 13 28  1  0  0  0  0
 14 15  1  0  0  0  0
 14 29  1  0  0  0  0
 14 30  1  0  0  0  0
 15 16  1  0  0  0  0
 16 17  1  0  0  0  0
 16 31  1  0  0  0  0
 16 32  1  0  0  0  0
 17 33  1  0  0  0  0
 17 34  1  0  0  0  0
M  CHG  1   8   1
M  END
> <s_m_source_file>
AV-unprocessed.smi

> <i_m_source_file_index>
2243

> <i_lp_mmshare_version>
43012

> <i_f3d_flags>
0

> <s_epik_input>
W0NIMl0xW0NIMl1PW0NIMl1bQ0gyXVtDSF0xW0NASF0oW0NIM10pW05IXUMoPU8pW05IXWMybltjSF1bY0hdbzI=

> <s_epik_cmdline>
J2VwaWtfcHl0aG9uJywgJy1waCcsICc3LjAnLCAnLXRuJywgJzgnLCAnLW1hJywgJzIwMCcsICctbWV0YWxfYmluZGluZycsICctaW1hZScsICc8aW5maWxlLm1hZT4nLCAnLW9tYWUnLCAnPG91dGZpbGUubWFlPic=

> <r_epik_Ionization_Penalty>
6.61405

> <r_epik_Ionization_Penalty_Charging>
6.55981

> <r_epik_Ionization_Penalty_Neutral>
0.0542461

> <r_epik_State_Penalty>
1.79186

> <r_epik_Charging_Adjusted_Penalty>
8.35167

> <i_epik_Tot_Q>
1

> <i_epik_Tot_abs_Q>
1

> <r_epik_Metal_State_Penalty>
1.80655

> <b_epik_Metal_Only>
0

> <s_lp_Force_Field>
OPLS_2005

> <r_lp_Energy>
19.6033

> <b_lp_Chiralities_Consistent>
1

> <s_lp_Variant>
AV-unprocessed.smi:2243-4

> <Gold.Version>
5.8.1

> <Gold.Id.Protein>
6NUR|6NUR_protein|mol2

> <Gold.PLP.Fitness>
36.9007

> <Gold.PLP.PLP>
-27.0849

> <Gold.PLP.part.hbond>
-4.0000

> <Gold.PLP.part.metal>
0.0000

> <Gold.PLP.part.buried>
0.6959

> <Gold.PLP.part.nonpolar>
-24.4182

> <Gold.PLP.part.repulsive>
0.5347

> <Gold.PLP.ligand.clash>
0.0000

> <Gold.PLP.ligand.torsion>
1.5282

> <Gold.PLP.Chemscore.Hbond>
4.0000

> <Gold.PLP.Chemscore.CHOScore>
0.2855

> <Gold.PLP.Chemscore.Metal>
0.0000

> <Gold.Chemscore.Hbonds>
donor molecule, donor type, donor heavy atom, donor atom, acceptor molecule, acceptor atom, score
      L1  H     3    22       P1  7948  1.00
      L1  H     6    35       P1  7948  0.91
      L1  H     8    23       P1  7921  0.75
      P1  H  7989  7998       L1    15  0.83

> <Gold.PLP.Chemscore.Internal.Correction>
0.0158

> <Gold.Rescore>
     Score         DG    S(hbond)    S(metal)    S(lipo)     H(rot)  DE(clash)    DE(int)     intcor
     19.27     -22.16       3.80        0.00      63.11       1.33       1.19       1.70       ----

> <Gold.Chemscore.Fitness>
19.2700

> <Gold.Chemscore.DG>
-22.1626

> <Gold.Chemscore.ZeroCoef>
-5.4800

> <Gold.Chemscore.Hbond>
3.8049

> <Gold.Chemscore.Metal>
0.0000

> <Gold.Chemscore.Lipo>
63.1150

> <Gold.Chemscore.Internal_Hbond>
0.0000

> <Gold.Chemscore.DEClash>
1.1932

> <Gold.Chemscore.DEInternal>
1.6994

> <Gold.Chemscore.Rot>
1.3321

> <Gold.Chemscore.Internal.Correction>
   9.000000E+99

> <Gold.Chemscore.Hbonds>
donor molecule, donor type, donor heavy atom, donor atom, acceptor molecule, acceptor atom, score
      L1  H     3    22       P1  7948  0.94
      L1  H     6    35       P1  7948  0.90
      L1  H     8    23       P1  7921  0.19
      P1  H  7989  7998       L1    15  0.40

> <Gold.Chemscore.Hbond.Weighted>
-12.7085

> <Gold.Chemscore.Metal.Weighted>
-0.0000

> <Gold.Chemscore.Lipo.Weighted>
-7.3844

> <Gold.Chemscore.Internal_Hbond.Weighted>
0.0000

> <Gold.Chemscore.DEClash.Weighted>
1.1932

> <Gold.Chemscore.DEInternal.Weighted>
1.6994

> <Gold.Chemscore.Rot.Weighted>
3.4103

> <Gold.Chemscore.Internal.Correction.Weighted>
   9.000000E+99

> <Gold.Protein.RotatedTorsions>
[ 6907 6896 6895 6894 ] final  -40.33 input  -60.11 | X-H torsion
[ 7974 7965 7964 7962 ] final  -13.24 input  175.53 | X-H torsion
[ 8008 7997 7996 7995 ] final  -98.56 input   59.86 | X-H torsion
[ 10167 10162 10161 10158 ] final  -80.40 input  -65.29 | X-H torsion
[ 10718 10713 10712 10709 ] final  149.92 input   66.30 | X-H torsion
[ 10763 10752 10751 10750 ] final  131.35 input  -60.55 | X-H torsion
[ 11005 11000 10999 10996 ] final    3.71 input  -57.11 | X-H torsion

> <Gold.Protein.ActiveResidues>
 VAL166  LYS551  ARG553  GLY616  TRP617  ASP618  TYR619  PRO620  LYS621  CYS622 
 ASP623  PHE694  ASN695  SER759  ASP760  ASP761  ALA762  ILE779  LEU786  VAL792 
 PHE793  MET794  SER795  GLU796  ALA797  LYS798  CYS799  TRP800  GLU811  SER814 

> <Gold.Protein.RotatedAtoms>
  150.9797  134.9155  159.7836 H   0  0  0  0  0  0  0  0  0  0  0  0  # atno 6907 bound_to 6896
  152.5218  134.3427  159.9233 H   0  0  0  0  0  0  0  0  0  0  0  0  # atno 6908 bound_to 6896
  151.3434  133.3912  159.2708 H   0  0  0  0  0  0  0  0  0  0  0  0  # atno 6909 bound_to 6896
  146.2122  140.3175  142.8387 H   0  0  0  0  0  0  0  0  0  0  0  0  # atno 7974 bound_to 7965
  154.8029  140.0454  157.1286 H   0  0  0  0  0  0  0  0  0  0  0  0  # atno 8008 bound_to 7997
  154.9458  140.3058  155.5079 H   0  0  0  0  0  0  0  0  0  0  0  0  # atno 8009 bound_to 7997
  156.2963  140.2297  156.4532 H   0  0  0  0  0  0  0  0  0  0  0  0  # atno 8010 bound_to 7997
  140.4507  143.2484  151.8493 H   0  0  0  0  0  0  0  0  0  0  0  0  # atno 10167 bound_to 10162
  157.2901  131.0851  151.1468 H   0  0  0  0  0  0  0  0  0  0  0  0  # atno 10718 bound_to 10713
  153.7729  135.3179  155.3354 H   0  0  0  0  0  0  0  0  0  0  0  0  # atno 10763 bound_to 10752
  154.8190  135.4617  154.0726 H   0  0  0  0  0  0  0  0  0  0  0  0  # atno 10764 bound_to 10752
  153.1992  135.6920  153.8338 H   0  0  0  0  0  0  0  0  0  0  0  0  # atno 10765 bound_to 10752
  140.5901  133.9932  155.8085 H   0  0  0  0  0  0  0  0  0  0  0  0  # atno 11005 bound_to 11000
  144.8944  140.7564  143.5906 LP  0  0  0  0  0  0  0  0  0  0  0  0  # atno 17320 bound_to 7965
  145.3098  139.1822  143.4645 LP  0  0  0  0  0  0  0  0  0  0  0  0  # atno 17321 bound_to 7965
  139.4796  144.5123  151.8915 LP  0  0  0  0  0  0  0  0  0  0  0  0  # atno 17342 bound_to 10162
  140.4211  144.2242  150.5887 LP  0  0  0  0  0  0  0  0  0  0  0  0  # atno 17343 bound_to 10162
  157.2868  130.6777  149.6094 LP  0  0  0  0  0  0  0  0  0  0  0  0  # atno 17370 bound_to 10713
  155.9667  130.4433  150.5415 LP  0  0  0  0  0  0  0  0  0  0  0  0  # atno 17371 bound_to 10713
  141.0940  133.9872  157.3190 LP  0  0  0  0  0  0  0  0  0  0  0  0  # atno 17394 bound_to 11000
  139.9278  135.0201  156.8295 LP  0  0  0  0  0  0  0  0  0  0  0  0  # atno 17395 bound_to 11000

$$$$
