AV-unprocessed.smi:1573|AV-procd|sdf|6333|dock2
  -GOLD-   22720 6543D 1   1.00000     0.00000
 Structure written by MMmdl.
 41 41  0  0  0  0  0  0  0  0  1 V2000
  145.8392  138.1359  153.4973 C   0  0  0  0  0  0  0  0  0  0  0  0
  147.1115  138.8071  152.9606 C   0  0  0  0  0  0  0  0  0  0  0  0
  148.3101  138.2569  153.5819 N   0  0  0  0  0  0  0  0  0  0  0  0
  148.7726  138.5967  154.7945 C   0  0  0  0  0  0  0  0  0  0  0  0
  148.2000  139.3993  155.5338 O   0  0  0  0  0  0  0  0  0  0  0  0
  150.0891  137.9367  155.2329 C   0  0  2  0  0  0  0  0  0  0  0  0
  149.8576  136.4214  155.3629 C   0  0  0  0  0  0  0  0  0  0  0  0
  150.4571  138.4557  156.5472 N   0  0  0  0  0  0  0  0  0  0  0  0
  151.5902  139.1207  156.8235 C   0  0  0  0  0  0  0  0  0  0  0  0
  152.4990  139.2818  156.0088 O   0  0  0  0  0  0  0  0  0  0  0  0
  151.7010  139.7262  158.2221 C   0  0  0  0  0  0  0  0  0  0  0  0
  151.8299  141.2240  158.1014 C   0  0  0  0  0  0  0  0  0  0  0  0
  151.1830  142.0738  157.1571 C   0  0  0  0  0  0  0  0  0  0  0  0
  150.2337  141.6861  156.0598 C   0  0  0  0  0  0  0  0  0  0  0  0
  151.4938  143.3481  157.3276 N   0  0  0  0  0  0  0  0  0  0  0  0
  152.3372  143.3588  158.3792 N   0  0  0  0  0  0  0  0  0  0  0  0
  152.8731  144.6225  158.8462 C   0  0  0  0  0  0  0  0  0  0  0  0
  152.5677  142.0876  158.8676 C   0  0  0  0  0  0  0  0  0  0  0  0
  153.4691  141.8349  160.0330 C   0  0  0  0  0  0  0  0  0  0  0  0
  144.9496  138.5825  153.0532 H   0  0  0  0  0  0  0  0  0  0  0  0
  145.7622  138.2455  154.5793 H   0  0  0  0  0  0  0  0  0  0  0  0
  145.8225  137.0700  153.2678 H   0  0  0  0  0  0  0  0  0  0  0  0
  147.1675  138.7050  151.8757 H   0  0  0  0  0  0  0  0  0  0  0  0
  147.0793  139.8760  153.1717 H   0  0  0  0  0  0  0  0  0  0  0  0
  148.8434  137.5929  153.0392 H   0  0  0  0  0  0  0  0  0  0  0  0
  150.8804  138.1257  154.5045 H   0  0  0  0  0  0  0  0  0  0  0  0
  149.5594  135.9844  154.4090 H   0  0  0  0  0  0  0  0  0  0  0  0
  149.0839  136.1839  156.0948 H   0  0  0  0  0  0  0  0  0  0  0  0
  150.7711  135.9165  155.6780 H   0  0  0  0  0  0  0  0  0  0  0  0
  149.7646  138.3751  157.2775 H   0  0  0  0  0  0  0  0  0  0  0  0
  150.8328  139.4487  158.8212 H   0  0  0  0  0  0  0  0  0  0  0  0
  152.5654  139.2881  158.7217 H   0  0  0  0  0  0  0  0  0  0  0  0
  149.3767  141.1453  156.4613 H   0  0  0  0  0  0  0  0  0  0  0  0
  150.7233  141.0390  155.3323 H   0  0  0  0  0  0  0  0  0  0  0  0
  149.8540  142.5573  155.5249 H   0  0  0  0  0  0  0  0  0  0  0  0
  153.9115  144.7185  158.5289 H   0  0  0  0  0  0  0  0  0  0  0  0
  152.8271  144.6638  159.9346 H   0  0  0  0  0  0  0  0  0  0  0  0
  152.2984  145.4564  158.4412 H   0  0  0  0  0  0  0  0  0  0  0  0
  153.6392  140.7685  160.1785 H   0  0  0  0  0  0  0  0  0  0  0  0
  153.0334  142.2319  160.9496 H   0  0  0  0  0  0  0  0  0  0  0  0
  154.4393  142.3093  159.8852 H   0  0  0  0  0  0  0  0  0  0  0  0
  1  2  1  0  0  0  0
  1 20  1  0  0  0  0
  1 21  1  0  0  0  0
  1 22  1  0  0  0  0
  2  3  1  0  0  0  0
  2 23  1  0  0  0  0
  2 24  1  0  0  0  0
  3  4  1  0  0  0  0
  3 25  1  0  0  0  0
  4  5  2  0  0  0  0
  4  6  1  0  0  0  0
  6  7  1  0  0  0  0
  6  8  1  0  0  0  0
  6 26  1  0  0  0  0
  7 27  1  0  0  0  0
  7 28  1  0  0  0  0
  7 29  1  0  0  0  0
  8  9  1  0  0  0  0
  8 30  1  0  0  0  0
  9 10  2  0  0  0  0
  9 11  1  0  0  0  0
 11 12  1  0  0  0  0
 11 31  1  0  0  0  0
 11 32  1  0  0  0  0
 12 18  2  0  0  0  0
 12 13  1  0  0  0  0
 13 14  1  0  0  0  0
 13 15  2  0  0  0  0
 14 33  1  0  0  0  0
 14 34  1  0  0  0  0
 14 35  1  0  0  0  0
 15 16  1  0  0  0  0
 16 17  1  0  0  0  0
 16 18  1  0  0  0  0
 17 36  1  0  0  0  0
 17 37  1  0  0  0  0
 17 38  1  0  0  0  0
 18 19  1  0  0  0  0
 19 39  1  0  0  0  0
 19 40  1  0  0  0  0
 19 41  1  0  0  0  0
M  END
> <s_m_source_file>
AV-unprocessed.smi

> <i_m_source_file_index>
1573

> <i_lp_mmshare_version>
43012

> <i_f3d_flags>
0

> <s_epik_input>
W0NIM11bQ0gyXVtOSF1DKD1PKVtDQEhdKFtDSDNdKVtOSF1DKD1PKVtDSDJdYzFjKFtDSDNdKW5uKFtDSDNdKWMxW0NIM10=

> <s_epik_cmdline>
J2VwaWtfcHl0aG9uJywgJy1waCcsICc3LjAnLCAnLXRuJywgJzgnLCAnLW1hJywgJzIwMCcsICctbWV0YWxfYmluZGluZycsICctaW1hZScsICc8aW5maWxlLm1hZT4nLCAnLW9tYWUnLCAnPG91dGZpbGUubWFlPic=

> <r_lp_tautomer_probability>
1

> <r_epik_Ionization_Penalty>
0.00278414

> <r_epik_Ionization_Penalty_Charging>
0

> <r_epik_Ionization_Penalty_Neutral>
0.00278414

> <r_epik_State_Penalty>
0.00194489

> <r_epik_Charging_Adjusted_Penalty>
0.00194489

> <i_epik_Tot_Q>
0

> <i_epik_Tot_abs_Q>
0

> <r_epik_Metal_State_Penalty>
-0

> <b_epik_Metal_Only>
0

> <s_lp_Force_Field>
OPLS_2005

> <r_lp_Energy>
-3.80626

> <b_lp_Chiralities_Consistent>
1

> <s_lp_Variant>
AV-unprocessed.smi:1573-1

> <Gold.Version>
5.8.1

> <Gold.Id.Protein>
6NUR|6NUR_protein|mol2

> <Gold.PLP.Fitness>
40.3972

> <Gold.PLP.PLP>
-35.8741

> <Gold.PLP.part.hbond>
-3.0000

> <Gold.PLP.part.metal>
0.0000

> <Gold.PLP.part.buried>
-3.5041

> <Gold.PLP.part.nonpolar>
-30.8418

> <Gold.PLP.part.repulsive>
0.4040

> <Gold.PLP.ligand.clash>
0.0000

> <Gold.PLP.ligand.torsion>
0.5009

> <Gold.PLP.Chemscore.Hbond>
1.8160

> <Gold.PLP.Chemscore.CHOScore>
0.0000

> <Gold.PLP.Chemscore.Metal>
0.0000

> <Gold.Chemscore.Hbonds>
donor molecule, donor type, donor heavy atom, donor atom, acceptor molecule, acceptor atom, score
      L1  H     3    25       P1  7948  1.00
      P1  H  7997  8009       L1    10  0.93

> <Gold.PLP.Chemscore.Internal.Correction>
0.0770

> <Gold.Rescore>
     Score         DG    S(hbond)    S(metal)    S(lipo)     H(rot)  DE(clash)    DE(int)     intcor
     14.93     -16.78       1.94        0.00      82.86       1.91       0.33       1.52       ----

> <Gold.Chemscore.Fitness>
14.9265

> <Gold.Chemscore.DG>
-16.7781

> <Gold.Chemscore.ZeroCoef>
-5.4800

> <Gold.Chemscore.Hbond>
1.9441

> <Gold.Chemscore.Metal>
0.0000

> <Gold.Chemscore.Lipo>
82.8570

> <Gold.Chemscore.Internal_Hbond>
0.0000

> <Gold.Chemscore.DEClash>
0.3297

> <Gold.Chemscore.DEInternal>
1.5219

> <Gold.Chemscore.Rot>
1.9100

> <Gold.Chemscore.Internal.Correction>
   9.000000E+99

> <Gold.Chemscore.Hbonds>
donor molecule, donor type, donor heavy atom, donor atom, acceptor molecule, acceptor atom, score
      L1  H     3    25       P1  7948  0.97
      P1  H  7997  8009       L1    10  0.88

> <Gold.Chemscore.Hbond.Weighted>
-6.4934

> <Gold.Chemscore.Metal.Weighted>
-0.0000

> <Gold.Chemscore.Lipo.Weighted>
-9.6943

> <Gold.Chemscore.Internal_Hbond.Weighted>
0.0000

> <Gold.Chemscore.DEClash.Weighted>
0.3297

> <Gold.Chemscore.DEInternal.Weighted>
1.5219

> <Gold.Chemscore.Rot.Weighted>
4.8896

> <Gold.Chemscore.Internal.Correction.Weighted>
   9.000000E+99

> <Gold.Protein.RotatedTorsions>
[ 6907 6896 6895 6894 ] final   86.12 input  -60.11 | X-H torsion
[ 7974 7965 7964 7962 ] final -134.32 input  175.53 | X-H torsion
[ 8008 7997 7996 7995 ] final -169.46 input   59.86 | X-H torsion
[ 10167 10162 10161 10158 ] final -106.99 input  -65.29 | X-H torsion
[ 10718 10713 10712 10709 ] final  124.39 input   66.30 | X-H torsion
[ 10763 10752 10751 10750 ] final  172.91 input  -60.55 | X-H torsion
[ 11005 11000 10999 10996 ] final   96.02 input  -57.11 | X-H torsion

> <Gold.Protein.ActiveResidues>
 VAL166  LYS551  ARG553  GLY616  TRP617  ASP618  TYR619  PRO620  LYS621  CYS622 
 ASP623  PHE694  ASN695  SER759  ASP760  ASP761  ALA762  ILE779  LEU786  VAL792 
 PHE793  MET794  SER795  GLU796  ALA797  LYS798  CYS799  TRP800  GLU811  SER814 

> <Gold.Protein.RotatedAtoms>
  152.5388  134.2480  159.8887 H   0  0  0  0  0  0  0  0  0  0  0  0  # atno 6907 bound_to 6896
  151.2445  133.4375  159.2616 H   0  0  0  0  0  0  0  0  0  0  0  0  # atno 6908 bound_to 6896
  151.0596  134.9742  159.8310 H   0  0  0  0  0  0  0  0  0  0  0  0  # atno 6909 bound_to 6896
  144.9113  140.6899  143.5023 H   0  0  0  0  0  0  0  0  0  0  0  0  # atno 7974 bound_to 7965
  155.9053  140.1048  157.1320 H   0  0  0  0  0  0  0  0  0  0  0  0  # atno 8008 bound_to 7997
  154.4032  140.1285  156.4552 H   0  0  0  0  0  0  0  0  0  0  0  0  # atno 8009 bound_to 7997
  155.7375  140.3467  155.5090 H   0  0  0  0  0  0  0  0  0  0  0  0  # atno 8010 bound_to 7997
  140.1818  143.3961  152.1275 H   0  0  0  0  0  0  0  0  0  0  0  0  # atno 10167 bound_to 10162
  157.5589  131.1090  150.8573 H   0  0  0  0  0  0  0  0  0  0  0  0  # atno 10718 bound_to 10713
  154.4327  135.2760  155.1901 H   0  0  0  0  0  0  0  0  0  0  0  0  # atno 10763 bound_to 10752
  154.3800  135.6089  153.5789 H   0  0  0  0  0  0  0  0  0  0  0  0  # atno 10764 bound_to 10752
  152.9837  135.5878  154.4642 H   0  0  0  0  0  0  0  0  0  0  0  0  # atno 10765 bound_to 10752
  139.8784  134.8929  156.4097 H   0  0  0  0  0  0  0  0  0  0  0  0  # atno 11005 bound_to 11000
  145.3449  139.1722  143.4466 LP  0  0  0  0  0  0  0  0  0  0  0  0  # atno 17320 bound_to 7965
  146.3160  140.3495  142.8655 LP  0  0  0  0  0  0  0  0  0  0  0  0  # atno 17321 bound_to 7965
  139.5293  144.7140  151.5114 LP  0  0  0  0  0  0  0  0  0  0  0  0  # atno 17342 bound_to 10162
  140.6515  143.8688  150.6790 LP  0  0  0  0  0  0  0  0  0  0  0  0  # atno 17343 bound_to 10162
  156.9077  130.5269  149.5281 LP  0  0  0  0  0  0  0  0  0  0  0  0  # atno 17370 bound_to 10713
  156.0644  130.5690  150.9258 LP  0  0  0  0  0  0  0  0  0  0  0  0  # atno 17371 bound_to 10713
  140.9209  133.7646  155.9905 LP  0  0  0  0  0  0  0  0  0  0  0  0  # atno 17394 bound_to 11000
  140.8441  134.3032  157.5302 LP  0  0  0  0  0  0  0  0  0  0  0  0  # atno 17395 bound_to 11000

$$$$
