AV-unprocessed.smi:473|AV-procd|sdf|2661|dock8
  -GOLD-   2262023 73D 1   1.00000     0.00000
 Structure written by MMmdl.
 42 44  0  0  0  0  0  0  0  0  1 V2000
  152.7730  143.3196  161.2639 C   0  0  0  0  0  0  0  0  0  0  0  0
  152.2117  142.8346  159.9389 C   0  0  0  0  0  0  0  0  0  0  0  0
  152.7029  141.6313  159.3838 C   0  0  0  0  0  0  0  0  0  0  0  0
  152.2053  141.1443  158.1553 C   0  0  0  0  0  0  0  0  0  0  0  0
  152.5355  140.0065  157.4388 N   0  0  0  0  0  0  0  0  0  0  0  0
  151.7293  140.1100  156.3860 C   0  0  0  0  0  0  0  0  0  0  0  0
  150.9151  141.1819  156.3356 N   0  0  0  0  0  0  0  0  0  0  0  0
  149.9563  141.5107  155.2960 C   0  0  0  0  0  0  0  0  0  0  0  0
  149.3054  140.2585  154.6769 C   0  0  2  0  0  0  0  0  0  0  0  0
  150.2430  139.6272  153.8264 O   0  0  0  0  0  0  0  0  0  0  0  0
  148.0541  140.6091  153.8569 C   0  0  0  0  0  0  0  0  0  0  0  0
  147.2213  141.4659  154.6270 O   0  0  0  0  0  0  0  0  0  0  0  0
  146.7097  142.5799  153.9060 C   0  0  0  0  0  0  0  0  0  0  0  0
  145.5760  143.1819  154.6785 C   0  0  0  0  0  0  0  0  0  0  0  0
  144.6922  144.1892  154.4064 C   0  0  0  0  0  0  0  0  0  0  0  0
  143.8326  144.2870  155.5352 C   0  0  0  0  0  0  0  0  0  0  0  0
  144.2497  143.3254  156.4106 C   0  0  0  0  0  0  0  0  0  0  0  0
  145.3089  142.6393  155.9020 O   0  0  0  0  0  0  0  0  0  0  0  0
  151.1960  141.9013  157.4915 C   0  0  0  0  0  0  0  0  0  0  0  0
  150.7001  143.1003  158.0327 C   0  0  0  0  0  0  0  0  0  0  0  0
  151.2072  143.5718  159.2617 C   0  0  0  0  0  0  0  0  0  0  0  0
  150.6623  144.8657  159.8403 C   0  0  0  0  0  0  0  0  0  0  0  0
  153.5329  142.6383  161.6476 H   0  0  0  0  0  0  0  0  0  0  0  0
  151.9815  143.3923  162.0101 H   0  0  0  0  0  0  0  0  0  0  0  0
  153.2321  144.3015  161.1479 H   0  0  0  0  0  0  0  0  0  0  0  0
  153.4675  141.0691  159.8994 H   0  0  0  0  0  0  0  0  0  0  0  0
  151.7286  139.3621  155.6065 H   0  0  0  0  0  0  0  0  0  0  0  0
  149.1928  142.1539  155.7353 H   0  0  0  0  0  0  0  0  0  0  0  0
  150.4582  142.1016  154.5282 H   0  0  0  0  0  0  0  0  0  0  0  0
  149.0335  139.5684  155.4769 H   0  0  0  0  0  0  0  0  0  0  0  0
  149.8667  139.5585  152.9626 H   0  0  0  0  0  0  0  0  0  0  0  0
  148.3550  141.1307  152.9473 H   0  0  0  0  0  0  0  0  0  0  0  0
  147.5187  139.7100  153.5470 H   0  0  0  0  0  0  0  0  0  0  0  0
  147.4889  143.3163  153.7035 H   0  0  0  0  0  0  0  0  0  0  0  0
  146.3425  142.2278  152.9421 H   0  0  0  0  0  0  0  0  0  0  0  0
  144.6692  144.7841  153.5053 H   0  0  0  0  0  0  0  0  0  0  0  0
  143.0111  144.9717  155.6862 H   0  0  0  0  0  0  0  0  0  0  0  0
  143.9208  143.0066  157.3888 H   0  0  0  0  0  0  0  0  0  0  0  0
  149.9338  143.6502  157.5063 H   0  0  0  0  0  0  0  0  0  0  0  0
  149.9152  145.3118  159.1832 H   0  0  0  0  0  0  0  0  0  0  0  0
  151.4640  145.5918  159.9762 H   0  0  0  0  0  0  0  0  0  0  0  0
  150.1919  144.6830  160.8066 H   0  0  0  0  0  0  0  0  0  0  0  0
  1  2  1  0  0  0  0
  1 23  1  0  0  0  0
  1 24  1  0  0  0  0
  1 25  1  0  0  0  0
  2 21  1  0  0  0  0
  2  3  2  0  0  0  0
  3  4  1  0  0  0  0
  3 26  1  0  0  0  0
  4 19  2  0  0  0  0
  4  5  1  0  0  0  0
  5  6  2  0  0  0  0
  6  7  1  0  0  0  0
  6 27  1  0  0  0  0
  7  8  1  0  0  0  0
  7 19  1  0  0  0  0
  8  9  1  0  0  0  0
  8 28  1  0  0  0  0
  8 29  1  0  0  0  0
  9 10  1  0  0  0  0
  9 11  1  0  0  0  0
  9 30  1  0  0  0  0
 10 31  1  0  0  0  0
 11 12  1  0  0  0  0
 11 32  1  0  0  0  0
 11 33  1  0  0  0  0
 12 13  1  0  0  0  0
 13 14  1  0  0  0  0
 13 34  1  0  0  0  0
 13 35  1  0  0  0  0
 14 18  1  0  0  0  0
 14 15  2  0  0  0  0
 15 16  1  0  0  0  0
 15 36  1  0  0  0  0
 16 17  2  0  0  0  0
 16 37  1  0  0  0  0
 17 18  1  0  0  0  0
 17 38  1  0  0  0  0
 19 20  1  0  0  0  0
 20 21  2  0  0  0  0
 20 39  1  0  0  0  0
 21 22  1  0  0  0  0
 22 40  1  0  0  0  0
 22 41  1  0  0  0  0
 22 42  1  0  0  0  0
M  END
> <s_m_source_file>
AV-unprocessed.smi

> <i_m_source_file_index>
473

> <i_lp_mmshare_version>
43012

> <i_f3d_flags>
0

> <s_epik_input>
W0NIM11jKFtjSF0xKWMoW0NIM10pW2NIXWMoYzEyKW4oW2NIXW4yKVtDSDJdW0NASF0oW09IXSlbQ0gyXU9bQ0gyXWMzW2NIXVtjSF1bY0hdbzM=

> <s_epik_cmdline>
J2VwaWtfcHl0aG9uJywgJy1waCcsICc3LjAnLCAnLXRuJywgJzgnLCAnLW1hJywgJzIwMCcsICctbWV0YWxfYmluZGluZycsICctaW1hZScsICc8aW5maWxlLm1hZT4nLCAnLW9tYWUnLCAnPG91dGZpbGUubWFlPic=

> <r_epik_Ionization_Penalty>
0.112477

> <r_epik_Ionization_Penalty_Charging>
0

> <r_epik_Ionization_Penalty_Neutral>
0.112477

> <r_epik_State_Penalty>
0.102177

> <r_epik_Charging_Adjusted_Penalty>
0.102177

> <i_epik_Tot_Q>
0

> <i_epik_Tot_abs_Q>
0

> <r_epik_Metal_State_Penalty>
0.000111506

> <b_epik_Metal_Only>
0

> <s_lp_Force_Field>
OPLS_2005

> <r_lp_Energy>
9.85232

> <b_lp_Chiralities_Consistent>
1

> <s_lp_Variant>
AV-unprocessed.smi:473-1

> <Gold.Version>
5.8.1

> <Gold.Id.Protein>
6NUR|6NUR_protein|mol2

> <Gold.PLP.Fitness>
55.4780

> <Gold.PLP.PLP>
-48.3844

> <Gold.PLP.part.hbond>
-3.0000

> <Gold.PLP.part.metal>
0.0000

> <Gold.PLP.part.buried>
-6.1924

> <Gold.PLP.part.nonpolar>
-38.8449

> <Gold.PLP.part.repulsive>
0.2654

> <Gold.PLP.ligand.clash>
0.0358

> <Gold.PLP.ligand.torsion>
0.9261

> <Gold.PLP.Chemscore.Hbond>
2.9600

> <Gold.PLP.Chemscore.CHOScore>
0.0000

> <Gold.PLP.Chemscore.Metal>
0.0000

> <Gold.Chemscore.Hbonds>
donor molecule, donor type, donor heavy atom, donor atom, acceptor molecule, acceptor atom, score
      L1  H    10    31       P1  7957  1.00
      P1  H  7989  7998       L1    10  0.93
      P1  H  7997  8010       L1     5  0.99

> <Gold.PLP.Chemscore.Internal.Correction>
0.1016

> <Gold.Rescore>
     Score         DG    S(hbond)    S(metal)    S(lipo)     H(rot)  DE(clash)    DE(int)     intcor
     18.76     -20.88       2.28        0.00     119.18       2.41       0.09       2.03       ----

> <Gold.Chemscore.Fitness>
18.7624

> <Gold.Chemscore.DG>
-20.8807

> <Gold.Chemscore.ZeroCoef>
-5.4800

> <Gold.Chemscore.Hbond>
2.2821

> <Gold.Chemscore.Metal>
0.0000

> <Gold.Chemscore.Lipo>
119.1780

> <Gold.Chemscore.Internal_Hbond>
0.0000

> <Gold.Chemscore.DEClash>
0.0886

> <Gold.Chemscore.DEInternal>
2.0297

> <Gold.Chemscore.Rot>
2.4083

> <Gold.Chemscore.Internal.Correction>
   9.000000E+99

> <Gold.Chemscore.Hbonds>
donor molecule, donor type, donor heavy atom, donor atom, acceptor molecule, acceptor atom, score
      L1  H    10    31       P1  7957  0.98
      P1  H  7989  7998       L1    10  0.13
      P1  H  7997  8010       L1     5  0.23

> <Gold.Chemscore.Hbond.Weighted>
-7.6222

> <Gold.Chemscore.Metal.Weighted>
-0.0000

> <Gold.Chemscore.Lipo.Weighted>
-13.9438

> <Gold.Chemscore.Internal_Hbond.Weighted>
0.0000

> <Gold.Chemscore.DEClash.Weighted>
0.0886

> <Gold.Chemscore.DEInternal.Weighted>
2.0297

> <Gold.Chemscore.Rot.Weighted>
6.1653

> <Gold.Chemscore.Internal.Correction.Weighted>
   9.000000E+99

> <Gold.Protein.RotatedTorsions>
[ 6907 6896 6895 6894 ] final -121.26 input  -60.11 | X-H torsion
[ 7974 7965 7964 7962 ] final  130.78 input  175.53 | X-H torsion
[ 8008 7997 7996 7995 ] final   67.65 input   59.86 | X-H torsion
[ 10167 10162 10161 10158 ] final  130.19 input  -65.29 | X-H torsion
[ 10718 10713 10712 10709 ] final  146.62 input   66.30 | X-H torsion
[ 10763 10752 10751 10750 ] final  100.48 input  -60.55 | X-H torsion
[ 11005 11000 10999 10996 ] final  -79.97 input  -57.11 | X-H torsion

> <Gold.Protein.ActiveResidues>
 VAL166  LYS551  ARG553  GLY616  TRP617  ASP618  TYR619  PRO620  LYS621  CYS622 
 ASP623  PHE694  ASN695  SER759  ASP760  ASP761  ALA762  ILE779  LEU786  VAL792 
 PHE793  MET794  SER795  GLU796  ALA797  LYS798  CYS799  TRP800  GLU811  SER814 

> <Gold.Protein.RotatedAtoms>
  150.8468  133.7850  159.3040 H   0  0  0  0  0  0  0  0  0  0  0  0  # atno 6907 bound_to 6896
  151.5534  135.1065  159.9965 H   0  0  0  0  0  0  0  0  0  0  0  0  # atno 6908 bound_to 6896
  152.4520  133.7604  159.6800 H   0  0  0  0  0  0  0  0  0  0  0  0  # atno 6909 bound_to 6896
  145.0142  139.4191  143.5229 H   0  0  0  0  0  0  0  0  0  0  0  0  # atno 7974 bound_to 7965
  155.6962  140.3495  155.4914 H   0  0  0  0  0  0  0  0  0  0  0  0  # atno 8008 bound_to 7997
  155.9481  140.1114  157.1022 H   0  0  0  0  0  0  0  0  0  0  0  0  # atno 8009 bound_to 7997
  154.4116  140.1199  156.5002 H   0  0  0  0  0  0  0  0  0  0  0  0  # atno 8010 bound_to 7997
  139.5442  144.6758  151.4528 H   0  0  0  0  0  0  0  0  0  0  0  0  # atno 10167 bound_to 10162
  157.3310  131.0920  151.1162 H   0  0  0  0  0  0  0  0  0  0  0  0  # atno 10718 bound_to 10713
  153.3145  135.4077  155.1364 H   0  0  0  0  0  0  0  0  0  0  0  0  # atno 10763 bound_to 10752
  154.8584  135.3572  154.5679 H   0  0  0  0  0  0  0  0  0  0  0  0  # atno 10764 bound_to 10752
  153.6110  135.7068  153.5406 H   0  0  0  0  0  0  0  0  0  0  0  0  # atno 10765 bound_to 10752
  141.1668  133.7129  156.8202 H   0  0  0  0  0  0  0  0  0  0  0  0  # atno 11005 bound_to 11000
  146.3475  139.9604  142.8718 LP  0  0  0  0  0  0  0  0  0  0  0  0  # atno 17320 bound_to 7965
  145.1982  140.9842  143.4171 LP  0  0  0  0  0  0  0  0  0  0  0  0  # atno 17321 bound_to 7965
  140.6683  143.8349  150.6969 LP  0  0  0  0  0  0  0  0  0  0  0  0  # atno 17342 bound_to 10162
  140.1765  143.4150  152.1963 LP  0  0  0  0  0  0  0  0  0  0  0  0  # atno 17343 bound_to 10162
  157.2410  130.6569  149.5890 LP  0  0  0  0  0  0  0  0  0  0  0  0  # atno 17370 bound_to 10713
  155.9696  130.4568  150.5939 LP  0  0  0  0  0  0  0  0  0  0  0  0  # atno 17371 bound_to 10713
  140.2125  134.8817  157.3290 LP  0  0  0  0  0  0  0  0  0  0  0  0  # atno 17394 bound_to 11000
  140.2072  134.4183  155.7631 LP  0  0  0  0  0  0  0  0  0  0  0  0  # atno 17395 bound_to 11000

$$$$
