AV-unprocessed.smi:2960|AV-procd|sdf|11311|dock3
  -GOLD-   2272016213D 1   1.00000     0.00000
 Structure written by MMmdl.
 48 50  0  0  0  0  0  0  0  0  1 V2000
  145.4112  144.4690  159.5808 C   0  0  0  0  0  0  0  0  0  0  0  0
  146.4764  143.4014  159.3593 C   0  0  0  0  0  0  0  0  0  0  0  0
  147.1908  143.0370  160.2927 O   0  0  0  0  0  0  0  0  0  0  0  0
  146.5799  142.9168  158.1133 N   0  0  0  0  0  0  0  0  0  0  0  0
  147.5349  141.8985  157.6879 C   0  0  0  0  0  0  0  0  0  0  0  0
  148.2755  142.2760  156.3903 C   0  0  0  0  0  0  0  0  0  0  0  0
  149.2319  141.2213  155.9091 C   0  0  0  0  0  0  0  0  0  0  0  0
  148.7921  140.0900  155.3562 N   0  0  0  0  0  0  0  0  0  0  0  0
  149.9615  139.4141  155.0696 C   0  0  0  0  0  0  0  0  0  0  0  0
  150.1684  138.1497  154.4730 C   0  0  0  0  0  0  0  0  0  0  0  0
  151.4755  137.6553  154.2834 C   0  0  0  0  0  0  0  0  0  0  0  0
  152.5917  138.4160  154.6877 C   0  0  0  0  0  0  0  0  0  0  0  0
  152.4074  139.6788  155.2824 C   0  0  0  0  0  0  0  0  0  0  0  0
  151.1003  140.1692  155.4670 C   0  0  0  0  0  0  0  0  0  0  0  0
  150.5813  141.3420  156.0081 N   0  0  0  0  0  0  0  0  0  0  0  0
  151.3594  142.4386  156.5673 C   0  0  0  0  0  0  0  0  0  0  0  0
  152.0481  142.0474  157.8821 C   0  0  0  0  0  0  0  0  0  0  0  0
  151.7746  143.0336  158.8689 O   0  0  0  0  0  0  0  0  0  0  0  0
  152.4594  142.9711  160.0628 C   0  0  0  0  0  0  0  0  0  0  0  0
  152.2311  144.0123  160.9855 C   0  0  0  0  0  0  0  0  0  0  0  0
  152.8868  144.0284  162.2314 C   0  0  0  0  0  0  0  0  0  0  0  0
  153.7836  142.9968  162.5716 C   0  0  0  0  0  0  0  0  0  0  0  0
  154.4841  143.0162  163.9146 C   0  0  0  0  0  0  0  0  0  0  0  0
  154.0181  141.9499  161.6577 C   0  0  0  0  0  0  0  0  0  0  0  0
  153.3624  141.9351  160.4112 C   0  0  0  0  0  0  0  0  0  0  0  0
  144.4311  144.0996  159.2778 H   0  0  0  0  0  0  0  0  0  0  0  0
  145.6420  145.3603  158.9967 H   0  0  0  0  0  0  0  0  0  0  0  0
  145.3593  144.7528  160.6325 H   0  0  0  0  0  0  0  0  0  0  0  0
  145.9536  143.2784  157.4083 H   0  0  0  0  0  0  0  0  0  0  0  0
  148.2508  141.6927  158.4851 H   0  0  0  0  0  0  0  0  0  0  0  0
  146.9792  140.9734  157.5317 H   0  0  0  0  0  0  0  0  0  0  0  0
  147.5544  142.5198  155.6118 H   0  0  0  0  0  0  0  0  0  0  0  0
  148.8408  143.1936  156.5570 H   0  0  0  0  0  0  0  0  0  0  0  0
  149.3199  137.5584  154.1621 H   0  0  0  0  0  0  0  0  0  0  0  0
  151.6221  136.6872  153.8273 H   0  0  0  0  0  0  0  0  0  0  0  0
  153.5896  138.0293  154.5415 H   0  0  0  0  0  0  0  0  0  0  0  0
  153.2604  140.2620  155.5959 H   0  0  0  0  0  0  0  0  0  0  0  0
  152.1078  142.7416  155.8348 H   0  0  0  0  0  0  0  0  0  0  0  0
  150.7178  143.3052  156.7149 H   0  0  0  0  0  0  0  0  0  0  0  0
  151.6791  141.0738  158.2076 H   0  0  0  0  0  0  0  0  0  0  0  0
  153.1241  141.9642  157.7238 H   0  0  0  0  0  0  0  0  0  0  0  0
  151.5458  144.8089  160.7344 H   0  0  0  0  0  0  0  0  0  0  0  0
  152.6990  144.8346  162.9254 H   0  0  0  0  0  0  0  0  0  0  0  0
  155.2635  142.2554  163.9672 H   0  0  0  0  0  0  0  0  0  0  0  0
  153.7680  142.8279  164.7150 H   0  0  0  0  0  0  0  0  0  0  0  0
  154.9467  143.9880  164.0884 H   0  0  0  0  0  0  0  0  0  0  0  0
  154.7018  141.1519  161.9081 H   0  0  0  0  0  0  0  0  0  0  0  0
  153.5680  141.1151  159.7402 H   0  0  0  0  0  0  0  0  0  0  0  0
  1  2  1  0  0  0  0
  1 26  1  0  0  0  0
  1 27  1  0  0  0  0
  1 28  1  0  0  0  0
  2  3  2  0  0  0  0
  2  4  1  0  0  0  0
  4  5  1  0  0  0  0
  4 29  1  0  0  0  0
  5  6  1  0  0  0  0
  5 30  1  0  0  0  0
  5 31  1  0  0  0  0
  6  7  1  0  0  0  0
  6 32  1  0  0  0  0
  6 33  1  0  0  0  0
  7 15  1  0  0  0  0
  7  8  2  0  0  0  0
  8  9  1  0  0  0  0
  9 14  2  0  0  0  0
  9 10  1  0  0  0  0
 10 11  2  0  0  0  0
 10 34  1  0  0  0  0
 11 12  1  0  0  0  0
 11 35  1  0  0  0  0
 12 13  2  0  0  0  0
 12 36  1  0  0  0  0
 13 14  1  0  0  0  0
 13 37  1  0  0  0  0
 14 15  1  0  0  0  0
 15 16  1  0  0  0  0
 16 17  1  0  0  0  0
 16 38  1  0  0  0  0
 16 39  1  0  0  0  0
 17 18  1  0  0  0  0
 17 40  1  0  0  0  0
 17 41  1  0  0  0  0
 18 19  1  0  0  0  0
 19 25  1  0  0  0  0
 19 20  2  0  0  0  0
 20 21  1  0  0  0  0
 20 42  1  0  0  0  0
 21 22  2  0  0  0  0
 21 43  1  0  0  0  0
 22 23  1  0  0  0  0
 22 24  1  0  0  0  0
 23 44  1  0  0  0  0
 23 45  1  0  0  0  0
 23 46  1  0  0  0  0
 24 25  2  0  0  0  0
 24 47  1  0  0  0  0
 25 48  1  0  0  0  0
M  END
> <s_m_source_file>
AV-unprocessed.smi

> <i_m_source_file_index>
2960

> <i_lp_mmshare_version>
43012

> <i_f3d_flags>
0

> <s_epik_input>
W0NIM11DKD1PKVtOSF1bQ0gyXVtDSDJdYyhuMSluKGMoYzEyKVtjSF1bY0hdW2NIXVtjSF0yKVtDSDJdW0NIMl1PYzNbY0hdW2NIXWMoW0NIM10pW2NIXVtjSF0z

> <s_epik_cmdline>
J2VwaWtfcHl0aG9uJywgJy1waCcsICc3LjAnLCAnLXRuJywgJzgnLCAnLW1hJywgJzIwMCcsICctbWV0YWxfYmluZGluZycsICctaW1hZScsICc8aW5maWxlLm1hZT4nLCAnLW9tYWUnLCAnPG91dGZpbGUubWFlPic=

> <r_lp_tautomer_probability>
1

> <r_epik_Ionization_Penalty>
0.0990099

> <r_epik_Ionization_Penalty_Charging>
0

> <r_epik_Ionization_Penalty_Neutral>
0.0990099

> <r_epik_State_Penalty>
0.0890759

> <r_epik_Charging_Adjusted_Penalty>
0.0890759

> <i_epik_Tot_Q>
0

> <i_epik_Tot_abs_Q>
0

> <r_epik_Metal_State_Penalty>
0.0762215

> <b_epik_Metal_Only>
0

> <s_lp_Force_Field>
OPLS_2005

> <r_lp_Energy>
13.2598

> <b_lp_Chiralities_Consistent>
1

> <s_lp_Variant>
AV-unprocessed.smi:2960-1

> <Gold.Version>
5.8.1

> <Gold.Id.Protein>
6NUR|6NUR_protein|mol2

> <Gold.PLP.Fitness>
55.8842

> <Gold.PLP.PLP>
-51.7278

> <Gold.PLP.part.hbond>
-2.0000

> <Gold.PLP.part.metal>
0.0000

> <Gold.PLP.part.buried>
-0.2940

> <Gold.PLP.part.nonpolar>
-49.3765

> <Gold.PLP.part.repulsive>
0.1538

> <Gold.PLP.ligand.clash>
0.0000

> <Gold.PLP.ligand.torsion>
0.7000

> <Gold.PLP.Chemscore.Hbond>
1.7843

> <Gold.PLP.Chemscore.CHOScore>
0.0000

> <Gold.PLP.Chemscore.Metal>
0.0000

> <Gold.Chemscore.Hbonds>
donor molecule, donor type, donor heavy atom, donor atom, acceptor molecule, acceptor atom, score
      P1  H  6933  6944       L1     3  1.00
      P1  H  6934  6946       L1     3  0.39

> <Gold.PLP.Chemscore.Internal.Correction>
0.2035

> <Gold.Rescore>
     Score         DG    S(hbond)    S(metal)    S(lipo)     H(rot)  DE(clash)    DE(int)     intcor
     20.28     -23.06       1.74        0.00     146.79       2.11       1.94       0.85       ----

> <Gold.Chemscore.Fitness>
20.2782

> <Gold.Chemscore.DG>
-23.0633

> <Gold.Chemscore.ZeroCoef>
-5.4800

> <Gold.Chemscore.Hbond>
1.7381

> <Gold.Chemscore.Metal>
0.0000

> <Gold.Chemscore.Lipo>
146.7872

> <Gold.Chemscore.Internal_Hbond>
0.0000

> <Gold.Chemscore.DEClash>
1.9385

> <Gold.Chemscore.DEInternal>
0.8465

> <Gold.Chemscore.Rot>
2.1078

> <Gold.Chemscore.Internal.Correction>
   9.000000E+99

> <Gold.Chemscore.Hbonds>
donor molecule, donor type, donor heavy atom, donor atom, acceptor molecule, acceptor atom, score
      P1  H  6933  6944       L1     3  0.95
      P1  H  6934  6946       L1     3  0.32

> <Gold.Chemscore.Hbond.Weighted>
-5.8052

> <Gold.Chemscore.Metal.Weighted>
-0.0000

> <Gold.Chemscore.Lipo.Weighted>
-17.1741

> <Gold.Chemscore.Internal_Hbond.Weighted>
0.0000

> <Gold.Chemscore.DEClash.Weighted>
1.9385

> <Gold.Chemscore.DEInternal.Weighted>
0.8465

> <Gold.Chemscore.Rot.Weighted>
5.3961

> <Gold.Chemscore.Internal.Correction.Weighted>
   9.000000E+99

> <Gold.Protein.RotatedTorsions>
[ 6907 6896 6895 6894 ] final -117.63 input  -60.11 | X-H torsion
[ 7974 7965 7964 7962 ] final -132.47 input  175.53 | X-H torsion
[ 8008 7997 7996 7995 ] final -175.37 input   59.86 | X-H torsion
[ 10167 10162 10161 10158 ] final  116.09 input  -65.29 | X-H torsion
[ 10718 10713 10712 10709 ] final  169.23 input   66.30 | X-H torsion
[ 10763 10752 10751 10750 ] final -107.51 input  -60.55 | X-H torsion
[ 11005 11000 10999 10996 ] final   25.94 input  -57.11 | X-H torsion

> <Gold.Protein.ActiveResidues>
 VAL166  LYS551  ARG553  GLY616  TRP617  ASP618  TYR619  PRO620  LYS621  CYS622 
 ASP623  PHE694  ASN695  SER759  ASP760  ASP761  ALA762  ILE779  LEU786  VAL792 
 PHE793  MET794  SER795  GLU796  ALA797  LYS798  CYS799  TRP800  GLU811  SER814 

> <Gold.Protein.RotatedAtoms>
  150.8152  133.8349  159.3163 H   0  0  0  0  0  0  0  0  0  0  0  0  # atno 6907 bound_to 6896
  151.6123  135.1037  160.0093 H   0  0  0  0  0  0  0  0  0  0  0  0  # atno 6908 bound_to 6896
  152.4244  133.7129  159.6546 H   0  0  0  0  0  0  0  0  0  0  0  0  # atno 6909 bound_to 6896
  144.9283  140.7097  143.4922 H   0  0  0  0  0  0  0  0  0  0  0  0  # atno 7974 bound_to 7965
  155.9818  140.1183  157.0720 H   0  0  0  0  0  0  0  0  0  0  0  0  # atno 8008 bound_to 7997
  154.4185  140.1143  156.5513 H   0  0  0  0  0  0  0  0  0  0  0  0  # atno 8009 bound_to 7997
  155.6461  140.3473  155.4734 H   0  0  0  0  0  0  0  0  0  0  0  0  # atno 8010 bound_to 7997
  139.6271  144.7110  151.2510 H   0  0  0  0  0  0  0  0  0  0  0  0  # atno 10167 bound_to 10162
  157.0256  131.0244  151.2761 H   0  0  0  0  0  0  0  0  0  0  0  0  # atno 10718 bound_to 10713
  154.8080  135.4672  154.0441 H   0  0  0  0  0  0  0  0  0  0  0  0  # atno 10763 bound_to 10752
  153.1895  135.6853  153.8378 H   0  0  0  0  0  0  0  0  0  0  0  0  # atno 10764 bound_to 10752
  153.7901  135.3244  155.3354 H   0  0  0  0  0  0  0  0  0  0  0  0  # atno 10765 bound_to 10752
  140.3424  134.2318  155.7688 H   0  0  0  0  0  0  0  0  0  0  0  0  # atno 11005 bound_to 11000
  145.3184  139.1796  143.4601 LP  0  0  0  0  0  0  0  0  0  0  0  0  # atno 17320 bound_to 7965
  146.3236  140.3198  142.8632 LP  0  0  0  0  0  0  0  0  0  0  0  0  # atno 17321 bound_to 7965
  140.7417  143.6547  150.8217 LP  0  0  0  0  0  0  0  0  0  0  0  0  # atno 17342 bound_to 10162
  140.0167  143.5585  152.2817 LP  0  0  0  0  0  0  0  0  0  0  0  0  # atno 17343 bound_to 10162
  157.5217  130.8002  149.7816 LP  0  0  0  0  0  0  0  0  0  0  0  0  # atno 17370 bound_to 10713
  156.0087  130.3843  150.2340 LP  0  0  0  0  0  0  0  0  0  0  0  0  # atno 17371 bound_to 10713
  141.2035  133.7911  157.0338 LP  0  0  0  0  0  0  0  0  0  0  0  0  # atno 17394 bound_to 11000
  140.0770  134.9670  157.1561 LP  0  0  0  0  0  0  0  0  0  0  0  0  # atno 17395 bound_to 11000

$$$$
