AV-unprocessed.smi:787|AV-procd|sdf|3730|dock1
  -GOLD-   22720 1163D 1   1.00000     0.00000
 Structure written by MMmdl.
 46 48  0  0  0  0  0  0  0  0  1 V2000
  153.1126  138.1666  155.0891 C   0  0  0  0  0  0  0  0  0  0  0  0
  151.6746  138.0507  155.2713 N   0  0  0  0  0  0  0  0  0  0  0  0
  151.1088  136.8654  155.7616 C   0  0  0  0  0  0  0  0  0  0  0  0
  151.1853  135.7294  155.0303 N   0  0  0  0  0  0  0  0  0  0  0  0
  150.6343  134.6191  155.5377 C   0  0  0  0  0  0  0  0  0  0  0  0
  149.9939  134.4502  156.7048 N   0  0  0  0  0  0  0  0  0  0  0  0
  149.9130  135.5696  157.4370 C   0  0  0  0  0  0  0  0  0  0  0  0
  149.3115  135.6853  158.6784 N   0  0  0  0  0  0  0  0  0  0  0  0
  149.5074  136.9720  158.9545 C   0  0  0  0  0  0  0  0  0  0  0  0
  150.1643  137.7121  158.0401 N   0  0  0  0  0  0  0  0  0  0  0  0
  150.4799  139.1265  158.1485 C   0  0  0  0  0  0  0  0  0  0  0  0
  151.9649  139.3801  158.4823 C   0  0  1  0  0  0  0  0  0  0  0  0
  152.5900  140.0620  157.4128 O   0  0  0  0  0  0  0  0  0  0  0  0
  152.1516  140.2323  159.7546 C   0  0  0  0  0  0  0  0  0  0  0  0
  153.5187  140.3092  160.2738 N   0  0  0  0  0  0  0  0  0  0  0  0
  153.8712  139.0577  160.9381 C   0  0  0  0  0  0  0  0  0  0  0  0
  153.7127  141.4532  161.1694 C   0  0  0  0  0  0  0  0  0  0  0  0
  153.1403  142.7535  160.6314 C   0  0  0  0  0  0  0  0  0  0  0  0
  153.3273  143.1009  159.2764 C   0  0  0  0  0  0  0  0  0  0  0  0
  152.7968  144.3056  158.7750 C   0  0  0  0  0  0  0  0  0  0  0  0
  152.0755  145.1654  159.6253 C   0  0  0  0  0  0  0  0  0  0  0  0
  151.8846  144.8206  160.9777 C   0  0  0  0  0  0  0  0  0  0  0  0
  152.4157  143.6165  161.4802 C   0  0  0  0  0  0  0  0  0  0  0  0
  150.4559  136.8192  157.0101 C   0  0  0  0  0  0  0  0  0  0  0  0
  153.3622  139.1636  154.7267 H   0  0  0  0  0  0  0  0  0  0  0  0
  153.4695  137.4386  154.3597 H   0  0  0  0  0  0  0  0  0  0  0  0
  153.6363  138.0051  156.0318 H   0  0  0  0  0  0  0  0  0  0  0  0
  151.0842  138.8389  155.0492 H   0  0  0  0  0  0  0  0  0  0  0  0
  150.7164  133.7366  154.9208 H   0  0  0  0  0  0  0  0  0  0  0  0
  149.1527  137.4041  159.8790 H   0  0  0  0  0  0  0  0  0  0  0  0
  150.1968  139.6305  157.2253 H   0  0  0  0  0  0  0  0  0  0  0  0
  149.8449  139.5504  158.9278 H   0  0  0  0  0  0  0  0  0  0  0  0
  152.4827  138.4269  158.5826 H   0  0  0  0  0  0  0  0  0  0  0  0
  152.4257  140.9878  157.5067 H   0  0  0  0  0  0  0  0  0  0  0  0
  151.7777  141.2412  159.5723 H   0  0  0  0  0  0  0  0  0  0  0  0
  151.5058  139.8127  160.5278 H   0  0  0  0  0  0  0  0  0  0  0  0
  154.9115  139.0611  161.2639 H   0  0  0  0  0  0  0  0  0  0  0  0
  153.7496  138.2115  160.2610 H   0  0  0  0  0  0  0  0  0  0  0  0
  153.2417  138.8851  161.8122 H   0  0  0  0  0  0  0  0  0  0  0  0
  153.2157  141.2800  162.1224 H   0  0  0  0  0  0  0  0  0  0  0  0
  154.7729  141.5789  161.3946 H   0  0  0  0  0  0  0  0  0  0  0  0
  153.8796  142.4442  158.6202 H   0  0  0  0  0  0  0  0  0  0  0  0
  152.9431  144.5699  157.7379 H   0  0  0  0  0  0  0  0  0  0  0  0
  151.6683  146.0888  159.2403 H   0  0  0  0  0  0  0  0  0  0  0  0
  151.3308  145.4798  161.6297 H   0  0  0  0  0  0  0  0  0  0  0  0
  152.2664  143.3596  162.5187 H   0  0  0  0  0  0  0  0  0  0  0  0
  1  2  1  0  0  0  0
  1 25  1  0  0  0  0
  1 26  1  0  0  0  0
  1 27  1  0  0  0  0
  2  3  1  0  0  0  0
  2 28  1  0  0  0  0
  3 24  1  0  0  0  0
  3  4  2  0  0  0  0
  4  5  1  0  0  0  0
  5  6  2  0  0  0  0
  5 29  1  0  0  0  0
  6  7  1  0  0  0  0
  7 24  2  0  0  0  0
  7  8  1  0  0  0  0
  8  9  2  0  0  0  0
  9 10  1  0  0  0  0
  9 30  1  0  0  0  0
 10 11  1  0  0  0  0
 10 24  1  0  0  0  0
 11 12  1  0  0  0  0
 11 31  1  0  0  0  0
 11 32  1  0  0  0  0
 12 13  1  0  0  0  0
 12 14  1  0  0  0  0
 12 33  1  0  0  0  0
 13 34  1  0  0  0  0
 14 15  1  0  0  0  0
 14 35  1  0  0  0  0
 14 36  1  0  0  0  0
 15 16  1  0  0  0  0
 15 17  1  0  0  0  0
 16 37  1  0  0  0  0
 16 38  1  0  0  0  0
 16 39  1  0  0  0  0
 17 18  1  0  0  0  0
 17 40  1  0  0  0  0
 17 41  1  0  0  0  0
 18 23  1  0  0  0  0
 18 19  2  0  0  0  0
 19 20  1  0  0  0  0
 19 42  1  0  0  0  0
 20 21  2  0  0  0  0
 20 43  1  0  0  0  0
 21 22  1  0  0  0  0
 21 44  1  0  0  0  0
 22 23  2  0  0  0  0
 22 45  1  0  0  0  0
 23 46  1  0  0  0  0
M  END
> <s_m_source_file>
AV-unprocessed.smi

> <i_m_source_file_index>
787

> <i_lp_mmshare_version>
43012

> <i_f3d_flags>
0

> <s_epik_input>
bjFbY0hdbmMoW05IXVtDSDNdKWMoYzEyKW4oW2NIXW4yKVtDSDJdW0NASF0oW09IXSlbQ0gyXU4oW0NIM10pW0NIMl1jM1tjSF1bY0hdW2NIXVtjSF1bY0hdMw==

> <s_epik_cmdline>
J2VwaWtfcHl0aG9uJywgJy1waCcsICc3LjAnLCAnLXRuJywgJzgnLCAnLW1hJywgJzIwMCcsICctbWV0YWxfYmluZGluZycsICctaW1hZScsICc8aW5maWxlLm1hZT4nLCAnLW9tYWUnLCAnPG91dGZpbGUubWFlPic=

> <r_lp_tautomer_probability>
0.999987

> <r_epik_Ionization_Penalty>
1.52367

> <r_epik_Ionization_Penalty_Charging>
0

> <r_epik_Ionization_Penalty_Neutral>
1.52367

> <r_epik_State_Penalty>
1.60995

> <r_epik_Charging_Adjusted_Penalty>
1.60995

> <i_epik_Tot_Q>
0

> <i_epik_Tot_abs_Q>
0

> <r_epik_Metal_State_Penalty>
1.60969

> <b_epik_Metal_Only>
0

> <s_lp_Force_Field>
OPLS_2005

> <r_lp_Energy>
19.785

> <b_lp_Chiralities_Consistent>
1

> <s_lp_Variant>
AV-unprocessed.smi:787-6

> <Gold.Version>
5.8.1

> <Gold.Id.Protein>
6NUR|6NUR_protein|mol2

> <Gold.PLP.Fitness>
54.4322

> <Gold.PLP.PLP>
-48.8888

> <Gold.PLP.part.hbond>
-3.0000

> <Gold.PLP.part.metal>
0.0000

> <Gold.PLP.part.buried>
-6.2708

> <Gold.PLP.part.nonpolar>
-40.7983

> <Gold.PLP.part.repulsive>
0.2902

> <Gold.PLP.ligand.clash>
0.0000

> <Gold.PLP.ligand.torsion>
2.0451

> <Gold.PLP.Chemscore.Hbond>
2.9913

> <Gold.PLP.Chemscore.CHOScore>
0.0000

> <Gold.PLP.Chemscore.Metal>
0.0000

> <Gold.Chemscore.Hbonds>
donor molecule, donor type, donor heavy atom, donor atom, acceptor molecule, acceptor atom, score
      P1  H  6896  6909       L1     8  0.70
      P1  H  7997  8008       L1    13  1.00
      P1  H 10752 10764       L1     4  1.00

> <Gold.PLP.Chemscore.Internal.Correction>
0.6599

> <Gold.Rescore>
     Score         DG    S(hbond)    S(metal)    S(lipo)     H(rot)  DE(clash)    DE(int)     intcor
     14.33     -16.40       1.46        0.00     119.51       3.11       0.07       2.00       ----

> <Gold.Chemscore.Fitness>
14.3332

> <Gold.Chemscore.DG>
-16.4004

> <Gold.Chemscore.ZeroCoef>
-5.4800

> <Gold.Chemscore.Hbond>
1.4650

> <Gold.Chemscore.Metal>
0.0000

> <Gold.Chemscore.Lipo>
119.5094

> <Gold.Chemscore.Internal_Hbond>
0.0000

> <Gold.Chemscore.DEClash>
0.0715

> <Gold.Chemscore.DEInternal>
1.9957

> <Gold.Chemscore.Rot>
3.1075

> <Gold.Chemscore.Internal.Correction>
   9.000000E+99

> <Gold.Chemscore.Hbonds>
donor molecule, donor type, donor heavy atom, donor atom, acceptor molecule, acceptor atom, score
      P1  H  6896  6909       L1     8  0.05
      P1  H  7997  8008       L1    13  0.24
      P1  H 10752 10764       L1     4  0.51

> <Gold.Chemscore.Hbond.Weighted>
-4.8929

> <Gold.Chemscore.Metal.Weighted>
-0.0000

> <Gold.Chemscore.Lipo.Weighted>
-13.9826

> <Gold.Chemscore.Internal_Hbond.Weighted>
0.0000

> <Gold.Chemscore.DEClash.Weighted>
0.0715

> <Gold.Chemscore.DEInternal.Weighted>
1.9957

> <Gold.Chemscore.Rot.Weighted>
7.9551

> <Gold.Chemscore.Internal.Correction.Weighted>
   9.000000E+99

> <Gold.Protein.RotatedTorsions>
[ 6907 6896 6895 6894 ] final   55.32 input  -60.11 | X-H torsion
[ 7974 7965 7964 7962 ] final -132.01 input  175.53 | X-H torsion
[ 8008 7997 7996 7995 ] final  -56.03 input   59.86 | X-H torsion
[ 10167 10162 10161 10158 ] final -124.20 input  -65.29 | X-H torsion
[ 10718 10713 10712 10709 ] final  116.65 input   66.30 | X-H torsion
[ 10763 10752 10751 10750 ] final  -65.71 input  -60.55 | X-H torsion
[ 11005 11000 10999 10996 ] final   55.83 input  -57.11 | X-H torsion

> <Gold.Protein.ActiveResidues>
 VAL166  LYS551  ARG553  GLY616  TRP617  ASP618  TYR619  PRO620  LYS621  CYS622 
 ASP623  PHE694  ASN695  SER759  ASP760  ASP761  ALA762  ILE779  LEU786  VAL792 
 PHE793  MET794  SER795  GLU796  ALA797  LYS798  CYS799  TRP800  GLU811  SER814 

> <Gold.Protein.RotatedAtoms>
  152.3526  134.6984  160.0231 H   0  0  0  0  0  0  0  0  0  0  0  0  # atno 6907 bound_to 6896
  151.7333  133.3313  159.3354 H   0  0  0  0  0  0  0  0  0  0  0  0  # atno 6908 bound_to 6896
  150.7550  134.6278  159.6214 H   0  0  0  0  0  0  0  0  0  0  0  0  # atno 6909 bound_to 6896
  144.9325  140.7145  143.4897 H   0  0  0  0  0  0  0  0  0  0  0  0  # atno 7974 bound_to 7965
  154.4215  140.1139  156.5571 H   0  0  0  0  0  0  0  0  0  0  0  0  # atno 8008 bound_to 7997
  155.6349  140.3496  155.4676 H   0  0  0  0  0  0  0  0  0  0  0  0  # atno 8009 bound_to 7997
  155.9918  140.1181  157.0621 H   0  0  0  0  0  0  0  0  0  0  0  0  # atno 8010 bound_to 7997
  139.9953  143.5597  152.2325 H   0  0  0  0  0  0  0  0  0  0  0  0  # atno 10167 bound_to 10162
  157.6147  131.1028  150.7502 H   0  0  0  0  0  0  0  0  0  0  0  0  # atno 10718 bound_to 10713
  154.3491  135.6140  153.5634 H   0  0  0  0  0  0  0  0  0  0  0  0  # atno 10763 bound_to 10752
  152.9799  135.5788  154.4764 H   0  0  0  0  0  0  0  0  0  0  0  0  # atno 10764 bound_to 10752
  154.4482  135.2852  155.1777 H   0  0  0  0  0  0  0  0  0  0  0  0  # atno 10765 bound_to 10752
  140.0577  134.5647  155.9189 H   0  0  0  0  0  0  0  0  0  0  0  0  # atno 11005 bound_to 11000
  145.3119  139.1816  143.4634 LP  0  0  0  0  0  0  0  0  0  0  0  0  # atno 17320 bound_to 7965
  146.3253  140.3124  142.8627 LP  0  0  0  0  0  0  0  0  0  0  0  0  # atno 17321 bound_to 7965
  139.6310  144.7644  151.2536 LP  0  0  0  0  0  0  0  0  0  0  0  0  # atno 17342 bound_to 10162
  140.7439  143.6479  150.8275 LP  0  0  0  0  0  0  0  0  0  0  0  0  # atno 17343 bound_to 10162
  156.7872  130.4878  149.5391 LP  0  0  0  0  0  0  0  0  0  0  0  0  # atno 17370 bound_to 10713
  156.1264  130.6147  151.0270 LP  0  0  0  0  0  0  0  0  0  0  0  0  # atno 17371 bound_to 10713
  141.1959  133.6589  156.5666 LP  0  0  0  0  0  0  0  0  0  0  0  0  # atno 17394 bound_to 11000
  140.3819  134.7516  157.4666 LP  0  0  0  0  0  0  0  0  0  0  0  0  # atno 17395 bound_to 11000

$$$$
