AV-unprocessed.smi:1580|AV-procd|sdf|6358|dock2
  -GOLD-   22720 6583D 1   1.00000     0.00000
 Structure written by MMmdl.
 37 38  0  0  0  0  0  0  0  0  1 V2000
  150.8582  139.6753  157.3568 C   0  0  0  0  0  0  0  0  0  0  0  0
  150.9513  140.6742  155.8156 S   0  0  0  0  0  0  0  0  0  0  0  0
  150.8831  142.0945  156.1936 O   0  0  0  0  0  0  0  0  0  0  0  0
  152.0883  140.1884  155.0182 O   0  0  0  0  0  0  0  0  0  0  0  0
  149.4462  140.2511  154.9459 C   0  0  0  0  0  0  0  0  0  0  0  0
  148.4856  141.2419  154.6616 C   0  0  0  0  0  0  0  0  0  0  0  0
  147.2958  140.8490  154.0197 C   0  0  0  0  0  0  0  0  0  0  0  0
  147.1116  139.4823  153.6925 C   0  0  0  0  0  0  0  0  0  0  0  0
  145.9557  138.9492  153.0575 N   0  0  0  0  0  0  0  0  0  0  0  0
  145.5387  137.6732  152.9816 C   0  0  0  0  0  0  0  0  0  0  0  0
  146.0979  136.7047  153.4946 O   0  0  0  0  0  0  0  0  0  0  0  0
  144.4057  137.5772  152.2722 N   0  0  0  0  0  0  0  0  0  0  0  0
  143.6937  136.3339  151.9988 C   0  0  0  0  0  0  0  0  0  0  0  0
  144.4520  135.4488  150.9954 C   0  0  2  0  0  0  0  0  0  0  0  0
  144.0326  133.9804  151.0377 C   0  0  0  0  0  0  0  0  0  0  0  0
  145.2681  133.2946  150.5021 C   0  0  0  0  0  0  0  0  0  0  0  0
  146.3805  134.1275  151.1318 C   0  0  0  0  0  0  0  0  0  0  0  0
  145.8486  135.4413  151.2852 O   0  0  0  0  0  0  0  0  0  0  0  0
  148.1357  138.5776  154.0478 C   0  0  0  0  0  0  0  0  0  0  0  0
  149.2790  138.9415  154.6656 N   0  0  0  0  0  0  0  0  0  0  0  0
  151.7429  139.8623  157.9646 H   0  0  0  0  0  0  0  0  0  0  0  0
  150.8097  138.6168  157.1017 H   0  0  0  0  0  0  0  0  0  0  0  0
  149.9665  139.9550  157.9171 H   0  0  0  0  0  0  0  0  0  0  0  0
  148.6481  142.2754  154.9289 H   0  0  0  0  0  0  0  0  0  0  0  0
  146.5536  141.6020  153.8093 H   0  0  0  0  0  0  0  0  0  0  0  0
  145.3517  139.6328  152.6249 H   0  0  0  0  0  0  0  0  0  0  0  0
  144.0054  138.4226  151.8929 H   0  0  0  0  0  0  0  0  0  0  0  0
  143.5585  135.8008  152.9403 H   0  0  0  0  0  0  0  0  0  0  0  0
  142.6938  136.5586  151.6239 H   0  0  0  0  0  0  0  0  0  0  0  0
  144.3222  135.8204  149.9775 H   0  0  0  0  0  0  0  0  0  0  0  0
  143.8454  133.6609  152.0640 H   0  0  0  0  0  0  0  0  0  0  0  0
  143.1390  133.7763  150.4472 H   0  0  0  0  0  0  0  0  0  0  0  0
  145.3232  132.2381  150.7662 H   0  0  0  0  0  0  0  0  0  0  0  0
  145.3024  133.3798  149.4153 H   0  0  0  0  0  0  0  0  0  0  0  0
  146.6325  133.7404  152.1198 H   0  0  0  0  0  0  0  0  0  0  0  0
  147.2887  134.1317  150.5286 H   0  0  0  0  0  0  0  0  0  0  0  0
  148.0343  137.5240  153.8318 H   0  0  0  0  0  0  0  0  0  0  0  0
  1  2  1  0  0  0  0
  1 21  1  0  0  0  0
  1 22  1  0  0  0  0
  1 23  1  0  0  0  0
  2  3  2  0  0  0  0
  2  4  2  0  0  0  0
  2  5  1  0  0  0  0
  5 20  1  0  0  0  0
  5  6  2  0  0  0  0
  6  7  1  0  0  0  0
  6 24  1  0  0  0  0
  7  8  2  0  0  0  0
  7 25  1  0  0  0  0
  8  9  1  0  0  0  0
  8 19  1  0  0  0  0
  9 10  1  0  0  0  0
  9 26  1  0  0  0  0
 10 11  2  0  0  0  0
 10 12  1  0  0  0  0
 12 13  1  0  0  0  0
 12 27  1  0  0  0  0
 13 14  1  0  0  0  0
 13 28  1  0  0  0  0
 13 29  1  0  0  0  0
 14 18  1  0  0  0  0
 14 15  1  0  0  0  0
 14 30  1  0  0  0  0
 15 16  1  0  0  0  0
 15 31  1  0  0  0  0
 15 32  1  0  0  0  0
 16 17  1  0  0  0  0
 16 33  1  0  0  0  0
 16 34  1  0  0  0  0
 17 18  1  0  0  0  0
 17 35  1  0  0  0  0
 17 36  1  0  0  0  0
 19 20  2  0  0  0  0
 19 37  1  0  0  0  0
M  END
> <s_m_source_file>
AV-unprocessed.smi

> <i_m_source_file_index>
1580

> <i_lp_mmshare_version>
43012

> <i_f3d_flags>
0

> <s_epik_input>
W0NIM11TKD1PKSg9TyljMVtjSF1bY0hdYyhbY0hdbjEpW05IXUMoPU8pW05IXVtDSDJdW0NAQEhdMltDSDJdW0NIMl1bQ0gyXU8y

> <s_epik_cmdline>
J2VwaWtfcHl0aG9uJywgJy1waCcsICc3LjAnLCAnLXRuJywgJzgnLCAnLW1hJywgJzIwMCcsICctbWV0YWxfYmluZGluZycsICctaW1hZScsICc8aW5maWxlLm1hZT4nLCAnLW9tYWUnLCAnPG91dGZpbGUubWFlPic=

> <r_lp_tautomer_probability>
1

> <r_epik_Ionization_Penalty>
3.28405e-05

> <r_epik_Ionization_Penalty_Charging>
0

> <r_epik_Ionization_Penalty_Neutral>
3.28405e-05

> <r_epik_State_Penalty>
-0

> <r_epik_Charging_Adjusted_Penalty>
0

> <i_epik_Tot_Q>
0

> <i_epik_Tot_abs_Q>
0

> <r_epik_Metal_State_Penalty>
-0

> <b_epik_Metal_Only>
0

> <s_lp_Force_Field>
OPLS_2005

> <r_lp_Energy>
18.5173

> <b_lp_Chiralities_Consistent>
1

> <s_lp_Variant>
AV-unprocessed.smi:1580-1

> <Gold.Version>
5.8.1

> <Gold.Id.Protein>
6NUR|6NUR_protein|mol2

> <Gold.PLP.Fitness>
40.1390

> <Gold.PLP.PLP>
-30.7708

> <Gold.PLP.part.hbond>
-4.0000

> <Gold.PLP.part.metal>
0.0000

> <Gold.PLP.part.buried>
-4.9077

> <Gold.PLP.part.nonpolar>
-22.5126

> <Gold.PLP.part.repulsive>
0.6306

> <Gold.PLP.ligand.clash>
0.0000

> <Gold.PLP.ligand.torsion>
1.3598

> <Gold.PLP.Chemscore.Hbond>
2.3857

> <Gold.PLP.Chemscore.CHOScore>
0.9593

> <Gold.PLP.Chemscore.Metal>
0.0000

> <Gold.Chemscore.Hbonds>
donor molecule, donor type, donor heavy atom, donor atom, acceptor molecule, acceptor atom, score
      L1  H     9    26       P1 10175  1.00
      L1  H    12    27       P1 10175  0.65
      P1  H  7989  7998       L1     4  0.70
      L1  C    19    37       P1  7948  0.96

> <Gold.PLP.Chemscore.Internal.Correction>
2.0526

> <Gold.Rescore>
     Score         DG    S(hbond)    S(metal)    S(lipo)     H(rot)  DE(clash)    DE(int)     intcor
     10.76     -16.79       2.46        0.00      54.27       1.27       0.19       5.84       ----

> <Gold.Chemscore.Fitness>
10.7643

> <Gold.Chemscore.DG>
-16.7895

> <Gold.Chemscore.ZeroCoef>
-5.4800

> <Gold.Chemscore.Hbond>
2.4603

> <Gold.Chemscore.Metal>
0.0000

> <Gold.Chemscore.Lipo>
54.2700

> <Gold.Chemscore.Internal_Hbond>
0.0000

> <Gold.Chemscore.DEClash>
0.1865

> <Gold.Chemscore.DEInternal>
5.8388

> <Gold.Chemscore.Rot>
1.2725

> <Gold.Chemscore.Internal.Correction>
   9.000000E+99

> <Gold.Chemscore.Hbonds>
donor molecule, donor type, donor heavy atom, donor atom, acceptor molecule, acceptor atom, score
      L1  H     9    26       P1 10175  0.95
      L1  H    12    27       P1 10175  0.64
      P1  H  7989  7998       L1     4  0.16

> <Gold.Chemscore.Hbond.Weighted>
-8.2176

> <Gold.Chemscore.Metal.Weighted>
-0.0000

> <Gold.Chemscore.Lipo.Weighted>
-6.3496

> <Gold.Chemscore.Internal_Hbond.Weighted>
0.0000

> <Gold.Chemscore.DEClash.Weighted>
0.1865

> <Gold.Chemscore.DEInternal.Weighted>
5.8388

> <Gold.Chemscore.Rot.Weighted>
3.2576

> <Gold.Chemscore.Internal.Correction.Weighted>
   9.000000E+99

> <Gold.Protein.RotatedTorsions>
[ 6907 6896 6895 6894 ] final  -10.18 input  -60.11 | X-H torsion
[ 7974 7965 7964 7962 ] final   19.23 input  175.53 | X-H torsion
[ 8008 7997 7996 7995 ] final   35.33 input   59.86 | X-H torsion
[ 10167 10162 10161 10158 ] final   24.96 input  -65.29 | X-H torsion
[ 10718 10713 10712 10709 ] final   88.76 input   66.30 | X-H torsion
[ 10763 10752 10751 10750 ] final   79.04 input  -60.55 | X-H torsion
[ 11005 11000 10999 10996 ] final   60.71 input  -57.11 | X-H torsion

> <Gold.Protein.ActiveResidues>
 VAL166  LYS551  ARG553  GLY616  TRP617  ASP618  TYR619  PRO620  LYS621  CYS622 
 ASP623  PHE694  ASN695  SER759  ASP760  ASP761  ALA762  ILE779  LEU786  VAL792 
 PHE793  MET794  SER795  GLU796  ALA797  LYS798  CYS799  TRP800  GLU811  SER814 

> <Gold.Protein.RotatedAtoms>
  151.4061  135.0978  159.9570 H   0  0  0  0  0  0  0  0  0  0  0  0  # atno 6907 bound_to 6896
  152.5035  133.8842  159.7372 H   0  0  0  0  0  0  0  0  0  0  0  0  # atno 6908 bound_to 6896
  150.9326  133.6692  159.2836 H   0  0  0  0  0  0  0  0  0  0  0  0  # atno 6909 bound_to 6896
  146.2157  139.8344  142.8653 H   0  0  0  0  0  0  0  0  0  0  0  0  # atno 7974 bound_to 7965
  155.1693  140.3290  155.4396 H   0  0  0  0  0  0  0  0  0  0  0  0  # atno 8008 bound_to 7997
  156.2515  140.1946  156.6748 H   0  0  0  0  0  0  0  0  0  0  0  0  # atno 8009 bound_to 7997
  154.6349  140.0578  156.9762 H   0  0  0  0  0  0  0  0  0  0  0  0  # atno 8010 bound_to 7997
  140.5145  144.0104  150.6388 H   0  0  0  0  0  0  0  0  0  0  0  0  # atno 10167 bound_to 10162
  157.6951  131.0307  150.3323 H   0  0  0  0  0  0  0  0  0  0  0  0  # atno 10718 bound_to 10713
  153.0921  135.4854  154.8710 H   0  0  0  0  0  0  0  0  0  0  0  0  # atno 10763 bound_to 10752
  154.7282  135.3054  154.8938 H   0  0  0  0  0  0  0  0  0  0  0  0  # atno 10764 bound_to 10752
  153.9582  135.6815  153.4798 H   0  0  0  0  0  0  0  0  0  0  0  0  # atno 10765 bound_to 10752
  140.0213  134.6149  155.9636 H   0  0  0  0  0  0  0  0  0  0  0  0  # atno 11005 bound_to 11000
  145.2964  141.0182  143.3633 LP  0  0  0  0  0  0  0  0  0  0  0  0  # atno 17320 bound_to 7965
  144.9039  139.4615  143.6619 LP  0  0  0  0  0  0  0  0  0  0  0  0  # atno 17321 bound_to 7965
  140.3436  143.3004  152.0562 LP  0  0  0  0  0  0  0  0  0  0  0  0  # atno 17342 bound_to 10162
  139.4905  144.6424  151.6848 LP  0  0  0  0  0  0  0  0  0  0  0  0  # atno 17343 bound_to 10162
  156.3795  130.3878  149.7112 LP  0  0  0  0  0  0  0  0  0  0  0  0  # atno 17370 bound_to 10713
  156.4500  130.7902  151.2923 LP  0  0  0  0  0  0  0  0  0  0  0  0  # atno 17371 bound_to 10713
  141.1775  133.6542  156.4887 LP  0  0  0  0  0  0  0  0  0  0  0  0  # atno 17394 bound_to 11000
  140.4383  134.7039  157.4978 LP  0  0  0  0  0  0  0  0  0  0  0  0  # atno 17395 bound_to 11000

$$$$
