AV-unprocessed.smi:3002|AV-procd|sdf|11433|dock3
  -GOLD-   2272016363D 1   1.00000     0.00000
 Structure written by MMmdl.
 34 35  0  0  0  0  0  0  0  0  1 V2000
  145.1184  131.7582  150.7867 C   0  0  0  0  0  0  0  0  0  0  0  0
  146.2910  132.5000  151.4661 C   0  0  2  0  0  0  0  0  0  0  0  0
  146.6893  131.8048  152.7785 C   0  0  0  0  0  0  0  0  0  0  0  0
  145.9027  131.7577  153.7246 O   0  0  0  0  0  0  0  0  0  0  0  0
  147.9230  131.2811  152.8254 N   0  0  0  0  0  0  0  0  0  0  0  0
  148.5003  130.6203  153.9884 C   0  0  0  0  0  0  0  0  0  0  0  0
  149.5822  131.4981  154.6394 C   0  0  2  0  0  0  0  0  0  0  0  0
  150.3573  130.7531  155.7434 C   0  0  0  0  0  0  0  0  0  0  0  0
  151.2107  131.7680  156.5096 C   0  0  0  0  0  0  0  0  0  0  0  0
  150.2269  133.3122  156.5388 S   0  0  0  0  0  0  0  0  0  0  0  0
  149.5225  133.4202  157.8253 O   0  0  0  0  0  0  0  0  0  0  0  0
  151.0543  134.4178  156.0330 O   0  0  0  0  0  0  0  0  0  0  0  0
  149.0290  132.7995  155.2482 C   0  0  0  0  0  0  0  0  0  0  0  0
  146.0264  133.9234  151.6934 N   0  0  0  0  0  0  0  0  0  0  0  0
  145.5802  134.8672  150.8560 C   0  0  0  0  0  0  0  0  0  0  0  0
  145.3846  136.0491  151.4226 N   0  0  0  0  0  0  0  0  0  0  0  0
  145.7305  135.7441  152.7073 C   0  0  0  0  0  0  0  0  0  0  0  0
  146.1001  134.4830  152.9281 N   0  0  0  0  0  0  0  0  0  0  0  0
  145.3225  130.6903  150.6998 H   0  0  0  0  0  0  0  0  0  0  0  0
  144.9469  132.1331  149.7773 H   0  0  0  0  0  0  0  0  0  0  0  0
  144.1890  131.8726  151.3465 H   0  0  0  0  0  0  0  0  0  0  0  0
  147.1448  132.4469  150.7884 H   0  0  0  0  0  0  0  0  0  0  0  0
  148.5067  131.3588  152.0049 H   0  0  0  0  0  0  0  0  0  0  0  0
  147.7181  130.3952  154.7158 H   0  0  0  0  0  0  0  0  0  0  0  0
  148.9286  129.6674  153.6747 H   0  0  0  0  0  0  0  0  0  0  0  0
  150.3070  131.7779  153.8730 H   0  0  0  0  0  0  0  0  0  0  0  0
  149.6483  130.2963  156.4353 H   0  0  0  0  0  0  0  0  0  0  0  0
  150.9684  129.9474  155.3355 H   0  0  0  0  0  0  0  0  0  0  0  0
  151.4493  131.4502  157.5248 H   0  0  0  0  0  0  0  0  0  0  0  0
  152.1408  131.9698  155.9777 H   0  0  0  0  0  0  0  0  0  0  0  0
  148.9068  133.5960  154.5140 H   0  0  0  0  0  0  0  0  0  0  0  0
  148.0685  132.6288  155.7359 H   0  0  0  0  0  0  0  0  0  0  0  0
  145.3891  134.6882  149.8080 H   0  0  0  0  0  0  0  0  0  0  0  0
  145.6971  136.4697  153.5067 H   0  0  0  0  0  0  0  0  0  0  0  0
  1  2  1  0  0  0  0
  1 19  1  0  0  0  0
  1 20  1  0  0  0  0
  1 21  1  0  0  0  0
  2  3  1  0  0  0  0
  2 14  1  0  0  0  0
  2 22  1  0  0  0  0
  3  4  2  0  0  0  0
  3  5  1  0  0  0  0
  5  6  1  0  0  0  0
  5 23  1  0  0  0  0
  6  7  1  0  0  0  0
  6 24  1  0  0  0  0
  6 25  1  0  0  0  0
  7 13  1  0  0  0  0
  7  8  1  0  0  0  0
  7 26  1  0  0  0  0
  8  9  1  0  0  0  0
  8 27  1  0  0  0  0
  8 28  1  0  0  0  0
  9 10  1  0  0  0  0
  9 29  1  0  0  0  0
  9 30  1  0  0  0  0
 10 11  2  0  0  0  0
 10 12  2  0  0  0  0
 10 13  1  0  0  0  0
 13 31  1  0  0  0  0
 13 32  1  0  0  0  0
 14 18  1  0  0  0  0
 14 15  1  0  0  0  0
 15 16  2  0  0  0  0
 15 33  1  0  0  0  0
 16 17  1  0  0  0  0
 17 18  2  0  0  0  0
 17 34  1  0  0  0  0
M  END
> <s_m_source_file>
AV-unprocessed.smi

> <i_m_source_file_index>
3002

> <i_lp_mmshare_version>
43012

> <i_f3d_flags>
0

> <s_epik_input>
bjFbY0hdbltjSF1uMVtDQEhdKFtDSDNdKUMoPU8pW05IXVtDSDJdW0NAQEhdKFtDSDJdMilbQ0gyXVtDSDJdUzIoPU8pPU8=

> <s_epik_cmdline>
J2VwaWtfcHl0aG9uJywgJy1waCcsICc3LjAnLCAnLXRuJywgJzgnLCAnLW1hJywgJzIwMCcsICctbWV0YWxfYmluZGluZycsICctaW1hZScsICc8aW5maWxlLm1hZT4nLCAnLW9tYWUnLCAnPG91dGZpbGUubWFlPic=

> <r_lp_tautomer_probability>
1

> <r_epik_Ionization_Penalty>
1.1748e-05

> <r_epik_Ionization_Penalty_Charging>
0

> <r_epik_Ionization_Penalty_Neutral>
1.1748e-05

> <r_epik_State_Penalty>
-0

> <r_epik_Charging_Adjusted_Penalty>
0

> <i_epik_Tot_Q>
0

> <i_epik_Tot_abs_Q>
0

> <r_epik_Metal_State_Penalty>
-0

> <b_epik_Metal_Only>
0

> <s_lp_Force_Field>
OPLS_2005

> <r_lp_Energy>
11.0715

> <b_lp_Chiralities_Consistent>
1

> <s_lp_Variant>
AV-unprocessed.smi:3002-1

> <Gold.Version>
5.8.1

> <Gold.Id.Protein>
6NUR|6NUR_protein|mol2

> <Gold.PLP.Fitness>
37.9783

> <Gold.PLP.PLP>
-27.1443

> <Gold.PLP.part.hbond>
-3.0000

> <Gold.PLP.part.metal>
0.0000

> <Gold.PLP.part.buried>
-3.7646

> <Gold.PLP.part.nonpolar>
-20.6586

> <Gold.PLP.part.repulsive>
0.5412

> <Gold.PLP.ligand.clash>
0.0000

> <Gold.PLP.ligand.torsion>
0.1783

> <Gold.PLP.Chemscore.Hbond>
2.6882

> <Gold.PLP.Chemscore.CHOScore>
1.0000

> <Gold.PLP.Chemscore.Metal>
0.0000

> <Gold.Chemscore.Hbonds>
donor molecule, donor type, donor heavy atom, donor atom, acceptor molecule, acceptor atom, score
      L1  H     5    23       P1 10747  1.00
      P1  H  6896  6909       L1    11  1.00
      L1  C    15    33       P1  7921  1.00

> <Gold.PLP.Chemscore.Internal.Correction>
0.1261

> <Gold.Rescore>
     Score         DG    S(hbond)    S(metal)    S(lipo)     H(rot)  DE(clash)    DE(int)     intcor
     11.28     -13.12       2.62        0.00      43.02       2.39       0.22       1.62       ----

> <Gold.Chemscore.Fitness>
11.2818

> <Gold.Chemscore.DG>
-13.1226

> <Gold.Chemscore.ZeroCoef>
-5.4800

> <Gold.Chemscore.Hbond>
2.6164

> <Gold.Chemscore.Metal>
0.0000

> <Gold.Chemscore.Lipo>
43.0244

> <Gold.Chemscore.Internal_Hbond>
0.0000

> <Gold.Chemscore.DEClash>
0.2221

> <Gold.Chemscore.DEInternal>
1.6186

> <Gold.Chemscore.Rot>
2.3946

> <Gold.Chemscore.Internal.Correction>
   9.000000E+99

> <Gold.Chemscore.Hbonds>
donor molecule, donor type, donor heavy atom, donor atom, acceptor molecule, acceptor atom, score
      L1  H     5    23       P1 10747  0.96
      P1  H  6896  6909       L1    11  0.52
      P1  H 10752 10765       L1    12  0.01

> <Gold.Chemscore.Hbond.Weighted>
-8.7389

> <Gold.Chemscore.Metal.Weighted>
-0.0000

> <Gold.Chemscore.Lipo.Weighted>
-5.0339

> <Gold.Chemscore.Internal_Hbond.Weighted>
0.0000

> <Gold.Chemscore.DEClash.Weighted>
0.2221

> <Gold.Chemscore.DEInternal.Weighted>
1.6186

> <Gold.Chemscore.Rot.Weighted>
6.1301

> <Gold.Chemscore.Internal.Correction.Weighted>
   9.000000E+99

> <Gold.Protein.RotatedTorsions>
[ 6907 6896 6895 6894 ] final  -14.59 input  -60.11 | X-H torsion
[ 7974 7965 7964 7962 ] final  -29.66 input  175.53 | X-H torsion
[ 8008 7997 7996 7995 ] final  -71.15 input   59.86 | X-H torsion
[ 10167 10162 10161 10158 ] final  -43.06 input  -65.29 | X-H torsion
[ 10718 10713 10712 10709 ] final   57.46 input   66.30 | X-H torsion
[ 10763 10752 10751 10750 ] final -162.93 input  -60.55 | X-H torsion
[ 11005 11000 10999 10996 ] final    1.36 input  -57.11 | X-H torsion

> <Gold.Protein.ActiveResidues>
 VAL166  LYS551  ARG553  GLY616  TRP617  ASP618  TYR619  PRO620  LYS621  CYS622 
 ASP623  PHE694  ASN695  SER759  ASP760  ASP761  ALA762  ILE779  LEU786  VAL792 
 PHE793  MET794  SER795  GLU796  ALA797  LYS798  CYS799  TRP800  GLU811  SER814 

> <Gold.Protein.RotatedAtoms>
  151.3371  135.0855  159.9358 H   0  0  0  0  0  0  0  0  0  0  0  0  # atno 6907 bound_to 6896
  152.5220  133.9484  159.7670 H   0  0  0  0  0  0  0  0  0  0  0  0  # atno 6908 bound_to 6896
  150.9834  133.6169  159.2749 H   0  0  0  0  0  0  0  0  0  0  0  0  # atno 6909 bound_to 6896
  146.1200  140.5441  142.8739 H   0  0  0  0  0  0  0  0  0  0  0  0  # atno 7974 bound_to 7965
  154.5065  140.0821  156.7905 H   0  0  0  0  0  0  0  0  0  0  0  0  # atno 8008 bound_to 7997
  155.3881  140.3431  155.4232 H   0  0  0  0  0  0  0  0  0  0  0  0  # atno 8009 bound_to 7997
  156.1522  140.1562  156.8739 H   0  0  0  0  0  0  0  0  0  0  0  0  # atno 8010 bound_to 7997
  140.6947  143.3003  151.3298 H   0  0  0  0  0  0  0  0  0  0  0  0  # atno 10167 bound_to 10162
  157.5516  130.8770  149.8972 H   0  0  0  0  0  0  0  0  0  0  0  0  # atno 10718 bound_to 10713
  154.7169  135.3017  154.9109 H   0  0  0  0  0  0  0  0  0  0  0  0  # atno 10763 bound_to 10752
  153.9993  135.6709  153.4762 H   0  0  0  0  0  0  0  0  0  0  0  0  # atno 10764 bound_to 10752
  153.0801  135.5013  154.8401 H   0  0  0  0  0  0  0  0  0  0  0  0  # atno 10765 bound_to 10752
  140.6163  133.9702  155.8202 H   0  0  0  0  0  0  0  0  0  0  0  0  # atno 11005 bound_to 11000
  144.7588  140.5373  143.6750 LP  0  0  0  0  0  0  0  0  0  0  0  0  # atno 17320 bound_to 7965
  145.5486  139.1476  143.3407 LP  0  0  0  0  0  0  0  0  0  0  0  0  # atno 17321 bound_to 7965
  139.6389  144.0578  152.2538 LP  0  0  0  0  0  0  0  0  0  0  0  0  # atno 17342 bound_to 10162
  140.0077  144.6247  150.7675 LP  0  0  0  0  0  0  0  0  0  0  0  0  # atno 17343 bound_to 10162
  156.0581  130.3704  150.1043 LP  0  0  0  0  0  0  0  0  0  0  0  0  # atno 17370 bound_to 10713
  156.9216  130.9684  151.3547 LP  0  0  0  0  0  0  0  0  0  0  0  0  # atno 17371 bound_to 10713
  141.0773  134.0115  157.3438 LP  0  0  0  0  0  0  0  0  0  0  0  0  # atno 17394 bound_to 11000
  139.9171  135.0198  156.7924 LP  0  0  0  0  0  0  0  0  0  0  0  0  # atno 17395 bound_to 11000

$$$$
