AV-unprocessed.smi:1762|AV-procd|sdf|7117|dock3
  -GOLD-   22720 8343D 1   1.00000     0.00000
 Structure written by MMmdl.
 53 54  0  0  0  0  0  0  0  0  2 V2000
  146.0579  132.0605  149.6619 C   0  0  0  0  0  0  0  0  0  0  0  0
  146.3859  133.2317  150.5946 C   0  0  2  0  0  0  0  0  0  0  0  0
  147.1016  132.7701  151.8768 C   0  0  0  0  0  0  0  0  0  0  0  0
  147.3623  133.9187  152.7919 N   0  3  2  0  0  0  0  0  0  0  0  0
  148.1503  133.5291  154.0122 C   0  0  1  0  0  0  0  0  0  0  0  0
  148.3460  134.7366  154.9549 C   0  0  0  0  0  0  0  0  0  0  0  0
  147.9879  134.6678  156.1314 O   0  0  0  0  0  0  0  0  0  0  0  0
  148.9143  135.8301  154.4246 N   0  0  0  0  0  0  0  0  0  0  0  0
  149.1915  137.0609  155.1534 C   0  0  0  0  0  0  0  0  0  0  0  0
  150.0480  138.0084  154.3020 C   0  0  0  0  0  0  0  0  0  0  0  0
  149.9799  139.4425  154.7926 C   0  0  0  0  0  0  0  0  0  0  0  0
  149.2864  140.4250  154.0542 C   0  0  0  0  0  0  0  0  0  0  0  0
  149.2462  141.7393  154.5587 C   0  0  0  0  0  0  0  0  0  0  0  0
  149.8965  142.0187  155.7759 C   0  0  0  0  0  0  0  0  0  0  0  0
  150.5616  140.9672  156.4372 C   0  0  0  0  0  0  0  0  0  0  0  0
  150.6069  139.7038  155.9619 N   0  0  0  0  0  0  0  0  0  0  0  0
  147.5633  132.3065  154.7967 C   0  0  0  0  0  0  0  0  0  0  0  0
  146.2088  132.5905  155.4794 C   0  0  0  0  0  0  0  0  0  0  0  0
  148.5514  131.7034  155.8149 C   0  0  0  0  0  0  0  0  0  0  0  0
  146.0762  134.6198  153.0622 C   0  0  0  0  0  0  0  0  0  0  0  0
  145.3742  135.0212  151.7506 C   0  0  2  0  0  0  0  0  0  0  0  0
  144.0115  135.6757  152.0032 C   0  0  0  0  0  0  0  0  0  0  0  0
  145.1652  133.8636  150.9537 O   0  0  0  0  0  0  0  0  0  0  0  0
  146.9642  131.5418  149.3478 H   0  0  0  0  0  0  0  0  0  0  0  0
  145.5477  132.4092  148.7636 H   0  0  0  0  0  0  0  0  0  0  0  0
  145.4092  131.3341  150.1523 H   0  0  0  0  0  0  0  0  0  0  0  0
  147.0173  133.9391  150.0538 H   0  0  0  0  0  0  0  0  0  0  0  0
  146.4952  132.0256  152.3956 H   0  0  0  0  0  0  0  0  0  0  0  0
  148.0278  132.2733  151.5892 H   0  0  0  0  0  0  0  0  0  0  0  0
  149.1367  133.2297  153.6521 H   0  0  0  0  0  0  0  0  0  0  0  0
  149.1831  135.8053  153.4516 H   0  0  0  0  0  0  0  0  0  0  0  0
  148.2449  137.5371  155.4125 H   0  0  0  0  0  0  0  0  0  0  0  0
  149.7083  136.8405  156.0892 H   0  0  0  0  0  0  0  0  0  0  0  0
  151.0889  137.6809  154.3126 H   0  0  0  0  0  0  0  0  0  0  0  0
  149.7246  137.9699  153.2609 H   0  0  0  0  0  0  0  0  0  0  0  0
  148.7952  140.1803  153.1238 H   0  0  0  0  0  0  0  0  0  0  0  0
  148.7250  142.5183  154.0223 H   0  0  0  0  0  0  0  0  0  0  0  0
  149.8857  143.0150  156.1931 H   0  0  0  0  0  0  0  0  0  0  0  0
  151.0699  141.1456  157.3733 H   0  0  0  0  0  0  0  0  0  0  0  0
  147.4068  131.4980  154.0842 H   0  0  0  0  0  0  0  0  0  0  0  0
  146.3111  133.3043  156.2971 H   0  0  0  0  0  0  0  0  0  0  0  0
  145.7886  131.6765  155.9000 H   0  0  0  0  0  0  0  0  0  0  0  0
  145.4742  132.9927  154.7823 H   0  0  0  0  0  0  0  0  0  0  0  0
  148.7223  132.3647  156.6647 H   0  0  0  0  0  0  0  0  0  0  0  0
  149.5164  131.4947  155.3523 H   0  0  0  0  0  0  0  0  0  0  0  0
  148.1715  130.7620  156.2127 H   0  0  0  0  0  0  0  0  0  0  0  0
  145.4294  133.9749  153.6594 H   0  0  0  0  0  0  0  0  0  0  0  0
  146.2351  135.5345  153.6295 H   0  0  0  0  0  0  0  0  0  0  0  0
  145.9996  135.7278  151.2018 H   0  0  0  0  0  0  0  0  0  0  0  0
  144.1144  136.5782  152.6062 H   0  0  0  0  0  0  0  0  0  0  0  0
  143.3384  134.9972  152.5285 H   0  0  0  0  0  0  0  0  0  0  0  0
  143.5342  135.9576  151.0644 H   0  0  0  0  0  0  0  0  0  0  0  0
  147.9422  134.5712  152.2831 H   0  0  0  0  0  0  0  0  0  0  0  0
  1  2  1  0  0  0  0
  1 24  1  0  0  0  0
  1 25  1  0  0  0  0
  1 26  1  0  0  0  0
  2 23  1  0  0  0  0
  2  3  1  0  0  0  0
  2 27  1  0  0  0  0
  3  4  1  0  0  0  0
  3 28  1  0  0  0  0
  3 29  1  0  0  0  0
  4  5  1  0  0  0  0
  4 20  1  0  0  0  0
  4 53  1  0  0  0  0
  5  6  1  0  0  0  0
  5 17  1  0  0  0  0
  5 30  1  0  0  0  0
  6  7  2  0  0  0  0
  6  8  1  0  0  0  0
  8  9  1  0  0  0  0
  8 31  1  0  0  0  0
  9 10  1  0  0  0  0
  9 32  1  0  0  0  0
  9 33  1  0  0  0  0
 10 11  1  0  0  0  0
 10 34  1  0  0  0  0
 10 35  1  0  0  0  0
 11 16  1  0  0  0  0
 11 12  2  0  0  0  0
 12 13  1  0  0  0  0
 12 36  1  0  0  0  0
 13 14  2  0  0  0  0
 13 37  1  0  0  0  0
 14 15  1  0  0  0  0
 14 38  1  0  0  0  0
 15 16  2  0  0  0  0
 15 39  1  0  0  0  0
 17 18  1  0  0  0  0
 17 19  1  0  0  0  0
 17 40  1  0  0  0  0
 18 41  1  0  0  0  0
 18 42  1  0  0  0  0
 18 43  1  0  0  0  0
 19 44  1  0  0  0  0
 19 45  1  0  0  0  0
 19 46  1  0  0  0  0
 20 21  1  0  0  0  0
 20 47  1  0  0  0  0
 20 48  1  0  0  0  0
 21 22  1  0  0  0  0
 21 23  1  0  0  0  0
 21 49  1  0  0  0  0
 22 50  1  0  0  0  0
 22 51  1  0  0  0  0
 22 52  1  0  0  0  0
M  CHG  1   4   1
M  END
> <s_m_source_file>
AV-unprocessed.smi

> <i_m_source_file_index>
1762

> <i_lp_mmshare_version>
43012

> <i_f3d_flags>
0

> <s_epik_input>
W0NIM11bQ0BASF0xW0NIMl1OKFtDSDJdW0NASF0oTzEpW0NIM10pW0NAQEhdKFtDSF0oW0NIM10pW0NIM10pQyg9TylbTkhdW0NIMl1bQ0gyXWMyW2NIXVtjSF1bY0hdW2NIXW4y

> <s_epik_cmdline>
J2VwaWtfcHl0aG9uJywgJy1waCcsICc3LjAnLCAnLXRuJywgJzgnLCAnLW1hJywgJzIwMCcsICctbWV0YWxfYmluZGluZycsICctaW1hZScsICc8aW5maWxlLm1hZT4nLCAnLW9tYWUnLCAnPG91dGZpbGUubWFlPic=

> <r_epik_Ionization_Penalty>
2.27005

> <r_epik_Ionization_Penalty_Charging>
2.24983

> <r_epik_Ionization_Penalty_Neutral>
0.0202209

> <r_epik_State_Penalty>
2.40228

> <r_epik_Charging_Adjusted_Penalty>
4.65211

> <i_epik_Tot_Q>
1

> <i_epik_Tot_abs_Q>
1

> <r_epik_Metal_State_Penalty>
2.40762

> <b_epik_Metal_Only>
0

> <s_lp_Force_Field>
OPLS_2005

> <r_lp_Energy>
21.958

> <b_lp_Chiralities_Consistent>
1

> <s_lp_Variant>
AV-unprocessed.smi:1762-19

> <Gold.Version>
5.8.1

> <Gold.Id.Protein>
6NUR|6NUR_protein|mol2

> <Gold.PLP.Fitness>
46.0195

> <Gold.PLP.PLP>
-38.1722

> <Gold.PLP.part.hbond>
-2.2889

> <Gold.PLP.part.metal>
0.0000

> <Gold.PLP.part.buried>
-2.4736

> <Gold.PLP.part.nonpolar>
-34.5086

> <Gold.PLP.part.repulsive>
0.1609

> <Gold.PLP.ligand.clash>
0.0000

> <Gold.PLP.ligand.torsion>
0.4475

> <Gold.PLP.Chemscore.Hbond>
2.8000

> <Gold.PLP.Chemscore.CHOScore>
0.0000

> <Gold.PLP.Chemscore.Metal>
0.0000

> <Gold.Chemscore.Hbonds>
donor molecule, donor type, donor heavy atom, donor atom, acceptor molecule, acceptor atom, score
      L1  H     4    53       P1  7948  2.00
      L1  H     8    31       P1  7948  1.00

> <Gold.PLP.Chemscore.Internal.Correction>
0.3422

> <Gold.Rescore>
     Score         DG    S(hbond)    S(metal)    S(lipo)     H(rot)  DE(clash)    DE(int)     intcor
     15.02     -17.29       1.92        0.00      82.40       1.66       0.03       2.24       ----

> <Gold.Chemscore.Fitness>
15.0150

> <Gold.Chemscore.DG>
-17.2865

> <Gold.Chemscore.ZeroCoef>
-5.4800

> <Gold.Chemscore.Hbond>
1.9233

> <Gold.Chemscore.Metal>
0.0000

> <Gold.Chemscore.Lipo>
82.4036

> <Gold.Chemscore.Internal_Hbond>
0.0000

> <Gold.Chemscore.DEClash>
0.0308

> <Gold.Chemscore.DEInternal>
2.2407

> <Gold.Chemscore.Rot>
1.6635

> <Gold.Chemscore.Internal.Correction>
   9.000000E+99

> <Gold.Chemscore.Hbonds>
donor molecule, donor type, donor heavy atom, donor atom, acceptor molecule, acceptor atom, score
      L1  H     4    53       P1  7948  0.39
      L1  H     8    31       P1  7948  0.68

> <Gold.Chemscore.Hbond.Weighted>
-6.4239

> <Gold.Chemscore.Metal.Weighted>
-0.0000

> <Gold.Chemscore.Lipo.Weighted>
-9.6412

> <Gold.Chemscore.Internal_Hbond.Weighted>
0.0000

> <Gold.Chemscore.DEClash.Weighted>
0.0308

> <Gold.Chemscore.DEInternal.Weighted>
2.2407

> <Gold.Chemscore.Rot.Weighted>
4.2586

> <Gold.Chemscore.Internal.Correction.Weighted>
   9.000000E+99

> <Gold.Protein.RotatedTorsions>
[ 6907 6896 6895 6894 ] final  -31.61 input  -60.11 | X-H torsion
[ 7974 7965 7964 7962 ] final -112.77 input  175.53 | X-H torsion
[ 8008 7997 7996 7995 ] final  124.23 input   59.86 | X-H torsion
[ 10167 10162 10161 10158 ] final   20.04 input  -65.29 | X-H torsion
[ 10718 10713 10712 10709 ] final  -66.41 input   66.30 | X-H torsion
[ 10763 10752 10751 10750 ] final  -47.24 input  -60.55 | X-H torsion
[ 11005 11000 10999 10996 ] final   37.19 input  -57.11 | X-H torsion

> <Gold.Protein.ActiveResidues>
 VAL166  LYS551  ARG553  GLY616  TRP617  ASP618  TYR619  PRO620  LYS621  CYS622 
 ASP623  PHE694  ASN695  SER759  ASP760  ASP761  ALA762  ILE779  LEU786  VAL792 
 PHE793  MET794  SER795  GLU796  ALA797  LYS798  CYS799  TRP800  GLU811  SER814 

> <Gold.Protein.RotatedAtoms>
  151.0897  134.9909  159.8396 H   0  0  0  0  0  0  0  0  0  0  0  0  # atno 6907 bound_to 6896
  152.5428  134.2080  159.8749 H   0  0  0  0  0  0  0  0  0  0  0  0  # atno 6908 bound_to 6896
  151.2116  133.4509  159.2632 H   0  0  0  0  0  0  0  0  0  0  0  0  # atno 6909 bound_to 6896
  145.1401  140.8773  143.3707 H   0  0  0  0  0  0  0  0  0  0  0  0  # atno 7974 bound_to 7965
  156.2794  140.2744  156.1755 H   0  0  0  0  0  0  0  0  0  0  0  0  # atno 8008 bound_to 7997
  155.0611  140.0386  157.2594 H   0  0  0  0  0  0  0  0  0  0  0  0  # atno 8009 bound_to 7997
  154.7117  140.2670  155.6629 H   0  0  0  0  0  0  0  0  0  0  0  0  # atno 8010 bound_to 7997
  140.5533  143.9469  150.6592 H   0  0  0  0  0  0  0  0  0  0  0  0  # atno 10167 bound_to 10162
  156.0614  130.4261  150.1704 H   0  0  0  0  0  0  0  0  0  0  0  0  # atno 10718 bound_to 10713
  154.0581  135.6622  153.4808 H   0  0  0  0  0  0  0  0  0  0  0  0  # atno 10763 bound_to 10752
  153.0437  135.5128  154.7686 H   0  0  0  0  0  0  0  0  0  0  0  0  # atno 10764 bound_to 10752
  154.6713  135.3030  154.9704 H   0  0  0  0  0  0  0  0  0  0  0  0  # atno 10765 bound_to 10752
  140.2250  134.3595  155.7988 H   0  0  0  0  0  0  0  0  0  0  0  0  # atno 11005 bound_to 11000
  145.0542  139.3157  143.5913 LP  0  0  0  0  0  0  0  0  0  0  0  0  # atno 17320 bound_to 7965
  146.3506  139.9961  142.8681 LP  0  0  0  0  0  0  0  0  0  0  0  0  # atno 17321 bound_to 7965
  140.2901  143.3330  152.1070 LP  0  0  0  0  0  0  0  0  0  0  0  0  # atno 17342 bound_to 10162
  139.5037  144.6760  151.6126 LP  0  0  0  0  0  0  0  0  0  0  0  0  # atno 17343 bound_to 10162
  156.9772  130.9853  151.3446 LP  0  0  0  0  0  0  0  0  0  0  0  0  # atno 17370 bound_to 10713
  157.5625  130.8256  149.8285 LP  0  0  0  0  0  0  0  0  0  0  0  0  # atno 17371 bound_to 10713
  141.2221  133.7214  156.8638 LP  0  0  0  0  0  0  0  0  0  0  0  0  # atno 17394 bound_to 11000
  140.1809  134.9033  157.2948 LP  0  0  0  0  0  0  0  0  0  0  0  0  # atno 17395 bound_to 11000

$$$$
