AV-unprocessed.smi:103|AV-procd|sdf|987|dock3
  -GOLD-   2262017563D 1   1.00000     0.00000
 Structure written by MMmdl.
 53 55  0  0  0  0  0  0  0  0  1 V2000
  153.5083  142.0979  159.7624 C   0  0  0  0  0  0  0  0  0  0  0  0
  153.3072  140.7811  159.0238 C   0  0  0  0  0  0  0  0  0  0  0  0
  154.2536  140.0363  158.7681 O   0  0  0  0  0  0  0  0  0  0  0  0
  152.0215  140.5603  158.7101 O   0  0  0  0  0  0  0  0  0  0  0  0
  151.6420  139.3107  158.1578 C   0  0  0  0  0  0  0  0  0  0  0  0
  150.1348  139.0955  158.3568 C   0  0  2  0  0  0  0  0  0  0  0  0
  149.8776  137.8779  159.0401 O   0  0  0  0  0  0  0  0  0  0  0  0
  148.5407  137.5542  158.8431 C   0  0  2  0  0  0  0  0  0  0  0  0
  148.3915  136.0734  158.9745 N   0  0  0  0  0  0  0  0  0  0  0  0
  147.8267  135.3229  159.9859 C   0  0  0  0  0  0  0  0  0  0  0  0
  147.1118  135.9476  161.5021 S   0  0  0  0  0  0  0  0  0  0  0  0
  147.7268  134.7355  162.7400 C   0  0  0  0  0  0  0  0  0  0  0  0
  147.7244  137.2593  161.7607 O   0  0  0  0  0  0  0  0  0  0  0  0
  145.6517  135.8164  161.3761 O   0  0  0  0  0  0  0  0  0  0  0  0
  147.9001  134.0251  159.8618 N   0  0  0  0  0  0  0  0  0  0  0  0
  148.5127  133.8612  158.6271 C   0  0  0  0  0  0  0  0  0  0  0  0
  148.8825  132.7338  157.8513 C   0  0  0  0  0  0  0  0  0  0  0  0
  148.6672  131.4715  158.2465 N   0  0  0  0  0  0  0  0  0  0  0  0
  149.4804  132.9402  156.6546 N   0  0  0  0  0  0  0  0  0  0  0  0
  149.7074  134.1902  156.2376 C   0  0  0  0  0  0  0  0  0  0  0  0
  149.4223  135.3409  156.8528 N   0  0  0  0  0  0  0  0  0  0  0  0
  148.8178  135.1314  158.0597 C   0  0  0  0  0  0  0  0  0  0  0  0
  148.1865  138.0098  157.4186 C   0  0  1  0  0  0  0  0  0  0  0  0
  146.8568  138.5236  157.2983 O   0  0  0  0  0  0  0  0  0  0  0  0
  146.4694  139.7191  157.7965 C   0  0  0  0  0  0  0  0  0  0  0  0
  144.9884  139.9841  157.5644 C   0  0  0  0  0  0  0  0  0  0  0  0
  147.1798  140.5330  158.3854 O   0  0  0  0  0  0  0  0  0  0  0  0
  149.3139  138.9850  157.0602 C   0  0  2  0  0  0  0  0  0  0  0  0
  150.0936  138.4463  155.9975 O   0  0  0  0  0  0  0  0  0  0  0  0
  150.7879  139.2609  155.1844 C   0  0  0  0  0  0  0  0  0  0  0  0
  151.6385  138.4915  154.1833 C   0  0  0  0  0  0  0  0  0  0  0  0
  150.7699  140.4917  155.2032 O   0  0  0  0  0  0  0  0  0  0  0  0
  152.9388  142.8946  159.2842 H   0  0  0  0  0  0  0  0  0  0  0  0
  154.5616  142.3796  159.7625 H   0  0  0  0  0  0  0  0  0  0  0  0
  153.1748  142.0045  160.7961 H   0  0  0  0  0  0  0  0  0  0  0  0
  151.8742  139.3135  157.0917 H   0  0  0  0  0  0  0  0  0  0  0  0
  152.2104  138.5006  158.6171 H   0  0  0  0  0  0  0  0  0  0  0  0
  149.7271  139.9118  158.9552 H   0  0  0  0  0  0  0  0  0  0  0  0
  147.9445  138.0004  159.6360 H   0  0  0  0  0  0  0  0  0  0  0  0
  147.3556  135.0073  163.7278 H   0  0  0  0  0  0  0  0  0  0  0  0
  148.8162  134.7388  162.7477 H   0  0  0  0  0  0  0  0  0  0  0  0
  147.3693  133.7393  162.4799 H   0  0  0  0  0  0  0  0  0  0  0  0
  148.2220  131.2908  159.1349 H   0  0  0  0  0  0  0  0  0  0  0  0
  148.9485  130.7031  157.6549 H   0  0  0  0  0  0  0  0  0  0  0  0
  150.1880  134.2820  155.2749 H   0  0  0  0  0  0  0  0  0  0  0  0
  148.2501  137.1427  156.7604 H   0  0  0  0  0  0  0  0  0  0  0  0
  144.7454  139.8839  156.5064 H   0  0  0  0  0  0  0  0  0  0  0  0
  144.7240  140.9918  157.8860 H   0  0  0  0  0  0  0  0  0  0  0  0
  144.3858  139.2721  158.1286 H   0  0  0  0  0  0  0  0  0  0  0  0
  148.9431  139.9718  156.7789 H   0  0  0  0  0  0  0  0  0  0  0  0
  152.3303  137.8293  154.7040 H   0  0  0  0  0  0  0  0  0  0  0  0
  152.2164  139.1781  153.5645 H   0  0  0  0  0  0  0  0  0  0  0  0
  151.0043  137.8894  153.5323 H   0  0  0  0  0  0  0  0  0  0  0  0
  1  2  1  0  0  0  0
  1 33  1  0  0  0  0
  1 34  1  0  0  0  0
  1 35  1  0  0  0  0
  2  3  2  0  0  0  0
  2  4  1  0  0  0  0
  4  5  1  0  0  0  0
  5  6  1  0  0  0  0
  5 36  1  0  0  0  0
  5 37  1  0  0  0  0
  6 28  1  0  0  0  0
  6  7  1  0  0  0  0
  6 38  1  0  0  0  0
  7  8  1  0  0  0  0
  8  9  1  0  0  0  0
  8 23  1  0  0  0  0
  8 39  1  0  0  0  0
  9 22  1  0  0  0  0
  9 10  1  0  0  0  0
 10 11  1  0  0  0  0
 10 15  2  0  0  0  0
 11 12  1  0  0  0  0
 11 13  2  0  0  0  0
 11 14  2  0  0  0  0
 12 40  1  0  0  0  0
 12 41  1  0  0  0  0
 12 42  1  0  0  0  0
 15 16  1  0  0  0  0
 16 22  2  0  0  0  0
 16 17  1  0  0  0  0
 17 18  1  0  0  0  0
 17 19  2  0  0  0  0
 18 43  1  0  0  0  0
 18 44  1  0  0  0  0
 19 20  1  0  0  0  0
 20 21  2  0  0  0  0
 20 45  1  0  0  0  0
 21 22  1  0  0  0  0
 23 24  1  0  0  0  0
 23 28  1  0  0  0  0
 23 46  1  0  0  0  0
 24 25  1  0  0  0  0
 25 26  1  0  0  0  0
 25 27  2  0  0  0  0
 26 47  1  0  0  0  0
 26 48  1  0  0  0  0
 26 49  1  0  0  0  0
 28 29  1  0  0  0  0
 28 50  1  0  0  0  0
 29 30  1  0  0  0  0
 30 31  1  0  0  0  0
 30 32  2  0  0  0  0
 31 51  1  0  0  0  0
 31 52  1  0  0  0  0
 31 53  1  0  0  0  0
M  END
> <s_m_source_file>
AV-unprocessed.smi

> <i_m_source_file_index>
103

> <i_lp_mmshare_version>
43012

> <i_f3d_flags>
0

> <s_epik_input>
W0NIM11DKD1PKU9bQ0gyXVtDQEBIXTFPW0NASF0oW0NAQEhdKE9DKD1PKVtDSDNdKVtDQEhdMU9DKD1PKVtDSDNdKW4oYyhuMilTKD1PKSg9TylbQ0gzXSljKGMyMyluW2NIXW5jM1tOSDJd

> <s_epik_cmdline>
J2VwaWtfcHl0aG9uJywgJy1waCcsICc3LjAnLCAnLXRuJywgJzgnLCAnLW1hJywgJzIwMCcsICctbWV0YWxfYmluZGluZycsICctaW1hZScsICc8aW5maWxlLm1hZT4nLCAnLW9tYWUnLCAnPG91dGZpbGUubWFlPic=

> <r_lp_tautomer_probability>
1

> <r_epik_Ionization_Penalty>
1.51338e-05

> <r_epik_Ionization_Penalty_Charging>
0

> <r_epik_Ionization_Penalty_Neutral>
1.51338e-05

> <r_epik_State_Penalty>
-0

> <r_epik_Charging_Adjusted_Penalty>
0

> <i_epik_Tot_Q>
0

> <i_epik_Tot_abs_Q>
0

> <r_epik_Metal_State_Penalty>
-0

> <b_epik_Metal_Only>
0

> <s_epik_Chemistry_Notes>
This compound has an ester and may undergo hydrolysis at high or low pH. This compound contains an acetal/aminal-like group ( X-CH(R)-Y where X, Y are N, S, or O) that may be acid/base labile, releasing an aldehyde.

> <s_lp_Force_Field>
OPLS_2005

> <r_lp_Energy>
18.7655

> <b_lp_Chiralities_Consistent>
1

> <s_lp_Variant>
AV-unprocessed.smi:103-11

> <Gold.Version>
5.8.1

> <Gold.Id.Protein>
6NUR|6NUR_protein|mol2

> <Gold.PLP.Fitness>
45.1177

> <Gold.PLP.PLP>
-37.1457

> <Gold.PLP.part.hbond>
-5.4908

> <Gold.PLP.part.metal>
0.0000

> <Gold.PLP.part.buried>
-7.1295

> <Gold.PLP.part.nonpolar>
-24.8748

> <Gold.PLP.part.repulsive>
0.0707

> <Gold.PLP.ligand.clash>
0.0000

> <Gold.PLP.ligand.torsion>
2.8321

> <Gold.PLP.Chemscore.Hbond>
3.7360

> <Gold.PLP.Chemscore.CHOScore>
0.0000

> <Gold.PLP.Chemscore.Metal>
0.0000

> <Gold.Chemscore.Hbonds>
donor molecule, donor type, donor heavy atom, donor atom, acceptor molecule, acceptor atom, score
      P1  H  6931  6943       L1    13  0.99
      P1  H  6934  6947       L1    13  0.67
      P1  H  7989  7998       L1    32  1.00
      P1  H  7997  8009       L1     3  1.00

> <Gold.PLP.Chemscore.Internal.Correction>
2.4282

> <Gold.Rescore>
     Score         DG    S(hbond)    S(metal)    S(lipo)     H(rot)  DE(clash)    DE(int)     intcor
      6.18     -11.02       3.45        0.00      41.66       4.25       0.03       4.81       ----

> <Gold.Chemscore.Fitness>
6.1793

> <Gold.Chemscore.DG>
-11.0211

> <Gold.Chemscore.ZeroCoef>
-5.4800

> <Gold.Chemscore.Hbond>
3.4539

> <Gold.Chemscore.Metal>
0.0000

> <Gold.Chemscore.Lipo>
41.6555

> <Gold.Chemscore.Internal_Hbond>
0.0000

> <Gold.Chemscore.DEClash>
0.0270

> <Gold.Chemscore.DEInternal>
4.8149

> <Gold.Chemscore.Rot>
4.2456

> <Gold.Chemscore.Internal.Correction>
   9.000000E+99

> <Gold.Chemscore.Hbonds>
donor molecule, donor type, donor heavy atom, donor atom, acceptor molecule, acceptor atom, score
      P1  H  6931  6943       L1    13  0.94
      P1  H  6934  6946       L1    27  0.02
      P1  H  6934  6947       L1    13  0.63
      P1  H  7989  7998       L1    32  0.28
      P1  H  7997  8009       L1     3  0.94

> <Gold.Chemscore.Hbond.Weighted>
-11.5361

> <Gold.Chemscore.Metal.Weighted>
-0.0000

> <Gold.Chemscore.Lipo.Weighted>
-4.8737

> <Gold.Chemscore.Internal_Hbond.Weighted>
0.0000

> <Gold.Chemscore.DEClash.Weighted>
0.0270

> <Gold.Chemscore.DEInternal.Weighted>
4.8149

> <Gold.Chemscore.Rot.Weighted>
10.8687

> <Gold.Chemscore.Internal.Correction.Weighted>
   9.000000E+99

> <Gold.Protein.RotatedTorsions>
[ 6907 6896 6895 6894 ] final  -30.10 input  -60.11 | X-H torsion
[ 7974 7965 7964 7962 ] final  -55.16 input  175.53 | X-H torsion
[ 8008 7997 7996 7995 ] final  126.97 input   59.86 | X-H torsion
[ 10167 10162 10161 10158 ] final  -63.22 input  -65.29 | X-H torsion
[ 10718 10713 10712 10709 ] final  -86.01 input   66.30 | X-H torsion
[ 10763 10752 10751 10750 ] final -116.78 input  -60.55 | X-H torsion
[ 11005 11000 10999 10996 ] final  177.37 input  -57.11 | X-H torsion

> <Gold.Protein.ActiveResidues>
 VAL166  LYS551  ARG553  GLY616  TRP617  ASP618  TYR619  PRO620  LYS621  CYS622 
 ASP623  PHE694  ASN695  SER759  ASP760  ASP761  ALA762  ILE779  LEU786  VAL792 
 PHE793  MET794  SER795  GLU796  ALA797  LYS798  CYS799  TRP800  GLU811  SER814 

> <Gold.Protein.RotatedAtoms>
  151.1102  135.0022  159.8489 H   0  0  0  0  0  0  0  0  0  0  0  0  # atno 6907 bound_to 6896
  152.5442  134.1845  159.8659 H   0  0  0  0  0  0  0  0  0  0  0  0  # atno 6908 bound_to 6896
  151.1895  133.4631  159.2628 H   0  0  0  0  0  0  0  0  0  0  0  0  # atno 6909 bound_to 6896
  145.8774  140.8170  142.9857 H   0  0  0  0  0  0  0  0  0  0  0  0  # atno 7974 bound_to 7965
  156.2878  140.2680  156.2197 H   0  0  0  0  0  0  0  0  0  0  0  0  # atno 8008 bound_to 7997
  155.0180  140.0387  157.2444 H   0  0  0  0  0  0  0  0  0  0  0  0  # atno 8009 bound_to 7997
  154.7460  140.2734  155.6338 H   0  0  0  0  0  0  0  0  0  0  0  0  # atno 8010 bound_to 7997
  140.5885  143.2338  151.6190 H   0  0  0  0  0  0  0  0  0  0  0  0  # atno 10167 bound_to 10162
  155.9992  130.4750  150.4650 H   0  0  0  0  0  0  0  0  0  0  0  0  # atno 10718 bound_to 10713
  154.8532  135.4333  154.1876 H   0  0  0  0  0  0  0  0  0  0  0  0  # atno 10763 bound_to 10752
  153.2952  135.6964  153.7261 H   0  0  0  0  0  0  0  0  0  0  0  0  # atno 10764 bound_to 10752
  153.6413  135.3467  155.3046 H   0  0  0  0  0  0  0  0  0  0  0  0  # atno 10765 bound_to 10752
  140.3834  134.6926  157.4464 H   0  0  0  0  0  0  0  0  0  0  0  0  # atno 11005 bound_to 11000
  144.6726  140.1331  143.7442 LP  0  0  0  0  0  0  0  0  0  0  0  0  # atno 17320 bound_to 7965
  145.9065  139.2461  143.1463 LP  0  0  0  0  0  0  0  0  0  0  0  0  # atno 17321 bound_to 7965
  139.5213  144.3198  152.0921 LP  0  0  0  0  0  0  0  0  0  0  0  0  # atno 17342 bound_to 10162
  140.2358  144.4320  150.6280 LP  0  0  0  0  0  0  0  0  0  0  0  0  # atno 17343 bound_to 10162
  157.2670  131.0579  151.2284 LP  0  0  0  0  0  0  0  0  0  0  0  0  # atno 17370 bound_to 10713
  157.3378  130.7018  149.6363 LP  0  0  0  0  0  0  0  0  0  0  0  0  # atno 17371 bound_to 10713
  140.0461  134.6197  155.8919 LP  0  0  0  0  0  0  0  0  0  0  0  0  # atno 17394 bound_to 11000
  141.1916  133.6572  156.5462 LP  0  0  0  0  0  0  0  0  0  0  0  0  # atno 17395 bound_to 11000

$$$$
