AV-unprocessed.smi:1381|AV-procd|sdf|5619|dock9
  -GOLD-   22720 5233D 1   1.00000     0.00000
 Structure written by MMmdl.
 42 43  0  0  0  0  0  0  0  0  3 V2000
  147.5885  136.6496  163.0674 C   0  0  0  0  0  0  0  0  0  0  0  0
  147.3045  136.6782  161.6048 C   0  0  0  0  0  0  0  0  0  0  0  0
  147.7709  135.9430  160.5517 C   0  0  0  0  0  0  0  0  0  0  0  0
  147.0834  136.5010  159.4409 C   0  0  0  0  0  0  0  0  0  0  0  0
  147.2985  135.9983  158.1303 N   0  0  0  0  0  0  0  0  0  0  0  0
  148.2707  135.1782  157.6904 C   0  0  0  0  0  0  0  0  0  0  0  0
  149.1323  134.7556  158.4703 O   0  0  0  0  0  0  0  0  0  0  0  0
  148.1567  134.9151  156.3598 N   0  5  0  0  0  0  0  0  0  0  0  0
  148.9317  135.5786  155.3103 C   0  0  0  0  0  0  0  0  0  0  0  0
  148.5854  137.0784  155.2760 C   0  0  0  0  0  0  0  0  0  0  0  0
  149.3059  137.7836  154.1791 N   0  3  1  0  0  0  0  0  0  0  0  0
  148.8268  139.1637  153.9092 C   0  0  0  0  0  0  0  0  0  0  0  0
  149.3778  140.1628  154.9497 C   0  0  2  0  0  0  0  0  0  0  0  0
  148.9929  141.6091  154.6192 C   0  0  0  0  0  0  0  0  0  0  0  0
  150.7992  140.0765  154.9770 O   0  0  0  0  0  0  0  0  0  0  0  0
  151.2672  138.7843  155.3503 C   0  0  2  0  0  0  0  0  0  0  0  0
  152.7965  138.8374  155.4392 C   0  0  0  0  0  0  0  0  0  0  0  0
  150.7832  137.7587  154.3064 C   0  0  0  0  0  0  0  0  0  0  0  0
  146.2679  137.4861  159.7870 N   0  0  0  0  0  0  0  0  0  0  0  0
  146.4061  137.6052  161.1750 O   0  0  0  0  0  0  0  0  0  0  0  0
  148.2894  135.8516  163.3133 H   0  0  0  0  0  0  0  0  0  0  0  0
  146.6730  136.4825  163.6350 H   0  0  0  0  0  0  0  0  0  0  0  0
  148.0233  137.5941  163.3943 H   0  0  0  0  0  0  0  0  0  0  0  0
  148.4896  135.1375  160.5738 H   0  0  0  0  0  0  0  0  0  0  0  0
  146.6260  136.2907  157.4374 H   0  0  0  0  0  0  0  0  0  0  0  0
  150.0072  135.4722  155.4573 H   0  0  0  0  0  0  0  0  0  0  0  0
  148.7208  135.1485  154.3311 H   0  0  0  0  0  0  0  0  0  0  0  0
  147.5076  137.1997  155.1659 H   0  0  0  0  0  0  0  0  0  0  0  0
  148.8316  137.5187  156.2438 H   0  0  0  0  0  0  0  0  0  0  0  0
  149.1649  139.4504  152.9125 H   0  0  0  0  0  0  0  0  0  0  0  0
  147.7364  139.1889  153.8835 H   0  0  0  0  0  0  0  0  0  0  0  0
  148.9896  139.9265  155.9416 H   0  0  0  0  0  0  0  0  0  0  0  0
  147.9097  141.7314  154.5962 H   0  0  0  0  0  0  0  0  0  0  0  0
  149.3847  141.9108  153.6472 H   0  0  0  0  0  0  0  0  0  0  0  0
  149.3886  142.2980  155.3661 H   0  0  0  0  0  0  0  0  0  0  0  0
  150.8738  138.5296  156.3359 H   0  0  0  0  0  0  0  0  0  0  0  0
  153.2061  137.8705  155.7328 H   0  0  0  0  0  0  0  0  0  0  0  0
  153.1191  139.5726  156.1770 H   0  0  0  0  0  0  0  0  0  0  0  0
  153.2390  139.1118  154.4810 H   0  0  0  0  0  0  0  0  0  0  0  0
  151.1248  136.7523  154.5529 H   0  0  0  0  0  0  0  0  0  0  0  0
  151.2125  137.9968  153.3323 H   0  0  0  0  0  0  0  0  0  0  0  0
  149.0917  137.2335  153.3582 H   0  0  0  0  0  0  0  0  0  0  0  0
  1  2  1  0  0  0  0
  1 21  1  0  0  0  0
  1 22  1  0  0  0  0
  1 23  1  0  0  0  0
  2 20  1  0  0  0  0
  2  3  2  0  0  0  0
  3  4  1  0  0  0  0
  3 24  1  0  0  0  0
  4  5  1  0  0  0  0
  4 19  2  0  0  0  0
  5  6  1  0  0  0  0
  5 25  1  0  0  0  0
  6  7  2  0  0  0  0
  6  8  1  0  0  0  0
  8  9  1  0  0  0  0
  9 10  1  0  0  0  0
  9 26  1  0  0  0  0
  9 27  1  0  0  0  0
 10 11  1  0  0  0  0
 10 28  1  0  0  0  0
 10 29  1  0  0  0  0
 11 18  1  0  0  0  0
 11 12  1  0  0  0  0
 11 42  1  0  0  0  0
 12 13  1  0  0  0  0
 12 30  1  0  0  0  0
 12 31  1  0  0  0  0
 13 14  1  0  0  0  0
 13 15  1  0  0  0  0
 13 32  1  0  0  0  0
 14 33  1  0  0  0  0
 14 34  1  0  0  0  0
 14 35  1  0  0  0  0
 15 16  1  0  0  0  0
 16 17  1  0  0  0  0
 16 18  1  0  0  0  0
 16 36  1  0  0  0  0
 17 37  1  0  0  0  0
 17 38  1  0  0  0  0
 17 39  1  0  0  0  0
 18 40  1  0  0  0  0
 18 41  1  0  0  0  0
 19 20  1  0  0  0  0
M  CHG  1   8  -1
M  CHG  1  11   1
M  END
> <s_m_source_file>
AV-unprocessed.smi

> <i_m_source_file_index>
1381

> <i_lp_mmshare_version>
43012

> <i_f3d_flags>
0

> <s_epik_input>
W0NIM11jMVtjSF1jKG5vMSlbTkhdQyg9TylbTkhdW0NIMl1bQ0gyXU4yW0NIMl1bQ0BASF0oW0NIM10pT1tDQEBIXShbQ0gzXSlbQ0gyXTI=

> <s_epik_cmdline>
J2VwaWtfcHl0aG9uJywgJy1waCcsICc3LjAnLCAnLXRuJywgJzgnLCAnLW1hJywgJzIwMCcsICctbWV0YWxfYmluZGluZycsICctaW1hZScsICc8aW5maWxlLm1hZT4nLCAnLW9tYWUnLCAnPG91dGZpbGUubWFlPic=

> <r_epik_Ionization_Penalty>
6.8073

> <r_epik_Ionization_Penalty_Charging>
6.80729

> <r_epik_Ionization_Penalty_Neutral>
5.65391e-06

> <r_epik_State_Penalty>
7.47323

> <r_epik_Charging_Adjusted_Penalty>
14.2805

> <i_epik_Tot_Q>
0

> <i_epik_Tot_abs_Q>
2

> <r_epik_Metal_State_Penalty>
3.40035

> <b_epik_Metal_Only>
1

> <s_lp_Force_Field>
OPLS_2005

> <r_lp_Energy>
13.1386

> <b_lp_Chiralities_Consistent>
1

> <s_lp_Variant>
AV-unprocessed.smi:1381-18

> <Gold.Version>
5.8.1

> <Gold.Id.Protein>
6NUR|6NUR_protein|mol2

> <Gold.PLP.Fitness>
43.1896

> <Gold.PLP.PLP>
-31.7273

> <Gold.PLP.part.hbond>
-5.0000

> <Gold.PLP.part.metal>
0.0000

> <Gold.PLP.part.buried>
-1.5775

> <Gold.PLP.part.nonpolar>
-26.0817

> <Gold.PLP.part.repulsive>
0.0697

> <Gold.PLP.ligand.clash>
0.0000

> <Gold.PLP.ligand.torsion>
0.8128

> <Gold.PLP.Chemscore.Hbond>
4.3500

> <Gold.PLP.Chemscore.CHOScore>
0.0000

> <Gold.PLP.Chemscore.Metal>
0.0000

> <Gold.Chemscore.Hbonds>
donor molecule, donor type, donor heavy atom, donor atom, acceptor molecule, acceptor atom, score
      L1  H    11    42       P1  7948  2.00
      P1  H  6896  6908       L1     7  1.00
      P1  H  6934  6947       L1    20  0.45
      P1  H  7989  7998       L1    15  1.00

> <Gold.PLP.Chemscore.Internal.Correction>
0.0379

> <Gold.Rescore>
     Score         DG    S(hbond)    S(metal)    S(lipo)     H(rot)  DE(clash)    DE(int)     intcor
     17.55     -19.90       2.90        0.00      75.00       1.58       0.08       2.26       ----

> <Gold.Chemscore.Fitness>
17.5545

> <Gold.Chemscore.DG>
-19.8972

> <Gold.Chemscore.ZeroCoef>
-5.4800

> <Gold.Chemscore.Hbond>
2.8996

> <Gold.Chemscore.Metal>
0.0000

> <Gold.Chemscore.Lipo>
75.0039

> <Gold.Chemscore.Internal_Hbond>
0.0000

> <Gold.Chemscore.DEClash>
0.0834

> <Gold.Chemscore.DEInternal>
2.2593

> <Gold.Chemscore.Rot>
1.5792

> <Gold.Chemscore.Internal.Correction>
   9.000000E+99

> <Gold.Chemscore.Hbonds>
donor molecule, donor type, donor heavy atom, donor atom, acceptor molecule, acceptor atom, score
      L1  H    11    42       P1  7948  1.00
      P1  H  6896  6908       L1     7  1.00
      P1  H  6934  6947       L1    20  0.01
      P1  H  7989  7998       L1    15  0.83

> <Gold.Chemscore.Hbond.Weighted>
-9.6846

> <Gold.Chemscore.Metal.Weighted>
-0.0000

> <Gold.Chemscore.Lipo.Weighted>
-8.7755

> <Gold.Chemscore.Internal_Hbond.Weighted>
0.0000

> <Gold.Chemscore.DEClash.Weighted>
0.0834

> <Gold.Chemscore.DEInternal.Weighted>
2.2593

> <Gold.Chemscore.Rot.Weighted>
4.0428

> <Gold.Chemscore.Internal.Correction.Weighted>
   9.000000E+99

> <Gold.Protein.RotatedTorsions>
[ 6907 6896 6895 6894 ] final  148.85 input  -60.11 | X-H torsion
[ 7974 7965 7964 7962 ] final -119.97 input  175.53 | X-H torsion
[ 8008 7997 7996 7995 ] final -151.08 input   59.86 | X-H torsion
[ 10167 10162 10161 10158 ] final  -52.71 input  -65.29 | X-H torsion
[ 10718 10713 10712 10709 ] final  -45.13 input   66.30 | X-H torsion
[ 10763 10752 10751 10750 ] final  -57.59 input  -60.55 | X-H torsion
[ 11005 11000 10999 10996 ] final -127.99 input  -57.11 | X-H torsion

> <Gold.Protein.ActiveResidues>
 VAL166  LYS551  ARG553  GLY616  TRP617  ASP618  TYR619  PRO620  LYS621  CYS622 
 ASP623  PHE694  ASN695  SER759  ASP760  ASP761  ALA762  ILE779  LEU786  VAL792 
 PHE793  MET794  SER795  GLU796  ALA797  LYS798  CYS799  TRP800  GLU811  SER814 

> <Gold.Protein.RotatedAtoms>
  152.1359  133.4435  159.4743 H   0  0  0  0  0  0  0  0  0  0  0  0  # atno 6907 bound_to 6896
  150.6882  134.2364  159.4464 H   0  0  0  0  0  0  0  0  0  0  0  0  # atno 6908 bound_to 6896
  152.0251  134.9800  160.0622 H   0  0  0  0  0  0  0  0  0  0  0  0  # atno 6909 bound_to 6896
  145.0566  140.8258  143.4177 H   0  0  0  0  0  0  0  0  0  0  0  0  # atno 7974 bound_to 7965
  155.6337  140.0694  157.2641 H   0  0  0  0  0  0  0  0  0  0  0  0  # atno 8008 bound_to 7997
  154.4200  140.1763  156.1548 H   0  0  0  0  0  0  0  0  0  0  0  0  # atno 8009 bound_to 7997
  155.9912  140.3345  155.6758 H   0  0  0  0  0  0  0  0  0  0  0  0  # atno 8010 bound_to 7997
  140.6523  143.2575  151.4687 H   0  0  0  0  0  0  0  0  0  0  0  0  # atno 10167 bound_to 10162
  156.2314  130.4173  149.8870 H   0  0  0  0  0  0  0  0  0  0  0  0  # atno 10718 bound_to 10713
  154.2248  135.6371  153.5156 H   0  0  0  0  0  0  0  0  0  0  0  0  # atno 10763 bound_to 10752
  152.9961  135.5505  154.6076 H   0  0  0  0  0  0  0  0  0  0  0  0  # atno 10764 bound_to 10752
  154.5545  135.2904  155.0952 H   0  0  0  0  0  0  0  0  0  0  0  0  # atno 10765 bound_to 10752
  140.9554  134.1009  157.4021 H   0  0  0  0  0  0  0  0  0  0  0  0  # atno 11005 bound_to 11000
  145.1461  139.2542  143.5465 LP  0  0  0  0  0  0  0  0  0  0  0  0  # atno 17320 bound_to 7965
  146.3522  140.1151  142.8602 LP  0  0  0  0  0  0  0  0  0  0  0  0  # atno 17321 bound_to 7965
  139.5740  144.1862  152.1877 LP  0  0  0  0  0  0  0  0  0  0  0  0  # atno 17342 bound_to 10162
  140.1167  144.5410  150.6889 LP  0  0  0  0  0  0  0  0  0  0  0  0  # atno 17343 bound_to 10162
  156.6482  130.8733  151.3526 LP  0  0  0  0  0  0  0  0  0  0  0  0  # atno 17370 bound_to 10713
  157.7135  130.9468  150.1171 LP  0  0  0  0  0  0  0  0  0  0  0  0  # atno 17371 bound_to 10713
  139.8860  135.0078  156.6474 LP  0  0  0  0  0  0  0  0  0  0  0  0  # atno 17394 bound_to 11000
  140.7544  133.8870  155.8371 LP  0  0  0  0  0  0  0  0  0  0  0  0  # atno 17395 bound_to 11000

$$$$
