AV-unprocessed.smi:790|AV-procd|sdf|3744|dock5
  -GOLD-   22720 1173D 1   1.00000     0.00000
 Structure written by MMmdl.
 38 40  0  0  0  0  0  0  0  0  1 V2000
  146.0496  137.3332  154.5425 O   0  0  0  0  0  0  0  0  0  0  0  0
  146.9726  137.0256  153.7891 C   0  0  0  0  0  0  0  0  0  0  0  0
  148.0857  137.7514  153.5864 N   0  0  0  0  0  0  0  0  0  0  0  0
  148.4295  139.0208  154.1255 C   0  0  0  0  0  0  0  0  0  0  0  0
  147.5164  140.0888  154.3019 C   0  0  0  0  0  0  0  0  0  0  0  0
  147.9880  141.3063  154.8294 C   0  0  0  0  0  0  0  0  0  0  0  0
  149.3539  141.4152  155.1539 C   0  0  0  0  0  0  0  0  0  0  0  0
  150.2379  140.4103  154.9795 N   0  0  0  0  0  0  0  0  0  0  0  0
  149.7785  139.2460  154.4735 C   0  0  0  0  0  0  0  0  0  0  0  0
  147.0003  135.8955  153.0696 N   0  0  0  0  0  0  0  0  0  0  0  0
  145.9588  134.8658  153.0464 C   0  0  2  0  0  0  0  0  0  0  0  0
  146.5410  133.4301  153.0080 C   0  0  2  0  0  0  0  0  0  0  0  0
  147.6182  133.2879  151.9116 C   0  0  0  0  0  0  0  0  0  0  0  0
  146.7906  133.3765  150.6165 C   0  0  0  0  0  0  0  0  0  0  0  0
  145.3440  133.5121  151.1378 C   0  0  1  0  0  0  0  0  0  0  0  0
  145.3955  132.6378  152.3853 C   0  0  0  0  0  0  0  0  0  0  0  0
  145.0774  134.9018  151.7663 C   0  0  2  0  0  0  0  0  0  0  0  0
  145.2423  136.1183  150.8274 C   0  0  0  0  0  0  0  0  0  0  0  0
  144.4563  135.9507  149.6666 O   0  0  0  0  0  0  0  0  0  0  0  0
  148.7927  137.3250  153.0055 H   0  0  0  0  0  0  0  0  0  0  0  0
  146.4750  140.0073  154.0329 H   0  0  0  0  0  0  0  0  0  0  0  0
  147.3175  142.1401  154.9771 H   0  0  0  0  0  0  0  0  0  0  0  0
  149.7478  142.3358  155.5586 H   0  0  0  0  0  0  0  0  0  0  0  0
  150.5147  138.4656  154.3450 H   0  0  0  0  0  0  0  0  0  0  0  0
  147.8070  135.7291  152.4860 H   0  0  0  0  0  0  0  0  0  0  0  0
  145.3074  134.9586  153.9175 H   0  0  0  0  0  0  0  0  0  0  0  0
  146.8674  133.0684  153.9835 H   0  0  0  0  0  0  0  0  0  0  0  0
  148.4049  134.0405  151.9636 H   0  0  0  0  0  0  0  0  0  0  0  0
  148.1026  132.3131  151.9817 H   0  0  0  0  0  0  0  0  0  0  0  0
  147.0979  134.2027  149.9771 H   0  0  0  0  0  0  0  0  0  0  0  0
  146.9028  132.4604  150.0353 H   0  0  0  0  0  0  0  0  0  0  0  0
  144.5893  133.2136  150.4093 H   0  0  0  0  0  0  0  0  0  0  0  0
  145.6498  131.5970  152.1755 H   0  0  0  0  0  0  0  0  0  0  0  0
  144.4777  132.6658  152.9757 H   0  0  0  0  0  0  0  0  0  0  0  0
  144.0369  134.9097  152.0976 H   0  0  0  0  0  0  0  0  0  0  0  0
  144.9112  137.0263  151.3325 H   0  0  0  0  0  0  0  0  0  0  0  0
  146.2798  136.2800  150.5371 H   0  0  0  0  0  0  0  0  0  0  0  0
  145.0272  135.9510  148.9134 H   0  0  0  0  0  0  0  0  0  0  0  0
  1  2  2  0  0  0  0
  2  3  1  0  0  0  0
  2 10  1  0  0  0  0
  3  4  1  0  0  0  0
  3 20  1  0  0  0  0
  4  9  1  0  0  0  0
  4  5  2  0  0  0  0
  5  6  1  0  0  0  0
  5 21  1  0  0  0  0
  6  7  2  0  0  0  0
  6 22  1  0  0  0  0
  7  8  1  0  0  0  0
  7 23  1  0  0  0  0
  8  9  2  0  0  0  0
  9 24  1  0  0  0  0
 10 11  1  0  0  0  0
 10 25  1  0  0  0  0
 11 17  1  0  0  0  0
 11 12  1  0  0  0  0
 11 26  1  0  0  0  0
 12 16  1  0  0  0  0
 12 13  1  0  0  0  0
 12 27  1  0  0  0  0
 13 14  1  0  0  0  0
 13 28  1  0  0  0  0
 13 29  1  0  0  0  0
 14 15  1  0  0  0  0
 14 30  1  0  0  0  0
 14 31  1  0  0  0  0
 15 16  1  0  0  0  0
 15 17  1  0  0  0  0
 15 32  1  0  0  0  0
 16 33  1  0  0  0  0
 16 34  1  0  0  0  0
 17 18  1  0  0  0  0
 17 35  1  0  0  0  0
 18 19  1  0  0  0  0
 18 36  1  0  0  0  0
 18 37  1  0  0  0  0
 19 38  1  0  0  0  0
M  END
> <s_m_source_file>
AV-unprocessed.smi

> <i_m_source_file_index>
790

> <i_lp_mmshare_version>
43012

> <i_f3d_flags>
0

> <s_epik_input>
W0NIMl0xW0NIMl1bQ0BASF0oW0NIMl0yKVtDQEBIXShbQ0gyXVtPSF0pW0NAQEhdKFtDQEhdMTIpW05IXUMoPU8pW05IXWMzW2NIXVtjSF1bY0hdbltjSF0z

> <s_epik_cmdline>
J2VwaWtfcHl0aG9uJywgJy1waCcsICc3LjAnLCAnLXRuJywgJzgnLCAnLW1hJywgJzIwMCcsICctbWV0YWxfYmluZGluZycsICctaW1hZScsICc8aW5maWxlLm1hZT4nLCAnLW9tYWUnLCAnPG91dGZpbGUubWFlPic=

> <r_epik_Ionization_Penalty>
0.00497582

> <r_epik_Ionization_Penalty_Charging>
0

> <r_epik_Ionization_Penalty_Neutral>
0.00497582

> <r_epik_State_Penalty>
0.00358602

> <r_epik_Charging_Adjusted_Penalty>
0.00358602

> <i_epik_Tot_Q>
0

> <i_epik_Tot_abs_Q>
0

> <r_epik_Metal_State_Penalty>
-0

> <b_epik_Metal_Only>
0

> <s_lp_Force_Field>
OPLS_2005

> <r_lp_Energy>
54.3883

> <b_lp_Chiralities_Consistent>
1

> <s_lp_Variant>
AV-unprocessed.smi:790-5

> <Gold.Version>
5.8.1

> <Gold.Id.Protein>
6NUR|6NUR_protein|mol2

> <Gold.PLP.Fitness>
43.7967

> <Gold.PLP.PLP>
-30.9009

> <Gold.PLP.part.hbond>
-4.6825

> <Gold.PLP.part.metal>
0.0000

> <Gold.PLP.part.buried>
-0.9776

> <Gold.PLP.part.nonpolar>
-25.8925

> <Gold.PLP.part.repulsive>
0.2197

> <Gold.PLP.ligand.clash>
0.0000

> <Gold.PLP.ligand.torsion>
0.5529

> <Gold.PLP.Chemscore.Hbond>
3.6636

> <Gold.PLP.Chemscore.CHOScore>
1.0000

> <Gold.PLP.Chemscore.Metal>
0.0000

> <Gold.Chemscore.Hbonds>
donor molecule, donor type, donor heavy atom, donor atom, acceptor molecule, acceptor atom, score
      L1  H     3    20       P1  7948  0.85
      L1  H    10    25       P1  7948  0.63
      L1  H    19    38       P1  7921  0.94
      P1  H  7989  7998       L1     8  0.83
      L1  C     7    23       P1  8028  0.99

> <Gold.PLP.Chemscore.Internal.Correction>
0.0109

> <Gold.Rescore>
     Score         DG    S(hbond)    S(metal)    S(lipo)     H(rot)  DE(clash)    DE(int)     intcor
     18.98     -20.50       3.40        0.00      70.29       1.78       0.43       1.09       ----

> <Gold.Chemscore.Fitness>
18.9848

> <Gold.Chemscore.DG>
-20.5040

> <Gold.Chemscore.ZeroCoef>
-5.4800

> <Gold.Chemscore.Hbond>
3.3989

> <Gold.Chemscore.Metal>
0.0000

> <Gold.Chemscore.Lipo>
70.2937

> <Gold.Chemscore.Internal_Hbond>
0.0000

> <Gold.Chemscore.DEClash>
0.4281

> <Gold.Chemscore.DEInternal>
1.0911

> <Gold.Chemscore.Rot>
1.7783

> <Gold.Chemscore.Internal.Correction>
   9.000000E+99

> <Gold.Chemscore.Hbonds>
donor molecule, donor type, donor heavy atom, donor atom, acceptor molecule, acceptor atom, score
      L1  H     3    20       P1  7948  0.81
      L1  H    10    25       P1  7948  0.59
      L1  H    19    38       P1  7921  0.86
      P1  H  7989  7998       L1     8  0.14

> <Gold.Chemscore.Hbond.Weighted>
-11.3522

> <Gold.Chemscore.Metal.Weighted>
-0.0000

> <Gold.Chemscore.Lipo.Weighted>
-8.2244

> <Gold.Chemscore.Internal_Hbond.Weighted>
0.0000

> <Gold.Chemscore.DEClash.Weighted>
0.4281

> <Gold.Chemscore.DEInternal.Weighted>
1.0911

> <Gold.Chemscore.Rot.Weighted>
4.5525

> <Gold.Chemscore.Internal.Correction.Weighted>
   9.000000E+99

> <Gold.Protein.RotatedTorsions>
[ 6907 6896 6895 6894 ] final -162.74 input  -60.11 | X-H torsion
[ 7974 7965 7964 7962 ] final   -8.64 input  175.53 | X-H torsion
[ 8008 7997 7996 7995 ] final -167.51 input   59.86 | X-H torsion
[ 10167 10162 10161 10158 ] final   37.57 input  -65.29 | X-H torsion
[ 10718 10713 10712 10709 ] final -100.50 input   66.30 | X-H torsion
[ 10763 10752 10751 10750 ] final   55.02 input  -60.55 | X-H torsion
[ 11005 11000 10999 10996 ] final   94.36 input  -57.11 | X-H torsion

> <Gold.Protein.ActiveResidues>
 VAL166  LYS551  ARG553  GLY616  TRP617  ASP618  TYR619  PRO620  LYS621  CYS622 
 ASP623  PHE694  ASN695  SER759  ASP760  ASP761  ALA762  ILE779  LEU786  VAL792 
 PHE793  MET794  SER795  GLU796  ALA797  LYS798  CYS799  TRP800  GLU811  SER814 

> <Gold.Protein.RotatedAtoms>
  151.3851  133.3808  159.2714 H   0  0  0  0  0  0  0  0  0  0  0  0  # atno 6907 bound_to 6896
  150.9548  134.8944  159.7704 H   0  0  0  0  0  0  0  0  0  0  0  0  # atno 6908 bound_to 6896
  152.5126  134.3808  159.9402 H   0  0  0  0  0  0  0  0  0  0  0  0  # atno 6909 bound_to 6896
  146.2274  140.2499  142.8347 H   0  0  0  0  0  0  0  0  0  0  0  0  # atno 7974 bound_to 7965
  155.8787  140.1005  157.1500 H   0  0  0  0  0  0  0  0  0  0  0  0  # atno 8008 bound_to 7997
  154.4003  140.1333  156.4232 H   0  0  0  0  0  0  0  0  0  0  0  0  # atno 8009 bound_to 7997
  155.7668  140.3462  155.5228 H   0  0  0  0  0  0  0  0  0  0  0  0  # atno 8010 bound_to 7997
  140.4020  144.1711  150.6134 H   0  0  0  0  0  0  0  0  0  0  0  0  # atno 10167 bound_to 10162
  156.0165  130.5331  150.6826 H   0  0  0  0  0  0  0  0  0  0  0  0  # atno 10718 bound_to 10713
  152.9811  135.5725  154.4999 H   0  0  0  0  0  0  0  0  0  0  0  0  # atno 10763 bound_to 10752
  154.4520  135.2779  155.1776 H   0  0  0  0  0  0  0  0  0  0  0  0  # atno 10764 bound_to 10752
  154.3400  135.6231  153.5645 H   0  0  0  0  0  0  0  0  0  0  0  0  # atno 10765 bound_to 10752
  139.8799  134.8841  156.3852 H   0  0  0  0  0  0  0  0  0  0  0  0  # atno 11005 bound_to 11000
  144.9420  140.8088  143.5625 LP  0  0  0  0  0  0  0  0  0  0  0  0  # atno 17320 bound_to 7965
  145.2451  139.2055  143.4972 LP  0  0  0  0  0  0  0  0  0  0  0  0  # atno 17321 bound_to 7965
  140.4730  143.2406  151.9062 LP  0  0  0  0  0  0  0  0  0  0  0  0  # atno 17342 bound_to 10162
  139.4784  144.5350  151.8612 LP  0  0  0  0  0  0  0  0  0  0  0  0  # atno 17343 bound_to 10162
  157.4525  131.0874  151.0831 LP  0  0  0  0  0  0  0  0  0  0  0  0  # atno 17370 bound_to 10713
  157.1342  130.6115  149.5537 LP  0  0  0  0  0  0  0  0  0  0  0  0  # atno 17371 bound_to 10713
  140.9371  133.7540  156.0099 LP  0  0  0  0  0  0  0  0  0  0  0  0  # atno 17394 bound_to 11000
  140.8263  134.3231  157.5364 LP  0  0  0  0  0  0  0  0  0  0  0  0  # atno 17395 bound_to 11000

$$$$
