AV-unprocessed.smi:3003|AV-procd|sdf|11437|dock6
  -GOLD-   2272016363D 1   1.00000     0.00000
 Structure written by MMmdl.
 41 42  0  0  0  0  0  0  0  0  1 V2000
  143.5994  134.3922  151.7976 C   0  0  0  0  0  0  0  0  0  0  0  0
  144.6542  135.6922  151.1008 S   0  0  0  0  0  0  0  0  0  0  0  0
  144.8779  136.7715  152.5471 C   0  0  2  0  0  0  0  0  0  0  0  0
  143.5211  137.3256  153.0091 C   0  0  0  0  0  0  0  0  0  0  0  0
  145.8672  137.9092  152.2672 C   0  0  0  0  0  0  0  0  0  0  0  0
  146.4125  138.0020  151.1668 O   0  0  0  0  0  0  0  0  0  0  0  0
  146.1016  138.7618  153.2773 N   0  0  0  0  0  0  0  0  0  0  0  0
  147.0305  139.8851  153.2199 C   0  0  0  0  0  0  0  0  0  0  0  0
  148.1416  139.7982  154.2531 C   0  0  0  0  0  0  0  0  0  0  0  0
  148.1640  140.6458  155.3785 C   0  0  0  0  0  0  0  0  0  0  0  0
  149.2145  140.5207  156.3073 C   0  0  0  0  0  0  0  0  0  0  0  0
  150.2230  139.5530  156.0833 C   0  0  0  0  0  0  0  0  0  0  0  0
  151.2863  139.4090  157.0011 N   0  0  0  0  0  0  0  0  0  0  0  0
  151.9230  140.6499  157.4359 C   0  0  0  0  0  0  0  0  0  0  0  0
  152.8325  140.3885  158.6489 C   0  0  0  0  0  0  0  0  0  0  0  0
  153.7724  139.3659  158.3364 O   0  0  0  0  0  0  0  0  0  0  0  0
  153.1305  138.1346  158.0234 C   0  0  0  0  0  0  0  0  0  0  0  0
  152.2343  138.3167  156.7872 C   0  0  0  0  0  0  0  0  0  0  0  0
  150.1964  138.7403  154.9977 N   0  0  0  0  0  0  0  0  0  0  0  0
  149.1867  138.8639  154.1108 C   0  0  0  0  0  0  0  0  0  0  0  0
  143.3146  133.6850  151.0190 H   0  0  0  0  0  0  0  0  0  0  0  0
  142.6924  134.8215  152.2226 H   0  0  0  0  0  0  0  0  0  0  0  0
  144.1276  133.8454  152.5775 H   0  0  0  0  0  0  0  0  0  0  0  0
  145.2738  136.1509  153.3525 H   0  0  0  0  0  0  0  0  0  0  0  0
  143.6324  137.9782  153.8760 H   0  0  0  0  0  0  0  0  0  0  0  0
  142.8482  136.5163  153.2943 H   0  0  0  0  0  0  0  0  0  0  0  0
  143.0311  137.8983  152.2204 H   0  0  0  0  0  0  0  0  0  0  0  0
  145.6114  138.6158  154.1479 H   0  0  0  0  0  0  0  0  0  0  0  0
  147.4512  139.9714  152.2165 H   0  0  0  0  0  0  0  0  0  0  0  0
  146.4683  140.8021  153.3977 H   0  0  0  0  0  0  0  0  0  0  0  0
  147.3865  141.3792  155.5339 H   0  0  0  0  0  0  0  0  0  0  0  0
  149.2254  141.1538  157.1817 H   0  0  0  0  0  0  0  0  0  0  0  0
  152.5112  141.0510  156.6094 H   0  0  0  0  0  0  0  0  0  0  0  0
  151.1904  141.4107  157.7011 H   0  0  0  0  0  0  0  0  0  0  0  0
  153.3725  141.2971  158.9151 H   0  0  0  0  0  0  0  0  0  0  0  0
  152.2434  140.1018  159.5216 H   0  0  0  0  0  0  0  0  0  0  0  0
  153.8901  137.3778  157.8276 H   0  0  0  0  0  0  0  0  0  0  0  0
  152.5482  137.7875  158.8786 H   0  0  0  0  0  0  0  0  0  0  0  0
  151.7012  137.3861  156.5880 H   0  0  0  0  0  0  0  0  0  0  0  0
  152.8468  138.5367  155.9118 H   0  0  0  0  0  0  0  0  0  0  0  0
  149.2146  138.1927  153.2652 H   0  0  0  0  0  0  0  0  0  0  0  0
  1  2  1  0  0  0  0
  1 21  1  0  0  0  0
  1 22  1  0  0  0  0
  1 23  1  0  0  0  0
  2  3  1  0  0  0  0
  3  4  1  0  0  0  0
  3  5  1  0  0  0  0
  3 24  1  0  0  0  0
  4 25  1  0  0  0  0
  4 26  1  0  0  0  0
  4 27  1  0  0  0  0
  5  6  2  0  0  0  0
  5  7  1  0  0  0  0
  7  8  1  0  0  0  0
  7 28  1  0  0  0  0
  8  9  1  0  0  0  0
  8 29  1  0  0  0  0
  8 30  1  0  0  0  0
  9 20  1  0  0  0  0
  9 10  2  0  0  0  0
 10 11  1  0  0  0  0
 10 31  1  0  0  0  0
 11 12  2  0  0  0  0
 11 32  1  0  0  0  0
 12 13  1  0  0  0  0
 12 19  1  0  0  0  0
 13 18  1  0  0  0  0
 13 14  1  0  0  0  0
 14 15  1  0  0  0  0
 14 33  1  0  0  0  0
 14 34  1  0  0  0  0
 15 16  1  0  0  0  0
 15 35  1  0  0  0  0
 15 36  1  0  0  0  0
 16 17  1  0  0  0  0
 17 18  1  0  0  0  0
 17 37  1  0  0  0  0
 17 38  1  0  0  0  0
 18 39  1  0  0  0  0
 18 40  1  0  0  0  0
 19 20  2  0  0  0  0
 20 41  1  0  0  0  0
M  END
> <s_m_source_file>
AV-unprocessed.smi

> <i_m_source_file_index>
3003

> <i_lp_mmshare_version>
43012

> <i_f3d_flags>
0

> <s_epik_input>
W0NIM11TW0NASF0oW0NIM10pQyg9TylbTkhdW0NIMl1jMVtjSF1bY0hdYyhuW2NIXTEpTjJbQ0gyXVtDSDJdT1tDSDJdW0NIMl0y

> <s_epik_cmdline>
J2VwaWtfcHl0aG9uJywgJy1waCcsICc3LjAnLCAnLXRuJywgJzgnLCAnLW1hJywgJzIwMCcsICctbWV0YWxfYmluZGluZycsICctaW1hZScsICc8aW5maWxlLm1hZT4nLCAnLW9tYWUnLCAnPG91dGZpbGUubWFlPic=

> <r_lp_tautomer_probability>
1

> <r_epik_Ionization_Penalty>
0.00417642

> <r_epik_Ionization_Penalty_Charging>
0

> <r_epik_Ionization_Penalty_Neutral>
0.00417642

> <r_epik_State_Penalty>
0.00299889

> <r_epik_Charging_Adjusted_Penalty>
0.00299889

> <i_epik_Tot_Q>
0

> <i_epik_Tot_abs_Q>
0

> <r_epik_Metal_State_Penalty>
-0

> <b_epik_Metal_Only>
0

> <s_lp_Force_Field>
OPLS_2005

> <r_lp_Energy>
16.2796

> <b_lp_Chiralities_Consistent>
1

> <s_lp_Variant>
AV-unprocessed.smi:3003-1

> <Gold.Version>
5.8.1

> <Gold.Id.Protein>
6NUR|6NUR_protein|mol2

> <Gold.PLP.Fitness>
37.3185

> <Gold.PLP.PLP>
-26.9124

> <Gold.PLP.part.hbond>
-2.1676

> <Gold.PLP.part.metal>
0.0000

> <Gold.PLP.part.buried>
-2.0465

> <Gold.PLP.part.nonpolar>
-24.2080

> <Gold.PLP.part.repulsive>
1.2298

> <Gold.PLP.ligand.clash>
0.0000

> <Gold.PLP.ligand.torsion>
0.3536

> <Gold.PLP.Chemscore.Hbond>
2.0000

> <Gold.PLP.Chemscore.CHOScore>
1.5782

> <Gold.PLP.Chemscore.Metal>
0.0000

> <Gold.Chemscore.Hbonds>
donor molecule, donor type, donor heavy atom, donor atom, acceptor molecule, acceptor atom, score
      P1  H  7954  7966       L1     6  0.65
      P1  H  7997  8008       L1    16  1.00
      L1  C    20    41       P1  7948  1.00
      L1  C    20    41       P1  7957  0.13

> <Gold.PLP.Chemscore.Internal.Correction>
0.3786

> <Gold.Rescore>
     Score         DG    S(hbond)    S(metal)    S(lipo)     H(rot)  DE(clash)    DE(int)     intcor
     12.70     -14.51       1.60        0.00      67.95       1.67       1.25       0.56       ----

> <Gold.Chemscore.Fitness>
12.7015

> <Gold.Chemscore.DG>
-14.5061

> <Gold.Chemscore.ZeroCoef>
-5.4800

> <Gold.Chemscore.Hbond>
1.6008

> <Gold.Chemscore.Metal>
0.0000

> <Gold.Chemscore.Lipo>
67.9504

> <Gold.Chemscore.Internal_Hbond>
0.0000

> <Gold.Chemscore.DEClash>
1.2477

> <Gold.Chemscore.DEInternal>
0.5569

> <Gold.Chemscore.Rot>
1.6682

> <Gold.Chemscore.Internal.Correction>
   9.000000E+99

> <Gold.Chemscore.Hbonds>
donor molecule, donor type, donor heavy atom, donor atom, acceptor molecule, acceptor atom, score
      P1  H  7954  7966       L1     6  0.64
      P1  H  7997  8008       L1    16  0.30

> <Gold.Chemscore.Hbond.Weighted>
-5.3466

> <Gold.Chemscore.Metal.Weighted>
-0.0000

> <Gold.Chemscore.Lipo.Weighted>
-7.9502

> <Gold.Chemscore.Internal_Hbond.Weighted>
0.0000

> <Gold.Chemscore.DEClash.Weighted>
1.2477

> <Gold.Chemscore.DEInternal.Weighted>
0.5569

> <Gold.Chemscore.Rot.Weighted>
4.2707

> <Gold.Chemscore.Internal.Correction.Weighted>
   9.000000E+99

> <Gold.Protein.RotatedTorsions>
[ 6907 6896 6895 6894 ] final  174.31 input  -60.11 | X-H torsion
[ 7974 7965 7964 7962 ] final  -90.50 input  175.53 | X-H torsion
[ 8008 7997 7996 7995 ] final  -84.21 input   59.86 | X-H torsion
[ 10167 10162 10161 10158 ] final -147.93 input  -65.29 | X-H torsion
[ 10718 10713 10712 10709 ] final -179.86 input   66.30 | X-H torsion
[ 10763 10752 10751 10750 ] final   87.51 input  -60.55 | X-H torsion
[ 11005 11000 10999 10996 ] final   89.70 input  -57.11 | X-H torsion

> <Gold.Protein.ActiveResidues>
 VAL166  LYS551  ARG553  GLY616  TRP617  ASP618  TYR619  PRO620  LYS621  CYS622 
 ASP623  PHE694  ASN695  SER759  ASP760  ASP761  ALA762  ILE779  LEU786  VAL792 
 PHE793  MET794  SER795  GLU796  ALA797  LYS798  CYS799  TRP800  GLU811  SER814 

> <Gold.Protein.RotatedAtoms>
  151.7544  133.3329  159.3400 H   0  0  0  0  0  0  0  0  0  0  0  0  # atno 6907 bound_to 6896
  150.7522  134.6163  159.6122 H   0  0  0  0  0  0  0  0  0  0  0  0  # atno 6908 bound_to 6896
  152.3447  134.7089  160.0305 H   0  0  0  0  0  0  0  0  0  0  0  0  # atno 6909 bound_to 6896
  145.4256  140.9553  143.2156 H   0  0  0  0  0  0  0  0  0  0  0  0  # atno 7974 bound_to 7965
  154.6274  140.0608  156.9690 H   0  0  0  0  0  0  0  0  0  0  0  0  # atno 8008 bound_to 7997
  155.1721  140.3292  155.4372 H   0  0  0  0  0  0  0  0  0  0  0  0  # atno 8009 bound_to 7997
  156.2464  140.1912  156.6822 H   0  0  0  0  0  0  0  0  0  0  0  0  # atno 8010 bound_to 7997
  139.7577  143.8423  152.2600 H   0  0  0  0  0  0  0  0  0  0  0  0  # atno 10167 bound_to 10162
  156.8653  130.9765  151.3079 H   0  0  0  0  0  0  0  0  0  0  0  0  # atno 10718 bound_to 10713
  153.1675  135.4541  154.9857 H   0  0  0  0  0  0  0  0  0  0  0  0  # atno 10763 bound_to 10752
  154.7942  135.3231  154.7708 H   0  0  0  0  0  0  0  0  0  0  0  0  # atno 10764 bound_to 10752
  153.8188  135.6948  153.4885 H   0  0  0  0  0  0  0  0  0  0  0  0  # atno 10765 bound_to 10752
  139.8870  134.8568  156.3179 H   0  0  0  0  0  0  0  0  0  0  0  0  # atno 11005 bound_to 11000
  144.8216  139.5782  143.6984 LP  0  0  0  0  0  0  0  0  0  0  0  0  # atno 17320 bound_to 7965
  146.2634  139.6462  142.9346 LP  0  0  0  0  0  0  0  0  0  0  0  0  # atno 17321 bound_to 7965
  139.8420  144.7205  150.9320 LP  0  0  0  0  0  0  0  0  0  0  0  0  # atno 17342 bound_to 10162
  140.7804  143.3975  151.1205 LP  0  0  0  0  0  0  0  0  0  0  0  0  # atno 17343 bound_to 10162
  157.6227  130.8667  149.9136 LP  0  0  0  0  0  0  0  0  0  0  0  0  # atno 17370 bound_to 10713
  156.0755  130.3679  150.0687 LP  0  0  0  0  0  0  0  0  0  0  0  0  # atno 17371 bound_to 10713
  140.9806  133.7269  156.0667 LP  0  0  0  0  0  0  0  0  0  0  0  0  # atno 17394 bound_to 11000
  140.7754  134.3786  157.5499 LP  0  0  0  0  0  0  0  0  0  0  0  0  # atno 17395 bound_to 11000

$$$$
