AV-unprocessed.smi:2752|AV-procd|sdf|10608|dock5
  -GOLD-   2272015 63D 1   1.00000     0.00000
 Structure written by MMmdl.
 34 35  0  0  0  0  0  0  0  0  1 V2000
  146.6673  142.1838  154.0364 C   0  0  0  0  0  0  0  0  0  0  0  0
  146.8517  140.7778  154.0780 O   0  0  0  0  0  0  0  0  0  0  0  0
  147.9084  140.3640  154.9335 C   0  0  1  0  0  0  0  0  0  0  0  0
  148.1452  138.8489  154.8656 C   0  0  0  0  0  0  0  0  0  0  0  0
  149.6380  138.6845  155.1260 C   0  0  0  0  0  0  0  0  0  0  0  0
  150.2682  139.8729  154.4023 C   0  0  0  0  0  0  0  0  0  0  0  0
  149.2368  141.0157  154.4914 C   0  0  2  0  0  0  0  0  0  0  0  0
  149.6558  142.0320  155.4537 N   0  0  0  0  0  0  0  0  0  0  0  0
  150.2056  141.7814  156.6503 C   0  0  0  0  0  0  0  0  0  0  0  0
  150.4121  140.6452  157.0777 O   0  0  0  0  0  0  0  0  0  0  0  0
  150.4913  142.9226  157.3016 N   0  0  0  0  0  0  0  0  0  0  0  0
  151.0594  143.0779  158.5940 C   0  0  0  0  0  0  0  0  0  0  0  0
  152.0264  142.1076  158.9428 C   0  0  0  0  0  0  0  0  0  0  0  0
  152.6519  142.1742  160.2032 C   0  0  0  0  0  0  0  0  0  0  0  0
  152.2932  143.2119  161.0814 C   0  0  0  0  0  0  0  0  0  0  0  0
  152.8673  143.3167  162.3034 F   0  0  0  0  0  0  0  0  0  0  0  0
  151.3223  144.1379  160.6578 C   0  0  0  0  0  0  0  0  0  0  0  0
  150.7215  144.0747  159.4503 N   0  0  0  0  0  0  0  0  0  0  0  0
  145.8534  142.4235  153.3525 H   0  0  0  0  0  0  0  0  0  0  0  0
  147.5651  142.6881  153.6774 H   0  0  0  0  0  0  0  0  0  0  0  0
  146.4080  142.5855  155.0164 H   0  0  0  0  0  0  0  0  0  0  0  0
  147.6873  140.6444  155.9658 H   0  0  0  0  0  0  0  0  0  0  0  0
  147.5320  138.2943  155.5763 H   0  0  0  0  0  0  0  0  0  0  0  0
  147.9122  138.4802  153.8654 H   0  0  0  0  0  0  0  0  0  0  0  0
  149.8361  138.7561  156.1962 H   0  0  0  0  0  0  0  0  0  0  0  0
  150.0239  137.7268  154.7762 H   0  0  0  0  0  0  0  0  0  0  0  0
  151.2454  140.1310  154.8123 H   0  0  0  0  0  0  0  0  0  0  0  0
  150.4216  139.6122  153.3542 H   0  0  0  0  0  0  0  0  0  0  0  0
  149.1201  141.4734  153.5069 H   0  0  0  0  0  0  0  0  0  0  0  0
  149.5224  142.9948  155.1821 H   0  0  0  0  0  0  0  0  0  0  0  0
  150.2718  143.7806  156.8180 H   0  0  0  0  0  0  0  0  0  0  0  0
  152.2895  141.3176  158.2545 H   0  0  0  0  0  0  0  0  0  0  0  0
  153.3929  141.4425  160.4891 H   0  0  0  0  0  0  0  0  0  0  0  0
  151.0197  144.9497  161.3024 H   0  0  0  0  0  0  0  0  0  0  0  0
  1  2  1  0  0  0  0
  1 19  1  0  0  0  0
  1 20  1  0  0  0  0
  1 21  1  0  0  0  0
  2  3  1  0  0  0  0
  3  7  1  0  0  0  0
  3  4  1  0  0  0  0
  3 22  1  0  0  0  0
  4  5  1  0  0  0  0
  4 23  1  0  0  0  0
  4 24  1  0  0  0  0
  5  6  1  0  0  0  0
  5 25  1  0  0  0  0
  5 26  1  0  0  0  0
  6  7  1  0  0  0  0
  6 27  1  0  0  0  0
  6 28  1  0  0  0  0
  7  8  1  0  0  0  0
  7 29  1  0  0  0  0
  8  9  1  0  0  0  0
  8 30  1  0  0  0  0
  9 10  2  0  0  0  0
  9 11  1  0  0  0  0
 11 12  1  0  0  0  0
 11 31  1  0  0  0  0
 12 18  1  0  0  0  0
 12 13  2  0  0  0  0
 13 14  1  0  0  0  0
 13 32  1  0  0  0  0
 14 15  2  0  0  0  0
 14 33  1  0  0  0  0
 15 16  1  0  0  0  0
 15 17  1  0  0  0  0
 17 18  2  0  0  0  0
 17 34  1  0  0  0  0
M  END
> <s_m_source_file>
AV-unprocessed.smi

> <i_m_source_file_index>
2752

> <i_lp_mmshare_version>
43012

> <i_f3d_flags>
0

> <s_epik_input>
W0NIM11PW0NAQEhdMVtDSDJdW0NIMl1bQ0gyXVtDQEhdMVtOSF1DKD1PKVtOSF1jMltjSF1bY0hdYyhGKVtjSF1uMg==

> <s_epik_cmdline>
J2VwaWtfcHl0aG9uJywgJy1waCcsICc3LjAnLCAnLXRuJywgJzgnLCAnLW1hJywgJzIwMCcsICctbWV0YWxfYmluZGluZycsICctaW1hZScsICc8aW5maWxlLm1hZT4nLCAnLW9tYWUnLCAnPG91dGZpbGUubWFlPic=

> <r_lp_tautomer_probability>
1

> <r_epik_Ionization_Penalty>
3.49853e-05

> <r_epik_Ionization_Penalty_Charging>
0

> <r_epik_Ionization_Penalty_Neutral>
3.49853e-05

> <r_epik_State_Penalty>
-0

> <r_epik_Charging_Adjusted_Penalty>
0

> <i_epik_Tot_Q>
0

> <i_epik_Tot_abs_Q>
0

> <r_epik_Metal_State_Penalty>
-0

> <b_epik_Metal_Only>
0

> <s_lp_Force_Field>
OPLS_2005

> <r_lp_Energy>
21.736

> <b_lp_Chiralities_Consistent>
1

> <s_lp_Variant>
AV-unprocessed.smi:2752-4

> <Gold.Version>
5.8.1

> <Gold.Id.Protein>
6NUR|6NUR_protein|mol2

> <Gold.PLP.Fitness>
39.7449

> <Gold.PLP.PLP>
-34.9537

> <Gold.PLP.part.hbond>
-2.0000

> <Gold.PLP.part.metal>
0.0000

> <Gold.PLP.part.buried>
-4.4391

> <Gold.PLP.part.nonpolar>
-29.7757

> <Gold.PLP.part.repulsive>
0.4489

> <Gold.PLP.ligand.clash>
0.0000

> <Gold.PLP.ligand.torsion>
0.4869

> <Gold.PLP.Chemscore.Hbond>
1.9200

> <Gold.PLP.Chemscore.CHOScore>
0.0000

> <Gold.PLP.Chemscore.Metal>
0.0000

> <Gold.Chemscore.Hbonds>
donor molecule, donor type, donor heavy atom, donor atom, acceptor molecule, acceptor atom, score
      L1  H     8    30       P1  8028  0.96
      L1  H    11    31       P1  8028  0.91

> <Gold.PLP.Chemscore.Internal.Correction>
0.0050

> <Gold.Rescore>
     Score         DG    S(hbond)    S(metal)    S(lipo)     H(rot)  DE(clash)    DE(int)     intcor
     11.93     -18.02       1.93        0.00      80.24       1.28       1.62       4.47       ----

> <Gold.Chemscore.Fitness>
11.9322

> <Gold.Chemscore.DG>
-18.0184

> <Gold.Chemscore.ZeroCoef>
-5.4800

> <Gold.Chemscore.Hbond>
1.9260

> <Gold.Chemscore.Metal>
0.0000

> <Gold.Chemscore.Lipo>
80.2368

> <Gold.Chemscore.Internal_Hbond>
0.0000

> <Gold.Chemscore.DEClash>
1.6210

> <Gold.Chemscore.DEInternal>
4.4652

> <Gold.Chemscore.Rot>
1.2821

> <Gold.Chemscore.Internal.Correction>
   9.000000E+99

> <Gold.Chemscore.Hbonds>
donor molecule, donor type, donor heavy atom, donor atom, acceptor molecule, acceptor atom, score
      L1  H     8    30       P1  8028  0.92
      L1  H    11    31       P1  8028  0.83

> <Gold.Chemscore.Hbond.Weighted>
-6.4329

> <Gold.Chemscore.Metal.Weighted>
-0.0000

> <Gold.Chemscore.Lipo.Weighted>
-9.3877

> <Gold.Chemscore.Internal_Hbond.Weighted>
0.0000

> <Gold.Chemscore.DEClash.Weighted>
1.6210

> <Gold.Chemscore.DEInternal.Weighted>
4.4652

> <Gold.Chemscore.Rot.Weighted>
3.2822

> <Gold.Chemscore.Internal.Correction.Weighted>
   9.000000E+99

> <Gold.Protein.RotatedTorsions>
[ 6907 6896 6895 6894 ] final   79.38 input  -60.11 | X-H torsion
[ 7974 7965 7964 7962 ] final   50.81 input  175.53 | X-H torsion
[ 8008 7997 7996 7995 ] final -153.62 input   59.86 | X-H torsion
[ 10167 10162 10161 10158 ] final   58.11 input  -65.29 | X-H torsion
[ 10718 10713 10712 10709 ] final -147.46 input   66.30 | X-H torsion
[ 10763 10752 10751 10750 ] final  128.51 input  -60.55 | X-H torsion
[ 11005 11000 10999 10996 ] final   88.09 input  -57.11 | X-H torsion

> <Gold.Protein.ActiveResidues>
 VAL166  LYS551  ARG553  GLY616  TRP617  ASP618  TYR619  PRO620  LYS621  CYS622 
 ASP623  PHE694  ASN695  SER759  ASP760  ASP761  ALA762  ILE779  LEU786  VAL792 
 PHE793  MET794  SER795  GLU796  ALA797  LYS798  CYS799  TRP800  GLU811  SER814 

> <Gold.Protein.RotatedAtoms>
  152.5196  134.3520  159.9254 H   0  0  0  0  0  0  0  0  0  0  0  0  # atno 6907 bound_to 6896
  151.3471  133.3933  159.2684 H   0  0  0  0  0  0  0  0  0  0  0  0  # atno 6908 bound_to 6896
  150.9757  134.9140  159.7872 H   0  0  0  0  0  0  0  0  0  0  0  0  # atno 6909 bound_to 6896
  145.9976  139.4404  143.0035 H   0  0  0  0  0  0  0  0  0  0  0  0  # atno 7974 bound_to 7965
  155.6736  140.0736  157.2511 H   0  0  0  0  0  0  0  0  0  0  0  0  # atno 8008 bound_to 7997
  154.4119  140.1694  156.1957 H   0  0  0  0  0  0  0  0  0  0  0  0  # atno 8009 bound_to 7997
  155.9595  140.3371  155.6481 H   0  0  0  0  0  0  0  0  0  0  0  0  # atno 8010 bound_to 7997
  140.1908  144.4088  150.6572 H   0  0  0  0  0  0  0  0  0  0  0  0  # atno 10167 bound_to 10162
  156.4078  130.7966  151.2182 H   0  0  0  0  0  0  0  0  0  0  0  0  # atno 10718 bound_to 10713
  153.7267  135.3245  155.3277 H   0  0  0  0  0  0  0  0  0  0  0  0  # atno 10763 bound_to 10752
  154.8339  135.4512  154.1163 H   0  0  0  0  0  0  0  0  0  0  0  0  # atno 10764 bound_to 10752
  153.2299  135.6958  153.7983 H   0  0  0  0  0  0  0  0  0  0  0  0  # atno 10765 bound_to 10752
  139.8904  134.8465  156.2951 H   0  0  0  0  0  0  0  0  0  0  0  0  # atno 11005 bound_to 11000
  145.7537  140.9962  143.1237 LP  0  0  0  0  0  0  0  0  0  0  0  0  # atno 17320 bound_to 7965
  144.6908  139.9245  143.7469 LP  0  0  0  0  0  0  0  0  0  0  0  0  # atno 17321 bound_to 7965
  140.6457  143.2213  151.6191 LP  0  0  0  0  0  0  0  0  0  0  0  0  # atno 17342 bound_to 10162
  139.5257  144.3067  152.1027 LP  0  0  0  0  0  0  0  0  0  0  0  0  # atno 17343 bound_to 10162
  157.7506  131.0267  150.3973 LP  0  0  0  0  0  0  0  0  0  0  0  0  # atno 17370 bound_to 10713
  156.4265  130.3963  149.6789 LP  0  0  0  0  0  0  0  0  0  0  0  0  # atno 17371 bound_to 10713
  140.9950  133.7185  156.0872 LP  0  0  0  0  0  0  0  0  0  0  0  0  # atno 17394 bound_to 11000
  140.7574  134.3977  157.5531 LP  0  0  0  0  0  0  0  0  0  0  0  0  # atno 17395 bound_to 11000

$$$$
