AV-unprocessed.smi:1877|AV-procd|sdf|7625|dock2
  -GOLD-   22720 9353D 1   1.00000     0.00000
 Structure written by MMmdl.
 33 35  0  0  0  0  0  0  0  0  2 V2000
  149.6492  140.4809  157.9168 O   0  0  0  0  0  0  0  0  0  0  0  0
  151.0309  140.2781  157.7032 C   0  0  1  0  0  0  0  0  0  0  0  0
  151.3398  140.6161  156.2306 C   0  0  0  0  0  0  0  0  0  0  0  0
  150.5596  139.8033  155.2891 N   0  0  0  0  0  0  0  0  0  0  0  0
  150.8300  138.5809  154.7557 C   0  0  0  0  0  0  0  0  0  0  0  0
  149.7839  138.2432  153.9517 N   0  3  0  0  0  0  0  0  0  0  0  0
  148.8340  139.2670  153.9674 C   0  0  0  0  0  0  0  0  0  0  0  0
  147.6100  139.3864  153.3165 C   0  0  0  0  0  0  0  0  0  0  0  0
  146.8811  140.5711  153.5516 C   0  0  0  0  0  0  0  0  0  0  0  0
  147.3737  141.5804  154.4046 C   0  0  0  0  0  0  0  0  0  0  0  0
  148.6156  141.4483  155.0600 C   0  0  0  0  0  0  0  0  0  0  0  0
  149.3287  140.2744  154.8223 C   0  0  0  0  0  0  0  0  0  0  0  0
  151.8927  141.0819  158.6707 C   0  0  0  0  0  0  0  0  0  0  0  0
  151.8003  142.4912  158.7040 C   0  0  0  0  0  0  0  0  0  0  0  0
  152.6079  143.2379  159.5833 C   0  0  0  0  0  0  0  0  0  0  0  0
  152.5124  144.5881  159.6079 F   0  0  0  0  0  0  0  0  0  0  0  0
  153.5166  142.5810  160.4341 C   0  0  0  0  0  0  0  0  0  0  0  0
  153.6183  141.1772  160.4031 C   0  0  0  0  0  0  0  0  0  0  0  0
  152.8116  140.4283  159.5242 C   0  0  0  0  0  0  0  0  0  0  0  0
  152.9339  139.0793  159.4979 F   0  0  0  0  0  0  0  0  0  0  0  0
  149.5374  141.2514  158.4530 H   0  0  0  0  0  0  0  0  0  0  0  0
  151.2055  139.2157  157.8727 H   0  0  0  0  0  0  0  0  0  0  0  0
  151.1371  141.6671  156.0189 H   0  0  0  0  0  0  0  0  0  0  0  0
  152.3965  140.4535  156.0126 H   0  0  0  0  0  0  0  0  0  0  0  0
  151.7098  137.9828  154.9451 H   0  0  0  0  0  0  0  0  0  0  0  0
  147.2299  138.6151  152.6626 H   0  0  0  0  0  0  0  0  0  0  0  0
  145.9251  140.7086  153.0675 H   0  0  0  0  0  0  0  0  0  0  0  0
  146.7872  142.4742  154.5599 H   0  0  0  0  0  0  0  0  0  0  0  0
  148.9849  142.2256  155.7125 H   0  0  0  0  0  0  0  0  0  0  0  0
  151.1115  143.0067  158.0508 H   0  0  0  0  0  0  0  0  0  0  0  0
  154.1370  143.1534  161.1079 H   0  0  0  0  0  0  0  0  0  0  0  0
  154.3188  140.6742  161.0533 H   0  0  0  0  0  0  0  0  0  0  0  0
  149.7249  137.3766  153.4322 H   0  0  0  0  0  0  0  0  0  0  0  0
  1  2  1  0  0  0  0
  1 21  1  0  0  0  0
  2  3  1  0  0  0  0
  2 13  1  0  0  0  0
  2 22  1  0  0  0  0
  3  4  1  0  0  0  0
  3 23  1  0  0  0  0
  3 24  1  0  0  0  0
  4 12  1  0  0  0  0
  4  5  1  0  0  0  0
  5  6  2  0  0  0  0
  5 25  1  0  0  0  0
  6  7  1  0  0  0  0
  6 33  1  0  0  0  0
  7 12  2  0  0  0  0
  7  8  1  0  0  0  0
  8  9  2  0  0  0  0
  8 26  1  0  0  0  0
  9 10  1  0  0  0  0
  9 27  1  0  0  0  0
 10 11  2  0  0  0  0
 10 28  1  0  0  0  0
 11 12  1  0  0  0  0
 11 29  1  0  0  0  0
 13 19  1  0  0  0  0
 13 14  2  0  0  0  0
 14 15  1  0  0  0  0
 14 30  1  0  0  0  0
 15 16  1  0  0  0  0
 15 17  2  0  0  0  0
 17 18  1  0  0  0  0
 17 31  1  0  0  0  0
 18 19  2  0  0  0  0
 18 32  1  0  0  0  0
 19 20  1  0  0  0  0
M  CHG  1   6   1
M  END
> <s_m_source_file>
AV-unprocessed.smi

> <i_m_source_file_index>
1877

> <i_lp_mmshare_version>
43012

> <i_f3d_flags>
0

> <s_epik_input>
RmMxW2NIXVtjSF1jKEYpW2NIXWMxW0NASF0oW09IXSlbQ0gyXW4oW2NIXW4yKWMoYzIzKVtjSF1bY0hdW2NIXVtjSF0z

> <s_epik_cmdline>
J2VwaWtfcHl0aG9uJywgJy1waCcsICc3LjAnLCAnLXRuJywgJzgnLCAnLW1hJywgJzIwMCcsICctbWV0YWxfYmluZGluZycsICctaW1hZScsICc8aW5maWxlLm1hZT4nLCAnLW9tYWUnLCAnPG91dGZpbGUubWFlPic=

> <r_epik_Ionization_Penalty>
1.3029

> <r_epik_Ionization_Penalty_Charging>
1.3029

> <r_epik_Ionization_Penalty_Neutral>
3.53208e-06

> <r_epik_State_Penalty>
1.377

> <r_epik_Charging_Adjusted_Penalty>
2.6799

> <i_epik_Tot_Q>
1

> <i_epik_Tot_abs_Q>
1

> <r_epik_Metal_State_Penalty>
5.40879

> <b_epik_Metal_Only>
0

> <s_lp_Force_Field>
OPLS_2005

> <r_lp_Energy>
17.5281

> <b_lp_Chiralities_Consistent>
1

> <s_lp_Variant>
AV-unprocessed.smi:1877-4

> <Gold.Version>
5.8.1

> <Gold.Id.Protein>
6NUR|6NUR_protein|mol2

> <Gold.PLP.Fitness>
53.8645

> <Gold.PLP.PLP>
-48.6165

> <Gold.PLP.part.hbond>
-1.7598

> <Gold.PLP.part.metal>
0.0000

> <Gold.PLP.part.buried>
2.1602

> <Gold.PLP.part.nonpolar>
-48.3825

> <Gold.PLP.part.repulsive>
0.0557

> <Gold.PLP.ligand.clash>
0.0000

> <Gold.PLP.ligand.torsion>
0.3830

> <Gold.PLP.Chemscore.Hbond>
2.0000

> <Gold.PLP.Chemscore.CHOScore>
0.0000

> <Gold.PLP.Chemscore.Metal>
0.0000

> <Gold.Chemscore.Hbonds>
donor molecule, donor type, donor heavy atom, donor atom, acceptor molecule, acceptor atom, score
      L1  H     6    33       P1  7948  1.89

> <Gold.PLP.Chemscore.Internal.Correction>
0.0140

> <Gold.Rescore>
     Score         DG    S(hbond)    S(metal)    S(lipo)     H(rot)  DE(clash)    DE(int)     intcor
     15.12     -15.99       0.68        0.00     115.38       2.06       0.42       0.44       ----

> <Gold.Chemscore.Fitness>
15.1246

> <Gold.Chemscore.DG>
-15.9890

> <Gold.Chemscore.ZeroCoef>
-5.4800

> <Gold.Chemscore.Hbond>
0.6833

> <Gold.Chemscore.Metal>
0.0000

> <Gold.Chemscore.Lipo>
115.3802

> <Gold.Chemscore.Internal_Hbond>
0.0000

> <Gold.Chemscore.DEClash>
0.4218

> <Gold.Chemscore.DEInternal>
0.4426

> <Gold.Chemscore.Rot>
2.0597

> <Gold.Chemscore.Internal.Correction>
   9.000000E+99

> <Gold.Chemscore.Hbonds>
donor molecule, donor type, donor heavy atom, donor atom, acceptor molecule, acceptor atom, score
      L1  H     6    33       P1  7948  0.61

> <Gold.Chemscore.Hbond.Weighted>
-2.2823

> <Gold.Chemscore.Metal.Weighted>
-0.0000

> <Gold.Chemscore.Lipo.Weighted>
-13.4995

> <Gold.Chemscore.Internal_Hbond.Weighted>
0.0000

> <Gold.Chemscore.DEClash.Weighted>
0.4218

> <Gold.Chemscore.DEInternal.Weighted>
0.4426

> <Gold.Chemscore.Rot.Weighted>
5.2728

> <Gold.Chemscore.Internal.Correction.Weighted>
   9.000000E+99

> <Gold.Protein.RotatedTorsions>
[ 6907 6896 6895 6894 ] final  -47.37 input  -60.11 | X-H torsion
[ 7974 7965 7964 7962 ] final   11.68 input  175.53 | X-H torsion
[ 8008 7997 7996 7995 ] final   45.67 input   59.86 | X-H torsion
[ 10167 10162 10161 10158 ] final -116.68 input  -65.29 | X-H torsion
[ 10718 10713 10712 10709 ] final   52.74 input   66.30 | X-H torsion
[ 10763 10752 10751 10750 ] final  106.59 input  -60.55 | X-H torsion
[ 11005 11000 10999 10996 ] final  174.77 input  -57.11 | X-H torsion

> <Gold.Protein.ActiveResidues>
 VAL166  LYS551  ARG553  GLY616  TRP617  ASP618  TYR619  PRO620  LYS621  CYS622 
 ASP623  PHE694  ASN695  SER759  ASP760  ASP761  ALA762  ILE779  LEU786  VAL792 
 PHE793  MET794  SER795  GLU796  ALA797  LYS798  CYS799  TRP800  GLU811  SER814 

> <Gold.Protein.RotatedAtoms>
  150.9015  134.8427  159.7362 H   0  0  0  0  0  0  0  0  0  0  0  0  # atno 6907 bound_to 6896
  152.4895  134.4496  159.9580 H   0  0  0  0  0  0  0  0  0  0  0  0  # atno 6908 bound_to 6896
  151.4547  133.3569  159.2835 H   0  0  0  0  0  0  0  0  0  0  0  0  # atno 6909 bound_to 6896
  146.2366  139.9449  142.8478 H   0  0  0  0  0  0  0  0  0  0  0  0  # atno 7974 bound_to 7965
  155.3397  140.3407  155.4239 H   0  0  0  0  0  0  0  0  0  0  0  0  # atno 8008 bound_to 7997
  156.1820  140.1667  156.8293 H   0  0  0  0  0  0  0  0  0  0  0  0  # atno 8009 bound_to 7997
  154.5344  140.0738  156.8384 H   0  0  0  0  0  0  0  0  0  0  0  0  # atno 8010 bound_to 7997
  140.0766  143.4827  152.1950 H   0  0  0  0  0  0  0  0  0  0  0  0  # atno 10167 bound_to 10162
  157.5102  130.8496  149.8426 H   0  0  0  0  0  0  0  0  0  0  0  0  # atno 10718 bound_to 10713
  153.3951  135.3872  155.1949 H   0  0  0  0  0  0  0  0  0  0  0  0  # atno 10763 bound_to 10752
  154.8723  135.3758  154.4689 H   0  0  0  0  0  0  0  0  0  0  0  0  # atno 10764 bound_to 10752
  153.5180  135.7087  153.5808 H   0  0  0  0  0  0  0  0  0  0  0  0  # atno 10765 bound_to 10752
  140.3550  134.7162  157.4293 H   0  0  0  0  0  0  0  0  0  0  0  0  # atno 11005 bound_to 11000
  145.1917  140.9814  143.4207 LP  0  0  0  0  0  0  0  0  0  0  0  0  # atno 17320 bound_to 7965
  144.9851  139.3744  143.6242 LP  0  0  0  0  0  0  0  0  0  0  0  0  # atno 17321 bound_to 7965
  139.5804  144.7508  151.3654 LP  0  0  0  0  0  0  0  0  0  0  0  0  # atno 17342 bound_to 10162
  140.7099  143.7418  150.7548 LP  0  0  0  0  0  0  0  0  0  0  0  0  # atno 17343 bound_to 10162
  156.0284  130.3772  150.1756 LP  0  0  0  0  0  0  0  0  0  0  0  0  # atno 17370 bound_to 10713
  156.9946  130.9904  151.3406 LP  0  0  0  0  0  0  0  0  0  0  0  0  # atno 17371 bound_to 10713
  140.0673  134.5912  155.8681 LP  0  0  0  0  0  0  0  0  0  0  0  0  # atno 17394 bound_to 11000
  141.2001  133.6610  156.5879 LP  0  0  0  0  0  0  0  0  0  0  0  0  # atno 17395 bound_to 11000

$$$$
