AV-unprocessed.smi:2801|AV-procd|sdf|10802|dock10
  -GOLD-   2272015233D 1   1.00000     0.00000
 Structure written by MMmdl.
 31 31  0  0  0  0  0  0  0  0  2 V2000
  153.6520  141.9697  161.8758 C   0  0  0  0  0  0  0  0  0  0  0  0
  153.4584  141.1914  160.5727 C   0  0  0  0  0  0  0  0  0  0  0  0
  153.3659  142.1197  159.4986 O   0  0  0  0  0  0  0  0  0  0  0  0
  152.1736  142.9018  159.4674 C   0  0  1  0  0  0  0  0  0  0  0  0
  152.5817  144.3803  159.3237 C   0  0  0  0  0  0  0  0  0  0  0  0
  151.3776  145.3156  159.1557 C   0  0  0  0  0  0  0  0  0  0  0  0
  151.2783  142.4554  158.2994 C   0  0  0  0  0  0  0  0  0  0  0  0
  150.1841  142.9945  158.1341 O   0  0  0  0  0  0  0  0  0  0  0  0
  151.7950  141.4981  157.5074 N   0  0  0  0  0  0  0  0  0  0  0  0
  151.2402  140.8667  156.3580 C   0  0  0  0  0  0  0  0  0  0  0  0
  150.0726  141.3160  155.6943 C   0  0  0  0  0  0  0  0  0  0  0  0
  149.6098  140.5946  154.5764 C   0  0  0  0  0  0  0  0  0  0  0  0
  150.2144  139.4866  154.1005 N   0  0  0  0  0  0  0  0  0  0  0  0
  151.3202  139.0526  154.7405 C   0  0  0  0  0  0  0  0  0  0  0  0
  151.8702  139.6980  155.8676 C   0  0  0  0  0  0  0  0  0  0  0  0
  152.9930  139.1873  156.4594 O   0  5  0  0  0  0  0  0  0  0  0  0
  153.7290  141.2922  162.7262 H   0  0  0  0  0  0  0  0  0  0  0  0
  152.8140  142.6428  162.0580 H   0  0  0  0  0  0  0  0  0  0  0  0
  154.5622  142.5688  161.8414 H   0  0  0  0  0  0  0  0  0  0  0  0
  154.2939  140.5052  160.4310 H   0  0  0  0  0  0  0  0  0  0  0  0
  152.5472  140.5943  160.6309 H   0  0  0  0  0  0  0  0  0  0  0  0
  151.6329  142.7813  160.4087 H   0  0  0  0  0  0  0  0  0  0  0  0
  153.1626  144.6939  160.1924 H   0  0  0  0  0  0  0  0  0  0  0  0
  153.2361  144.4988  158.4588 H   0  0  0  0  0  0  0  0  0  0  0  0
  151.7025  146.3501  159.0450 H   0  0  0  0  0  0  0  0  0  0  0  0
  150.7151  145.2669  160.0202 H   0  0  0  0  0  0  0  0  0  0  0  0
  150.7957  145.0532  158.2717 H   0  0  0  0  0  0  0  0  0  0  0  0
  152.7374  141.2075  157.7259 H   0  0  0  0  0  0  0  0  0  0  0  0
  149.5175  142.1810  156.0189 H   0  0  0  0  0  0  0  0  0  0  0  0
  148.7216  140.9149  154.0523 H   0  0  0  0  0  0  0  0  0  0  0  0
  151.7785  138.1599  154.3407 H   0  0  0  0  0  0  0  0  0  0  0  0
  1  2  1  0  0  0  0
  1 17  1  0  0  0  0
  1 18  1  0  0  0  0
  1 19  1  0  0  0  0
  2  3  1  0  0  0  0
  2 20  1  0  0  0  0
  2 21  1  0  0  0  0
  3  4  1  0  0  0  0
  4  5  1  0  0  0  0
  4  7  1  0  0  0  0
  4 22  1  0  0  0  0
  5  6  1  0  0  0  0
  5 23  1  0  0  0  0
  5 24  1  0  0  0  0
  6 25  1  0  0  0  0
  6 26  1  0  0  0  0
  6 27  1  0  0  0  0
  7  8  2  0  0  0  0
  7  9  1  0  0  0  0
  9 28  1  0  0  0  0
  9 10  1  0  0  0  0
 10 11  2  0  0  0  0
 10 15  1  0  0  0  0
 11 12  1  0  0  0  0
 11 29  1  0  0  0  0
 12 13  2  0  0  0  0
 12 30  1  0  0  0  0
 13 14  1  0  0  0  0
 14 15  2  0  0  0  0
 14 31  1  0  0  0  0
 15 16  1  0  0  0  0
M  CHG  1  16  -1
M  END
> <s_m_source_file>
AV-unprocessed.smi

> <i_m_source_file_index>
2801

> <i_lp_mmshare_version>
43012

> <i_f3d_flags>
0

> <s_epik_input>
W0NIM11bQ0gyXU9bQ0BIXShbQ0gyXVtDSDNdKUMoPU8pW05IXWMxW2NIXVtjSF1uW2NIXWMxW09IXQ==

> <s_epik_cmdline>
J2VwaWtfcHl0aG9uJywgJy1waCcsICc3LjAnLCAnLXRuJywgJzgnLCAnLW1hJywgJzIwMCcsICctbWV0YWxfYmluZGluZycsICctaW1hZScsICc8aW5maWxlLm1hZT4nLCAnLW9tYWUnLCAnPG91dGZpbGUubWFlPic=

> <r_lp_tautomer_probability>
0.56342

> <r_epik_Ionization_Penalty>
4.38321

> <r_epik_Ionization_Penalty_Charging>
2.0641

> <r_epik_Ionization_Penalty_Neutral>
2.31912

> <r_epik_State_Penalty>
2.63873

> <r_epik_Charging_Adjusted_Penalty>
4.70283

> <i_epik_Tot_Q>
-1

> <i_epik_Tot_abs_Q>
1

> <r_epik_Metal_State_Penalty>
0.606608

> <b_epik_Metal_Only>
1

> <s_lp_Force_Field>
OPLS_2005

> <r_lp_Energy>
9.76409

> <b_lp_Chiralities_Consistent>
1

> <s_lp_Variant>
AV-unprocessed.smi:2801-6

> <Gold.Version>
5.8.1

> <Gold.Id.Protein>
6NUR|6NUR_protein|mol2

> <Gold.PLP.Fitness>
42.8869

> <Gold.PLP.PLP>
-38.4265

> <Gold.PLP.part.hbond>
-2.0000

> <Gold.PLP.part.metal>
0.0000

> <Gold.PLP.part.buried>
-3.0864

> <Gold.PLP.part.nonpolar>
-32.9669

> <Gold.PLP.part.repulsive>
0.8913

> <Gold.PLP.ligand.clash>
0.0000

> <Gold.PLP.ligand.torsion>
0.7872

> <Gold.PLP.Chemscore.Hbond>
2.0000

> <Gold.PLP.Chemscore.CHOScore>
0.0000

> <Gold.PLP.Chemscore.Metal>
0.0000

> <Gold.Chemscore.Hbonds>
donor molecule, donor type, donor heavy atom, donor atom, acceptor molecule, acceptor atom, score
      P1  H  7997  8010       L1    16  2.00

> <Gold.PLP.Chemscore.Internal.Correction>
0.0348

> <Gold.Rescore>
     Score         DG    S(hbond)    S(metal)    S(lipo)     H(rot)  DE(clash)    DE(int)     intcor
     12.52     -15.78       0.99        0.00      93.73       1.55       0.11       3.15       ----

> <Gold.Chemscore.Fitness>
12.5202

> <Gold.Chemscore.DG>
-15.7828

> <Gold.Chemscore.ZeroCoef>
-5.4800

> <Gold.Chemscore.Hbond>
0.9866

> <Gold.Chemscore.Metal>
0.0000

> <Gold.Chemscore.Lipo>
93.7264

> <Gold.Chemscore.Internal_Hbond>
0.0000

> <Gold.Chemscore.DEClash>
0.1110

> <Gold.Chemscore.DEInternal>
3.1517

> <Gold.Chemscore.Rot>
1.5462

> <Gold.Chemscore.Internal.Correction>
   9.000000E+99

> <Gold.Chemscore.Hbonds>
donor molecule, donor type, donor heavy atom, donor atom, acceptor molecule, acceptor atom, score
      P1  H  7997  8010       L1    16  0.94

> <Gold.Chemscore.Hbond.Weighted>
-3.2952

> <Gold.Chemscore.Metal.Weighted>
-0.0000

> <Gold.Chemscore.Lipo.Weighted>
-10.9660

> <Gold.Chemscore.Internal_Hbond.Weighted>
0.0000

> <Gold.Chemscore.DEClash.Weighted>
0.1110

> <Gold.Chemscore.DEInternal.Weighted>
3.1517

> <Gold.Chemscore.Rot.Weighted>
3.9583

> <Gold.Chemscore.Internal.Correction.Weighted>
   9.000000E+99

> <Gold.Protein.RotatedTorsions>
[ 6907 6896 6895 6894 ] final  -27.54 input  -60.11 | X-H torsion
[ 7974 7965 7964 7962 ] final   49.46 input  175.53 | X-H torsion
[ 8008 7997 7996 7995 ] final   75.15 input   59.86 | X-H torsion
[ 10167 10162 10161 10158 ] final -109.27 input  -65.29 | X-H torsion
[ 10718 10713 10712 10709 ] final   43.23 input   66.30 | X-H torsion
[ 10763 10752 10751 10750 ] final   55.69 input  -60.55 | X-H torsion
[ 11005 11000 10999 10996 ] final  112.16 input  -57.11 | X-H torsion

> <Gold.Protein.ActiveResidues>
 VAL166  LYS551  ARG553  GLY616  TRP617  ASP618  TYR619  PRO620  LYS621  CYS622 
 ASP623  PHE694  ASN695  SER759  ASP760  ASP761  ALA762  ILE779  LEU786  VAL792 
 PHE793  MET794  SER795  GLU796  ALA797  LYS798  CYS799  TRP800  GLU811  SER814 

> <Gold.Protein.RotatedAtoms>
  151.1454  135.0201  159.8644 H   0  0  0  0  0  0  0  0  0  0  0  0  # atno 6907 bound_to 6896
  152.5453  134.1450  159.8505 H   0  0  0  0  0  0  0  0  0  0  0  0  # atno 6908 bound_to 6896
  151.1530  133.4849  159.2628 H   0  0  0  0  0  0  0  0  0  0  0  0  # atno 6909 bound_to 6896
  146.0106  139.4539  142.9958 H   0  0  0  0  0  0  0  0  0  0  0  0  # atno 7974 bound_to 7965
  155.8088  140.3474  155.5445 H   0  0  0  0  0  0  0  0  0  0  0  0  # atno 8008 bound_to 7997
  155.8462  140.0949  157.1723 H   0  0  0  0  0  0  0  0  0  0  0  0  # atno 8009 bound_to 7997
  154.4006  140.1385  156.3776 H   0  0  0  0  0  0  0  0  0  0  0  0  # atno 8010 bound_to 7997
  140.1571  143.4151  152.1453 H   0  0  0  0  0  0  0  0  0  0  0  0  # atno 10167 bound_to 10162
  157.4136  130.7928  149.7452 H   0  0  0  0  0  0  0  0  0  0  0  0  # atno 10718 bound_to 10713
  152.9820  135.5702  154.5108 H   0  0  0  0  0  0  0  0  0  0  0  0  # atno 10763 bound_to 10752
  154.4612  135.2781  155.1713 H   0  0  0  0  0  0  0  0  0  0  0  0  # atno 10764 bound_to 10752
  154.3300  135.6251  153.5600 H   0  0  0  0  0  0  0  0  0  0  0  0  # atno 10765 bound_to 10752
  139.8921  134.9524  156.6543 H   0  0  0  0  0  0  0  0  0  0  0  0  # atno 11005 bound_to 11000
  145.7347  141.0030  143.1333 LP  0  0  0  0  0  0  0  0  0  0  0  0  # atno 17320 bound_to 7965
  144.6952  139.9027  143.7459 LP  0  0  0  0  0  0  0  0  0  0  0  0  # atno 17321 bound_to 7965
  139.5398  144.7246  151.4770 LP  0  0  0  0  0  0  0  0  0  0  0  0  # atno 17342 bound_to 10162
  140.6666  143.8384  150.6949 LP  0  0  0  0  0  0  0  0  0  0  0  0  # atno 17343 bound_to 10162
  155.9858  130.3980  150.3243 LP  0  0  0  0  0  0  0  0  0  0  0  0  # atno 17370 bound_to 10713
  157.1384  131.0290  151.2938 LP  0  0  0  0  0  0  0  0  0  0  0  0  # atno 17371 bound_to 10713
  140.7496  133.8908  155.8337 LP  0  0  0  0  0  0  0  0  0  0  0  0  # atno 17394 bound_to 11000
  141.0011  134.1148  157.4316 LP  0  0  0  0  0  0  0  0  0  0  0  0  # atno 17395 bound_to 11000

$$$$
