AV-unprocessed.smi:1982|AV-procd|sdf|8023|dock2
  -GOLD-   2272010213D 1   1.00000     0.00000
 Structure written by MMmdl.
 36 37  0  0  0  0  0  0  0  0  1 V2000
  153.1825  141.5553  159.5078 C   0  0  0  0  0  0  0  0  0  0  0  0
  151.8865  142.3851  159.6132 C   0  0  1  0  0  0  0  0  0  0  0  0
  152.1852  143.8957  159.7052 C   0  0  0  0  0  0  0  0  0  0  0  0
  152.6547  144.4788  158.3630 C   0  0  0  0  0  0  0  0  0  0  0  0
  151.6360  144.1987  157.2495 C   0  0  0  0  0  0  0  0  0  0  0  0
  151.3191  142.6945  157.1267 C   0  0  2  0  0  0  0  0  0  0  0  0
  150.2847  142.4930  156.1158 N   0  0  0  0  0  0  0  0  0  0  0  0
  150.2029  141.4506  155.2744 C   0  0  0  0  0  0  0  0  0  0  0  0
  151.0458  140.5562  155.2132 O   0  0  0  0  0  0  0  0  0  0  0  0
  148.9729  141.4066  154.3673 C   0  0  0  0  0  0  0  0  0  0  0  0
  148.2465  140.1618  154.5399 N   0  0  0  0  0  0  0  0  0  0  0  0
  147.9865  139.1719  153.6834 C   0  0  0  0  0  0  0  0  0  0  0  0
  147.3025  138.1949  154.2591 N   0  0  0  0  0  0  0  0  0  0  0  0
  147.1456  138.6441  155.5598 N   0  0  0  0  0  0  0  0  0  0  0  0
  147.7035  139.8106  155.7326 N   0  0  0  0  0  0  0  0  0  0  0  0
  150.8582  142.1049  158.4846 C   0  0  1  0  0  0  0  0  0  0  0  0
  150.4738  140.6140  158.3934 C   0  0  0  0  0  0  0  0  0  0  0  0
  153.7071  141.7267  158.5685 H   0  0  0  0  0  0  0  0  0  0  0  0
  152.9818  140.4870  159.5839 H   0  0  0  0  0  0  0  0  0  0  0  0
  153.8696  141.8057  160.3163 H   0  0  0  0  0  0  0  0  0  0  0  0
  151.4193  142.0998  160.5568 H   0  0  0  0  0  0  0  0  0  0  0  0
  151.2832  144.4206  160.0233 H   0  0  0  0  0  0  0  0  0  0  0  0
  152.9318  144.0880  160.4765 H   0  0  0  0  0  0  0  0  0  0  0  0
  152.8068  145.5540  158.4610 H   0  0  0  0  0  0  0  0  0  0  0  0
  153.6229  144.0585  158.0899 H   0  0  0  0  0  0  0  0  0  0  0  0
  150.7187  144.7519  157.4565 H   0  0  0  0  0  0  0  0  0  0  0  0
  152.0184  144.5807  156.3021 H   0  0  0  0  0  0  0  0  0  0  0  0
  152.2237  142.1700  156.8145 H   0  0  0  0  0  0  0  0  0  0  0  0
  149.5442  143.1791  156.0864 H   0  0  0  0  0  0  0  0  0  0  0  0
  148.3148  142.2481  154.5905 H   0  0  0  0  0  0  0  0  0  0  0  0
  149.2719  141.4954  153.3221 H   0  0  0  0  0  0  0  0  0  0  0  0
  148.3017  139.1645  152.6504 H   0  0  0  0  0  0  0  0  0  0  0  0
  149.9457  142.6333  158.7661 H   0  0  0  0  0  0  0  0  0  0  0  0
  151.2909  140.0123  157.9948 H   0  0  0  0  0  0  0  0  0  0  0  0
  149.6111  140.4612  157.7442 H   0  0  0  0  0  0  0  0  0  0  0  0
  150.2114  140.2156  159.3736 H   0  0  0  0  0  0  0  0  0  0  0  0
  1  2  1  0  0  0  0
  1 18  1  0  0  0  0
  1 19  1  0  0  0  0
  1 20  1  0  0  0  0
  2 16  1  0  0  0  0
  2  3  1  0  0  0  0
  2 21  1  0  0  0  0
  3  4  1  0  0  0  0
  3 22  1  0  0  0  0
  3 23  1  0  0  0  0
  4  5  1  0  0  0  0
  4 24  1  0  0  0  0
  4 25  1  0  0  0  0
  5  6  1  0  0  0  0
  5 26  1  0  0  0  0
  5 27  1  0  0  0  0
  6  7  1  0  0  0  0
  6 16  1  0  0  0  0
  6 28  1  0  0  0  0
  7  8  1  0  0  0  0
  7 29  1  0  0  0  0
  8  9  2  0  0  0  0
  8 10  1  0  0  0  0
 10 11  1  0  0  0  0
 10 30  1  0  0  0  0
 10 31  1  0  0  0  0
 11 15  1  0  0  0  0
 11 12  1  0  0  0  0
 12 13  2  0  0  0  0
 12 32  1  0  0  0  0
 13 14  1  0  0  0  0
 14 15  2  0  0  0  0
 16 17  1  0  0  0  0
 16 33  1  0  0  0  0
 17 34  1  0  0  0  0
 17 35  1  0  0  0  0
 17 36  1  0  0  0  0
M  END
> <s_m_source_file>
AV-unprocessed.smi

> <i_m_source_file_index>
1982

> <i_lp_mmshare_version>
43012

> <i_f3d_flags>
0

> <s_epik_input>
W0NIM11bQ0BASF0xW0NIMl1bQ0gyXVtDSDJdW0NASF0oW0NASF0xW0NIM10pW05IXUMoPU8pW0NIMl1uMltjSF1ubm4y

> <s_epik_cmdline>
J2VwaWtfcHl0aG9uJywgJy1waCcsICc3LjAnLCAnLXRuJywgJzgnLCAnLW1hJywgJzIwMCcsICctbWV0YWxfYmluZGluZycsICctaW1hZScsICc8aW5maWxlLm1hZT4nLCAnLW9tYWUnLCAnPG91dGZpbGUubWFlPic=

> <r_lp_tautomer_probability>
1

> <r_epik_Ionization_Penalty>
5.03816e-07

> <r_epik_Ionization_Penalty_Charging>
0

> <r_epik_Ionization_Penalty_Neutral>
5.03816e-07

> <r_epik_State_Penalty>
-0

> <r_epik_Charging_Adjusted_Penalty>
0

> <i_epik_Tot_Q>
0

> <i_epik_Tot_abs_Q>
0

> <r_epik_Metal_State_Penalty>
-0

> <b_epik_Metal_Only>
0

> <s_lp_Force_Field>
OPLS_2005

> <r_lp_Energy>
15.2513

> <b_lp_Chiralities_Consistent>
1

> <s_lp_Variant>
AV-unprocessed.smi:1982-4

> <Gold.Version>
5.8.1

> <Gold.Id.Protein>
6NUR|6NUR_protein|mol2

> <Gold.PLP.Fitness>
42.2468

> <Gold.PLP.PLP>
-34.1296

> <Gold.PLP.part.hbond>
-2.0000

> <Gold.PLP.part.metal>
0.0000

> <Gold.PLP.part.buried>
-3.2475

> <Gold.PLP.part.nonpolar>
-29.3587

> <Gold.PLP.part.repulsive>
0.2663

> <Gold.PLP.ligand.clash>
0.0000

> <Gold.PLP.ligand.torsion>
0.3772

> <Gold.PLP.Chemscore.Hbond>
1.9520

> <Gold.PLP.Chemscore.CHOScore>
1.0000

> <Gold.PLP.Chemscore.Metal>
0.0000

> <Gold.Chemscore.Hbonds>
donor molecule, donor type, donor heavy atom, donor atom, acceptor molecule, acceptor atom, score
      L1  H     7    29       P1  8028  1.00
      P1  H  7989  7998       L1     9  0.85
      L1  C    12    32       P1  7957  1.00

> <Gold.PLP.Chemscore.Internal.Correction>
0.0156

> <Gold.Rescore>
     Score         DG    S(hbond)    S(metal)    S(lipo)     H(rot)  DE(clash)    DE(int)     intcor
     15.73     -16.18       1.66        0.00      85.67       1.91       0.08       0.37       ----

> <Gold.Chemscore.Fitness>
15.7326

> <Gold.Chemscore.DG>
-16.1850

> <Gold.Chemscore.ZeroCoef>
-5.4800

> <Gold.Chemscore.Hbond>
1.6650

> <Gold.Chemscore.Metal>
0.0000

> <Gold.Chemscore.Lipo>
85.6654

> <Gold.Chemscore.Internal_Hbond>
0.0000

> <Gold.Chemscore.DEClash>
0.0810

> <Gold.Chemscore.DEInternal>
0.3713

> <Gold.Chemscore.Rot>
1.9058

> <Gold.Chemscore.Internal.Correction>
   9.000000E+99

> <Gold.Chemscore.Hbonds>
donor molecule, donor type, donor heavy atom, donor atom, acceptor molecule, acceptor atom, score
      L1  H     7    29       P1  8028  0.97
      P1  H  7989  7998       L1     9  0.16

> <Gold.Chemscore.Hbond.Weighted>
-5.5609

> <Gold.Chemscore.Metal.Weighted>
-0.0000

> <Gold.Chemscore.Lipo.Weighted>
-10.0229

> <Gold.Chemscore.Internal_Hbond.Weighted>
0.0000

> <Gold.Chemscore.DEClash.Weighted>
0.0810

> <Gold.Chemscore.DEInternal.Weighted>
0.3713

> <Gold.Chemscore.Rot.Weighted>
4.8788

> <Gold.Chemscore.Internal.Correction.Weighted>
   9.000000E+99

> <Gold.Protein.RotatedTorsions>
[ 6907 6896 6895 6894 ] final  101.87 input  -60.11 | X-H torsion
[ 7974 7965 7964 7962 ] final   29.92 input  175.53 | X-H torsion
[ 8008 7997 7996 7995 ] final    8.51 input   59.86 | X-H torsion
[ 10167 10162 10161 10158 ] final -170.92 input  -65.29 | X-H torsion
[ 10718 10713 10712 10709 ] final  -50.98 input   66.30 | X-H torsion
[ 10763 10752 10751 10750 ] final  -42.18 input  -60.55 | X-H torsion
[ 11005 11000 10999 10996 ] final   -5.69 input  -57.11 | X-H torsion

> <Gold.Protein.ActiveResidues>
 VAL166  LYS551  ARG553  GLY616  TRP617  ASP618  TYR619  PRO620  LYS621  CYS622 
 ASP623  PHE694  ASN695  SER759  ASP760  ASP761  ALA762  ILE779  LEU786  VAL792 
 PHE793  MET794  SER795  GLU796  ALA797  LYS798  CYS799  TRP800  GLU811  SER814 

> <Gold.Protein.RotatedAtoms>
  152.5338  134.0060  159.7916 H   0  0  0  0  0  0  0  0  0  0  0  0  # atno 6907 bound_to 6896
  151.0271  133.5816  159.2672 H   0  0  0  0  0  0  0  0  0  0  0  0  # atno 6908 bound_to 6896
  151.2835  135.0728  159.9231 H   0  0  0  0  0  0  0  0  0  0  0  0  # atno 6909 bound_to 6896
  146.1642  139.6857  142.9012 H   0  0  0  0  0  0  0  0  0  0  0  0  # atno 7974 bound_to 7965
  154.7678  140.2796  155.6162 H   0  0  0  0  0  0  0  0  0  0  0  0  # atno 8008 bound_to 7997
  156.2928  140.2647  156.2400 H   0  0  0  0  0  0  0  0  0  0  0  0  # atno 8009 bound_to 7997
  154.9938  140.0373  157.2320 H   0  0  0  0  0  0  0  0  0  0  0  0  # atno 8010 bound_to 7997
  139.5833  144.1374  152.1543 H   0  0  0  0  0  0  0  0  0  0  0  0  # atno 10167 bound_to 10162
  156.1751  130.4150  149.9589 H   0  0  0  0  0  0  0  0  0  0  0  0  # atno 10718 bound_to 10713
  153.9748  135.6724  153.4748 H   0  0  0  0  0  0  0  0  0  0  0  0  # atno 10763 bound_to 10752
  153.0776  135.4940  154.8433 H   0  0  0  0  0  0  0  0  0  0  0  0  # atno 10764 bound_to 10752
  154.7198  135.3115  154.9026 H   0  0  0  0  0  0  0  0  0  0  0  0  # atno 10765 bound_to 10752
  140.6939  133.9048  155.8637 H   0  0  0  0  0  0  0  0  0  0  0  0  # atno 11005 bound_to 11000
  145.4509  141.0428  143.2805 LP  0  0  0  0  0  0  0  0  0  0  0  0  # atno 17320 bound_to 7965
  144.8070  139.6033  143.7046 LP  0  0  0  0  0  0  0  0  0  0  0  0  # atno 17321 bound_to 7965
  140.0932  144.5602  150.7040 LP  0  0  0  0  0  0  0  0  0  0  0  0  # atno 17342 bound_to 10162
  140.7108  143.2504  151.4586 LP  0  0  0  0  0  0  0  0  0  0  0  0  # atno 17343 bound_to 10162
  156.7376  130.9067  151.3630 LP  0  0  0  0  0  0  0  0  0  0  0  0  # atno 17370 bound_to 10713
  157.6830  130.9158  150.0315 LP  0  0  0  0  0  0  0  0  0  0  0  0  # atno 17371 bound_to 10713
  141.0219  134.0877  157.4111 LP  0  0  0  0  0  0  0  0  0  0  0  0  # atno 17394 bound_to 11000
  139.8915  135.0119  156.6798 LP  0  0  0  0  0  0  0  0  0  0  0  0  # atno 17395 bound_to 11000

$$$$
