AV-unprocessed.smi:565|AV-procd|sdf|2951|dock4
  -GOLD-   2262023453D 1   1.00000     0.00000
 Structure written by MMmdl.
 50 51  0  0  0  0  0  0  0  0  2 V2000
  152.7358  138.0147  155.0108 C   0  0  0  0  0  0  0  0  0  0  0  0
  152.0121  139.0984  155.7581 C   0  0  0  0  0  0  0  0  0  0  0  0
  152.5802  139.6344  156.8251 N   0  0  0  0  0  0  0  0  0  0  0  0
  151.6994  140.5585  157.2574 N   0  0  0  0  0  0  0  0  0  0  0  0
  152.0150  141.3477  158.4322 C   0  0  0  0  0  0  0  0  0  0  0  0
  150.5713  140.6064  156.4621 C   0  0  0  0  0  0  0  0  0  0  0  0
  149.4457  141.5508  156.7384 C   0  0  0  0  0  0  0  0  0  0  0  0
  150.7358  139.6699  155.4759 C   0  0  0  0  0  0  0  0  0  0  0  0
  149.7992  139.3087  154.3500 C   0  0  0  0  0  0  0  0  0  0  0  0
  148.5990  138.5437  154.9081 C   0  0  0  0  0  0  0  0  0  0  0  0
  147.8762  139.0638  155.7575 O   0  0  0  0  0  0  0  0  0  0  0  0
  148.3876  137.3144  154.4129 N   0  0  0  0  0  0  0  0  0  0  0  0
  147.2652  136.4547  154.7656 C   0  0  0  0  0  0  0  0  0  0  0  0
  146.3010  136.2847  153.5754 C   0  0  0  0  0  0  0  0  0  0  0  0
  146.5478  135.0336  152.8151 N   0  3  1  0  0  0  0  0  0  0  0  0
  146.9107  133.9015  153.7069 C   0  0  0  0  0  0  0  0  0  0  0  0
  147.3005  132.6576  152.8929 C   0  0  0  0  0  0  0  0  0  0  0  0
  146.1739  132.2545  151.9335 C   0  0  0  0  0  0  0  0  0  0  0  0
  145.7872  133.4424  151.0367 C   0  0  1  0  0  0  0  0  0  0  0  0
  144.6419  133.0747  150.0827 C   0  0  0  0  0  0  0  0  0  0  0  0
  145.4325  134.6703  151.8994 C   0  0  0  0  0  0  0  0  0  0  0  0
  152.0367  137.3276  154.5344 H   0  0  0  0  0  0  0  0  0  0  0  0
  153.3707  137.4261  155.6740 H   0  0  0  0  0  0  0  0  0  0  0  0
  153.3699  138.4368  154.2312 H   0  0  0  0  0  0  0  0  0  0  0  0
  151.2435  141.2041  159.1890 H   0  0  0  0  0  0  0  0  0  0  0  0
  152.0588  142.4032  158.1631 H   0  0  0  0  0  0  0  0  0  0  0  0
  152.9775  141.0500  158.8504 H   0  0  0  0  0  0  0  0  0  0  0  0
  148.6150  141.3920  156.0513 H   0  0  0  0  0  0  0  0  0  0  0  0
  149.7747  142.5847  156.6320 H   0  0  0  0  0  0  0  0  0  0  0  0
  149.0676  141.4176  157.7521 H   0  0  0  0  0  0  0  0  0  0  0  0
  149.4446  140.1919  153.8176 H   0  0  0  0  0  0  0  0  0  0  0  0
  150.3000  138.6914  153.6033 H   0  0  0  0  0  0  0  0  0  0  0  0
  149.0348  136.9650  153.7209 H   0  0  0  0  0  0  0  0  0  0  0  0
  147.6792  135.4957  155.0738 H   0  0  0  0  0  0  0  0  0  0  0  0
  146.7394  136.8600  155.6316 H   0  0  0  0  0  0  0  0  0  0  0  0
  145.2814  136.2655  153.9629 H   0  0  0  0  0  0  0  0  0  0  0  0
  146.3571  137.1435  152.9047 H   0  0  0  0  0  0  0  0  0  0  0  0
  147.7491  134.1853  154.3444 H   0  0  0  0  0  0  0  0  0  0  0  0
  146.0725  133.6734  154.3673 H   0  0  0  0  0  0  0  0  0  0  0  0
  148.2109  132.8595  152.3269 H   0  0  0  0  0  0  0  0  0  0  0  0
  147.5314  131.8301  153.5647 H   0  0  0  0  0  0  0  0  0  0  0  0
  146.4908  131.4072  151.3244 H   0  0  0  0  0  0  0  0  0  0  0  0
  145.3070  131.9203  152.5055 H   0  0  0  0  0  0  0  0  0  0  0  0
  146.6530  133.6998  150.4246 H   0  0  0  0  0  0  0  0  0  0  0  0
  143.7378  132.8078  150.6310 H   0  0  0  0  0  0  0  0  0  0  0  0
  144.9124  132.2255  149.4541 H   0  0  0  0  0  0  0  0  0  0  0  0
  144.3974  133.9073  149.4224 H   0  0  0  0  0  0  0  0  0  0  0  0
  144.5321  134.4740  152.4842 H   0  0  0  0  0  0  0  0  0  0  0  0
  145.2021  135.5065  151.2404 H   0  0  0  0  0  0  0  0  0  0  0  0
  147.3592  135.2062  152.2386 H   0  0  0  0  0  0  0  0  0  0  0  0
  1  2  1  0  0  0  0
  1 22  1  0  0  0  0
  1 23  1  0  0  0  0
  1 24  1  0  0  0  0
  2  8  1  0  0  0  0
  2  3  2  0  0  0  0
  3  4  1  0  0  0  0
  4  5  1  0  0  0  0
  4  6  1  0  0  0  0
  5 25  1  0  0  0  0
  5 26  1  0  0  0  0
  5 27  1  0  0  0  0
  6  7  1  0  0  0  0
  6  8  2  0  0  0  0
  7 28  1  0  0  0  0
  7 29  1  0  0  0  0
  7 30  1  0  0  0  0
  8  9  1  0  0  0  0
  9 10  1  0  0  0  0
  9 31  1  0  0  0  0
  9 32  1  0  0  0  0
 10 11  2  0  0  0  0
 10 12  1  0  0  0  0
 12 13  1  0  0  0  0
 12 33  1  0  0  0  0
 13 14  1  0  0  0  0
 13 34  1  0  0  0  0
 13 35  1  0  0  0  0
 14 15  1  0  0  0  0
 14 36  1  0  0  0  0
 14 37  1  0  0  0  0
 15 21  1  0  0  0  0
 15 16  1  0  0  0  0
 15 50  1  0  0  0  0
 16 17  1  0  0  0  0
 16 38  1  0  0  0  0
 16 39  1  0  0  0  0
 17 18  1  0  0  0  0
 17 40  1  0  0  0  0
 17 41  1  0  0  0  0
 18 19  1  0  0  0  0
 18 42  1  0  0  0  0
 18 43  1  0  0  0  0
 19 20  1  0  0  0  0
 19 21  1  0  0  0  0
 19 44  1  0  0  0  0
 20 45  1  0  0  0  0
 20 46  1  0  0  0  0
 20 47  1  0  0  0  0
 21 48  1  0  0  0  0
 21 49  1  0  0  0  0
M  CHG  1  15   1
M  END
> <s_m_source_file>
AV-unprocessed.smi

> <i_m_source_file_index>
565

> <i_lp_mmshare_version>
43012

> <i_f3d_flags>
0

> <s_epik_input>
W0NIM11jMW5uKFtDSDNdKWMoW0NIM10pYzFbQ0gyXUMoPU8pW05IXVtDSDJdW0NIMl1OMltDSDJdW0NIMl1bQ0gyXVtDQEBIXShbQ0gzXSlbQ0gyXTI=

> <s_epik_cmdline>
J2VwaWtfcHl0aG9uJywgJy1waCcsICc3LjAnLCAnLXRuJywgJzgnLCAnLW1hJywgJzIwMCcsICctbWV0YWxfYmluZGluZycsICctaW1hZScsICc8aW5maWxlLm1hZT4nLCAnLW9tYWUnLCAnPG91dGZpbGUubWFlPic=

> <r_lp_tautomer_probability>
1

> <r_epik_Ionization_Penalty>
0.00411138

> <r_epik_Ionization_Penalty_Charging>
0.0019503

> <r_epik_Ionization_Penalty_Neutral>
0.00216107

> <r_epik_State_Penalty>
-0

> <r_epik_Charging_Adjusted_Penalty>
0.0019503

> <i_epik_Tot_Q>
1

> <i_epik_Tot_abs_Q>
1

> <r_epik_Metal_State_Penalty>
-0

> <b_epik_Metal_Only>
0

> <s_lp_Force_Field>
OPLS_2005

> <r_lp_Energy>
10.3148

> <b_lp_Chiralities_Consistent>
1

> <s_lp_Variant>
AV-unprocessed.smi:565-1

> <Gold.Version>
5.8.1

> <Gold.Id.Protein>
6NUR|6NUR_protein|mol2

> <Gold.PLP.Fitness>
45.8911

> <Gold.PLP.PLP>
-35.4660

> <Gold.PLP.part.hbond>
-3.0000

> <Gold.PLP.part.metal>
0.0000

> <Gold.PLP.part.buried>
-2.9024

> <Gold.PLP.part.nonpolar>
-29.5202

> <Gold.PLP.part.repulsive>
0.0000

> <Gold.PLP.ligand.clash>
0.0000

> <Gold.PLP.ligand.torsion>
0.5973

> <Gold.PLP.Chemscore.Hbond>
3.8640

> <Gold.PLP.Chemscore.CHOScore>
0.0000

> <Gold.PLP.Chemscore.Metal>
0.0000

> <Gold.Chemscore.Hbonds>
donor molecule, donor type, donor heavy atom, donor atom, acceptor molecule, acceptor atom, score
      L1  H    12    33       P1  7948  0.77
      L1  H    15    50       P1  7948  2.00
      P1  H  7997  8009       L1     3  1.00

> <Gold.PLP.Chemscore.Internal.Correction>
0.0277

> <Gold.Rescore>
     Score         DG    S(hbond)    S(metal)    S(lipo)     H(rot)  DE(clash)    DE(int)     intcor
     20.24     -20.76       2.78        0.00      86.53       1.61       0.00       0.52       ----

> <Gold.Chemscore.Fitness>
20.2395

> <Gold.Chemscore.DG>
-20.7626

> <Gold.Chemscore.ZeroCoef>
-5.4800

> <Gold.Chemscore.Hbond>
2.7816

> <Gold.Chemscore.Metal>
0.0000

> <Gold.Chemscore.Lipo>
86.5335

> <Gold.Chemscore.Internal_Hbond>
0.0000

> <Gold.Chemscore.DEClash>
0.0000

> <Gold.Chemscore.DEInternal>
0.5232

> <Gold.Chemscore.Rot>
1.6142

> <Gold.Chemscore.Internal.Correction>
   9.000000E+99

> <Gold.Chemscore.Hbonds>
donor molecule, donor type, donor heavy atom, donor atom, acceptor molecule, acceptor atom, score
      L1  H    12    33       P1  7948  0.76
      L1  H    15    50       P1  7948  0.96
      P1  H  7997  8009       L1     3  0.91

> <Gold.Chemscore.Hbond.Weighted>
-9.2906

> <Gold.Chemscore.Metal.Weighted>
-0.0000

> <Gold.Chemscore.Lipo.Weighted>
-10.1244

> <Gold.Chemscore.Internal_Hbond.Weighted>
0.0000

> <Gold.Chemscore.DEClash.Weighted>
0.0000

> <Gold.Chemscore.DEInternal.Weighted>
0.5232

> <Gold.Chemscore.Rot.Weighted>
4.1324

> <Gold.Chemscore.Internal.Correction.Weighted>
   9.000000E+99

> <Gold.Protein.RotatedTorsions>
[ 6907 6896 6895 6894 ] final  104.11 input  -60.11 | X-H torsion
[ 7974 7965 7964 7962 ] final -176.62 input  175.53 | X-H torsion
[ 8008 7997 7996 7995 ] final  178.84 input   59.86 | X-H torsion
[ 10167 10162 10161 10158 ] final   15.88 input  -65.29 | X-H torsion
[ 10718 10713 10712 10709 ] final  -90.20 input   66.30 | X-H torsion
[ 10763 10752 10751 10750 ] final  101.13 input  -60.55 | X-H torsion
[ 11005 11000 10999 10996 ] final  -80.80 input  -57.11 | X-H torsion

> <Gold.Protein.ActiveResidues>
 VAL166  LYS551  ARG553  GLY616  TRP617  ASP618  TYR619  PRO620  LYS621  CYS622 
 ASP623  PHE694  ASN695  SER759  ASP760  ASP761  ALA762  ILE779  LEU786  VAL792 
 PHE793  MET794  SER795  GLU796  ALA797  LYS798  CYS799  TRP800  GLU811  SER814 

> <Gold.Protein.RotatedAtoms>
  152.5275  133.9726  159.7768 H   0  0  0  0  0  0  0  0  0  0  0  0  # atno 6907 bound_to 6896
  150.9995  133.6062  159.2704 H   0  0  0  0  0  0  0  0  0  0  0  0  # atno 6908 bound_to 6896
  151.3177  135.0817  159.9348 H   0  0  0  0  0  0  0  0  0  0  0  0  # atno 6909 bound_to 6896
  144.7127  140.1143  143.6409 H   0  0  0  0  0  0  0  0  0  0  0  0  # atno 7974 bound_to 7965
  156.0502  140.1323  157.0059 H   0  0  0  0  0  0  0  0  0  0  0  0  # atno 8008 bound_to 7997
  154.4431  140.1012  156.6435 H   0  0  0  0  0  0  0  0  0  0  0  0  # atno 8009 bound_to 7997
  155.5535  140.3463  155.4476 H   0  0  0  0  0  0  0  0  0  0  0  0  # atno 8010 bound_to 7997
  140.5837  143.8932  150.6811 H   0  0  0  0  0  0  0  0  0  0  0  0  # atno 10167 bound_to 10162
  155.9987  130.4901  150.5287 H   0  0  0  0  0  0  0  0  0  0  0  0  # atno 10718 bound_to 10713
  153.3228  135.4055  155.1431 H   0  0  0  0  0  0  0  0  0  0  0  0  # atno 10763 bound_to 10752
  154.8604  135.3591  154.5574 H   0  0  0  0  0  0  0  0  0  0  0  0  # atno 10764 bound_to 10752
  153.6008  135.7071  153.5444 H   0  0  0  0  0  0  0  0  0  0  0  0  # atno 10765 bound_to 10752
  141.1667  133.7167  156.8327 H   0  0  0  0  0  0  0  0  0  0  0  0  # atno 11005 bound_to 11000
  145.9427  139.2680  143.1259 LP  0  0  0  0  0  0  0  0  0  0  0  0  # atno 17320 bound_to 7965
  145.9406  140.8982  143.0309 LP  0  0  0  0  0  0  0  0  0  0  0  0  # atno 17321 bound_to 7965
  140.2437  143.3644  152.1464 LP  0  0  0  0  0  0  0  0  0  0  0  0  # atno 17342 bound_to 10162
  139.5184  144.7006  151.5504 LP  0  0  0  0  0  0  0  0  0  0  0  0  # atno 17343 bound_to 10162
  157.3239  131.0687  151.1911 LP  0  0  0  0  0  0  0  0  0  0  0  0  # atno 17370 bound_to 10713
  157.2815  130.6752  149.6068 LP  0  0  0  0  0  0  0  0  0  0  0  0  # atno 17371 bound_to 10713
  140.2039  134.8877  157.3200 LP  0  0  0  0  0  0  0  0  0  0  0  0  # atno 17394 bound_to 11000
  140.2158  134.4084  155.7590 LP  0  0  0  0  0  0  0  0  0  0  0  0  # atno 17395 bound_to 11000

$$$$
