AV-unprocessed.smi:1413|AV-procd|sdf|5753|dock3
  -GOLD-   22720 5393D 1   1.00000     0.00000
 Structure written by MMmdl.
 53 55  0  0  0  0  0  0  0  0  1 V2000
  151.2855  144.7575  158.0211 C   0  0  0  0  0  0  0  0  0  0  0  0
  152.0595  143.4357  157.9899 C   0  0  2  0  0  0  0  0  0  0  0  0
  151.2087  142.2801  157.4301 C   0  0  0  0  0  0  0  0  0  0  0  0
  151.9392  141.0189  157.5202 N   0  0  0  0  0  0  0  0  0  0  0  0
  151.3921  139.9412  156.7897 C   0  0  0  0  0  0  0  0  0  0  0  0
  151.1209  138.7100  157.4314 C   0  0  0  0  0  0  0  0  0  0  0  0
  150.5836  137.6478  156.6802 C   0  0  0  0  0  0  0  0  0  0  0  0
  150.3316  137.8313  155.3070 C   0  0  0  0  0  0  0  0  0  0  0  0
  149.7796  136.7404  154.5818 N   0  0  0  0  0  0  0  0  0  0  0  0
  149.4610  135.5109  155.0215 C   0  0  0  0  0  0  0  0  0  0  0  0
  149.6022  135.1057  156.1748 O   0  0  0  0  0  0  0  0  0  0  0  0
  148.9462  134.7658  154.0333 N   0  0  0  0  0  0  0  0  0  0  0  0
  148.4730  133.3902  154.1667 C   0  0  2  0  0  0  0  0  0  0  0  0
  149.6478  132.4820  154.5690 C   0  0  0  0  0  0  0  0  0  0  0  0
  147.8153  132.9504  152.8440 C   0  0  1  0  0  0  0  0  0  0  0  0
  147.0264  131.6414  152.9300 C   0  0  0  0  0  0  0  0  0  0  0  0
  146.0151  131.8123  151.8207 C   0  0  0  0  0  0  0  0  0  0  0  0
  145.6735  133.2920  151.9488 C   0  0  0  0  0  0  0  0  0  0  0  0
  146.8623  133.9239  152.4152 O   0  0  0  0  0  0  0  0  0  0  0  0
  150.6152  139.1030  154.7547 C   0  0  0  0  0  0  0  0  0  0  0  0
  151.1291  140.1243  155.4724 N   0  0  0  0  0  0  0  0  0  0  0  0
  152.4532  140.7468  158.8613 C   0  0  0  0  0  0  0  0  0  0  0  0
  153.2661  141.9470  159.3825 C   0  0  2  0  0  0  0  0  0  0  0  0
  153.7160  141.7494  160.8339 C   0  0  0  0  0  0  0  0  0  0  0  0
  152.4608  143.1208  159.3204 O   0  0  0  0  0  0  0  0  0  0  0  0
  150.9637  145.0473  157.0203 H   0  0  0  0  0  0  0  0  0  0  0  0
  151.9052  145.5624  158.4169 H   0  0  0  0  0  0  0  0  0  0  0  0
  150.3978  144.6806  158.6493 H   0  0  0  0  0  0  0  0  0  0  0  0
  152.9479  143.5703  157.3701 H   0  0  0  0  0  0  0  0  0  0  0  0
  150.2815  142.1872  157.9973 H   0  0  0  0  0  0  0  0  0  0  0  0
  150.9290  142.5115  156.4035 H   0  0  0  0  0  0  0  0  0  0  0  0
  151.3042  138.5722  158.4864 H   0  0  0  0  0  0  0  0  0  0  0  0
  150.3697  136.7023  157.1570 H   0  0  0  0  0  0  0  0  0  0  0  0
  149.5467  136.9375  153.6196 H   0  0  0  0  0  0  0  0  0  0  0  0
  148.8590  135.1856  153.1196 H   0  0  0  0  0  0  0  0  0  0  0  0
  147.7150  133.3455  154.9510 H   0  0  0  0  0  0  0  0  0  0  0  0
  149.3231  131.4520  154.7159 H   0  0  0  0  0  0  0  0  0  0  0  0
  150.0995  132.8137  155.5046 H   0  0  0  0  0  0  0  0  0  0  0  0
  150.4268  132.4799  153.8060 H   0  0  0  0  0  0  0  0  0  0  0  0
  148.5679  132.8611  152.0585 H   0  0  0  0  0  0  0  0  0  0  0  0
  147.6525  130.7577  152.8028 H   0  0  0  0  0  0  0  0  0  0  0  0
  146.5129  131.5616  153.8895 H   0  0  0  0  0  0  0  0  0  0  0  0
  146.4797  131.6132  150.8540 H   0  0  0  0  0  0  0  0  0  0  0  0
  145.1453  131.1633  151.9262 H   0  0  0  0  0  0  0  0  0  0  0  0
  145.3317  133.7249  151.0085 H   0  0  0  0  0  0  0  0  0  0  0  0
  144.8903  133.4376  152.6938 H   0  0  0  0  0  0  0  0  0  0  0  0
  150.4179  139.3391  153.7213 H   0  0  0  0  0  0  0  0  0  0  0  0
  151.6169  140.5396  159.5306 H   0  0  0  0  0  0  0  0  0  0  0  0
  153.0881  139.8599  158.8472 H   0  0  0  0  0  0  0  0  0  0  0  0
  154.1523  142.0880  158.7609 H   0  0  0  0  0  0  0  0  0  0  0  0
  154.3450  140.8643  160.9329 H   0  0  0  0  0  0  0  0  0  0  0  0
  152.8602  141.6282  161.4987 H   0  0  0  0  0  0  0  0  0  0  0  0
  154.2909  142.6070  161.1841 H   0  0  0  0  0  0  0  0  0  0  0  0
  1  2  1  0  0  0  0
  1 26  1  0  0  0  0
  1 27  1  0  0  0  0
  1 28  1  0  0  0  0
  2 25  1  0  0  0  0
  2  3  1  0  0  0  0
  2 29  1  0  0  0  0
  3  4  1  0  0  0  0
  3 30  1  0  0  0  0
  3 31  1  0  0  0  0
  4  5  1  0  0  0  0
  4 22  1  0  0  0  0
  5 21  1  0  0  0  0
  5  6  2  0  0  0  0
  6  7  1  0  0  0  0
  6 32  1  0  0  0  0
  7  8  2  0  0  0  0
  7 33  1  0  0  0  0
  8  9  1  0  0  0  0
  8 20  1  0  0  0  0
  9 10  1  0  0  0  0
  9 34  1  0  0  0  0
 10 11  2  0  0  0  0
 10 12  1  0  0  0  0
 12 13  1  0  0  0  0
 12 35  1  0  0  0  0
 13 14  1  0  0  0  0
 13 15  1  0  0  0  0
 13 36  1  0  0  0  0
 14 37  1  0  0  0  0
 14 38  1  0  0  0  0
 14 39  1  0  0  0  0
 15 19  1  0  0  0  0
 15 16  1  0  0  0  0
 15 40  1  0  0  0  0
 16 17  1  0  0  0  0
 16 41  1  0  0  0  0
 16 42  1  0  0  0  0
 17 18  1  0  0  0  0
 17 43  1  0  0  0  0
 17 44  1  0  0  0  0
 18 19  1  0  0  0  0
 18 45  1  0  0  0  0
 18 46  1  0  0  0  0
 20 21  2  0  0  0  0
 20 47  1  0  0  0  0
 22 23  1  0  0  0  0
 22 48  1  0  0  0  0
 22 49  1  0  0  0  0
 23 24  1  0  0  0  0
 23 25  1  0  0  0  0
 23 50  1  0  0  0  0
 24 51  1  0  0  0  0
 24 52  1  0  0  0  0
 24 53  1  0  0  0  0
M  END
> <s_m_source_file>
AV-unprocessed.smi

> <i_m_source_file_index>
1413

> <i_lp_mmshare_version>
43012

> <i_f3d_flags>
0

> <s_epik_input>
W0NIM11bQ0BASF0xW0NIMl1OKFtDSDJdW0NASF0oTzEpW0NIM10pYzJbY0hdW2NIXWMoW2NIXW4yKVtOSF1DKD1PKVtOSF1bQ0BIXShbQ0gzXSlbQ0BASF0zW0NIMl1bQ0gyXVtDSDJdTzM=

> <s_epik_cmdline>
J2VwaWtfcHl0aG9uJywgJy1waCcsICc3LjAnLCAnLXRuJywgJzgnLCAnLW1hJywgJzIwMCcsICctbWV0YWxfYmluZGluZycsICctaW1hZScsICc8aW5maWxlLm1hZT4nLCAnLW9tYWUnLCAnPG91dGZpbGUubWFlPic=

> <r_lp_tautomer_probability>
1

> <r_epik_Ionization_Penalty>
0.00271172

> <r_epik_Ionization_Penalty_Charging>
0

> <r_epik_Ionization_Penalty_Neutral>
0.00271172

> <r_epik_State_Penalty>
0.00186503

> <r_epik_Charging_Adjusted_Penalty>
0.00186503

> <i_epik_Tot_Q>
0

> <i_epik_Tot_abs_Q>
0

> <r_epik_Metal_State_Penalty>
-0

> <b_epik_Metal_Only>
0

> <s_lp_Force_Field>
OPLS_2005

> <r_lp_Energy>
33.9013

> <b_lp_Chiralities_Consistent>
1

> <s_lp_Variant>
AV-unprocessed.smi:1413-6

> <Gold.Version>
5.8.1

> <Gold.Id.Protein>
6NUR|6NUR_protein|mol2

> <Gold.PLP.Fitness>
50.0069

> <Gold.PLP.PLP>
-42.7837

> <Gold.PLP.part.hbond>
-2.8098

> <Gold.PLP.part.metal>
0.0000

> <Gold.PLP.part.buried>
-5.5733

> <Gold.PLP.part.nonpolar>
-34.4294

> <Gold.PLP.part.repulsive>
0.6168

> <Gold.PLP.ligand.clash>
0.0000

> <Gold.PLP.ligand.torsion>
0.2943

> <Gold.PLP.Chemscore.Hbond>
2.0673

> <Gold.PLP.Chemscore.CHOScore>
0.4205

> <Gold.PLP.Chemscore.Metal>
0.0000

> <Gold.Chemscore.Hbonds>
donor molecule, donor type, donor heavy atom, donor atom, acceptor molecule, acceptor atom, score
      L1  H     9    34       P1  7948  0.96
      L1  H    12    35       P1  7948  1.00
      P1  H  7989  7998       L1    21  0.10
      L1  C    20    47       P1  7957  0.41

> <Gold.PLP.Chemscore.Internal.Correction>
0.3485

> <Gold.Rescore>
     Score         DG    S(hbond)    S(metal)    S(lipo)     H(rot)  DE(clash)    DE(int)     intcor
     18.66     -20.51       1.75        0.00     107.95       1.35       0.04       1.82       ----

> <Gold.Chemscore.Fitness>
18.6589

> <Gold.Chemscore.DG>
-20.5149

> <Gold.Chemscore.ZeroCoef>
-5.4800

> <Gold.Chemscore.Hbond>
1.7523

> <Gold.Chemscore.Metal>
0.0000

> <Gold.Chemscore.Lipo>
107.9541

> <Gold.Chemscore.Internal_Hbond>
0.0000

> <Gold.Chemscore.DEClash>
0.0385

> <Gold.Chemscore.DEInternal>
1.8175

> <Gold.Chemscore.Rot>
1.3471

> <Gold.Chemscore.Internal.Correction>
   9.000000E+99

> <Gold.Chemscore.Hbonds>
donor molecule, donor type, donor heavy atom, donor atom, acceptor molecule, acceptor atom, score
      L1  H     9    34       P1  7948  0.78
      L1  H    12    35       P1  7948  0.44

> <Gold.Chemscore.Hbond.Weighted>
-5.8528

> <Gold.Chemscore.Metal.Weighted>
-0.0000

> <Gold.Chemscore.Lipo.Weighted>
-12.6306

> <Gold.Chemscore.Internal_Hbond.Weighted>
0.0000

> <Gold.Chemscore.DEClash.Weighted>
0.0385

> <Gold.Chemscore.DEInternal.Weighted>
1.8175

> <Gold.Chemscore.Rot.Weighted>
3.4485

> <Gold.Chemscore.Internal.Correction.Weighted>
   9.000000E+99

> <Gold.Protein.RotatedTorsions>
[ 6907 6896 6895 6894 ] final  111.70 input  -60.11 | X-H torsion
[ 7974 7965 7964 7962 ] final  114.57 input  175.53 | X-H torsion
[ 8008 7997 7996 7995 ] final -150.86 input   59.86 | X-H torsion
[ 10167 10162 10161 10158 ] final  -93.01 input  -65.29 | X-H torsion
[ 10718 10713 10712 10709 ] final  101.87 input   66.30 | X-H torsion
[ 10763 10752 10751 10750 ] final   61.73 input  -60.55 | X-H torsion
[ 11005 11000 10999 10996 ] final -145.04 input  -57.11 | X-H torsion

> <Gold.Protein.ActiveResidues>
 VAL166  LYS551  ARG553  GLY616  TRP617  ASP618  TYR619  PRO620  LYS621  CYS622 
 ASP623  PHE694  ASN695  SER759  ASP760  ASP761  ALA762  ILE779  LEU786  VAL792 
 PHE793  MET794  SER795  GLU796  ALA797  LYS798  CYS799  TRP800  GLU811  SER814 

> <Gold.Protein.RotatedAtoms>
  152.4955  133.8620  159.7254 H   0  0  0  0  0  0  0  0  0  0  0  0  # atno 6907 bound_to 6896
  150.9129  133.6966  159.2857 H   0  0  0  0  0  0  0  0  0  0  0  0  # atno 6908 bound_to 6896
  151.4369  135.1020  159.9711 H   0  0  0  0  0  0  0  0  0  0  0  0  # atno 6909 bound_to 6896
  145.2027  139.2944  143.4310 H   0  0  0  0  0  0  0  0  0  0  0  0  # atno 7974 bound_to 7965
  155.6303  140.0690  157.2651 H   0  0  0  0  0  0  0  0  0  0  0  0  # atno 8008 bound_to 7997
  154.4207  140.1768  156.1513 H   0  0  0  0  0  0  0  0  0  0  0  0  # atno 8009 bound_to 7997
  155.9939  140.3342  155.6782 H   0  0  0  0  0  0  0  0  0  0  0  0  # atno 8010 bound_to 7997
  140.3289  143.3006  151.9963 H   0  0  0  0  0  0  0  0  0  0  0  0  # atno 10167 bound_to 10162
  157.6818  131.0738  150.5317 H   0  0  0  0  0  0  0  0  0  0  0  0  # atno 10718 bound_to 10713
  152.9959  135.5490  154.6079 H   0  0  0  0  0  0  0  0  0  0  0  0  # atno 10763 bound_to 10752
  154.5406  135.2819  155.1100 H   0  0  0  0  0  0  0  0  0  0  0  0  # atno 10764 bound_to 10752
  154.2379  135.6421  153.5250 H   0  0  0  0  0  0  0  0  0  0  0  0  # atno 10765 bound_to 10752
  140.7963  134.2909  157.4995 H   0  0  0  0  0  0  0  0  0  0  0  0  # atno 11005 bound_to 11000
  146.3414  140.2277  142.8592 LP  0  0  0  0  0  0  0  0  0  0  0  0  # atno 17320 bound_to 7965
  144.9932  140.8565  143.5327 LP  0  0  0  0  0  0  0  0  0  0  0  0  # atno 17321 bound_to 7965
  139.4860  144.6251  151.7181 LP  0  0  0  0  0  0  0  0  0  0  0  0  # atno 17342 bound_to 10162
  140.5415  144.0572  150.6090 LP  0  0  0  0  0  0  0  0  0  0  0  0  # atno 17343 bound_to 10162
  156.5627  130.4259  149.6055 LP  0  0  0  0  0  0  0  0  0  0  0  0  # atno 17370 bound_to 10713
  156.2807  130.7069  151.1893 LP  0  0  0  0  0  0  0  0  0  0  0  0  # atno 17371 bound_to 10713
  139.8726  134.9404  156.3768 LP  0  0  0  0  0  0  0  0  0  0  0  0  # atno 17394 bound_to 11000
  140.9339  133.7560  156.0060 LP  0  0  0  0  0  0  0  0  0  0  0  0  # atno 17395 bound_to 11000

$$$$
