AV-unprocessed.smi:1458|AV-procd|sdf|5923|dock2
  -GOLD-   22720 6 03D 1   1.00000     0.00000
 Structure written by MMmdl.
 46 47  0  0  0  0  0  0  0  0  1 V2000
  144.8927  135.2519  150.7243 C   0  0  0  0  0  0  0  0  0  0  0  0
  145.8184  136.3246  150.7422 O   0  0  0  0  0  0  0  0  0  0  0  0
  145.6407  137.1768  151.8620 C   0  0  0  0  0  0  0  0  0  0  0  0
  146.3527  138.5105  151.6086 C   0  0  0  0  0  0  0  0  0  0  0  0
  147.5743  138.6052  152.3969 N   0  0  0  0  0  0  0  0  0  0  0  0
  147.8090  139.5520  153.3145 C   0  0  0  0  0  0  0  0  0  0  0  0
  147.0086  140.4476  153.5832 O   0  0  0  0  0  0  0  0  0  0  0  0
  149.0229  139.4014  153.8718 N   0  0  0  0  0  0  0  0  0  0  0  0
  149.6212  140.1780  154.9008 C   0  0  0  0  0  0  0  0  0  0  0  0
  150.8983  139.8029  155.3603 C   0  0  0  0  0  0  0  0  0  0  0  0
  151.5043  140.5445  156.3922 C   0  0  0  0  0  0  0  0  0  0  0  0
  150.8111  141.6445  156.9497 C   0  0  0  0  0  0  0  0  0  0  0  0
  151.4011  142.4026  157.9835 N   0  0  0  0  0  0  0  0  0  0  0  0
  152.2168  141.6483  158.9292 C   0  0  0  0  0  0  0  0  0  0  0  0
  152.4949  142.4902  160.1876 C   0  0  1  0  0  0  0  0  0  0  0  0
  153.4616  141.7845  161.1445 C   0  0  0  0  0  0  0  0  0  0  0  0
  153.0786  143.7373  159.8121 O   0  0  0  0  0  0  0  0  0  0  0  0
  152.2928  144.5184  158.9088 C   0  0  2  0  0  0  0  0  0  0  0  0
  151.0450  145.1124  159.5869 C   0  0  0  0  0  0  0  0  0  0  0  0
  151.9729  143.7029  157.6409 C   0  0  0  0  0  0  0  0  0  0  0  0
  149.5726  141.9919  156.5220 N   0  0  0  0  0  0  0  0  0  0  0  0
  148.9965  141.2809  155.5297 C   0  0  0  0  0  0  0  0  0  0  0  0
  145.0725  134.6272  149.8496 H   0  0  0  0  0  0  0  0  0  0  0  0
  143.8664  135.6172  150.6716 H   0  0  0  0  0  0  0  0  0  0  0  0
  144.9963  134.6261  151.6117 H   0  0  0  0  0  0  0  0  0  0  0  0
  144.5763  137.3572  152.0186 H   0  0  0  0  0  0  0  0  0  0  0  0
  146.0279  136.7054  152.7669 H   0  0  0  0  0  0  0  0  0  0  0  0
  146.5878  138.6198  150.5489 H   0  0  0  0  0  0  0  0  0  0  0  0
  145.6872  139.3327  151.8766 H   0  0  0  0  0  0  0  0  0  0  0  0
  148.2858  137.9100  152.2249 H   0  0  0  0  0  0  0  0  0  0  0  0
  149.6048  138.6743  153.4822 H   0  0  0  0  0  0  0  0  0  0  0  0
  151.4125  138.9566  154.9284 H   0  0  0  0  0  0  0  0  0  0  0  0
  152.4803  140.2553  156.7526 H   0  0  0  0  0  0  0  0  0  0  0  0
  151.7353  140.7160  159.2215 H   0  0  0  0  0  0  0  0  0  0  0  0
  153.1548  141.3792  158.4417 H   0  0  0  0  0  0  0  0  0  0  0  0
  151.5617  142.6671  160.7228 H   0  0  0  0  0  0  0  0  0  0  0  0
  153.0554  140.8300  161.4799 H   0  0  0  0  0  0  0  0  0  0  0  0
  153.6493  142.3944  162.0284 H   0  0  0  0  0  0  0  0  0  0  0  0
  154.4207  141.5904  160.6638 H   0  0  0  0  0  0  0  0  0  0  0  0
  152.9190  145.3599  158.6115 H   0  0  0  0  0  0  0  0  0  0  0  0
  150.5366  145.8071  158.9179 H   0  0  0  0  0  0  0  0  0  0  0  0
  151.3169  145.6622  160.4880 H   0  0  0  0  0  0  0  0  0  0  0  0
  150.3213  144.3472  159.8666 H   0  0  0  0  0  0  0  0  0  0  0  0
  152.8879  143.5429  157.0685 H   0  0  0  0  0  0  0  0  0  0  0  0
  151.2900  144.2669  157.0042 H   0  0  0  0  0  0  0  0  0  0  0  0
  148.0021  141.6035  155.2634 H   0  0  0  0  0  0  0  0  0  0  0  0
  1  2  1  0  0  0  0
  1 23  1  0  0  0  0
  1 24  1  0  0  0  0
  1 25  1  0  0  0  0
  2  3  1  0  0  0  0
  3  4  1  0  0  0  0
  3 26  1  0  0  0  0
  3 27  1  0  0  0  0
  4  5  1  0  0  0  0
  4 28  1  0  0  0  0
  4 29  1  0  0  0  0
  5  6  1  0  0  0  0
  5 30  1  0  0  0  0
  6  7  2  0  0  0  0
  6  8  1  0  0  0  0
  8  9  1  0  0  0  0
  8 31  1  0  0  0  0
  9 22  1  0  0  0  0
  9 10  2  0  0  0  0
 10 11  1  0  0  0  0
 10 32  1  0  0  0  0
 11 12  2  0  0  0  0
 11 33  1  0  0  0  0
 12 13  1  0  0  0  0
 12 21  1  0  0  0  0
 13 20  1  0  0  0  0
 13 14  1  0  0  0  0
 14 15  1  0  0  0  0
 14 34  1  0  0  0  0
 14 35  1  0  0  0  0
 15 16  1  0  0  0  0
 15 17  1  0  0  0  0
 15 36  1  0  0  0  0
 16 37  1  0  0  0  0
 16 38  1  0  0  0  0
 16 39  1  0  0  0  0
 17 18  1  0  0  0  0
 18 19  1  0  0  0  0
 18 20  1  0  0  0  0
 18 40  1  0  0  0  0
 19 41  1  0  0  0  0
 19 42  1  0  0  0  0
 19 43  1  0  0  0  0
 20 44  1  0  0  0  0
 20 45  1  0  0  0  0
 21 22  2  0  0  0  0
 22 46  1  0  0  0  0
M  END
> <s_m_source_file>
AV-unprocessed.smi

> <i_m_source_file_index>
1458

> <i_lp_mmshare_version>
43012

> <i_f3d_flags>
0

> <s_epik_input>
W0NIM11PW0NIMl1bQ0gyXVtOSF1DKD1PKVtOSF1jMVtjSF1bY0hdYyhuW2NIXTEpTjJbQ0gyXVtDQEBIXShbQ0gzXSlPW0NAQEhdKFtDSDNdKVtDSDJdMg==

> <s_epik_cmdline>
J2VwaWtfcHl0aG9uJywgJy1waCcsICc3LjAnLCAnLXRuJywgJzgnLCAnLW1hJywgJzIwMCcsICctbWV0YWxfYmluZGluZycsICctaW1hZScsICc8aW5maWxlLm1hZT4nLCAnLW9tYWUnLCAnPG91dGZpbGUubWFlPic=

> <r_lp_tautomer_probability>
1

> <r_epik_Ionization_Penalty>
0.00266072

> <r_epik_Ionization_Penalty_Charging>
0

> <r_epik_Ionization_Penalty_Neutral>
0.00266072

> <r_epik_State_Penalty>
0.00182795

> <r_epik_Charging_Adjusted_Penalty>
0.00182795

> <i_epik_Tot_Q>
0

> <i_epik_Tot_abs_Q>
0

> <r_epik_Metal_State_Penalty>
-0

> <b_epik_Metal_Only>
0

> <s_lp_Force_Field>
OPLS_2005

> <r_lp_Energy>
23.589

> <b_lp_Chiralities_Consistent>
1

> <s_lp_Variant>
AV-unprocessed.smi:1458-3

> <Gold.Version>
5.8.1

> <Gold.Id.Protein>
6NUR|6NUR_protein|mol2

> <Gold.PLP.Fitness>
47.8956

> <Gold.PLP.PLP>
-46.4913

> <Gold.PLP.part.hbond>
-3.0000

> <Gold.PLP.part.metal>
0.0000

> <Gold.PLP.part.buried>
-3.4615

> <Gold.PLP.part.nonpolar>
-42.0457

> <Gold.PLP.part.repulsive>
1.2991

> <Gold.PLP.ligand.clash>
0.0000

> <Gold.PLP.ligand.torsion>
0.9722

> <Gold.PLP.Chemscore.Hbond>
1.0000

> <Gold.PLP.Chemscore.CHOScore>
0.0000

> <Gold.PLP.Chemscore.Metal>
0.0000

> <Gold.Chemscore.Hbonds>
donor molecule, donor type, donor heavy atom, donor atom, acceptor molecule, acceptor atom, score
      L1  H     5    30       P1  7948  1.00

> <Gold.PLP.Chemscore.Internal.Correction>
0.3487

> <Gold.Rescore>
     Score         DG    S(hbond)    S(metal)    S(lipo)     H(rot)  DE(clash)    DE(int)     intcor
     15.86     -18.13       1.00        0.00     115.07       1.62       0.10       2.16       ----

> <Gold.Chemscore.Fitness>
15.8638

> <Gold.Chemscore.DG>
-18.1301

> <Gold.Chemscore.ZeroCoef>
-5.4800

> <Gold.Chemscore.Hbond>
0.9985

> <Gold.Chemscore.Metal>
0.0000

> <Gold.Chemscore.Lipo>
115.0748

> <Gold.Chemscore.Internal_Hbond>
0.0000

> <Gold.Chemscore.DEClash>
0.1024

> <Gold.Chemscore.DEInternal>
2.1639

> <Gold.Chemscore.Rot>
1.6206

> <Gold.Chemscore.Internal.Correction>
   9.000000E+99

> <Gold.Chemscore.Hbonds>
donor molecule, donor type, donor heavy atom, donor atom, acceptor molecule, acceptor atom, score
      L1  H     5    30       P1  7948  0.99

> <Gold.Chemscore.Hbond.Weighted>
-3.3350

> <Gold.Chemscore.Metal.Weighted>
-0.0000

> <Gold.Chemscore.Lipo.Weighted>
-13.4637

> <Gold.Chemscore.Internal_Hbond.Weighted>
0.0000

> <Gold.Chemscore.DEClash.Weighted>
0.1024

> <Gold.Chemscore.DEInternal.Weighted>
2.1639

> <Gold.Chemscore.Rot.Weighted>
4.1486

> <Gold.Chemscore.Internal.Correction.Weighted>
   9.000000E+99

> <Gold.Protein.RotatedTorsions>
[ 6907 6896 6895 6894 ] final  159.26 input  -60.11 | X-H torsion
[ 7974 7965 7964 7962 ] final  -52.83 input  175.53 | X-H torsion
[ 8008 7997 7996 7995 ] final   73.10 input   59.86 | X-H torsion
[ 10167 10162 10161 10158 ] final   99.55 input  -65.29 | X-H torsion
[ 10718 10713 10712 10709 ] final  -28.95 input   66.30 | X-H torsion
[ 10763 10752 10751 10750 ] final   38.79 input  -60.55 | X-H torsion
[ 11005 11000 10999 10996 ] final   97.46 input  -57.11 | X-H torsion

> <Gold.Protein.ActiveResidues>
 VAL166  LYS551  ARG553  GLY616  TRP617  ASP618  TYR619  PRO620  LYS621  CYS622 
 ASP623  PHE694  ASN695  SER759  ASP760  ASP761  ALA762  ILE779  LEU786  VAL792 
 PHE793  MET794  SER795  GLU796  ALA797  LYS798  CYS799  TRP800  GLU811  SER814 

> <Gold.Protein.RotatedAtoms>
  151.9882  133.3781  159.4133 H   0  0  0  0  0  0  0  0  0  0  0  0  # atno 6907 bound_to 6896
  150.6925  134.3965  159.5109 H   0  0  0  0  0  0  0  0  0  0  0  0  # atno 6908 bound_to 6896
  152.1694  134.8846  160.0586 H   0  0  0  0  0  0  0  0  0  0  0  0  # atno 6909 bound_to 6896
  145.9036  140.7974  142.9731 H   0  0  0  0  0  0  0  0  0  0  0  0  # atno 7974 bound_to 7965
  155.7787  140.3482  155.5285 H   0  0  0  0  0  0  0  0  0  0  0  0  # atno 8008 bound_to 7997
  155.8750  140.0993  157.1545 H   0  0  0  0  0  0  0  0  0  0  0  0  # atno 8009 bound_to 7997
  154.4020  140.1333  156.4113 H   0  0  0  0  0  0  0  0  0  0  0  0  # atno 8010 bound_to 7997
  139.7608  144.6955  151.0296 H   0  0  0  0  0  0  0  0  0  0  0  0  # atno 10167 bound_to 10162
  156.4187  130.4422  149.7199 H   0  0  0  0  0  0  0  0  0  0  0  0  # atno 10718 bound_to 10713
  152.9989  135.6239  154.2360 H   0  0  0  0  0  0  0  0  0  0  0  0  # atno 10763 bound_to 10752
  154.2102  135.2800  155.2963 H   0  0  0  0  0  0  0  0  0  0  0  0  # atno 10764 bound_to 10752
  154.5613  135.5704  153.7068 H   0  0  0  0  0  0  0  0  0  0  0  0  # atno 10765 bound_to 10752
  139.8776  134.9002  156.4311 H   0  0  0  0  0  0  0  0  0  0  0  0  # atno 11005 bound_to 11000
  144.6737  140.1715  143.7414 LP  0  0  0  0  0  0  0  0  0  0  0  0  # atno 17320 bound_to 7965
  145.8760  139.2297  143.1633 LP  0  0  0  0  0  0  0  0  0  0  0  0  # atno 17321 bound_to 7965
  140.7807  143.4700  151.0160 LP  0  0  0  0  0  0  0  0  0  0  0  0  # atno 17342 bound_to 10162
  139.8386  143.7594  152.3180 LP  0  0  0  0  0  0  0  0  0  0  0  0  # atno 17343 bound_to 10162
  156.4149  130.7740  151.2755 LP  0  0  0  0  0  0  0  0  0  0  0  0  # atno 17370 bound_to 10713
  157.7508  131.0200  150.3692 LP  0  0  0  0  0  0  0  0  0  0  0  0  # atno 17371 bound_to 10713
  140.9066  133.7741  155.9742 LP  0  0  0  0  0  0  0  0  0  0  0  0  # atno 17394 bound_to 11000
  140.8592  134.2861  157.5242 LP  0  0  0  0  0  0  0  0  0  0  0  0  # atno 17395 bound_to 11000

$$$$
