AV-unprocessed.smi:1163|AV-procd|sdf|4921|dock10
  -GOLD-   22720 3503D 1   1.00000     0.00000
 Structure written by MMmdl.
 39 40  0  0  0  0  0  0  0  0  1 V2000
  144.9581  132.1270  151.3812 C   0  0  0  0  0  0  0  0  0  0  0  0
  143.9070  133.0240  151.7232 O   0  0  0  0  0  0  0  0  0  0  0  0
  144.2366  134.3214  152.0589 C   0  0  0  0  0  0  0  0  0  0  0  0
  143.1980  135.2257  152.3564 C   0  0  0  0  0  0  0  0  0  0  0  0
  143.5300  136.5490  152.7030 C   0  0  0  0  0  0  0  0  0  0  0  0
  144.8864  136.9286  152.7509 C   0  0  0  0  0  0  0  0  0  0  0  0
  145.1885  138.2753  153.0891 N   0  0  0  0  0  0  0  0  0  0  0  0
  146.2813  138.7614  153.7024 C   0  0  0  0  0  0  0  0  0  0  0  0
  147.2286  138.0886  154.1079 O   0  0  0  0  0  0  0  0  0  0  0  0
  146.2024  140.0923  153.8398 N   0  0  0  0  0  0  0  0  0  0  0  0
  147.2007  140.9461  154.4774 C   0  0  1  0  0  0  0  0  0  0  0  0
  147.1323  140.8801  156.0009 C   0  0  0  0  0  0  0  0  0  0  0  0
  148.5992  140.8565  156.4143 C   0  0  0  0  0  0  0  0  0  0  0  0
  149.2050  140.0244  155.3865 N   0  0  0  0  0  0  0  0  0  0  0  0
  150.6640  140.1006  155.4227 C   0  0  0  0  0  0  0  0  0  0  0  0
  151.3484  138.7942  154.9749 C   0  0  0  0  0  0  0  0  0  0  0  0
  150.8040  138.4020  153.8238 F   0  0  0  0  0  0  0  0  0  0  0  0
  152.6525  138.9936  154.7804 F   0  0  0  0  0  0  0  0  0  0  0  0
  151.1788  137.8193  155.8681 F   0  0  0  0  0  0  0  0  0  0  0  0
  148.6233  140.4832  154.1274 C   0  0  0  0  0  0  0  0  0  0  0  0
  145.8560  135.9500  152.4218 C   0  0  0  0  0  0  0  0  0  0  0  0
  145.5440  134.6799  152.0871 N   0  0  0  0  0  0  0  0  0  0  0  0
  144.5374  131.1474  151.1547 H   0  0  0  0  0  0  0  0  0  0  0  0
  145.6612  132.0014  152.2061 H   0  0  0  0  0  0  0  0  0  0  0  0
  145.4993  132.4672  150.4971 H   0  0  0  0  0  0  0  0  0  0  0  0
  142.1660  134.9098  152.3188 H   0  0  0  0  0  0  0  0  0  0  0  0
  142.7502  137.2604  152.9333 H   0  0  0  0  0  0  0  0  0  0  0  0
  144.4606  138.9446  152.8865 H   0  0  0  0  0  0  0  0  0  0  0  0
  145.3817  140.5560  153.4784 H   0  0  0  0  0  0  0  0  0  0  0  0
  147.0936  141.9849  154.1598 H   0  0  0  0  0  0  0  0  0  0  0  0
  146.5895  141.7209  156.4336 H   0  0  0  0  0  0  0  0  0  0  0  0
  146.6450  139.9615  156.3324 H   0  0  0  0  0  0  0  0  0  0  0  0
  149.0181  141.8639  156.3823 H   0  0  0  0  0  0  0  0  0  0  0  0
  148.7489  140.4484  157.4144 H   0  0  0  0  0  0  0  0  0  0  0  0
  151.0152  140.9420  154.8232 H   0  0  0  0  0  0  0  0  0  0  0  0
  150.9625  140.3065  156.4517 H   0  0  0  0  0  0  0  0  0  0  0  0
  148.6410  139.6932  153.3757 H   0  0  0  0  0  0  0  0  0  0  0  0
  149.1911  141.3297  153.7374 H   0  0  0  0  0  0  0  0  0  0  0  0
  146.9112  136.1723  152.3997 H   0  0  0  0  0  0  0  0  0  0  0  0
  1  2  1  0  0  0  0
  1 23  1  0  0  0  0
  1 24  1  0  0  0  0
  1 25  1  0  0  0  0
  2  3  1  0  0  0  0
  3 22  1  0  0  0  0
  3  4  2  0  0  0  0
  4  5  1  0  0  0  0
  4 26  1  0  0  0  0
  5  6  2  0  0  0  0
  5 27  1  0  0  0  0
  6  7  1  0  0  0  0
  6 21  1  0  0  0  0
  7  8  1  0  0  0  0
  7 28  1  0  0  0  0
  8  9  2  0  0  0  0
  8 10  1  0  0  0  0
 10 11  1  0  0  0  0
 10 29  1  0  0  0  0
 11 20  1  0  0  0  0
 11 12  1  0  0  0  0
 11 30  1  0  0  0  0
 12 13  1  0  0  0  0
 12 31  1  0  0  0  0
 12 32  1  0  0  0  0
 13 14  1  0  0  0  0
 13 33  1  0  0  0  0
 13 34  1  0  0  0  0
 14 15  1  0  0  0  0
 14 20  1  0  0  0  0
 15 16  1  0  0  0  0
 15 35  1  0  0  0  0
 15 36  1  0  0  0  0
 16 17  1  0  0  0  0
 16 18  1  0  0  0  0
 16 19  1  0  0  0  0
 20 37  1  0  0  0  0
 20 38  1  0  0  0  0
 21 22  2  0  0  0  0
 21 39  1  0  0  0  0
M  END
> <s_m_source_file>
AV-unprocessed.smi

> <i_m_source_file_index>
1163

> <i_lp_mmshare_version>
43012

> <i_f3d_flags>
0

> <s_epik_input>
W0NIM11PYzFbY0hdW2NIXWMoW2NIXW4xKVtOSF1DKD1PKVtOSF1bQ0BASF0yW0NIMl1bQ0gyXU4oW0NIMl0yKVtDSDJdQyhGKShGKUY=

> <s_epik_cmdline>
J2VwaWtfcHl0aG9uJywgJy1waCcsICc3LjAnLCAnLXRuJywgJzgnLCAnLW1hJywgJzIwMCcsICctbWV0YWxfYmluZGluZycsICctaW1hZScsICc8aW5maWxlLm1hZT4nLCAnLW9tYWUnLCAnPG91dGZpbGUubWFlPic=

> <r_lp_tautomer_probability>
1

> <r_epik_Ionization_Penalty>
0.0970123

> <r_epik_Ionization_Penalty_Charging>
0

> <r_epik_Ionization_Penalty_Neutral>
0.0970123

> <r_epik_State_Penalty>
0.0870533

> <r_epik_Charging_Adjusted_Penalty>
0.0870533

> <i_epik_Tot_Q>
0

> <i_epik_Tot_abs_Q>
0

> <r_epik_Metal_State_Penalty>
0.0870519

> <b_epik_Metal_Only>
0

> <s_lp_Force_Field>
OPLS_2005

> <r_lp_Energy>
29.6524

> <b_lp_Chiralities_Consistent>
1

> <s_lp_Variant>
AV-unprocessed.smi:1163-2

> <Gold.Version>
5.8.1

> <Gold.Id.Protein>
6NUR|6NUR_protein|mol2

> <Gold.PLP.Fitness>
38.7462

> <Gold.PLP.PLP>
-31.1664

> <Gold.PLP.part.hbond>
-2.0000

> <Gold.PLP.part.metal>
0.0000

> <Gold.PLP.part.buried>
-4.2977

> <Gold.PLP.part.nonpolar>
-24.8461

> <Gold.PLP.part.repulsive>
0.4719

> <Gold.PLP.ligand.clash>
0.0000

> <Gold.PLP.ligand.torsion>
0.9588

> <Gold.PLP.Chemscore.Hbond>
2.0000

> <Gold.PLP.Chemscore.CHOScore>
1.0000

> <Gold.PLP.Chemscore.Metal>
0.0000

> <Gold.Chemscore.Hbonds>
donor molecule, donor type, donor heavy atom, donor atom, acceptor molecule, acceptor atom, score
      L1  H     7    28       P1 10175  1.00
      L1  H    10    29       P1 10175  1.00
      L1  C    21    39       P1  7948  1.00

> <Gold.PLP.Chemscore.Internal.Correction>
0.4973

> <Gold.Rescore>
     Score         DG    S(hbond)    S(metal)    S(lipo)     H(rot)  DE(clash)    DE(int)     intcor
     10.98     -14.36       1.96        0.00      56.10       1.65       0.02       3.36       ----

> <Gold.Chemscore.Fitness>
10.9807

> <Gold.Chemscore.DG>
-14.3584

> <Gold.Chemscore.ZeroCoef>
-5.4800

> <Gold.Chemscore.Hbond>
1.9589

> <Gold.Chemscore.Metal>
0.0000

> <Gold.Chemscore.Lipo>
56.0976

> <Gold.Chemscore.Internal_Hbond>
0.0000

> <Gold.Chemscore.DEClash>
0.0158

> <Gold.Chemscore.DEInternal>
3.3619

> <Gold.Chemscore.Rot>
1.6515

> <Gold.Chemscore.Internal.Correction>
   9.000000E+99

> <Gold.Chemscore.Hbonds>
donor molecule, donor type, donor heavy atom, donor atom, acceptor molecule, acceptor atom, score
      L1  H     7    28       P1 10175  1.00
      L1  H    10    29       P1 10175  0.90

> <Gold.Chemscore.Hbond.Weighted>
-6.5429

> <Gold.Chemscore.Metal.Weighted>
-0.0000

> <Gold.Chemscore.Lipo.Weighted>
-6.5634

> <Gold.Chemscore.Internal_Hbond.Weighted>
0.0000

> <Gold.Chemscore.DEClash.Weighted>
0.0158

> <Gold.Chemscore.DEInternal.Weighted>
3.3619

> <Gold.Chemscore.Rot.Weighted>
4.2279

> <Gold.Chemscore.Internal.Correction.Weighted>
   9.000000E+99

> <Gold.Protein.RotatedTorsions>
[ 6907 6896 6895 6894 ] final   11.86 input  -60.11 | X-H torsion
[ 7974 7965 7964 7962 ] final   91.00 input  175.53 | X-H torsion
[ 8008 7997 7996 7995 ] final  -33.08 input   59.86 | X-H torsion
[ 10167 10162 10161 10158 ] final  -26.42 input  -65.29 | X-H torsion
[ 10718 10713 10712 10709 ] final    8.24 input   66.30 | X-H torsion
[ 10763 10752 10751 10750 ] final  138.41 input  -60.55 | X-H torsion
[ 11005 11000 10999 10996 ] final  127.86 input  -57.11 | X-H torsion

> <Gold.Protein.ActiveResidues>
 VAL166  LYS551  ARG553  GLY616  TRP617  ASP618  TYR619  PRO620  LYS621  CYS622 
 ASP623  PHE694  ASN695  SER759  ASP760  ASP761  ALA762  ILE779  LEU786  VAL792 
 PHE793  MET794  SER795  GLU796  ALA797  LYS798  CYS799  TRP800  GLU811  SER814 

> <Gold.Protein.RotatedAtoms>
  151.7610  135.0810  160.0345 H   0  0  0  0  0  0  0  0  0  0  0  0  # atno 6907 bound_to 6896
  152.3353  133.6000  159.5846 H   0  0  0  0  0  0  0  0  0  0  0  0  # atno 6908 bound_to 6896
  150.7446  133.9722  159.3591 H   0  0  0  0  0  0  0  0  0  0  0  0  # atno 6909 bound_to 6896
  145.5115  139.2277  143.2722 H   0  0  0  0  0  0  0  0  0  0  0  0  # atno 7974 bound_to 7965
  154.4160  140.1720  156.1831 H   0  0  0  0  0  0  0  0  0  0  0  0  # atno 8008 bound_to 7997
  155.9666  140.3389  155.6514 H   0  0  0  0  0  0  0  0  0  0  0  0  # atno 8009 bound_to 7997
  155.6680  140.0708  157.2521 H   0  0  0  0  0  0  0  0  0  0  0  0  # atno 8010 bound_to 7997
  140.7283  143.4180  151.0997 H   0  0  0  0  0  0  0  0  0  0  0  0  # atno 10167 bound_to 10162
  156.9487  130.5889  149.5655 H   0  0  0  0  0  0  0  0  0  0  0  0  # atno 10718 bound_to 10713
  153.8891  135.3035  155.3447 H   0  0  0  0  0  0  0  0  0  0  0  0  # atno 10763 bound_to 10752
  154.7725  135.4878  153.9680 H   0  0  0  0  0  0  0  0  0  0  0  0  # atno 10764 bound_to 10752
  153.1308  135.6803  153.9280 H   0  0  0  0  0  0  0  0  0  0  0  0  # atno 10765 bound_to 10752
  139.9530  134.9618  156.8917 H   0  0  0  0  0  0  0  0  0  0  0  0  # atno 11005 bound_to 11000
  146.2163  140.5922  142.9037 LP  0  0  0  0  0  0  0  0  0  0  0  0  # atno 17320 bound_to 7965
  144.7725  140.5668  143.6661 LP  0  0  0  0  0  0  0  0  0  0  0  0  # atno 17321 bound_to 7965
  139.7822  143.8339  152.3139 LP  0  0  0  0  0  0  0  0  0  0  0  0  # atno 17342 bound_to 10162
  139.8294  144.7260  150.9470 LP  0  0  0  0  0  0  0  0  0  0  0  0  # atno 17343 bound_to 10162
  156.0372  130.5458  150.8683 LP  0  0  0  0  0  0  0  0  0  0  0  0  # atno 17370 bound_to 10713
  157.5736  131.0946  150.9379 LP  0  0  0  0  0  0  0  0  0  0  0  0  # atno 17371 bound_to 10713
  140.5675  134.0475  155.7419 LP  0  0  0  0  0  0  0  0  0  0  0  0  # atno 17394 bound_to 11000
  141.1196  133.9483  157.2755 LP  0  0  0  0  0  0  0  0  0  0  0  0  # atno 17395 bound_to 11000

$$$$
