AV-unprocessed.smi:438|AV-procd|sdf|2574|dock5
  -GOLD-   2262022553D 1   1.00000     0.00000
 Structure written by MMmdl.
 47 48  0  0  0  0  0  0  0  0  2 V2000
  147.6714  136.4609  162.8849 C   0  0  0  0  0  0  0  0  0  0  0  0
  147.9148  136.1208  161.4253 C   0  0  0  0  0  0  0  0  0  0  0  0
  148.4193  137.1634  160.6301 N   0  0  0  0  0  0  0  0  0  0  0  0
  148.6422  136.9576  159.3879 C   0  0  0  0  0  0  0  0  0  0  0  0
  149.2802  138.2943  158.3624 S   0  0  0  0  0  0  0  0  0  0  0  0
  151.0837  138.0758  158.4384 C   0  0  0  0  0  0  0  0  0  0  0  0
  151.8541  139.3533  158.1086 C   0  0  0  0  0  0  0  0  0  0  0  0
  152.7738  139.3323  157.2899 O   0  0  0  0  0  0  0  0  0  0  0  0
  151.4693  140.4634  158.7572 N   0  0  0  0  0  0  0  0  0  0  0  0
  152.0572  141.7907  158.5883 C   0  0  1  0  0  0  0  0  0  0  0  0
  151.0934  142.6822  157.7780 C   0  0  0  0  0  0  0  0  0  0  0  0
  151.6371  144.1095  157.6218 C   0  0  0  0  0  0  0  0  0  0  0  0
  151.9394  144.7349  158.9902 C   0  0  0  0  0  0  0  0  0  0  0  0
  152.9116  143.8588  159.7945 C   0  0  0  0  0  0  0  0  0  0  0  0
  152.3825  142.4201  159.9662 C   0  0  2  0  0  0  0  0  0  0  0  0
  153.3775  141.5736  160.7805 C   0  0  0  0  0  0  0  0  0  0  0  0
  148.4215  135.7550  158.7579 N   0  5  0  0  0  0  0  0  0  0  0  0
  147.9349  134.6931  159.4614 C   0  0  0  0  0  0  0  0  0  0  0  0
  147.7222  133.6013  158.9352 O   0  0  0  0  0  0  0  0  0  0  0  0
  147.6585  134.8910  160.8952 C   0  0  0  0  0  0  0  0  0  0  0  0
  147.1192  133.7176  161.7097 C   0  0  0  0  0  0  0  0  0  0  0  0
  148.0351  132.4881  161.6265 C   0  0  0  0  0  0  0  0  0  0  0  0
  147.2733  131.3409  161.3180 O   0  0  0  0  0  0  0  0  0  0  0  0
  146.6556  136.1943  163.1772 H   0  0  0  0  0  0  0  0  0  0  0  0
  147.8028  137.5279  163.0691 H   0  0  0  0  0  0  0  0  0  0  0  0
  148.3714  135.9204  163.5222 H   0  0  0  0  0  0  0  0  0  0  0  0
  151.3794  137.2986  157.7332 H   0  0  0  0  0  0  0  0  0  0  0  0
  151.3540  137.7287  159.4369 H   0  0  0  0  0  0  0  0  0  0  0  0
  150.7057  140.3849  159.4133 H   0  0  0  0  0  0  0  0  0  0  0  0
  152.9929  141.7000  158.0329 H   0  0  0  0  0  0  0  0  0  0  0  0
  150.9213  142.2496  156.7915 H   0  0  0  0  0  0  0  0  0  0  0  0
  150.1210  142.7190  158.2717 H   0  0  0  0  0  0  0  0  0  0  0  0
  152.5448  144.0912  157.0174 H   0  0  0  0  0  0  0  0  0  0  0  0
  150.9174  144.7250  157.0817 H   0  0  0  0  0  0  0  0  0  0  0  0
  152.3602  145.7320  158.8581 H   0  0  0  0  0  0  0  0  0  0  0  0
  151.0114  144.8615  159.5491 H   0  0  0  0  0  0  0  0  0  0  0  0
  153.8796  143.8375  159.2920 H   0  0  0  0  0  0  0  0  0  0  0  0
  153.0834  144.3119  160.7714 H   0  0  0  0  0  0  0  0  0  0  0  0
  151.4557  142.4767  160.5396 H   0  0  0  0  0  0  0  0  0  0  0  0
  154.3177  141.4448  160.2434 H   0  0  0  0  0  0  0  0  0  0  0  0
  152.9805  140.5823  160.9990 H   0  0  0  0  0  0  0  0  0  0  0  0
  153.6046  142.0477  161.7358 H   0  0  0  0  0  0  0  0  0  0  0  0
  146.1192  133.4519  161.3678 H   0  0  0  0  0  0  0  0  0  0  0  0
  146.9929  134.0234  162.7495 H   0  0  0  0  0  0  0  0  0  0  0  0
  148.7963  132.6262  160.8579 H   0  0  0  0  0  0  0  0  0  0  0  0
  148.5524  132.3249  162.5726 H   0  0  0  0  0  0  0  0  0  0  0  0
  147.4287  131.1132  160.4142 H   0  0  0  0  0  0  0  0  0  0  0  0
  1 24  1  0  0  0  0
  1 25  1  0  0  0  0
  1 26  1  0  0  0  0
  1  2  1  0  0  0  0
  2 20  2  0  0  0  0
  2  3  1  0  0  0  0
  3  4  2  0  0  0  0
  4  5  1  0  0  0  0
  4 17  1  0  0  0  0
  5  6  1  0  0  0  0
  6  7  1  0  0  0  0
  6 27  1  0  0  0  0
  6 28  1  0  0  0  0
  7  8  2  0  0  0  0
  7  9  1  0  0  0  0
  9 10  1  0  0  0  0
  9 29  1  0  0  0  0
 10 15  1  0  0  0  0
 10 11  1  0  0  0  0
 10 30  1  0  0  0  0
 11 12  1  0  0  0  0
 11 31  1  0  0  0  0
 11 32  1  0  0  0  0
 12 13  1  0  0  0  0
 12 33  1  0  0  0  0
 12 34  1  0  0  0  0
 13 14  1  0  0  0  0
 13 35  1  0  0  0  0
 13 36  1  0  0  0  0
 14 15  1  0  0  0  0
 14 37  1  0  0  0  0
 14 38  1  0  0  0  0
 15 16  1  0  0  0  0
 15 39  1  0  0  0  0
 16 40  1  0  0  0  0
 16 41  1  0  0  0  0
 16 42  1  0  0  0  0
 17 18  1  0  0  0  0
 18 19  2  0  0  0  0
 18 20  1  0  0  0  0
 20 21  1  0  0  0  0
 21 22  1  0  0  0  0
 21 43  1  0  0  0  0
 21 44  1  0  0  0  0
 22 23  1  0  0  0  0
 22 45  1  0  0  0  0
 22 46  1  0  0  0  0
 23 47  1  0  0  0  0
M  CHG  1  17  -1
M  END
> <s_m_source_file>
AV-unprocessed.smi

> <i_m_source_file_index>
438

> <i_lp_mmshare_version>
43012

> <i_f3d_flags>
0

> <s_epik_input>
W09IXVtDSDJdW0NIMl1jMWMoW09IXSluYyhuYzFbQ0gzXSlTW0NIMl1DKD1PKVtOSF1bQ0BASF0yW0NIMl1bQ0gyXVtDSDJdW0NIMl1bQ0BIXTJbQ0gzXQ==

> <s_epik_cmdline>
J2VwaWtfcHl0aG9uJywgJy1waCcsICc3LjAnLCAnLXRuJywgJzgnLCAnLW1hJywgJzIwMCcsICctbWV0YWxfYmluZGluZycsICctaW1hZScsICc8aW5maWxlLm1hZT4nLCAnLW9tYWUnLCAnPG91dGZpbGUubWFlPic=

> <r_lp_tautomer_probability>
1

> <r_epik_Ionization_Penalty>
3.69231

> <r_epik_Ionization_Penalty_Charging>
0.00434774

> <r_epik_Ionization_Penalty_Neutral>
3.68796

> <r_epik_State_Penalty>
2.13826

> <r_epik_Charging_Adjusted_Penalty>
2.14261

> <i_epik_Tot_Q>
-1

> <i_epik_Tot_abs_Q>
1

> <r_epik_Metal_State_Penalty>
0.260979

> <b_epik_Metal_Only>
0

> <s_lp_Force_Field>
OPLS_2005

> <r_lp_Energy>
18.4405

> <b_lp_Chiralities_Consistent>
1

> <s_lp_Variant>
AV-unprocessed.smi:438-12

> <Gold.Version>
5.8.1

> <Gold.Id.Protein>
6NUR|6NUR_protein|mol2

> <Gold.PLP.Fitness>
53.9079

> <Gold.PLP.PLP>
-49.6478

> <Gold.PLP.part.hbond>
-3.0000

> <Gold.PLP.part.metal>
0.0000

> <Gold.PLP.part.buried>
-6.2086

> <Gold.PLP.part.nonpolar>
-41.0797

> <Gold.PLP.part.repulsive>
0.1572

> <Gold.PLP.ligand.clash>
0.0000

> <Gold.PLP.ligand.torsion>
1.0882

> <Gold.PLP.Chemscore.Hbond>
2.1303

> <Gold.PLP.Chemscore.CHOScore>
0.0000

> <Gold.PLP.Chemscore.Metal>
0.0000

> <Gold.Chemscore.Hbonds>
donor molecule, donor type, donor heavy atom, donor atom, acceptor molecule, acceptor atom, score
      P1  H  6931  6943       L1     3  0.80
      P1  H  6934  6947       L1     3  0.27
      P1  H  7997  8008       L1     8  1.00

> <Gold.PLP.Chemscore.Internal.Correction>
0.0456

> <Gold.Rescore>
     Score         DG    S(hbond)    S(metal)    S(lipo)     H(rot)  DE(clash)    DE(int)     intcor
     17.27     -19.27       1.91        0.00     124.49       2.79       0.08       1.91       ----

> <Gold.Chemscore.Fitness>
17.2739

> <Gold.Chemscore.DG>
-19.2713

> <Gold.Chemscore.ZeroCoef>
-5.4800

> <Gold.Chemscore.Hbond>
1.9087

> <Gold.Chemscore.Metal>
0.0000

> <Gold.Chemscore.Lipo>
124.4911

> <Gold.Chemscore.Internal_Hbond>
0.0000

> <Gold.Chemscore.DEClash>
0.0845

> <Gold.Chemscore.DEInternal>
1.9129

> <Gold.Chemscore.Rot>
2.7927

> <Gold.Chemscore.Internal.Correction>
   9.000000E+99

> <Gold.Chemscore.Hbonds>
donor molecule, donor type, donor heavy atom, donor atom, acceptor molecule, acceptor atom, score
      P1  H  6931  6943       L1     3  0.24
      P1  H  6934  6947       L1     3  0.17
      P1  H  7997  8008       L1     8  1.00

> <Gold.Chemscore.Hbond.Weighted>
-6.3751

> <Gold.Chemscore.Metal.Weighted>
-0.0000

> <Gold.Chemscore.Lipo.Weighted>
-14.5655

> <Gold.Chemscore.Internal_Hbond.Weighted>
0.0000

> <Gold.Chemscore.DEClash.Weighted>
0.0845

> <Gold.Chemscore.DEInternal.Weighted>
1.9129

> <Gold.Chemscore.Rot.Weighted>
7.1492

> <Gold.Chemscore.Internal.Correction.Weighted>
   9.000000E+99

> <Gold.Protein.RotatedTorsions>
[ 6907 6896 6895 6894 ] final -120.05 input  -60.11 | X-H torsion
[ 7974 7965 7964 7962 ] final   81.73 input  175.53 | X-H torsion
[ 8008 7997 7996 7995 ] final  -60.54 input   59.86 | X-H torsion
[ 10167 10162 10161 10158 ] final    5.58 input  -65.29 | X-H torsion
[ 10718 10713 10712 10709 ] final   -9.06 input   66.30 | X-H torsion
[ 10763 10752 10751 10750 ] final   -1.59 input  -60.55 | X-H torsion
[ 11005 11000 10999 10996 ] final -112.73 input  -57.11 | X-H torsion

> <Gold.Protein.ActiveResidues>
 VAL166  LYS551  ARG553  GLY616  TRP617  ASP618  TYR619  PRO620  LYS621  CYS622 
 ASP623  PHE694  ASN695  SER759  ASP760  ASP761  ALA762  ILE779  LEU786  VAL792 
 PHE793  MET794  SER795  GLU796  ALA797  LYS798  CYS799  TRP800  GLU811  SER814 

> <Gold.Protein.RotatedAtoms>
  150.8358  133.8015  159.3079 H   0  0  0  0  0  0  0  0  0  0  0  0  # atno 6907 bound_to 6896
  151.5732  135.1060  160.0009 H   0  0  0  0  0  0  0  0  0  0  0  0  # atno 6908 bound_to 6896
  152.4431  133.7443  159.6714 H   0  0  0  0  0  0  0  0  0  0  0  0  # atno 6909 bound_to 6896
  145.6344  139.2411  143.2066 H   0  0  0  0  0  0  0  0  0  0  0  0  # atno 7974 bound_to 7965
  154.4404  140.1037  156.6290 H   0  0  0  0  0  0  0  0  0  0  0  0  # atno 8008 bound_to 7997
  155.5625  140.3488  155.4476 H   0  0  0  0  0  0  0  0  0  0  0  0  # atno 8009 bound_to 7997
  156.0449  140.1290  157.0104 H   0  0  0  0  0  0  0  0  0  0  0  0  # atno 8010 bound_to 7997
  140.6474  143.7628  150.7521 H   0  0  0  0  0  0  0  0  0  0  0  0  # atno 10167 bound_to 10162
  156.6935  130.5072  149.5937 H   0  0  0  0  0  0  0  0  0  0  0  0  # atno 10718 bound_to 10713
  153.3469  135.6983  153.6821 H   0  0  0  0  0  0  0  0  0  0  0  0  # atno 10763 bound_to 10752
  153.5563  135.3543  155.2781 H   0  0  0  0  0  0  0  0  0  0  0  0  # atno 10764 bound_to 10752
  154.8646  135.4238  154.2695 H   0  0  0  0  0  0  0  0  0  0  0  0  # atno 10765 bound_to 10752
  141.0657  133.9462  157.2582 H   0  0  0  0  0  0  0  0  0  0  0  0  # atno 11005 bound_to 11000
  146.1331  140.7159  142.9402 LP  0  0  0  0  0  0  0  0  0  0  0  0  # atno 17320 bound_to 7965
  144.7181  140.4280  143.7029 LP  0  0  0  0  0  0  0  0  0  0  0  0  # atno 17321 bound_to 7965
  140.1272  143.4559  152.2277 LP  0  0  0  0  0  0  0  0  0  0  0  0  # atno 17342 bound_to 10162
  139.5686  144.7450  151.3953 LP  0  0  0  0  0  0  0  0  0  0  0  0  # atno 17343 bound_to 10162
  156.1780  130.6480  151.0918 LP  0  0  0  0  0  0  0  0  0  0  0  0  # atno 17370 bound_to 10713
  157.7000  131.0779  150.6850 LP  0  0  0  0  0  0  0  0  0  0  0  0  # atno 17371 bound_to 10713
  139.9474  135.0181  156.8894 LP  0  0  0  0  0  0  0  0  0  0  0  0  # atno 17394 bound_to 11000
  140.5777  134.0382  155.7453 LP  0  0  0  0  0  0  0  0  0  0  0  0  # atno 17395 bound_to 11000

$$$$
