AV-unprocessed.smi:2520|AV-procd|sdf|9907|dock5
  -GOLD-   2272013543D 1   1.00000     0.00000
 Structure written by MMmdl.
 41 44  0  0  0  0  0  0  0  0  1 V2000
  145.3017  137.0053  154.3159 O   0  0  0  0  0  0  0  0  0  0  0  0
  146.3131  136.8009  153.6475 C   0  0  0  0  0  0  0  0  0  0  0  0
  147.2643  137.7498  153.5168 N   0  0  0  0  0  0  0  0  0  0  0  0
  147.3529  139.0728  154.0407 C   0  0  0  0  0  0  0  0  0  0  0  0
  148.5223  139.7752  153.6784 C   0  0  0  0  0  0  0  0  0  0  0  0
  148.6932  141.0849  154.1583 C   0  0  0  0  0  0  0  0  0  0  0  0
  147.6778  141.6077  154.9769 C   0  0  0  0  0  0  0  0  0  0  0  0
  146.5754  140.8998  155.3038 N   0  0  0  0  0  0  0  0  0  0  0  0
  146.4212  139.6542  154.8428 N   0  0  0  0  0  0  0  0  0  0  0  0
  146.5413  135.6405  153.0136 N   0  0  0  0  0  0  0  0  0  0  0  0
  145.6190  134.5129  152.9717 C   0  0  2  0  0  0  0  0  0  0  0  0
  145.6159  133.8142  151.6124 C   0  0  1  0  0  0  0  0  0  0  0  0
  146.0528  132.4774  151.1295 C   0  0  0  0  0  0  0  0  0  0  0  0
  144.7885  132.1237  150.3026 C   0  0  0  0  0  0  0  0  0  0  0  0
  143.7945  133.1173  150.6514 O   0  0  0  0  0  0  0  0  0  0  0  0
  144.1661  133.5312  151.9508 C   0  0  2  0  0  0  0  0  0  0  0  0
  144.1366  134.9196  152.6219 C   0  0  0  0  0  0  0  0  0  0  0  0
  143.1764  135.0982  153.8060 C   0  0  0  0  0  0  0  0  0  0  0  0
  142.3328  136.3512  153.5629 C   0  0  0  0  0  0  0  0  0  0  0  0
  143.1597  137.1890  152.5988 C   0  0  0  0  0  0  0  0  0  0  0  0
  143.8627  136.1498  151.7312 C   0  0  0  0  0  0  0  0  0  0  0  0
  148.0723  137.4583  152.9864 H   0  0  0  0  0  0  0  0  0  0  0  0
  149.2732  139.3239  153.0464 H   0  0  0  0  0  0  0  0  0  0  0  0
  149.5685  141.6659  153.9092 H   0  0  0  0  0  0  0  0  0  0  0  0
  147.7504  142.6081  155.3771 H   0  0  0  0  0  0  0  0  0  0  0  0
  147.3997  135.5486  152.4887 H   0  0  0  0  0  0  0  0  0  0  0  0
  145.7131  133.8228  153.8156 H   0  0  0  0  0  0  0  0  0  0  0  0
  145.7224  134.5471  150.8065 H   0  0  0  0  0  0  0  0  0  0  0  0
  146.9554  132.5203  150.5198 H   0  0  0  0  0  0  0  0  0  0  0  0
  146.2108  131.7789  151.9525 H   0  0  0  0  0  0  0  0  0  0  0  0
  144.9798  132.1635  149.2299 H   0  0  0  0  0  0  0  0  0  0  0  0
  144.4304  131.1228  150.5463 H   0  0  0  0  0  0  0  0  0  0  0  0
  144.0266  132.7171  152.6715 H   0  0  0  0  0  0  0  0  0  0  0  0
  142.5355  134.2277  153.9494 H   0  0  0  0  0  0  0  0  0  0  0  0
  143.7403  135.2199  154.7309 H   0  0  0  0  0  0  0  0  0  0  0  0
  141.3931  136.0703  153.0857 H   0  0  0  0  0  0  0  0  0  0  0  0
  142.0920  136.8825  154.4842 H   0  0  0  0  0  0  0  0  0  0  0  0
  142.5564  137.8882  152.0193 H   0  0  0  0  0  0  0  0  0  0  0  0
  143.9014  137.7638  153.1549 H   0  0  0  0  0  0  0  0  0  0  0  0
  144.7599  136.5723  151.2784 H   0  0  0  0  0  0  0  0  0  0  0  0
  143.2046  135.8686  150.9081 H   0  0  0  0  0  0  0  0  0  0  0  0
  1  2  2  0  0  0  0
  2  3  1  0  0  0  0
  2 10  1  0  0  0  0
  3  4  1  0  0  0  0
  3 22  1  0  0  0  0
  4  9  1  0  0  0  0
  4  5  2  0  0  0  0
  5  6  1  0  0  0  0
  5 23  1  0  0  0  0
  6  7  2  0  0  0  0
  6 24  1  0  0  0  0
  7  8  1  0  0  0  0
  7 25  1  0  0  0  0
  8  9  2  0  0  0  0
 10 11  1  0  0  0  0
 10 26  1  0  0  0  0
 11 17  1  0  0  0  0
 11 12  1  0  0  0  0
 11 27  1  0  0  0  0
 12 16  1  0  0  0  0
 12 13  1  0  0  0  0
 12 28  1  0  0  0  0
 13 14  1  0  0  0  0
 13 29  1  0  0  0  0
 13 30  1  0  0  0  0
 14 15  1  0  0  0  0
 14 31  1  0  0  0  0
 14 32  1  0  0  0  0
 15 16  1  0  0  0  0
 16 17  1  0  0  0  0
 16 33  1  0  0  0  0
 17 21  1  0  0  0  0
 17 18  1  0  0  0  0
 18 19  1  0  0  0  0
 18 34  1  0  0  0  0
 18 35  1  0  0  0  0
 19 20  1  0  0  0  0
 19 36  1  0  0  0  0
 19 37  1  0  0  0  0
 20 21  1  0  0  0  0
 20 38  1  0  0  0  0
 20 39  1  0  0  0  0
 21 40  1  0  0  0  0
 21 41  1  0  0  0  0
M  END
> <s_m_source_file>
AV-unprocessed.smi

> <i_m_source_file_index>
2520

> <i_lp_mmshare_version>
43012

> <i_f3d_flags>
0

> <s_epik_input>
bjFuW2NIXVtjSF1bY0hdYzFbTkhdQyg9TylbTkhdW0NAQEhdMltDQEBIXShbQ0gyXVtDSDJdTzMpW0NASF0zQzI0W0NIMl1bQ0gyXVtDSDJdW0NIMl00

> <s_epik_cmdline>
J2VwaWtfcHl0aG9uJywgJy1waCcsICc3LjAnLCAnLXRuJywgJzgnLCAnLW1hJywgJzIwMCcsICctbWV0YWxfYmluZGluZycsICctaW1hZScsICc8aW5maWxlLm1hZT4nLCAnLW9tYWUnLCAnPG91dGZpbGUubWFlPic=

> <r_lp_tautomer_probability>
1

> <r_epik_Ionization_Penalty>
0.00552561

> <r_epik_Ionization_Penalty_Charging>
0

> <r_epik_Ionization_Penalty_Neutral>
0.00552561

> <r_epik_State_Penalty>
-0

> <r_epik_Charging_Adjusted_Penalty>
0

> <i_epik_Tot_Q>
0

> <i_epik_Tot_abs_Q>
0

> <r_epik_Metal_State_Penalty>
-0

> <b_epik_Metal_Only>
0

> <s_lp_Force_Field>
OPLS_2005

> <r_lp_Energy>
83.7492

> <b_lp_Chiralities_Consistent>
1

> <s_lp_Variant>
AV-unprocessed.smi:2520-1

> <Gold.Version>
5.8.1

> <Gold.Id.Protein>
6NUR|6NUR_protein|mol2

> <Gold.PLP.Fitness>
37.5349

> <Gold.PLP.PLP>
-28.7125

> <Gold.PLP.part.hbond>
-2.0000

> <Gold.PLP.part.metal>
0.0000

> <Gold.PLP.part.buried>
-0.7708

> <Gold.PLP.part.nonpolar>
-25.0191

> <Gold.PLP.part.repulsive>
0.4223

> <Gold.PLP.ligand.clash>
0.0000

> <Gold.PLP.ligand.torsion>
0.2293

> <Gold.PLP.Chemscore.Hbond>
2.0000

> <Gold.PLP.Chemscore.CHOScore>
1.0000

> <Gold.PLP.Chemscore.Metal>
0.0000

> <Gold.Chemscore.Hbonds>
donor molecule, donor type, donor heavy atom, donor atom, acceptor molecule, acceptor atom, score
      L1  H     3    22       P1  7948  1.00
      L1  H    10    26       P1  7948  1.00
      L1  C     7    25       P1  8028  1.00

> <Gold.PLP.Chemscore.Internal.Correction>
0.2809

> <Gold.Rescore>
     Score         DG    S(hbond)    S(metal)    S(lipo)     H(rot)  DE(clash)    DE(int)     intcor
     15.66     -17.12       1.91        0.00      66.99       1.00       0.08       1.38       ----

> <Gold.Chemscore.Fitness>
15.6587

> <Gold.Chemscore.DG>
-17.1214

> <Gold.Chemscore.ZeroCoef>
-5.4800

> <Gold.Chemscore.Hbond>
1.9053

> <Gold.Chemscore.Metal>
0.0000

> <Gold.Chemscore.Lipo>
66.9901

> <Gold.Chemscore.Internal_Hbond>
0.0000

> <Gold.Chemscore.DEClash>
0.0842

> <Gold.Chemscore.DEInternal>
1.3785

> <Gold.Chemscore.Rot>
1.0000

> <Gold.Chemscore.Internal.Correction>
   9.000000E+99

> <Gold.Chemscore.Hbonds>
donor molecule, donor type, donor heavy atom, donor atom, acceptor molecule, acceptor atom, score
      L1  H     3    22       P1  7948  0.96
      L1  H    10    26       P1  7948  0.96

> <Gold.Chemscore.Hbond.Weighted>
-6.3636

> <Gold.Chemscore.Metal.Weighted>
-0.0000

> <Gold.Chemscore.Lipo.Weighted>
-7.8378

> <Gold.Chemscore.Internal_Hbond.Weighted>
0.0000

> <Gold.Chemscore.DEClash.Weighted>
0.0842

> <Gold.Chemscore.DEInternal.Weighted>
1.3785

> <Gold.Chemscore.Rot.Weighted>
2.5600

> <Gold.Chemscore.Internal.Correction.Weighted>
   9.000000E+99

> <Gold.Protein.RotatedTorsions>
[ 6907 6896 6895 6894 ] final  175.22 input  -60.11 | X-H torsion
[ 7974 7965 7964 7962 ] final   16.63 input  175.53 | X-H torsion
[ 8008 7997 7996 7995 ] final  -82.87 input   59.86 | X-H torsion
[ 10167 10162 10161 10158 ] final  147.44 input  -65.29 | X-H torsion
[ 10718 10713 10712 10709 ] final   18.68 input   66.30 | X-H torsion
[ 10763 10752 10751 10750 ] final   90.13 input  -60.55 | X-H torsion
[ 11005 11000 10999 10996 ] final   90.00 input  -57.11 | X-H torsion

> <Gold.Protein.ActiveResidues>
 VAL166  LYS551  ARG553  GLY616  TRP617  ASP618  TYR619  PRO620  LYS621  CYS622 
 ASP623  PHE694  ASN695  SER759  ASP760  ASP761  ALA762  ILE779  LEU786  VAL792 
 PHE793  MET794  SER795  GLU796  ALA797  LYS798  CYS799  TRP800  GLU811  SER814 

> <Gold.Protein.RotatedAtoms>
  151.7397  133.3321  159.3362 H   0  0  0  0  0  0  0  0  0  0  0  0  # atno 6907 bound_to 6896
  150.7578  134.6289  159.6185 H   0  0  0  0  0  0  0  0  0  0  0  0  # atno 6908 bound_to 6896
  152.3538  134.6970  160.0280 H   0  0  0  0  0  0  0  0  0  0  0  0  # atno 6909 bound_to 6896
  146.2244  139.8720  142.8586 H   0  0  0  0  0  0  0  0  0  0  0  0  # atno 7974 bound_to 7965
  154.6131  140.0627  156.9520 H   0  0  0  0  0  0  0  0  0  0  0  0  # atno 8008 bound_to 7997
  155.1940  140.3309  155.4335 H   0  0  0  0  0  0  0  0  0  0  0  0  # atno 8009 bound_to 7997
  156.2388  140.1876  156.7028 H   0  0  0  0  0  0  0  0  0  0  0  0  # atno 8010 bound_to 7997
  139.4890  144.5755  151.6973 H   0  0  0  0  0  0  0  0  0  0  0  0  # atno 10167 bound_to 10162
  157.0998  130.6463  149.5869 H   0  0  0  0  0  0  0  0  0  0  0  0  # atno 10718 bound_to 10713
  153.1943  135.4445  155.0188 H   0  0  0  0  0  0  0  0  0  0  0  0  # atno 10763 bound_to 10752
  154.8109  135.3294  154.7309 H   0  0  0  0  0  0  0  0  0  0  0  0  # atno 10764 bound_to 10752
  153.7760  135.6981  153.4952 H   0  0  0  0  0  0  0  0  0  0  0  0  # atno 10765 bound_to 10752
  139.8864  134.8586  156.3222 H   0  0  0  0  0  0  0  0  0  0  0  0  # atno 11005 bound_to 11000
  145.2598  141.0073  143.3833 LP  0  0  0  0  0  0  0  0  0  0  0  0  # atno 17320 bound_to 7965
  144.9307  139.4301  143.6496 LP  0  0  0  0  0  0  0  0  0  0  0  0  # atno 17321 bound_to 7965
  140.5350  144.0670  150.6067 LP  0  0  0  0  0  0  0  0  0  0  0  0  # atno 17342 bound_to 10162
  140.3673  143.2874  152.0318 LP  0  0  0  0  0  0  0  0  0  0  0  0  # atno 17343 bound_to 10162
  155.9876  130.4917  150.7135 LP  0  0  0  0  0  0  0  0  0  0  0  0  # atno 17370 bound_to 10713
  157.4651  131.0887  151.0704 LP  0  0  0  0  0  0  0  0  0  0  0  0  # atno 17371 bound_to 10713
  140.9779  133.7286  156.0629 LP  0  0  0  0  0  0  0  0  0  0  0  0  # atno 17394 bound_to 11000
  140.7787  134.3750  157.5492 LP  0  0  0  0  0  0  0  0  0  0  0  0  # atno 17395 bound_to 11000

$$$$
