AV-unprocessed.smi:2000|AV-procd|sdf|8100|dock1
  -GOLD-   2272010323D 1   1.00000     0.00000
 Structure written by MMmdl.
 43 44  0  0  0  0  0  0  0  0  1 V2000
  149.3333  138.1641  154.8023 C   0  0  0  0  0  0  0  0  0  0  0  0
  150.7045  137.6081  154.3874 C   0  0  2  0  0  0  0  0  0  0  0  0
  150.8750  136.1488  154.8303 C   0  0  0  0  0  0  0  0  0  0  0  0
  151.7467  135.8421  155.6435 O   0  0  0  0  0  0  0  0  0  0  0  0
  150.0287  135.2574  154.2900 N   0  0  0  0  0  0  0  0  0  0  0  0
  150.0234  133.8265  154.5795 C   0  0  0  0  0  0  0  0  0  0  0  0
  148.9407  133.0478  153.8314 C   0  0  0  0  0  0  0  0  0  0  0  0
  147.8248  133.7346  153.3019 C   0  0  0  0  0  0  0  0  0  0  0  0
  146.8183  133.0133  152.6363 C   0  0  0  0  0  0  0  0  0  0  0  0
  146.9574  131.6183  152.5342 C   0  0  0  0  0  0  0  0  0  0  0  0
  148.0069  130.9433  153.0447 N   0  0  0  0  0  0  0  0  0  0  0  0
  148.9830  131.6340  153.6838 C   0  0  0  0  0  0  0  0  0  0  0  0
  150.0689  130.8927  154.1829 N   0  0  0  0  0  0  0  0  0  0  0  0
  150.0568  129.5035  153.7434 C   0  0  0  0  0  0  0  0  0  0  0  0
  151.3794  128.8199  154.1307 C   0  0  0  0  0  0  0  0  0  0  0  0
  151.5911  128.9457  155.5346 O   0  0  0  0  0  0  0  0  0  0  0  0
  151.6706  130.3078  155.9460 C   0  0  0  0  0  0  0  0  0  0  0  0
  150.3530  131.0262  155.6079 C   0  0  0  0  0  0  0  0  0  0  0  0
  152.0517  138.6625  155.1047 S   0  0  0  0  0  0  0  0  0  0  0  0
  151.8881  138.3779  156.9168 C   0  0  0  0  0  0  0  0  0  0  0  0
  153.3410  138.1049  154.6684 O   0  0  0  0  0  0  0  0  0  0  0  0
  151.7522  140.0774  154.8349 O   0  0  0  0  0  0  0  0  0  0  0  0
  148.5212  137.5571  154.4007 H   0  0  0  0  0  0  0  0  0  0  0  0
  149.1983  139.1802  154.4308 H   0  0  0  0  0  0  0  0  0  0  0  0
  149.2245  138.1944  155.8872 H   0  0  0  0  0  0  0  0  0  0  0  0
  150.7949  137.6708  153.3024 H   0  0  0  0  0  0  0  0  0  0  0  0
  149.3361  135.5919  153.6360 H   0  0  0  0  0  0  0  0  0  0  0  0
  151.0202  133.4236  154.4013 H   0  0  0  0  0  0  0  0  0  0  0  0
  149.8411  133.7037  155.6470 H   0  0  0  0  0  0  0  0  0  0  0  0
  147.7339  134.8058  153.4045 H   0  0  0  0  0  0  0  0  0  0  0  0
  145.9591  133.5166  152.2187 H   0  0  0  0  0  0  0  0  0  0  0  0
  146.2048  131.0282  152.0325 H   0  0  0  0  0  0  0  0  0  0  0  0
  149.2173  128.9858  154.2098 H   0  0  0  0  0  0  0  0  0  0  0  0
  149.9080  129.4454  152.6655 H   0  0  0  0  0  0  0  0  0  0  0  0
  151.3470  127.7622  153.8689 H   0  0  0  0  0  0  0  0  0  0  0  0
  152.2167  129.2583  153.5851 H   0  0  0  0  0  0  0  0  0  0  0  0
  151.8544  130.3448  157.0198 H   0  0  0  0  0  0  0  0  0  0  0  0
  152.5167  130.7964  155.4601 H   0  0  0  0  0  0  0  0  0  0  0  0
  150.4200  132.0817  155.8748 H   0  0  0  0  0  0  0  0  0  0  0  0
  149.5400  130.5924  156.1920 H   0  0  0  0  0  0  0  0  0  0  0  0
  152.7235  138.8521  157.4316 H   0  0  0  0  0  0  0  0  0  0  0  0
  151.8958  137.3083  157.1244 H   0  0  0  0  0  0  0  0  0  0  0  0
  150.9580  138.8174  157.2749 H   0  0  0  0  0  0  0  0  0  0  0  0
  1  2  1  0  0  0  0
  1 23  1  0  0  0  0
  1 24  1  0  0  0  0
  1 25  1  0  0  0  0
  2  3  1  0  0  0  0
  2 19  1  0  0  0  0
  2 26  1  0  0  0  0
  3  4  2  0  0  0  0
  3  5  1  0  0  0  0
  5  6  1  0  0  0  0
  5 27  1  0  0  0  0
  6  7  1  0  0  0  0
  6 28  1  0  0  0  0
  6 29  1  0  0  0  0
  7 12  1  0  0  0  0
  7  8  2  0  0  0  0
  8  9  1  0  0  0  0
  8 30  1  0  0  0  0
  9 10  2  0  0  0  0
  9 31  1  0  0  0  0
 10 11  1  0  0  0  0
 10 32  1  0  0  0  0
 11 12  2  0  0  0  0
 12 13  1  0  0  0  0
 13 18  1  0  0  0  0
 13 14  1  0  0  0  0
 14 15  1  0  0  0  0
 14 33  1  0  0  0  0
 14 34  1  0  0  0  0
 15 16  1  0  0  0  0
 15 35  1  0  0  0  0
 15 36  1  0  0  0  0
 16 17  1  0  0  0  0
 17 18  1  0  0  0  0
 17 37  1  0  0  0  0
 17 38  1  0  0  0  0
 18 39  1  0  0  0  0
 18 40  1  0  0  0  0
 19 20  1  0  0  0  0
 19 21  2  0  0  0  0
 19 22  2  0  0  0  0
 20 41  1  0  0  0  0
 20 42  1  0  0  0  0
 20 43  1  0  0  0  0
M  END
> <s_m_source_file>
AV-unprocessed.smi

> <i_m_source_file_index>
2000

> <i_lp_mmshare_version>
43012

> <i_f3d_flags>
0

> <s_epik_input>
W0NIM11TKD1PKSg9TylbQ0BIXShbQ0gzXSlDKD1PKVtOSF1bQ0gyXWMxW2NIXVtjSF1bY0hdbmMxTjJbQ0gyXVtDSDJdT1tDSDJdW0NIMl0y

> <s_epik_cmdline>
J2VwaWtfcHl0aG9uJywgJy1waCcsICc3LjAnLCAnLXRuJywgJzgnLCAnLW1hJywgJzIwMCcsICctbWV0YWxfYmluZGluZycsICctaW1hZScsICc8aW5maWxlLm1hZT4nLCAnLW9tYWUnLCAnPG91dGZpbGUubWFlPic=

> <r_lp_tautomer_probability>
1

> <r_epik_Ionization_Penalty>
0.00349769

> <r_epik_Ionization_Penalty_Charging>
0

> <r_epik_Ionization_Penalty_Neutral>
0.00349769

> <r_epik_State_Penalty>
0.00248024

> <r_epik_Charging_Adjusted_Penalty>
0.00248024

> <i_epik_Tot_Q>
0

> <i_epik_Tot_abs_Q>
0

> <r_epik_Metal_State_Penalty>
-0

> <b_epik_Metal_Only>
0

> <s_lp_Force_Field>
OPLS_2005

> <r_lp_Energy>
16.3383

> <b_lp_Chiralities_Consistent>
1

> <s_lp_Variant>
AV-unprocessed.smi:2000-1

> <Gold.Version>
5.8.1

> <Gold.Id.Protein>
6NUR|6NUR_protein|mol2

> <Gold.PLP.Fitness>
41.4037

> <Gold.PLP.PLP>
-33.1051

> <Gold.PLP.part.hbond>
-4.1507

> <Gold.PLP.part.metal>
0.0000

> <Gold.PLP.part.buried>
-2.5054

> <Gold.PLP.part.nonpolar>
-27.0937

> <Gold.PLP.part.repulsive>
0.3499

> <Gold.PLP.ligand.clash>
0.0000

> <Gold.PLP.ligand.torsion>
0.5137

> <Gold.PLP.Chemscore.Hbond>
2.9920

> <Gold.PLP.Chemscore.CHOScore>
0.0000

> <Gold.PLP.Chemscore.Metal>
0.0000

> <Gold.Chemscore.Hbonds>
donor molecule, donor type, donor heavy atom, donor atom, acceptor molecule, acceptor atom, score
      L1  H     5    27       P1  7948  0.91
      P1  H  7989  7998       L1    22  0.98
      P1  H 10752 10764       L1     4  0.99

> <Gold.PLP.Chemscore.Internal.Correction>
0.3501

> <Gold.Rescore>
     Score         DG    S(hbond)    S(metal)    S(lipo)     H(rot)  DE(clash)    DE(int)     intcor
     13.51     -15.60       2.49        0.00      60.95       2.08       0.03       2.06       ----

> <Gold.Chemscore.Fitness>
13.5120

> <Gold.Chemscore.DG>
-15.6050

> <Gold.Chemscore.ZeroCoef>
-5.4800

> <Gold.Chemscore.Hbond>
2.4878

> <Gold.Chemscore.Metal>
0.0000

> <Gold.Chemscore.Lipo>
60.9503

> <Gold.Chemscore.Internal_Hbond>
0.0000

> <Gold.Chemscore.DEClash>
0.0308

> <Gold.Chemscore.DEInternal>
2.0622

> <Gold.Chemscore.Rot>
2.0764

> <Gold.Chemscore.Internal.Correction>
   9.000000E+99

> <Gold.Chemscore.Hbonds>
donor molecule, donor type, donor heavy atom, donor atom, acceptor molecule, acceptor atom, score
      L1  H     5    27       P1  7948  0.35
      P1  H  7989  7998       L1    22  0.89
      P1  H 10752 10764       L1     4  0.77

> <Gold.Chemscore.Hbond.Weighted>
-8.3093

> <Gold.Chemscore.Metal.Weighted>
-0.0000

> <Gold.Chemscore.Lipo.Weighted>
-7.1312

> <Gold.Chemscore.Internal_Hbond.Weighted>
0.0000

> <Gold.Chemscore.DEClash.Weighted>
0.0308

> <Gold.Chemscore.DEInternal.Weighted>
2.0622

> <Gold.Chemscore.Rot.Weighted>
5.3155

> <Gold.Chemscore.Internal.Correction.Weighted>
   9.000000E+99

> <Gold.Protein.RotatedTorsions>
[ 6907 6896 6895 6894 ] final   68.00 input  -60.11 | X-H torsion
[ 7974 7965 7964 7962 ] final -138.24 input  175.53 | X-H torsion
[ 8008 7997 7996 7995 ] final  148.74 input   59.86 | X-H torsion
[ 10167 10162 10161 10158 ] final   69.92 input  -65.29 | X-H torsion
[ 10718 10713 10712 10709 ] final  -32.39 input   66.30 | X-H torsion
[ 10763 10752 10751 10750 ] final  -35.50 input  -60.55 | X-H torsion
[ 11005 11000 10999 10996 ] final  -37.31 input  -57.11 | X-H torsion

> <Gold.Protein.ActiveResidues>
 VAL166  LYS551  ARG553  GLY616  TRP617  ASP618  TYR619  PRO620  LYS621  CYS622 
 ASP623  PHE694  ASN695  SER759  ASP760  ASP761  ALA762  ILE779  LEU786  VAL792 
 PHE793  MET794  SER795  GLU796  ALA797  LYS798  CYS799  TRP800  GLU811  SER814 

> <Gold.Protein.RotatedAtoms>
  152.4590  134.5226  159.9786 H   0  0  0  0  0  0  0  0  0  0  0  0  # atno 6907 bound_to 6896
  151.5280  133.3448  159.2921 H   0  0  0  0  0  0  0  0  0  0  0  0  # atno 6908 bound_to 6896
  150.8546  134.7910  159.7098 H   0  0  0  0  0  0  0  0  0  0  0  0  # atno 6909 bound_to 6896
  144.8774  140.6458  143.5227 H   0  0  0  0  0  0  0  0  0  0  0  0  # atno 7974 bound_to 7965
  156.2780  140.2120  156.5747 H   0  0  0  0  0  0  0  0  0  0  0  0  # atno 8008 bound_to 7997
  154.7107  140.0512  157.0570 H   0  0  0  0  0  0  0  0  0  0  0  0  # atno 8009 bound_to 7997
  155.0609  140.3166  155.4664 H   0  0  0  0  0  0  0  0  0  0  0  0  # atno 8010 bound_to 7997
  140.0626  144.5220  150.7284 H   0  0  0  0  0  0  0  0  0  0  0  0  # atno 10167 bound_to 10162
  156.3755  130.4347  149.7511 H   0  0  0  0  0  0  0  0  0  0  0  0  # atno 10718 bound_to 10713
  153.8643  135.6837  153.4780 H   0  0  0  0  0  0  0  0  0  0  0  0  # atno 10763 bound_to 10752
  153.1324  135.4692  154.9367 H   0  0  0  0  0  0  0  0  0  0  0  0  # atno 10764 bound_to 10752
  154.7744  135.3248  154.8072 H   0  0  0  0  0  0  0  0  0  0  0  0  # atno 10765 bound_to 10752
  140.9942  133.6989  156.1905 H   0  0  0  0  0  0  0  0  0  0  0  0  # atno 11005 bound_to 11000
  145.4016  139.1596  143.4174 LP  0  0  0  0  0  0  0  0  0  0  0  0  # atno 17320 bound_to 7965
  146.2972  140.4114  142.8717 LP  0  0  0  0  0  0  0  0  0  0  0  0  # atno 17321 bound_to 7965
  140.7165  143.2549  151.4419 LP  0  0  0  0  0  0  0  0  0  0  0  0  # atno 17342 bound_to 10162
  139.5885  144.1552  152.2058 LP  0  0  0  0  0  0  0  0  0  0  0  0  # atno 17343 bound_to 10162
  156.4622  130.7957  151.2977 LP  0  0  0  0  0  0  0  0  0  0  0  0  # atno 17370 bound_to 10713
  157.7488  131.0062  150.3143 LP  0  0  0  0  0  0  0  0  0  0  0  0  # atno 17371 bound_to 10713
  140.6992  134.4583  157.5586 LP  0  0  0  0  0  0  0  0  0  0  0  0  # atno 17394 bound_to 11000
  139.9007  134.8563  156.1910 LP  0  0  0  0  0  0  0  0  0  0  0  0  # atno 17395 bound_to 11000

$$$$
