AV-unprocessed.smi:2163|AV-procd|sdf|8807|dock8
  -GOLD-   2272011593D 1   1.00000     0.00000
 Structure written by MMmdl.
 44 46  0  0  0  0  0  0  0  0  2 V2000
  149.8262  141.0131  155.3955 C   0  0  0  0  0  0  0  0  0  0  0  0
  150.5555  141.7182  156.4892 C   0  0  0  0  0  0  0  0  0  0  0  0
  150.4485  143.0409  156.8002 N   0  3  0  0  0  0  0  0  0  0  0  0
  151.2797  143.3406  157.8806 C   0  0  0  0  0  0  0  0  0  0  0  0
  151.5098  144.5389  158.5497 C   0  0  0  0  0  0  0  0  0  0  0  0
  152.4274  144.4997  159.6201 C   0  0  0  0  0  0  0  0  0  0  0  0
  153.0763  143.3029  159.9881 C   0  0  0  0  0  0  0  0  0  0  0  0
  152.8353  142.0944  159.3019 C   0  0  0  0  0  0  0  0  0  0  0  0
  151.9258  142.1419  158.2459 C   0  0  0  0  0  0  0  0  0  0  0  0
  151.4468  141.1682  157.3631 N   0  0  0  0  0  0  0  0  0  0  0  0
  151.9317  139.7846  157.4882 C   0  0  0  0  0  0  0  0  0  0  0  0
  151.9207  139.0192  156.1490 C   0  0  1  0  0  0  0  0  0  0  0  0
  152.8536  139.6191  155.2713 O   0  0  0  0  0  0  0  0  0  0  0  0
  152.2993  137.5407  156.3298 C   0  0  0  0  0  0  0  0  0  0  0  0
  151.1749  136.7347  156.0025 O   0  0  0  0  0  0  0  0  0  0  0  0
  150.3521  136.3143  157.0255 C   0  0  0  0  0  0  0  0  0  0  0  0
  149.5912  135.1180  156.9972 C   0  0  0  0  0  0  0  0  0  0  0  0
  148.7662  134.7716  158.0850 C   0  0  0  0  0  0  0  0  0  0  0  0
  148.6913  135.6094  159.2148 C   0  0  0  0  0  0  0  0  0  0  0  0
  147.7985  135.2375  160.3803 C   0  0  0  0  0  0  0  0  0  0  0  0
  147.7087  136.3168  161.3751 C   0  0  0  0  0  0  0  0  0  0  0  0
  147.6380  137.1657  162.1581 N   0  0  0  0  0  0  0  0  0  0  0  0
  149.4517  136.7941  159.2541 C   0  0  0  0  0  0  0  0  0  0  0  0
  150.2750  137.1407  158.1655 C   0  0  0  0  0  0  0  0  0  0  0  0
  149.1509  141.6973  154.8814 H   0  0  0  0  0  0  0  0  0  0  0  0
  149.2402  140.1893  155.8034 H   0  0  0  0  0  0  0  0  0  0  0  0
  150.5337  140.6125  154.6693 H   0  0  0  0  0  0  0  0  0  0  0  0
  151.0142  145.4570  158.2699 H   0  0  0  0  0  0  0  0  0  0  0  0
  152.6374  145.4057  160.1700 H   0  0  0  0  0  0  0  0  0  0  0  0
  153.7726  143.3114  160.8141 H   0  0  0  0  0  0  0  0  0  0  0  0
  153.3354  141.1823  159.5918 H   0  0  0  0  0  0  0  0  0  0  0  0
  152.9431  139.8222  157.8947 H   0  0  0  0  0  0  0  0  0  0  0  0
  151.3209  139.2749  158.2345 H   0  0  0  0  0  0  0  0  0  0  0  0
  150.9276  139.0890  155.7041 H   0  0  0  0  0  0  0  0  0  0  0  0
  152.6732  139.3225  154.3925 H   0  0  0  0  0  0  0  0  0  0  0  0
  153.1705  137.2912  155.7210 H   0  0  0  0  0  0  0  0  0  0  0  0
  152.5580  137.3571  157.3739 H   0  0  0  0  0  0  0  0  0  0  0  0
  149.6223  134.4479  156.1517 H   0  0  0  0  0  0  0  0  0  0  0  0
  148.1893  133.8589  158.0498 H   0  0  0  0  0  0  0  0  0  0  0  0
  146.7928  135.0100  160.0258 H   0  0  0  0  0  0  0  0  0  0  0  0
  148.1821  134.3441  160.8734 H   0  0  0  0  0  0  0  0  0  0  0  0
  149.4043  137.4408  160.1180 H   0  0  0  0  0  0  0  0  0  0  0  0
  150.8507  138.0538  158.2045 H   0  0  0  0  0  0  0  0  0  0  0  0
  149.8478  143.6897  156.3081 H   0  0  0  0  0  0  0  0  0  0  0  0
  1  2  1  0  0  0  0
  1 25  1  0  0  0  0
  1 26  1  0  0  0  0
  1 27  1  0  0  0  0
  2 10  1  0  0  0  0
  2  3  2  0  0  0  0
  3  4  1  0  0  0  0
  3 44  1  0  0  0  0
  4  9  2  0  0  0  0
  4  5  1  0  0  0  0
  5  6  2  0  0  0  0
  5 28  1  0  0  0  0
  6  7  1  0  0  0  0
  6 29  1  0  0  0  0
  7  8  2  0  0  0  0
  7 30  1  0  0  0  0
  8  9  1  0  0  0  0
  8 31  1  0  0  0  0
  9 10  1  0  0  0  0
 10 11  1  0  0  0  0
 11 12  1  0  0  0  0
 11 32  1  0  0  0  0
 11 33  1  0  0  0  0
 12 13  1  0  0  0  0
 12 14  1  0  0  0  0
 12 34  1  0  0  0  0
 13 35  1  0  0  0  0
 14 15  1  0  0  0  0
 14 36  1  0  0  0  0
 14 37  1  0  0  0  0
 15 16  1  0  0  0  0
 16 24  1  0  0  0  0
 16 17  2  0  0  0  0
 17 18  1  0  0  0  0
 17 38  1  0  0  0  0
 18 19  2  0  0  0  0
 18 39  1  0  0  0  0
 19 20  1  0  0  0  0
 19 23  1  0  0  0  0
 20 21  1  0  0  0  0
 20 40  1  0  0  0  0
 20 41  1  0  0  0  0
 21 22  3  0  0  0  0
 23 24  2  0  0  0  0
 23 42  1  0  0  0  0
 24 43  1  0  0  0  0
M  CHG  1   3   1
M  END
> <s_m_source_file>
AV-unprocessed.smi

> <i_m_source_file_index>
2163

> <i_lp_mmshare_version>
43012

> <i_f3d_flags>
0

> <s_epik_input>
W2NIXTFbY0hdW2NIXVtjSF1jKGMxMiluKGMobjIpW0NIM10pW0NIMl1bQ0BIXShbT0hdKVtDSDJdT2MzW2NIXVtjSF1jKFtDSDJdQyNOKVtjSF1bY0hdMw==

> <s_epik_cmdline>
J2VwaWtfcHl0aG9uJywgJy1waCcsICc3LjAnLCAnLXRuJywgJzgnLCAnLW1hJywgJzIwMCcsICctbWV0YWxfYmluZGluZycsICctaW1hZScsICc8aW5maWxlLm1hZT4nLCAnLW9tYWUnLCAnPG91dGZpbGUubWFlPic=

> <r_lp_tautomer_probability>
1

> <r_epik_Ionization_Penalty>
1.03158

> <r_epik_Ionization_Penalty_Charging>
1.03158

> <r_epik_Ionization_Penalty_Neutral>
2.3994e-06

> <r_epik_State_Penalty>
1.08278

> <r_epik_Charging_Adjusted_Penalty>
2.11436

> <i_epik_Tot_Q>
1

> <i_epik_Tot_abs_Q>
1

> <r_epik_Metal_State_Penalty>
5.07177

> <b_epik_Metal_Only>
0

> <s_lp_Force_Field>
OPLS_2005

> <r_lp_Energy>
20.4003

> <b_lp_Chiralities_Consistent>
1

> <s_lp_Variant>
AV-unprocessed.smi:2163-4

> <Gold.Version>
5.8.1

> <Gold.Id.Protein>
6NUR|6NUR_protein|mol2

> <Gold.PLP.Fitness>
56.7502

> <Gold.PLP.PLP>
-46.6372

> <Gold.PLP.part.hbond>
-4.6846

> <Gold.PLP.part.metal>
0.0000

> <Gold.PLP.part.buried>
-6.3246

> <Gold.PLP.part.nonpolar>
-35.9840

> <Gold.PLP.part.repulsive>
0.0949

> <Gold.PLP.ligand.clash>
0.3857

> <Gold.PLP.ligand.torsion>
1.7998

> <Gold.PLP.Chemscore.Hbond>
4.6330

> <Gold.PLP.Chemscore.CHOScore>
0.0000

> <Gold.PLP.Chemscore.Metal>
0.0000

> <Gold.Chemscore.Hbonds>
donor molecule, donor type, donor heavy atom, donor atom, acceptor molecule, acceptor atom, score
      L1  H     3    44       P1  8028  2.00
      P1  H  6931  6943       L1    22  0.96
      P1  H  6934  6947       L1    22  0.26
      P1  H  7997  8008       L1    13  1.00

> <Gold.PLP.Chemscore.Internal.Correction>
0.1995

> <Gold.Rescore>
     Score         DG    S(hbond)    S(metal)    S(lipo)     H(rot)  DE(clash)    DE(int)     intcor
     20.75     -23.60       3.40        0.00     114.85       2.60       0.00       2.85       ----

> <Gold.Chemscore.Fitness>
20.7530

> <Gold.Chemscore.DG>
-23.6009

> <Gold.Chemscore.ZeroCoef>
-5.4800

> <Gold.Chemscore.Hbond>
3.3981

> <Gold.Chemscore.Metal>
0.0000

> <Gold.Chemscore.Lipo>
114.8537

> <Gold.Chemscore.Internal_Hbond>
0.0000

> <Gold.Chemscore.DEClash>
0.0015

> <Gold.Chemscore.DEInternal>
2.8464

> <Gold.Chemscore.Rot>
2.6041

> <Gold.Chemscore.Internal.Correction>
   9.000000E+99

> <Gold.Chemscore.Hbonds>
donor molecule, donor type, donor heavy atom, donor atom, acceptor molecule, acceptor atom, score
      L1  H     3    44       P1  8028  0.94
      P1  H  6931  6943       L1    22  0.65
      P1  H  6934  6947       L1    22  0.13
      P1  H  7997  8008       L1    13  0.96

> <Gold.Chemscore.Hbond.Weighted>
-11.3495

> <Gold.Chemscore.Metal.Weighted>
-0.0000

> <Gold.Chemscore.Lipo.Weighted>
-13.4379

> <Gold.Chemscore.Internal_Hbond.Weighted>
0.0000

> <Gold.Chemscore.DEClash.Weighted>
0.0015

> <Gold.Chemscore.DEInternal.Weighted>
2.8464

> <Gold.Chemscore.Rot.Weighted>
6.6665

> <Gold.Chemscore.Internal.Correction.Weighted>
   9.000000E+99

> <Gold.Protein.RotatedTorsions>
[ 6907 6896 6895 6894 ] final -172.42 input  -60.11 | X-H torsion
[ 7974 7965 7964 7962 ] final  -79.40 input  175.53 | X-H torsion
[ 8008 7997 7996 7995 ] final  -21.17 input   59.86 | X-H torsion
[ 10167 10162 10161 10158 ] final  -23.89 input  -65.29 | X-H torsion
[ 10718 10713 10712 10709 ] final   -9.61 input   66.30 | X-H torsion
[ 10763 10752 10751 10750 ] final  -69.06 input  -60.55 | X-H torsion
[ 11005 11000 10999 10996 ] final -152.89 input  -57.11 | X-H torsion

> <Gold.Protein.ActiveResidues>
 VAL166  LYS551  ARG553  GLY616  TRP617  ASP618  TYR619  PRO620  LYS621  CYS622 
 ASP623  PHE694  ASN695  SER759  ASP760  ASP761  ALA762  ILE779  LEU786  VAL792 
 PHE793  MET794  SER795  GLU796  ALA797  LYS798  CYS799  TRP800  GLU811  SER814 

> <Gold.Protein.RotatedAtoms>
  151.5397  133.3435  159.2932 H   0  0  0  0  0  0  0  0  0  0  0  0  # atno 6907 bound_to 6896
  150.8543  134.7880  159.7044 H   0  0  0  0  0  0  0  0  0  0  0  0  # atno 6908 bound_to 6896
  152.4581  134.5254  159.9847 H   0  0  0  0  0  0  0  0  0  0  0  0  # atno 6909 bound_to 6896
  145.5737  140.9461  143.1381 H   0  0  0  0  0  0  0  0  0  0  0  0  # atno 7974 bound_to 7965
  154.4723  140.2042  155.9965 H   0  0  0  0  0  0  0  0  0  0  0  0  # atno 8008 bound_to 7997
  156.1031  140.3241  155.7939 H   0  0  0  0  0  0  0  0  0  0  0  0  # atno 8009 bound_to 7997
  155.4764  140.0535  157.2964 H   0  0  0  0  0  0  0  0  0  0  0  0  # atno 8010 bound_to 7997
  140.7288  143.4402  151.0668 H   0  0  0  0  0  0  0  0  0  0  0  0  # atno 10167 bound_to 10162
  156.6855  130.5049  149.5959 H   0  0  0  0  0  0  0  0  0  0  0  0  # atno 10718 bound_to 10713
  154.3980  135.6037  153.5881 H   0  0  0  0  0  0  0  0  0  0  0  0  # atno 10763 bound_to 10752
  152.9788  135.5899  154.4218 H   0  0  0  0  0  0  0  0  0  0  0  0  # atno 10764 bound_to 10752
  154.4012  135.2843  155.2073 H   0  0  0  0  0  0  0  0  0  0  0  0  # atno 10765 bound_to 10752
  140.7140  134.3801  157.5193 H   0  0  0  0  0  0  0  0  0  0  0  0  # atno 11005 bound_to 11000
  144.7426  139.7408  143.7305 LP  0  0  0  0  0  0  0  0  0  0  0  0  # atno 17320 bound_to 7965
  146.1766  139.4939  142.9894 LP  0  0  0  0  0  0  0  0  0  0  0  0  # atno 17321 bound_to 7965
  139.8068  143.8006  152.3168 LP  0  0  0  0  0  0  0  0  0  0  0  0  # atno 17342 bound_to 10162
  139.8042  144.7362  150.9784 LP  0  0  0  0  0  0  0  0  0  0  0  0  # atno 17343 bound_to 10162
  156.1836  130.6515  151.0980 LP  0  0  0  0  0  0  0  0  0  0  0  0  # atno 17370 bound_to 10713
  157.7028  131.0769  150.6765 LP  0  0  0  0  0  0  0  0  0  0  0  0  # atno 17371 bound_to 10713
  139.8864  134.8909  156.2585 LP  0  0  0  0  0  0  0  0  0  0  0  0  # atno 17394 bound_to 11000
  141.0060  133.7123  156.1036 LP  0  0  0  0  0  0  0  0  0  0  0  0  # atno 17395 bound_to 11000

$$$$
