AV-unprocessed.smi:1230|AV-procd|sdf|5153|dock4
  -GOLD-   22720 4223D 1   1.00000     0.00000
 Structure written by MMmdl.
 38 39  0  0  0  0  0  0  0  0  2 V2000
  151.9020  145.4642  158.8353 C   0  0  0  0  0  0  0  0  0  0  0  0
  152.9067  144.4778  159.4506 C   0  0  1  0  0  0  0  0  0  0  0  0
  152.4966  144.0566  160.8760 C   0  0  0  0  0  0  0  0  0  0  0  0
  153.5312  143.1076  161.5021 C   0  0  0  0  0  0  0  0  0  0  0  0
  153.7672  141.8757  160.6154 C   0  0  0  0  0  0  0  0  0  0  0  0
  154.1731  142.2842  159.1891 C   0  0  0  0  0  0  0  0  0  0  0  0
  153.1502  143.2428  158.5521 C   0  0  1  0  0  0  0  0  0  0  0  0
  151.9342  142.5255  158.3692 O   0  0  0  0  0  0  0  0  0  0  0  0
  151.3642  142.6669  157.0781 C   0  0  0  0  0  0  0  0  0  0  0  0
  150.1865  141.6912  156.9515 C   0  0  0  0  0  0  0  0  0  0  0  0
  150.6532  140.3242  156.6880 N   0  0  0  0  0  0  0  0  0  0  0  0
  151.2788  139.6374  157.7422 C   0  0  0  0  0  0  0  0  0  0  0  0
  151.7459  138.3838  157.5893 C   0  0  0  0  0  0  0  0  0  0  0  0
  152.3880  137.6660  158.6408 C   0  0  0  0  0  0  0  0  0  0  0  0
  152.9120  137.0577  159.4752 N   0  0  0  0  0  0  0  0  0  0  0  0
  151.5934  137.7335  156.2898 C   0  0  0  0  0  0  0  0  0  0  0  0
  152.0058  136.5864  156.1232 O   0  0  0  0  0  0  0  0  0  0  0  0
  150.9861  138.4509  155.2990 N   0  5  0  0  0  0  0  0  0  0  0  0
  150.5196  139.7280  155.4651 C   0  0  0  0  0  0  0  0  0  0  0  0
  149.9870  140.3580  154.5511 O   0  0  0  0  0  0  0  0  0  0  0  0
  150.9073  145.0243  158.7569 H   0  0  0  0  0  0  0  0  0  0  0  0
  152.2120  145.7684  157.8353 H   0  0  0  0  0  0  0  0  0  0  0  0
  151.8166  146.3663  159.4414 H   0  0  0  0  0  0  0  0  0  0  0  0
  153.8566  145.0086  159.5306 H   0  0  0  0  0  0  0  0  0  0  0  0
  152.3843  144.9388  161.5071 H   0  0  0  0  0  0  0  0  0  0  0  0
  151.5209  143.5694  160.8531 H   0  0  0  0  0  0  0  0  0  0  0  0
  154.4726  143.6387  161.6478 H   0  0  0  0  0  0  0  0  0  0  0  0
  153.1968  142.7945  162.4915 H   0  0  0  0  0  0  0  0  0  0  0  0
  154.5400  141.2442  161.0544 H   0  0  0  0  0  0  0  0  0  0  0  0
  152.8597  141.2718  160.5811 H   0  0  0  0  0  0  0  0  0  0  0  0
  155.1499  142.7683  159.2187 H   0  0  0  0  0  0  0  0  0  0  0  0
  154.2898  141.3970  158.5660 H   0  0  0  0  0  0  0  0  0  0  0  0
  153.5544  143.5756  157.5937 H   0  0  0  0  0  0  0  0  0  0  0  0
  151.0243  143.6924  156.9278 H   0  0  0  0  0  0  0  0  0  0  0  0
  152.1160  142.4525  156.3170 H   0  0  0  0  0  0  0  0  0  0  0  0
  149.5927  141.7153  157.8661 H   0  0  0  0  0  0  0  0  0  0  0  0
  149.5092  142.0251  156.1635 H   0  0  0  0  0  0  0  0  0  0  0  0
  151.3590  140.1890  158.6675 H   0  0  0  0  0  0  0  0  0  0  0  0
  1  2  1  0  0  0  0
  1 21  1  0  0  0  0
  1 22  1  0  0  0  0
  1 23  1  0  0  0  0
  2  7  1  0  0  0  0
  2  3  1  0  0  0  0
  2 24  1  0  0  0  0
  3  4  1  0  0  0  0
  3 25  1  0  0  0  0
  3 26  1  0  0  0  0
  4  5  1  0  0  0  0
  4 27  1  0  0  0  0
  4 28  1  0  0  0  0
  5  6  1  0  0  0  0
  5 29  1  0  0  0  0
  5 30  1  0  0  0  0
  6  7  1  0  0  0  0
  6 31  1  0  0  0  0
  6 32  1  0  0  0  0
  7  8  1  0  0  0  0
  7 33  1  0  0  0  0
  8  9  1  0  0  0  0
  9 10  1  0  0  0  0
  9 34  1  0  0  0  0
  9 35  1  0  0  0  0
 10 11  1  0  0  0  0
 10 36  1  0  0  0  0
 10 37  1  0  0  0  0
 11 19  1  0  0  0  0
 11 12  1  0  0  0  0
 12 13  2  0  0  0  0
 12 38  1  0  0  0  0
 13 14  1  0  0  0  0
 13 16  1  0  0  0  0
 14 15  3  0  0  0  0
 16 17  2  0  0  0  0
 16 18  1  0  0  0  0
 18 19  1  0  0  0  0
 19 20  2  0  0  0  0
M  CHG  1  18  -1
M  END
> <s_m_source_file>
AV-unprocessed.smi

> <i_m_source_file_index>
1230

> <i_lp_mmshare_version>
43012

> <i_f3d_flags>
0

> <s_epik_input>
W0NIM11bQ0BASF0xW0NIMl1bQ0gyXVtDSDJdW0NIMl1bQ0BIXTFPW0NIMl1bQ0gyXW4yW2NIXWMoQyNOKWMoPU8pW25IXWMyPU8=

> <s_epik_cmdline>
J2VwaWtfcHl0aG9uJywgJy1waCcsICc3LjAnLCAnLXRuJywgJzgnLCAnLW1hJywgJzIwMCcsICctbWV0YWxfYmluZGluZycsICctaW1hZScsICc8aW5maWxlLm1hZT4nLCAnLW9tYWUnLCAnPG91dGZpbGUubWFlPic=

> <r_epik_Ionization_Penalty>
0.400014

> <r_epik_Ionization_Penalty_Charging>
4.81474e-10

> <r_epik_Ionization_Penalty_Neutral>
0.400014

> <r_epik_State_Penalty>
0.399305

> <r_epik_Charging_Adjusted_Penalty>
0.399305

> <i_epik_Tot_Q>
-1

> <i_epik_Tot_abs_Q>
1

> <r_epik_Metal_State_Penalty>
0.00056968

> <b_epik_Metal_Only>
0

> <s_lp_Force_Field>
OPLS_2005

> <r_lp_Energy>
24.4713

> <b_lp_Chiralities_Consistent>
1

> <s_lp_Variant>
AV-unprocessed.smi:1230-2

> <Gold.Version>
5.8.1

> <Gold.Id.Protein>
6NUR|6NUR_protein|mol2

> <Gold.PLP.Fitness>
51.3852

> <Gold.PLP.PLP>
-44.2195

> <Gold.PLP.part.hbond>
-3.0000

> <Gold.PLP.part.metal>
0.0000

> <Gold.PLP.part.buried>
-6.3845

> <Gold.PLP.part.nonpolar>
-34.5879

> <Gold.PLP.part.repulsive>
0.1830

> <Gold.PLP.ligand.clash>
0.0000

> <Gold.PLP.ligand.torsion>
0.9070

> <Gold.PLP.Chemscore.Hbond>
2.9920

> <Gold.PLP.Chemscore.CHOScore>
0.0000

> <Gold.PLP.Chemscore.Metal>
0.0000

> <Gold.Chemscore.Hbonds>
donor molecule, donor type, donor heavy atom, donor atom, acceptor molecule, acceptor atom, score
      P1  H  6896  6909       L1    15  0.36
      P1  H  7989  7998       L1    20  0.94
      P1  H 10752 10765       L1    17  1.00

> <Gold.PLP.Chemscore.Internal.Correction>
0.0038

> <Gold.Rescore>
     Score         DG    S(hbond)    S(metal)    S(lipo)     H(rot)  DE(clash)    DE(int)     intcor
     21.34     -22.91       2.96        0.00     106.10       1.90       0.03       1.53       ----

> <Gold.Chemscore.Fitness>
21.3404

> <Gold.Chemscore.DG>
-22.9075

> <Gold.Chemscore.ZeroCoef>
-5.4800

> <Gold.Chemscore.Hbond>
2.9563

> <Gold.Chemscore.Metal>
0.0000

> <Gold.Chemscore.Lipo>
106.0971

> <Gold.Chemscore.Internal_Hbond>
0.0000

> <Gold.Chemscore.DEClash>
0.0329

> <Gold.Chemscore.DEInternal>
1.5343

> <Gold.Chemscore.Rot>
1.8984

> <Gold.Chemscore.Internal.Correction>
   9.000000E+99

> <Gold.Chemscore.Hbonds>
donor molecule, donor type, donor heavy atom, donor atom, acceptor molecule, acceptor atom, score
      P1  H  6896  6909       L1    15  0.29
      P1  H  7989  7998       L1    20  0.22
      P1  H 10752 10765       L1    17  1.00

> <Gold.Chemscore.Hbond.Weighted>
-9.8739

> <Gold.Chemscore.Metal.Weighted>
-0.0000

> <Gold.Chemscore.Lipo.Weighted>
-12.4134

> <Gold.Chemscore.Internal_Hbond.Weighted>
0.0000

> <Gold.Chemscore.DEClash.Weighted>
0.0329

> <Gold.Chemscore.DEInternal.Weighted>
1.5343

> <Gold.Chemscore.Rot.Weighted>
4.8598

> <Gold.Chemscore.Internal.Correction.Weighted>
   9.000000E+99

> <Gold.Protein.RotatedTorsions>
[ 6907 6896 6895 6894 ] final  131.38 input  -60.11 | X-H torsion
[ 7974 7965 7964 7962 ] final  103.29 input  175.53 | X-H torsion
[ 8008 7997 7996 7995 ] final   76.31 input   59.86 | X-H torsion
[ 10167 10162 10161 10158 ] final  -73.60 input  -65.29 | X-H torsion
[ 10718 10713 10712 10709 ] final -119.23 input   66.30 | X-H torsion
[ 10763 10752 10751 10750 ] final -156.53 input  -60.55 | X-H torsion
[ 11005 11000 10999 10996 ] final  -89.34 input  -57.11 | X-H torsion

> <Gold.Protein.ActiveResidues>
 VAL166  LYS551  ARG553  GLY616  TRP617  ASP618  TYR619  PRO620  LYS621  CYS622 
 ASP623  PHE694  ASN695  SER759  ASP760  ASP761  ALA762  ILE779  LEU786  VAL792 
 PHE793  MET794  SER795  GLU796  ALA797  LYS798  CYS799  TRP800  GLU811  SER814 

> <Gold.Protein.RotatedAtoms>
  152.3432  133.6091  159.5891 H   0  0  0  0  0  0  0  0  0  0  0  0  # atno 6907 bound_to 6896
  150.7491  133.9690  159.3548 H   0  0  0  0  0  0  0  0  0  0  0  0  # atno 6908 bound_to 6896
  151.7551  135.0824  160.0388 H   0  0  0  0  0  0  0  0  0  0  0  0  # atno 6909 bound_to 6896
  145.3478  139.2446  143.3574 H   0  0  0  0  0  0  0  0  0  0  0  0  # atno 7974 bound_to 7965
  155.8256  140.3468  155.5540 H   0  0  0  0  0  0  0  0  0  0  0  0  # atno 8008 bound_to 7997
  155.8297  140.0925  157.1820 H   0  0  0  0  0  0  0  0  0  0  0  0  # atno 8009 bound_to 7997
  154.4004  140.1414  156.3586 H   0  0  0  0  0  0  0  0  0  0  0  0  # atno 8010 bound_to 7997
  140.5097  143.2347  151.7614 H   0  0  0  0  0  0  0  0  0  0  0  0  # atno 10167 bound_to 10162
  156.1165  130.6290  150.9390 H   0  0  0  0  0  0  0  0  0  0  0  0  # atno 10718 bound_to 10713
  154.7706  135.3144  154.8198 H   0  0  0  0  0  0  0  0  0  0  0  0  # atno 10763 bound_to 10752
  153.8934  135.6823  153.4763 H   0  0  0  0  0  0  0  0  0  0  0  0  # atno 10764 bound_to 10752
  153.1319  135.4776  154.9296 H   0  0  0  0  0  0  0  0  0  0  0  0  # atno 10765 bound_to 10752
  141.1586  133.7624  156.9581 H   0  0  0  0  0  0  0  0  0  0  0  0  # atno 11005 bound_to 11000
  146.2980  140.4088  142.8714 LP  0  0  0  0  0  0  0  0  0  0  0  0  # atno 17320 bound_to 7965
  144.8741  140.7312  143.6028 LP  0  0  0  0  0  0  0  0  0  0  0  0  # atno 17321 bound_to 7965
  139.4893  144.4408  151.9766 LP  0  0  0  0  0  0  0  0  0  0  0  0  # atno 17342 bound_to 10162
  140.3500  144.3100  150.5951 LP  0  0  0  0  0  0  0  0  0  0  0  0  # atno 17343 bound_to 10162
  157.6349  131.0917  150.8369 LP  0  0  0  0  0  0  0  0  0  0  0  0  # atno 17370 bound_to 10713
  156.8471  130.5068  149.5315 LP  0  0  0  0  0  0  0  0  0  0  0  0  # atno 17371 bound_to 10713
  140.1212  134.9416  157.2205 LP  0  0  0  0  0  0  0  0  0  0  0  0  # atno 17394 bound_to 11000
  140.3070  134.3067  155.7276 LP  0  0  0  0  0  0  0  0  0  0  0  0  # atno 17395 bound_to 11000

$$$$
