AV-unprocessed.smi:242|AV-procd|sdf|1847|dock8
  -GOLD-   2262020463D 1   1.00000     0.00000
 Structure written by MMmdl.
 58 61  0  0  0  0  0  0  0  0  2 V2000
  145.9131  132.6593  150.9865 C   0  0  0  0  0  0  0  0  0  0  0  0
  144.5900  132.2659  151.6722 C   0  0  0  0  0  0  0  0  0  0  0  0
  143.4723  132.1949  150.6133 C   0  0  0  0  0  0  0  0  0  0  0  0
  144.2511  133.2155  152.7699 N   0  3  1  0  0  0  0  0  0  0  0  0
  145.3885  133.6692  153.6039 C   0  0  0  0  0  0  0  0  0  0  0  0
  144.9761  135.0347  154.1454 C   0  0  0  0  0  0  0  0  0  0  0  0
  144.2559  135.6437  152.9461 C   0  0  2  0  0  0  0  0  0  0  0  0
  143.3914  136.7821  153.2738 N   0  0  0  0  0  0  0  0  0  0  0  0
  142.0139  136.4884  153.6507 C   0  0  0  0  0  0  0  0  0  0  0  0
  143.9203  137.7272  154.0872 C   0  0  0  0  0  0  0  0  0  0  0  0
  143.2216  138.1703  155.1661 N   0  0  0  0  0  0  0  0  0  0  0  0
  143.7480  139.1035  155.9654 C   0  0  0  0  0  0  0  0  0  0  0  0
  144.9313  139.7139  155.8694 N   0  0  0  0  0  0  0  0  0  0  0  0
  145.6286  139.2779  154.7811 C   0  0  0  0  0  0  0  0  0  0  0  0
  145.1984  138.2964  153.8455 C   0  0  0  0  0  0  0  0  0  0  0  0
  146.1723  138.1008  152.8749 N   0  0  0  0  0  0  0  0  0  0  0  0
  147.1281  138.9208  153.2187 C   0  0  0  0  0  0  0  0  0  0  0  0
  146.8828  139.6707  154.3477 N   0  0  0  0  0  0  0  0  0  0  0  0
  147.7728  140.6497  154.9531 C   0  0  0  0  0  0  0  0  0  0  0  0
  149.2775  140.3789  154.7034 C   0  0  0  0  0  0  0  0  0  0  0  0
  149.5778  140.7866  153.3801 O   0  0  0  0  0  0  0  0  0  0  0  0
  150.1377  141.2109  155.6758 C   0  0  0  0  0  0  0  0  0  0  0  0
  151.6310  140.8493  155.5871 C   0  0  0  0  0  0  0  0  0  0  0  0
  151.8068  139.4548  155.8043 O   0  0  0  0  0  0  0  0  0  0  0  0
  151.1689  138.6599  154.8124 C   0  0  0  0  0  0  0  0  0  0  0  0
  149.6470  138.8866  154.8489 C   0  0  0  0  0  0  0  0  0  0  0  0
  143.5086  134.4332  152.3543 C   0  0  0  0  0  0  0  0  0  0  0  0
  146.1459  131.9764  150.1687 H   0  0  0  0  0  0  0  0  0  0  0  0
  146.7616  132.6313  151.6693 H   0  0  0  0  0  0  0  0  0  0  0  0
  145.8576  133.6649  150.5684 H   0  0  0  0  0  0  0  0  0  0  0  0
  144.7078  131.2725  152.1079 H   0  0  0  0  0  0  0  0  0  0  0  0
  143.7549  131.5349  149.7924 H   0  0  0  0  0  0  0  0  0  0  0  0
  143.2652  133.1776  150.1881 H   0  0  0  0  0  0  0  0  0  0  0  0
  142.5410  131.8039  151.0227 H   0  0  0  0  0  0  0  0  0  0  0  0
  145.6152  132.9589  154.3998 H   0  0  0  0  0  0  0  0  0  0  0  0
  146.2803  133.7829  152.9849 H   0  0  0  0  0  0  0  0  0  0  0  0
  144.2905  134.9140  154.9860 H   0  0  0  0  0  0  0  0  0  0  0  0
  145.8280  135.6275  154.4800 H   0  0  0  0  0  0  0  0  0  0  0  0
  145.0135  135.9714  152.2320 H   0  0  0  0  0  0  0  0  0  0  0  0
  141.4580  137.3984  153.8815 H   0  0  0  0  0  0  0  0  0  0  0  0
  141.9866  135.8395  154.5271 H   0  0  0  0  0  0  0  0  0  0  0  0
  141.4914  135.9861  152.8368 H   0  0  0  0  0  0  0  0  0  0  0  0
  143.1342  139.4044  156.8017 H   0  0  0  0  0  0  0  0  0  0  0  0
  148.0443  139.0045  152.6524 H   0  0  0  0  0  0  0  0  0  0  0  0
  147.4987  141.6381  154.5810 H   0  0  0  0  0  0  0  0  0  0  0  0
  147.5707  140.6646  156.0248 H   0  0  0  0  0  0  0  0  0  0  0  0
  149.4781  140.0429  152.8057 H   0  0  0  0  0  0  0  0  0  0  0  0
  149.9996  142.2772  155.4927 H   0  0  0  0  0  0  0  0  0  0  0  0
  149.8018  141.0313  156.6980 H   0  0  0  0  0  0  0  0  0  0  0  0
  152.0487  141.1348  154.6205 H   0  0  0  0  0  0  0  0  0  0  0  0
  152.1915  141.3955  156.3458 H   0  0  0  0  0  0  0  0  0  0  0  0
  151.5774  138.8907  153.8275 H   0  0  0  0  0  0  0  0  0  0  0  0
  151.3927  137.6111  155.0072 H   0  0  0  0  0  0  0  0  0  0  0  0
  149.2635  138.5136  155.7995 H   0  0  0  0  0  0  0  0  0  0  0  0
  149.1716  138.2891  154.0702 H   0  0  0  0  0  0  0  0  0  0  0  0
  143.4303  134.5329  151.2714 H   0  0  0  0  0  0  0  0  0  0  0  0
  142.4969  134.3578  152.7554 H   0  0  0  0  0  0  0  0  0  0  0  0
  143.6323  132.7211  153.3967 H   0  0  0  0  0  0  0  0  0  0  0  0
  1  2  1  0  0  0  0
  1 28  1  0  0  0  0
  1 29  1  0  0  0  0
  1 30  1  0  0  0  0
  2  3  1  0  0  0  0
  2  4  1  0  0  0  0
  2 31  1  0  0  0  0
  3 32  1  0  0  0  0
  3 33  1  0  0  0  0
  3 34  1  0  0  0  0
  4 27  1  0  0  0  0
  4  5  1  0  0  0  0
  4 58  1  0  0  0  0
  5  6  1  0  0  0  0
  5 35  1  0  0  0  0
  5 36  1  0  0  0  0
  6  7  1  0  0  0  0
  6 37  1  0  0  0  0
  6 38  1  0  0  0  0
  7  8  1  0  0  0  0
  7 27  1  0  0  0  0
  7 39  1  0  0  0  0
  8  9  1  0  0  0  0
  8 10  1  0  0  0  0
  9 40  1  0  0  0  0
  9 41  1  0  0  0  0
  9 42  1  0  0  0  0
 10 15  1  0  0  0  0
 10 11  2  0  0  0  0
 11 12  1  0  0  0  0
 12 13  2  0  0  0  0
 12 43  1  0  0  0  0
 13 14  1  0  0  0  0
 14 18  1  0  0  0  0
 14 15  2  0  0  0  0
 15 16  1  0  0  0  0
 16 17  2  0  0  0  0
 17 18  1  0  0  0  0
 17 44  1  0  0  0  0
 18 19  1  0  0  0  0
 19 20  1  0  0  0  0
 19 45  1  0  0  0  0
 19 46  1  0  0  0  0
 20 26  1  0  0  0  0
 20 21  1  0  0  0  0
 20 22  1  0  0  0  0
 21 47  1  0  0  0  0
 22 23  1  0  0  0  0
 22 48  1  0  0  0  0
 22 49  1  0  0  0  0
 23 24  1  0  0  0  0
 23 50  1  0  0  0  0
 23 51  1  0  0  0  0
 24 25  1  0  0  0  0
 25 26  1  0  0  0  0
 25 52  1  0  0  0  0
 25 53  1  0  0  0  0
 26 54  1  0  0  0  0
 26 55  1  0  0  0  0
 27 56  1  0  0  0  0
 27 57  1  0  0  0  0
M  CHG  1   4   1
M  END
> <s_m_source_file>
AV-unprocessed.smi

> <i_m_source_file_index>
242

> <i_lp_mmshare_version>
43012

> <i_f3d_flags>
0

> <s_epik_input>
W0NIM11bQ0hdKFtDSDNdKU4xW0NIMl1bQ0gyXVtDQEhdKFtDSDJdMSlOKFtDSDNdKWMobltjSF1uMiljKGMyMyluW2NIXW4zW0NIMl1DNChbT0hdKVtDSDJdW0NIMl1PW0NIMl1bQ0gyXTQ=

> <s_epik_cmdline>
J2VwaWtfcHl0aG9uJywgJy1waCcsICc3LjAnLCAnLXRuJywgJzgnLCAnLW1hJywgJzIwMCcsICctbWV0YWxfYmluZGluZycsICctaW1hZScsICc8aW5maWxlLm1hZT4nLCAnLW9tYWUnLCAnPG91dGZpbGUubWFlPic=

> <r_lp_tautomer_probability>
1

> <r_epik_Ionization_Penalty>
0.000825961

> <r_epik_Ionization_Penalty_Charging>
0.00034898

> <r_epik_Ionization_Penalty_Neutral>
0.000476981

> <r_epik_State_Penalty>
-0

> <r_epik_Charging_Adjusted_Penalty>
0.00034898

> <i_epik_Tot_Q>
1

> <i_epik_Tot_abs_Q>
1

> <r_epik_Metal_State_Penalty>
-0

> <b_epik_Metal_Only>
0

> <s_lp_Force_Field>
OPLS_2005

> <r_lp_Energy>
48.0366

> <b_lp_Chiralities_Consistent>
1

> <s_lp_Variant>
AV-unprocessed.smi:242-4

> <Gold.Version>
5.8.1

> <Gold.Id.Protein>
6NUR|6NUR_protein|mol2

> <Gold.PLP.Fitness>
44.4493

> <Gold.PLP.PLP>
-32.6949

> <Gold.PLP.part.hbond>
-3.7361

> <Gold.PLP.part.metal>
0.0000

> <Gold.PLP.part.buried>
-3.7781

> <Gold.PLP.part.nonpolar>
-26.1680

> <Gold.PLP.part.repulsive>
0.5439

> <Gold.PLP.ligand.clash>
0.0000

> <Gold.PLP.ligand.torsion>
1.6394

> <Gold.PLP.Chemscore.Hbond>
3.8566

> <Gold.PLP.Chemscore.CHOScore>
1.0000

> <Gold.PLP.Chemscore.Metal>
0.0000

> <Gold.Chemscore.Hbonds>
donor molecule, donor type, donor heavy atom, donor atom, acceptor molecule, acceptor atom, score
      L1  H     4    58       P1 10957  2.00
      L1  H    21    47       P1  7957  0.53
      P1  H  7989  7998       L1    21  0.30
      P1  H  8011  8017       L1    21  1.00
      L1  C    17    44       P1  7957  1.00

> <Gold.PLP.Chemscore.Internal.Correction>
0.4634

> <Gold.Rescore>
     Score         DG    S(hbond)    S(metal)    S(lipo)     H(rot)  DE(clash)    DE(int)     intcor
     10.56     -14.62       1.93        0.00      77.80       2.50       1.60       2.45       ----

> <Gold.Chemscore.Fitness>
10.5647

> <Gold.Chemscore.DG>
-14.6198

> <Gold.Chemscore.ZeroCoef>
-5.4800

> <Gold.Chemscore.Hbond>
1.9269

> <Gold.Chemscore.Metal>
0.0000

> <Gold.Chemscore.Lipo>
77.8018

> <Gold.Chemscore.Internal_Hbond>
0.0000

> <Gold.Chemscore.DEClash>
1.6033

> <Gold.Chemscore.DEInternal>
2.4518

> <Gold.Chemscore.Rot>
2.4996

> <Gold.Chemscore.Internal.Correction>
   9.000000E+99

> <Gold.Chemscore.Hbonds>
donor molecule, donor type, donor heavy atom, donor atom, acceptor molecule, acceptor atom, score
      L1  H     4    58       P1 10957  0.50
      L1  H    21    47       P1  7957  0.54
      P1  H  7989  7998       L1    21  0.02
      P1  H  8011  8017       L1    21  0.73

> <Gold.Chemscore.Hbond.Weighted>
-6.4359

> <Gold.Chemscore.Metal.Weighted>
-0.0000

> <Gold.Chemscore.Lipo.Weighted>
-9.1028

> <Gold.Chemscore.Internal_Hbond.Weighted>
0.0000

> <Gold.Chemscore.DEClash.Weighted>
1.6033

> <Gold.Chemscore.DEInternal.Weighted>
2.4518

> <Gold.Chemscore.Rot.Weighted>
6.3990

> <Gold.Chemscore.Internal.Correction.Weighted>
   9.000000E+99

> <Gold.Protein.RotatedTorsions>
[ 6907 6896 6895 6894 ] final  -52.21 input  -60.11 | X-H torsion
[ 7974 7965 7964 7962 ] final -113.91 input  175.53 | X-H torsion
[ 8008 7997 7996 7995 ] final -114.58 input   59.86 | X-H torsion
[ 10167 10162 10161 10158 ] final  -76.85 input  -65.29 | X-H torsion
[ 10718 10713 10712 10709 ] final -172.33 input   66.30 | X-H torsion
[ 10763 10752 10751 10750 ] final   83.12 input  -60.55 | X-H torsion
[ 11005 11000 10999 10996 ] final  -14.64 input  -57.11 | X-H torsion

> <Gold.Protein.ActiveResidues>
 VAL166  LYS551  ARG553  GLY616  TRP617  ASP618  TYR619  PRO620  LYS621  CYS622 
 ASP623  PHE694  ASN695  SER759  ASP760  ASP761  ALA762  ILE779  LEU786  VAL792 
 PHE793  MET794  SER795  GLU796  ALA797  LYS798  CYS799  TRP800  GLU811  SER814 

> <Gold.Protein.RotatedAtoms>
  150.8539  134.7872  159.7029 H   0  0  0  0  0  0  0  0  0  0  0  0  # atno 6907 bound_to 6896
  152.4596  134.5211  159.9792 H   0  0  0  0  0  0  0  0  0  0  0  0  # atno 6908 bound_to 6896
  151.5327  133.3408  159.2956 H   0  0  0  0  0  0  0  0  0  0  0  0  # atno 6909 bound_to 6896
  145.1264  140.8699  143.3783 H   0  0  0  0  0  0  0  0  0  0  0  0  # atno 7974 bound_to 7965
  155.0386  140.0392  157.2501 H   0  0  0  0  0  0  0  0  0  0  0  0  # atno 8008 bound_to 7997
  154.7235  140.2716  155.6496 H   0  0  0  0  0  0  0  0  0  0  0  0  # atno 8009 bound_to 7997
  156.2823  140.2698  156.1914 H   0  0  0  0  0  0  0  0  0  0  0  0  # atno 8010 bound_to 7997
  140.4821  143.2400  151.8041 H   0  0  0  0  0  0  0  0  0  0  0  0  # atno 10167 bound_to 10162
  156.7541  130.9389  151.3115 H   0  0  0  0  0  0  0  0  0  0  0  0  # atno 10718 bound_to 10713
  153.1263  135.4703  154.9277 H   0  0  0  0  0  0  0  0  0  0  0  0  # atno 10763 bound_to 10752
  154.7623  135.3135  154.8357 H   0  0  0  0  0  0  0  0  0  0  0  0  # atno 10764 bound_to 10752
  153.8909  135.6885  153.4814 H   0  0  0  0  0  0  0  0  0  0  0  0  # atno 10765 bound_to 10752
  140.7885  133.8306  155.9358 H   0  0  0  0  0  0  0  0  0  0  0  0  # atno 11005 bound_to 11000
  145.0683  139.3051  143.5845 LP  0  0  0  0  0  0  0  0  0  0  0  0  # atno 17320 bound_to 7965
  146.3517  140.0149  142.8664 LP  0  0  0  0  0  0  0  0  0  0  0  0  # atno 17321 bound_to 7965
  139.4835  144.4759  151.9367 LP  0  0  0  0  0  0  0  0  0  0  0  0  # atno 17342 bound_to 10162
  140.3845  144.2695  150.5905 LP  0  0  0  0  0  0  0  0  0  0  0  0  # atno 17343 bound_to 10162
  157.6764  130.9098  150.0161 LP  0  0  0  0  0  0  0  0  0  0  0  0  # atno 17370 bound_to 10713
  156.1382  130.3642  149.9624 LP  0  0  0  0  0  0  0  0  0  0  0  0  # atno 17371 bound_to 10713
  140.9413  134.1898  157.4796 LP  0  0  0  0  0  0  0  0  0  0  0  0  # atno 17394 bound_to 11000
  139.8734  134.9873  156.5360 LP  0  0  0  0  0  0  0  0  0  0  0  0  # atno 17395 bound_to 11000

$$$$
