AV-unprocessed.smi:170|AV-procd|sdf|1410|dock6
  -GOLD-   2262019173D 1   1.00000     0.00000
 Structure written by MMmdl.
 57 61  0  0  0  0  0  0  0  0  1 V2000
  152.7158  140.7078  158.3808 O   0  0  0  0  0  0  0  0  0  0  0  0
  151.7304  141.4618  159.0616 C   0  0  2  0  0  0  0  0  0  0  0  0
  150.4790  141.6490  158.1817 C   0  0  0  0  0  0  0  0  0  0  0  0
  149.7976  140.3938  157.9203 N   0  0  0  0  0  0  0  0  0  0  0  0
  148.6309  140.2247  157.2105 C   0  0  0  0  0  0  0  0  0  0  0  0
  148.2090  138.9931  157.1214 N   0  0  0  0  0  0  0  0  0  0  0  0
  149.1550  138.2577  157.8266 C   0  0  0  0  0  0  0  0  0  0  0  0
  149.3146  136.8778  158.1421 C   0  0  0  0  0  0  0  0  0  0  0  0
  148.4587  135.8941  157.7838 N   0  0  0  0  0  0  0  0  0  0  0  0
  147.9788  136.0966  156.4221 C   0  0  0  0  0  0  0  0  0  0  0  0
  147.1664  134.8798  155.9597 C   0  0  0  0  0  0  0  0  0  0  0  0
  146.1006  134.6600  156.8742 O   0  0  0  0  0  0  0  0  0  0  0  0
  146.5739  134.3734  158.1858 C   0  0  0  0  0  0  0  0  0  0  0  0
  147.3917  135.5646  158.7375 C   0  0  1  0  0  0  0  0  0  0  0  0
  147.9388  135.2713  160.1598 C   0  0  0  0  0  0  0  0  0  0  0  0
  146.9259  135.4867  161.2869 C   0  0  0  0  0  0  0  0  0  0  0  0
  146.7415  136.8978  161.8730 C   0  0  0  0  0  0  0  0  0  0  0  0
  147.6637  136.4943  163.0248 C   0  0  0  0  0  0  0  0  0  0  0  0
  147.3133  135.0392  162.7058 C   0  0  0  0  0  0  0  0  0  0  0  0
  150.4041  136.5113  158.8608 N   0  0  0  0  0  0  0  0  0  0  0  0
  151.2793  137.4363  159.2662 C   0  0  0  0  0  0  0  0  0  0  0  0
  151.2557  138.7554  159.0619 N   0  0  0  0  0  0  0  0  0  0  0  0
  150.1662  139.1242  158.3284 C   0  0  0  0  0  0  0  0  0  0  0  0
  152.3232  142.7977  159.5525 C   0  0  1  0  0  0  0  0  0  0  0  0
  152.7236  143.8052  158.4611 C   0  0  0  0  0  0  0  0  0  0  0  0
  152.0887  145.1098  158.9167 C   0  0  0  0  0  0  0  0  0  0  0  0
  151.7714  144.8564  160.3857 C   0  0  0  0  0  0  0  0  0  0  0  0
  151.4129  143.4851  160.4027 O   0  0  0  0  0  0  0  0  0  0  0  0
  153.0655  140.0659  158.9802 H   0  0  0  0  0  0  0  0  0  0  0  0
  151.4488  140.8794  159.9396 H   0  0  0  0  0  0  0  0  0  0  0  0
  149.7748  142.3257  158.6669 H   0  0  0  0  0  0  0  0  0  0  0  0
  150.7434  142.1074  157.2281 H   0  0  0  0  0  0  0  0  0  0  0  0
  148.0974  141.0498  156.7616 H   0  0  0  0  0  0  0  0  0  0  0  0
  147.3587  136.9935  156.3821 H   0  0  0  0  0  0  0  0  0  0  0  0
  148.8206  136.2565  155.7468 H   0  0  0  0  0  0  0  0  0  0  0  0
  146.7532  135.0575  154.9668 H   0  0  0  0  0  0  0  0  0  0  0  0
  147.7960  133.9911  155.8913 H   0  0  0  0  0  0  0  0  0  0  0  0
  145.7053  134.1770  158.8132 H   0  0  0  0  0  0  0  0  0  0  0  0
  147.1712  133.4601  158.1738 H   0  0  0  0  0  0  0  0  0  0  0  0
  146.7189  136.4194  158.7893 H   0  0  0  0  0  0  0  0  0  0  0  0
  148.3115  134.2470  160.1942 H   0  0  0  0  0  0  0  0  0  0  0  0
  148.8064  135.8985  160.3632 H   0  0  0  0  0  0  0  0  0  0  0  0
  145.9553  135.0612  161.0306 H   0  0  0  0  0  0  0  0  0  0  0  0
  147.1234  137.7146  161.2605 H   0  0  0  0  0  0  0  0  0  0  0  0
  145.7182  137.0883  162.2007 H   0  0  0  0  0  0  0  0  0  0  0  0
  148.7114  136.7311  162.8304 H   0  0  0  0  0  0  0  0  0  0  0  0
  147.3448  136.8378  164.0090 H   0  0  0  0  0  0  0  0  0  0  0  0
  146.4621  134.6751  163.2834 H   0  0  0  0  0  0  0  0  0  0  0  0
  148.1566  134.3496  162.7562 H   0  0  0  0  0  0  0  0  0  0  0  0
  152.1169  137.0669  159.8394 H   0  0  0  0  0  0  0  0  0  0  0  0
  153.2080  142.5833  160.1546 H   0  0  0  0  0  0  0  0  0  0  0  0
  153.8093  143.8945  158.4119 H   0  0  0  0  0  0  0  0  0  0  0  0
  152.3743  143.5286  157.4660 H   0  0  0  0  0  0  0  0  0  0  0  0
  152.7342  145.9754  158.7663 H   0  0  0  0  0  0  0  0  0  0  0  0
  151.1626  145.2795  158.3663 H   0  0  0  0  0  0  0  0  0  0  0  0
  152.6528  145.0135  161.0093 H   0  0  0  0  0  0  0  0  0  0  0  0
  150.9659  145.4886  160.7593 H   0  0  0  0  0  0  0  0  0  0  0  0
  1  2  1  0  0  0  0
  1 29  1  0  0  0  0
  2  3  1  0  0  0  0
  2 24  1  0  0  0  0
  2 30  1  0  0  0  0
  3  4  1  0  0  0  0
  3 31  1  0  0  0  0
  3 32  1  0  0  0  0
  4 23  1  0  0  0  0
  4  5  1  0  0  0  0
  5  6  2  0  0  0  0
  5 33  1  0  0  0  0
  6  7  1  0  0  0  0
  7 23  2  0  0  0  0
  7  8  1  0  0  0  0
  8  9  1  0  0  0  0
  8 20  2  0  0  0  0
  9 14  1  0  0  0  0
  9 10  1  0  0  0  0
 10 11  1  0  0  0  0
 10 34  1  0  0  0  0
 10 35  1  0  0  0  0
 11 12  1  0  0  0  0
 11 36  1  0  0  0  0
 11 37  1  0  0  0  0
 12 13  1  0  0  0  0
 13 14  1  0  0  0  0
 13 38  1  0  0  0  0
 13 39  1  0  0  0  0
 14 15  1  0  0  0  0
 14 40  1  0  0  0  0
 15 16  1  0  0  0  0
 15 41  1  0  0  0  0
 15 42  1  0  0  0  0
 16 19  1  0  0  0  0
 16 17  1  0  0  0  0
 16 43  1  0  0  0  0
 17 18  1  0  0  0  0
 17 44  1  0  0  0  0
 17 45  1  0  0  0  0
 18 19  1  0  0  0  0
 18 46  1  0  0  0  0
 18 47  1  0  0  0  0
 19 48  1  0  0  0  0
 19 49  1  0  0  0  0
 20 21  1  0  0  0  0
 21 22  2  0  0  0  0
 21 50  1  0  0  0  0
 22 23  1  0  0  0  0
 24 28  1  0  0  0  0
 24 25  1  0  0  0  0
 24 51  1  0  0  0  0
 25 26  1  0  0  0  0
 25 52  1  0  0  0  0
 25 53  1  0  0  0  0
 26 27  1  0  0  0  0
 26 54  1  0  0  0  0
 26 55  1  0  0  0  0
 27 28  1  0  0  0  0
 27 56  1  0  0  0  0
 27 57  1  0  0  0  0
M  END
> <s_m_source_file>
AV-unprocessed.smi

> <i_m_source_file_index>
170

> <i_lp_mmshare_version>
43012

> <i_f3d_flags>
0

> <s_epik_input>
TzFbQ0gyXVtDSDJdW0NIMl1bQ0BIXTFbQ0BIXShbT0hdKVtDSDJdbihbY0hdbjIpYyhjMjMpbltjSF1uYzNONFtDSDJdW0NIMl1PW0NIMl1bQ0BIXTRbQ0gyXVtDSF01W0NIMl1bQ0gyXVtDSDJdNQ==

> <s_epik_cmdline>
J2VwaWtfcHl0aG9uJywgJy1waCcsICc3LjAnLCAnLXRuJywgJzgnLCAnLW1hJywgJzIwMCcsICctbWV0YWxfYmluZGluZycsICctaW1hZScsICc8aW5maWxlLm1hZT4nLCAnLW9tYWUnLCAnPG91dGZpbGUubWFlPic=

> <r_lp_tautomer_probability>
1

> <r_epik_Ionization_Penalty>
4.98275e-05

> <r_epik_Ionization_Penalty_Charging>
0

> <r_epik_Ionization_Penalty_Neutral>
4.98275e-05

> <r_epik_State_Penalty>
-0

> <r_epik_Charging_Adjusted_Penalty>
0

> <i_epik_Tot_Q>
0

> <i_epik_Tot_abs_Q>
0

> <r_epik_Metal_State_Penalty>
-0

> <b_epik_Metal_Only>
0

> <s_lp_Force_Field>
OPLS_2005

> <r_lp_Energy>
54.4618

> <b_lp_Chiralities_Consistent>
1

> <s_lp_Variant>
AV-unprocessed.smi:170-5

> <Gold.Version>
5.8.1

> <Gold.Id.Protein>
6NUR|6NUR_protein|mol2

> <Gold.PLP.Fitness>
48.5401

> <Gold.PLP.PLP>
-47.5287

> <Gold.PLP.part.hbond>
-1.5567

> <Gold.PLP.part.metal>
0.0000

> <Gold.PLP.part.buried>
-6.7953

> <Gold.PLP.part.nonpolar>
-39.1203

> <Gold.PLP.part.repulsive>
0.0856

> <Gold.PLP.ligand.clash>
0.0837

> <Gold.PLP.ligand.torsion>
1.1139

> <Gold.PLP.Chemscore.Hbond>
1.0000

> <Gold.PLP.Chemscore.CHOScore>
0.0000

> <Gold.PLP.Chemscore.Metal>
0.0000

> <Gold.Chemscore.Hbonds>
donor molecule, donor type, donor heavy atom, donor atom, acceptor molecule, acceptor atom, score
      P1  H  6896  6907       L1    20  1.00

> <Gold.PLP.Chemscore.Internal.Correction>
0.3230

> <Gold.Rescore>
     Score         DG    S(hbond)    S(metal)    S(lipo)     H(rot)  DE(clash)    DE(int)     intcor
     10.52     -14.93       0.93        0.00     111.41       2.61       0.02       4.39       ----

> <Gold.Chemscore.Fitness>
10.5196

> <Gold.Chemscore.DG>
-14.9303

> <Gold.Chemscore.ZeroCoef>
-5.4800

> <Gold.Chemscore.Hbond>
0.9305

> <Gold.Chemscore.Metal>
0.0000

> <Gold.Chemscore.Lipo>
111.4126

> <Gold.Chemscore.Internal_Hbond>
0.0000

> <Gold.Chemscore.DEClash>
0.0240

> <Gold.Chemscore.DEInternal>
4.3867

> <Gold.Chemscore.Rot>
2.6144

> <Gold.Chemscore.Internal.Correction>
   9.000000E+99

> <Gold.Chemscore.Hbonds>
donor molecule, donor type, donor heavy atom, donor atom, acceptor molecule, acceptor atom, score
      P1  H  6896  6907       L1    20  0.34

> <Gold.Chemscore.Hbond.Weighted>
-3.1080

> <Gold.Chemscore.Metal.Weighted>
-0.0000

> <Gold.Chemscore.Lipo.Weighted>
-13.0353

> <Gold.Chemscore.Internal_Hbond.Weighted>
0.0000

> <Gold.Chemscore.DEClash.Weighted>
0.0240

> <Gold.Chemscore.DEInternal.Weighted>
4.3867

> <Gold.Chemscore.Rot.Weighted>
6.6929

> <Gold.Chemscore.Internal.Correction.Weighted>
   9.000000E+99

> <Gold.Protein.RotatedTorsions>
[ 6907 6896 6895 6894 ] final  -37.69 input  -60.11 | X-H torsion
[ 7974 7965 7964 7962 ] final   29.66 input  175.53 | X-H torsion
[ 8008 7997 7996 7995 ] final -122.66 input   59.86 | X-H torsion
[ 10167 10162 10161 10158 ] final   -1.96 input  -65.29 | X-H torsion
[ 10718 10713 10712 10709 ] final  -81.45 input   66.30 | X-H torsion
[ 10763 10752 10751 10750 ] final   33.95 input  -60.55 | X-H torsion
[ 11005 11000 10999 10996 ] final -136.17 input  -57.11 | X-H torsion

> <Gold.Protein.ActiveResidues>
 VAL166  LYS551  ARG553  GLY616  TRP617  ASP618  TYR619  PRO620  LYS621  CYS622 
 ASP623  PHE694  ASN695  SER759  ASP760  ASP761  ALA762  ILE779  LEU786  VAL792 
 PHE793  MET794  SER795  GLU796  ALA797  LYS798  CYS799  TRP800  GLU811  SER814 

> <Gold.Protein.RotatedAtoms>
  151.0117  134.9401  159.8010 H   0  0  0  0  0  0  0  0  0  0  0  0  # atno 6907 bound_to 6896
  152.5304  134.3020  159.9092 H   0  0  0  0  0  0  0  0  0  0  0  0  # atno 6908 bound_to 6896
  151.3026  133.4074  159.2675 H   0  0  0  0  0  0  0  0  0  0  0  0  # atno 6909 bound_to 6896
  146.1658  139.6891  142.9002 H   0  0  0  0  0  0  0  0  0  0  0  0  # atno 7974 bound_to 7965
  155.1678  140.0407  157.2856 H   0  0  0  0  0  0  0  0  0  0  0  0  # atno 8008 bound_to 7997
  154.6290  140.2519  155.7429 H   0  0  0  0  0  0  0  0  0  0  0  0  # atno 8009 bound_to 7997
  156.2475  140.2879  156.0634 H   0  0  0  0  0  0  0  0  0  0  0  0  # atno 8010 bound_to 7997
  140.6831  143.6714  150.8182 H   0  0  0  0  0  0  0  0  0  0  0  0  # atno 10167 bound_to 10162
  156.0050  130.4604  150.3954 H   0  0  0  0  0  0  0  0  0  0  0  0  # atno 10718 bound_to 10713
  153.0187  135.6373  154.1592 H   0  0  0  0  0  0  0  0  0  0  0  0  # atno 10763 bound_to 10752
  154.1329  135.2839  155.3182 H   0  0  0  0  0  0  0  0  0  0  0  0  # atno 10764 bound_to 10752
  154.6181  135.5534  153.7607 H   0  0  0  0  0  0  0  0  0  0  0  0  # atno 10765 bound_to 10752
  140.8830  134.1907  157.4578 H   0  0  0  0  0  0  0  0  0  0  0  0  # atno 11005 bound_to 11000
  145.4471  141.0426  143.2825 LP  0  0  0  0  0  0  0  0  0  0  0  0  # atno 17320 bound_to 7965
  144.8090  139.5997  143.7038 LP  0  0  0  0  0  0  0  0  0  0  0  0  # atno 17321 bound_to 7965
  140.0417  143.5339  152.2714 LP  0  0  0  0  0  0  0  0  0  0  0  0  # atno 17342 bound_to 10162
  139.6169  144.7621  151.2827 LP  0  0  0  0  0  0  0  0  0  0  0  0  # atno 17343 bound_to 10162
  157.2026  131.0441  151.2642 LP  0  0  0  0  0  0  0  0  0  0  0  0  # atno 17370 bound_to 10713
  157.3961  130.7308  149.6733 LP  0  0  0  0  0  0  0  0  0  0  0  0  # atno 17371 bound_to 10713
  139.8721  134.9826  156.5162 LP  0  0  0  0  0  0  0  0  0  0  0  0  # atno 17394 bound_to 11000
  140.8438  133.8184  155.9101 LP  0  0  0  0  0  0  0  0  0  0  0  0  # atno 17395 bound_to 11000

$$$$
