AV-unprocessed.smi:72|AV-procd|sdf|678|dock9
  -GOLD-   2262016583D 1   1.00000     0.00000
 Structure written by MMmdl.
 29 30  0  0  0  0  0  0  0  0  1 V2000
  142.3582  138.6195  153.6516 N   0  0  0  0  0  0  0  0  0  0  0  0
  142.6653  137.3949  153.4110 C   0  0  0  0  0  0  0  0  0  0  0  0
  142.2406  136.2898  154.1645 N   0  0  0  0  0  0  0  0  0  0  0  0
  142.6413  135.1067  153.8137 C   0  0  0  0  0  0  0  0  0  0  0  0
  143.5157  134.8915  152.6718 N   0  0  0  0  0  0  0  0  0  0  0  0
  143.9646  133.5000  152.2895 C   0  0  1  0  0  0  0  0  0  0  0  0
  143.3562  133.1470  151.0826 O   0  0  0  0  0  0  0  0  0  0  0  0
  144.3102  132.5279  150.2267 C   0  0  1  0  0  0  0  0  0  0  0  0
  143.8802  132.7000  148.7618 C   0  0  0  0  0  0  0  0  0  0  0  0
  142.6188  132.1022  148.5526 O   0  0  0  0  0  0  0  0  0  0  0  0
  145.5980  133.2749  150.5791 C   0  0  2  0  0  0  0  0  0  0  0  0
  146.7679  132.5880  150.1756 O   0  0  0  0  0  0  0  0  0  0  0  0
  145.4881  133.4513  152.0914 C   0  0  2  0  0  0  0  0  0  0  0  0
  146.0546  132.3704  152.8088 O   0  0  0  0  0  0  0  0  0  0  0  0
  143.9284  135.9916  151.8816 C   0  0  0  0  0  0  0  0  0  0  0  0
  144.6326  135.8634  150.8805 O   0  0  0  0  0  0  0  0  0  0  0  0
  143.4900  137.2009  152.2939 N   0  0  0  0  0  0  0  0  0  0  0  0
  143.6026  132.8232  153.0650 H   0  0  0  0  0  0  0  0  0  0  0  0
  144.4096  131.4738  150.4943 H   0  0  0  0  0  0  0  0  0  0  0  0
  145.5889  134.2580  150.1060 H   0  0  0  0  0  0  0  0  0  0  0  0
  145.9616  134.3755  152.4260 H   0  0  0  0  0  0  0  0  0  0  0  0
  142.7809  139.2328  152.9704 H   0  0  0  0  0  0  0  0  0  0  0  0
  142.3482  134.2015  154.3470 H   0  0  0  0  0  0  0  0  0  0  0  0
  143.8545  133.7523  148.4769 H   0  0  0  0  0  0  0  0  0  0  0  0
  144.5906  132.2025  148.1010 H   0  0  0  0  0  0  0  0  0  0  0  0
  141.9493  132.7055  148.8367 H   0  0  0  0  0  0  0  0  0  0  0  0
  146.6527  131.6677  150.3559 H   0  0  0  0  0  0  0  0  0  0  0  0
  146.7248  131.9735  152.2735 H   0  0  0  0  0  0  0  0  0  0  0  0
  143.7733  138.0062  151.7553 H   0  0  0  0  0  0  0  0  0  0  0  0
  1  2  2  0  0  0  0
  1 22  1  0  0  0  0
  2 17  1  0  0  0  0
  2  3  1  0  0  0  0
  3  4  2  0  0  0  0
  4  5  1  0  0  0  0
  4 23  1  0  0  0  0
  5  6  1  0  0  0  0
  5 15  1  0  0  0  0
  6 18  1  0  0  0  0
  6 13  1  0  0  0  0
  6  7  1  0  0  0  0
  7  8  1  0  0  0  0
  8 19  1  0  0  0  0
  8  9  1  0  0  0  0
  8 11  1  0  0  0  0
  9 10  1  0  0  0  0
  9 24  1  0  0  0  0
  9 25  1  0  0  0  0
 10 26  1  0  0  0  0
 11 20  1  0  0  0  0
 11 12  1  0  0  0  0
 11 13  1  0  0  0  0
 12 27  1  0  0  0  0
 13 21  1  0  0  0  0
 13 14  1  0  0  0  0
 14 28  1  0  0  0  0
 15 16  2  0  0  0  0
 15 17  1  0  0  0  0
 17 29  1  0  0  0  0
M  END
> <s_m_source_file>
AV-unprocessed.smi

> <i_m_source_file_index>
72

> <i_lp_mmshare_version>
43012

> <i_f3d_flags>
0

> <s_epik_input>
W05IMl1jMW5bY0hdbihjKD1PKW4xKVtDQEBIXTJPW0NASF0oW0NIMl1bT0hdKVtDQEBIXShbT0hdKVtDQEhdMltPSF0=

> <s_epik_cmdline>
J2VwaWtfcHl0aG9uJywgJy1waCcsICc3LjAnLCAnLXRuJywgJzgnLCAnLW1hJywgJzIwMCcsICctbWV0YWxfYmluZGluZycsICctaW1hZScsICc8aW5maWxlLm1hZT4nLCAnLW9tYWUnLCAnPG91dGZpbGUubWFlPic=

> <r_lp_tautomer_probability>
7.17554e-07

> <r_epik_Ionization_Penalty>
0.0066451

> <r_epik_Ionization_Penalty_Charging>
0.00663793

> <r_epik_Ionization_Penalty_Neutral>
7.17052e-06

> <r_epik_State_Penalty>
0.419231

> <r_epik_Charging_Adjusted_Penalty>
0.425868

> <i_epik_Tot_Q>
0

> <i_epik_Tot_abs_Q>
0

> <r_epik_Metal_State_Penalty>
1.44144

> <b_epik_Metal_Only>
0

> <s_epik_Chemistry_Notes>
This compound contains an acetal/aminal-like group ( X-CH(R)-Y where X, Y are N, S, or O) that may be acid/base labile, releasing an aldehyde.

> <s_lp_Force_Field>
OPLS_2005

> <r_lp_Energy>
43.4665

> <b_lp_Chiralities_Consistent>
1

> <s_lp_Variant>
AV-unprocessed.smi:72-16

> <Gold.Version>
5.8.1

> <Gold.Id.Protein>
6NUR|6NUR_protein|mol2

> <Gold.PLP.Fitness>
43.6609

> <Gold.PLP.PLP>
-30.1255

> <Gold.PLP.part.hbond>
-6.3087

> <Gold.PLP.part.metal>
0.0000

> <Gold.PLP.part.buried>
-8.4079

> <Gold.PLP.part.nonpolar>
-17.8609

> <Gold.PLP.part.repulsive>
1.6307

> <Gold.PLP.ligand.clash>
0.0000

> <Gold.PLP.ligand.torsion>
0.1607

> <Gold.PLP.Chemscore.Hbond>
3.6143

> <Gold.PLP.Chemscore.CHOScore>
1.0000

> <Gold.PLP.Chemscore.Metal>
0.0000

> <Gold.Chemscore.Hbonds>
donor molecule, donor type, donor heavy atom, donor atom, acceptor molecule, acceptor atom, score
      L1  H     1    22       P1 10175  1.00
      L1  H    10    26       P1 10186  0.93
      L1  H    17    29       P1 10171  0.78
      P1  H 10785 10796       L1    10  0.90
      L1  C     4    23       P1 10957  1.00

> <Gold.PLP.Chemscore.Internal.Correction>
0.0140

> <Gold.Rescore>
     Score         DG    S(hbond)    S(metal)    S(lipo)     H(rot)  DE(clash)    DE(int)     intcor
      4.75      -9.02       2.84        0.00      38.12       4.06       0.29       3.98       ----

> <Gold.Chemscore.Fitness>
4.7541

> <Gold.Chemscore.DG>
-9.0218

> <Gold.Chemscore.ZeroCoef>
-5.4800

> <Gold.Chemscore.Hbond>
2.8368

> <Gold.Chemscore.Metal>
0.0000

> <Gold.Chemscore.Lipo>
38.1225

> <Gold.Chemscore.Internal_Hbond>
0.0000

> <Gold.Chemscore.DEClash>
0.2916

> <Gold.Chemscore.DEInternal>
3.9761

> <Gold.Chemscore.Rot>
4.0600

> <Gold.Chemscore.Internal.Correction>
   9.000000E+99

> <Gold.Chemscore.Hbonds>
donor molecule, donor type, donor heavy atom, donor atom, acceptor molecule, acceptor atom, score
      L1  H     1    22       P1 10175  0.93
      L1  H    10    26       P1 10186  0.88
      L1  H    17    29       P1 10171  0.72
      P1  H 10785 10796       L1    10  0.18

> <Gold.Chemscore.Hbond.Weighted>
-9.4750

> <Gold.Chemscore.Metal.Weighted>
-0.0000

> <Gold.Chemscore.Lipo.Weighted>
-4.4603

> <Gold.Chemscore.Internal_Hbond.Weighted>
0.0000

> <Gold.Chemscore.DEClash.Weighted>
0.2916

> <Gold.Chemscore.DEInternal.Weighted>
3.9761

> <Gold.Chemscore.Rot.Weighted>
10.3936

> <Gold.Chemscore.Internal.Correction.Weighted>
   9.000000E+99

> <Gold.Protein.RotatedTorsions>
[ 6907 6896 6895 6894 ] final   36.30 input  -60.11 | X-H torsion
[ 7974 7965 7964 7962 ] final  164.97 input  175.53 | X-H torsion
[ 8008 7997 7996 7995 ] final -151.53 input   59.86 | X-H torsion
[ 10167 10162 10161 10158 ] final  155.30 input  -65.29 | X-H torsion
[ 10718 10713 10712 10709 ] final   17.51 input   66.30 | X-H torsion
[ 10763 10752 10751 10750 ] final  -24.32 input  -60.55 | X-H torsion
[ 11005 11000 10999 10996 ] final  -82.17 input  -57.11 | X-H torsion

> <Gold.Protein.ActiveResidues>
 VAL166  LYS551  ARG553  GLY616  TRP617  ASP618  TYR619  PRO620  LYS621  CYS622 
 ASP623  PHE694  ASN695  SER759  ASP760  ASP761  ALA762  ILE779  LEU786  VAL792 
 PHE793  MET794  SER795  GLU796  ALA797  LYS798  CYS799  TRP800  GLU811  SER814 

> <Gold.Protein.RotatedAtoms>
  152.1279  134.9157  160.0559 H   0  0  0  0  0  0  0  0  0  0  0  0  # atno 6907 bound_to 6896
  152.0273  133.3918  159.4291 H   0  0  0  0  0  0  0  0  0  0  0  0  # atno 6908 bound_to 6896
  150.6854  134.3481  159.4941 H   0  0  0  0  0  0  0  0  0  0  0  0  # atno 6909 bound_to 6896
  144.7522  139.8403  143.6362 H   0  0  0  0  0  0  0  0  0  0  0  0  # atno 7974 bound_to 7965
  155.6408  140.0701  157.2619 H   0  0  0  0  0  0  0  0  0  0  0  0  # atno 8008 bound_to 7997
  154.4184  140.1751  156.1620 H   0  0  0  0  0  0  0  0  0  0  0  0  # atno 8009 bound_to 7997
  155.9857  140.3350  155.6708 H   0  0  0  0  0  0  0  0  0  0  0  0  # atno 8010 bound_to 7997
  139.4821  144.5110  151.8024 H   0  0  0  0  0  0  0  0  0  0  0  0  # atno 10167 bound_to 10162
  157.0832  130.6396  149.5831 H   0  0  0  0  0  0  0  0  0  0  0  0  # atno 10718 bound_to 10713
  153.6820  135.6966  153.5115 H   0  0  0  0  0  0  0  0  0  0  0  0  # atno 10763 bound_to 10752
  153.2478  135.4285  155.0765 H   0  0  0  0  0  0  0  0  0  0  0  0  # atno 10764 bound_to 10752
  154.8397  135.3524  154.6363 H   0  0  0  0  0  0  0  0  0  0  0  0  # atno 10765 bound_to 10752
  141.1664  133.7232  156.8532 H   0  0  0  0  0  0  0  0  0  0  0  0  # atno 11005 bound_to 11000
  146.1487  139.4564  143.0062 LP  0  0  0  0  0  0  0  0  0  0  0  0  # atno 17320 bound_to 7965
  145.6903  141.0166  143.1559 LP  0  0  0  0  0  0  0  0  0  0  0  0  # atno 17321 bound_to 7965
  140.4613  144.1717  150.5906 LP  0  0  0  0  0  0  0  0  0  0  0  0  # atno 17342 bound_to 10162
  140.4481  143.2498  151.9384 LP  0  0  0  0  0  0  0  0  0  0  0  0  # atno 17343 bound_to 10162
  155.9918  130.4974  150.7313 LP  0  0  0  0  0  0  0  0  0  0  0  0  # atno 17370 bound_to 10713
  157.4783  131.0900  151.0565 LP  0  0  0  0  0  0  0  0  0  0  0  0  # atno 17371 bound_to 10713
  140.1901  134.8972  157.3050 LP  0  0  0  0  0  0  0  0  0  0  0  0  # atno 17394 bound_to 11000
  140.2300  134.3921  155.7526 LP  0  0  0  0  0  0  0  0  0  0  0  0  # atno 17395 bound_to 11000

$$$$
