AV-unprocessed.smi:148|AV-procd|sdf|1223|dock7
  -GOLD-   2262018413D 1   1.00000     0.00000
 Structure written by MMmdl.
 63 67  0  0  0  0  0  0  0  0  1 V2000
  147.7777  131.0672  152.7606 O   0  0  0  0  0  0  0  0  0  0  0  0
  146.4012  130.9634  153.0598 C   0  0  0  0  0  0  0  0  0  0  0  0
  145.6950  132.3389  152.9566 C   0  0  1  0  0  0  0  0  0  0  0  0
  146.5533  133.4937  153.5417 C   0  0  0  0  0  0  0  0  0  0  0  0
  146.4827  133.5794  154.9893 N   0  0  0  0  0  0  0  0  0  0  0  0
  145.3452  133.5431  155.7638 C   0  0  0  0  0  0  0  0  0  0  0  0
  145.5428  133.6740  157.0471 N   0  0  0  0  0  0  0  0  0  0  0  0
  146.9218  133.8011  157.1643 C   0  0  0  0  0  0  0  0  0  0  0  0
  147.8131  134.0105  158.2541 C   0  0  0  0  0  0  0  0  0  0  0  0
  147.4324  134.1533  159.5416 N   0  0  0  0  0  0  0  0  0  0  0  0
  147.5217  135.5687  159.9069 C   0  0  0  0  0  0  0  0  0  0  0  0
  146.8476  135.8451  161.2538 C   0  0  0  0  0  0  0  0  0  0  0  0
  147.4548  134.9451  162.3302 C   0  0  0  0  0  0  0  0  0  0  0  0
  147.3359  133.4759  161.9071 C   0  0  0  0  0  0  0  0  0  0  0  0
  147.9824  133.1922  160.5231 C   0  0  1  0  0  0  0  0  0  0  0  0
  147.7738  131.6854  160.1328 C   0  0  1  0  0  0  0  0  0  0  0  0
  148.5545  131.1516  158.9109 C   0  0  0  0  0  0  0  0  0  0  0  0
  148.6723  129.6299  159.0773 C   0  0  0  0  0  0  0  0  0  0  0  0
  148.1634  129.3140  160.4862 C   0  0  0  0  0  0  0  0  0  0  0  0
  148.1475  130.6553  161.2209 C   0  0  1  0  0  0  0  0  0  0  0  0
  149.4433  130.8990  161.7393 O   0  0  0  0  0  0  0  0  0  0  0  0
  149.1419  134.0666  157.9904 N   0  0  0  0  0  0  0  0  0  0  0  0
  149.5765  133.9566  156.7313 C   0  0  0  0  0  0  0  0  0  0  0  0
  148.8653  133.7923  155.6134 N   0  0  0  0  0  0  0  0  0  0  0  0
  147.5299  133.7190  155.8813 C   0  0  0  0  0  0  0  0  0  0  0  0
  145.1861  132.6140  151.5136 C   0  0  1  0  0  0  0  0  0  0  0  0
  146.0851  132.1646  150.3759 C   0  0  0  0  0  0  0  0  0  0  0  0
  145.1298  132.2594  149.1926 C   0  0  0  0  0  0  0  0  0  0  0  0
  143.8719  131.8333  149.7042 O   0  0  0  0  0  0  0  0  0  0  0  0
  143.8413  131.9875  151.1220 C   0  0  0  0  0  0  0  0  0  0  0  0
  147.9005  130.8856  151.8413 H   0  0  0  0  0  0  0  0  0  0  0  0
  145.9837  130.2467  152.3529 H   0  0  0  0  0  0  0  0  0  0  0  0
  146.2786  130.5359  154.0552 H   0  0  0  0  0  0  0  0  0  0  0  0
  144.8065  132.2749  153.5867 H   0  0  0  0  0  0  0  0  0  0  0  0
  147.6005  133.3801  153.2644 H   0  0  0  0  0  0  0  0  0  0  0  0
  146.2290  134.4559  153.1470 H   0  0  0  0  0  0  0  0  0  0  0  0
  144.3562  133.4340  155.3427 H   0  0  0  0  0  0  0  0  0  0  0  0
  148.5700  135.8674  159.9569 H   0  0  0  0  0  0  0  0  0  0  0  0
  147.0533  136.1851  159.1375 H   0  0  0  0  0  0  0  0  0  0  0  0
  146.9691  136.8936  161.5264 H   0  0  0  0  0  0  0  0  0  0  0  0
  145.7748  135.6625  161.1765 H   0  0  0  0  0  0  0  0  0  0  0  0
  148.5037  135.2021  162.4820 H   0  0  0  0  0  0  0  0  0  0  0  0
  146.9501  135.1051  163.2833 H   0  0  0  0  0  0  0  0  0  0  0  0
  147.7951  132.8700  162.6867 H   0  0  0  0  0  0  0  0  0  0  0  0
  146.2818  133.1956  161.8808 H   0  0  0  0  0  0  0  0  0  0  0  0
  149.0523  133.3823  160.6148 H   0  0  0  0  0  0  0  0  0  0  0  0
  146.7113  131.5455  159.9249 H   0  0  0  0  0  0  0  0  0  0  0  0
  148.0685  131.3898  157.9658 H   0  0  0  0  0  0  0  0  0  0  0  0
  149.5551  131.5843  158.8865 H   0  0  0  0  0  0  0  0  0  0  0  0
  148.0858  129.0979  158.3274 H   0  0  0  0  0  0  0  0  0  0  0  0
  149.7110  129.3184  158.9595 H   0  0  0  0  0  0  0  0  0  0  0  0
  147.1441  128.9311  160.4193 H   0  0  0  0  0  0  0  0  0  0  0  0
  148.7606  128.5537  160.9914 H   0  0  0  0  0  0  0  0  0  0  0  0
  147.4309  130.6403  162.0425 H   0  0  0  0  0  0  0  0  0  0  0  0
  149.9170  131.4337  161.1207 H   0  0  0  0  0  0  0  0  0  0  0  0
  150.6467  134.0176  156.5995 H   0  0  0  0  0  0  0  0  0  0  0  0
  145.0783  133.6937  151.3982 H   0  0  0  0  0  0  0  0  0  0  0  0
  146.9715  132.7883  150.2575 H   0  0  0  0  0  0  0  0  0  0  0  0
  146.4044  131.1299  150.4928 H   0  0  0  0  0  0  0  0  0  0  0  0
  145.0413  133.2928  148.8550 H   0  0  0  0  0  0  0  0  0  0  0  0
  145.4457  131.6499  148.3456 H   0  0  0  0  0  0  0  0  0  0  0  0
  143.6999  131.0023  151.5636 H   0  0  0  0  0  0  0  0  0  0  0  0
  143.0005  132.6111  151.4271 H   0  0  0  0  0  0  0  0  0  0  0  0
  1  2  1  0  0  0  0
  1 31  1  0  0  0  0
  2  3  1  0  0  0  0
  2 32  1  0  0  0  0
  2 33  1  0  0  0  0
  3  4  1  0  0  0  0
  3 26  1  0  0  0  0
  3 34  1  0  0  0  0
  4  5  1  0  0  0  0
  4 35  1  0  0  0  0
  4 36  1  0  0  0  0
  5 25  1  0  0  0  0
  5  6  1  0  0  0  0
  6  7  2  0  0  0  0
  6 37  1  0  0  0  0
  7  8  1  0  0  0  0
  8 25  2  0  0  0  0
  8  9  1  0  0  0  0
  9 10  1  0  0  0  0
  9 22  2  0  0  0  0
 10 15  1  0  0  0  0
 10 11  1  0  0  0  0
 11 12  1  0  0  0  0
 11 38  1  0  0  0  0
 11 39  1  0  0  0  0
 12 13  1  0  0  0  0
 12 40  1  0  0  0  0
 12 41  1  0  0  0  0
 13 14  1  0  0  0  0
 13 42  1  0  0  0  0
 13 43  1  0  0  0  0
 14 15  1  0  0  0  0
 14 44  1  0  0  0  0
 14 45  1  0  0  0  0
 15 16  1  0  0  0  0
 15 46  1  0  0  0  0
 16 20  1  0  0  0  0
 16 17  1  0  0  0  0
 16 47  1  0  0  0  0
 17 18  1  0  0  0  0
 17 48  1  0  0  0  0
 17 49  1  0  0  0  0
 18 19  1  0  0  0  0
 18 50  1  0  0  0  0
 18 51  1  0  0  0  0
 19 20  1  0  0  0  0
 19 52  1  0  0  0  0
 19 53  1  0  0  0  0
 20 21  1  0  0  0  0
 20 54  1  0  0  0  0
 21 55  1  0  0  0  0
 22 23  1  0  0  0  0
 23 24  2  0  0  0  0
 23 56  1  0  0  0  0
 24 25  1  0  0  0  0
 26 30  1  0  0  0  0
 26 27  1  0  0  0  0
 26 57  1  0  0  0  0
 27 28  1  0  0  0  0
 27 58  1  0  0  0  0
 27 59  1  0  0  0  0
 28 29  1  0  0  0  0
 28 60  1  0  0  0  0
 28 61  1  0  0  0  0
 29 30  1  0  0  0  0
 30 62  1  0  0  0  0
 30 63  1  0  0  0  0
M  END
> <s_m_source_file>
AV-unprocessed.smi

> <i_m_source_file_index>
148

> <i_lp_mmshare_version>
43012

> <i_f3d_flags>
0

> <s_epik_input>
W0NIMl0xT1tDSDJdW0NIMl1bQ0BIXTFbQ0BIXShbQ0gyXVtPSF0pW0NIMl1uKFtjSF1uMiljKGMyMyluW2NIXW5jM040W0NIMl1bQ0gyXVtDSDJdW0NIMl1bQ0BIXTRbQ0BASF01W0NIMl1bQ0gyXVtDSDJdW0NASF01W09IXQ==

> <s_epik_cmdline>
J2VwaWtfcHl0aG9uJywgJy1waCcsICc3LjAnLCAnLXRuJywgJzgnLCAnLW1hJywgJzIwMCcsICctbWV0YWxfYmluZGluZycsICctaW1hZScsICc8aW5maWxlLm1hZT4nLCAnLW9tYWUnLCAnPG91dGZpbGUubWFlPic=

> <r_lp_tautomer_probability>
1

> <r_epik_Ionization_Penalty>
0.00556303

> <r_epik_Ionization_Penalty_Charging>
0

> <r_epik_Ionization_Penalty_Neutral>
0.00556303

> <r_epik_State_Penalty>
0.00401767

> <r_epik_Charging_Adjusted_Penalty>
0.00401767

> <i_epik_Tot_Q>
0

> <i_epik_Tot_abs_Q>
0

> <r_epik_Metal_State_Penalty>
-0

> <b_epik_Metal_Only>
0

> <s_lp_Force_Field>
OPLS_2005

> <r_lp_Energy>
70.5845

> <b_lp_Chiralities_Consistent>
1

> <s_lp_Variant>
AV-unprocessed.smi:148-22

> <Gold.Version>
5.8.1

> <Gold.Id.Protein>
6NUR|6NUR_protein|mol2

> <Gold.PLP.Fitness>
43.3989

> <Gold.PLP.PLP>
-34.9108

> <Gold.PLP.part.hbond>
-3.0000

> <Gold.PLP.part.metal>
0.0000

> <Gold.PLP.part.buried>
-5.0649

> <Gold.PLP.part.nonpolar>
-27.7525

> <Gold.PLP.part.repulsive>
0.2623

> <Gold.PLP.ligand.clash>
0.0000

> <Gold.PLP.ligand.torsion>
1.5739

> <Gold.PLP.Chemscore.Hbond>
2.7030

> <Gold.PLP.Chemscore.CHOScore>
1.0000

> <Gold.PLP.Chemscore.Metal>
0.0000

> <Gold.Chemscore.Hbonds>
donor molecule, donor type, donor heavy atom, donor atom, acceptor molecule, acceptor atom, score
      L1  H     1    31       P1 10747  1.00
      P1  H  6896  6908       L1    22  0.98
      P1  H 10785 10796       L1    29  0.77
      L1  C     6    37       P1 10957  1.00

> <Gold.PLP.Chemscore.Internal.Correction>
0.5267

> <Gold.Rescore>
     Score         DG    S(hbond)    S(metal)    S(lipo)     H(rot)  DE(clash)    DE(int)     intcor
     15.68     -17.10       2.60        0.00      97.79       3.32       0.07       1.34       ----

> <Gold.Chemscore.Fitness>
15.6844

> <Gold.Chemscore.DG>
-17.0976

> <Gold.Chemscore.ZeroCoef>
-5.4800

> <Gold.Chemscore.Hbond>
2.5976

> <Gold.Chemscore.Metal>
0.0000

> <Gold.Chemscore.Lipo>
97.7906

> <Gold.Chemscore.Internal_Hbond>
0.0000

> <Gold.Chemscore.DEClash>
0.0703

> <Gold.Chemscore.DEInternal>
1.3429

> <Gold.Chemscore.Rot>
3.3203

> <Gold.Chemscore.Internal.Correction>
   9.000000E+99

> <Gold.Chemscore.Hbonds>
donor molecule, donor type, donor heavy atom, donor atom, acceptor molecule, acceptor atom, score
      L1  H     1    31       P1 10747  0.95
      P1  H  6896  6908       L1    22  0.72
      P1  H 10785 10796       L1    29  0.57

> <Gold.Chemscore.Hbond.Weighted>
-8.6761

> <Gold.Chemscore.Metal.Weighted>
-0.0000

> <Gold.Chemscore.Lipo.Weighted>
-11.4415

> <Gold.Chemscore.Internal_Hbond.Weighted>
0.0000

> <Gold.Chemscore.DEClash.Weighted>
0.0703

> <Gold.Chemscore.DEInternal.Weighted>
1.3429

> <Gold.Chemscore.Rot.Weighted>
8.5000

> <Gold.Chemscore.Internal.Correction.Weighted>
   9.000000E+99

> <Gold.Protein.RotatedTorsions>
[ 6907 6896 6895 6894 ] final  132.87 input  -60.11 | X-H torsion
[ 7974 7965 7964 7962 ] final  103.39 input  175.53 | X-H torsion
[ 8008 7997 7996 7995 ] final  -79.34 input   59.86 | X-H torsion
[ 10167 10162 10161 10158 ] final -151.93 input  -65.29 | X-H torsion
[ 10718 10713 10712 10709 ] final   -6.68 input   66.30 | X-H torsion
[ 10763 10752 10751 10750 ] final   41.82 input  -60.55 | X-H torsion
[ 11005 11000 10999 10996 ] final  -52.93 input  -57.11 | X-H torsion

> <Gold.Protein.ActiveResidues>
 VAL166  LYS551  ARG553  GLY616  TRP617  ASP618  TYR619  PRO620  LYS621  CYS622 
 ASP623  PHE694  ASN695  SER759  ASP760  ASP761  ALA762  ILE779  LEU786  VAL792 
 PHE793  MET794  SER795  GLU796  ALA797  LYS798  CYS799  TRP800  GLU811  SER814 

> <Gold.Protein.RotatedAtoms>
  152.3279  133.5926  159.5789 H   0  0  0  0  0  0  0  0  0  0  0  0  # atno 6907 bound_to 6896
  150.7407  133.9912  159.3616 H   0  0  0  0  0  0  0  0  0  0  0  0  # atno 6908 bound_to 6896
  151.7790  135.0767  160.0422 H   0  0  0  0  0  0  0  0  0  0  0  0  # atno 6909 bound_to 6896
  145.3465  139.2449  143.3581 H   0  0  0  0  0  0  0  0  0  0  0  0  # atno 7974 bound_to 7965
  154.5775  140.0680  156.9056 H   0  0  0  0  0  0  0  0  0  0  0  0  # atno 8008 bound_to 7997
  155.2522  140.3352  155.4263 H   0  0  0  0  0  0  0  0  0  0  0  0  # atno 8009 bound_to 7997
  156.2165  140.1780  156.7562 H   0  0  0  0  0  0  0  0  0  0  0  0  # atno 8010 bound_to 7997
  139.7225  143.8934  152.2508 H   0  0  0  0  0  0  0  0  0  0  0  0  # atno 10167 bound_to 10162
  156.7283  130.5172  149.5851 H   0  0  0  0  0  0  0  0  0  0  0  0  # atno 10718 bound_to 10713
  152.9898  135.6150  154.2850 H   0  0  0  0  0  0  0  0  0  0  0  0  # atno 10763 bound_to 10752
  154.2577  135.2783  155.2792 H   0  0  0  0  0  0  0  0  0  0  0  0  # atno 10764 bound_to 10752
  154.5233  135.5809  153.6755 H   0  0  0  0  0  0  0  0  0  0  0  0  # atno 10765 bound_to 10752
  141.0950  133.6626  156.4097 H   0  0  0  0  0  0  0  0  0  0  0  0  # atno 11005 bound_to 11000
  146.2986  140.4072  142.8712 LP  0  0  0  0  0  0  0  0  0  0  0  0  # atno 17320 bound_to 7965
  144.8750  140.7324  143.6022 LP  0  0  0  0  0  0  0  0  0  0  0  0  # atno 17321 bound_to 7965
  139.8834  144.7005  150.8851 LP  0  0  0  0  0  0  0  0  0  0  0  0  # atno 17342 bound_to 10162
  140.7756  143.3643  151.1769 LP  0  0  0  0  0  0  0  0  0  0  0  0  # atno 17343 bound_to 10162
  156.1547  130.6333  151.0641 LP  0  0  0  0  0  0  0  0  0  0  0  0  # atno 17370 bound_to 10713
  157.6869  131.0822  150.7216 LP  0  0  0  0  0  0  0  0  0  0  0  0  # atno 17371 bound_to 10713
  140.5162  134.6348  157.5302 LP  0  0  0  0  0  0  0  0  0  0  0  0  # atno 17394 bound_to 11000
  139.9784  134.7177  155.9905 LP  0  0  0  0  0  0  0  0  0  0  0  0  # atno 17395 bound_to 11000

$$$$
