AV-unprocessed.smi:40|AV-procd|sdf|382|dock10
  -GOLD-   2262016243D 1   1.00000     0.00000
 Structure written by MMmdl.
 47 48  0  0  0  0  0  0  0  0  1 V2000
  153.7088  141.3798  161.7213 C   0  0  0  0  0  0  0  0  0  0  0  0
  152.5657  142.3879  161.8979 C   0  0  0  0  0  0  0  0  0  0  0  0
  152.4244  143.3770  160.7296 C   0  0  0  0  0  0  0  0  0  0  0  0
  151.7911  142.7608  159.4690 C   0  0  0  0  0  0  0  0  0  0  0  0
  152.0195  143.6049  158.2078 C   0  0  0  0  0  0  0  0  0  0  0  0
  150.9444  143.3989  157.3075 O   0  0  0  0  0  0  0  0  0  0  0  0
  150.7288  142.1873  156.7632 C   0  0  0  0  0  0  0  0  0  0  0  0
  151.4444  141.2054  156.9595 O   0  0  0  0  0  0  0  0  0  0  0  0
  149.5231  142.1803  155.9523 N   0  0  0  0  0  0  0  0  0  0  0  0
  148.9865  141.1513  155.2530 C   0  0  0  0  0  0  0  0  0  0  0  0
  149.4371  139.9114  155.3674 N   0  0  0  0  0  0  0  0  0  0  0  0
  148.9155  138.8425  154.6907 C   0  0  0  0  0  0  0  0  0  0  0  0
  149.4041  137.7202  154.8140 O   0  0  0  0  0  0  0  0  0  0  0  0
  147.8095  139.0876  153.8442 N   0  0  0  0  0  0  0  0  0  0  0  0
  147.2137  137.9364  153.0687 C   0  0  1  0  0  0  0  0  0  0  0  0
  146.7042  136.9986  153.9726 O   0  0  0  0  0  0  0  0  0  0  0  0
  145.3594  136.6764  153.6358 C   0  0  1  0  0  0  0  0  0  0  0  0
  144.5838  136.2670  154.8933 C   0  0  0  0  0  0  0  0  0  0  0  0
  144.8388  137.9455  152.9633 C   0  0  2  0  0  0  0  0  0  0  0  0
  143.7071  137.7145  152.1459 O   0  0  0  0  0  0  0  0  0  0  0  0
  146.0563  138.4326  152.1859 C   0  0  2  0  0  0  0  0  0  0  0  0
  146.1349  137.8750  150.8867 O   0  0  0  0  0  0  0  0  0  0  0  0
  147.3182  140.3783  153.7131 C   0  0  0  0  0  0  0  0  0  0  0  0
  147.8566  141.4163  154.3886 C   0  0  0  0  0  0  0  0  0  0  0  0
  147.3593  142.6577  154.2515 F   0  0  0  0  0  0  0  0  0  0  0  0
  148.0352  137.4822  152.5118 H   0  0  0  0  0  0  0  0  0  0  0  0
  145.3797  135.8538  152.9189 H   0  0  0  0  0  0  0  0  0  0  0  0
  144.5830  138.6855  153.7232 H   0  0  0  0  0  0  0  0  0  0  0  0
  146.0697  139.5194  152.0918 H   0  0  0  0  0  0  0  0  0  0  0  0
  153.7987  140.7417  162.6006 H   0  0  0  0  0  0  0  0  0  0  0  0
  154.6633  141.8875  161.5816 H   0  0  0  0  0  0  0  0  0  0  0  0
  153.5434  140.7304  160.8619 H   0  0  0  0  0  0  0  0  0  0  0  0
  151.6251  141.8574  162.0497 H   0  0  0  0  0  0  0  0  0  0  0  0
  152.7425  142.9537  162.8131 H   0  0  0  0  0  0  0  0  0  0  0  0
  151.8084  144.2113  161.0665 H   0  0  0  0  0  0  0  0  0  0  0  0
  153.3986  143.8022  160.4857 H   0  0  0  0  0  0  0  0  0  0  0  0
  152.2084  141.7684  159.2995 H   0  0  0  0  0  0  0  0  0  0  0  0
  150.7202  142.6215  159.6219 H   0  0  0  0  0  0  0  0  0  0  0  0
  152.0974  144.6623  158.4641 H   0  0  0  0  0  0  0  0  0  0  0  0
  152.9560  143.3117  157.7314 H   0  0  0  0  0  0  0  0  0  0  0  0
  149.0543  143.0727  155.8958 H   0  0  0  0  0  0  0  0  0  0  0  0
  143.5472  136.0301  154.6529 H   0  0  0  0  0  0  0  0  0  0  0  0
  144.5812  137.0663  155.6348 H   0  0  0  0  0  0  0  0  0  0  0  0
  145.0287  135.3856  155.3553 H   0  0  0  0  0  0  0  0  0  0  0  0
  143.7386  138.3132  151.4155 H   0  0  0  0  0  0  0  0  0  0  0  0
  146.9054  137.3299  150.8412 H   0  0  0  0  0  0  0  0  0  0  0  0
  146.4843  140.5796  153.0569 H   0  0  0  0  0  0  0  0  0  0  0  0
  1  2  1  0  0  0  0
  1 30  1  0  0  0  0
  1 31  1  0  0  0  0
  1 32  1  0  0  0  0
  2  3  1  0  0  0  0
  2 33  1  0  0  0  0
  2 34  1  0  0  0  0
  3  4  1  0  0  0  0
  3 35  1  0  0  0  0
  3 36  1  0  0  0  0
  4  5  1  0  0  0  0
  4 37  1  0  0  0  0
  4 38  1  0  0  0  0
  5  6  1  0  0  0  0
  5 39  1  0  0  0  0
  5 40  1  0  0  0  0
  6  7  1  0  0  0  0
  7  8  2  0  0  0  0
  7  9  1  0  0  0  0
  9 10  1  0  0  0  0
  9 41  1  0  0  0  0
 10 24  1  0  0  0  0
 10 11  2  0  0  0  0
 11 12  1  0  0  0  0
 12 13  2  0  0  0  0
 12 14  1  0  0  0  0
 14 15  1  0  0  0  0
 14 23  1  0  0  0  0
 15 26  1  0  0  0  0
 15 21  1  0  0  0  0
 15 16  1  0  0  0  0
 16 17  1  0  0  0  0
 17 27  1  0  0  0  0
 17 18  1  0  0  0  0
 17 19  1  0  0  0  0
 18 42  1  0  0  0  0
 18 43  1  0  0  0  0
 18 44  1  0  0  0  0
 19 28  1  0  0  0  0
 19 20  1  0  0  0  0
 19 21  1  0  0  0  0
 20 45  1  0  0  0  0
 21 29  1  0  0  0  0
 21 22  1  0  0  0  0
 22 46  1  0  0  0  0
 23 24  2  0  0  0  0
 23 47  1  0  0  0  0
 24 25  1  0  0  0  0
M  END
> <s_m_source_file>
AV-unprocessed.smi

> <i_m_source_file_index>
40

> <i_lp_mmshare_version>
43012

> <i_f3d_flags>
0

> <s_epik_input>
W0NIM11bQ0gyXVtDSDJdW0NIMl1bQ0gyXU9DKD1PKVtOSF1jMW5jKD1PKW4oW2NIXWMxRilbQ0BASF0yT1tDQEhdKFtDSDNdKVtDQEBIXShbT0hdKVtDQEhdMltPSF0=

> <s_epik_cmdline>
J2VwaWtfcHl0aG9uJywgJy1waCcsICc3LjAnLCAnLXRuJywgJzgnLCAnLW1hJywgJzIwMCcsICctbWV0YWxfYmluZGluZycsICctaW1hZScsICc8aW5maWxlLm1hZT4nLCAnLW9tYWUnLCAnPG91dGZpbGUubWFlPic=

> <r_lp_tautomer_probability>
1

> <r_epik_Ionization_Penalty>
2.29506e-06

> <r_epik_Ionization_Penalty_Charging>
8.26867e-09

> <r_epik_Ionization_Penalty_Neutral>
2.2868e-06

> <r_epik_State_Penalty>
-0

> <r_epik_Charging_Adjusted_Penalty>
8.26867e-09

> <i_epik_Tot_Q>
0

> <i_epik_Tot_abs_Q>
0

> <r_epik_Metal_State_Penalty>
-0

> <b_epik_Metal_Only>
0

> <s_epik_Chemistry_Notes>
This compound has an ester and may undergo hydrolysis at high or low pH. This compound contains an acetal/aminal-like group ( X-CH(R)-Y where X, Y are N, S, or O) that may be acid/base labile, releasing an aldehyde.

> <s_lp_Force_Field>
OPLS_2005

> <r_lp_Energy>
35.629

> <b_lp_Chiralities_Consistent>
1

> <s_lp_Variant>
AV-unprocessed.smi:40-16

> <Gold.Version>
5.8.1

> <Gold.Id.Protein>
6NUR|6NUR_protein|mol2

> <Gold.PLP.Fitness>
48.5881

> <Gold.PLP.PLP>
-40.1614

> <Gold.PLP.part.hbond>
-5.9562

> <Gold.PLP.part.metal>
0.0000

> <Gold.PLP.part.buried>
2.0110

> <Gold.PLP.part.nonpolar>
-39.3912

> <Gold.PLP.part.repulsive>
2.7741

> <Gold.PLP.ligand.clash>
0.0000

> <Gold.PLP.ligand.torsion>
0.3374

> <Gold.PLP.Chemscore.Hbond>
3.0000

> <Gold.PLP.Chemscore.CHOScore>
0.0000

> <Gold.PLP.Chemscore.Metal>
0.0000

> <Gold.Chemscore.Hbonds>
donor molecule, donor type, donor heavy atom, donor atom, acceptor molecule, acceptor atom, score
      L1  H     9    41       P1  8028  1.00
      L1  H    20    45       P1 10171  1.00
      L1  C    23    47       P1 10175  0.19

> <Gold.PLP.Chemscore.Internal.Correction>
0.1014

> <Gold.Rescore>
     Score         DG    S(hbond)    S(metal)    S(lipo)     H(rot)  DE(clash)    DE(int)     intcor
     10.26     -15.73       2.91        0.00      85.56       3.70       2.07       3.41       ----

> <Gold.Chemscore.Fitness>
10.2551

> <Gold.Chemscore.DG>
-15.7337

> <Gold.Chemscore.ZeroCoef>
-5.4800

> <Gold.Chemscore.Hbond>
2.9053

> <Gold.Chemscore.Metal>
0.0000

> <Gold.Chemscore.Lipo>
85.5646

> <Gold.Chemscore.Internal_Hbond>
0.0000

> <Gold.Chemscore.DEClash>
2.0677

> <Gold.Chemscore.DEInternal>
3.4110

> <Gold.Chemscore.Rot>
3.6957

> <Gold.Chemscore.Internal.Correction>
   9.000000E+99

> <Gold.Chemscore.Hbonds>
donor molecule, donor type, donor heavy atom, donor atom, acceptor molecule, acceptor atom, score
      L1  H     9    41       P1  8028  0.99
      L1  H    20    45       P1 10171  0.89
      L1  H    22    46       P1  7948  0.02

> <Gold.Chemscore.Hbond.Weighted>
-9.7036

> <Gold.Chemscore.Metal.Weighted>
-0.0000

> <Gold.Chemscore.Lipo.Weighted>
-10.0111

> <Gold.Chemscore.Internal_Hbond.Weighted>
0.0000

> <Gold.Chemscore.DEClash.Weighted>
2.0677

> <Gold.Chemscore.DEInternal.Weighted>
3.4110

> <Gold.Chemscore.Rot.Weighted>
9.4610

> <Gold.Chemscore.Internal.Correction.Weighted>
   9.000000E+99

> <Gold.Protein.RotatedTorsions>
[ 6907 6896 6895 6894 ] final -125.25 input  -60.11 | X-H torsion
[ 7974 7965 7964 7962 ] final   48.04 input  175.53 | X-H torsion
[ 8008 7997 7996 7995 ] final   40.81 input   59.86 | X-H torsion
[ 10167 10162 10161 10158 ] final   64.98 input  -65.29 | X-H torsion
[ 10718 10713 10712 10709 ] final  178.98 input   66.30 | X-H torsion
[ 10763 10752 10751 10750 ] final  -28.00 input  -60.55 | X-H torsion
[ 11005 11000 10999 10996 ] final  108.92 input  -57.11 | X-H torsion

> <Gold.Protein.ActiveResidues>
 VAL166  LYS551  ARG553  GLY616  TRP617  ASP618  TYR619  PRO620  LYS621  CYS622 
 ASP623  PHE694  ASN695  SER759  ASP760  ASP761  ALA762  ILE779  LEU786  VAL792 
 PHE793  MET794  SER795  GLU796  ALA797  LYS798  CYS799  TRP800  GLU811  SER814 

> <Gold.Protein.RotatedAtoms>
  150.8849  133.7321  159.2921 H   0  0  0  0  0  0  0  0  0  0  0  0  # atno 6907 bound_to 6896
  151.4891  135.1055  159.9808 H   0  0  0  0  0  0  0  0  0  0  0  0  # atno 6908 bound_to 6896
  152.4783  133.8146  159.7077 H   0  0  0  0  0  0  0  0  0  0  0  0  # atno 6909 bound_to 6896
  146.0241  139.4686  142.9878 H   0  0  0  0  0  0  0  0  0  0  0  0  # atno 7974 bound_to 7965
  155.2593  140.3358  155.4274 H   0  0  0  0  0  0  0  0  0  0  0  0  # atno 8008 bound_to 7997
  156.2181  140.1797  156.7583 H   0  0  0  0  0  0  0  0  0  0  0  0  # atno 8009 bound_to 7997
  154.5784  140.0658  156.9053 H   0  0  0  0  0  0  0  0  0  0  0  0  # atno 8010 bound_to 7997
  140.1163  144.4772  150.6947 H   0  0  0  0  0  0  0  0  0  0  0  0  # atno 10167 bound_to 10162
  156.8825  130.9820  151.3060 H   0  0  0  0  0  0  0  0  0  0  0  0  # atno 10718 bound_to 10713
  153.7413  135.6932  153.4966 H   0  0  0  0  0  0  0  0  0  0  0  0  # atno 10763 bound_to 10752
  153.2067  135.4417  155.0330 H   0  0  0  0  0  0  0  0  0  0  0  0  # atno 10764 bound_to 10752
  154.8219  135.3426  154.6938 H   0  0  0  0  0  0  0  0  0  0  0  0  # atno 10765 bound_to 10752
  139.8852  134.9444  156.6047 H   0  0  0  0  0  0  0  0  0  0  0  0  # atno 11005 bound_to 11000
  145.7145  141.0095  143.1435 LP  0  0  0  0  0  0  0  0  0  0  0  0  # atno 17320 bound_to 7965
  144.7002  139.8797  143.7446 LP  0  0  0  0  0  0  0  0  0  0  0  0  # atno 17321 bound_to 7965
  140.6897  143.2369  151.5164 LP  0  0  0  0  0  0  0  0  0  0  0  0  # atno 17342 bound_to 10162
  139.5592  144.2198  152.1663 LP  0  0  0  0  0  0  0  0  0  0  0  0  # atno 17343 bound_to 10162
  157.6131  130.8598  149.8985 LP  0  0  0  0  0  0  0  0  0  0  0  0  # atno 17370 bound_to 10713
  156.0670  130.3691  150.0858 LP  0  0  0  0  0  0  0  0  0  0  0  0  # atno 17371 bound_to 10713
  140.7857  133.8623  155.8604 LP  0  0  0  0  0  0  0  0  0  0  0  0  # atno 17394 bound_to 11000
  140.9721  134.1517  157.4567 LP  0  0  0  0  0  0  0  0  0  0  0  0  # atno 17395 bound_to 11000

$$$$
