AV-unprocessed.smi:2010|AV-procd|sdf|8152|dock2
  -GOLD-   2272010393D 1   1.00000     0.00000
 Structure written by MMmdl.
 40 41  0  0  0  0  0  0  0  0  2 V2000
  148.2255  136.9090  159.7414 C   0  0  0  0  0  0  0  0  0  0  0  0
  149.2367  136.7789  158.5938 C   0  0  0  0  0  0  0  0  0  0  0  0
  150.5243  137.5660  158.8835 C   0  0  0  0  0  0  0  0  0  0  0  0
  151.5285  137.4569  157.7215 C   0  0  0  0  0  0  0  0  0  0  0  0
  150.9239  137.8587  156.4337 N   0  0  0  0  0  0  0  0  0  0  0  0
  151.1722  139.4801  155.8431 S   0  0  0  0  0  0  0  0  0  0  0  0
  152.5409  139.8524  156.2371 O   0  0  0  0  0  0  0  0  0  0  0  0
  150.8592  139.4536  154.4050 O   0  0  0  0  0  0  0  0  0  0  0  0
  150.0219  140.2025  156.7268 N   0  5  0  0  0  0  0  0  0  0  0  0
  150.1635  141.5933  157.1290 C   0  0  1  0  0  0  0  0  0  0  0  0
  148.9285  141.9918  157.9520 C   0  0  0  0  0  0  0  0  0  0  0  0
  151.5016  141.8101  157.8900 C   0  0  0  0  0  0  0  0  0  0  0  0
  151.6597  143.1182  158.5231 N   0  0  0  0  0  0  0  0  0  0  0  0
  151.4550  144.3726  157.9805 C   0  0  0  0  0  0  0  0  0  0  0  0
  151.7467  145.2921  158.9467 C   0  0  0  0  0  0  0  0  0  0  0  0
  152.1444  144.4985  160.0580 C   0  0  0  0  0  0  0  0  0  0  0  0
  152.1069  143.2025  159.7984 N   0  0  0  0  0  0  0  0  0  0  0  0
  149.6673  137.1502  156.1126 C   0  0  0  0  0  0  0  0  0  0  0  0
  148.6432  137.2545  157.2582 C   0  0  0  0  0  0  0  0  0  0  0  0
  147.9290  137.9478  159.8906 H   0  0  0  0  0  0  0  0  0  0  0  0
  148.6465  136.5448  160.6788 H   0  0  0  0  0  0  0  0  0  0  0  0
  147.3240  136.3309  159.5373 H   0  0  0  0  0  0  0  0  0  0  0  0
  149.4972  135.7244  158.4947 H   0  0  0  0  0  0  0  0  0  0  0  0
  150.2838  138.6123  159.0713 H   0  0  0  0  0  0  0  0  0  0  0  0
  150.9887  137.1954  159.7977 H   0  0  0  0  0  0  0  0  0  0  0  0
  152.4116  138.0602  157.9298 H   0  0  0  0  0  0  0  0  0  0  0  0
  151.8734  136.4263  157.6331 H   0  0  0  0  0  0  0  0  0  0  0  0
  150.1809  142.2460  156.2554 H   0  0  0  0  0  0  0  0  0  0  0  0
  149.0088  143.0209  158.3023 H   0  0  0  0  0  0  0  0  0  0  0  0
  148.7966  141.3509  158.8242 H   0  0  0  0  0  0  0  0  0  0  0  0
  148.0202  141.9202  157.3528 H   0  0  0  0  0  0  0  0  0  0  0  0
  151.6383  141.0375  158.6472 H   0  0  0  0  0  0  0  0  0  0  0  0
  152.3309  141.6822  157.1936 H   0  0  0  0  0  0  0  0  0  0  0  0
  151.1136  144.5024  156.9641 H   0  0  0  0  0  0  0  0  0  0  0  0
  151.6863  146.3672  158.8705 H   0  0  0  0  0  0  0  0  0  0  0  0
  152.4622  144.8231  161.0377 H   0  0  0  0  0  0  0  0  0  0  0  0
  149.2413  137.5376  155.1875 H   0  0  0  0  0  0  0  0  0  0  0  0
  149.9017  136.1017  155.9282 H   0  0  0  0  0  0  0  0  0  0  0  0
  147.7639  136.6593  157.0110 H   0  0  0  0  0  0  0  0  0  0  0  0
  148.2937  138.2830  157.3516 H   0  0  0  0  0  0  0  0  0  0  0  0
  1  2  1  0  0  0  0
  1 20  1  0  0  0  0
  1 21  1  0  0  0  0
  1 22  1  0  0  0  0
  2 19  1  0  0  0  0
  2  3  1  0  0  0  0
  2 23  1  0  0  0  0
  3  4  1  0  0  0  0
  3 24  1  0  0  0  0
  3 25  1  0  0  0  0
  4  5  1  0  0  0  0
  4 26  1  0  0  0  0
  4 27  1  0  0  0  0
  5  6  1  0  0  0  0
  5 18  1  0  0  0  0
  6  7  2  0  0  0  0
  6  8  2  0  0  0  0
  6  9  1  0  0  0  0
  9 10  1  0  0  0  0
 10 11  1  0  0  0  0
 10 12  1  0  0  0  0
 10 28  1  0  0  0  0
 11 29  1  0  0  0  0
 11 30  1  0  0  0  0
 11 31  1  0  0  0  0
 12 13  1  0  0  0  0
 12 32  1  0  0  0  0
 12 33  1  0  0  0  0
 13 17  1  0  0  0  0
 13 14  1  0  0  0  0
 14 15  2  0  0  0  0
 14 34  1  0  0  0  0
 15 16  1  0  0  0  0
 15 35  1  0  0  0  0
 16 17  2  0  0  0  0
 16 36  1  0  0  0  0
 18 19  1  0  0  0  0
 18 37  1  0  0  0  0
 18 38  1  0  0  0  0
 19 39  1  0  0  0  0
 19 40  1  0  0  0  0
M  CHG  1   9  -1
M  END
> <s_m_source_file>
AV-unprocessed.smi

> <i_m_source_file_index>
2010

> <i_lp_mmshare_version>
43012

> <i_f3d_flags>
0

> <s_epik_input>
W0NIM11bQ0hdMVtDSDJdW0NIMl1OKFtDSDJdW0NIMl0xKVMoPU8pKD1PKVtOSF1bQ0BIXShbQ0gzXSlbQ0gyXW4yW2NIXVtjSF1bY0hdbjI=

> <s_epik_cmdline>
J2VwaWtfcHl0aG9uJywgJy1waCcsICc3LjAnLCAnLXRuJywgJzgnLCAnLW1hJywgJzIwMCcsICctbWV0YWxfYmluZGluZycsICctaW1hZScsICc8aW5maWxlLm1hZT4nLCAnLW9tYWUnLCAnPG91dGZpbGUubWFlPic=

> <r_lp_tautomer_probability>
1

> <r_epik_Ionization_Penalty>
1.75622

> <r_epik_Ionization_Penalty_Charging>
1.7562

> <r_epik_Ionization_Penalty_Neutral>
2.39925e-05

> <r_epik_State_Penalty>
1.86645

> <r_epik_Charging_Adjusted_Penalty>
3.62264

> <i_epik_Tot_Q>
-1

> <i_epik_Tot_abs_Q>
1

> <r_epik_Metal_State_Penalty>
0.460135

> <b_epik_Metal_Only>
0

> <s_lp_Force_Field>
OPLS_2005

> <r_lp_Energy>
3.33366

> <b_lp_Chiralities_Consistent>
1

> <s_lp_Variant>
AV-unprocessed.smi:2010-4

> <Gold.Version>
5.8.1

> <Gold.Id.Protein>
6NUR|6NUR_protein|mol2

> <Gold.PLP.Fitness>
41.0091

> <Gold.PLP.PLP>
-32.6593

> <Gold.PLP.part.hbond>
-2.0000

> <Gold.PLP.part.metal>
0.0000

> <Gold.PLP.part.buried>
-5.8622

> <Gold.PLP.part.nonpolar>
-24.8689

> <Gold.PLP.part.repulsive>
0.1441

> <Gold.PLP.ligand.clash>
0.0000

> <Gold.PLP.ligand.torsion>
1.8759

> <Gold.PLP.Chemscore.Hbond>
2.0000

> <Gold.PLP.Chemscore.CHOScore>
0.9945

> <Gold.PLP.Chemscore.Metal>
0.0000

> <Gold.Chemscore.Hbonds>
donor molecule, donor type, donor heavy atom, donor atom, acceptor molecule, acceptor atom, score
      P1  H  7989  7998       L1     8  1.00
      P1  H  7997  8008       L1     7  1.00
      L1  C    14    34       P1  8028  0.94

> <Gold.PLP.Chemscore.Internal.Correction>
3.1181

> <Gold.Rescore>
     Score         DG    S(hbond)    S(metal)    S(lipo)     H(rot)  DE(clash)    DE(int)     intcor
     14.27     -17.43       1.96        0.00      76.12       1.37       0.03       3.12       ----

> <Gold.Chemscore.Fitness>
14.2735

> <Gold.Chemscore.DG>
-17.4272

> <Gold.Chemscore.ZeroCoef>
-5.4800

> <Gold.Chemscore.Hbond>
1.9571

> <Gold.Chemscore.Metal>
0.0000

> <Gold.Chemscore.Lipo>
76.1153

> <Gold.Chemscore.Internal_Hbond>
0.0000

> <Gold.Chemscore.DEClash>
0.0306

> <Gold.Chemscore.DEInternal>
3.1231

> <Gold.Chemscore.Rot>
1.3652

> <Gold.Chemscore.Internal.Correction>
   9.000000E+99

> <Gold.Chemscore.Hbonds>
donor molecule, donor type, donor heavy atom, donor atom, acceptor molecule, acceptor atom, score
      P1  H  7989  7998       L1     8  0.85
      P1  H  7997  8008       L1     7  1.00

> <Gold.Chemscore.Hbond.Weighted>
-6.5366

> <Gold.Chemscore.Metal.Weighted>
-0.0000

> <Gold.Chemscore.Lipo.Weighted>
-8.9055

> <Gold.Chemscore.Internal_Hbond.Weighted>
0.0000

> <Gold.Chemscore.DEClash.Weighted>
0.0306

> <Gold.Chemscore.DEInternal.Weighted>
3.1231

> <Gold.Chemscore.Rot.Weighted>
3.4948

> <Gold.Chemscore.Internal.Correction.Weighted>
   9.000000E+99

> <Gold.Protein.RotatedTorsions>
[ 6907 6896 6895 6894 ] final  120.03 input  -60.11 | X-H torsion
[ 7974 7965 7964 7962 ] final   67.59 input  175.53 | X-H torsion
[ 8008 7997 7996 7995 ] final  -47.92 input   59.86 | X-H torsion
[ 10167 10162 10161 10158 ] final -168.13 input  -65.29 | X-H torsion
[ 10718 10713 10712 10709 ] final  -30.33 input   66.30 | X-H torsion
[ 10763 10752 10751 10750 ] final -113.11 input  -60.55 | X-H torsion
[ 11005 11000 10999 10996 ] final -152.24 input  -57.11 | X-H torsion

> <Gold.Protein.ActiveResidues>
 VAL166  LYS551  ARG553  GLY616  TRP617  ASP618  TYR619  PRO620  LYS621  CYS622 
 ASP623  PHE694  ASN695  SER759  ASP760  ASP761  ALA762  ILE779  LEU786  VAL792 
 PHE793  MET794  SER795  GLU796  ALA797  LYS798  CYS799  TRP800  GLU811  SER814 

> <Gold.Protein.RotatedAtoms>
  152.4428  133.7480  159.6677 H   0  0  0  0  0  0  0  0  0  0  0  0  # atno 6907 bound_to 6896
  150.8322  133.8062  159.3100 H   0  0  0  0  0  0  0  0  0  0  0  0  # atno 6908 bound_to 6896
  151.5713  135.1065  160.0047 H   0  0  0  0  0  0  0  0  0  0  0  0  # atno 6909 bound_to 6896
  145.8127  139.3041  143.1089 H   0  0  0  0  0  0  0  0  0  0  0  0  # atno 7974 bound_to 7965
  154.4022  140.1334  156.4254 H   0  0  0  0  0  0  0  0  0  0  0  0  # atno 8008 bound_to 7997
  155.7603  140.3486  155.5174 H   0  0  0  0  0  0  0  0  0  0  0  0  # atno 8009 bound_to 7997
  155.8865  140.0996  157.1439 H   0  0  0  0  0  0  0  0  0  0  0  0  # atno 8010 bound_to 7997
  139.6005  144.1021  152.1737 H   0  0  0  0  0  0  0  0  0  0  0  0  # atno 10167 bound_to 10162
  156.4011  130.4390  149.7321 H   0  0  0  0  0  0  0  0  0  0  0  0  # atno 10718 bound_to 10713
  154.8381  135.4466  154.1298 H   0  0  0  0  0  0  0  0  0  0  0  0  # atno 10763 bound_to 10752
  153.2511  135.6926  153.7684 H   0  0  0  0  0  0  0  0  0  0  0  0  # atno 10764 bound_to 10752
  153.6996  135.3374  155.3197 H   0  0  0  0  0  0  0  0  0  0  0  0  # atno 10765 bound_to 10752
  140.7209  134.3728  157.5183 H   0  0  0  0  0  0  0  0  0  0  0  0  # atno 11005 bound_to 11000
  145.9759  140.8722  143.0139 LP  0  0  0  0  0  0  0  0  0  0  0  0  # atno 17320 bound_to 7965
  144.6755  140.2012  143.7387 LP  0  0  0  0  0  0  0  0  0  0  0  0  # atno 17321 bound_to 7965
  140.0616  144.5851  150.7258 LP  0  0  0  0  0  0  0  0  0  0  0  0  # atno 17342 bound_to 10162
  140.7245  143.2622  151.4165 LP  0  0  0  0  0  0  0  0  0  0  0  0  # atno 17343 bound_to 10162
  156.4337  130.7827  151.2848 LP  0  0  0  0  0  0  0  0  0  0  0  0  # atno 17370 bound_to 10713
  157.7504  131.0146  150.3471 LP  0  0  0  0  0  0  0  0  0  0  0  0  # atno 17371 bound_to 10713
  139.8848  134.8954  156.2680 LP  0  0  0  0  0  0  0  0  0  0  0  0  # atno 17394 bound_to 11000
  141.0004  133.7155  156.0951 LP  0  0  0  0  0  0  0  0  0  0  0  0  # atno 17395 bound_to 11000

$$$$
