AV-unprocessed.smi:671|AV-procd|sdf|3280|dock10
  -GOLD-   22720 0243D 1   1.00000     0.00000
 Structure written by MMmdl.
 49 50  0  0  0  0  0  0  0  0  1 V2000
  152.7804  138.7858  154.7319 C   0  0  0  0  0  0  0  0  0  0  0  0
  151.9886  139.6100  155.7064 C   0  0  0  0  0  0  0  0  0  0  0  0
  152.4933  139.8581  156.9036 N   0  0  0  0  0  0  0  0  0  0  0  0
  151.5588  140.6060  157.5239 N   0  0  0  0  0  0  0  0  0  0  0  0
  151.7983  141.0571  158.8811 C   0  0  0  0  0  0  0  0  0  0  0  0
  150.4580  140.8256  156.7189 C   0  0  0  0  0  0  0  0  0  0  0  0
  149.2788  141.6227  157.1766 C   0  0  0  0  0  0  0  0  0  0  0  0
  150.7018  140.1973  155.5270 C   0  0  0  0  0  0  0  0  0  0  0  0
  149.8209  140.1349  154.3059 C   0  0  0  0  0  0  0  0  0  0  0  0
  148.5157  139.3496  154.5635 C   0  0  1  0  0  0  0  0  0  0  0  0
  147.3204  139.9238  153.7867 C   0  0  0  0  0  0  0  0  0  0  0  0
  148.6825  137.9403  154.1998 N   0  0  0  0  0  0  0  0  0  0  0  0
  148.5885  136.8592  154.9958 C   0  0  0  0  0  0  0  0  0  0  0  0
  148.3206  136.9550  156.1919 O   0  0  0  0  0  0  0  0  0  0  0  0
  148.7935  135.6869  154.3726 N   0  0  0  0  0  0  0  0  0  0  0  0
  148.7506  134.3699  155.0001 C   0  0  1  0  0  0  0  0  0  0  0  0
  147.8288  133.4343  154.1970 C   0  0  0  0  0  0  0  0  0  0  0  0
  148.7540  132.4620  153.4673 C   0  0  0  0  0  0  0  0  0  0  0  0
  149.9364  132.3037  154.4169 C   0  0  0  0  0  0  0  0  0  0  0  0
  150.1473  133.7056  155.0000 C   0  0  2  0  0  0  0  0  0  0  0  0
  150.8247  133.6923  156.3770 C   0  0  0  0  0  0  0  0  0  0  0  0
  152.4248  137.7557  154.7162 H   0  0  0  0  0  0  0  0  0  0  0  0
  153.8404  138.7682  154.9872 H   0  0  0  0  0  0  0  0  0  0  0  0
  152.6939  139.1822  153.7205 H   0  0  0  0  0  0  0  0  0  0  0  0
  151.2318  140.4379  159.5765 H   0  0  0  0  0  0  0  0  0  0  0  0
  151.4828  142.0949  158.9888 H   0  0  0  0  0  0  0  0  0  0  0  0
  152.8590  140.9881  159.1261 H   0  0  0  0  0  0  0  0  0  0  0  0
  148.4678  141.5802  156.4506 H   0  0  0  0  0  0  0  0  0  0  0  0
  149.5496  142.6697  157.3133 H   0  0  0  0  0  0  0  0  0  0  0  0
  148.8966  141.2439  158.1246 H   0  0  0  0  0  0  0  0  0  0  0  0
  149.5739  141.1367  153.9531 H   0  0  0  0  0  0  0  0  0  0  0  0
  150.3718  139.6753  153.4849 H   0  0  0  0  0  0  0  0  0  0  0  0
  148.2664  139.4085  155.6244 H   0  0  0  0  0  0  0  0  0  0  0  0
  147.1129  140.9537  154.0777 H   0  0  0  0  0  0  0  0  0  0  0  0
  146.4153  139.3460  153.9771 H   0  0  0  0  0  0  0  0  0  0  0  0
  147.5023  139.9120  152.7114 H   0  0  0  0  0  0  0  0  0  0  0  0
  148.8403  137.7596  153.2187 H   0  0  0  0  0  0  0  0  0  0  0  0
  149.0019  135.7104  153.3853 H   0  0  0  0  0  0  0  0  0  0  0  0
  148.3562  134.4541  156.0146 H   0  0  0  0  0  0  0  0  0  0  0  0
  147.1986  132.8740  154.8887 H   0  0  0  0  0  0  0  0  0  0  0  0
  147.1609  133.9610  153.5140 H   0  0  0  0  0  0  0  0  0  0  0  0
  148.2690  131.5134  153.2363 H   0  0  0  0  0  0  0  0  0  0  0  0
  149.0906  132.9046  152.5289 H   0  0  0  0  0  0  0  0  0  0  0  0
  149.6727  131.6009  155.2086 H   0  0  0  0  0  0  0  0  0  0  0  0
  150.8262  131.9205  153.9167 H   0  0  0  0  0  0  0  0  0  0  0  0
  150.7971  134.2451  154.3082 H   0  0  0  0  0  0  0  0  0  0  0  0
  150.2233  133.1547  157.1102 H   0  0  0  0  0  0  0  0  0  0  0  0
  150.9738  134.7064  156.7478 H   0  0  0  0  0  0  0  0  0  0  0  0
  151.8014  133.2102  156.3278 H   0  0  0  0  0  0  0  0  0  0  0  0
  1  2  1  0  0  0  0
  1 22  1  0  0  0  0
  1 23  1  0  0  0  0
  1 24  1  0  0  0  0
  2  8  1  0  0  0  0
  2  3  2  0  0  0  0
  3  4  1  0  0  0  0
  4  5  1  0  0  0  0
  4  6  1  0  0  0  0
  5 25  1  0  0  0  0
  5 26  1  0  0  0  0
  5 27  1  0  0  0  0
  6  7  1  0  0  0  0
  6  8  2  0  0  0  0
  7 28  1  0  0  0  0
  7 29  1  0  0  0  0
  7 30  1  0  0  0  0
  8  9  1  0  0  0  0
  9 10  1  0  0  0  0
  9 31  1  0  0  0  0
  9 32  1  0  0  0  0
 10 11  1  0  0  0  0
 10 12  1  0  0  0  0
 10 33  1  0  0  0  0
 11 34  1  0  0  0  0
 11 35  1  0  0  0  0
 11 36  1  0  0  0  0
 12 13  1  0  0  0  0
 12 37  1  0  0  0  0
 13 14  2  0  0  0  0
 13 15  1  0  0  0  0
 15 16  1  0  0  0  0
 15 38  1  0  0  0  0
 16 20  1  0  0  0  0
 16 17  1  0  0  0  0
 16 39  1  0  0  0  0
 17 18  1  0  0  0  0
 17 40  1  0  0  0  0
 17 41  1  0  0  0  0
 18 19  1  0  0  0  0
 18 42  1  0  0  0  0
 18 43  1  0  0  0  0
 19 20  1  0  0  0  0
 19 44  1  0  0  0  0
 19 45  1  0  0  0  0
 20 21  1  0  0  0  0
 20 46  1  0  0  0  0
 21 47  1  0  0  0  0
 21 48  1  0  0  0  0
 21 49  1  0  0  0  0
M  END
> <s_m_source_file>
AV-unprocessed.smi

> <i_m_source_file_index>
671

> <i_lp_mmshare_version>
43012

> <i_f3d_flags>
0

> <s_epik_input>
W0NIM11jMW5uKFtDSDNdKWMoW0NIM10pYzFbQ0gyXVtDQEhdKFtDSDNdKVtOSF1DKD1PKVtOSF1bQ0BASF0yW0NIMl1bQ0gyXVtDSDJdW0NASF0yW0NIM10=

> <s_epik_cmdline>
J2VwaWtfcHl0aG9uJywgJy1waCcsICc3LjAnLCAnLXRuJywgJzgnLCAnLW1hJywgJzIwMCcsICctbWV0YWxfYmluZGluZycsICctaW1hZScsICc8aW5maWxlLm1hZT4nLCAnLW9tYWUnLCAnPG91dGZpbGUubWFlPic=

> <r_lp_tautomer_probability>
1

> <r_epik_Ionization_Penalty>
0.0126855

> <r_epik_Ionization_Penalty_Charging>
0

> <r_epik_Ionization_Penalty_Neutral>
0.0126855

> <r_epik_State_Penalty>
0.00977547

> <r_epik_Charging_Adjusted_Penalty>
0.00977547

> <i_epik_Tot_Q>
0

> <i_epik_Tot_abs_Q>
0

> <r_epik_Metal_State_Penalty>
0.00957132

> <b_epik_Metal_Only>
0

> <s_lp_Force_Field>
OPLS_2005

> <r_lp_Energy>
22.0213

> <b_lp_Chiralities_Consistent>
1

> <s_lp_Variant>
AV-unprocessed.smi:671-8

> <Gold.Version>
5.8.1

> <Gold.Id.Protein>
6NUR|6NUR_protein|mol2

> <Gold.PLP.Fitness>
43.4487

> <Gold.PLP.PLP>
-35.8670

> <Gold.PLP.part.hbond>
-3.0000

> <Gold.PLP.part.metal>
0.0000

> <Gold.PLP.part.buried>
-1.8979

> <Gold.PLP.part.nonpolar>
-30.9881

> <Gold.PLP.part.repulsive>
0.0270

> <Gold.PLP.ligand.clash>
0.0000

> <Gold.PLP.ligand.torsion>
0.5429

> <Gold.PLP.Chemscore.Hbond>
2.8800

> <Gold.PLP.Chemscore.CHOScore>
0.0000

> <Gold.PLP.Chemscore.Metal>
0.0000

> <Gold.Chemscore.Hbonds>
donor molecule, donor type, donor heavy atom, donor atom, acceptor molecule, acceptor atom, score
      L1  H    12    37       P1  7948  0.86
      L1  H    15    38       P1  7948  1.00
      P1  H  7997  8010       L1     3  1.00

> <Gold.PLP.Chemscore.Internal.Correction>
0.0277

> <Gold.Rescore>
     Score         DG    S(hbond)    S(metal)    S(lipo)     H(rot)  DE(clash)    DE(int)     intcor
     19.99     -21.73       2.77        0.00      91.54       1.45       1.09       0.64       ----

> <Gold.Chemscore.Fitness>
19.9913

> <Gold.Chemscore.DG>
-21.7256

> <Gold.Chemscore.ZeroCoef>
-5.4800

> <Gold.Chemscore.Hbond>
2.7686

> <Gold.Chemscore.Metal>
0.0000

> <Gold.Chemscore.Lipo>
91.5420

> <Gold.Chemscore.Internal_Hbond>
0.0000

> <Gold.Chemscore.DEClash>
1.0924

> <Gold.Chemscore.DEInternal>
0.6419

> <Gold.Chemscore.Rot>
1.4499

> <Gold.Chemscore.Internal.Correction>
   9.000000E+99

> <Gold.Chemscore.Hbonds>
donor molecule, donor type, donor heavy atom, donor atom, acceptor molecule, acceptor atom, score
      L1  H    12    37       P1  7948  0.79
      L1  H    15    38       P1  7948  0.80
      P1  H  7997  8010       L1     3  0.64

> <Gold.Chemscore.Hbond.Weighted>
-9.2470

> <Gold.Chemscore.Metal.Weighted>
-0.0000

> <Gold.Chemscore.Lipo.Weighted>
-10.7104

> <Gold.Chemscore.Internal_Hbond.Weighted>
0.0000

> <Gold.Chemscore.DEClash.Weighted>
1.0924

> <Gold.Chemscore.DEInternal.Weighted>
0.6419

> <Gold.Chemscore.Rot.Weighted>
3.7118

> <Gold.Chemscore.Internal.Correction.Weighted>
   9.000000E+99

> <Gold.Protein.RotatedTorsions>
[ 6907 6896 6895 6894 ] final   16.52 input  -60.11 | X-H torsion
[ 7974 7965 7964 7962 ] final   16.68 input  175.53 | X-H torsion
[ 8008 7997 7996 7995 ] final   55.42 input   59.86 | X-H torsion
[ 10167 10162 10161 10158 ] final   -6.85 input  -65.29 | X-H torsion
[ 10718 10713 10712 10709 ] final  -56.78 input   66.30 | X-H torsion
[ 10763 10752 10751 10750 ] final -144.48 input  -60.55 | X-H torsion
[ 11005 11000 10999 10996 ] final -122.62 input  -57.11 | X-H torsion

> <Gold.Protein.ActiveResidues>
 VAL166  LYS551  ARG553  GLY616  TRP617  ASP618  TYR619  PRO620  LYS621  CYS622 
 ASP623  PHE694  ASN695  SER759  ASP760  ASP761  ALA762  ILE779  LEU786  VAL792 
 PHE793  MET794  SER795  GLU796  ALA797  LYS798  CYS799  TRP800  GLU811  SER814 

> <Gold.Protein.RotatedAtoms>
  151.8352  135.0608  160.0441 H   0  0  0  0  0  0  0  0  0  0  0  0  # atno 6907 bound_to 6896
  152.2850  133.5502  159.5530 H   0  0  0  0  0  0  0  0  0  0  0  0  # atno 6908 bound_to 6896
  150.7205  134.0426  159.3813 H   0  0  0  0  0  0  0  0  0  0  0  0  # atno 6909 bound_to 6896
  146.2242  139.8713  142.8587 H   0  0  0  0  0  0  0  0  0  0  0  0  # atno 7974 bound_to 7965
  155.5009  140.3474  155.4371 H   0  0  0  0  0  0  0  0  0  0  0  0  # atno 8008 bound_to 7997
  156.0914  140.1412  156.9614 H   0  0  0  0  0  0  0  0  0  0  0  0  # atno 8009 bound_to 7997
  154.4637  140.0925  156.6941 H   0  0  0  0  0  0  0  0  0  0  0  0  # atno 8010 bound_to 7997
  140.7010  143.6147  150.8670 H   0  0  0  0  0  0  0  0  0  0  0  0  # atno 10167 bound_to 10162
  156.1261  130.4162  150.0352 H   0  0  0  0  0  0  0  0  0  0  0  0  # atno 10718 bound_to 10713
  154.8426  135.3439  154.6352 H   0  0  0  0  0  0  0  0  0  0  0  0  # atno 10763 bound_to 10752
  153.6963  135.6972  153.5080 H   0  0  0  0  0  0  0  0  0  0  0  0  # atno 10764 bound_to 10752
  153.2557  135.4339  155.0798 H   0  0  0  0  0  0  0  0  0  0  0  0  # atno 10765 bound_to 10752
  140.9981  134.0442  157.3571 H   0  0  0  0  0  0  0  0  0  0  0  0  # atno 11005 bound_to 11000
  145.2606  141.0075  143.3829 LP  0  0  0  0  0  0  0  0  0  0  0  0  # atno 17320 bound_to 7965
  144.9302  139.4308  143.6499 LP  0  0  0  0  0  0  0  0  0  0  0  0  # atno 17321 bound_to 7965
  139.9869  143.5889  152.2924 LP  0  0  0  0  0  0  0  0  0  0  0  0  # atno 17342 bound_to 10162
  139.6531  144.7661  151.2109 LP  0  0  0  0  0  0  0  0  0  0  0  0  # atno 17343 bound_to 10162
  156.8277  130.9381  151.3638 LP  0  0  0  0  0  0  0  0  0  0  0  0  # atno 17370 bound_to 10713
  157.6443  130.8831  149.9507 LP  0  0  0  0  0  0  0  0  0  0  0  0  # atno 17371 bound_to 10713
  139.9025  135.0169  156.7335 LP  0  0  0  0  0  0  0  0  0  0  0  0  # atno 17394 bound_to 11000
  140.6933  133.9371  155.7979 LP  0  0  0  0  0  0  0  0  0  0  0  0  # atno 17395 bound_to 11000

$$$$
