AV-unprocessed.smi:40|AV-procd|sdf|367|dock1
  -GOLD-   2262016203D 1   1.00000     0.00000
 Structure written by MMmdl.
 47 48  0  0  0  0  0  0  0  0  1 V2000
  152.1216  144.8346  159.6086 C   0  0  0  0  0  0  0  0  0  0  0  0
  152.0589  143.3106  159.4610 C   0  0  0  0  0  0  0  0  0  0  0  0
  151.5531  142.8741  158.0786 C   0  0  0  0  0  0  0  0  0  0  0  0
  151.4894  141.3485  157.9282 C   0  0  0  0  0  0  0  0  0  0  0  0
  151.2776  140.9170  156.4694 C   0  0  0  0  0  0  0  0  0  0  0  0
  149.8920  140.7784  156.1892 O   0  0  0  0  0  0  0  0  0  0  0  0
  149.4595  139.9959  155.1775 C   0  0  0  0  0  0  0  0  0  0  0  0
  150.1949  139.5146  154.3159 O   0  0  0  0  0  0  0  0  0  0  0  0
  148.0256  139.7659  155.2516 N   0  0  0  0  0  0  0  0  0  0  0  0
  147.2283  139.0415  154.4280 C   0  0  0  0  0  0  0  0  0  0  0  0
  147.3763  139.0343  153.1129 N   0  0  0  0  0  0  0  0  0  0  0  0
  146.5999  138.3005  152.2578 C   0  0  0  0  0  0  0  0  0  0  0  0
  146.7603  138.3858  151.0418 O   0  0  0  0  0  0  0  0  0  0  0  0
  145.6112  137.4601  152.8251 N   0  0  0  0  0  0  0  0  0  0  0  0
  144.7162  136.6645  151.8872 C   0  0  2  0  0  0  0  0  0  0  0  0
  144.0367  135.6812  152.6178 O   0  0  0  0  0  0  0  0  0  0  0  0
  144.5397  134.3752  152.3401 C   0  0  2  0  0  0  0  0  0  0  0  0
  145.6350  133.9727  153.3409 C   0  0  0  0  0  0  0  0  0  0  0  0
  145.0519  134.4788  150.9053 C   0  0  1  0  0  0  0  0  0  0  0  0
  143.9843  134.1725  150.0241 O   0  0  0  0  0  0  0  0  0  0  0  0
  145.5299  135.9267  150.7970 C   0  0  1  0  0  0  0  0  0  0  0  0
  145.3279  136.4435  149.4941 O   0  0  0  0  0  0  0  0  0  0  0  0
  145.4260  137.4727  154.2027 C   0  0  0  0  0  0  0  0  0  0  0  0
  146.2005  138.2156  155.0229 C   0  0  0  0  0  0  0  0  0  0  0  0
  146.0122  138.1903  156.3539 F   0  0  0  0  0  0  0  0  0  0  0  0
  144.0016  137.3917  151.4978 H   0  0  0  0  0  0  0  0  0  0  0  0
  143.7262  133.6530  152.4233 H   0  0  0  0  0  0  0  0  0  0  0  0
  145.8584  133.7725  150.7037 H   0  0  0  0  0  0  0  0  0  0  0  0
  146.5914  135.9700  151.0457 H   0  0  0  0  0  0  0  0  0  0  0  0
  152.4929  145.1148  160.5946 H   0  0  0  0  0  0  0  0  0  0  0  0
  151.1356  145.2831  159.4838 H   0  0  0  0  0  0  0  0  0  0  0  0
  152.7872  145.2741  158.8652 H   0  0  0  0  0  0  0  0  0  0  0  0
  153.0509  142.8927  159.6364 H   0  0  0  0  0  0  0  0  0  0  0  0
  151.4099  142.9005  160.2358 H   0  0  0  0  0  0  0  0  0  0  0  0
  150.5631  143.2967  157.9027 H   0  0  0  0  0  0  0  0  0  0  0  0
  152.2065  143.2854  157.3080 H   0  0  0  0  0  0  0  0  0  0  0  0
  152.4138  140.9068  158.3024 H   0  0  0  0  0  0  0  0  0  0  0  0
  150.6841  140.9544  158.5492 H   0  0  0  0  0  0  0  0  0  0  0  0
  151.7525  141.6177  155.7811 H   0  0  0  0  0  0  0  0  0  0  0  0
  151.7509  139.9492  156.3032 H   0  0  0  0  0  0  0  0  0  0  0  0
  147.5750  140.2314  156.0260 H   0  0  0  0  0  0  0  0  0  0  0  0
  145.9999  132.9672  153.1306 H   0  0  0  0  0  0  0  0  0  0  0  0
  145.2504  133.9752  154.3609 H   0  0  0  0  0  0  0  0  0  0  0  0
  146.4907  134.6469  153.3017 H   0  0  0  0  0  0  0  0  0  0  0  0
  143.7689  133.2575  150.1249 H   0  0  0  0  0  0  0  0  0  0  0  0
  144.6225  137.0716  149.5296 H   0  0  0  0  0  0  0  0  0  0  0  0
  144.6508  136.8832  154.6668 H   0  0  0  0  0  0  0  0  0  0  0  0
  1  2  1  0  0  0  0
  1 30  1  0  0  0  0
  1 31  1  0  0  0  0
  1 32  1  0  0  0  0
  2  3  1  0  0  0  0
  2 33  1  0  0  0  0
  2 34  1  0  0  0  0
  3  4  1  0  0  0  0
  3 35  1  0  0  0  0
  3 36  1  0  0  0  0
  4  5  1  0  0  0  0
  4 37  1  0  0  0  0
  4 38  1  0  0  0  0
  5  6  1  0  0  0  0
  5 39  1  0  0  0  0
  5 40  1  0  0  0  0
  6  7  1  0  0  0  0
  7  8  2  0  0  0  0
  7  9  1  0  0  0  0
  9 10  1  0  0  0  0
  9 41  1  0  0  0  0
 10 24  1  0  0  0  0
 10 11  2  0  0  0  0
 11 12  1  0  0  0  0
 12 13  2  0  0  0  0
 12 14  1  0  0  0  0
 14 15  1  0  0  0  0
 14 23  1  0  0  0  0
 15 26  1  0  0  0  0
 15 21  1  0  0  0  0
 15 16  1  0  0  0  0
 16 17  1  0  0  0  0
 17 27  1  0  0  0  0
 17 18  1  0  0  0  0
 17 19  1  0  0  0  0
 18 42  1  0  0  0  0
 18 43  1  0  0  0  0
 18 44  1  0  0  0  0
 19 28  1  0  0  0  0
 19 20  1  0  0  0  0
 19 21  1  0  0  0  0
 20 45  1  0  0  0  0
 21 29  1  0  0  0  0
 21 22  1  0  0  0  0
 22 46  1  0  0  0  0
 23 24  2  0  0  0  0
 23 47  1  0  0  0  0
 24 25  1  0  0  0  0
M  END
> <s_m_source_file>
AV-unprocessed.smi

> <i_m_source_file_index>
40

> <i_lp_mmshare_version>
43012

> <i_f3d_flags>
0

> <s_epik_input>
W0NIM11bQ0gyXVtDSDJdW0NIMl1bQ0gyXU9DKD1PKVtOSF1jMW5jKD1PKW4oW2NIXWMxRilbQ0BASF0yT1tDQEhdKFtDSDNdKVtDQEBIXShbT0hdKVtDQEhdMltPSF0=

> <s_epik_cmdline>
J2VwaWtfcHl0aG9uJywgJy1waCcsICc3LjAnLCAnLXRuJywgJzgnLCAnLW1hJywgJzIwMCcsICctbWV0YWxfYmluZGluZycsICctaW1hZScsICc8aW5maWxlLm1hZT4nLCAnLW9tYWUnLCAnPG91dGZpbGUubWFlPic=

> <r_lp_tautomer_probability>
1

> <r_epik_Ionization_Penalty>
2.29506e-06

> <r_epik_Ionization_Penalty_Charging>
8.26867e-09

> <r_epik_Ionization_Penalty_Neutral>
2.2868e-06

> <r_epik_State_Penalty>
-0

> <r_epik_Charging_Adjusted_Penalty>
8.26867e-09

> <i_epik_Tot_Q>
0

> <i_epik_Tot_abs_Q>
0

> <r_epik_Metal_State_Penalty>
-0

> <b_epik_Metal_Only>
0

> <s_epik_Chemistry_Notes>
This compound has an ester and may undergo hydrolysis at high or low pH. This compound contains an acetal/aminal-like group ( X-CH(R)-Y where X, Y are N, S, or O) that may be acid/base labile, releasing an aldehyde.

> <s_lp_Force_Field>
OPLS_2005

> <r_lp_Energy>
38.6642

> <b_lp_Chiralities_Consistent>
1

> <s_lp_Variant>
AV-unprocessed.smi:40-1

> <Gold.Version>
5.8.1

> <Gold.Id.Protein>
6NUR|6NUR_protein|mol2

> <Gold.PLP.Fitness>
46.0257

> <Gold.PLP.PLP>
-39.2155

> <Gold.PLP.part.hbond>
-4.9030

> <Gold.PLP.part.metal>
0.0000

> <Gold.PLP.part.buried>
-7.2617

> <Gold.PLP.part.nonpolar>
-29.1698

> <Gold.PLP.part.repulsive>
2.8471

> <Gold.PLP.ligand.clash>
0.0000

> <Gold.PLP.ligand.torsion>
1.1932

> <Gold.PLP.Chemscore.Hbond>
3.0000

> <Gold.PLP.Chemscore.CHOScore>
0.0000

> <Gold.PLP.Chemscore.Metal>
0.0000

> <Gold.Chemscore.Hbonds>
donor molecule, donor type, donor heavy atom, donor atom, acceptor molecule, acceptor atom, score
      L1  H    22    46       P1 10171  1.00
      P1  H  7954  7966       L1    13  1.00
      P1  H  7989  7998       L1     8  0.75

> <Gold.PLP.Chemscore.Internal.Correction>
0.1965

> <Gold.Rescore>
     Score         DG    S(hbond)    S(metal)    S(lipo)     H(rot)  DE(clash)    DE(int)     intcor
     11.12     -14.00       2.94        0.00      69.76       3.70       0.41       2.47       ----

> <Gold.Chemscore.Fitness>
11.1183

> <Gold.Chemscore.DG>
-14.0027

> <Gold.Chemscore.ZeroCoef>
-5.4800

> <Gold.Chemscore.Hbond>
2.9406

> <Gold.Chemscore.Metal>
0.0000

> <Gold.Chemscore.Lipo>
69.7626

> <Gold.Chemscore.Internal_Hbond>
0.0000

> <Gold.Chemscore.DEClash>
0.4124

> <Gold.Chemscore.DEInternal>
2.4721

> <Gold.Chemscore.Rot>
3.6957

> <Gold.Chemscore.Internal.Correction>
   9.000000E+99

> <Gold.Chemscore.Hbonds>
donor molecule, donor type, donor heavy atom, donor atom, acceptor molecule, acceptor atom, score
      L1  H    22    46       P1 10171  0.99
      P1  H  7954  7966       L1    13  0.98
      P1  H  7989  7998       L1     8  0.67

> <Gold.Chemscore.Hbond.Weighted>
-9.8215

> <Gold.Chemscore.Metal.Weighted>
-0.0000

> <Gold.Chemscore.Lipo.Weighted>
-8.1622

> <Gold.Chemscore.Internal_Hbond.Weighted>
0.0000

> <Gold.Chemscore.DEClash.Weighted>
0.4124

> <Gold.Chemscore.DEInternal.Weighted>
2.4721

> <Gold.Chemscore.Rot.Weighted>
9.4610

> <Gold.Chemscore.Internal.Correction.Weighted>
   9.000000E+99

> <Gold.Protein.RotatedTorsions>
[ 6907 6896 6895 6894 ] final   43.81 input  -60.11 | X-H torsion
[ 7974 7965 7964 7962 ] final  154.74 input  175.53 | X-H torsion
[ 8008 7997 7996 7995 ] final  -81.82 input   59.86 | X-H torsion
[ 10167 10162 10161 10158 ] final   27.03 input  -65.29 | X-H torsion
[ 10718 10713 10712 10709 ] final  157.02 input   66.30 | X-H torsion
[ 10763 10752 10751 10750 ] final   25.03 input  -60.55 | X-H torsion
[ 11005 11000 10999 10996 ] final   89.88 input  -57.11 | X-H torsion

> <Gold.Protein.ActiveResidues>
 VAL166  LYS551  ARG553  GLY616  TRP617  ASP618  TYR619  PRO620  LYS621  CYS622 
 ASP623  PHE694  ASN695  SER759  ASP760  ASP761  ALA762  ILE779  LEU786  VAL792 
 PHE793  MET794  SER795  GLU796  ALA797  LYS798  CYS799  TRP800  GLU811  SER814 

> <Gold.Protein.RotatedAtoms>
  152.2248  134.8378  160.0481 H   0  0  0  0  0  0  0  0  0  0  0  0  # atno 6907 bound_to 6896
  151.9149  133.3565  159.3884 H   0  0  0  0  0  0  0  0  0  0  0  0  # atno 6908 bound_to 6896
  150.7009  134.4620  159.5429 H   0  0  0  0  0  0  0  0  0  0  0  0  # atno 6909 bound_to 6896
  144.8069  139.6974  143.6158 H   0  0  0  0  0  0  0  0  0  0  0  0  # atno 7974 bound_to 7965
  154.6023  140.0642  156.9385 H   0  0  0  0  0  0  0  0  0  0  0  0  # atno 8008 bound_to 7997
  155.2112  140.3323  155.4310 H   0  0  0  0  0  0  0  0  0  0  0  0  # atno 8009 bound_to 7997
  156.2326  140.1848  156.7187 H   0  0  0  0  0  0  0  0  0  0  0  0  # atno 8010 bound_to 7997
  140.4973  144.0371  150.6319 H   0  0  0  0  0  0  0  0  0  0  0  0  # atno 10167 bound_to 10162
  157.1972  131.0668  151.2046 H   0  0  0  0  0  0  0  0  0  0  0  0  # atno 10718 bound_to 10713
  153.0721  135.6592  154.0226 H   0  0  0  0  0  0  0  0  0  0  0  0  # atno 10763 bound_to 10752
  153.9869  135.2950  155.3417 H   0  0  0  0  0  0  0  0  0  0  0  0  # atno 10764 bound_to 10752
  154.7098  135.5210  153.8719 H   0  0  0  0  0  0  0  0  0  0  0  0  # atno 10765 bound_to 10752
  139.8866  134.8579  156.3206 H   0  0  0  0  0  0  0  0  0  0  0  0  # atno 11005 bound_to 11000
  146.2362  139.5910  142.9522 LP  0  0  0  0  0  0  0  0  0  0  0  0  # atno 17320 bound_to 7965
  145.5416  141.0420  143.2327 LP  0  0  0  0  0  0  0  0  0  0  0  0  # atno 17321 bound_to 7965
  140.3657  143.2882  152.0334 LP  0  0  0  0  0  0  0  0  0  0  0  0  # atno 17342 bound_to 10162
  139.4864  144.6268  151.7148 LP  0  0  0  0  0  0  0  0  0  0  0  0  # atno 17343 bound_to 10162
  157.3803  130.7228  149.6625 LP  0  0  0  0  0  0  0  0  0  0  0  0  # atno 17370 bound_to 10713
  155.9704  130.4174  150.4279 LP  0  0  0  0  0  0  0  0  0  0  0  0  # atno 17371 bound_to 10713
  140.9789  133.7279  156.0643 LP  0  0  0  0  0  0  0  0  0  0  0  0  # atno 17394 bound_to 11000
  140.7774  134.3764  157.5495 LP  0  0  0  0  0  0  0  0  0  0  0  0  # atno 17395 bound_to 11000

$$$$
