AV-unprocessed.smi:1412|AV-procd|sdf|5740|dock4
  -GOLD-   22720 5373D 1   1.00000     0.00000
 Structure written by MMmdl.
 41 42  0  0  0  0  0  0  0  0  1 V2000
  151.0778  141.7661  157.5759 C   0  0  0  0  0  0  0  0  0  0  0  0
  151.1130  143.3049  157.5028 C   0  0  0  0  0  0  0  0  0  0  0  0
  151.8870  144.0733  158.6277 C   0  0  1  0  0  0  0  0  0  0  0  0
  153.1416  144.7271  157.9944 C   0  0  0  0  0  0  0  0  0  0  0  0
  150.9781  145.2286  159.1477 C   0  0  0  0  0  0  0  0  0  0  0  0
  149.5617  144.8758  159.0866 N   0  0  0  0  0  0  0  0  0  0  0  0
  148.8035  144.5280  160.1343 C   0  0  0  0  0  0  0  0  0  0  0  0
  149.2332  144.4347  161.2840 O   0  0  0  0  0  0  0  0  0  0  0  0
  147.5340  144.3038  159.7584 N   0  0  0  0  0  0  0  0  0  0  0  0
  146.4307  143.9566  160.5776 C   0  0  0  0  0  0  0  0  0  0  0  0
  146.4887  142.8037  161.2544 N   0  0  0  0  0  0  0  0  0  0  0  0
  145.3436  142.5858  162.0110 N   0  0  0  0  0  0  0  0  0  0  0  0
  144.4653  143.5837  161.8739 C   0  0  0  0  0  0  0  0  0  0  0  0
  144.9494  144.8906  160.8077 S   0  0  0  0  0  0  0  0  0  0  0  0
  152.2398  143.1335  159.7371 N   0  0  0  0  0  0  0  0  0  0  0  0
  153.3743  142.2416  159.4607 C   0  0  0  0  0  0  0  0  0  0  0  0
  153.6034  141.2202  160.5879 C   0  0  0  0  0  0  0  0  0  0  0  0
  153.7957  141.9002  161.8212 O   0  0  0  0  0  0  0  0  0  0  0  0
  152.6873  142.7228  162.1602 C   0  0  0  0  0  0  0  0  0  0  0  0
  152.4533  143.7605  161.0494 C   0  0  0  0  0  0  0  0  0  0  0  0
  150.4339  141.3681  156.7917 H   0  0  0  0  0  0  0  0  0  0  0  0
  150.6843  141.4081  158.5263 H   0  0  0  0  0  0  0  0  0  0  0  0
  152.0621  141.3241  157.4239 H   0  0  0  0  0  0  0  0  0  0  0  0
  151.5190  143.5829  156.5291 H   0  0  0  0  0  0  0  0  0  0  0  0
  150.0720  143.6267  157.4903 H   0  0  0  0  0  0  0  0  0  0  0  0
  152.8731  145.4437  157.2188 H   0  0  0  0  0  0  0  0  0  0  0  0
  153.7979  143.9922  157.5291 H   0  0  0  0  0  0  0  0  0  0  0  0
  153.7305  145.2798  158.7256 H   0  0  0  0  0  0  0  0  0  0  0  0
  151.2236  145.5056  160.1720 H   0  0  0  0  0  0  0  0  0  0  0  0
  151.1683  146.1424  158.5841 H   0  0  0  0  0  0  0  0  0  0  0  0
  149.1267  144.9234  158.1766 H   0  0  0  0  0  0  0  0  0  0  0  0
  147.3284  144.4087  158.7759 H   0  0  0  0  0  0  0  0  0  0  0  0
  143.5255  143.5497  162.4048 H   0  0  0  0  0  0  0  0  0  0  0  0
  153.2167  141.6768  158.5445 H   0  0  0  0  0  0  0  0  0  0  0  0
  154.2860  142.8230  159.3236 H   0  0  0  0  0  0  0  0  0  0  0  0
  152.7559  140.5377  160.6680 H   0  0  0  0  0  0  0  0  0  0  0  0
  154.4836  140.6136  160.3752 H   0  0  0  0  0  0  0  0  0  0  0  0
  151.7982  142.1077  162.3077 H   0  0  0  0  0  0  0  0  0  0  0  0
  152.8918  143.2223  163.1071 H   0  0  0  0  0  0  0  0  0  0  0  0
  153.3109  144.4320  161.0136 H   0  0  0  0  0  0  0  0  0  0  0  0
  151.5938  144.3572  161.3457 H   0  0  0  0  0  0  0  0  0  0  0  0
  1  2  1  0  0  0  0
  1 21  1  0  0  0  0
  1 22  1  0  0  0  0
  1 23  1  0  0  0  0
  2  3  1  0  0  0  0
  2 24  1  0  0  0  0
  2 25  1  0  0  0  0
  3  4  1  0  0  0  0
  3  5  1  0  0  0  0
  3 15  1  0  0  0  0
  4 26  1  0  0  0  0
  4 27  1  0  0  0  0
  4 28  1  0  0  0  0
  5  6  1  0  0  0  0
  5 29  1  0  0  0  0
  5 30  1  0  0  0  0
  6  7  1  0  0  0  0
  6 31  1  0  0  0  0
  7  8  2  0  0  0  0
  7  9  1  0  0  0  0
  9 10  1  0  0  0  0
  9 32  1  0  0  0  0
 10 14  1  0  0  0  0
 10 11  2  0  0  0  0
 11 12  1  0  0  0  0
 12 13  2  0  0  0  0
 13 14  1  0  0  0  0
 13 33  1  0  0  0  0
 15 20  1  0  0  0  0
 15 16  1  0  0  0  0
 16 17  1  0  0  0  0
 16 34  1  0  0  0  0
 16 35  1  0  0  0  0
 17 18  1  0  0  0  0
 17 36  1  0  0  0  0
 17 37  1  0  0  0  0
 18 19  1  0  0  0  0
 19 20  1  0  0  0  0
 19 38  1  0  0  0  0
 19 39  1  0  0  0  0
 20 40  1  0  0  0  0
 20 41  1  0  0  0  0
M  END
> <s_m_source_file>
AV-unprocessed.smi

> <i_m_source_file_index>
1412

> <i_lp_mmshare_version>
43012

> <i_f3d_flags>
0

> <s_epik_input>
W0NIMl0xW0NIMl1PW0NIMl1bQ0gyXU4xW0NAQF0oW0NIM10pKFtDSDJdW0NIM10pW0NIMl1bTkhdQyg9TylbTkhdYzJubltjSF1zMg==

> <s_epik_cmdline>
J2VwaWtfcHl0aG9uJywgJy1waCcsICc3LjAnLCAnLXRuJywgJzgnLCAnLW1hJywgJzIwMCcsICctbWV0YWxfYmluZGluZycsICctaW1hZScsICc8aW5maWxlLm1hZT4nLCAnLW9tYWUnLCAnPG91dGZpbGUubWFlPic=

> <r_lp_tautomer_probability>
1

> <r_epik_Ionization_Penalty>
0.295854

> <r_epik_Ionization_Penalty_Charging>
0

> <r_epik_Ionization_Penalty_Neutral>
0.295854

> <r_epik_State_Penalty>
0.288723

> <r_epik_Charging_Adjusted_Penalty>
0.288723

> <i_epik_Tot_Q>
0

> <i_epik_Tot_abs_Q>
0

> <r_epik_Metal_State_Penalty>
0.510549

> <b_epik_Metal_Only>
0

> <s_lp_Force_Field>
OPLS_2005

> <r_lp_Energy>
43.1066

> <b_lp_Chiralities_Consistent>
1

> <s_lp_Variant>
AV-unprocessed.smi:1412-1

> <Gold.Version>
5.8.1

> <Gold.Id.Protein>
6NUR|6NUR_protein|mol2

> <Gold.PLP.Fitness>
47.3516

> <Gold.PLP.PLP>
-46.0320

> <Gold.PLP.part.hbond>
-6.2504

> <Gold.PLP.part.metal>
0.0000

> <Gold.PLP.part.buried>
-7.1582

> <Gold.PLP.part.nonpolar>
-33.7872

> <Gold.PLP.part.repulsive>
0.5928

> <Gold.PLP.ligand.clash>
1.1880

> <Gold.PLP.ligand.torsion>
2.8416

> <Gold.PLP.Chemscore.Hbond>
2.7049

> <Gold.PLP.Chemscore.CHOScore>
0.0000

> <Gold.PLP.Chemscore.Metal>
0.0000

> <Gold.Chemscore.Hbonds>
donor molecule, donor type, donor heavy atom, donor atom, acceptor molecule, acceptor atom, score
      L1  H     6    31       P1  8029  0.80
      L1  H     9    32       P1  8029  0.37
      P1  H  6933  6944       L1    11  0.75
      P1  H  6934  6946       L1    11  0.73

> <Gold.PLP.Chemscore.Internal.Correction>
0.0761

> <Gold.Rescore>
     Score         DG    S(hbond)    S(metal)    S(lipo)     H(rot)  DE(clash)    DE(int)     intcor
     18.30     -21.68       2.47        0.00     108.75       1.86       0.06       3.32       ----

> <Gold.Chemscore.Fitness>
18.3049

> <Gold.Chemscore.DG>
-21.6847

> <Gold.Chemscore.ZeroCoef>
-5.4800

> <Gold.Chemscore.Hbond>
2.4686

> <Gold.Chemscore.Metal>
0.0000

> <Gold.Chemscore.Lipo>
108.7474

> <Gold.Chemscore.Internal_Hbond>
0.0000

> <Gold.Chemscore.DEClash>
0.0642

> <Gold.Chemscore.DEInternal>
3.3156

> <Gold.Chemscore.Rot>
1.8609

> <Gold.Chemscore.Internal.Correction>
   9.000000E+99

> <Gold.Chemscore.Hbonds>
donor molecule, donor type, donor heavy atom, donor atom, acceptor molecule, acceptor atom, score
      L1  H     6    31       P1  8029  0.36
      L1  H     9    32       P1  8029  0.35
      P1  H  6933  6944       L1    11  0.42
      P1  H  6934  6946       L1    11  0.16

> <Gold.Chemscore.Hbond.Weighted>
-8.2451

> <Gold.Chemscore.Metal.Weighted>
-0.0000

> <Gold.Chemscore.Lipo.Weighted>
-12.7234

> <Gold.Chemscore.Internal_Hbond.Weighted>
0.0000

> <Gold.Chemscore.DEClash.Weighted>
0.0642

> <Gold.Chemscore.DEInternal.Weighted>
3.3156

> <Gold.Chemscore.Rot.Weighted>
4.7638

> <Gold.Chemscore.Internal.Correction.Weighted>
   9.000000E+99

> <Gold.Protein.RotatedTorsions>
[ 6907 6896 6895 6894 ] final -165.10 input  -60.11 | X-H torsion
[ 7974 7965 7964 7962 ] final -135.71 input  175.53 | X-H torsion
[ 8008 7997 7996 7995 ] final   91.95 input   59.86 | X-H torsion
[ 10167 10162 10161 10158 ] final   47.60 input  -65.29 | X-H torsion
[ 10718 10713 10712 10709 ] final  -72.68 input   66.30 | X-H torsion
[ 10763 10752 10751 10750 ] final  103.64 input  -60.55 | X-H torsion
[ 11005 11000 10999 10996 ] final    0.38 input  -57.11 | X-H torsion

> <Gold.Protein.ActiveResidues>
 VAL166  LYS551  ARG553  GLY616  TRP617  ASP618  TYR619  PRO620  LYS621  CYS622 
 ASP623  PHE694  ASN695  SER759  ASP760  ASP761  ALA762  ILE779  LEU786  VAL792 
 PHE793  MET794  SER795  GLU796  ALA797  LYS798  CYS799  TRP800  GLU811  SER814 

> <Gold.Protein.RotatedAtoms>
  151.4223  133.3694  159.2757 H   0  0  0  0  0  0  0  0  0  0  0  0  # atno 6907 bound_to 6896
  150.9285  134.8702  159.7546 H   0  0  0  0  0  0  0  0  0  0  0  0  # atno 6908 bound_to 6896
  152.5016  134.4166  159.9518 H   0  0  0  0  0  0  0  0  0  0  0  0  # atno 6909 bound_to 6896
  144.8990  140.6746  143.5097 H   0  0  0  0  0  0  0  0  0  0  0  0  # atno 7974 bound_to 7965
  156.0297  140.3331  155.7126 H   0  0  0  0  0  0  0  0  0  0  0  0  # atno 8008 bound_to 7997
  155.5903  140.0645  157.2778 H   0  0  0  0  0  0  0  0  0  0  0  0  # atno 8009 bound_to 7997
  154.4348  140.1828  156.1056 H   0  0  0  0  0  0  0  0  0  0  0  0  # atno 8010 bound_to 7997
  140.3020  144.2923  150.6217 H   0  0  0  0  0  0  0  0  0  0  0  0  # atno 10167 bound_to 10162
  156.0310  130.4377  150.2630 H   0  0  0  0  0  0  0  0  0  0  0  0  # atno 10718 bound_to 10713
  153.3554  135.3970  155.1678 H   0  0  0  0  0  0  0  0  0  0  0  0  # atno 10763 bound_to 10752
  154.8670  135.3666  154.5168 H   0  0  0  0  0  0  0  0  0  0  0  0  # atno 10764 bound_to 10752
  153.5623  135.7081  153.5602 H   0  0  0  0  0  0  0  0  0  0  0  0  # atno 10765 bound_to 10752
  140.6272  133.9608  155.8255 H   0  0  0  0  0  0  0  0  0  0  0  0  # atno 11005 bound_to 11000
  145.3649  139.1672  143.4363 LP  0  0  0  0  0  0  0  0  0  0  0  0  # atno 17320 bound_to 7965
  146.3098  140.3715  142.8674 LP  0  0  0  0  0  0  0  0  0  0  0  0  # atno 17321 bound_to 7965
  140.5643  143.2188  151.7711 LP  0  0  0  0  0  0  0  0  0  0  0  0  # atno 17342 bound_to 10162
  139.4913  144.4306  151.9877 LP  0  0  0  0  0  0  0  0  0  0  0  0  # atno 17343 bound_to 10162
  157.0732  131.0122  151.3183 LP  0  0  0  0  0  0  0  0  0  0  0  0  # atno 17370 bound_to 10713
  157.4984  130.7864  149.7579 LP  0  0  0  0  0  0  0  0  0  0  0  0  # atno 17371 bound_to 10713
  141.0701  134.0219  157.3539 LP  0  0  0  0  0  0  0  0  0  0  0  0  # atno 17394 bound_to 11000
  139.9130  135.0193  156.7769 LP  0  0  0  0  0  0  0  0  0  0  0  0  # atno 17395 bound_to 11000

$$$$
