AV-unprocessed.smi:667|AV-procd|sdf|3257|dock10
  -GOLD-   22720 0213D 1   1.00000     0.00000
 Structure written by MMmdl.
 48 49  0  0  0  0  0  0  0  0  1 V2000
  150.3996  145.5285  159.9458 C   0  0  0  0  0  0  0  0  0  0  0  0
  151.4036  144.5055  160.3950 C   0  0  0  0  0  0  0  0  0  0  0  0
  151.6365  144.3490  161.6875 N   0  0  0  0  0  0  0  0  0  0  0  0
  152.5595  143.3685  161.7552 N   0  0  0  0  0  0  0  0  0  0  0  0
  153.0445  142.9387  163.0524 C   0  0  0  0  0  0  0  0  0  0  0  0
  152.9151  142.9091  160.5019 C   0  0  0  0  0  0  0  0  0  0  0  0
  153.9212  141.8208  160.3061 C   0  0  0  0  0  0  0  0  0  0  0  0
  152.1810  143.6210  159.5909 C   0  0  0  0  0  0  0  0  0  0  0  0
  152.1770  143.5046  158.0880 C   0  0  0  0  0  0  0  0  0  0  0  0
  151.2862  142.3358  157.6685 C   0  0  0  0  0  0  0  0  0  0  0  0
  151.5062  141.2063  158.1058 O   0  0  0  0  0  0  0  0  0  0  0  0
  150.2810  142.6212  156.8263 N   0  0  0  0  0  0  0  0  0  0  0  0
  149.3080  141.6563  156.3260 C   0  0  0  0  0  0  0  0  0  0  0  0
  149.5087  141.3401  154.8225 C   0  0  2  0  0  0  0  0  0  0  0  0
  148.2497  141.5867  154.0022 C   0  0  0  0  0  0  0  0  0  0  0  0
  147.4939  140.2588  154.0979 C   0  0  0  0  0  0  0  0  0  0  0  0
  148.4331  139.3030  154.5822 O   0  0  0  0  0  0  0  0  0  0  0  0
  149.7421  139.8526  154.5081 C   0  0  2  0  0  0  0  0  0  0  0  0
  150.7354  139.0808  155.4063 C   0  0  0  0  0  0  0  0  0  0  0  0
  152.0181  139.8899  155.6655 C   0  0  0  0  0  0  0  0  0  0  0  0
  151.0914  137.7184  154.7896 C   0  0  0  0  0  0  0  0  0  0  0  0
  149.5145  145.0470  159.5296 H   0  0  0  0  0  0  0  0  0  0  0  0
  150.8194  146.1761  159.1758 H   0  0  0  0  0  0  0  0  0  0  0  0
  150.0741  146.1656  160.7692 H   0  0  0  0  0  0  0  0  0  0  0  0
  154.0461  143.3360  163.2176 H   0  0  0  0  0  0  0  0  0  0  0  0
  153.0811  141.8497  163.0915 H   0  0  0  0  0  0  0  0  0  0  0  0
  152.3855  143.2945  163.8459 H   0  0  0  0  0  0  0  0  0  0  0  0
  154.2256  141.7470  159.2625 H   0  0  0  0  0  0  0  0  0  0  0  0
  153.5075  140.8570  160.6022 H   0  0  0  0  0  0  0  0  0  0  0  0
  154.8166  142.0038  160.9002 H   0  0  0  0  0  0  0  0  0  0  0  0
  151.8177  144.4195  157.6155 H   0  0  0  0  0  0  0  0  0  0  0  0
  153.1821  143.3429  157.6978 H   0  0  0  0  0  0  0  0  0  0  0  0
  150.1744  143.5778  156.5212 H   0  0  0  0  0  0  0  0  0  0  0  0
  149.3784  140.7514  156.9302 H   0  0  0  0  0  0  0  0  0  0  0  0
  148.3102  142.0603  156.4996 H   0  0  0  0  0  0  0  0  0  0  0  0
  150.3360  141.9379  154.4381 H   0  0  0  0  0  0  0  0  0  0  0  0
  147.6554  142.4362  154.3394 H   0  0  0  0  0  0  0  0  0  0  0  0
  148.5244  141.7742  152.9632 H   0  0  0  0  0  0  0  0  0  0  0  0
  146.6606  140.3238  154.7980 H   0  0  0  0  0  0  0  0  0  0  0  0
  147.0997  139.9554  153.1276 H   0  0  0  0  0  0  0  0  0  0  0  0
  150.0718  139.7666  153.4703 H   0  0  0  0  0  0  0  0  0  0  0  0
  150.2601  138.8806  156.3665 H   0  0  0  0  0  0  0  0  0  0  0  0
  152.5378  140.1150  154.7336 H   0  0  0  0  0  0  0  0  0  0  0  0
  152.7073  139.3373  156.3043 H   0  0  0  0  0  0  0  0  0  0  0  0
  151.8069  140.8367  156.1623 H   0  0  0  0  0  0  0  0  0  0  0  0
  151.5656  137.8360  153.8146 H   0  0  0  0  0  0  0  0  0  0  0  0
  150.2039  137.0994  154.6551 H   0  0  0  0  0  0  0  0  0  0  0  0
  151.7792  137.1645  155.4293 H   0  0  0  0  0  0  0  0  0  0  0  0
  1  2  1  0  0  0  0
  1 22  1  0  0  0  0
  1 23  1  0  0  0  0
  1 24  1  0  0  0  0
  2  8  1  0  0  0  0
  2  3  2  0  0  0  0
  3  4  1  0  0  0  0
  4  5  1  0  0  0  0
  4  6  1  0  0  0  0
  5 25  1  0  0  0  0
  5 26  1  0  0  0  0
  5 27  1  0  0  0  0
  6  7  1  0  0  0  0
  6  8  2  0  0  0  0
  7 28  1  0  0  0  0
  7 29  1  0  0  0  0
  7 30  1  0  0  0  0
  8  9  1  0  0  0  0
  9 10  1  0  0  0  0
  9 31  1  0  0  0  0
  9 32  1  0  0  0  0
 10 11  2  0  0  0  0
 10 12  1  0  0  0  0
 12 13  1  0  0  0  0
 12 33  1  0  0  0  0
 13 14  1  0  0  0  0
 13 34  1  0  0  0  0
 13 35  1  0  0  0  0
 14 18  1  0  0  0  0
 14 15  1  0  0  0  0
 14 36  1  0  0  0  0
 15 16  1  0  0  0  0
 15 37  1  0  0  0  0
 15 38  1  0  0  0  0
 16 17  1  0  0  0  0
 16 39  1  0  0  0  0
 16 40  1  0  0  0  0
 17 18  1  0  0  0  0
 18 19  1  0  0  0  0
 18 41  1  0  0  0  0
 19 20  1  0  0  0  0
 19 21  1  0  0  0  0
 19 42  1  0  0  0  0
 20 43  1  0  0  0  0
 20 44  1  0  0  0  0
 20 45  1  0  0  0  0
 21 46  1  0  0  0  0
 21 47  1  0  0  0  0
 21 48  1  0  0  0  0
M  END
> <s_m_source_file>
AV-unprocessed.smi

> <i_m_source_file_index>
667

> <i_lp_mmshare_version>
43012

> <i_f3d_flags>
0

> <s_epik_input>
W0NIM11jMW5uKFtDSDNdKWMoW0NIM10pYzFbQ0gyXUMoPU8pW05IXVtDSDJdW0NAQEhdMltDSDJdW0NIMl1PW0NASF0yW0NIXShbQ0gzXSlbQ0gzXQ==

> <s_epik_cmdline>
J2VwaWtfcHl0aG9uJywgJy1waCcsICc3LjAnLCAnLXRuJywgJzgnLCAnLW1hJywgJzIwMCcsICctbWV0YWxfYmluZGluZycsICctaW1hZScsICc8aW5maWxlLm1hZT4nLCAnLW9tYWUnLCAnPG91dGZpbGUubWFlPic=

> <r_lp_tautomer_probability>
1

> <r_epik_Ionization_Penalty>
0.00315488

> <r_epik_Ionization_Penalty_Charging>
0

> <r_epik_Ionization_Penalty_Neutral>
0.00315488

> <r_epik_State_Penalty>
0.00222269

> <r_epik_Charging_Adjusted_Penalty>
0.00222269

> <i_epik_Tot_Q>
0

> <i_epik_Tot_abs_Q>
0

> <r_epik_Metal_State_Penalty>
-0

> <b_epik_Metal_Only>
0

> <s_lp_Force_Field>
OPLS_2005

> <r_lp_Energy>
17.3848

> <b_lp_Chiralities_Consistent>
1

> <s_lp_Variant>
AV-unprocessed.smi:667-3

> <Gold.Version>
5.8.1

> <Gold.Id.Protein>
6NUR|6NUR_protein|mol2

> <Gold.PLP.Fitness>
52.4890

> <Gold.PLP.PLP>
-52.5487

> <Gold.PLP.part.hbond>
-1.0000

> <Gold.PLP.part.metal>
0.0000

> <Gold.PLP.part.buried>
-4.3721

> <Gold.PLP.part.nonpolar>
-46.5505

> <Gold.PLP.part.repulsive>
0.3443

> <Gold.PLP.ligand.clash>
0.0000

> <Gold.PLP.ligand.torsion>
1.3278

> <Gold.PLP.Chemscore.Hbond>
0.8480

> <Gold.PLP.Chemscore.CHOScore>
0.0000

> <Gold.PLP.Chemscore.Metal>
0.0000

> <Gold.Chemscore.Hbonds>
donor molecule, donor type, donor heavy atom, donor atom, acceptor molecule, acceptor atom, score
      L1  H    12    33       P1  8028  0.82

> <Gold.PLP.Chemscore.Internal.Correction>
0.0518

> <Gold.Rescore>
     Score         DG    S(hbond)    S(metal)    S(lipo)     H(rot)  DE(clash)    DE(int)     intcor
     17.55     -18.98       0.90        0.00     122.86       1.52       0.28       1.14       ----

> <Gold.Chemscore.Fitness>
17.5550

> <Gold.Chemscore.DG>
-18.9784

> <Gold.Chemscore.ZeroCoef>
-5.4800

> <Gold.Chemscore.Hbond>
0.9036

> <Gold.Chemscore.Metal>
0.0000

> <Gold.Chemscore.Lipo>
122.8630

> <Gold.Chemscore.Internal_Hbond>
0.0000

> <Gold.Chemscore.DEClash>
0.2786

> <Gold.Chemscore.DEInternal>
1.1449

> <Gold.Chemscore.Rot>
1.5213

> <Gold.Chemscore.Internal.Correction>
   9.000000E+99

> <Gold.Chemscore.Hbonds>
donor molecule, donor type, donor heavy atom, donor atom, acceptor molecule, acceptor atom, score
      L1  H    12    33       P1  8028  0.81

> <Gold.Chemscore.Hbond.Weighted>
-3.0180

> <Gold.Chemscore.Metal.Weighted>
-0.0000

> <Gold.Chemscore.Lipo.Weighted>
-14.3750

> <Gold.Chemscore.Internal_Hbond.Weighted>
0.0000

> <Gold.Chemscore.DEClash.Weighted>
0.2786

> <Gold.Chemscore.DEInternal.Weighted>
1.1449

> <Gold.Chemscore.Rot.Weighted>
3.8945

> <Gold.Chemscore.Internal.Correction.Weighted>
   9.000000E+99

> <Gold.Protein.RotatedTorsions>
[ 6907 6896 6895 6894 ] final   75.01 input  -60.11 | X-H torsion
[ 7974 7965 7964 7962 ] final   68.92 input  175.53 | X-H torsion
[ 8008 7997 7996 7995 ] final   12.97 input   59.86 | X-H torsion
[ 10167 10162 10161 10158 ] final  -62.66 input  -65.29 | X-H torsion
[ 10718 10713 10712 10709 ] final   -7.26 input   66.30 | X-H torsion
[ 10763 10752 10751 10750 ] final   68.44 input  -60.55 | X-H torsion
[ 11005 11000 10999 10996 ] final  -88.26 input  -57.11 | X-H torsion

> <Gold.Protein.ActiveResidues>
 VAL166  LYS551  ARG553  GLY616  TRP617  ASP618  TYR619  PRO620  LYS621  CYS622 
 ASP623  PHE694  ASN695  SER759  ASP760  ASP761  ALA762  ILE779  LEU786  VAL792 
 PHE793  MET794  SER795  GLU796  ALA797  LYS798  CYS799  TRP800  GLU811  SER814 

> <Gold.Protein.RotatedAtoms>
  152.5005  134.4185  159.9472 H   0  0  0  0  0  0  0  0  0  0  0  0  # atno 6907 bound_to 6896
  151.4156  133.3707  159.2757 H   0  0  0  0  0  0  0  0  0  0  0  0  # atno 6908 bound_to 6896
  150.9259  134.8698  159.7579 H   0  0  0  0  0  0  0  0  0  0  0  0  # atno 6909 bound_to 6896
  145.7968  139.2961  143.1178 H   0  0  0  0  0  0  0  0  0  0  0  0  # atno 7974 bound_to 7965
  154.8280  140.2894  155.5742 H   0  0  0  0  0  0  0  0  0  0  0  0  # atno 8008 bound_to 7997
  156.3003  140.2537  156.3130 H   0  0  0  0  0  0  0  0  0  0  0  0  # atno 8009 bound_to 7997
  154.9264  140.0384  157.2014 H   0  0  0  0  0  0  0  0  0  0  0  0  # atno 8010 bound_to 7997
  140.5924  143.2344  151.6111 H   0  0  0  0  0  0  0  0  0  0  0  0  # atno 10167 bound_to 10162
  156.7199  130.5147  149.5871 H   0  0  0  0  0  0  0  0  0  0  0  0  # atno 10718 bound_to 10713
  153.0235  135.5247  154.7134 H   0  0  0  0  0  0  0  0  0  0  0  0  # atno 10763 bound_to 10752
  154.6210  135.2889  155.0328 H   0  0  0  0  0  0  0  0  0  0  0  0  # atno 10764 bound_to 10752
  154.1315  135.6592  153.4975 H   0  0  0  0  0  0  0  0  0  0  0  0  # atno 10765 bound_to 10752
  141.1604  133.7560  156.9426 H   0  0  0  0  0  0  0  0  0  0  0  0  # atno 11005 bound_to 11000
  145.9920  140.8595  143.0062 LP  0  0  0  0  0  0  0  0  0  0  0  0  # atno 17320 bound_to 7965
  144.6774  140.2229  143.7364 LP  0  0  0  0  0  0  0  0  0  0  0  0  # atno 17321 bound_to 7965
  139.5236  144.3129  152.0977 LP  0  0  0  0  0  0  0  0  0  0  0  0  # atno 17342 bound_to 10162
  140.2295  144.4383  150.6306 LP  0  0  0  0  0  0  0  0  0  0  0  0  # atno 17343 bound_to 10162
  156.1602  130.6369  151.0709 LP  0  0  0  0  0  0  0  0  0  0  0  0  # atno 17370 bound_to 10713
  157.6902  131.0812  150.7128 LP  0  0  0  0  0  0  0  0  0  0  0  0  # atno 17371 bound_to 10713
  140.1311  134.9355  157.2338 LP  0  0  0  0  0  0  0  0  0  0  0  0  # atno 17394 bound_to 11000
  140.2952  134.3195  155.7304 LP  0  0  0  0  0  0  0  0  0  0  0  0  # atno 17395 bound_to 11000

$$$$
