AV-unprocessed.smi:686|AV-procd|sdf|3341|dock8
  -GOLD-   22720 0313D 1   1.00000     0.00000
 Structure written by MMmdl.
 41 42  0  0  0  0  0  0  0  0  2 V2000
  150.3232  132.8272  154.9985 C   0  0  0  0  0  0  0  0  0  0  0  0
  148.9118  133.3484  154.6833 C   0  0  2  0  0  0  0  0  0  0  0  0
  148.4607  133.1594  153.2327 C   0  0  0  0  0  0  0  0  0  0  0  0
  147.3992  134.1691  152.9919 N   0  3  1  0  0  0  0  0  0  0  0  0
  146.0650  133.6542  152.5737 C   0  0  0  0  0  0  0  0  0  0  0  0
  146.1303  132.5845  151.4626 C   0  0  0  0  0  0  0  0  0  0  0  0
  145.1316  134.8126  152.1874 C   0  0  0  0  0  0  0  0  0  0  0  0
  147.3810  135.1135  154.1378 C   0  0  0  0  0  0  0  0  0  0  0  0
  148.6502  134.8356  154.9509 C   0  0  2  0  0  0  0  0  0  0  0  0
  149.7510  135.6848  154.4784 N   0  0  0  0  0  0  0  0  0  0  0  0
  150.5932  136.7390  155.5550 S   0  0  0  0  0  0  0  0  0  0  0  0
  149.6146  137.2300  156.5370 O   0  0  0  0  0  0  0  0  0  0  0  0
  151.7977  136.0208  155.9992 O   0  0  0  0  0  0  0  0  0  0  0  0
  151.0803  138.1440  154.4528 C   0  0  0  0  0  0  0  0  0  0  0  0
  150.5914  139.4494  155.0123 C   0  0  0  0  0  0  0  0  0  0  0  0
  149.5790  140.3069  154.4991 C   0  0  0  0  0  0  0  0  0  0  0  0
  149.5474  141.3340  155.3978 C   0  0  0  0  0  0  0  0  0  0  0  0
  150.4576  141.1316  156.3835 O   0  0  0  0  0  0  0  0  0  0  0  0
  151.1178  139.9241  156.1299 N   0  0  0  0  0  0  0  0  0  0  0  0
  151.0840  133.3172  154.3904 H   0  0  0  0  0  0  0  0  0  0  0  0
  150.3917  131.7560  154.8087 H   0  0  0  0  0  0  0  0  0  0  0  0
  150.5748  132.9920  156.0462 H   0  0  0  0  0  0  0  0  0  0  0  0
  148.2143  132.7892  155.3093 H   0  0  0  0  0  0  0  0  0  0  0  0
  149.2843  133.3861  152.5544 H   0  0  0  0  0  0  0  0  0  0  0  0
  148.1583  132.1328  153.0280 H   0  0  0  0  0  0  0  0  0  0  0  0
  145.6269  133.1841  153.4557 H   0  0  0  0  0  0  0  0  0  0  0  0
  145.1375  132.1774  151.2681 H   0  0  0  0  0  0  0  0  0  0  0  0
  146.7692  131.7447  151.7333 H   0  0  0  0  0  0  0  0  0  0  0  0
  146.4967  132.9880  150.5191 H   0  0  0  0  0  0  0  0  0  0  0  0
  144.1274  134.4480  151.9690 H   0  0  0  0  0  0  0  0  0  0  0  0
  145.4868  135.3416  151.3026 H   0  0  0  0  0  0  0  0  0  0  0  0
  145.0468  135.5373  152.9978 H   0  0  0  0  0  0  0  0  0  0  0  0
  147.3126  136.1465  153.7942 H   0  0  0  0  0  0  0  0  0  0  0  0
  146.5118  134.9332  154.7700 H   0  0  0  0  0  0  0  0  0  0  0  0
  148.4847  135.0229  156.0127 H   0  0  0  0  0  0  0  0  0  0  0  0
  149.6785  136.0246  153.5196 H   0  0  0  0  0  0  0  0  0  0  0  0
  152.1642  138.1531  154.3464 H   0  0  0  0  0  0  0  0  0  0  0  0
  150.6618  137.9590  153.4627 H   0  0  0  0  0  0  0  0  0  0  0  0
  148.9739  140.1895  153.6126 H   0  0  0  0  0  0  0  0  0  0  0  0
  148.9608  142.2378  155.4720 H   0  0  0  0  0  0  0  0  0  0  0  0
  147.7318  134.7125  152.2082 H   0  0  0  0  0  0  0  0  0  0  0  0
  1  2  1  0  0  0  0
  1 20  1  0  0  0  0
  1 21  1  0  0  0  0
  1 22  1  0  0  0  0
  2  9  1  0  0  0  0
  2  3  1  0  0  0  0
  2 23  1  0  0  0  0
  3  4  1  0  0  0  0
  3 24  1  0  0  0  0
  3 25  1  0  0  0  0
  4  5  1  0  0  0  0
  4  8  1  0  0  0  0
  4 41  1  0  0  0  0
  5  6  1  0  0  0  0
  5  7  1  0  0  0  0
  5 26  1  0  0  0  0
  6 27  1  0  0  0  0
  6 28  1  0  0  0  0
  6 29  1  0  0  0  0
  7 30  1  0  0  0  0
  7 31  1  0  0  0  0
  7 32  1  0  0  0  0
  8  9  1  0  0  0  0
  8 33  1  0  0  0  0
  8 34  1  0  0  0  0
  9 10  1  0  0  0  0
  9 35  1  0  0  0  0
 10 11  1  0  0  0  0
 10 36  1  0  0  0  0
 11 12  2  0  0  0  0
 11 13  2  0  0  0  0
 11 14  1  0  0  0  0
 14 15  1  0  0  0  0
 14 37  1  0  0  0  0
 14 38  1  0  0  0  0
 15 19  2  0  0  0  0
 15 16  1  0  0  0  0
 16 17  2  0  0  0  0
 16 39  1  0  0  0  0
 17 18  1  0  0  0  0
 17 40  1  0  0  0  0
 18 19  1  0  0  0  0
M  CHG  1   4   1
M  END
> <s_m_source_file>
AV-unprocessed.smi

> <i_m_source_file_index>
686

> <i_lp_mmshare_version>
43012

> <i_f3d_flags>
0

> <s_epik_input>
W0NIM11bQ0BASF0xW0NIMl1OKFtDSF0oW0NIM10pW0NIM10pW0NIMl1bQ0BIXTFbTkhdUyg9TykoPU8pW0NIMl1jMltjSF1bY0hdb24y

> <s_epik_cmdline>
J2VwaWtfcHl0aG9uJywgJy1waCcsICc3LjAnLCAnLXRuJywgJzgnLCAnLW1hJywgJzIwMCcsICctbWV0YWxfYmluZGluZycsICctaW1hZScsICc8aW5maWxlLm1hZT4nLCAnLW9tYWUnLCAnPG91dGZpbGUubWFlPic=

> <r_epik_Ionization_Penalty>
0.00200818

> <r_epik_Ionization_Penalty_Charging>
0.000701289

> <r_epik_Ionization_Penalty_Neutral>
0.00130689

> <r_epik_State_Penalty>
0.00131314

> <r_epik_Charging_Adjusted_Penalty>
0.00201443

> <i_epik_Tot_Q>
1

> <i_epik_Tot_abs_Q>
1

> <r_epik_Metal_State_Penalty>
0.310831

> <b_epik_Metal_Only>
0

> <s_lp_Force_Field>
OPLS_2005

> <r_lp_Energy>
24.0056

> <b_lp_Chiralities_Consistent>
1

> <s_lp_Variant>
AV-unprocessed.smi:686-5

> <Gold.Version>
5.8.1

> <Gold.Id.Protein>
6NUR|6NUR_protein|mol2

> <Gold.PLP.Fitness>
42.6656

> <Gold.PLP.PLP>
-29.3099

> <Gold.PLP.part.hbond>
-3.0121

> <Gold.PLP.part.metal>
0.0000

> <Gold.PLP.part.buried>
-1.9340

> <Gold.PLP.part.nonpolar>
-24.3176

> <Gold.PLP.part.repulsive>
0.1300

> <Gold.PLP.ligand.clash>
0.0000

> <Gold.PLP.ligand.torsion>
0.8151

> <Gold.PLP.Chemscore.Hbond>
3.6000

> <Gold.PLP.Chemscore.CHOScore>
1.0000

> <Gold.PLP.Chemscore.Metal>
0.0000

> <Gold.Chemscore.Hbonds>
donor molecule, donor type, donor heavy atom, donor atom, acceptor molecule, acceptor atom, score
      L1  H     4    41       P1  7948  1.60
      L1  H    10    36       P1  7948  0.95
      P1  H 10752 10764       L1    13  1.00
      L1  C    17    40       P1  8028  1.00

> <Gold.PLP.Chemscore.Internal.Correction>
1.1859

> <Gold.Rescore>
     Score         DG    S(hbond)    S(metal)    S(lipo)     H(rot)  DE(clash)    DE(int)     intcor
     15.92     -16.83       2.50        0.00      61.90       1.66       0.04       0.87       ----

> <Gold.Chemscore.Fitness>
15.9153

> <Gold.Chemscore.DG>
-16.8280

> <Gold.Chemscore.ZeroCoef>
-5.4800

> <Gold.Chemscore.Hbond>
2.4991

> <Gold.Chemscore.Metal>
0.0000

> <Gold.Chemscore.Lipo>
61.9010

> <Gold.Chemscore.Internal_Hbond>
0.0000

> <Gold.Chemscore.DEClash>
0.0407

> <Gold.Chemscore.DEInternal>
0.8721

> <Gold.Chemscore.Rot>
1.6567

> <Gold.Chemscore.Internal.Correction>
   9.000000E+99

> <Gold.Chemscore.Hbonds>
donor molecule, donor type, donor heavy atom, donor atom, acceptor molecule, acceptor atom, score
      L1  H     4    41       P1  7948  0.55
      L1  H    10    36       P1  7948  0.21
      P1  H 10752 10764       L1    13  0.96

> <Gold.Chemscore.Hbond.Weighted>
-8.3469

> <Gold.Chemscore.Metal.Weighted>
-0.0000

> <Gold.Chemscore.Lipo.Weighted>
-7.2424

> <Gold.Chemscore.Internal_Hbond.Weighted>
0.0000

> <Gold.Chemscore.DEClash.Weighted>
0.0407

> <Gold.Chemscore.DEInternal.Weighted>
0.8721

> <Gold.Chemscore.Rot.Weighted>
4.2413

> <Gold.Chemscore.Internal.Correction.Weighted>
   9.000000E+99

> <Gold.Protein.RotatedTorsions>
[ 6907 6896 6895 6894 ] final  -21.91 input  -60.11 | X-H torsion
[ 7974 7965 7964 7962 ] final -111.77 input  175.53 | X-H torsion
[ 8008 7997 7996 7995 ] final  -30.05 input   59.86 | X-H torsion
[ 10167 10162 10161 10158 ] final   58.54 input  -65.29 | X-H torsion
[ 10718 10713 10712 10709 ] final  174.28 input   66.30 | X-H torsion
[ 10763 10752 10751 10750 ] final  -49.10 input  -60.55 | X-H torsion
[ 11005 11000 10999 10996 ] final  117.29 input  -57.11 | X-H torsion

> <Gold.Protein.ActiveResidues>
 VAL166  LYS551  ARG553  GLY616  TRP617  ASP618  TYR619  PRO620  LYS621  CYS622 
 ASP623  PHE694  ASN695  SER759  ASP760  ASP761  ALA762  ILE779  LEU786  VAL792 
 PHE793  MET794  SER795  GLU796  ALA797  LYS798  CYS799  TRP800  GLU811  SER814 

> <Gold.Protein.RotatedAtoms>
  151.2263  135.0538  159.8969 H   0  0  0  0  0  0  0  0  0  0  0  0  # atno 6907 bound_to 6896
  152.5410  134.0585  159.8152 H   0  0  0  0  0  0  0  0  0  0  0  0  # atno 6908 bound_to 6896
  151.0758  133.5381  159.2655 H   0  0  0  0  0  0  0  0  0  0  0  0  # atno 6909 bound_to 6896
  145.1520  140.8834  143.3641 H   0  0  0  0  0  0  0  0  0  0  0  0  # atno 7974 bound_to 7965
  154.4265  140.1802  156.1345 H   0  0  0  0  0  0  0  0  0  0  0  0  # atno 8008 bound_to 7997
  156.0041  140.3357  155.6850 H   0  0  0  0  0  0  0  0  0  0  0  0  # atno 8009 bound_to 7997
  155.6202  140.0659  157.2671 H   0  0  0  0  0  0  0  0  0  0  0  0  # atno 8010 bound_to 7997
  140.1861  144.4133  150.6592 H   0  0  0  0  0  0  0  0  0  0  0  0  # atno 10167 bound_to 10162
  156.9520  131.0034  151.2946 H   0  0  0  0  0  0  0  0  0  0  0  0  # atno 10718 bound_to 10713
  154.0885  135.6581  153.4849 H   0  0  0  0  0  0  0  0  0  0  0  0  # atno 10763 bound_to 10752
  153.0330  135.5197  154.7404 H   0  0  0  0  0  0  0  0  0  0  0  0  # atno 10764 bound_to 10752
  154.6520  135.3002  154.9943 H   0  0  0  0  0  0  0  0  0  0  0  0  # atno 10765 bound_to 10752
  139.9069  134.9608  156.7328 H   0  0  0  0  0  0  0  0  0  0  0  0  # atno 11005 bound_to 11000
  145.0421  139.3252  143.5971 LP  0  0  0  0  0  0  0  0  0  0  0  0  # atno 17320 bound_to 7965
  146.3493  139.9798  142.8697 LP  0  0  0  0  0  0  0  0  0  0  0  0  # atno 17321 bound_to 7965
  140.6487  143.2219  151.6127 LP  0  0  0  0  0  0  0  0  0  0  0  0  # atno 17342 bound_to 10162
  139.5275  144.3014  152.1070 LP  0  0  0  0  0  0  0  0  0  0  0  0  # atno 17343 bound_to 10162
  157.5716  130.8314  149.8399 LP  0  0  0  0  0  0  0  0  0  0  0  0  # atno 17370 bound_to 10713
  156.0359  130.3751  150.1562 LP  0  0  0  0  0  0  0  0  0  0  0  0  # atno 17371 bound_to 10713
  140.6911  133.9389  155.7967 LP  0  0  0  0  0  0  0  0  0  0  0  0  # atno 17394 bound_to 11000
  141.0441  134.0580  157.3866 LP  0  0  0  0  0  0  0  0  0  0  0  0  # atno 17395 bound_to 11000

$$$$
