AV-unprocessed.smi:2325|AV-procd|sdf|9295|dock6
  -GOLD-   2272012513D 1   1.00000     0.00000
 Structure written by MMmdl.
 40 41  0  0  0  0  0  0  0  0  1 V2000
  149.8097  138.8826  154.2282 C   0  0  0  0  0  0  0  0  0  0  0  0
  148.4319  139.3300  154.2947 N   0  0  0  0  0  0  0  0  0  0  0  0
  148.1161  140.5402  154.8124 N   0  0  0  0  0  0  0  0  0  0  0  0
  146.7885  140.5732  154.6931 C   0  0  0  0  0  0  0  0  0  0  0  0
  146.2099  139.4700  154.1331 N   0  0  0  0  0  0  0  0  0  0  0  0
  147.2971  138.7382  153.9103 C   0  0  0  0  0  0  0  0  0  0  0  0
  147.3309  137.4458  153.3220 N   0  0  0  0  0  0  0  0  0  0  0  0
  146.3455  136.5334  153.2826 C   0  0  0  0  0  0  0  0  0  0  0  0
  145.2297  136.6710  153.7841 O   0  0  0  0  0  0  0  0  0  0  0  0
  146.7292  135.4354  152.6165 N   0  0  0  0  0  0  0  0  0  0  0  0
  145.8888  134.2665  152.3652 C   0  0  2  0  0  0  0  0  0  0  0  0
  146.5982  133.2503  151.4924 C   0  0  0  0  0  0  0  0  0  0  0  0
  145.4423  132.4629  150.8645 C   0  0  0  0  0  0  0  0  0  0  0  0
  145.7466  132.0340  149.4211 C   0  0  0  0  0  0  0  0  0  0  0  0
  145.0348  131.2540  151.7241 C   0  0  0  0  0  0  0  0  0  0  0  0
  144.3356  133.3633  150.8451 O   0  0  0  0  0  0  0  0  0  0  0  0
  144.6139  134.5733  151.5485 C   0  0  0  0  0  0  0  0  0  0  0  0
  143.4045  134.8827  152.4451 C   0  0  0  0  0  0  0  0  0  0  0  0
  144.7932  135.6698  150.4777 C   0  0  0  0  0  0  0  0  0  0  0  0
  149.9083  137.9217  154.7340 H   0  0  0  0  0  0  0  0  0  0  0  0
  150.4715  139.6039  154.7097 H   0  0  0  0  0  0  0  0  0  0  0  0
  150.1071  138.7686  153.1854 H   0  0  0  0  0  0  0  0  0  0  0  0
  146.2144  141.4267  155.0225 H   0  0  0  0  0  0  0  0  0  0  0  0
  148.1990  137.1934  152.8736 H   0  0  0  0  0  0  0  0  0  0  0  0
  147.6650  135.4097  152.2396 H   0  0  0  0  0  0  0  0  0  0  0  0
  145.6253  133.7790  153.3061 H   0  0  0  0  0  0  0  0  0  0  0  0
  147.1725  133.7609  150.7175 H   0  0  0  0  0  0  0  0  0  0  0  0
  147.2923  132.6217  152.0515 H   0  0  0  0  0  0  0  0  0  0  0  0
  146.6052  131.3631  149.3816 H   0  0  0  0  0  0  0  0  0  0  0  0
  145.9675  132.8962  148.7910 H   0  0  0  0  0  0  0  0  0  0  0  0
  144.8969  131.5143  148.9774 H   0  0  0  0  0  0  0  0  0  0  0  0
  145.8457  130.5283  151.7947 H   0  0  0  0  0  0  0  0  0  0  0  0
  144.1700  130.7436  151.2989 H   0  0  0  0  0  0  0  0  0  0  0  0
  144.7697  131.5545  152.7381 H   0  0  0  0  0  0  0  0  0  0  0  0
  143.5529  135.8046  153.0072 H   0  0  0  0  0  0  0  0  0  0  0  0
  143.2275  134.0802  153.1618 H   0  0  0  0  0  0  0  0  0  0  0  0
  142.4961  134.9995  151.8537 H   0  0  0  0  0  0  0  0  0  0  0  0
  144.9654  136.6477  150.9282 H   0  0  0  0  0  0  0  0  0  0  0  0
  143.9029  135.7534  149.8540 H   0  0  0  0  0  0  0  0  0  0  0  0
  145.6330  135.4540  149.8169 H   0  0  0  0  0  0  0  0  0  0  0  0
  1  2  1  0  0  0  0
  1 20  1  0  0  0  0
  1 21  1  0  0  0  0
  1 22  1  0  0  0  0
  2  6  1  0  0  0  0
  2  3  1  0  0  0  0
  3  4  2  0  0  0  0
  4  5  1  0  0  0  0
  4 23  1  0  0  0  0
  5  6  2  0  0  0  0
  6  7  1  0  0  0  0
  7  8  1  0  0  0  0
  7 24  1  0  0  0  0
  8  9  2  0  0  0  0
  8 10  1  0  0  0  0
 10 11  1  0  0  0  0
 10 25  1  0  0  0  0
 11 17  1  0  0  0  0
 11 12  1  0  0  0  0
 11 26  1  0  0  0  0
 12 13  1  0  0  0  0
 12 27  1  0  0  0  0
 12 28  1  0  0  0  0
 13 14  1  0  0  0  0
 13 15  1  0  0  0  0
 13 16  1  0  0  0  0
 14 29  1  0  0  0  0
 14 30  1  0  0  0  0
 14 31  1  0  0  0  0
 15 32  1  0  0  0  0
 15 33  1  0  0  0  0
 15 34  1  0  0  0  0
 16 17  1  0  0  0  0
 17 18  1  0  0  0  0
 17 19  1  0  0  0  0
 18 35  1  0  0  0  0
 18 36  1  0  0  0  0
 18 37  1  0  0  0  0
 19 38  1  0  0  0  0
 19 39  1  0  0  0  0
 19 40  1  0  0  0  0
M  END
> <s_m_source_file>
AV-unprocessed.smi

> <i_m_source_file_index>
2325

> <i_lp_mmshare_version>
43012

> <i_f3d_flags>
0

> <s_epik_input>
W0NIM11uMW5bY0hdbmMxW05IXUMoPU8pW05IXVtDQEBIXShDKE8yKShbQ0gzXSlbQ0gzXSlbQ0gyXUMyKFtDSDNdKVtDSDNd

> <s_epik_cmdline>
J2VwaWtfcHl0aG9uJywgJy1waCcsICc3LjAnLCAnLXRuJywgJzgnLCAnLW1hJywgJzIwMCcsICctbWV0YWxfYmluZGluZycsICctaW1hZScsICc8aW5maWxlLm1hZT4nLCAnLW9tYWUnLCAnPG91dGZpbGUubWFlPic=

> <r_lp_tautomer_probability>
1

> <r_epik_Ionization_Penalty>
1.97832e-05

> <r_epik_Ionization_Penalty_Charging>
0

> <r_epik_Ionization_Penalty_Neutral>
1.97832e-05

> <r_epik_State_Penalty>
-0

> <r_epik_Charging_Adjusted_Penalty>
0

> <i_epik_Tot_Q>
0

> <i_epik_Tot_abs_Q>
0

> <r_epik_Metal_State_Penalty>
-0

> <b_epik_Metal_Only>
0

> <s_lp_Force_Field>
OPLS_2005

> <r_lp_Energy>
17.1508

> <b_lp_Chiralities_Consistent>
1

> <s_lp_Variant>
AV-unprocessed.smi:2325-1

> <Gold.Version>
5.8.1

> <Gold.Id.Protein>
6NUR|6NUR_protein|mol2

> <Gold.PLP.Fitness>
32.8147

> <Gold.PLP.PLP>
-27.2148

> <Gold.PLP.part.hbond>
-1.6236

> <Gold.PLP.part.metal>
0.0000

> <Gold.PLP.part.buried>
-2.4796

> <Gold.PLP.part.nonpolar>
-23.3467

> <Gold.PLP.part.repulsive>
0.4969

> <Gold.PLP.ligand.clash>
0.0000

> <Gold.PLP.ligand.torsion>
0.1336

> <Gold.PLP.Chemscore.Hbond>
1.9520

> <Gold.PLP.Chemscore.CHOScore>
0.0000

> <Gold.PLP.Chemscore.Metal>
0.0000

> <Gold.Chemscore.Hbonds>
donor molecule, donor type, donor heavy atom, donor atom, acceptor molecule, acceptor atom, score
      L1  H     7    24       P1  7948  0.96
      L1  H    10    25       P1  7948  0.96

> <Gold.PLP.Chemscore.Internal.Correction>
0.0111

> <Gold.Rescore>
     Score         DG    S(hbond)    S(metal)    S(lipo)     H(rot)  DE(clash)    DE(int)     intcor
     13.69     -16.28       1.87        0.00      60.80       1.00       0.07       2.52       ----

> <Gold.Chemscore.Fitness>
13.6929

> <Gold.Chemscore.DG>
-16.2781

> <Gold.Chemscore.ZeroCoef>
-5.4800

> <Gold.Chemscore.Hbond>
1.8695

> <Gold.Chemscore.Metal>
0.0000

> <Gold.Chemscore.Lipo>
60.8037

> <Gold.Chemscore.Internal_Hbond>
0.0000

> <Gold.Chemscore.DEClash>
0.0663

> <Gold.Chemscore.DEInternal>
2.5189

> <Gold.Chemscore.Rot>
1.0000

> <Gold.Chemscore.Internal.Correction>
   9.000000E+99

> <Gold.Chemscore.Hbonds>
donor molecule, donor type, donor heavy atom, donor atom, acceptor molecule, acceptor atom, score
      L1  H     7    24       P1  7948  0.90
      L1  H    10    25       P1  7948  0.87

> <Gold.Chemscore.Hbond.Weighted>
-6.2441

> <Gold.Chemscore.Metal.Weighted>
-0.0000

> <Gold.Chemscore.Lipo.Weighted>
-7.1140

> <Gold.Chemscore.Internal_Hbond.Weighted>
0.0000

> <Gold.Chemscore.DEClash.Weighted>
0.0663

> <Gold.Chemscore.DEInternal.Weighted>
2.5189

> <Gold.Chemscore.Rot.Weighted>
2.5600

> <Gold.Chemscore.Internal.Correction.Weighted>
   9.000000E+99

> <Gold.Protein.RotatedTorsions>
[ 6907 6896 6895 6894 ] final  137.48 input  -60.11 | X-H torsion
[ 7974 7965 7964 7962 ] final  174.48 input  175.53 | X-H torsion
[ 8008 7997 7996 7995 ] final  101.70 input   59.86 | X-H torsion
[ 10167 10162 10161 10158 ] final  161.49 input  -65.29 | X-H torsion
[ 10718 10713 10712 10709 ] final -178.87 input   66.30 | X-H torsion
[ 10763 10752 10751 10750 ] final -116.43 input  -60.55 | X-H torsion
[ 11005 11000 10999 10996 ] final  -74.70 input  -57.11 | X-H torsion

> <Gold.Protein.ActiveResidues>
 VAL166  LYS551  ARG553  GLY616  TRP617  ASP618  TYR619  PRO620  LYS621  CYS622 
 ASP623  PHE694  ASN695  SER759  ASP760  ASP761  ALA762  ILE779  LEU786  VAL792 
 PHE793  MET794  SER795  GLU796  ALA797  LYS798  CYS799  TRP800  GLU811  SER814 

> <Gold.Protein.RotatedAtoms>
  152.2776  133.5440  159.5477 H   0  0  0  0  0  0  0  0  0  0  0  0  # atno 6907 bound_to 6896
  150.7183  134.0609  159.3840 H   0  0  0  0  0  0  0  0  0  0  0  0  # atno 6908 bound_to 6896
  151.8521  135.0554  160.0511 H   0  0  0  0  0  0  0  0  0  0  0  0  # atno 6909 bound_to 6896
  144.7221  139.9803  143.6438 H   0  0  0  0  0  0  0  0  0  0  0  0  # atno 7974 bound_to 7965
  156.1324  140.3193  155.8369 H   0  0  0  0  0  0  0  0  0  0  0  0  # atno 8008 bound_to 7997
  155.4308  140.0518  157.3036 H   0  0  0  0  0  0  0  0  0  0  0  0  # atno 8009 bound_to 7997
  154.4910  140.2092  155.9562 H   0  0  0  0  0  0  0  0  0  0  0  0  # atno 8010 bound_to 7997
  139.4850  144.4531  151.8804 H   0  0  0  0  0  0  0  0  0  0  0  0  # atno 10167 bound_to 10162
  156.8507  130.9718  151.3092 H   0  0  0  0  0  0  0  0  0  0  0  0  # atno 10718 bound_to 10713
  154.8519  135.4346  154.1820 H   0  0  0  0  0  0  0  0  0  0  0  0  # atno 10763 bound_to 10752
  153.2909  135.6961  153.7300 H   0  0  0  0  0  0  0  0  0  0  0  0  # atno 10764 bound_to 10752
  153.6468  135.3458  155.3062 H   0  0  0  0  0  0  0  0  0  0  0  0  # atno 10765 bound_to 10752
  141.1638  133.6920  156.7404 H   0  0  0  0  0  0  0  0  0  0  0  0  # atno 11005 bound_to 11000
  146.0492  139.3495  143.0649 LP  0  0  0  0  0  0  0  0  0  0  0  0  # atno 17320 bound_to 7965
  145.8236  140.9666  143.0886 LP  0  0  0  0  0  0  0  0  0  0  0  0  # atno 17321 bound_to 7965
  140.3989  144.2519  150.5894 LP  0  0  0  0  0  0  0  0  0  0  0  0  # atno 17342 bound_to 10162
  140.5076  143.2300  151.8584 LP  0  0  0  0  0  0  0  0  0  0  0  0  # atno 17343 bound_to 10162
  157.6305  130.8725  149.9265 LP  0  0  0  0  0  0  0  0  0  0  0  0  # atno 17370 bound_to 10713
  156.0830  130.3671  150.0543 LP  0  0  0  0  0  0  0  0  0  0  0  0  # atno 17371 bound_to 10713
  140.2678  134.8416  157.3819 LP  0  0  0  0  0  0  0  0  0  0  0  0  # atno 17394 bound_to 11000
  140.1550  134.4802  155.7934 LP  0  0  0  0  0  0  0  0  0  0  0  0  # atno 17395 bound_to 11000

$$$$
