AV-unprocessed.smi:1330|AV-procd|sdf|5486|dock9
  -GOLD-   22720 5 63D 1   1.00000     0.00000
 Structure written by MMmdl.
 42 43  0  0  0  0  0  0  0  0  1 V2000
  155.7467  144.3488  164.6731 C   0  0  0  0  0  0  0  0  0  0  0  0
  156.0570  143.1795  165.5679 C   0  0  0  0  0  0  0  0  0  0  0  0
  156.2916  142.0490  164.9866 N   0  0  0  0  0  0  0  0  0  0  0  0
  156.5838  140.9128  165.7146 N   0  0  0  0  0  0  0  0  0  0  0  0
  156.8027  139.7174  164.8905 C   0  0  0  0  0  0  0  0  0  0  0  0
  156.8632  140.0574  163.3845 C   0  0  1  0  0  0  0  0  0  0  0  0
  157.2751  138.8929  162.6957 O   0  0  0  0  0  0  0  0  0  0  0  0
  155.4858  140.4533  162.8269 C   0  0  0  0  0  0  0  0  0  0  0  0
  155.5981  140.6528  161.4274 O   0  0  0  0  0  0  0  0  0  0  0  0
  154.3711  140.4706  160.7424 C   0  0  0  0  0  0  0  0  0  0  0  0
  153.6254  141.7817  160.6008 C   0  0  0  0  0  0  0  0  0  0  0  0
  153.2224  142.2366  159.3278 C   0  0  0  0  0  0  0  0  0  0  0  0
  152.5211  143.4517  159.2006 C   0  0  0  0  0  0  0  0  0  0  0  0
  152.2199  144.2151  160.3456 C   0  0  0  0  0  0  0  0  0  0  0  0
  151.3597  145.7026  160.1893 Cl  0  0  0  0  0  0  0  0  0  0  0  0
  152.6202  143.7624  161.6181 C   0  0  0  0  0  0  0  0  0  0  0  0
  153.3214  142.5473  161.7456 C   0  0  0  0  0  0  0  0  0  0  0  0
  156.6583  140.8599  167.0754 C   0  0  0  0  0  0  0  0  0  0  0  0
  156.9186  139.8214  167.6847 O   0  0  0  0  0  0  0  0  0  0  0  0
  156.3933  142.1441  167.7281 C   0  0  0  0  0  0  0  0  0  0  0  0
  156.4584  142.1325  169.1539 C   0  0  0  0  0  0  0  0  0  0  0  0
  156.5321  142.1216  170.3092 N   0  0  0  0  0  0  0  0  0  0  0  0
  156.1022  143.2667  167.0241 C   0  0  0  0  0  0  0  0  0  0  0  0
  155.8161  144.6232  167.6532 C   0  0  0  0  0  0  0  0  0  0  0  0
  156.4840  145.1412  164.8023 H   0  0  0  0  0  0  0  0  0  0  0  0
  154.7636  144.7605  164.9009 H   0  0  0  0  0  0  0  0  0  0  0  0
  155.7482  144.0669  163.6190 H   0  0  0  0  0  0  0  0  0  0  0  0
  157.7059  139.1876  165.2007 H   0  0  0  0  0  0  0  0  0  0  0  0
  155.9906  139.0136  165.0816 H   0  0  0  0  0  0  0  0  0  0  0  0
  157.5717  140.8668  163.2035 H   0  0  0  0  0  0  0  0  0  0  0  0
  158.1937  138.7531  162.8684 H   0  0  0  0  0  0  0  0  0  0  0  0
  154.7291  139.7034  163.0655 H   0  0  0  0  0  0  0  0  0  0  0  0
  155.1613  141.3936  163.2756 H   0  0  0  0  0  0  0  0  0  0  0  0
  154.5554  140.0576  159.7493 H   0  0  0  0  0  0  0  0  0  0  0  0
  153.7460  139.7531  161.2768 H   0  0  0  0  0  0  0  0  0  0  0  0
  153.4465  141.6540  158.4462 H   0  0  0  0  0  0  0  0  0  0  0  0
  152.2136  143.7957  158.2239 H   0  0  0  0  0  0  0  0  0  0  0  0
  152.3893  144.3453  162.4976 H   0  0  0  0  0  0  0  0  0  0  0  0
  153.6226  142.2028  162.7242 H   0  0  0  0  0  0  0  0  0  0  0  0
  155.8902  144.5984  168.7400 H   0  0  0  0  0  0  0  0  0  0  0  0
  154.8091  144.9568  167.4008 H   0  0  0  0  0  0  0  0  0  0  0  0
  156.5259  145.3693  167.2946 H   0  0  0  0  0  0  0  0  0  0  0  0
  1  2  1  0  0  0  0
  1 25  1  0  0  0  0
  1 26  1  0  0  0  0
  1 27  1  0  0  0  0
  2 23  1  0  0  0  0
  2  3  2  0  0  0  0
  3  4  1  0  0  0  0
  4  5  1  0  0  0  0
  4 18  1  0  0  0  0
  5  6  1  0  0  0  0
  5 28  1  0  0  0  0
  5 29  1  0  0  0  0
  6  7  1  0  0  0  0
  6  8  1  0  0  0  0
  6 30  1  0  0  0  0
  7 31  1  0  0  0  0
  8  9  1  0  0  0  0
  8 32  1  0  0  0  0
  8 33  1  0  0  0  0
  9 10  1  0  0  0  0
 10 11  1  0  0  0  0
 10 34  1  0  0  0  0
 10 35  1  0  0  0  0
 11 17  1  0  0  0  0
 11 12  2  0  0  0  0
 12 13  1  0  0  0  0
 12 36  1  0  0  0  0
 13 14  2  0  0  0  0
 13 37  1  0  0  0  0
 14 15  1  0  0  0  0
 14 16  1  0  0  0  0
 16 17  2  0  0  0  0
 16 38  1  0  0  0  0
 17 39  1  0  0  0  0
 18 19  2  0  0  0  0
 18 20  1  0  0  0  0
 20 21  1  0  0  0  0
 20 23  2  0  0  0  0
 21 22  3  0  0  0  0
 23 24  1  0  0  0  0
 24 40  1  0  0  0  0
 24 41  1  0  0  0  0
 24 42  1  0  0  0  0
M  END
> <s_m_source_file>
AV-unprocessed.smi

> <i_m_source_file_index>
1330

> <i_lp_mmshare_version>
43012

> <i_f3d_flags>
0

> <s_epik_input>
TiNDYyhjMVtDSDNdKWMoPU8pbihuYzFbQ0gzXSlbQ0gyXVtDQEhdKFtPSF0pW0NIMl1PW0NIMl1jMltjSF1bY0hdYyhDbClbY0hdW2NIXTI=

> <s_epik_cmdline>
J2VwaWtfcHl0aG9uJywgJy1waCcsICc3LjAnLCAnLXRuJywgJzgnLCAnLW1hJywgJzIwMCcsICctbWV0YWxfYmluZGluZycsICctaW1hZScsICc8aW5maWxlLm1hZT4nLCAnLW9tYWUnLCAnPG91dGZpbGUubWFlPic=

> <r_lp_tautomer_probability>
1

> <r_epik_Ionization_Penalty>
6.27695e-08

> <r_epik_Ionization_Penalty_Charging>
2.19172e-10

> <r_epik_Ionization_Penalty_Neutral>
6.25504e-08

> <r_epik_State_Penalty>
-0

> <r_epik_Charging_Adjusted_Penalty>
2.19172e-10

> <i_epik_Tot_Q>
0

> <i_epik_Tot_abs_Q>
0

> <r_epik_Metal_State_Penalty>
-0

> <b_epik_Metal_Only>
0

> <s_lp_Force_Field>
OPLS_2005

> <r_lp_Energy>
31.5646

> <b_lp_Chiralities_Consistent>
1

> <s_lp_Variant>
AV-unprocessed.smi:1330-2

> <Gold.Version>
5.8.1

> <Gold.Id.Protein>
6NUR|6NUR_protein|mol2

> <Gold.PLP.Fitness>
57.4265

> <Gold.PLP.PLP>
-58.3151

> <Gold.PLP.part.hbond>
-2.0000

> <Gold.PLP.part.metal>
0.0000

> <Gold.PLP.part.buried>
-8.2248

> <Gold.PLP.part.nonpolar>
-47.3284

> <Gold.PLP.part.repulsive>
0.3091

> <Gold.PLP.ligand.clash>
0.0000

> <Gold.PLP.ligand.torsion>
0.4902

> <Gold.PLP.Chemscore.Hbond>
0.0000

> <Gold.PLP.Chemscore.CHOScore>
0.0000

> <Gold.PLP.Chemscore.Metal>
0.0000

> <Gold.PLP.Chemscore.Internal.Correction>
0.0918

> <Gold.Rescore>
     Score         DG    S(hbond)    S(metal)    S(lipo)     H(rot)  DE(clash)    DE(int)     intcor
     13.46     -16.13       0.00        0.00     145.27       2.48       0.54       2.14       ----

> <Gold.Chemscore.Fitness>
13.4598

> <Gold.Chemscore.DG>
-16.1339

> <Gold.Chemscore.ZeroCoef>
-5.4800

> <Gold.Chemscore.Hbond>
0.0000

> <Gold.Chemscore.Metal>
0.0000

> <Gold.Chemscore.Lipo>
145.2717

> <Gold.Chemscore.Internal_Hbond>
0.0000

> <Gold.Chemscore.DEClash>
0.5358

> <Gold.Chemscore.DEInternal>
2.1384

> <Gold.Chemscore.Rot>
2.4777

> <Gold.Chemscore.Internal.Correction>
   9.000000E+99

> <Gold.Chemscore.Hbond.Weighted>
-0.0000

> <Gold.Chemscore.Metal.Weighted>
-0.0000

> <Gold.Chemscore.Lipo.Weighted>
-16.9968

> <Gold.Chemscore.Internal_Hbond.Weighted>
0.0000

> <Gold.Chemscore.DEClash.Weighted>
0.5358

> <Gold.Chemscore.DEInternal.Weighted>
2.1384

> <Gold.Chemscore.Rot.Weighted>
6.3428

> <Gold.Chemscore.Internal.Correction.Weighted>
   9.000000E+99

> <Gold.Protein.RotatedTorsions>
[ 6907 6896 6895 6894 ] final  117.26 input  -60.11 | X-H torsion
[ 7974 7965 7964 7962 ] final  -72.71 input  175.53 | X-H torsion
[ 8008 7997 7996 7995 ] final  162.45 input   59.86 | X-H torsion
[ 10167 10162 10161 10158 ] final -172.07 input  -65.29 | X-H torsion
[ 10718 10713 10712 10709 ] final  160.00 input   66.30 | X-H torsion
[ 10763 10752 10751 10750 ] final  -83.02 input  -60.55 | X-H torsion
[ 11005 11000 10999 10996 ] final  -52.05 input  -57.11 | X-H torsion

> <Gold.Protein.ActiveResidues>
 VAL166  LYS551  ARG553  GLY616  TRP617  ASP618  TYR619  PRO620  LYS621  CYS622 
 ASP623  PHE694  ASN695  SER759  ASP760  ASP761  ALA762  ILE779  LEU786  VAL792 
 PHE793  MET794  SER795  GLU796  ALA797  LYS798  CYS799  TRP800  GLU811  SER814 

> <Gold.Protein.RotatedAtoms>
  152.4623  133.7849  159.6870 H   0  0  0  0  0  0  0  0  0  0  0  0  # atno 6907 bound_to 6896
  150.8573  133.7687  159.3011 H   0  0  0  0  0  0  0  0  0  0  0  0  # atno 6908 bound_to 6896
  151.5263  135.1071  159.9943 H   0  0  0  0  0  0  0  0  0  0  0  0  # atno 6909 bound_to 6896
  145.6616  140.9250  143.0930 H   0  0  0  0  0  0  0  0  0  0  0  0  # atno 7974 bound_to 7965
  156.2030  140.1750  156.7859 H   0  0  0  0  0  0  0  0  0  0  0  0  # atno 8008 bound_to 7997
  154.5617  140.0698  156.8860 H   0  0  0  0  0  0  0  0  0  0  0  0  # atno 8009 bound_to 7997
  155.2835  140.3350  155.4259 H   0  0  0  0  0  0  0  0  0  0  0  0  # atno 8010 bound_to 7997
  139.5766  144.1519  152.1458 H   0  0  0  0  0  0  0  0  0  0  0  0  # atno 10167 bound_to 10162
  157.1565  131.0577  151.2254 H   0  0  0  0  0  0  0  0  0  0  0  0  # atno 10718 bound_to 10713
  154.5828  135.5570  153.7202 H   0  0  0  0  0  0  0  0  0  0  0  0  # atno 10763 bound_to 10752
  153.0087  135.6324  154.1959 H   0  0  0  0  0  0  0  0  0  0  0  0  # atno 10764 bound_to 10752
  154.1899  135.2883  155.3005 H   0  0  0  0  0  0  0  0  0  0  0  0  # atno 10765 bound_to 10752
  141.0904  133.6634  156.3967 H   0  0  0  0  0  0  0  0  0  0  0  0  # atno 11005 bound_to 11000
  144.7087  139.8457  143.7421 LP  0  0  0  0  0  0  0  0  0  0  0  0  # atno 17320 bound_to 7965
  146.1120  139.4126  143.0282 LP  0  0  0  0  0  0  0  0  0  0  0  0  # atno 17321 bound_to 7965
  140.1063  144.5496  150.6955 LP  0  0  0  0  0  0  0  0  0  0  0  0  # atno 17342 bound_to 10162
  140.7048  143.2460  151.4759 LP  0  0  0  0  0  0  0  0  0  0  0  0  # atno 17343 bound_to 10162
  157.4172  130.7418  149.6885 LP  0  0  0  0  0  0  0  0  0  0  0  0  # atno 17370 bound_to 10713
  155.9761  130.4080  150.3801 LP  0  0  0  0  0  0  0  0  0  0  0  0  # atno 17371 bound_to 10713
  140.5266  134.6253  157.5336 LP  0  0  0  0  0  0  0  0  0  0  0  0  # atno 17394 bound_to 11000
  139.9729  134.7264  156.0007 LP  0  0  0  0  0  0  0  0  0  0  0  0  # atno 17395 bound_to 11000

$$$$
