AV-unprocessed.smi:1837|AV-procd|sdf|7481|dock10
  -GOLD-   22720 9183D 1   1.00000     0.00000
 Structure written by MMmdl.
 45 48  0  0  0  0  0  0  0  0  3 V2000
  153.9772  140.1494  158.9433 O   0  0  0  0  0  0  0  0  0  0  0  0
  154.2644  140.6069  160.0500 C   0  0  0  0  0  0  0  0  0  0  0  0
  155.2594  139.8756  160.9623 C   0  0  0  0  0  0  0  0  0  0  0  0
  154.9596  138.4422  161.1182 N   0  0  0  0  0  0  0  0  0  0  0  0
  154.6633  137.9868  162.4183 C   0  0  0  0  0  0  0  0  0  0  0  0
  154.3798  136.6951  162.6770 C   0  0  0  0  0  0  0  0  0  0  0  0
  154.0842  136.2434  164.0189 N   0  3  0  0  0  0  0  0  0  0  0  0
  154.0193  135.0370  164.2329 O   0  0  0  0  0  0  0  0  0  0  0  0
  153.9061  137.0767  164.9023 O   0  5  0  0  0  0  0  0  0  0  0  0
  154.3853  135.7674  161.5625 C   0  0  0  0  0  0  0  0  0  0  0  0
  154.6725  136.1958  160.3175 C   0  0  0  0  0  0  0  0  0  0  0  0
  154.9855  137.6012  160.0391 C   0  0  0  0  0  0  0  0  0  0  0  0
  155.2542  137.9977  158.9049 O   0  0  0  0  0  0  0  0  0  0  0  0
  153.7665  141.7566  160.5372 N   0  0  0  0  0  0  0  0  0  0  0  0
  152.8063  142.6708  159.9100 C   0  0  0  0  0  0  0  0  0  0  0  0
  153.5080  143.6512  158.9305 C   0  0  0  0  0  0  0  0  0  0  0  0
  152.4733  144.6360  158.3435 C   0  0  1  0  0  0  0  0  0  0  0  0
  151.3796  143.8495  157.5885 C   0  0  0  0  0  0  0  0  0  0  0  0
  150.6660  142.8925  158.5683 C   0  0  2  0  0  0  0  0  0  0  0  0
  150.0205  143.7073  159.7085 C   0  0  0  0  0  0  0  0  0  0  0  0
  151.1192  144.4890  160.4581 C   0  0  2  0  0  0  0  0  0  0  0  0
  151.8288  145.4517  159.4835 C   0  0  0  0  0  0  0  0  0  0  0  0
  152.1472  143.4978  161.0433 C   0  0  0  0  0  0  0  0  0  0  0  0
  151.6900  141.8970  159.1558 C   0  0  0  0  0  0  0  0  0  0  0  0
  156.2609  140.0159  160.5533 H   0  0  0  0  0  0  0  0  0  0  0  0
  155.2814  140.3618  161.9398 H   0  0  0  0  0  0  0  0  0  0  0  0
  154.6930  138.7531  163.1793 H   0  0  0  0  0  0  0  0  0  0  0  0
  154.1611  134.7223  161.7183 H   0  0  0  0  0  0  0  0  0  0  0  0
  154.6723  135.4869  159.5023 H   0  0  0  0  0  0  0  0  0  0  0  0
  154.0850  142.0297  161.4557 H   0  0  0  0  0  0  0  0  0  0  0  0
  154.2972  144.2015  159.4446 H   0  0  0  0  0  0  0  0  0  0  0  0
  153.9921  143.1136  158.1151 H   0  0  0  0  0  0  0  0  0  0  0  0
  152.9732  145.3146  157.6516 H   0  0  0  0  0  0  0  0  0  0  0  0
  150.6605  144.5378  157.1423 H   0  0  0  0  0  0  0  0  0  0  0  0
  151.8197  143.2873  156.7641 H   0  0  0  0  0  0  0  0  0  0  0  0
  149.8911  142.3408  158.0353 H   0  0  0  0  0  0  0  0  0  0  0  0
  149.2738  144.3940  159.3077 H   0  0  0  0  0  0  0  0  0  0  0  0
  149.4925  143.0444  160.3952 H   0  0  0  0  0  0  0  0  0  0  0  0
  150.6668  145.0624  161.2677 H   0  0  0  0  0  0  0  0  0  0  0  0
  152.5882  146.0316  160.0095 H   0  0  0  0  0  0  0  0  0  0  0  0
  151.1167  146.1713  159.0777 H   0  0  0  0  0  0  0  0  0  0  0  0
  151.6549  142.8366  161.7583 H   0  0  0  0  0  0  0  0  0  0  0  0
  152.9064  144.0436  161.6058 H   0  0  0  0  0  0  0  0  0  0  0  0
  152.1058  141.2948  158.3479 H   0  0  0  0  0  0  0  0  0  0  0  0
  151.1889  141.2006  159.8295 H   0  0  0  0  0  0  0  0  0  0  0  0
  1  2  2  0  0  0  0
  2  3  1  0  0  0  0
  2 14  1  0  0  0  0
  3  4  1  0  0  0  0
  3 25  1  0  0  0  0
  3 26  1  0  0  0  0
  4 12  1  0  0  0  0
  4  5  1  0  0  0  0
  5  6  2  0  0  0  0
  5 27  1  0  0  0  0
  6  7  1  0  0  0  0
  6 10  1  0  0  0  0
  7  8  2  0  0  0  0
  7  9  1  0  0  0  0
 10 11  2  0  0  0  0
 10 28  1  0  0  0  0
 11 12  1  0  0  0  0
 11 29  1  0  0  0  0
 12 13  2  0  0  0  0
 14 15  1  0  0  0  0
 14 30  1  0  0  0  0
 15 23  1  0  0  0  0
 15 24  1  0  0  0  0
 15 16  1  0  0  0  0
 16 17  1  0  0  0  0
 16 31  1  0  0  0  0
 16 32  1  0  0  0  0
 17 22  1  0  0  0  0
 17 18  1  0  0  0  0
 17 33  1  0  0  0  0
 18 19  1  0  0  0  0
 18 34  1  0  0  0  0
 18 35  1  0  0  0  0
 19 20  1  0  0  0  0
 19 24  1  0  0  0  0
 19 36  1  0  0  0  0
 20 21  1  0  0  0  0
 20 37  1  0  0  0  0
 20 38  1  0  0  0  0
 21 22  1  0  0  0  0
 21 23  1  0  0  0  0
 21 39  1  0  0  0  0
 22 40  1  0  0  0  0
 22 41  1  0  0  0  0
 23 42  1  0  0  0  0
 23 43  1  0  0  0  0
 24 44  1  0  0  0  0
 24 45  1  0  0  0  0
M  CHG  1   7   1
M  CHG  1   9  -1
M  END
> <s_m_source_file>
AV-unprocessed.smi

> <i_m_source_file_index>
1837

> <i_lp_mmshare_version>
43012

> <i_f3d_flags>
0

> <s_epik_input>
Tz1jMVtjSF1bY0hdYyhbTitdKD1PKVtPLV0pW2NIXW4xW0NIMl1DKD1PKVtOSF1DMjNbQ0gyXVtDQEhdNFtDSDJdW0NAQEhdKFtDSDJdMylbQ0gyXVtDQEhdKFtDSDJdNClbQ0gyXTI=

> <s_epik_cmdline>
J2VwaWtfcHl0aG9uJywgJy1waCcsICc3LjAnLCAnLXRuJywgJzgnLCAnLW1hJywgJzIwMCcsICctbWV0YWxfYmluZGluZycsICctaW1hZScsICc8aW5maWxlLm1hZT4nLCAnLW9tYWUnLCAnPG91dGZpbGUubWFlPic=

> <r_lp_tautomer_probability>
1

> <r_epik_Ionization_Penalty>
2.34466e-08

> <r_epik_Ionization_Penalty_Charging>
8.88262e-11

> <r_epik_Ionization_Penalty_Neutral>
2.33578e-08

> <r_epik_State_Penalty>
-0

> <r_epik_Charging_Adjusted_Penalty>
8.88262e-11

> <i_epik_Tot_Q>
0

> <i_epik_Tot_abs_Q>
2

> <r_epik_Metal_State_Penalty>
-0

> <b_epik_Metal_Only>
0

> <s_lp_Force_Field>
OPLS_2005

> <r_lp_Energy>
41.9783

> <b_lp_Chiralities_Consistent>
1

> <s_lp_Variant>
AV-unprocessed.smi:1837-1

> <Gold.Version>
5.8.1

> <Gold.Id.Protein>
6NUR|6NUR_protein|mol2

> <Gold.PLP.Fitness>
49.6661

> <Gold.PLP.PLP>
-47.9349

> <Gold.PLP.part.hbond>
-1.8157

> <Gold.PLP.part.metal>
0.0000

> <Gold.PLP.part.buried>
-4.0523

> <Gold.PLP.part.nonpolar>
-43.2641

> <Gold.PLP.part.repulsive>
0.5801

> <Gold.PLP.ligand.clash>
0.0000

> <Gold.PLP.ligand.torsion>
0.6311

> <Gold.PLP.Chemscore.Hbond>
0.9920

> <Gold.PLP.Chemscore.CHOScore>
0.0000

> <Gold.PLP.Chemscore.Metal>
0.0000

> <Gold.Chemscore.Hbonds>
donor molecule, donor type, donor heavy atom, donor atom, acceptor molecule, acceptor atom, score
      P1  H  7997  8009       L1     1  0.96

> <Gold.PLP.Chemscore.Internal.Correction>
0.0174

> <Gold.Rescore>
     Score         DG    S(hbond)    S(metal)    S(lipo)     H(rot)  DE(clash)    DE(int)     intcor
     16.22     -21.20       0.93        0.00     141.28       1.53       0.71       4.26       ----

> <Gold.Chemscore.Fitness>
16.2198

> <Gold.Chemscore.DG>
-21.1982

> <Gold.Chemscore.ZeroCoef>
-5.4800

> <Gold.Chemscore.Hbond>
0.9321

> <Gold.Chemscore.Metal>
0.0000

> <Gold.Chemscore.Lipo>
141.2805

> <Gold.Chemscore.Internal_Hbond>
0.0000

> <Gold.Chemscore.DEClash>
0.7139

> <Gold.Chemscore.DEInternal>
4.2645

> <Gold.Chemscore.Rot>
1.5332

> <Gold.Chemscore.Internal.Correction>
   9.000000E+99

> <Gold.Chemscore.Hbonds>
donor molecule, donor type, donor heavy atom, donor atom, acceptor molecule, acceptor atom, score
      P1  H  7997  8009       L1     1  0.92

> <Gold.Chemscore.Hbond.Weighted>
-3.1133

> <Gold.Chemscore.Metal.Weighted>
-0.0000

> <Gold.Chemscore.Lipo.Weighted>
-16.5298

> <Gold.Chemscore.Internal_Hbond.Weighted>
0.0000

> <Gold.Chemscore.DEClash.Weighted>
0.7139

> <Gold.Chemscore.DEInternal.Weighted>
4.2645

> <Gold.Chemscore.Rot.Weighted>
3.9249

> <Gold.Chemscore.Internal.Correction.Weighted>
   9.000000E+99

> <Gold.Protein.RotatedTorsions>
[ 6907 6896 6895 6894 ] final -140.03 input  -60.11 | X-H torsion
[ 7974 7965 7964 7962 ] final -159.91 input  175.53 | X-H torsion
[ 8008 7997 7996 7995 ] final  138.39 input   59.86 | X-H torsion
[ 10167 10162 10161 10158 ] final  112.58 input  -65.29 | X-H torsion
[ 10718 10713 10712 10709 ] final -160.49 input   66.30 | X-H torsion
[ 10763 10752 10751 10750 ] final  102.96 input  -60.55 | X-H torsion
[ 11005 11000 10999 10996 ] final   31.36 input  -57.11 | X-H torsion

> <Gold.Protein.ActiveResidues>
 VAL166  LYS551  ARG553  GLY616  TRP617  ASP618  TYR619  PRO620  LYS621  CYS622 
 ASP623  PHE694  ASN695  SER759  ASP760  ASP761  ALA762  ILE779  LEU786  VAL792 
 PHE793  MET794  SER795  GLU796  ALA797  LYS798  CYS799  TRP800  GLU811  SER814 

> <Gold.Protein.RotatedAtoms>
  151.0554  133.5589  159.2638 H   0  0  0  0  0  0  0  0  0  0  0  0  # atno 6907 bound_to 6896
  151.2584  135.0645  159.9098 H   0  0  0  0  0  0  0  0  0  0  0  0  # atno 6908 bound_to 6896
  152.5389  134.0303  159.8076 H   0  0  0  0  0  0  0  0  0  0  0  0  # atno 6909 bound_to 6896
  144.7447  140.3617  143.6095 H   0  0  0  0  0  0  0  0  0  0  0  0  # atno 7974 bound_to 7965
  156.2997  140.2395  156.4066 H   0  0  0  0  0  0  0  0  0  0  0  0  # atno 8008 bound_to 7997
  154.8479  140.0425  157.1604 H   0  0  0  0  0  0  0  0  0  0  0  0  # atno 8009 bound_to 7997
  154.9031  140.2980  155.5310 H   0  0  0  0  0  0  0  0  0  0  0  0  # atno 8010 bound_to 7997
  139.6525  144.7128  151.2020 H   0  0  0  0  0  0  0  0  0  0  0  0  # atno 10167 bound_to 10162
  156.5829  130.8737  151.2869 H   0  0  0  0  0  0  0  0  0  0  0  0  # atno 10718 bound_to 10713
  153.3464  135.3993  155.1612 H   0  0  0  0  0  0  0  0  0  0  0  0  # atno 10763 bound_to 10752
  154.8654  135.3646  154.5279 H   0  0  0  0  0  0  0  0  0  0  0  0  # atno 10764 bound_to 10752
  153.5728  135.7078  153.5557 H   0  0  0  0  0  0  0  0  0  0  0  0  # atno 10765 bound_to 10752
  140.2847  134.2932  155.7791 H   0  0  0  0  0  0  0  0  0  0  0  0  # atno 11005 bound_to 11000
  145.7170  139.1699  143.2506 LP  0  0  0  0  0  0  0  0  0  0  0  0  # atno 17320 bound_to 7965
  146.1305  140.7192  142.9414 LP  0  0  0  0  0  0  0  0  0  0  0  0  # atno 17321 bound_to 7965
  140.7544  143.6126  150.8591 LP  0  0  0  0  0  0  0  0  0  0  0  0  # atno 17342 bound_to 10162
  139.9776  143.5987  152.2953 LP  0  0  0  0  0  0  0  0  0  0  0  0  # atno 17343 bound_to 10162
  157.7322  130.9712  150.1917 LP  0  0  0  0  0  0  0  0  0  0  0  0  # atno 17370 bound_to 10713
  156.2616  130.3711  149.8125 LP  0  0  0  0  0  0  0  0  0  0  0  0  # atno 17371 bound_to 10713
  141.2157  133.7547  156.9534 LP  0  0  0  0  0  0  0  0  0  0  0  0  # atno 17394 bound_to 11000
  140.1250  134.9392  157.2257 LP  0  0  0  0  0  0  0  0  0  0  0  0  # atno 17395 bound_to 11000

$$$$
