AV-unprocessed.smi:2809|AV-procd|sdf|10826|dock7
  -GOLD-   2272015263D 1   1.00000     0.00000
 Structure written by MMmdl.
 44 45  0  0  0  0  0  0  0  0  1 V2000
  152.0555  145.4673  160.1329 C   0  0  0  0  0  0  0  0  0  0  0  0
  152.3704  144.8576  158.7628 C   0  0  0  0  0  0  0  0  0  0  0  0
  152.0107  143.3857  158.6909 C   0  0  0  0  0  0  0  0  0  0  0  0
  152.6676  142.4528  159.5175 C   0  0  0  0  0  0  0  0  0  0  0  0
  152.3335  141.0869  159.4458 C   0  0  0  0  0  0  0  0  0  0  0  0
  151.3432  140.6311  158.5518 C   0  0  0  0  0  0  0  0  0  0  0  0
  151.0859  139.2774  158.5435 O   0  0  0  0  0  0  0  0  0  0  0  0
  150.1364  138.7751  157.6111 C   0  0  0  0  0  0  0  0  0  0  0  0
  149.5827  137.4298  158.1096 C   0  0  1  0  0  0  0  0  0  0  0  0
  150.6043  136.7986  158.8553 O   0  0  0  0  0  0  0  0  0  0  0  0
  148.3037  137.5773  158.9637 C   0  0  0  0  0  0  0  0  0  0  0  0
  147.9246  136.3124  159.6149 N   0  0  0  0  0  0  0  0  0  0  0  0
  147.9269  135.1688  158.7997 C   0  0  0  0  0  0  0  0  0  0  0  0
  147.6042  134.0049  159.2611 N   0  0  0  0  0  0  0  0  0  0  0  0
  147.2365  133.8644  160.6025 C   0  0  0  0  0  0  0  0  0  0  0  0
  146.8710  132.4566  161.0386 C   0  0  0  0  0  0  0  0  0  0  0  0
  147.2104  134.9338  161.4442 C   0  0  0  0  0  0  0  0  0  0  0  0
  146.8120  134.8422  162.9119 C   0  0  0  0  0  0  0  0  0  0  0  0
  147.5734  136.2652  160.9324 C   0  0  0  0  0  0  0  0  0  0  0  0
  147.5609  137.2778  161.6352 O   0  0  0  0  0  0  0  0  0  0  0  0
  150.6811  141.5750  157.7268 C   0  0  0  0  0  0  0  0  0  0  0  0
  151.0150  142.9416  157.7977 C   0  0  0  0  0  0  0  0  0  0  0  0
  152.3224  146.5240  160.1576 H   0  0  0  0  0  0  0  0  0  0  0  0
  152.6116  144.9651  160.9250 H   0  0  0  0  0  0  0  0  0  0  0  0
  150.9933  145.3869  160.3655 H   0  0  0  0  0  0  0  0  0  0  0  0
  151.8289  145.3968  157.9845 H   0  0  0  0  0  0  0  0  0  0  0  0
  153.4308  144.9802  158.5388 H   0  0  0  0  0  0  0  0  0  0  0  0
  153.4299  142.7812  160.2089 H   0  0  0  0  0  0  0  0  0  0  0  0
  152.8447  140.3804  160.0832 H   0  0  0  0  0  0  0  0  0  0  0  0
  149.3131  139.4864  157.5263 H   0  0  0  0  0  0  0  0  0  0  0  0
  150.5764  138.6575  156.6191 H   0  0  0  0  0  0  0  0  0  0  0  0
  149.3844  136.8071  157.2366 H   0  0  0  0  0  0  0  0  0  0  0  0
  151.4166  136.8831  158.3794 H   0  0  0  0  0  0  0  0  0  0  0  0
  148.4153  138.3911  159.6835 H   0  0  0  0  0  0  0  0  0  0  0  0
  147.4791  137.8976  158.3241 H   0  0  0  0  0  0  0  0  0  0  0  0
  148.2136  135.3335  157.7596 H   0  0  0  0  0  0  0  0  0  0  0  0
  147.5449  132.1130  161.8236 H   0  0  0  0  0  0  0  0  0  0  0  0
  146.9395  131.7524  160.2084 H   0  0  0  0  0  0  0  0  0  0  0  0
  145.8490  132.4273  161.4175 H   0  0  0  0  0  0  0  0  0  0  0  0
  145.9130  135.4318  163.0931 H   0  0  0  0  0  0  0  0  0  0  0  0
  147.6087  135.2350  163.5445 H   0  0  0  0  0  0  0  0  0  0  0  0
  146.6096  133.8235  163.2388 H   0  0  0  0  0  0  0  0  0  0  0  0
  149.9126  141.2767  157.0304 H   0  0  0  0  0  0  0  0  0  0  0  0
  150.5025  143.6493  157.1626 H   0  0  0  0  0  0  0  0  0  0  0  0
  1  2  1  0  0  0  0
  1 23  1  0  0  0  0
  1 24  1  0  0  0  0
  1 25  1  0  0  0  0
  2  3  1  0  0  0  0
  2 26  1  0  0  0  0
  2 27  1  0  0  0  0
  3 22  1  0  0  0  0
  3  4  2  0  0  0  0
  4  5  1  0  0  0  0
  4 28  1  0  0  0  0
  5  6  2  0  0  0  0
  5 29  1  0  0  0  0
  6  7  1  0  0  0  0
  6 21  1  0  0  0  0
  7  8  1  0  0  0  0
  8  9  1  0  0  0  0
  8 30  1  0  0  0  0
  8 31  1  0  0  0  0
  9 10  1  0  0  0  0
  9 11  1  0  0  0  0
  9 32  1  0  0  0  0
 10 33  1  0  0  0  0
 11 12  1  0  0  0  0
 11 34  1  0  0  0  0
 11 35  1  0  0  0  0
 12 19  1  0  0  0  0
 12 13  1  0  0  0  0
 13 14  2  0  0  0  0
 13 36  1  0  0  0  0
 14 15  1  0  0  0  0
 15 16  1  0  0  0  0
 15 17  2  0  0  0  0
 16 37  1  0  0  0  0
 16 38  1  0  0  0  0
 16 39  1  0  0  0  0
 17 18  1  0  0  0  0
 17 19  1  0  0  0  0
 18 40  1  0  0  0  0
 18 41  1  0  0  0  0
 18 42  1  0  0  0  0
 19 20  2  0  0  0  0
 21 22  2  0  0  0  0
 21 43  1  0  0  0  0
 22 44  1  0  0  0  0
M  END
> <s_m_source_file>
AV-unprocessed.smi

> <i_m_source_file_index>
2809

> <i_lp_mmshare_version>
43012

> <i_f3d_flags>
0

> <s_epik_input>
W0NIM11bQ0gyXWMxW2NIXVtjSF1jKFtjSF1bY0hdMSlPW0NIMl1bQ0BIXShbT0hdKVtDSDJdbjJbY0hdbmMoW0NIM10pYyhbQ0gzXSljMj1P

> <s_epik_cmdline>
J2VwaWtfcHl0aG9uJywgJy1waCcsICc3LjAnLCAnLXRuJywgJzgnLCAnLW1hJywgJzIwMCcsICctbWV0YWxfYmluZGluZycsICctaW1hZScsICc8aW5maWxlLm1hZT4nLCAnLW9tYWUnLCAnPG91dGZpbGUubWFlPic=

> <r_lp_tautomer_probability>
1

> <r_epik_Ionization_Penalty>
3.74127e-05

> <r_epik_Ionization_Penalty_Charging>
8.43242e-08

> <r_epik_Ionization_Penalty_Neutral>
3.73284e-05

> <r_epik_State_Penalty>
-0

> <r_epik_Charging_Adjusted_Penalty>
8.43242e-08

> <i_epik_Tot_Q>
0

> <i_epik_Tot_abs_Q>
0

> <r_epik_Metal_State_Penalty>
-0

> <b_epik_Metal_Only>
0

> <s_lp_Force_Field>
OPLS_2005

> <r_lp_Energy>
23.3526

> <b_lp_Chiralities_Consistent>
1

> <s_lp_Variant>
AV-unprocessed.smi:2809-2

> <Gold.Version>
5.8.1

> <Gold.Id.Protein>
6NUR|6NUR_protein|mol2

> <Gold.PLP.Fitness>
55.8699

> <Gold.PLP.PLP>
-48.9637

> <Gold.PLP.part.hbond>
-3.1392

> <Gold.PLP.part.metal>
0.0000

> <Gold.PLP.part.buried>
-5.0830

> <Gold.PLP.part.nonpolar>
-40.2204

> <Gold.PLP.part.repulsive>
0.0000

> <Gold.PLP.ligand.clash>
0.0000

> <Gold.PLP.ligand.torsion>
0.7270

> <Gold.PLP.Chemscore.Hbond>
2.7680

> <Gold.PLP.Chemscore.CHOScore>
0.0000

> <Gold.PLP.Chemscore.Metal>
0.0000

> <Gold.Chemscore.Hbonds>
donor molecule, donor type, donor heavy atom, donor atom, acceptor molecule, acceptor atom, score
      P1  H  6896  6908       L1    10  0.72
      P1  H  6931  6943       L1    20  0.93
      P1  H  6934  6947       L1    20  0.77

> <Gold.PLP.Chemscore.Internal.Correction>
0.0562

> <Gold.Rescore>
     Score         DG    S(hbond)    S(metal)    S(lipo)     H(rot)  DE(clash)    DE(int)     intcor
     18.19     -19.55       2.04        0.00     116.09       2.47       0.20       1.16       ----

> <Gold.Chemscore.Fitness>
18.1921

> <Gold.Chemscore.DG>
-19.5535

> <Gold.Chemscore.ZeroCoef>
-5.4800

> <Gold.Chemscore.Hbond>
2.0367

> <Gold.Chemscore.Metal>
0.0000

> <Gold.Chemscore.Lipo>
116.0943

> <Gold.Chemscore.Internal_Hbond>
0.0000

> <Gold.Chemscore.DEClash>
0.2025

> <Gold.Chemscore.DEInternal>
1.1589

> <Gold.Chemscore.Rot>
2.4657

> <Gold.Chemscore.Internal.Correction>
   9.000000E+99

> <Gold.Chemscore.Hbonds>
donor molecule, donor type, donor heavy atom, donor atom, acceptor molecule, acceptor atom, score
      P1  H  6896  6908       L1    10  0.08
      P1  H  6931  6943       L1    20  0.89
      P1  H  6934  6947       L1    20  0.75

> <Gold.Chemscore.Hbond.Weighted>
-6.8026

> <Gold.Chemscore.Metal.Weighted>
-0.0000

> <Gold.Chemscore.Lipo.Weighted>
-13.5830

> <Gold.Chemscore.Internal_Hbond.Weighted>
0.0000

> <Gold.Chemscore.DEClash.Weighted>
0.2025

> <Gold.Chemscore.DEInternal.Weighted>
1.1589

> <Gold.Chemscore.Rot.Weighted>
6.3121

> <Gold.Chemscore.Internal.Correction.Weighted>
   9.000000E+99

> <Gold.Protein.RotatedTorsions>
[ 6907 6896 6895 6894 ] final -146.61 input  -60.11 | X-H torsion
[ 7974 7965 7964 7962 ] final  -52.03 input  175.53 | X-H torsion
[ 8008 7997 7996 7995 ] final   19.75 input   59.86 | X-H torsion
[ 10167 10162 10161 10158 ] final -133.18 input  -65.29 | X-H torsion
[ 10718 10713 10712 10709 ] final   48.88 input   66.30 | X-H torsion
[ 10763 10752 10751 10750 ] final  -30.51 input  -60.55 | X-H torsion
[ 11005 11000 10999 10996 ] final -158.21 input  -57.11 | X-H torsion

> <Gold.Protein.ActiveResidues>
 VAL166  LYS551  ARG553  GLY616  TRP617  ASP618  TYR619  PRO620  LYS621  CYS622 
 ASP623  PHE694  ASN695  SER759  ASP760  ASP761  ALA762  ILE779  LEU786  VAL792 
 PHE793  MET794  SER795  GLU796  ALA797  LYS798  CYS799  TRP800  GLU811  SER814 

> <Gold.Protein.RotatedAtoms>
  151.1441  133.4951  159.2596 H   0  0  0  0  0  0  0  0  0  0  0  0  # atno 6907 bound_to 6896
  151.1624  135.0279  159.8726 H   0  0  0  0  0  0  0  0  0  0  0  0  # atno 6908 bound_to 6896
  152.5463  134.1313  159.8493 H   0  0  0  0  0  0  0  0  0  0  0  0  # atno 6909 bound_to 6896
  145.9124  140.7904  142.9688 H   0  0  0  0  0  0  0  0  0  0  0  0  # atno 7974 bound_to 7965
  154.9253  140.3033  155.5195 H   0  0  0  0  0  0  0  0  0  0  0  0  # atno 8008 bound_to 7997
  156.3007  140.2364  156.4244 H   0  0  0  0  0  0  0  0  0  0  0  0  # atno 8009 bound_to 7997
  154.8290  140.0419  157.1453 H   0  0  0  0  0  0  0  0  0  0  0  0  # atno 8010 bound_to 7997
  139.9009  143.6609  152.2595 H   0  0  0  0  0  0  0  0  0  0  0  0  # atno 10167 bound_to 10162
  157.4731  130.8268  149.8010 H   0  0  0  0  0  0  0  0  0  0  0  0  # atno 10718 bound_to 10713
  153.7821  135.6904  153.4886 H   0  0  0  0  0  0  0  0  0  0  0  0  # atno 10763 bound_to 10752
  153.1805  135.4508  155.0020 H   0  0  0  0  0  0  0  0  0  0  0  0  # atno 10764 bound_to 10752
  154.8077  135.3364  154.7323 H   0  0  0  0  0  0  0  0  0  0  0  0  # atno 10765 bound_to 10752
  140.6561  134.4399  157.5235 H   0  0  0  0  0  0  0  0  0  0  0  0  # atno 11005 bound_to 11000
  144.6744  140.1847  143.7402 LP  0  0  0  0  0  0  0  0  0  0  0  0  # atno 17320 bound_to 7965
  145.8654  139.2244  143.1692 LP  0  0  0  0  0  0  0  0  0  0  0  0  # atno 17321 bound_to 7965
  139.7026  144.7633  151.1247 LP  0  0  0  0  0  0  0  0  0  0  0  0  # atno 17342 bound_to 10162
  140.7707  143.5437  150.9283 LP  0  0  0  0  0  0  0  0  0  0  0  0  # atno 17343 bound_to 10162
  156.0083  130.3845  150.2352 LP  0  0  0  0  0  0  0  0  0  0  0  0  # atno 17370 bound_to 10713
  157.0536  131.0069  151.3246 LP  0  0  0  0  0  0  0  0  0  0  0  0  # atno 17371 bound_to 10713
  139.9029  134.8515  156.1822 LP  0  0  0  0  0  0  0  0  0  0  0  0  # atno 17394 bound_to 11000
  141.0500  133.6893  156.1755 LP  0  0  0  0  0  0  0  0  0  0  0  0  # atno 17395 bound_to 11000

$$$$
