AV-unprocessed.smi:3133|AV-procd|sdf|11938|dock9
  -GOLD-   2272017323D 1   1.00000     0.00000
 Structure written by MMmdl.
 32 33  0  0  0  0  0  0  0  0  1 V2000
  151.5053  137.1965  158.3251 C   0  0  0  0  0  0  0  0  0  0  0  0
  151.1645  138.6287  157.8645 C   0  0  1  0  0  0  0  0  0  0  0  0
  152.1775  139.6650  158.3708 C   0  0  0  0  0  0  0  0  0  0  0  0
  153.3748  139.5514  158.1061 O   0  0  0  0  0  0  0  0  0  0  0  0
  151.6727  140.6893  159.0763 N   0  0  0  0  0  0  0  0  0  0  0  0
  152.4272  141.8424  159.5539 C   0  0  0  0  0  0  0  0  0  0  0  0
  151.6523  143.1493  159.3166 C   0  0  2  0  0  0  0  0  0  0  0  0
  152.3872  144.4254  159.7269 C   0  0  0  0  0  0  0  0  0  0  0  0
  151.2607  145.4134  159.9821 C   0  0  0  0  0  0  0  0  0  0  0  0
  150.0133  144.5336  160.1166 C   0  0  0  0  0  0  0  0  0  0  0  0
  150.4920  143.1954  160.1298 O   0  0  0  0  0  0  0  0  0  0  0  0
  151.0356  138.7383  156.4159 N   0  0  0  0  0  0  0  0  0  0  0  0
  150.8952  139.8226  155.6499 C   0  0  0  0  0  0  0  0  0  0  0  0
  150.8694  139.5656  154.3498 N   0  0  0  0  0  0  0  0  0  0  0  0
  151.0231  138.2087  154.3830 C   0  0  0  0  0  0  0  0  0  0  0  0
  151.1410  137.6641  155.5937 N   0  0  0  0  0  0  0  0  0  0  0  0
  151.5494  137.1356  159.4129 H   0  0  0  0  0  0  0  0  0  0  0  0
  152.4666  136.8559  157.9380 H   0  0  0  0  0  0  0  0  0  0  0  0
  150.7454  136.4900  157.9901 H   0  0  0  0  0  0  0  0  0  0  0  0
  150.1912  138.8793  158.2898 H   0  0  0  0  0  0  0  0  0  0  0  0
  150.6788  140.6958  159.2536 H   0  0  0  0  0  0  0  0  0  0  0  0
  152.6000  141.7107  160.6222 H   0  0  0  0  0  0  0  0  0  0  0  0
  153.4136  141.8915  159.0894 H   0  0  0  0  0  0  0  0  0  0  0  0
  151.3456  143.2181  158.2709 H   0  0  0  0  0  0  0  0  0  0  0  0
  152.9418  144.2592  160.6514 H   0  0  0  0  0  0  0  0  0  0  0  0
  153.0925  144.7701  158.9697 H   0  0  0  0  0  0  0  0  0  0  0  0
  151.4480  145.9950  160.8853 H   0  0  0  0  0  0  0  0  0  0  0  0
  151.1487  146.1102  159.1507 H   0  0  0  0  0  0  0  0  0  0  0  0
  149.4430  144.7516  161.0197 H   0  0  0  0  0  0  0  0  0  0  0  0
  149.3550  144.6700  159.2574 H   0  0  0  0  0  0  0  0  0  0  0  0
  150.8180  140.8220  156.0520 H   0  0  0  0  0  0  0  0  0  0  0  0
  151.0571  137.6049  153.4881 H   0  0  0  0  0  0  0  0  0  0  0  0
  1  2  1  0  0  0  0
  1 17  1  0  0  0  0
  1 18  1  0  0  0  0
  1 19  1  0  0  0  0
  2  3  1  0  0  0  0
  2 12  1  0  0  0  0
  2 20  1  0  0  0  0
  3  4  2  0  0  0  0
  3  5  1  0  0  0  0
  5  6  1  0  0  0  0
  5 21  1  0  0  0  0
  6  7  1  0  0  0  0
  6 22  1  0  0  0  0
  6 23  1  0  0  0  0
  7 11  1  0  0  0  0
  7  8  1  0  0  0  0
  7 24  1  0  0  0  0
  8  9  1  0  0  0  0
  8 25  1  0  0  0  0
  8 26  1  0  0  0  0
  9 10  1  0  0  0  0
  9 27  1  0  0  0  0
  9 28  1  0  0  0  0
 10 11  1  0  0  0  0
 10 29  1  0  0  0  0
 10 30  1  0  0  0  0
 12 16  1  0  0  0  0
 12 13  1  0  0  0  0
 13 14  2  0  0  0  0
 13 31  1  0  0  0  0
 14 15  1  0  0  0  0
 15 16  2  0  0  0  0
 15 32  1  0  0  0  0
M  END
> <s_m_source_file>
AV-unprocessed.smi

> <i_m_source_file_index>
3133

> <i_lp_mmshare_version>
43012

> <i_f3d_flags>
0

> <s_epik_input>
bjFbY0hdbltjSF1uMVtDQEhdKFtDSDNdKUMoPU8pW05IXVtDSDJdW0NAQEhdMltDSDJdW0NIMl1bQ0gyXU8y

> <s_epik_cmdline>
J2VwaWtfcHl0aG9uJywgJy1waCcsICc3LjAnLCAnLXRuJywgJzgnLCAnLW1hJywgJzIwMCcsICctbWV0YWxfYmluZGluZycsICctaW1hZScsICc8aW5maWxlLm1hZT4nLCAnLW9tYWUnLCAnPG91dGZpbGUubWFlPic=

> <r_lp_tautomer_probability>
1

> <r_epik_Ionization_Penalty>
1.2027e-05

> <r_epik_Ionization_Penalty_Charging>
0

> <r_epik_Ionization_Penalty_Neutral>
1.2027e-05

> <r_epik_State_Penalty>
-0

> <r_epik_Charging_Adjusted_Penalty>
0

> <i_epik_Tot_Q>
0

> <i_epik_Tot_abs_Q>
0

> <r_epik_Metal_State_Penalty>
-0

> <b_epik_Metal_Only>
0

> <s_lp_Force_Field>
OPLS_2005

> <r_lp_Energy>
22.7356

> <b_lp_Chiralities_Consistent>
1

> <s_lp_Variant>
AV-unprocessed.smi:3133-2

> <Gold.Version>
5.8.1

> <Gold.Id.Protein>
6NUR|6NUR_protein|mol2

> <Gold.PLP.Fitness>
38.7219

> <Gold.PLP.PLP>
-30.0965

> <Gold.PLP.part.hbond>
-3.0000

> <Gold.PLP.part.metal>
0.0000

> <Gold.PLP.part.buried>
-4.3923

> <Gold.PLP.part.nonpolar>
-22.9619

> <Gold.PLP.part.repulsive>
0.4364

> <Gold.PLP.ligand.clash>
0.0000

> <Gold.PLP.ligand.torsion>
0.3837

> <Gold.PLP.Chemscore.Hbond>
2.0000

> <Gold.PLP.Chemscore.CHOScore>
1.0921

> <Gold.PLP.Chemscore.Metal>
0.0000

> <Gold.Chemscore.Hbonds>
donor molecule, donor type, donor heavy atom, donor atom, acceptor molecule, acceptor atom, score
      P1  H  7989  7998       L1    14  1.00
      P1  H  7997  8008       L1     4  1.00
      L1  C    15    32       P1  7949  0.90

> <Gold.PLP.Chemscore.Internal.Correction>
0.1166

> <Gold.Rescore>
     Score         DG    S(hbond)    S(metal)    S(lipo)     H(rot)  DE(clash)    DE(int)     intcor
     11.67     -12.79       1.74        0.00      62.11       2.26       0.06       1.06       ----

> <Gold.Chemscore.Fitness>
11.6726

> <Gold.Chemscore.DG>
-12.7873

> <Gold.Chemscore.ZeroCoef>
-5.4800

> <Gold.Chemscore.Hbond>
1.7409

> <Gold.Chemscore.Metal>
0.0000

> <Gold.Chemscore.Lipo>
62.1143

> <Gold.Chemscore.Internal_Hbond>
0.0000

> <Gold.Chemscore.DEClash>
0.0580

> <Gold.Chemscore.DEInternal>
1.0567

> <Gold.Chemscore.Rot>
2.2558

> <Gold.Chemscore.Internal.Correction>
   9.000000E+99

> <Gold.Chemscore.Hbonds>
donor molecule, donor type, donor heavy atom, donor atom, acceptor molecule, acceptor atom, score
      P1  H  7989  7998       L1    14  0.74
      P1  H  7997  8008       L1     4  0.97

> <Gold.Chemscore.Hbond.Weighted>
-5.8147

> <Gold.Chemscore.Metal.Weighted>
-0.0000

> <Gold.Chemscore.Lipo.Weighted>
-7.2674

> <Gold.Chemscore.Internal_Hbond.Weighted>
0.0000

> <Gold.Chemscore.DEClash.Weighted>
0.0580

> <Gold.Chemscore.DEInternal.Weighted>
1.0567

> <Gold.Chemscore.Rot.Weighted>
5.7747

> <Gold.Chemscore.Internal.Correction.Weighted>
   9.000000E+99

> <Gold.Protein.RotatedTorsions>
[ 6907 6896 6895 6894 ] final  167.40 input  -60.11 | X-H torsion
[ 7974 7965 7964 7962 ] final -117.22 input  175.53 | X-H torsion
[ 8008 7997 7996 7995 ] final -102.72 input   59.86 | X-H torsion
[ 10167 10162 10161 10158 ] final -101.47 input  -65.29 | X-H torsion
[ 10718 10713 10712 10709 ] final  160.75 input   66.30 | X-H torsion
[ 10763 10752 10751 10750 ] final -178.45 input  -60.55 | X-H torsion
[ 11005 11000 10999 10996 ] final  -54.67 input  -57.11 | X-H torsion

> <Gold.Protein.ActiveResidues>
 VAL166  LYS551  ARG553  GLY616  TRP617  ASP618  TYR619  PRO620  LYS621  CYS622 
 ASP623  PHE694  ASN695  SER759  ASP760  ASP761  ALA762  ILE779  LEU786  VAL792 
 PHE793  MET794  SER795  GLU796  ALA797  LYS798  CYS799  TRP800  GLU811  SER814 

> <Gold.Protein.RotatedAtoms>
  151.8638  133.3462  159.3712 H   0  0  0  0  0  0  0  0  0  0  0  0  # atno 6907 bound_to 6896
  150.7171  134.5180  159.5649 H   0  0  0  0  0  0  0  0  0  0  0  0  # atno 6908 bound_to 6896
  152.2699  134.7945  160.0467 H   0  0  0  0  0  0  0  0  0  0  0  0  # atno 6909 bound_to 6896
  145.0877  140.8469  143.4001 H   0  0  0  0  0  0  0  0  0  0  0  0  # atno 7974 bound_to 7965
  154.8606  140.0427  157.1663 H   0  0  0  0  0  0  0  0  0  0  0  0  # atno 8008 bound_to 7997
  154.8844  140.2977  155.5386 H   0  0  0  0  0  0  0  0  0  0  0  0  # atno 8009 bound_to 7997
  156.2998  140.2405  156.3851 H   0  0  0  0  0  0  0  0  0  0  0  0  # atno 8010 bound_to 7997
  140.2410  143.3539  152.0802 H   0  0  0  0  0  0  0  0  0  0  0  0  # atno 10167 bound_to 10162
  157.1460  131.0552  151.2303 H   0  0  0  0  0  0  0  0  0  0  0  0  # atno 10718 bound_to 10713
  154.5475  135.2810  155.1039 H   0  0  0  0  0  0  0  0  0  0  0  0  # atno 10763 bound_to 10752
  154.2498  135.6341  153.5240 H   0  0  0  0  0  0  0  0  0  0  0  0  # atno 10764 bound_to 10752
  152.9994  135.5580  154.6032 H   0  0  0  0  0  0  0  0  0  0  0  0  # atno 10765 bound_to 10752
  141.1037  133.6615  156.4354 H   0  0  0  0  0  0  0  0  0  0  0  0  # atno 11005 bound_to 11000
  145.1103  139.2762  143.5641 LP  0  0  0  0  0  0  0  0  0  0  0  0  # atno 17320 bound_to 7965
  146.3531  140.0697  142.8624 LP  0  0  0  0  0  0  0  0  0  0  0  0  # atno 17321 bound_to 7965
  139.5077  144.6837  151.5942 LP  0  0  0  0  0  0  0  0  0  0  0  0  # atno 17342 bound_to 10162
  140.6114  143.9430  150.6456 LP  0  0  0  0  0  0  0  0  0  0  0  0  # atno 17343 bound_to 10162
  157.4264  130.7466  149.6954 LP  0  0  0  0  0  0  0  0  0  0  0  0  # atno 17370 bound_to 10713
  155.9779  130.4057  150.3680 LP  0  0  0  0  0  0  0  0  0  0  0  0  # atno 17371 bound_to 10713
  140.4958  134.6533  157.5229 LP  0  0  0  0  0  0  0  0  0  0  0  0  # atno 17394 bound_to 11000
  139.9898  134.7003  155.9710 LP  0  0  0  0  0  0  0  0  0  0  0  0  # atno 17395 bound_to 11000

$$$$
