AV-unprocessed.smi:1509|AV-procd|sdf|6090|dock10
  -GOLD-   22720 6213D 1   1.00000     0.00000
 Structure written by MMmdl.
 42 43  0  0  0  0  0  0  0  0  2 V2000
  145.7389  132.7741  150.4401 C   0  0  0  0  0  0  0  0  0  0  0  0
  146.3654  133.8080  151.3865 C   0  0  2  0  0  0  0  0  0  0  0  0
  146.3571  133.3139  152.8427 C   0  0  0  0  0  0  0  0  0  0  0  0
  146.9648  134.3762  153.7667 C   0  0  0  0  0  0  0  0  0  0  0  0
  146.2441  135.7237  153.6041 C   0  0  0  0  0  0  0  0  0  0  0  0
  146.2697  136.1794  152.1900 N   0  3  2  0  0  0  0  0  0  0  0  0
  145.6950  137.5396  152.0306 C   0  0  0  0  0  0  0  0  0  0  0  0
  146.7754  138.6240  151.8766 C   0  0  0  0  0  0  0  0  0  0  0  0
  146.9414  139.4635  153.1545 C   0  0  0  0  0  0  0  0  0  0  0  0
  148.3361  139.8148  153.3956 N   0  0  0  0  0  0  0  0  0  0  0  0
  148.8456  140.1672  154.5864 C   0  0  0  0  0  0  0  0  0  0  0  0
  148.1706  140.2514  155.6122 O   0  0  0  0  0  0  0  0  0  0  0  0
  150.3451  140.4644  154.6308 C   0  0  0  0  0  0  0  0  0  0  0  0
  151.1156  139.2371  154.7047 N   0  0  0  0  0  0  0  0  0  0  0  0
  151.0269  138.1022  154.0077 C   0  0  0  0  0  0  0  0  0  0  0  0
  151.9296  137.2158  154.3989 N   0  0  0  0  0  0  0  0  0  0  0  0
  152.6067  137.8810  155.4075 N   0  0  0  0  0  0  0  0  0  0  0  0
  152.1284  139.0809  155.5930 N   0  0  0  0  0  0  0  0  0  0  0  0
  145.6554  135.1730  151.2816 C   0  0  0  0  0  0  0  0  0  0  0  0
  144.6928  132.5913  150.6880 H   0  0  0  0  0  0  0  0  0  0  0  0
  146.2654  131.8209  150.4959 H   0  0  0  0  0  0  0  0  0  0  0  0
  145.7813  133.1122  149.4043 H   0  0  0  0  0  0  0  0  0  0  0  0
  147.4043  133.9441  151.0815 H   0  0  0  0  0  0  0  0  0  0  0  0
  145.3355  133.0948  153.1571 H   0  0  0  0  0  0  0  0  0  0  0  0
  146.9170  132.3822  152.9304 H   0  0  0  0  0  0  0  0  0  0  0  0
  146.9060  134.0446  154.8038 H   0  0  0  0  0  0  0  0  0  0  0  0
  148.0251  134.4968  153.5403 H   0  0  0  0  0  0  0  0  0  0  0  0
  145.2100  135.6421  153.9433 H   0  0  0  0  0  0  0  0  0  0  0  0
  146.7297  136.4645  154.2403 H   0  0  0  0  0  0  0  0  0  0  0  0
  145.0058  137.5549  151.1848 H   0  0  0  0  0  0  0  0  0  0  0  0
  145.1022  137.7830  152.9135 H   0  0  0  0  0  0  0  0  0  0  0  0
  147.7278  138.1551  151.6256 H   0  0  0  0  0  0  0  0  0  0  0  0
  146.5288  139.2853  151.0466 H   0  0  0  0  0  0  0  0  0  0  0  0
  146.3358  140.3697  153.0986 H   0  0  0  0  0  0  0  0  0  0  0  0
  146.5811  138.9030  154.0174 H   0  0  0  0  0  0  0  0  0  0  0  0
  148.9625  139.7710  152.6045 H   0  0  0  0  0  0  0  0  0  0  0  0
  150.6575  141.0204  153.7456 H   0  0  0  0  0  0  0  0  0  0  0  0
  150.5694  141.0875  155.4979 H   0  0  0  0  0  0  0  0  0  0  0  0
  150.3058  137.9261  153.2231 H   0  0  0  0  0  0  0  0  0  0  0  0
  145.7087  135.5182  150.2497 H   0  0  0  0  0  0  0  0  0  0  0  0
  144.5962  135.0665  151.5221 H   0  0  0  0  0  0  0  0  0  0  0  0
  147.2450  136.2485  151.9364 H   0  0  0  0  0  0  0  0  0  0  0  0
  1  2  1  0  0  0  0
  1 20  1  0  0  0  0
  1 21  1  0  0  0  0
  1 22  1  0  0  0  0
  2 19  1  0  0  0  0
  2  3  1  0  0  0  0
  2 23  1  0  0  0  0
  3  4  1  0  0  0  0
  3 24  1  0  0  0  0
  3 25  1  0  0  0  0
  4  5  1  0  0  0  0
  4 26  1  0  0  0  0
  4 27  1  0  0  0  0
  5  6  1  0  0  0  0
  5 28  1  0  0  0  0
  5 29  1  0  0  0  0
  6  7  1  0  0  0  0
  6 19  1  0  0  0  0
  6 42  1  0  0  0  0
  7  8  1  0  0  0  0
  7 30  1  0  0  0  0
  7 31  1  0  0  0  0
  8  9  1  0  0  0  0
  8 32  1  0  0  0  0
  8 33  1  0  0  0  0
  9 10  1  0  0  0  0
  9 34  1  0  0  0  0
  9 35  1  0  0  0  0
 10 11  1  0  0  0  0
 10 36  1  0  0  0  0
 11 12  2  0  0  0  0
 11 13  1  0  0  0  0
 13 14  1  0  0  0  0
 13 37  1  0  0  0  0
 13 38  1  0  0  0  0
 14 18  1  0  0  0  0
 14 15  1  0  0  0  0
 15 16  2  0  0  0  0
 15 39  1  0  0  0  0
 16 17  1  0  0  0  0
 17 18  2  0  0  0  0
 19 40  1  0  0  0  0
 19 41  1  0  0  0  0
M  CHG  1   6   1
M  END
> <s_m_source_file>
AV-unprocessed.smi

> <i_m_source_file_index>
1509

> <i_lp_mmshare_version>
43012

> <i_f3d_flags>
0

> <s_epik_input>
W0NIM11bQ0BASF0xW0NIMl1bQ0gyXVtDSDJdTihbQ0gyXTEpW0NIMl1bQ0gyXVtDSDJdW05IXUMoPU8pW0NIMl1uMltjSF1ubm4y

> <s_epik_cmdline>
J2VwaWtfcHl0aG9uJywgJy1waCcsICc3LjAnLCAnLXRuJywgJzgnLCAnLW1hJywgJzIwMCcsICctbWV0YWxfYmluZGluZycsICctaW1hZScsICc8aW5maWxlLm1hZT4nLCAnLW9tYWUnLCAnPG91dGZpbGUubWFlPic=

> <r_lp_tautomer_probability>
1

> <r_epik_Ionization_Penalty>
0.00044216

> <r_epik_Ionization_Penalty_Charging>
0.000440775

> <r_epik_Ionization_Penalty_Neutral>
1.38512e-06

> <r_epik_State_Penalty>
0.000271914

> <r_epik_Charging_Adjusted_Penalty>
0.000712689

> <i_epik_Tot_Q>
1

> <i_epik_Tot_abs_Q>
1

> <r_epik_Metal_State_Penalty>
-0

> <b_epik_Metal_Only>
0

> <s_lp_Force_Field>
OPLS_2005

> <r_lp_Energy>
19.8667

> <b_lp_Chiralities_Consistent>
1

> <s_lp_Variant>
AV-unprocessed.smi:1509-1

> <Gold.Version>
5.8.1

> <Gold.Id.Protein>
6NUR|6NUR_protein|mol2

> <Gold.PLP.Fitness>
44.4091

> <Gold.PLP.PLP>
-32.9316

> <Gold.PLP.part.hbond>
-3.8042

> <Gold.PLP.part.metal>
0.0000

> <Gold.PLP.part.buried>
0.5408

> <Gold.PLP.part.nonpolar>
-29.4657

> <Gold.PLP.part.repulsive>
0.3128

> <Gold.PLP.ligand.clash>
0.0000

> <Gold.PLP.ligand.torsion>
1.8199

> <Gold.PLP.Chemscore.Hbond>
4.0000

> <Gold.PLP.Chemscore.CHOScore>
1.0221

> <Gold.PLP.Chemscore.Metal>
0.0000

> <Gold.Chemscore.Hbonds>
donor molecule, donor type, donor heavy atom, donor atom, acceptor molecule, acceptor atom, score
      L1  H     6    42       P1  7948  2.00
      L1  H    10    36       P1  7957  1.00
      P1  H 10752 10765       L1    16  0.99
      L1  C    15    39       P1  7948  0.88
      L1  C    15    39       P1  7949  0.11

> <Gold.PLP.Chemscore.Internal.Correction>
0.0511

> <Gold.Rescore>
     Score         DG    S(hbond)    S(metal)    S(lipo)     H(rot)  DE(clash)    DE(int)     intcor
     12.45     -14.20       2.78        0.00      60.09       2.97       0.13       1.62       ----

> <Gold.Chemscore.Fitness>
12.4484

> <Gold.Chemscore.DG>
-14.1976

> <Gold.Chemscore.ZeroCoef>
-5.4800

> <Gold.Chemscore.Hbond>
2.7800

> <Gold.Chemscore.Metal>
0.0000

> <Gold.Chemscore.Lipo>
60.0900

> <Gold.Chemscore.Internal_Hbond>
0.0000

> <Gold.Chemscore.DEClash>
0.1305

> <Gold.Chemscore.DEInternal>
1.6187

> <Gold.Chemscore.Rot>
2.9680

> <Gold.Chemscore.Internal.Correction>
   9.000000E+99

> <Gold.Chemscore.Hbonds>
donor molecule, donor type, donor heavy atom, donor atom, acceptor molecule, acceptor atom, score
      L1  H     6    42       P1  7948  1.00
      L1  H    10    36       P1  7957  0.98
      P1  H 10752 10765       L1    16  0.28

> <Gold.Chemscore.Hbond.Weighted>
-9.2851

> <Gold.Chemscore.Metal.Weighted>
-0.0000

> <Gold.Chemscore.Lipo.Weighted>
-7.0305

> <Gold.Chemscore.Internal_Hbond.Weighted>
0.0000

> <Gold.Chemscore.DEClash.Weighted>
0.1305

> <Gold.Chemscore.DEInternal.Weighted>
1.6187

> <Gold.Chemscore.Rot.Weighted>
7.5980

> <Gold.Chemscore.Internal.Correction.Weighted>
   9.000000E+99

> <Gold.Protein.RotatedTorsions>
[ 6907 6896 6895 6894 ] final  -12.60 input  -60.11 | X-H torsion
[ 7974 7965 7964 7962 ] final   85.36 input  175.53 | X-H torsion
[ 8008 7997 7996 7995 ] final   98.69 input   59.86 | X-H torsion
[ 10167 10162 10161 10158 ] final   57.78 input  -65.29 | X-H torsion
[ 10718 10713 10712 10709 ] final  163.28 input   66.30 | X-H torsion
[ 10763 10752 10751 10750 ] final  158.45 input  -60.55 | X-H torsion
[ 11005 11000 10999 10996 ] final  -82.73 input  -57.11 | X-H torsion

> <Gold.Protein.ActiveResidues>
 VAL166  LYS551  ARG553  GLY616  TRP617  ASP618  TYR619  PRO620  LYS621  CYS622 
 ASP623  PHE694  ASN695  SER759  ASP760  ASP761  ALA762  ILE779  LEU786  VAL792 
 PHE793  MET794  SER795  GLU796  ALA797  LYS798  CYS799  TRP800  GLU811  SER814 

> <Gold.Protein.RotatedAtoms>
  151.3680  135.0917  159.9455 H   0  0  0  0  0  0  0  0  0  0  0  0  # atno 6907 bound_to 6896
  152.5143  133.9193  159.7537 H   0  0  0  0  0  0  0  0  0  0  0  0  # atno 6908 bound_to 6896
  150.9601  133.6400  159.2785 H   0  0  0  0  0  0  0  0  0  0  0  0  # atno 6909 bound_to 6896
  145.5865  139.2332  143.2323 H   0  0  0  0  0  0  0  0  0  0  0  0  # atno 7974 bound_to 7965
  156.1030  140.3240  155.7967 H   0  0  0  0  0  0  0  0  0  0  0  0  # atno 8008 bound_to 7997
  155.4805  140.0553  157.2985 H   0  0  0  0  0  0  0  0  0  0  0  0  # atno 8009 bound_to 7997
  154.4709  140.2011  156.0013 H   0  0  0  0  0  0  0  0  0  0  0  0  # atno 8010 bound_to 7997
  140.1943  144.4054  150.6557 H   0  0  0  0  0  0  0  0  0  0  0  0  # atno 10167 bound_to 10162
  157.1106  131.0467  151.2458 H   0  0  0  0  0  0  0  0  0  0  0  0  # atno 10718 bound_to 10713
  154.2162  135.2784  155.2941 H   0  0  0  0  0  0  0  0  0  0  0  0  # atno 10763 bound_to 10752
  154.5738  135.5610  153.7124 H   0  0  0  0  0  0  0  0  0  0  0  0  # atno 10764 bound_to 10752
  153.0052  135.6328  154.2302 H   0  0  0  0  0  0  0  0  0  0  0  0  # atno 10765 bound_to 10752
  141.1661  133.7259  156.8615 H   0  0  0  0  0  0  0  0  0  0  0  0  # atno 11005 bound_to 11000
  146.1678  140.6691  142.9247 LP  0  0  0  0  0  0  0  0  0  0  0  0  # atno 17320 bound_to 7965
  144.7370  140.4837  143.6896 LP  0  0  0  0  0  0  0  0  0  0  0  0  # atno 17321 bound_to 7965
  140.6434  143.2208  151.6239 LP  0  0  0  0  0  0  0  0  0  0  0  0  # atno 17342 bound_to 10162
  139.5243  144.3107  152.0995 LP  0  0  0  0  0  0  0  0  0  0  0  0  # atno 17343 bound_to 10162
  157.4562  130.7627  149.7195 LP  0  0  0  0  0  0  0  0  0  0  0  0  # atno 17370 bound_to 10713
  155.9851  130.3986  150.3277 LP  0  0  0  0  0  0  0  0  0  0  0  0  # atno 17371 bound_to 10713
  140.1845  134.9010  157.2987 LP  0  0  0  0  0  0  0  0  0  0  0  0  # atno 17394 bound_to 11000
  140.2358  134.3854  155.7501 LP  0  0  0  0  0  0  0  0  0  0  0  0  # atno 17395 bound_to 11000

$$$$
