AV-unprocessed.smi:522|AV-procd|sdf|2802|dock6
  -GOLD-   2262023273D 1   1.00000     0.00000
 Structure written by MMmdl.
 41 42  0  0  0  0  0  0  0  0  1 V2000
  151.6666  138.9688  154.9935 C   0  0  0  0  0  0  0  0  0  0  0  0
  150.7744  140.0150  154.6538 O   0  0  0  0  0  0  0  0  0  0  0  0
  150.6685  140.9935  155.6750 C   0  0  0  0  0  0  0  0  0  0  0  0
  150.3184  140.3196  157.0089 C   0  0  0  0  0  0  0  0  0  0  0  0
  151.2195  140.7244  158.0779 N   0  0  0  0  0  0  0  0  0  0  0  0
  151.9477  139.9362  158.9068 C   0  0  0  0  0  0  0  0  0  0  0  0
  151.9057  138.1745  158.8047 S   0  0  0  0  0  0  0  0  0  0  0  0
  153.3845  137.8147  159.8053 C   0  0  0  0  0  0  0  0  0  0  0  0
  154.6720  137.7506  158.9709 C   0  0  0  0  0  0  0  0  0  0  0  0
  155.0729  138.7748  158.4162 O   0  0  0  0  0  0  0  0  0  0  0  0
  155.3311  136.4233  158.8650 C   0  0  0  0  0  0  0  0  0  0  0  0
  154.8475  135.3085  159.6177 C   0  0  0  0  0  0  0  0  0  0  0  0
  154.4454  134.4015  160.2142 N   0  0  0  0  0  0  0  0  0  0  0  0
  156.4129  136.2120  158.0683 C   0  0  0  0  0  0  0  0  0  0  0  0
  157.1096  137.2530  157.2003 C   0  0  0  0  0  0  0  0  0  0  0  0
  157.0173  134.9703  157.9758 N   0  0  0  0  0  0  0  0  0  0  0  0
  152.7021  140.5787  159.7995 N   0  0  0  0  0  0  0  0  0  0  0  0
  152.4344  141.9056  159.5273 C   0  0  0  0  0  0  0  0  0  0  0  0
  152.9247  143.0849  160.1327 C   0  0  0  0  0  0  0  0  0  0  0  0
  152.5007  144.3503  159.6767 C   0  0  0  0  0  0  0  0  0  0  0  0
  151.5833  144.4546  158.6111 C   0  0  0  0  0  0  0  0  0  0  0  0
  151.0827  143.2922  157.9940 C   0  0  0  0  0  0  0  0  0  0  0  0
  151.5089  142.0317  158.4534 C   0  0  0  0  0  0  0  0  0  0  0  0
  151.7066  138.2432  154.1811 H   0  0  0  0  0  0  0  0  0  0  0  0
  151.3393  138.4483  155.8945 H   0  0  0  0  0  0  0  0  0  0  0  0
  152.6762  139.3491  155.1548 H   0  0  0  0  0  0  0  0  0  0  0  0
  151.6102  141.5353  155.7715 H   0  0  0  0  0  0  0  0  0  0  0  0
  149.8989  141.7220  155.4146 H   0  0  0  0  0  0  0  0  0  0  0  0
  149.2897  140.5430  157.2908 H   0  0  0  0  0  0  0  0  0  0  0  0
  150.3731  139.2358  156.9037 H   0  0  0  0  0  0  0  0  0  0  0  0
  153.4808  138.5723  160.5832 H   0  0  0  0  0  0  0  0  0  0  0  0
  153.2437  136.8561  160.3044 H   0  0  0  0  0  0  0  0  0  0  0  0
  157.4296  138.1044  157.8022 H   0  0  0  0  0  0  0  0  0  0  0  0
  156.4424  137.6082  156.4147 H   0  0  0  0  0  0  0  0  0  0  0  0
  157.9975  136.8471  156.7134 H   0  0  0  0  0  0  0  0  0  0  0  0
  156.6781  134.1737  158.4964 H   0  0  0  0  0  0  0  0  0  0  0  0
  157.8220  134.8077  157.3868 H   0  0  0  0  0  0  0  0  0  0  0  0
  153.6272  143.0155  160.9500 H   0  0  0  0  0  0  0  0  0  0  0  0
  152.8809  145.2454  160.1470 H   0  0  0  0  0  0  0  0  0  0  0  0
  151.2641  145.4278  158.2676 H   0  0  0  0  0  0  0  0  0  0  0  0
  150.3792  143.3683  157.1781 H   0  0  0  0  0  0  0  0  0  0  0  0
  1  2  1  0  0  0  0
  1 24  1  0  0  0  0
  1 25  1  0  0  0  0
  1 26  1  0  0  0  0
  2  3  1  0  0  0  0
  3  4  1  0  0  0  0
  3 27  1  0  0  0  0
  3 28  1  0  0  0  0
  4  5  1  0  0  0  0
  4 29  1  0  0  0  0
  4 30  1  0  0  0  0
  5 23  1  0  0  0  0
  5  6  1  0  0  0  0
  6  7  1  0  0  0  0
  6 17  2  0  0  0  0
  7  8  1  0  0  0  0
  8  9  1  0  0  0  0
  8 31  1  0  0  0  0
  8 32  1  0  0  0  0
  9 10  2  0  0  0  0
  9 11  1  0  0  0  0
 11 12  1  0  0  0  0
 11 14  2  0  0  0  0
 12 13  3  0  0  0  0
 14 15  1  0  0  0  0
 14 16  1  0  0  0  0
 15 33  1  0  0  0  0
 15 34  1  0  0  0  0
 15 35  1  0  0  0  0
 16 36  1  0  0  0  0
 16 37  1  0  0  0  0
 17 18  1  0  0  0  0
 18 23  2  0  0  0  0
 18 19  1  0  0  0  0
 19 20  2  0  0  0  0
 19 38  1  0  0  0  0
 20 21  1  0  0  0  0
 20 39  1  0  0  0  0
 21 22  2  0  0  0  0
 21 40  1  0  0  0  0
 22 23  1  0  0  0  0
 22 41  1  0  0  0  0
M  END
> <s_m_source_file>
AV-unprocessed.smi

> <i_m_source_file_index>
522

> <i_lp_mmshare_version>
43012

> <i_f3d_flags>
0

> <s_epik_input>
W2NIXTFbY0hdW2NIXVtjSF1jKGMxMiluKFtDSDJdW0NIMl1PW0NIM10pYyhuMilTW0NIMl1DKD1PKS9DKEMjTik9QygvW0NIM10pW05IMl0=

> <s_epik_cmdline>
J2VwaWtfcHl0aG9uJywgJy1waCcsICc3LjAnLCAnLXRuJywgJzgnLCAnLW1hJywgJzIwMCcsICctbWV0YWxfYmluZGluZycsICctaW1hZScsICc8aW5maWxlLm1hZT4nLCAnLW9tYWUnLCAnPG91dGZpbGUubWFlPic=

> <r_lp_tautomer_probability>
0.5

> <r_epik_Ionization_Penalty>
0.0129021

> <r_epik_Ionization_Penalty_Charging>
0

> <r_epik_Ionization_Penalty_Neutral>
0.0129021

> <r_epik_State_Penalty>
0.42069

> <r_epik_Charging_Adjusted_Penalty>
0.42069

> <i_epik_Tot_Q>
0

> <i_epik_Tot_abs_Q>
0

> <r_epik_Metal_State_Penalty>
0.41068

> <b_epik_Metal_Only>
0

> <s_lp_Force_Field>
OPLS_2005

> <r_lp_Energy>
16.5573

> <b_lp_Chiralities_Consistent>
1

> <s_lp_Variant>
AV-unprocessed.smi:522-2

> <Gold.Version>
5.8.1

> <Gold.Id.Protein>
6NUR|6NUR_protein|mol2

> <Gold.PLP.Fitness>
47.8140

> <Gold.PLP.PLP>
-40.3612

> <Gold.PLP.part.hbond>
-2.9175

> <Gold.PLP.part.metal>
0.0000

> <Gold.PLP.part.buried>
-6.0572

> <Gold.PLP.part.nonpolar>
-31.5117

> <Gold.PLP.part.repulsive>
0.0892

> <Gold.PLP.ligand.clash>
0.0000

> <Gold.PLP.ligand.torsion>
0.8283

> <Gold.PLP.Chemscore.Hbond>
3.0000

> <Gold.PLP.Chemscore.CHOScore>
0.0000

> <Gold.PLP.Chemscore.Metal>
0.0000

> <Gold.Chemscore.Hbonds>
donor molecule, donor type, donor heavy atom, donor atom, acceptor molecule, acceptor atom, score
      P1  H  6896  6908       L1    13  1.00
      P1  H  7989  7998       L1     2  1.00
      P1  H  7997  8010       L1    10  1.00

> <Gold.PLP.Chemscore.Internal.Correction>
0.1094

> <Gold.Rescore>
     Score         DG    S(hbond)    S(metal)    S(lipo)     H(rot)  DE(clash)    DE(int)     intcor
     16.53     -18.72       2.08        0.00     104.81       2.33       0.01       2.17       ----

> <Gold.Chemscore.Fitness>
16.5310

> <Gold.Chemscore.DG>
-18.7165

> <Gold.Chemscore.ZeroCoef>
-5.4800

> <Gold.Chemscore.Hbond>
2.0759

> <Gold.Chemscore.Metal>
0.0000

> <Gold.Chemscore.Lipo>
104.8090

> <Gold.Chemscore.Internal_Hbond>
0.0000

> <Gold.Chemscore.DEClash>
0.0109

> <Gold.Chemscore.DEInternal>
2.1746

> <Gold.Chemscore.Rot>
2.3280

> <Gold.Chemscore.Internal.Correction>
   9.000000E+99

> <Gold.Chemscore.Hbonds>
donor molecule, donor type, donor heavy atom, donor atom, acceptor molecule, acceptor atom, score
      P1  H  6896  6908       L1    13  0.49
      P1  H  7989  7998       L1     2  0.12
      P1  H  7997  8010       L1    10  0.99

> <Gold.Chemscore.Hbond.Weighted>
-6.9336

> <Gold.Chemscore.Metal.Weighted>
-0.0000

> <Gold.Chemscore.Lipo.Weighted>
-12.2627

> <Gold.Chemscore.Internal_Hbond.Weighted>
0.0000

> <Gold.Chemscore.DEClash.Weighted>
0.0109

> <Gold.Chemscore.DEInternal.Weighted>
2.1746

> <Gold.Chemscore.Rot.Weighted>
5.9598

> <Gold.Chemscore.Internal.Correction.Weighted>
   9.000000E+99

> <Gold.Protein.RotatedTorsions>
[ 6907 6896 6895 6894 ] final  -48.23 input  -60.11 | X-H torsion
[ 7974 7965 7964 7962 ] final   68.51 input  175.53 | X-H torsion
[ 8008 7997 7996 7995 ] final    2.33 input   59.86 | X-H torsion
[ 10167 10162 10161 10158 ] final  108.15 input  -65.29 | X-H torsion
[ 10718 10713 10712 10709 ] final  -21.28 input   66.30 | X-H torsion
[ 10763 10752 10751 10750 ] final -147.31 input  -60.55 | X-H torsion
[ 11005 11000 10999 10996 ] final  -28.62 input  -57.11 | X-H torsion

> <Gold.Protein.ActiveResidues>
 VAL166  LYS551  ARG553  GLY616  TRP617  ASP618  TYR619  PRO620  LYS621  CYS622 
 ASP623  PHE694  ASN695  SER759  ASP760  ASP761  ALA762  ILE779  LEU786  VAL792 
 PHE793  MET794  SER795  GLU796  ALA797  LYS798  CYS799  TRP800  GLU811  SER814 

> <Gold.Protein.RotatedAtoms>
  150.8926  134.8331  159.7303 H   0  0  0  0  0  0  0  0  0  0  0  0  # atno 6907 bound_to 6896
  152.4846  134.4624  159.9619 H   0  0  0  0  0  0  0  0  0  0  0  0  # atno 6908 bound_to 6896
  151.4685  133.3536  159.2855 H   0  0  0  0  0  0  0  0  0  0  0  0  # atno 6909 bound_to 6896
  145.8017  139.2986  143.1150 H   0  0  0  0  0  0  0  0  0  0  0  0  # atno 7974 bound_to 7965
  154.6904  140.2652  155.6819 H   0  0  0  0  0  0  0  0  0  0  0  0  # atno 8008 bound_to 7997
  156.2730  140.2792  156.1403 H   0  0  0  0  0  0  0  0  0  0  0  0  # atno 8009 bound_to 7997
  155.0905  140.0373  157.2657 H   0  0  0  0  0  0  0  0  0  0  0  0  # atno 8010 bound_to 7997
  139.6869  144.7112  151.1416 H   0  0  0  0  0  0  0  0  0  0  0  0  # atno 10167 bound_to 10162
  156.5203  130.4631  149.6600 H   0  0  0  0  0  0  0  0  0  0  0  0  # atno 10718 bound_to 10713
  154.8292  135.3363  154.6799 H   0  0  0  0  0  0  0  0  0  0  0  0  # atno 10763 bound_to 10752
  153.7420  135.6945  153.4969 H   0  0  0  0  0  0  0  0  0  0  0  0  # atno 10764 bound_to 10752
  153.2237  135.4440  155.0469 H   0  0  0  0  0  0  0  0  0  0  0  0  # atno 10765 bound_to 10752
  140.9224  133.7390  156.0820 H   0  0  0  0  0  0  0  0  0  0  0  0  # atno 11005 bound_to 11000
  145.9870  140.8634  143.0085 LP  0  0  0  0  0  0  0  0  0  0  0  0  # atno 17320 bound_to 7965
  144.6768  140.2162  143.7371 LP  0  0  0  0  0  0  0  0  0  0  0  0  # atno 17321 bound_to 7965
  140.7670  143.5616  150.9093 LP  0  0  0  0  0  0  0  0  0  0  0  0  # atno 17342 bound_to 10162
  139.9291  143.6514  152.3080 LP  0  0  0  0  0  0  0  0  0  0  0  0  # atno 17343 bound_to 10162
  156.3156  130.7253  151.2154 LP  0  0  0  0  0  0  0  0  0  0  0  0  # atno 17370 bound_to 10713
  157.7438  131.0469  150.4919 LP  0  0  0  0  0  0  0  0  0  0  0  0  # atno 17371 bound_to 10713
  140.7970  134.3552  157.5450 LP  0  0  0  0  0  0  0  0  0  0  0  0  # atno 17394 bound_to 11000
  139.8778  134.9175  156.3179 LP  0  0  0  0  0  0  0  0  0  0  0  0  # atno 17395 bound_to 11000

$$$$
