AV-unprocessed.smi:304|AV-procd|sdf|2278|dock1
  -GOLD-   2262022173D 1   1.00000     0.00000
 Structure written by MMmdl.
 37 39  0  0  0  0  0  0  0  0  2 V2000
  149.3975  141.1285  153.2855 O   0  0  0  0  0  0  0  0  0  0  0  0
  149.1932  140.8300  154.6522 C   0  0  2  0  0  0  0  0  0  0  0  0
  147.6827  140.7672  154.9308 C   0  0  0  0  0  0  0  0  0  0  0  0
  147.1642  142.0836  155.0168 O   0  0  0  0  0  0  0  0  0  0  0  0
  145.7528  142.1261  155.1377 C   0  0  0  0  0  0  0  0  0  0  0  0
  145.2703  143.3605  154.4417 C   0  0  0  0  0  0  0  0  0  0  0  0
  145.6316  143.7895  153.1898 C   0  0  0  0  0  0  0  0  0  0  0  0
  144.9926  145.0039  152.8023 C   0  0  0  0  0  0  0  0  0  0  0  0
  144.1449  145.4881  153.7621 C   0  0  0  0  0  0  0  0  0  0  0  0
  144.1151  144.4582  155.1661 S   0  0  0  0  0  0  0  0  0  0  0  0
  149.9461  141.8117  155.5746 C   0  0  0  0  0  0  0  0  0  0  0  0
  150.8358  141.1349  156.5285 N   0  0  0  0  0  0  0  0  0  0  0  0
  151.3514  139.8762  156.4941 C   0  0  0  0  0  0  0  0  0  0  0  0
  152.1103  139.7122  157.6131 N   0  3  0  0  0  0  0  0  0  0  0  0
  152.0794  140.8831  158.3739 C   0  0  0  0  0  0  0  0  0  0  0  0
  152.6880  141.2000  159.5840 C   0  0  0  0  0  0  0  0  0  0  0  0
  152.4540  142.4943  160.0934 C   0  0  0  0  0  0  0  0  0  0  0  0
  153.0234  142.8546  161.2679 F   0  0  0  0  0  0  0  0  0  0  0  0
  151.6416  143.4188  159.4031 C   0  0  0  0  0  0  0  0  0  0  0  0
  151.4461  144.6523  159.9260 F   0  0  0  0  0  0  0  0  0  0  0  0
  151.0291  143.0856  158.1771 C   0  0  0  0  0  0  0  0  0  0  0  0
  151.2637  141.8030  157.6822 C   0  0  0  0  0  0  0  0  0  0  0  0
  149.3301  140.3269  152.7903 H   0  0  0  0  0  0  0  0  0  0  0  0
  149.6025  139.8305  154.8042 H   0  0  0  0  0  0  0  0  0  0  0  0
  147.1669  140.1933  154.1591 H   0  0  0  0  0  0  0  0  0  0  0  0
  147.5119  140.2581  155.8805 H   0  0  0  0  0  0  0  0  0  0  0  0
  145.3076  141.2391  154.6851 H   0  0  0  0  0  0  0  0  0  0  0  0
  145.4604  142.1518  156.1882 H   0  0  0  0  0  0  0  0  0  0  0  0
  146.3286  143.2774  152.5433 H   0  0  0  0  0  0  0  0  0  0  0  0
  145.1740  145.4726  151.8463 H   0  0  0  0  0  0  0  0  0  0  0  0
  143.5387  146.3813  153.7304 H   0  0  0  0  0  0  0  0  0  0  0  0
  150.5282  142.5349  155.0035 H   0  0  0  0  0  0  0  0  0  0  0  0
  149.2304  142.3936  156.1564 H   0  0  0  0  0  0  0  0  0  0  0  0
  151.1857  139.1394  155.7212 H   0  0  0  0  0  0  0  0  0  0  0  0
  153.3114  140.4961  160.1153 H   0  0  0  0  0  0  0  0  0  0  0  0
  150.4135  143.8041  157.6560 H   0  0  0  0  0  0  0  0  0  0  0  0
  152.6099  138.8614  157.8392 H   0  0  0  0  0  0  0  0  0  0  0  0
  1  2  1  0  0  0  0
  1 23  1  0  0  0  0
  2  3  1  0  0  0  0
  2 11  1  0  0  0  0
  2 24  1  0  0  0  0
  3  4  1  0  0  0  0
  3 25  1  0  0  0  0
  3 26  1  0  0  0  0
  4  5  1  0  0  0  0
  5  6  1  0  0  0  0
  5 27  1  0  0  0  0
  5 28  1  0  0  0  0
  6 10  1  0  0  0  0
  6  7  2  0  0  0  0
  7  8  1  0  0  0  0
  7 29  1  0  0  0  0
  8  9  2  0  0  0  0
  8 30  1  0  0  0  0
  9 10  1  0  0  0  0
  9 31  1  0  0  0  0
 11 12  1  0  0  0  0
 11 32  1  0  0  0  0
 11 33  1  0  0  0  0
 12 22  1  0  0  0  0
 12 13  1  0  0  0  0
 13 14  2  0  0  0  0
 13 34  1  0  0  0  0
 14 15  1  0  0  0  0
 14 37  1  0  0  0  0
 15 22  2  0  0  0  0
 15 16  1  0  0  0  0
 16 17  2  0  0  0  0
 16 35  1  0  0  0  0
 17 18  1  0  0  0  0
 17 19  1  0  0  0  0
 19 20  1  0  0  0  0
 19 21  2  0  0  0  0
 21 22  1  0  0  0  0
 21 36  1  0  0  0  0
M  CHG  1  14   1
M  END
> <s_m_source_file>
AV-unprocessed.smi

> <i_m_source_file_index>
304

> <i_lp_mmshare_version>
43012

> <i_f3d_flags>
0

> <s_epik_input>
W2NIXTFjKEYpYyhGKVtjSF1jKGMxMiluKFtjSF1uMilbQ0gyXVtDQEhdKFtPSF0pW0NIMl1PW0NIMl1jM1tjSF1bY0hdW2NIXXMz

> <s_epik_cmdline>
J2VwaWtfcHl0aG9uJywgJy1waCcsICc3LjAnLCAnLXRuJywgJzgnLCAnLW1hJywgJzIwMCcsICctbWV0YWxfYmluZGluZycsICctaW1hZScsICc8aW5maWxlLm1hZT4nLCAnLW9tYWUnLCAnPG91dGZpbGUubWFlPic=

> <r_epik_Ionization_Penalty>
2.17745

> <r_epik_Ionization_Penalty_Charging>
2.17744

> <r_epik_Ionization_Penalty_Neutral>
1.26231e-06

> <r_epik_State_Penalty>
2.31922

> <r_epik_Charging_Adjusted_Penalty>
4.49666

> <i_epik_Tot_Q>
1

> <i_epik_Tot_abs_Q>
1

> <r_epik_Metal_State_Penalty>
6.40003

> <b_epik_Metal_Only>
0

> <s_lp_Force_Field>
OPLS_2005

> <r_lp_Energy>
12.8656

> <b_lp_Chiralities_Consistent>
1

> <s_lp_Variant>
AV-unprocessed.smi:304-3

> <Gold.Version>
5.8.1

> <Gold.Id.Protein>
6NUR|6NUR_protein|mol2

> <Gold.PLP.Fitness>
56.3322

> <Gold.PLP.PLP>
-54.3695

> <Gold.PLP.part.hbond>
-2.5133

> <Gold.PLP.part.metal>
0.0000

> <Gold.PLP.part.buried>
-7.2342

> <Gold.PLP.part.nonpolar>
-45.6789

> <Gold.PLP.part.repulsive>
0.2263

> <Gold.PLP.ligand.clash>
0.0000

> <Gold.PLP.ligand.torsion>
1.4729

> <Gold.PLP.Chemscore.Hbond>
1.6061

> <Gold.PLP.Chemscore.CHOScore>
0.0000

> <Gold.PLP.Chemscore.Metal>
0.0000

> <Gold.Chemscore.Hbonds>
donor molecule, donor type, donor heavy atom, donor atom, acceptor molecule, acceptor atom, score
      L1  H     1    23       P1  7957  0.59
      P1  H  7989  7998       L1     1  0.03
      P1  H  8011  8017       L1     1  1.00

> <Gold.PLP.Chemscore.Internal.Correction>
0.0902

> <Gold.Rescore>
     Score         DG    S(hbond)    S(metal)    S(lipo)     H(rot)  DE(clash)    DE(int)     intcor
     15.46     -17.57       1.43        0.00     122.29       2.73       0.69       1.42       ----

> <Gold.Chemscore.Fitness>
15.4574

> <Gold.Chemscore.DG>
-17.5724

> <Gold.Chemscore.ZeroCoef>
-5.4800

> <Gold.Chemscore.Hbond>
1.4259

> <Gold.Chemscore.Metal>
0.0000

> <Gold.Chemscore.Lipo>
122.2913

> <Gold.Chemscore.Internal_Hbond>
0.0000

> <Gold.Chemscore.DEClash>
0.6940

> <Gold.Chemscore.DEInternal>
1.4211

> <Gold.Chemscore.Rot>
2.7258

> <Gold.Chemscore.Internal.Correction>
   9.000000E+99

> <Gold.Chemscore.Hbonds>
donor molecule, donor type, donor heavy atom, donor atom, acceptor molecule, acceptor atom, score
      L1  H     1    23       P1  7957  0.60
      P1  H  8011  8017       L1     1  0.81

> <Gold.Chemscore.Hbond.Weighted>
-4.7625

> <Gold.Chemscore.Metal.Weighted>
-0.0000

> <Gold.Chemscore.Lipo.Weighted>
-14.3081

> <Gold.Chemscore.Internal_Hbond.Weighted>
0.0000

> <Gold.Chemscore.DEClash.Weighted>
0.6940

> <Gold.Chemscore.DEInternal.Weighted>
1.4211

> <Gold.Chemscore.Rot.Weighted>
6.9781

> <Gold.Chemscore.Internal.Correction.Weighted>
   9.000000E+99

> <Gold.Protein.RotatedTorsions>
[ 6907 6896 6895 6894 ] final   94.76 input  -60.11 | X-H torsion
[ 7974 7965 7964 7962 ] final   81.17 input  175.53 | X-H torsion
[ 8008 7997 7996 7995 ] final  -88.55 input   59.86 | X-H torsion
[ 10167 10162 10161 10158 ] final  -33.29 input  -65.29 | X-H torsion
[ 10718 10713 10712 10709 ] final -152.28 input   66.30 | X-H torsion
[ 10763 10752 10751 10750 ] final  130.06 input  -60.55 | X-H torsion
[ 11005 11000 10999 10996 ] final  164.68 input  -57.11 | X-H torsion

> <Gold.Protein.ActiveResidues>
 VAL166  LYS551  ARG553  GLY616  TRP617  ASP618  TYR619  PRO620  LYS621  CYS622 
 ASP623  PHE694  ASN695  SER759  ASP760  ASP761  ALA762  ILE779  LEU786  VAL792 
 PHE793  MET794  SER795  GLU796  ALA797  LYS798  CYS799  TRP800  GLU811  SER814 

> <Gold.Protein.RotatedAtoms>
  152.5448  134.1144  159.8372 H   0  0  0  0  0  0  0  0  0  0  0  0  # atno 6907 bound_to 6896
  151.1207  133.5099  159.2609 H   0  0  0  0  0  0  0  0  0  0  0  0  # atno 6908 bound_to 6896
  151.1782  135.0358  159.8835 H   0  0  0  0  0  0  0  0  0  0  0  0  # atno 6909 bound_to 6896
  145.6417  139.2427  143.2027 H   0  0  0  0  0  0  0  0  0  0  0  0  # atno 7974 bound_to 7965
  154.6762  140.0552  157.0218 H   0  0  0  0  0  0  0  0  0  0  0  0  # atno 8008 bound_to 7997
  155.1017  140.3229  155.4526 H   0  0  0  0  0  0  0  0  0  0  0  0  # atno 8009 bound_to 7997
  156.2676  140.2030  156.6143 H   0  0  0  0  0  0  0  0  0  0  0  0  # atno 8010 bound_to 7997
  140.7207  143.3631  151.1923 H   0  0  0  0  0  0  0  0  0  0  0  0  # atno 10167 bound_to 10162
  156.4704  130.8255  151.2485 H   0  0  0  0  0  0  0  0  0  0  0  0  # atno 10718 bound_to 10713
  153.7518  135.3209  155.3322 H   0  0  0  0  0  0  0  0  0  0  0  0  # atno 10763 bound_to 10752
  154.8260  135.4569  154.0924 H   0  0  0  0  0  0  0  0  0  0  0  0  # atno 10764 bound_to 10752
  153.2129  135.6938  153.8174 H   0  0  0  0  0  0  0  0  0  0  0  0  # atno 10765 bound_to 10752
  140.2484  134.7996  157.3478 H   0  0  0  0  0  0  0  0  0  0  0  0  # atno 11005 bound_to 11000
  146.1276  140.7228  142.9428 LP  0  0  0  0  0  0  0  0  0  0  0  0  # atno 17320 bound_to 7965
  144.7155  140.4194  143.7048 LP  0  0  0  0  0  0  0  0  0  0  0  0  # atno 17321 bound_to 7965
  139.7188  143.9257  152.2977 LP  0  0  0  0  0  0  0  0  0  0  0  0  # atno 17342 bound_to 10162
  139.9007  144.6913  150.8668 LP  0  0  0  0  0  0  0  0  0  0  0  0  # atno 17343 bound_to 10162
  157.7491  131.0078  150.3204 LP  0  0  0  0  0  0  0  0  0  0  0  0  # atno 17370 bound_to 10713
  156.3624  130.3849  149.7240 LP  0  0  0  0  0  0  0  0  0  0  0  0  # atno 17371 bound_to 10713
  140.1582  134.4762  155.7913 LP  0  0  0  0  0  0  0  0  0  0  0  0  # atno 17394 bound_to 11000
  141.2204  133.6890  156.7498 LP  0  0  0  0  0  0  0  0  0  0  0  0  # atno 17395 bound_to 11000

$$$$
