AV-unprocessed.smi:1244|AV-procd|sdf|5221|dock2
  -GOLD-   22720 4313D 1   1.00000     0.00000
 Structure written by MMmdl.
 54 56  0  0  0  0  0  0  0  0  1 V2000
  151.1952  142.3444  156.4505 C   0  0  0  0  0  0  0  0  0  0  0  0
  150.3431  141.0914  156.7152 C   0  0  2  0  0  0  0  0  0  0  0  0
  150.9646  139.7984  156.1503 C   0  0  0  0  0  0  0  0  0  0  0  0
  150.8676  139.7114  154.6969 N   0  0  0  0  0  0  0  0  0  0  0  0
  151.4676  138.4715  154.2065 C   0  0  0  0  0  0  0  0  0  0  0  0
  151.1951  137.2313  155.0795 C   0  0  0  0  0  0  0  0  0  0  0  0
  150.3023  136.2901  154.4139 N   0  0  0  0  0  0  0  0  0  0  0  0
  150.0488  135.0426  154.8338 C   0  0  0  0  0  0  0  0  0  0  0  0
  150.5349  134.5562  155.8550 O   0  0  0  0  0  0  0  0  0  0  0  0
  149.2236  134.4021  153.9887 N   0  0  0  0  0  0  0  0  0  0  0  0
  148.7394  133.0663  154.0804 C   0  0  0  0  0  0  0  0  0  0  0  0
  149.4489  132.0720  154.7976 C   0  0  0  0  0  0  0  0  0  0  0  0
  148.9423  130.7622  154.8475 C   0  0  0  0  0  0  0  0  0  0  0  0
  147.7374  130.4909  154.1789 C   0  0  0  0  0  0  0  0  0  0  0  0
  147.0401  131.4296  153.5087 N   0  0  0  0  0  0  0  0  0  0  0  0
  147.5074  132.7018  153.4639 C   0  0  0  0  0  0  0  0  0  0  0  0
  146.7217  133.6432  152.7593 N   0  0  0  0  0  0  0  0  0  0  0  0
  146.5363  133.5192  151.3171 C   0  0  0  0  0  0  0  0  0  0  0  0
  145.3627  134.4375  150.9887 C   0  0  0  0  0  0  0  0  0  0  0  0
  144.4749  134.2806  152.2192 C   0  0  0  0  0  0  0  0  0  0  0  0
  145.4749  134.0997  153.3662 C   0  0  0  0  0  0  0  0  0  0  0  0
  149.4682  139.8525  154.3065 C   0  0  0  0  0  0  0  0  0  0  0  0
  148.8577  141.1699  154.8184 C   0  0  1  0  0  0  0  0  0  0  0  0
  147.3647  141.2777  154.4907 C   0  0  0  0  0  0  0  0  0  0  0  0
  149.0068  141.2465  156.2349 O   0  0  0  0  0  0  0  0  0  0  0  0
  152.1719  142.2563  156.9268 H   0  0  0  0  0  0  0  0  0  0  0  0
  150.7117  143.2354  156.8519 H   0  0  0  0  0  0  0  0  0  0  0  0
  151.3662  142.5075  155.3865 H   0  0  0  0  0  0  0  0  0  0  0  0
  150.2679  140.9812  157.7975 H   0  0  0  0  0  0  0  0  0  0  0  0
  152.0083  139.7315  156.4603 H   0  0  0  0  0  0  0  0  0  0  0  0
  150.4573  138.9419  156.5972 H   0  0  0  0  0  0  0  0  0  0  0  0
  151.0774  138.2704  153.2078 H   0  0  0  0  0  0  0  0  0  0  0  0
  152.5436  138.6050  154.0849 H   0  0  0  0  0  0  0  0  0  0  0  0
  152.1203  136.6983  155.2947 H   0  0  0  0  0  0  0  0  0  0  0  0
  150.7732  137.5268  156.0415 H   0  0  0  0  0  0  0  0  0  0  0  0
  149.8599  136.6059  153.5634 H   0  0  0  0  0  0  0  0  0  0  0  0
  148.9946  134.8881  153.1342 H   0  0  0  0  0  0  0  0  0  0  0  0
  150.3693  132.2956  155.3153 H   0  0  0  0  0  0  0  0  0  0  0  0
  149.4662  129.9849  155.3838 H   0  0  0  0  0  0  0  0  0  0  0  0
  147.3173  129.4962  154.1889 H   0  0  0  0  0  0  0  0  0  0  0  0
  147.4385  133.8020  150.7740 H   0  0  0  0  0  0  0  0  0  0  0  0
  146.2790  132.4944  151.0464 H   0  0  0  0  0  0  0  0  0  0  0  0
  145.7065  135.4696  150.9053 H   0  0  0  0  0  0  0  0  0  0  0  0
  144.8598  134.1689  150.0593 H   0  0  0  0  0  0  0  0  0  0  0  0
  143.8028  135.1256  152.3714 H   0  0  0  0  0  0  0  0  0  0  0  0
  143.8665  133.3810  152.1177 H   0  0  0  0  0  0  0  0  0  0  0  0
  145.1006  133.4005  154.1154 H   0  0  0  0  0  0  0  0  0  0  0  0
  145.6539  135.0577  153.8548 H   0  0  0  0  0  0  0  0  0  0  0  0
  149.3742  139.8289  153.2216 H   0  0  0  0  0  0  0  0  0  0  0  0
  148.8919  139.0088  154.6892 H   0  0  0  0  0  0  0  0  0  0  0  0
  149.3715  142.0128  154.3551 H   0  0  0  0  0  0  0  0  0  0  0  0
  147.1950  141.2360  153.4145 H   0  0  0  0  0  0  0  0  0  0  0  0
  146.9532  142.2189  154.8556 H   0  0  0  0  0  0  0  0  0  0  0  0
  146.7999  140.4664  154.9510 H   0  0  0  0  0  0  0  0  0  0  0  0
  1  2  1  0  0  0  0
  1 26  1  0  0  0  0
  1 27  1  0  0  0  0
  1 28  1  0  0  0  0
  2 25  1  0  0  0  0
  2  3  1  0  0  0  0
  2 29  1  0  0  0  0
  3  4  1  0  0  0  0
  3 30  1  0  0  0  0
  3 31  1  0  0  0  0
  4  5  1  0  0  0  0
  4 22  1  0  0  0  0
  5  6  1  0  0  0  0
  5 32  1  0  0  0  0
  5 33  1  0  0  0  0
  6  7  1  0  0  0  0
  6 34  1  0  0  0  0
  6 35  1  0  0  0  0
  7  8  1  0  0  0  0
  7 36  1  0  0  0  0
  8  9  2  0  0  0  0
  8 10  1  0  0  0  0
 10 11  1  0  0  0  0
 10 37  1  0  0  0  0
 11 16  1  0  0  0  0
 11 12  2  0  0  0  0
 12 13  1  0  0  0  0
 12 38  1  0  0  0  0
 13 14  2  0  0  0  0
 13 39  1  0  0  0  0
 14 15  1  0  0  0  0
 14 40  1  0  0  0  0
 15 16  2  0  0  0  0
 16 17  1  0  0  0  0
 17 21  1  0  0  0  0
 17 18  1  0  0  0  0
 18 19  1  0  0  0  0
 18 41  1  0  0  0  0
 18 42  1  0  0  0  0
 19 20  1  0  0  0  0
 19 43  1  0  0  0  0
 19 44  1  0  0  0  0
 20 21  1  0  0  0  0
 20 45  1  0  0  0  0
 20 46  1  0  0  0  0
 21 47  1  0  0  0  0
 21 48  1  0  0  0  0
 22 23  1  0  0  0  0
 22 49  1  0  0  0  0
 22 50  1  0  0  0  0
 23 24  1  0  0  0  0
 23 25  1  0  0  0  0
 23 51  1  0  0  0  0
 24 52  1  0  0  0  0
 24 53  1  0  0  0  0
 24 54  1  0  0  0  0
M  END
> <s_m_source_file>
AV-unprocessed.smi

> <i_m_source_file_index>
1244

> <i_lp_mmshare_version>
43012

> <i_f3d_flags>
0

> <s_epik_input>
W0NIM11bQ0BASF0xW0NIMl1OKFtDSDJdW0NASF0oTzEpW0NIM10pW0NIMl1bQ0gyXVtOSF1DKD1PKVtOSF1jMltjSF1bY0hdW2NIXW5jMk4zW0NIMl1bQ0gyXVtDSDJdW0NIMl0z

> <s_epik_cmdline>
J2VwaWtfcHl0aG9uJywgJy1waCcsICc3LjAnLCAnLXRuJywgJzgnLCAnLW1hJywgJzIwMCcsICctbWV0YWxfYmluZGluZycsICctaW1hZScsICc8aW5maWxlLm1hZT4nLCAnLW9tYWUnLCAnPG91dGZpbGUubWFlPic=

> <r_lp_tautomer_probability>
1

> <r_epik_Ionization_Penalty>
0.363951

> <r_epik_Ionization_Penalty_Charging>
0

> <r_epik_Ionization_Penalty_Neutral>
0.363951

> <r_epik_State_Penalty>
0.349372

> <r_epik_Charging_Adjusted_Penalty>
0.349372

> <i_epik_Tot_Q>
0

> <i_epik_Tot_abs_Q>
0

> <r_epik_Metal_State_Penalty>
0.333054

> <b_epik_Metal_Only>
0

> <s_lp_Force_Field>
OPLS_2005

> <r_lp_Energy>
51.1959

> <b_lp_Chiralities_Consistent>
1

> <s_lp_Variant>
AV-unprocessed.smi:1244-1

> <Gold.Version>
5.8.1

> <Gold.Id.Protein>
6NUR|6NUR_protein|mol2

> <Gold.PLP.Fitness>
47.1047

> <Gold.PLP.PLP>
-40.9324

> <Gold.PLP.part.hbond>
-3.9744

> <Gold.PLP.part.metal>
0.0000

> <Gold.PLP.part.buried>
-5.5200

> <Gold.PLP.part.nonpolar>
-32.7510

> <Gold.PLP.part.repulsive>
0.5061

> <Gold.PLP.ligand.clash>
0.0000

> <Gold.PLP.ligand.torsion>
0.9338

> <Gold.PLP.Chemscore.Hbond>
2.5500

> <Gold.PLP.Chemscore.CHOScore>
0.0000

> <Gold.PLP.Chemscore.Metal>
0.0000

> <Gold.Chemscore.Hbonds>
donor molecule, donor type, donor heavy atom, donor atom, acceptor molecule, acceptor atom, score
      L1  H     7    36       P1  7948  1.00
      L1  H    10    37       P1  7948  0.80
      P1  H  7989  7998       L1     4  0.86

> <Gold.PLP.Chemscore.Internal.Correction>
0.3900

> <Gold.Rescore>
     Score         DG    S(hbond)    S(metal)    S(lipo)     H(rot)  DE(clash)    DE(int)     intcor
     13.82     -16.12       1.25        0.00      89.04       1.55       0.07       2.23       ----

> <Gold.Chemscore.Fitness>
13.8206

> <Gold.Chemscore.DG>
-16.1175

> <Gold.Chemscore.ZeroCoef>
-5.4800

> <Gold.Chemscore.Hbond>
1.2523

> <Gold.Chemscore.Metal>
0.0000

> <Gold.Chemscore.Lipo>
89.0375

> <Gold.Chemscore.Internal_Hbond>
0.0000

> <Gold.Chemscore.DEClash>
0.0700

> <Gold.Chemscore.DEInternal>
2.2269

> <Gold.Chemscore.Rot>
1.5479

> <Gold.Chemscore.Internal.Correction>
   9.000000E+99

> <Gold.Chemscore.Hbonds>
donor molecule, donor type, donor heavy atom, donor atom, acceptor molecule, acceptor atom, score
      L1  H     7    36       P1  7948  0.28
      L1  H    10    37       P1  7948  0.12
      P1  H  7989  7998       L1     4  0.04

> <Gold.Chemscore.Hbond.Weighted>
-4.1828

> <Gold.Chemscore.Metal.Weighted>
-0.0000

> <Gold.Chemscore.Lipo.Weighted>
-10.4174

> <Gold.Chemscore.Internal_Hbond.Weighted>
0.0000

> <Gold.Chemscore.DEClash.Weighted>
0.0700

> <Gold.Chemscore.DEInternal.Weighted>
2.2269

> <Gold.Chemscore.Rot.Weighted>
3.9627

> <Gold.Chemscore.Internal.Correction.Weighted>
   9.000000E+99

> <Gold.Protein.RotatedTorsions>
[ 6907 6896 6895 6894 ] final   -1.60 input  -60.11 | X-H torsion
[ 7974 7965 7964 7962 ] final  -32.54 input  175.53 | X-H torsion
[ 8008 7997 7996 7995 ] final  161.14 input   59.86 | X-H torsion
[ 10167 10162 10161 10158 ] final   89.36 input  -65.29 | X-H torsion
[ 10718 10713 10712 10709 ] final    7.65 input   66.30 | X-H torsion
[ 10763 10752 10751 10750 ] final  158.46 input  -60.55 | X-H torsion
[ 11005 11000 10999 10996 ] final -105.54 input  -57.11 | X-H torsion

> <Gold.Protein.ActiveResidues>
 VAL166  LYS551  ARG553  GLY616  TRP617  ASP618  TYR619  PRO620  LYS621  CYS622 
 ASP623  PHE694  ASN695  SER759  ASP760  ASP761  ALA762  ILE779  LEU786  VAL792 
 PHE793  MET794  SER795  GLU796  ALA797  LYS798  CYS799  TRP800  GLU811  SER814 

> <Gold.Protein.RotatedAtoms>
  151.5434  135.1068  159.9931 H   0  0  0  0  0  0  0  0  0  0  0  0  # atno 6907 bound_to 6896
  152.4525  133.7653  159.6779 H   0  0  0  0  0  0  0  0  0  0  0  0  # atno 6908 bound_to 6896
  150.8457  133.7798  159.3068 H   0  0  0  0  0  0  0  0  0  0  0  0  # atno 6909 bound_to 6896
  146.0982  140.5805  142.8833 H   0  0  0  0  0  0  0  0  0  0  0  0  # atno 7974 bound_to 7965
  156.2124  140.1785  156.7665 H   0  0  0  0  0  0  0  0  0  0  0  0  # atno 8008 bound_to 7997
  154.5742  140.0677  156.9038 H   0  0  0  0  0  0  0  0  0  0  0  0  # atno 8009 bound_to 7997
  155.2619  140.3336  155.4275 H   0  0  0  0  0  0  0  0  0  0  0  0  # atno 8010 bound_to 7997
  139.8580  144.6559  150.9091 H   0  0  0  0  0  0  0  0  0  0  0  0  # atno 10167 bound_to 10162
  156.9401  130.5858  149.5652 H   0  0  0  0  0  0  0  0  0  0  0  0  # atno 10718 bound_to 10713
  154.2165  135.2784  155.2940 H   0  0  0  0  0  0  0  0  0  0  0  0  # atno 10763 bound_to 10752
  154.5737  135.5611  153.7122 H   0  0  0  0  0  0  0  0  0  0  0  0  # atno 10764 bound_to 10752
  153.0052  135.6327  154.2304 H   0  0  0  0  0  0  0  0  0  0  0  0  # atno 10765 bound_to 10752
  141.1048  133.8817  157.1747 H   0  0  0  0  0  0  0  0  0  0  0  0  # atno 11005 bound_to 11000
  144.7412  140.4946  143.6868 LP  0  0  0  0  0  0  0  0  0  0  0  0  # atno 17320 bound_to 7965
  145.5907  139.1495  143.3184 LP  0  0  0  0  0  0  0  0  0  0  0  0  # atno 17321 bound_to 7965
  140.7779  143.3769  151.1547 LP  0  0  0  0  0  0  0  0  0  0  0  0  # atno 17342 bound_to 10162
  139.7401  143.8938  152.3047 LP  0  0  0  0  0  0  0  0  0  0  0  0  # atno 17343 bound_to 10162
  156.0408  130.5491  150.8766 LP  0  0  0  0  0  0  0  0  0  0  0  0  # atno 17370 bound_to 10713
  157.5790  131.0946  150.9300 LP  0  0  0  0  0  0  0  0  0  0  0  0  # atno 17371 bound_to 10713
  139.9914  135.0063  156.9983 LP  0  0  0  0  0  0  0  0  0  0  0  0  # atno 17394 bound_to 11000
  140.4930  134.1174  155.7236 LP  0  0  0  0  0  0  0  0  0  0  0  0  # atno 17395 bound_to 11000

$$$$
