AV-unprocessed.smi:847|AV-procd|sdf|3938|dock9
  -GOLD-   22720 1403D 1   1.00000     0.00000
 Structure written by MMmdl.
 46 47  0  0  0  0  0  0  0  0  1 V2000
  144.3807  146.2963  158.5237 C   0  0  0  0  0  0  0  0  0  0  0  0
  143.7698  145.2419  157.8011 O   0  0  0  0  0  0  0  0  0  0  0  0
  144.5058  144.8778  156.6451 C   0  0  0  0  0  0  0  0  0  0  0  0
  143.8324  143.6751  155.9776 C   0  0  0  0  0  0  0  0  0  0  0  0
  144.5962  143.2987  154.8358 O   0  0  0  0  0  0  0  0  0  0  0  0
  145.8223  142.6975  155.0319 C   0  0  0  0  0  0  0  0  0  0  0  0
  146.5846  142.3399  153.9015 C   0  0  0  0  0  0  0  0  0  0  0  0
  147.8393  141.7317  154.0941 C   0  0  0  0  0  0  0  0  0  0  0  0
  148.2899  141.4989  155.4101 C   0  0  0  0  0  0  0  0  0  0  0  0
  149.6442  140.8649  155.6738 C   0  0  0  0  0  0  0  0  0  0  0  0
  150.5740  141.7950  156.3038 N   0  0  0  0  0  0  0  0  0  0  0  0
  150.6822  142.0112  157.6233 C   0  0  0  0  0  0  0  0  0  0  0  0
  149.9458  141.4863  158.4597 O   0  0  0  0  0  0  0  0  0  0  0  0
  151.8015  142.9721  158.0669 C   0  0  1  0  0  0  0  0  0  0  0  0
  151.1995  144.2700  158.6288 C   0  0  0  0  0  0  0  0  0  0  0  0
  152.2099  144.7518  159.6527 C   0  0  0  0  0  0  0  0  0  0  0  0
  152.8753  143.4783  160.1730 C   0  0  0  0  0  0  0  0  0  0  0  0
  152.6705  142.4560  159.1433 N   0  0  0  0  0  0  0  0  0  0  0  0
  153.2615  141.2359  159.1760 C   0  0  0  0  0  0  0  0  0  0  0  0
  154.1025  140.8634  160.3993 C   0  0  0  0  0  0  0  0  0  0  0  0
  153.1655  140.4163  158.2623 O   0  0  0  0  0  0  0  0  0  0  0  0
  147.4533  141.8895  156.4764 C   0  0  0  0  0  0  0  0  0  0  0  0
  146.2489  142.4733  156.3002 N   0  0  0  0  0  0  0  0  0  0  0  0
  152.4460  143.2080  157.2181 H   0  0  0  0  0  0  0  0  0  0  0  0
  143.7786  146.5370  159.3998 H   0  0  0  0  0  0  0  0  0  0  0  0
  144.4629  147.1970  157.9141 H   0  0  0  0  0  0  0  0  0  0  0  0
  145.3768  146.0136  158.8672 H   0  0  0  0  0  0  0  0  0  0  0  0
  144.5191  145.7187  155.9502 H   0  0  0  0  0  0  0  0  0  0  0  0
  145.5413  144.6434  156.8968 H   0  0  0  0  0  0  0  0  0  0  0  0
  143.7443  142.8508  156.6874 H   0  0  0  0  0  0  0  0  0  0  0  0
  142.8261  143.9576  155.6640 H   0  0  0  0  0  0  0  0  0  0  0  0
  146.2156  142.5328  152.9049 H   0  0  0  0  0  0  0  0  0  0  0  0
  148.4443  141.4537  153.2440 H   0  0  0  0  0  0  0  0  0  0  0  0
  149.5228  140.0052  156.3334 H   0  0  0  0  0  0  0  0  0  0  0  0
  150.0514  140.4754  154.7391 H   0  0  0  0  0  0  0  0  0  0  0  0
  151.2181  142.2759  155.6925 H   0  0  0  0  0  0  0  0  0  0  0  0
  151.0110  145.0117  157.8521 H   0  0  0  0  0  0  0  0  0  0  0  0
  150.2521  144.0799  159.1369 H   0  0  0  0  0  0  0  0  0  0  0  0
  152.9571  145.3707  159.1542 H   0  0  0  0  0  0  0  0  0  0  0  0
  151.7612  145.3497  160.4463 H   0  0  0  0  0  0  0  0  0  0  0  0
  153.9318  143.6515  160.3820 H   0  0  0  0  0  0  0  0  0  0  0  0
  152.3932  143.1551  161.0968 H   0  0  0  0  0  0  0  0  0  0  0  0
  153.5221  140.9648  161.3165 H   0  0  0  0  0  0  0  0  0  0  0  0
  154.9858  141.4983  160.4693 H   0  0  0  0  0  0  0  0  0  0  0  0
  154.4399  139.8286  160.3321 H   0  0  0  0  0  0  0  0  0  0  0  0
  147.7591  141.7360  157.5009 H   0  0  0  0  0  0  0  0  0  0  0  0
  1  2  1  0  0  0  0
  1 25  1  0  0  0  0
  1 26  1  0  0  0  0
  1 27  1  0  0  0  0
  2  3  1  0  0  0  0
  3  4  1  0  0  0  0
  3 28  1  0  0  0  0
  3 29  1  0  0  0  0
  4  5  1  0  0  0  0
  4 30  1  0  0  0  0
  4 31  1  0  0  0  0
  5  6  1  0  0  0  0
  6 23  1  0  0  0  0
  6  7  2  0  0  0  0
  7  8  1  0  0  0  0
  7 32  1  0  0  0  0
  8  9  2  0  0  0  0
  8 33  1  0  0  0  0
  9 10  1  0  0  0  0
  9 22  1  0  0  0  0
 10 11  1  0  0  0  0
 10 34  1  0  0  0  0
 10 35  1  0  0  0  0
 11 12  1  0  0  0  0
 11 36  1  0  0  0  0
 12 13  2  0  0  0  0
 12 14  1  0  0  0  0
 14 24  1  0  0  0  0
 14 18  1  0  0  0  0
 14 15  1  0  0  0  0
 15 16  1  0  0  0  0
 15 37  1  0  0  0  0
 15 38  1  0  0  0  0
 16 17  1  0  0  0  0
 16 39  1  0  0  0  0
 16 40  1  0  0  0  0
 17 18  1  0  0  0  0
 17 41  1  0  0  0  0
 17 42  1  0  0  0  0
 18 19  1  0  0  0  0
 19 20  1  0  0  0  0
 19 21  2  0  0  0  0
 20 43  1  0  0  0  0
 20 44  1  0  0  0  0
 20 45  1  0  0  0  0
 22 23  2  0  0  0  0
 22 46  1  0  0  0  0
M  END
> <s_m_source_file>
AV-unprocessed.smi

> <i_m_source_file_index>
847

> <i_lp_mmshare_version>
43012

> <i_f3d_flags>
0

> <s_epik_input>
W0NIM11PW0NIMl1bQ0gyXU9jMVtjSF1bY0hdYyhbY0hdbjEpW0NIMl1bTkhdQyg9TylbQ0BASF0yW0NIMl1bQ0gyXVtDSDJdTjJDKD1PKVtDSDNd

> <s_epik_cmdline>
J2VwaWtfcHl0aG9uJywgJy1waCcsICc3LjAnLCAnLXRuJywgJzgnLCAnLW1hJywgJzIwMCcsICctbWV0YWxfYmluZGluZycsICctaW1hZScsICc8aW5maWxlLm1hZT4nLCAnLW9tYWUnLCAnPG91dGZpbGUubWFlPic=

> <r_lp_tautomer_probability>
1

> <r_epik_Ionization_Penalty>
6.04138e-05

> <r_epik_Ionization_Penalty_Charging>
0

> <r_epik_Ionization_Penalty_Neutral>
6.04138e-05

> <r_epik_State_Penalty>
-0

> <r_epik_Charging_Adjusted_Penalty>
0

> <i_epik_Tot_Q>
0

> <i_epik_Tot_abs_Q>
0

> <r_epik_Metal_State_Penalty>
-0

> <b_epik_Metal_Only>
0

> <s_lp_Force_Field>
OPLS_2005

> <r_lp_Energy>
14.1261

> <b_lp_Chiralities_Consistent>
1

> <s_lp_Variant>
AV-unprocessed.smi:847-2

> <Gold.Version>
5.8.1

> <Gold.Id.Protein>
6NUR|6NUR_protein|mol2

> <Gold.PLP.Fitness>
46.3677

> <Gold.PLP.PLP>
-44.6057

> <Gold.PLP.part.hbond>
-1.0000

> <Gold.PLP.part.metal>
0.0000

> <Gold.PLP.part.buried>
-5.8679

> <Gold.PLP.part.nonpolar>
-37.2047

> <Gold.PLP.part.repulsive>
0.5027

> <Gold.PLP.ligand.clash>
0.0000

> <Gold.PLP.ligand.torsion>
0.4345

> <Gold.PLP.Chemscore.Hbond>
0.8480

> <Gold.PLP.Chemscore.CHOScore>
0.0000

> <Gold.PLP.Chemscore.Metal>
0.0000

> <Gold.Chemscore.Hbonds>
donor molecule, donor type, donor heavy atom, donor atom, acceptor molecule, acceptor atom, score
      P1  H  7997  8010       L1    21  0.83

> <Gold.PLP.Chemscore.Internal.Correction>
0.0870

> <Gold.Rescore>
     Score         DG    S(hbond)    S(metal)    S(lipo)     H(rot)  DE(clash)    DE(int)     intcor
     12.04     -13.69       0.84        0.00      96.54       2.31       0.13       1.52       ----

> <Gold.Chemscore.Fitness>
12.0362

> <Gold.Chemscore.DG>
-13.6894

> <Gold.Chemscore.ZeroCoef>
-5.4800

> <Gold.Chemscore.Hbond>
0.8436

> <Gold.Chemscore.Metal>
0.0000

> <Gold.Chemscore.Lipo>
96.5434

> <Gold.Chemscore.Internal_Hbond>
0.0000

> <Gold.Chemscore.DEClash>
0.1298

> <Gold.Chemscore.DEInternal>
1.5234

> <Gold.Chemscore.Rot>
2.3062

> <Gold.Chemscore.Internal.Correction>
   9.000000E+99

> <Gold.Chemscore.Hbonds>
donor molecule, donor type, donor heavy atom, donor atom, acceptor molecule, acceptor atom, score
      P1  H  7997  8010       L1    21  0.82

> <Gold.Chemscore.Hbond.Weighted>
-2.8177

> <Gold.Chemscore.Metal.Weighted>
-0.0000

> <Gold.Chemscore.Lipo.Weighted>
-11.2956

> <Gold.Chemscore.Internal_Hbond.Weighted>
0.0000

> <Gold.Chemscore.DEClash.Weighted>
0.1298

> <Gold.Chemscore.DEInternal.Weighted>
1.5234

> <Gold.Chemscore.Rot.Weighted>
5.9038

> <Gold.Chemscore.Internal.Correction.Weighted>
   9.000000E+99

> <Gold.Protein.RotatedTorsions>
[ 6907 6896 6895 6894 ] final   63.34 input  -60.11 | X-H torsion
[ 7974 7965 7964 7962 ] final   85.93 input  175.53 | X-H torsion
[ 8008 7997 7996 7995 ] final   37.83 input   59.86 | X-H torsion
[ 10167 10162 10161 10158 ] final   24.99 input  -65.29 | X-H torsion
[ 10718 10713 10712 10709 ] final -125.75 input   66.30 | X-H torsion
[ 10763 10752 10751 10750 ] final  149.30 input  -60.55 | X-H torsion
[ 11005 11000 10999 10996 ] final -119.76 input  -57.11 | X-H torsion

> <Gold.Protein.ActiveResidues>
 VAL166  LYS551  ARG553  GLY616  TRP617  ASP618  TYR619  PRO620  LYS621  CYS622 
 ASP623  PHE694  ASN695  SER759  ASP760  ASP761  ALA762  ILE779  LEU786  VAL792 
 PHE793  MET794  SER795  GLU796  ALA797  LYS798  CYS799  TRP800  GLU811  SER814 

> <Gold.Protein.RotatedAtoms>
  152.4245  134.5894  159.9969 H   0  0  0  0  0  0  0  0  0  0  0  0  # atno 6907 bound_to 6896
  151.6034  133.3348  159.3060 H   0  0  0  0  0  0  0  0  0  0  0  0  # atno 6908 bound_to 6896
  150.8134  134.7339  159.6774 H   0  0  0  0  0  0  0  0  0  0  0  0  # atno 6909 bound_to 6896
  145.5791  139.2323  143.2363 H   0  0  0  0  0  0  0  0  0  0  0  0  # atno 7974 bound_to 7965
  155.2103  140.3323  155.4330 H   0  0  0  0  0  0  0  0  0  0  0  0  # atno 8008 bound_to 7997
  156.2373  140.1878  156.7133 H   0  0  0  0  0  0  0  0  0  0  0  0  # atno 8009 bound_to 7997
  154.6082  140.0613  156.9445 H   0  0  0  0  0  0  0  0  0  0  0  0  # atno 8010 bound_to 7997
  140.5143  144.0108  150.6387 H   0  0  0  0  0  0  0  0  0  0  0  0  # atno 10167 bound_to 10162
  156.1703  130.6663  151.0171 H   0  0  0  0  0  0  0  0  0  0  0  0  # atno 10718 bound_to 10713
  154.0689  135.2868  155.3311 H   0  0  0  0  0  0  0  0  0  0  0  0  # atno 10763 bound_to 10752
  154.6759  135.5282  153.8203 H   0  0  0  0  0  0  0  0  0  0  0  0  # atno 10764 bound_to 10752
  153.0493  135.6569  154.0872 H   0  0  0  0  0  0  0  0  0  0  0  0  # atno 10765 bound_to 10752
  141.0192  134.0149  157.3306 H   0  0  0  0  0  0  0  0  0  0  0  0  # atno 11005 bound_to 11000
  146.1729  140.6617  142.9224 LP  0  0  0  0  0  0  0  0  0  0  0  0  # atno 17320 bound_to 7965
  144.7402  140.4922  143.6874 LP  0  0  0  0  0  0  0  0  0  0  0  0  # atno 17321 bound_to 7965
  140.3440  143.3003  152.0558 LP  0  0  0  0  0  0  0  0  0  0  0  0  # atno 17342 bound_to 10162
  139.4905  144.6422  151.6853 LP  0  0  0  0  0  0  0  0  0  0  0  0  # atno 17343 bound_to 10162
  157.6798  131.0841  150.7400 LP  0  0  0  0  0  0  0  0  0  0  0  0  # atno 17370 bound_to 10713
  156.7460  130.4753  149.5467 LP  0  0  0  0  0  0  0  0  0  0  0  0  # atno 17371 bound_to 10713
  139.9136  135.0194  156.7791 LP  0  0  0  0  0  0  0  0  0  0  0  0  # atno 17394 bound_to 11000
  140.6601  133.9652  155.7800 LP  0  0  0  0  0  0  0  0  0  0  0  0  # atno 17395 bound_to 11000

$$$$
