AV-unprocessed.smi:3056|AV-procd|sdf|11655|dock5
  -GOLD-   2272017 53D 1   1.00000     0.00000
 Structure written by MMmdl.
 47 48  0  0  0  0  0  0  0  0  1 V2000
  144.5758  132.5404  151.8800 C   0  0  0  0  0  0  0  0  0  0  0  0
  145.7666  132.8147  152.7522 C   0  0  0  0  0  0  0  0  0  0  0  0
  145.8179  133.5943  153.9415 C   0  0  0  0  0  0  0  0  0  0  0  0
  147.0258  133.6322  154.4784 N   0  0  0  0  0  0  0  0  0  0  0  0
  147.7958  132.8941  153.6489 N   0  0  0  0  0  0  0  0  0  0  0  0
  149.2066  132.7020  153.9717 C   0  0  2  0  0  0  0  0  0  0  0  0
  149.5526  131.2030  154.0967 C   0  0  0  0  0  0  0  0  0  0  0  0
  149.6282  133.5535  155.1998 C   0  0  1  0  0  0  0  0  0  0  0  0
  151.0781  133.3022  155.6658 C   0  0  0  0  0  0  0  0  0  0  0  0
  149.3672  134.9614  154.8936 N   0  0  0  0  0  0  0  0  0  0  0  0
  149.8708  135.9372  155.8759 C   0  0  0  0  0  0  0  0  0  0  0  0
  151.1479  136.6801  155.4390 C   0  0  0  0  0  0  0  0  0  0  0  0
  152.2447  136.1773  155.6912 O   0  0  0  0  0  0  0  0  0  0  0  0
  151.0323  137.8613  154.7868 N   0  0  0  0  0  0  0  0  0  0  0  0
  152.1800  138.7029  154.4410 C   0  0  0  0  0  0  0  0  0  0  0  0
  152.0724  140.0079  155.2501 C   0  0  0  0  0  0  0  0  0  0  0  0
  150.8286  140.6487  154.9713 O   0  0  0  0  0  0  0  0  0  0  0  0
  149.6901  139.8369  155.2597 C   0  0  1  0  0  0  0  0  0  0  0  0
  148.4297  140.6450  154.9332 C   0  0  0  0  0  0  0  0  0  0  0  0
  149.7816  138.5385  154.4338 C   0  0  0  0  0  0  0  0  0  0  0  0
  147.0524  132.3783  152.6040 C   0  0  0  0  0  0  0  0  0  0  0  0
  143.6398  132.6419  152.4298 H   0  0  0  0  0  0  0  0  0  0  0  0
  144.5992  131.5303  151.4707 H   0  0  0  0  0  0  0  0  0  0  0  0
  144.5299  133.2290  151.0364 H   0  0  0  0  0  0  0  0  0  0  0  0
  145.0159  134.1270  154.4310 H   0  0  0  0  0  0  0  0  0  0  0  0
  149.7670  133.0731  153.1108 H   0  0  0  0  0  0  0  0  0  0  0  0
  150.6248  131.0509  154.2199 H   0  0  0  0  0  0  0  0  0  0  0  0
  149.2529  130.6595  153.2002 H   0  0  0  0  0  0  0  0  0  0  0  0
  149.0562  130.7354  154.9467 H   0  0  0  0  0  0  0  0  0  0  0  0
  148.9642  133.2757  156.0200 H   0  0  0  0  0  0  0  0  0  0  0  0
  151.2646  132.2431  155.8390 H   0  0  0  0  0  0  0  0  0  0  0  0
  151.2883  133.8057  156.6090 H   0  0  0  0  0  0  0  0  0  0  0  0
  151.8058  133.6515  154.9333 H   0  0  0  0  0  0  0  0  0  0  0  0
  149.6410  135.1936  153.9492 H   0  0  0  0  0  0  0  0  0  0  0  0
  149.0969  136.6902  156.0265 H   0  0  0  0  0  0  0  0  0  0  0  0
  150.0191  135.4408  156.8354 H   0  0  0  0  0  0  0  0  0  0  0  0
  153.1385  138.2228  154.6421 H   0  0  0  0  0  0  0  0  0  0  0  0
  152.1671  138.9178  153.3717 H   0  0  0  0  0  0  0  0  0  0  0  0
  152.1561  139.8093  156.3197 H   0  0  0  0  0  0  0  0  0  0  0  0
  152.8853  140.6845  154.9861 H   0  0  0  0  0  0  0  0  0  0  0  0
  149.6850  139.5965  156.3246 H   0  0  0  0  0  0  0  0  0  0  0  0
  147.5287  140.0710  155.1502 H   0  0  0  0  0  0  0  0  0  0  0  0
  148.4028  140.9262  153.8801 H   0  0  0  0  0  0  0  0  0  0  0  0
  148.3904  141.5604  155.5238 H   0  0  0  0  0  0  0  0  0  0  0  0
  149.7923  138.7731  153.3685 H   0  0  0  0  0  0  0  0  0  0  0  0
  148.8933  137.9277  154.5847 H   0  0  0  0  0  0  0  0  0  0  0  0
  147.4904  131.7460  151.8459 H   0  0  0  0  0  0  0  0  0  0  0  0
  1  2  1  0  0  0  0
  1 22  1  0  0  0  0
  1 23  1  0  0  0  0
  1 24  1  0  0  0  0
  2 21  2  0  0  0  0
  2  3  1  0  0  0  0
  3  4  2  0  0  0  0
  3 25  1  0  0  0  0
  4  5  1  0  0  0  0
  5  6  1  0  0  0  0
  5 21  1  0  0  0  0
  6  7  1  0  0  0  0
  6  8  1  0  0  0  0
  6 26  1  0  0  0  0
  7 27  1  0  0  0  0
  7 28  1  0  0  0  0
  7 29  1  0  0  0  0
  8  9  1  0  0  0  0
  8 10  1  0  0  0  0
  8 30  1  0  0  0  0
  9 31  1  0  0  0  0
  9 32  1  0  0  0  0
  9 33  1  0  0  0  0
 10 11  1  0  0  0  0
 10 34  1  0  0  0  0
 11 12  1  0  0  0  0
 11 35  1  0  0  0  0
 11 36  1  0  0  0  0
 12 13  2  0  0  0  0
 12 14  1  0  0  0  0
 14 20  1  0  0  0  0
 14 15  1  0  0  0  0
 15 16  1  0  0  0  0
 15 37  1  0  0  0  0
 15 38  1  0  0  0  0
 16 17  1  0  0  0  0
 16 39  1  0  0  0  0
 16 40  1  0  0  0  0
 17 18  1  0  0  0  0
 18 19  1  0  0  0  0
 18 20  1  0  0  0  0
 18 41  1  0  0  0  0
 19 42  1  0  0  0  0
 19 43  1  0  0  0  0
 19 44  1  0  0  0  0
 20 45  1  0  0  0  0
 20 46  1  0  0  0  0
 21 47  1  0  0  0  0
M  END
> <s_m_source_file>
AV-unprocessed.smi

> <i_m_source_file_index>
3056

> <i_lp_mmshare_version>
43012

> <i_f3d_flags>
0

> <s_epik_input>
W0NIM11jMVtjSF1ubihbY0hdMSlbQ0BIXShbQ0gzXSlbQ0BIXShbQ0gzXSlbTkhdW0NIMl1DKD1PKU4yW0NIMl1bQ0gyXU9bQ0BASF0oW0NIM10pW0NIMl0y

> <s_epik_cmdline>
J2VwaWtfcHl0aG9uJywgJy1waCcsICc3LjAnLCAnLXRuJywgJzgnLCAnLW1hJywgJzIwMCcsICctbWV0YWxfYmluZGluZycsICctaW1hZScsICc8aW5maWxlLm1hZT4nLCAnLW9tYWUnLCAnPG91dGZpbGUubWFlPic=

> <r_lp_tautomer_probability>
1

> <r_epik_Ionization_Penalty>
0.667689

> <r_epik_Ionization_Penalty_Charging>
0

> <r_epik_Ionization_Penalty_Neutral>
0.667689

> <r_epik_State_Penalty>
0.684601

> <r_epik_Charging_Adjusted_Penalty>
0.684601

> <i_epik_Tot_Q>
0

> <i_epik_Tot_abs_Q>
0

> <r_epik_Metal_State_Penalty>
0.681448

> <b_epik_Metal_Only>
0

> <s_lp_Force_Field>
OPLS_2005

> <r_lp_Energy>
33.6961

> <b_lp_Chiralities_Consistent>
1

> <s_lp_Variant>
AV-unprocessed.smi:3056-11

> <Gold.Version>
5.8.1

> <Gold.Id.Protein>
6NUR|6NUR_protein|mol2

> <Gold.PLP.Fitness>
51.4037

> <Gold.PLP.PLP>
-42.0986

> <Gold.PLP.part.hbond>
-3.0000

> <Gold.PLP.part.metal>
0.0000

> <Gold.PLP.part.buried>
-3.8990

> <Gold.PLP.part.nonpolar>
-35.8958

> <Gold.PLP.part.repulsive>
0.1855

> <Gold.PLP.ligand.clash>
0.0000

> <Gold.PLP.ligand.torsion>
0.8494

> <Gold.PLP.Chemscore.Hbond>
2.5952

> <Gold.PLP.Chemscore.CHOScore>
1.0000

> <Gold.PLP.Chemscore.Metal>
0.0000

> <Gold.Chemscore.Hbonds>
donor molecule, donor type, donor heavy atom, donor atom, acceptor molecule, acceptor atom, score
      L1  H    10    34       P1  7948  0.07
      P1  H 10752 10764       L1    13  0.49
      L1  C    21    47       P1 10747  1.00

> <Gold.PLP.Chemscore.Internal.Correction>
0.2183

> <Gold.Rescore>
     Score         DG    S(hbond)    S(metal)    S(lipo)     H(rot)  DE(clash)    DE(int)     intcor
     15.75     -16.92       1.70        0.00      86.04       1.68       0.10       1.07       ----

> <Gold.Chemscore.Fitness>
15.7537

> <Gold.Chemscore.DG>
-16.9201

> <Gold.Chemscore.ZeroCoef>
-5.4800

> <Gold.Chemscore.Hbond>
1.6982

> <Gold.Chemscore.Metal>
0.0000

> <Gold.Chemscore.Lipo>
86.0443

> <Gold.Chemscore.Internal_Hbond>
0.0000

> <Gold.Chemscore.DEClash>
0.0952

> <Gold.Chemscore.DEInternal>
1.0712

> <Gold.Chemscore.Rot>
1.6793

> <Gold.Chemscore.Internal.Correction>
   9.000000E+99

> <Gold.Chemscore.Hbonds>
donor molecule, donor type, donor heavy atom, donor atom, acceptor molecule, acceptor atom, score
      L1  H    10    34       P1  7948  0.01
      P1  H 10752 10764       L1    13  0.49

> <Gold.Chemscore.Hbond.Weighted>
-5.6720

> <Gold.Chemscore.Metal.Weighted>
-0.0000

> <Gold.Chemscore.Lipo.Weighted>
-10.0672

> <Gold.Chemscore.Internal_Hbond.Weighted>
0.0000

> <Gold.Chemscore.DEClash.Weighted>
0.0952

> <Gold.Chemscore.DEInternal.Weighted>
1.0712

> <Gold.Chemscore.Rot.Weighted>
4.2990

> <Gold.Chemscore.Internal.Correction.Weighted>
   9.000000E+99

> <Gold.Protein.RotatedTorsions>
[ 6907 6896 6895 6894 ] final -170.96 input  -60.11 | X-H torsion
[ 7974 7965 7964 7962 ] final   27.70 input  175.53 | X-H torsion
[ 8008 7997 7996 7995 ] final  140.00 input   59.86 | X-H torsion
[ 10167 10162 10161 10158 ] final -156.13 input  -65.29 | X-H torsion
[ 10718 10713 10712 10709 ] final -179.30 input   66.30 | X-H torsion
[ 10763 10752 10751 10750 ] final  -48.74 input  -60.55 | X-H torsion
[ 11005 11000 10999 10996 ] final  143.82 input  -57.11 | X-H torsion

> <Gold.Protein.ActiveResidues>
 VAL166  LYS551  ARG553  GLY616  TRP617  ASP618  TYR619  PRO620  LYS621  CYS622 
 ASP623  PHE694  ASN695  SER759  ASP760  ASP761  ALA762  ILE779  LEU786  VAL792 
 PHE793  MET794  SER795  GLU796  ALA797  LYS798  CYS799  TRP800  GLU811  SER814 

> <Gold.Protein.RotatedAtoms>
  151.5161  133.3475  159.2893 H   0  0  0  0  0  0  0  0  0  0  0  0  # atno 6907 bound_to 6896
  150.8681  134.8052  159.7145 H   0  0  0  0  0  0  0  0  0  0  0  0  # atno 6908 bound_to 6896
  152.4679  134.5041  159.9785 H   0  0  0  0  0  0  0  0  0  0  0  0  # atno 6909 bound_to 6896
  146.1770  139.7156  142.8927 H   0  0  0  0  0  0  0  0  0  0  0  0  # atno 7974 bound_to 7965
  156.2984  140.2353  156.4330 H   0  0  0  0  0  0  0  0  0  0  0  0  # atno 8008 bound_to 7997
  154.8253  140.0435  157.1460 H   0  0  0  0  0  0  0  0  0  0  0  0  # atno 8009 bound_to 7997
  154.9268  140.3011  155.5191 H   0  0  0  0  0  0  0  0  0  0  0  0  # atno 8010 bound_to 7997
  139.6875  143.9476  152.2368 H   0  0  0  0  0  0  0  0  0  0  0  0  # atno 10167 bound_to 10162
  156.8571  130.9739  151.3087 H   0  0  0  0  0  0  0  0  0  0  0  0  # atno 10718 bound_to 10713
  154.0827  135.6589  153.4840 H   0  0  0  0  0  0  0  0  0  0  0  0  # atno 10763 bound_to 10752
  153.0350  135.5184  154.7458 H   0  0  0  0  0  0  0  0  0  0  0  0  # atno 10764 bound_to 10752
  154.6558  135.3007  154.9898 H   0  0  0  0  0  0  0  0  0  0  0  0  # atno 10765 bound_to 10752
  140.0584  134.9218  157.1141 H   0  0  0  0  0  0  0  0  0  0  0  0  # atno 11005 bound_to 11000
  145.4184  141.0404  143.2977 LP  0  0  0  0  0  0  0  0  0  0  0  0  # atno 17320 bound_to 7965
  144.8252  139.5722  143.6969 LP  0  0  0  0  0  0  0  0  0  0  0  0  # atno 17321 bound_to 7965
  139.9283  144.6757  150.8389 LP  0  0  0  0  0  0  0  0  0  0  0  0  # atno 17342 bound_to 10162
  140.7672  143.3326  151.2377 LP  0  0  0  0  0  0  0  0  0  0  0  0  # atno 17343 bound_to 10162
  157.6271  130.8700  149.9208 LP  0  0  0  0  0  0  0  0  0  0  0  0  # atno 17370 bound_to 10713
  156.0797  130.3674  150.0606 LP  0  0  0  0  0  0  0  0  0  0  0  0  # atno 17371 bound_to 10713
  140.3808  134.2289  155.7171 LP  0  0  0  0  0  0  0  0  0  0  0  0  # atno 17394 bound_to 11000
  141.1962  133.8087  157.0681 LP  0  0  0  0  0  0  0  0  0  0  0  0  # atno 17395 bound_to 11000

$$$$
