AV-unprocessed.smi:670|AV-procd|sdf|3265|dock1
  -GOLD-   22720 0213D 1   1.00000     0.00000
 Structure written by MMmdl.
 44 45  0  0  0  0  0  0  0  0  2 V2000
  153.3396  141.3507  160.6066 C   0  0  0  0  0  0  0  0  0  0  0  0
  152.8568  142.2891  159.4885 C   0  0  2  0  0  0  0  0  0  0  0  0
  152.2490  143.5754  160.0834 C   0  0  0  0  0  0  0  0  0  0  0  0
  151.7542  144.5317  158.9880 C   0  0  0  0  0  0  0  0  0  0  0  0
  150.7449  143.8359  158.0643 C   0  0  0  0  0  0  0  0  0  0  0  0
  151.3431  142.5581  157.4581 C   0  0  0  0  0  0  0  0  0  0  0  0
  151.8465  141.5902  158.5503 C   0  0  1  0  0  0  0  0  0  0  0  0
  152.5091  140.4917  157.9368 O   0  0  0  0  0  0  0  0  0  0  0  0
  151.7665  139.8542  156.9075 C   0  0  0  0  0  0  0  0  0  0  0  0
  151.4737  138.4107  157.3297 C   0  0  0  0  0  0  0  0  0  0  0  0
  150.1112  138.2929  157.8294 N   0  0  0  0  0  0  0  0  0  0  0  0
  149.6365  137.2389  158.5075 C   0  0  0  0  0  0  0  0  0  0  0  0
  150.3224  136.2518  158.7786 O   0  0  0  0  0  0  0  0  0  0  0  0
  148.1592  137.3278  158.9229 C   0  0  0  0  0  0  0  0  0  0  0  0
  147.7903  136.4459  160.0402 N   0  0  0  0  0  0  0  0  0  0  0  0
  147.3597  137.1611  161.2382 N   0  5  0  0  0  0  0  0  0  0  0  0
  146.9890  136.4511  162.3366 C   0  0  0  0  0  0  0  0  0  0  0  0
  146.6068  136.9833  163.3765 O   0  0  0  0  0  0  0  0  0  0  0  0
  147.0558  135.0006  162.2683 C   0  0  0  0  0  0  0  0  0  0  0  0
  147.4763  134.3671  161.1556 C   0  0  0  0  0  0  0  0  0  0  0  0
  147.8849  135.0877  159.9559 C   0  0  0  0  0  0  0  0  0  0  0  0
  148.2842  134.5162  158.9410 O   0  0  0  0  0  0  0  0  0  0  0  0
  152.5106  141.0241  161.2354 H   0  0  0  0  0  0  0  0  0  0  0  0
  154.0678  141.8478  161.2478 H   0  0  0  0  0  0  0  0  0  0  0  0
  153.8193  140.4604  160.1993 H   0  0  0  0  0  0  0  0  0  0  0  0
  153.7278  142.5739  158.8962 H   0  0  0  0  0  0  0  0  0  0  0  0
  151.4180  143.3195  160.7422 H   0  0  0  0  0  0  0  0  0  0  0  0
  152.9875  144.0848  160.7035 H   0  0  0  0  0  0  0  0  0  0  0  0
  151.2979  145.4123  159.4411 H   0  0  0  0  0  0  0  0  0  0  0  0
  152.6025  144.8886  158.4027 H   0  0  0  0  0  0  0  0  0  0  0  0
  149.8431  143.5879  158.6257 H   0  0  0  0  0  0  0  0  0  0  0  0
  150.4382  144.5165  157.2696 H   0  0  0  0  0  0  0  0  0  0  0  0
  150.5943  142.0750  156.8309 H   0  0  0  0  0  0  0  0  0  0  0  0
  152.1701  142.8243  156.7985 H   0  0  0  0  0  0  0  0  0  0  0  0
  151.0036  141.2388  159.1490 H   0  0  0  0  0  0  0  0  0  0  0  0
  150.8283  140.3884  156.7519 H   0  0  0  0  0  0  0  0  0  0  0  0
  152.3080  139.8641  155.9612 H   0  0  0  0  0  0  0  0  0  0  0  0
  151.6198  137.7334  156.4871 H   0  0  0  0  0  0  0  0  0  0  0  0
  152.1704  138.1081  158.1129 H   0  0  0  0  0  0  0  0  0  0  0  0
  149.4825  139.0588  157.6354 H   0  0  0  0  0  0  0  0  0  0  0  0
  147.9253  138.3608  159.1858 H   0  0  0  0  0  0  0  0  0  0  0  0
  147.5496  137.1053  158.0452 H   0  0  0  0  0  0  0  0  0  0  0  0
  146.7640  134.4184  163.1299 H   0  0  0  0  0  0  0  0  0  0  0  0
  147.5120  133.2879  161.1501 H   0  0  0  0  0  0  0  0  0  0  0  0
  1  2  1  0  0  0  0
  1 23  1  0  0  0  0
  1 24  1  0  0  0  0
  1 25  1  0  0  0  0
  2  7  1  0  0  0  0
  2  3  1  0  0  0  0
  2 26  1  0  0  0  0
  3  4  1  0  0  0  0
  3 27  1  0  0  0  0
  3 28  1  0  0  0  0
  4  5  1  0  0  0  0
  4 29  1  0  0  0  0
  4 30  1  0  0  0  0
  5  6  1  0  0  0  0
  5 31  1  0  0  0  0
  5 32  1  0  0  0  0
  6  7  1  0  0  0  0
  6 33  1  0  0  0  0
  6 34  1  0  0  0  0
  7  8  1  0  0  0  0
  7 35  1  0  0  0  0
  8  9  1  0  0  0  0
  9 10  1  0  0  0  0
  9 36  1  0  0  0  0
  9 37  1  0  0  0  0
 10 11  1  0  0  0  0
 10 38  1  0  0  0  0
 10 39  1  0  0  0  0
 11 12  1  0  0  0  0
 11 40  1  0  0  0  0
 12 13  2  0  0  0  0
 12 14  1  0  0  0  0
 14 41  1  0  0  0  0
 14 42  1  0  0  0  0
 14 15  1  0  0  0  0
 15 16  1  0  0  0  0
 15 21  1  0  0  0  0
 16 17  1  0  0  0  0
 17 18  2  0  0  0  0
 17 19  1  0  0  0  0
 19 43  1  0  0  0  0
 19 20  2  0  0  0  0
 20 44  1  0  0  0  0
 20 21  1  0  0  0  0
 21 22  2  0  0  0  0
M  CHG  1  16  -1
M  END
> <s_m_source_file>
AV-unprocessed.smi

> <i_m_source_file_index>
670

> <i_lp_mmshare_version>
43012

> <i_f3d_flags>
0

> <s_epik_input>
W0NIM11bQ0BASF0xW0NIMl1bQ0gyXVtDSDJdW0NIMl1bQ0BIXTFPW0NIMl1bQ0gyXVtOSF1DKD1PKVtDSDJdbjJbbkhdYyg9TylbY0hdW2NIXWMyPU8=

> <s_epik_cmdline>
J2VwaWtfcHl0aG9uJywgJy1waCcsICc3LjAnLCAnLXRuJywgJzgnLCAnLW1hJywgJzIwMCcsICctbWV0YWxfYmluZGluZycsICctaW1hZScsICc8aW5maWxlLm1hZT4nLCAnLW9tYWUnLCAnPG91dGZpbGUubWFlPic=

> <r_lp_tautomer_probability>
1

> <r_epik_Ionization_Penalty>
0.0975638

> <r_epik_Ionization_Penalty_Charging>
0.0975637

> <r_epik_Ionization_Penalty_Neutral>
2.78599e-08

> <r_epik_State_Penalty>
0.0343507

> <r_epik_Charging_Adjusted_Penalty>
0.131914

> <i_epik_Tot_Q>
-1

> <i_epik_Tot_abs_Q>
1

> <r_epik_Metal_State_Penalty>
0.0343507

> <b_epik_Metal_Only>
0

> <s_lp_Force_Field>
OPLS_2005

> <r_lp_Energy>
26.6339

> <b_lp_Chiralities_Consistent>
1

> <s_lp_Variant>
AV-unprocessed.smi:670-1

> <Gold.Version>
5.8.1

> <Gold.Id.Protein>
6NUR|6NUR_protein|mol2

> <Gold.PLP.Fitness>
56.6069

> <Gold.PLP.PLP>
-43.0682

> <Gold.PLP.part.hbond>
-4.4519

> <Gold.PLP.part.metal>
0.0000

> <Gold.PLP.part.buried>
-1.4728

> <Gold.PLP.part.nonpolar>
-36.2139

> <Gold.PLP.part.repulsive>
0.1102

> <Gold.PLP.ligand.clash>
0.0000

> <Gold.PLP.ligand.torsion>
1.0878

> <Gold.PLP.Chemscore.Hbond>
5.1860

> <Gold.PLP.Chemscore.CHOScore>
0.0000

> <Gold.PLP.Chemscore.Metal>
0.0000

> <Gold.Chemscore.Hbonds>
donor molecule, donor type, donor heavy atom, donor atom, acceptor molecule, acceptor atom, score
      P1  H  6896  6909       L1    13  1.00
      P1  H  6931  6943       L1    16  1.46
      P1  H  6934  6947       L1    16  2.00
      P1  H  7997  8010       L1     8  0.19

> <Gold.PLP.Chemscore.Internal.Correction>
0.1563

> <Gold.Rescore>
     Score         DG    S(hbond)    S(metal)    S(lipo)     H(rot)  DE(clash)    DE(int)     intcor
     16.21     -17.49       1.87        0.00     102.86       2.45       0.13       1.15       ----

> <Gold.Chemscore.Fitness>
16.2101

> <Gold.Chemscore.DG>
-17.4901

> <Gold.Chemscore.ZeroCoef>
-5.4800

> <Gold.Chemscore.Hbond>
1.8697

> <Gold.Chemscore.Metal>
0.0000

> <Gold.Chemscore.Lipo>
102.8610

> <Gold.Chemscore.Internal_Hbond>
0.0000

> <Gold.Chemscore.DEClash>
0.1268

> <Gold.Chemscore.DEInternal>
1.1531

> <Gold.Chemscore.Rot>
2.4490

> <Gold.Chemscore.Internal.Correction>
   9.000000E+99

> <Gold.Chemscore.Hbonds>
donor molecule, donor type, donor heavy atom, donor atom, acceptor molecule, acceptor atom, score
      P1  H  6896  6909       L1    13  0.97
      P1  H  6931  6943       L1    16  0.17
      P1  H  6934  6947       L1    16  0.78
      P1  H  7997  8010       L1     8  0.03

> <Gold.Chemscore.Hbond.Weighted>
-6.2447

> <Gold.Chemscore.Metal.Weighted>
-0.0000

> <Gold.Chemscore.Lipo.Weighted>
-12.0347

> <Gold.Chemscore.Internal_Hbond.Weighted>
0.0000

> <Gold.Chemscore.DEClash.Weighted>
0.1268

> <Gold.Chemscore.DEInternal.Weighted>
1.1531

> <Gold.Chemscore.Rot.Weighted>
6.2694

> <Gold.Chemscore.Internal.Correction.Weighted>
   9.000000E+99

> <Gold.Protein.RotatedTorsions>
[ 6907 6896 6895 6894 ] final   85.06 input  -60.11 | X-H torsion
[ 7974 7965 7964 7962 ] final  -73.64 input  175.53 | X-H torsion
[ 8008 7997 7996 7995 ] final   34.27 input   59.86 | X-H torsion
[ 10167 10162 10161 10158 ] final   60.25 input  -65.29 | X-H torsion
[ 10718 10713 10712 10709 ] final   27.77 input   66.30 | X-H torsion
[ 10763 10752 10751 10750 ] final  167.22 input  -60.55 | X-H torsion
[ 11005 11000 10999 10996 ] final    8.94 input  -57.11 | X-H torsion

> <Gold.Protein.ActiveResidues>
 VAL166  LYS551  ARG553  GLY616  TRP617  ASP618  TYR619  PRO620  LYS621  CYS622 
 ASP623  PHE694  ASN695  SER759  ASP760  ASP761  ALA762  ILE779  LEU786  VAL792 
 PHE793  MET794  SER795  GLU796  ALA797  LYS798  CYS799  TRP800  GLU811  SER814 

> <Gold.Protein.RotatedAtoms>
  152.5366  134.2644  159.8947 H   0  0  0  0  0  0  0  0  0  0  0  0  # atno 6907 bound_to 6896
  151.2603  133.4299  159.2623 H   0  0  0  0  0  0  0  0  0  0  0  0  # atno 6908 bound_to 6896
  151.0459  134.9654  159.8242 H   0  0  0  0  0  0  0  0  0  0  0  0  # atno 6909 bound_to 6896
  145.6495  140.9287  143.0992 H   0  0  0  0  0  0  0  0  0  0  0  0  # atno 7974 bound_to 7965
  155.1521  140.3276  155.4429 H   0  0  0  0  0  0  0  0  0  0  0  0  # atno 8008 bound_to 7997
  156.2571  140.1975  156.6582 H   0  0  0  0  0  0  0  0  0  0  0  0  # atno 8009 bound_to 7997
  154.6465  140.0563  156.9893 H   0  0  0  0  0  0  0  0  0  0  0  0  # atno 8010 bound_to 7997
  140.1676  144.4308  150.6677 H   0  0  0  0  0  0  0  0  0  0  0  0  # atno 10167 bound_to 10162
  157.2246  130.6995  149.6286 H   0  0  0  0  0  0  0  0  0  0  0  0  # atno 10718 bound_to 10713
  154.3506  135.2753  155.2374 H   0  0  0  0  0  0  0  0  0  0  0  0  # atno 10763 bound_to 10752
  154.4604  135.5908  153.6255 H   0  0  0  0  0  0  0  0  0  0  0  0  # atno 10764 bound_to 10752
  152.9850  135.6063  154.3717 H   0  0  0  0  0  0  0  0  0  0  0  0  # atno 10765 bound_to 10752
  140.5313  134.0464  155.7874 H   0  0  0  0  0  0  0  0  0  0  0  0  # atno 11005 bound_to 11000
  144.7128  139.8308  143.7409 LP  0  0  0  0  0  0  0  0  0  0  0  0  # atno 17320 bound_to 7965
  146.1215  139.4234  143.0225 LP  0  0  0  0  0  0  0  0  0  0  0  0  # atno 17321 bound_to 7965
  140.6602  143.2250  151.5873 LP  0  0  0  0  0  0  0  0  0  0  0  0  # atno 17342 bound_to 10162
  139.5352  144.2801  152.1236 LP  0  0  0  0  0  0  0  0  0  0  0  0  # atno 17343 bound_to 10162
  155.9679  130.4508  150.5713 LP  0  0  0  0  0  0  0  0  0  0  0  0  # atno 17370 bound_to 10713
  157.3540  131.0738  151.1690 LP  0  0  0  0  0  0  0  0  0  0  0  0  # atno 17371 bound_to 10713
  141.1280  133.9351  157.2596 LP  0  0  0  0  0  0  0  0  0  0  0  0  # atno 17394 bound_to 11000
  139.9553  135.0167  156.9109 LP  0  0  0  0  0  0  0  0  0  0  0  0  # atno 17395 bound_to 11000

$$$$
