AV-unprocessed.smi:445|AV-procd|sdf|2592|dock7
  -GOLD-   2262022583D 1   1.00000     0.00000
 Structure written by MMmdl.
 44 45  0  0  0  0  0  0  0  0  3 V2000
  150.8659  140.4065  157.9775 C   0  0  0  0  0  0  0  0  0  0  0  0
  151.0304  141.9217  158.1962 C   0  0  1  0  0  0  0  0  0  0  0  0
  152.1854  142.2083  159.1769 C   0  0  0  0  0  0  0  0  0  0  0  0
  152.3575  143.7135  159.4322 C   0  0  0  0  0  0  0  0  0  0  0  0
  152.5699  144.4748  158.1167 C   0  0  0  0  0  0  0  0  0  0  0  0
  151.4218  144.2069  157.1328 C   0  0  0  0  0  0  0  0  0  0  0  0
  151.2371  142.6969  156.8709 C   0  0  2  0  0  0  0  0  0  0  0  0
  150.1003  142.4788  155.9818 N   0  0  0  0  0  0  0  0  0  0  0  0
  149.8726  141.3775  155.2463 C   0  0  0  0  0  0  0  0  0  0  0  0
  150.6382  140.4146  155.2337 O   0  0  0  0  0  0  0  0  0  0  0  0
  148.5911  141.3239  154.3960 C   0  0  0  0  0  0  0  0  0  0  0  0
  147.4539  142.0950  154.9366 N   0  0  0  0  0  0  0  0  0  0  0  0
  146.7722  142.9185  154.0232 C   0  0  0  0  0  0  0  0  0  0  0  0
  145.7161  143.6688  154.3827 C   0  0  0  0  0  0  0  0  0  0  0  0
  145.0265  144.5014  153.4206 N   0  3  0  0  0  0  0  0  0  0  0  0
  145.4809  144.5898  152.2844 O   0  0  0  0  0  0  0  0  0  0  0  0
  144.0095  145.0946  153.7671 O   0  5  0  0  0  0  0  0  0  0  0  0
  145.2845  143.6115  155.7639 C   0  0  0  0  0  0  0  0  0  0  0  0
  145.9228  142.8185  156.6624 C   0  0  0  0  0  0  0  0  0  0  0  0
  145.5105  142.7225  158.0807 C   0  0  0  0  0  0  0  0  0  0  0  0
  144.3331  143.2990  158.3537 N   0  0  0  0  0  0  0  0  0  0  0  0
  146.1309  142.1820  158.9960 O   0  0  0  0  0  0  0  0  0  0  0  0
  147.0856  141.9850  156.2517 C   0  0  0  0  0  0  0  0  0  0  0  0
  147.7075  141.2261  156.9995 O   0  0  0  0  0  0  0  0  0  0  0  0
  151.7425  139.9802  157.4886 H   0  0  0  0  0  0  0  0  0  0  0  0
  149.9963  140.1783  157.3604 H   0  0  0  0  0  0  0  0  0  0  0  0
  150.7305  139.8875  158.9267 H   0  0  0  0  0  0  0  0  0  0  0  0
  150.1106  142.2843  158.6584 H   0  0  0  0  0  0  0  0  0  0  0  0
  152.0053  141.6992  160.1243 H   0  0  0  0  0  0  0  0  0  0  0  0
  153.1156  141.7993  158.7800 H   0  0  0  0  0  0  0  0  0  0  0  0
  151.4758  144.1023  159.9430 H   0  0  0  0  0  0  0  0  0  0  0  0
  153.2022  143.8834  160.1004 H   0  0  0  0  0  0  0  0  0  0  0  0
  152.6486  145.5442  158.3143 H   0  0  0  0  0  0  0  0  0  0  0  0
  153.5163  144.1724  157.6665 H   0  0  0  0  0  0  0  0  0  0  0  0
  150.4976  144.6276  157.5324 H   0  0  0  0  0  0  0  0  0  0  0  0
  151.6187  144.7317  156.1973 H   0  0  0  0  0  0  0  0  0  0  0  0
  152.1384  142.3128  156.3887 H   0  0  0  0  0  0  0  0  0  0  0  0
  149.4223  143.2249  155.9305 H   0  0  0  0  0  0  0  0  0  0  0  0
  148.8355  141.6538  153.3849 H   0  0  0  0  0  0  0  0  0  0  0  0
  148.3090  140.2763  154.2801 H   0  0  0  0  0  0  0  0  0  0  0  0
  147.1628  142.8882  153.0159 H   0  0  0  0  0  0  0  0  0  0  0  0
  144.4373  144.2146  156.0543 H   0  0  0  0  0  0  0  0  0  0  0  0
  143.9655  143.2836  159.2936 H   0  0  0  0  0  0  0  0  0  0  0  0
  143.8138  143.7473  157.6125 H   0  0  0  0  0  0  0  0  0  0  0  0
  1  2  1  0  0  0  0
  1 25  1  0  0  0  0
  1 26  1  0  0  0  0
  1 27  1  0  0  0  0
  2  7  1  0  0  0  0
  2  3  1  0  0  0  0
  2 28  1  0  0  0  0
  3  4  1  0  0  0  0
  3 29  1  0  0  0  0
  3 30  1  0  0  0  0
  4  5  1  0  0  0  0
  4 31  1  0  0  0  0
  4 32  1  0  0  0  0
  5  6  1  0  0  0  0
  5 33  1  0  0  0  0
  5 34  1  0  0  0  0
  6  7  1  0  0  0  0
  6 35  1  0  0  0  0
  6 36  1  0  0  0  0
  7  8  1  0  0  0  0
  7 37  1  0  0  0  0
  8  9  1  0  0  0  0
  8 38  1  0  0  0  0
  9 10  2  0  0  0  0
  9 11  1  0  0  0  0
 11 12  1  0  0  0  0
 11 39  1  0  0  0  0
 11 40  1  0  0  0  0
 12 23  1  0  0  0  0
 12 13  1  0  0  0  0
 13 14  2  0  0  0  0
 13 41  1  0  0  0  0
 14 15  1  0  0  0  0
 14 18  1  0  0  0  0
 15 16  2  0  0  0  0
 15 17  1  0  0  0  0
 18 19  2  0  0  0  0
 18 42  1  0  0  0  0
 19 20  1  0  0  0  0
 19 23  1  0  0  0  0
 20 21  1  0  0  0  0
 20 22  2  0  0  0  0
 21 43  1  0  0  0  0
 21 44  1  0  0  0  0
 23 24  2  0  0  0  0
M  CHG  1  15   1
M  CHG  1  17  -1
M  END
> <s_m_source_file>
AV-unprocessed.smi

> <i_m_source_file_index>
445

> <i_lp_mmshare_version>
43012

> <i_f3d_flags>
0

> <s_epik_input>
W0NIM11bQ0BASF0xW0NIMl1bQ0gyXVtDSDJdW0NIMl1bQ0BIXTFbTkhdQyg9TylbQ0gyXW4yW2NIXWMoW04rXSg9TylbTy1dKVtjSF1jKGMyPU8pQyg9TylbTkgyXQ==

> <s_epik_cmdline>
J2VwaWtfcHl0aG9uJywgJy1waCcsICc3LjAnLCAnLXRuJywgJzgnLCAnLW1hJywgJzIwMCcsICctbWV0YWxfYmluZGluZycsICctaW1hZScsICc8aW5maWxlLm1hZT4nLCAnLW9tYWUnLCAnPG91dGZpbGUubWFlPic=

> <r_lp_tautomer_probability>
1

> <r_epik_Ionization_Penalty>
2.81321e-06

> <r_epik_Ionization_Penalty_Charging>
2.43777e-12

> <r_epik_Ionization_Penalty_Neutral>
2.81321e-06

> <r_epik_State_Penalty>
-0

> <r_epik_Charging_Adjusted_Penalty>
2.43777e-12

> <i_epik_Tot_Q>
0

> <i_epik_Tot_abs_Q>
2

> <r_epik_Metal_State_Penalty>
-0

> <b_epik_Metal_Only>
0

> <s_lp_Force_Field>
OPLS_2005

> <r_lp_Energy>
28.9067

> <b_lp_Chiralities_Consistent>
1

> <s_lp_Variant>
AV-unprocessed.smi:445-4

> <Gold.Version>
5.8.1

> <Gold.Id.Protein>
6NUR|6NUR_protein|mol2

> <Gold.PLP.Fitness>
52.2905

> <Gold.PLP.PLP>
-45.0968

> <Gold.PLP.part.hbond>
-3.3035

> <Gold.PLP.part.metal>
0.0000

> <Gold.PLP.part.buried>
-4.3136

> <Gold.PLP.part.nonpolar>
-38.7058

> <Gold.PLP.part.repulsive>
0.5427

> <Gold.PLP.ligand.clash>
0.0000

> <Gold.PLP.ligand.torsion>
0.8376

> <Gold.PLP.Chemscore.Hbond>
2.9440

> <Gold.PLP.Chemscore.CHOScore>
0.0000

> <Gold.PLP.Chemscore.Metal>
0.0000

> <Gold.Chemscore.Hbonds>
donor molecule, donor type, donor heavy atom, donor atom, acceptor molecule, acceptor atom, score
      L1  H     8    38       P1  8028  1.00
      P1  H  6934  6946       L1    22  0.34
      P1  H  7989  7998       L1    10  0.81

> <Gold.PLP.Chemscore.Internal.Correction>
0.0369

> <Gold.Rescore>
     Score         DG    S(hbond)    S(metal)    S(lipo)     H(rot)  DE(clash)    DE(int)     intcor
     14.61     -19.68       2.27        0.00      94.03       1.71       1.31       3.76       ----

> <Gold.Chemscore.Fitness>
14.6097

> <Gold.Chemscore.DG>
-19.6772

> <Gold.Chemscore.ZeroCoef>
-5.4800

> <Gold.Chemscore.Hbond>
2.2693

> <Gold.Chemscore.Metal>
0.0000

> <Gold.Chemscore.Lipo>
94.0262

> <Gold.Chemscore.Internal_Hbond>
0.0000

> <Gold.Chemscore.DEClash>
1.3091

> <Gold.Chemscore.DEInternal>
3.7584

> <Gold.Chemscore.Rot>
1.7123

> <Gold.Chemscore.Internal.Correction>
   9.000000E+99

> <Gold.Chemscore.Hbonds>
donor molecule, donor type, donor heavy atom, donor atom, acceptor molecule, acceptor atom, score
      L1  H     8    38       P1  8028  0.98
      P1  H  6934  6946       L1    22  0.32
      P1  H  7989  7998       L1    10  0.13

> <Gold.Chemscore.Hbond.Weighted>
-7.5796

> <Gold.Chemscore.Metal.Weighted>
-0.0000

> <Gold.Chemscore.Lipo.Weighted>
-11.0011

> <Gold.Chemscore.Internal_Hbond.Weighted>
0.0000

> <Gold.Chemscore.DEClash.Weighted>
1.3091

> <Gold.Chemscore.DEInternal.Weighted>
3.7584

> <Gold.Chemscore.Rot.Weighted>
4.3835

> <Gold.Chemscore.Internal.Correction.Weighted>
   9.000000E+99

> <Gold.Protein.RotatedTorsions>
[ 6907 6896 6895 6894 ] final   10.75 input  -60.11 | X-H torsion
[ 7974 7965 7964 7962 ] final   66.51 input  175.53 | X-H torsion
[ 8008 7997 7996 7995 ] final  -42.02 input   59.86 | X-H torsion
[ 10167 10162 10161 10158 ] final  101.06 input  -65.29 | X-H torsion
[ 10718 10713 10712 10709 ] final  -75.82 input   66.30 | X-H torsion
[ 10763 10752 10751 10750 ] final   -4.83 input  -60.55 | X-H torsion
[ 11005 11000 10999 10996 ] final   -2.27 input  -57.11 | X-H torsion

> <Gold.Protein.ActiveResidues>
 VAL166  LYS551  ARG553  GLY616  TRP617  ASP618  TYR619  PRO620  LYS621  CYS622 
 ASP623  PHE694  ASN695  SER759  ASP760  ASP761  ALA762  ILE779  LEU786  VAL792 
 PHE793  MET794  SER795  GLU796  ALA797  LYS798  CYS799  TRP800  GLU811  SER814 

> <Gold.Protein.RotatedAtoms>
  151.7432  135.0849  160.0318 H   0  0  0  0  0  0  0  0  0  0  0  0  # atno 6907 bound_to 6896
  152.3465  133.6124  159.5922 H   0  0  0  0  0  0  0  0  0  0  0  0  # atno 6908 bound_to 6896
  150.7512  133.9557  159.3541 H   0  0  0  0  0  0  0  0  0  0  0  0  # atno 6909 bound_to 6896
  145.8257  139.3110  143.1017 H   0  0  0  0  0  0  0  0  0  0  0  0  # atno 7974 bound_to 7965
  154.4001  140.1484  156.3286 H   0  0  0  0  0  0  0  0  0  0  0  0  # atno 8008 bound_to 7997
  155.8464  140.3460  155.5643 H   0  0  0  0  0  0  0  0  0  0  0  0  # atno 8009 bound_to 7997
  155.8031  140.0873  157.1936 H   0  0  0  0  0  0  0  0  0  0  0  0  # atno 8010 bound_to 7997
  139.7471  144.6995  151.0487 H   0  0  0  0  0  0  0  0  0  0  0  0  # atno 10167 bound_to 10162
  156.0195  130.4450  150.3101 H   0  0  0  0  0  0  0  0  0  0  0  0  # atno 10718 bound_to 10713
  153.3902  135.7001  153.6500 H   0  0  0  0  0  0  0  0  0  0  0  0  # atno 10763 bound_to 10752
  153.5076  135.3639  155.2571 H   0  0  0  0  0  0  0  0  0  0  0  0  # atno 10764 bound_to 10752
  154.8701  135.4127  154.3217 H   0  0  0  0  0  0  0  0  0  0  0  0  # atno 10765 bound_to 10752
  140.6565  133.9358  155.8411 H   0  0  0  0  0  0  0  0  0  0  0  0  # atno 11005 bound_to 11000
  145.9626  140.8824  143.0203 LP  0  0  0  0  0  0  0  0  0  0  0  0  # atno 17320 bound_to 7965
  144.6744  140.1833  143.7403 LP  0  0  0  0  0  0  0  0  0  0  0  0  # atno 17321 bound_to 7965
  140.7793  143.4853  150.9964 LP  0  0  0  0  0  0  0  0  0  0  0  0  # atno 17342 bound_to 10162
  139.8541  143.7400  152.3177 LP  0  0  0  0  0  0  0  0  0  0  0  0  # atno 17343 bound_to 10162
  157.1203  131.0245  151.3012 LP  0  0  0  0  0  0  0  0  0  0  0  0  # atno 17370 bound_to 10713
  157.4633  130.7666  149.7256 LP  0  0  0  0  0  0  0  0  0  0  0  0  # atno 17371 bound_to 10713
  141.0497  134.0502  157.3798 LP  0  0  0  0  0  0  0  0  0  0  0  0  # atno 17394 bound_to 11000
  139.9027  135.0170  156.7346 LP  0  0  0  0  0  0  0  0  0  0  0  0  # atno 17395 bound_to 11000

$$$$
