AV-unprocessed.smi:4|AV-procd|sdf|33|dock2
  -GOLD-   2262015143D 1   1.00000     0.00000
 Structure written by MMmdl.
 44 45  0  0  0  0  0  0  0  0  2 V2000
  149.3712  136.7383  155.7752 C   0  0  0  0  0  0  0  0  0  0  0  0
  150.0114  135.5702  156.5699 C   0  0  0  0  0  0  0  0  0  0  0  0
  151.4833  135.9951  156.8104 C   0  0  0  0  0  0  0  0  0  0  0  0
  149.2306  135.5047  157.9082 C   0  0  0  0  0  0  0  0  0  0  0  0
  149.9395  134.2834  155.8456 N   0  0  0  0  0  0  0  0  0  0  0  0
  149.2229  134.0930  154.6615 C   0  0  0  0  0  0  0  0  0  0  0  0
  149.1570  132.9230  153.9760 C   0  0  0  0  0  0  0  0  0  0  0  0
  148.3308  132.7865  152.7018 C   0  0  0  0  0  0  0  0  0  0  0  0
  147.4508  133.9556  152.4834 N   0  3  0  0  0  0  0  0  0  0  0  0
  146.5974  133.8944  151.2767 C   0  0  0  0  0  0  0  0  0  0  0  0
  145.4658  134.9261  151.3358 C   0  0  0  0  0  0  0  0  0  0  0  0
  146.0798  136.1973  151.2725 O   0  0  0  0  0  0  0  0  0  0  0  0
  144.3142  134.7416  150.3304 C   0  0  0  0  0  0  0  0  0  0  0  0
  143.4977  134.0655  151.4320 C   0  0  0  0  0  0  0  0  0  0  0  0
  144.4047  134.7687  152.4421 C   0  0  0  0  0  0  0  0  0  0  0  0
  149.8526  131.7460  154.4969 C   0  0  0  0  0  0  0  0  0  0  0  0
  149.8629  130.6325  153.9752 O   0  0  0  0  0  0  0  0  0  0  0  0
  150.5560  131.9593  155.6797 N   0  0  0  0  0  0  0  0  0  0  0  0
  150.6389  133.1620  156.3774 C   0  0  0  0  0  0  0  0  0  0  0  0
  151.3078  133.1862  157.4088 O   0  0  0  0  0  0  0  0  0  0  0  0
  151.0531  131.1705  156.0683 H   0  0  0  0  0  0  0  0  0  0  0  0
  149.4379  137.6768  156.3275 H   0  0  0  0  0  0  0  0  0  0  0  0
  148.3105  136.5703  155.5834 H   0  0  0  0  0  0  0  0  0  0  0  0
  149.8733  136.9078  154.8216 H   0  0  0  0  0  0  0  0  0  0  0  0
  152.0511  135.9903  155.8794 H   0  0  0  0  0  0  0  0  0  0  0  0
  152.0099  135.3598  157.5202 H   0  0  0  0  0  0  0  0  0  0  0  0
  151.5393  137.0052  157.2177 H   0  0  0  0  0  0  0  0  0  0  0  0
  149.1649  136.4888  158.3734 H   0  0  0  0  0  0  0  0  0  0  0  0
  149.6920  134.8561  158.6504 H   0  0  0  0  0  0  0  0  0  0  0  0
  148.2103  135.1528  157.7523 H   0  0  0  0  0  0  0  0  0  0  0  0
  148.6696  134.9042  154.2177 H   0  0  0  0  0  0  0  0  0  0  0  0
  148.9622  132.6189  151.8281 H   0  0  0  0  0  0  0  0  0  0  0  0
  147.6971  131.9034  152.7893 H   0  0  0  0  0  0  0  0  0  0  0  0
  146.8399  134.0378  153.2834 H   0  0  0  0  0  0  0  0  0  0  0  0
  147.2059  134.0579  150.3868 H   0  0  0  0  0  0  0  0  0  0  0  0
  146.1893  132.8864  151.1915 H   0  0  0  0  0  0  0  0  0  0  0  0
  146.9432  136.1075  151.6473 H   0  0  0  0  0  0  0  0  0  0  0  0
  143.8750  135.6851  150.0004 H   0  0  0  0  0  0  0  0  0  0  0  0
  144.5445  134.0943  149.4835 H   0  0  0  0  0  0  0  0  0  0  0  0
  142.4499  134.3644  151.4729 H   0  0  0  0  0  0  0  0  0  0  0  0
  143.6125  132.9806  151.4402 H   0  0  0  0  0  0  0  0  0  0  0  0
  144.7028  134.1427  153.2836 H   0  0  0  0  0  0  0  0  0  0  0  0
  143.9953  135.7216  152.7825 H   0  0  0  0  0  0  0  0  0  0  0  0
  148.0188  134.7892  152.4306 H   0  0  0  0  0  0  0  0  0  0  0  0
  1  2  1  0  0  0  0
  1 22  1  0  0  0  0
  1 23  1  0  0  0  0
  1 24  1  0  0  0  0
  2  3  1  0  0  0  0
  2  4  1  0  0  0  0
  2  5  1  0  0  0  0
  3 25  1  0  0  0  0
  3 26  1  0  0  0  0
  3 27  1  0  0  0  0
  4 28  1  0  0  0  0
  4 29  1  0  0  0  0
  4 30  1  0  0  0  0
  5 19  1  0  0  0  0
  5  6  1  0  0  0  0
  6  7  2  0  0  0  0
  6 31  1  0  0  0  0
  7  8  1  0  0  0  0
  7 16  1  0  0  0  0
  8  9  1  0  0  0  0
  8 32  1  0  0  0  0
  8 33  1  0  0  0  0
  9 10  1  0  0  0  0
  9 34  1  0  0  0  0
  9 44  1  0  0  0  0
 10 11  1  0  0  0  0
 10 35  1  0  0  0  0
 10 36  1  0  0  0  0
 11 15  1  0  0  0  0
 11 12  1  0  0  0  0
 11 13  1  0  0  0  0
 12 37  1  0  0  0  0
 13 14  1  0  0  0  0
 13 38  1  0  0  0  0
 13 39  1  0  0  0  0
 14 15  1  0  0  0  0
 14 40  1  0  0  0  0
 14 41  1  0  0  0  0
 15 42  1  0  0  0  0
 15 43  1  0  0  0  0
 16 17  2  0  0  0  0
 16 18  1  0  0  0  0
 18 21  1  0  0  0  0
 18 19  1  0  0  0  0
 19 20  2  0  0  0  0
M  CHG  1   9   1
M  END
> <s_m_source_file>
AV-unprocessed.smi

> <i_m_source_file_index>
4

> <i_lp_mmshare_version>
43012

> <i_f3d_flags>
0

> <s_epik_input>
W0NIM11DKFtDSDNdKShbQ0gzXSluMVtjSF1jKGMoPU8pW25IXWMxPU8pW0NIMl1bTkhdW0NIMl1DMihbT0hdKVtDSDJdW0NIMl1bQ0gyXTI=

> <s_epik_cmdline>
J2VwaWtfcHl0aG9uJywgJy1waCcsICc3LjAnLCAnLXRuJywgJzgnLCAnLW1hJywgJzIwMCcsICctbWV0YWxfYmluZGluZycsICctaW1hZScsICc8aW5maWxlLm1hZT4nLCAnLW9tYWUnLCAnPG91dGZpbGUubWFlPic=

> <r_lp_tautomer_probability>
0.999537

> <r_epik_Ionization_Penalty>
0.0188443

> <r_epik_Ionization_Penalty_Charging>
0.0188443

> <r_epik_Ionization_Penalty_Neutral>
1.97485e-08

> <r_epik_State_Penalty>
0.0134361

> <r_epik_Charging_Adjusted_Penalty>
0.0322804

> <i_epik_Tot_Q>
1

> <i_epik_Tot_abs_Q>
1

> <r_epik_Metal_State_Penalty>
0.855907

> <b_epik_Metal_Only>
0

> <s_lp_Force_Field>
OPLS_2005

> <r_lp_Energy>
23.9463

> <b_lp_Chiralities_Consistent>
1

> <s_lp_Variant>
AV-unprocessed.smi:4-1

> <Gold.Version>
5.8.1

> <Gold.Id.Protein>
6NUR|6NUR_protein|mol2

> <Gold.PLP.Fitness>
44.1247

> <Gold.PLP.PLP>
-31.1399

> <Gold.PLP.part.hbond>
-3.0000

> <Gold.PLP.part.metal>
0.0000

> <Gold.PLP.part.buried>
-3.8130

> <Gold.PLP.part.nonpolar>
-24.6357

> <Gold.PLP.part.repulsive>
0.1181

> <Gold.PLP.ligand.clash>
0.0000

> <Gold.PLP.ligand.torsion>
0.4485

> <Gold.PLP.Chemscore.Hbond>
3.5760

> <Gold.PLP.Chemscore.CHOScore>
0.9990

> <Gold.PLP.Chemscore.Metal>
0.0000

> <Gold.Chemscore.Hbonds>
donor molecule, donor type, donor heavy atom, donor atom, acceptor molecule, acceptor atom, score
      L1  H     9    44       P1  7948  2.00
      L1  H    12    37       P1  7948  1.00
      P1  H  6896  6907       L1    20  0.80
      L1  C     6    31       P1  7948  0.59

> <Gold.PLP.Chemscore.Internal.Correction>
0.1569

> <Gold.Rescore>
     Score         DG    S(hbond)    S(metal)    S(lipo)     H(rot)  DE(clash)    DE(int)     intcor
     12.38     -14.00       2.50        0.00      56.89       2.53       0.05       1.56       ----

> <Gold.Chemscore.Fitness>
12.3780

> <Gold.Chemscore.DG>
-13.9959

> <Gold.Chemscore.ZeroCoef>
-5.4800

> <Gold.Chemscore.Hbond>
2.4960

> <Gold.Chemscore.Metal>
0.0000

> <Gold.Chemscore.Lipo>
56.8894

> <Gold.Chemscore.Internal_Hbond>
0.0000

> <Gold.Chemscore.DEClash>
0.0534

> <Gold.Chemscore.DEInternal>
1.5646

> <Gold.Chemscore.Rot>
2.5300

> <Gold.Chemscore.Internal.Correction>
   9.000000E+99

> <Gold.Chemscore.Hbonds>
donor molecule, donor type, donor heavy atom, donor atom, acceptor molecule, acceptor atom, score
      L1  H     9    44       P1  7948  0.65
      L1  H    12    37       P1  7948  0.96
      P1  H  6896  6907       L1    20  0.80

> <Gold.Chemscore.Hbond.Weighted>
-8.3367

> <Gold.Chemscore.Metal.Weighted>
-0.0000

> <Gold.Chemscore.Lipo.Weighted>
-6.6561

> <Gold.Chemscore.Internal_Hbond.Weighted>
0.0000

> <Gold.Chemscore.DEClash.Weighted>
0.0534

> <Gold.Chemscore.DEInternal.Weighted>
1.5646

> <Gold.Chemscore.Rot.Weighted>
6.4768

> <Gold.Chemscore.Internal.Correction.Weighted>
   9.000000E+99

> <Gold.Protein.RotatedTorsions>
[ 6907 6896 6895 6894 ] final -161.19 input  -60.11 | X-H torsion
[ 7974 7965 7964 7962 ] final  -63.76 input  175.53 | X-H torsion
[ 8008 7997 7996 7995 ] final -128.33 input   59.86 | X-H torsion
[ 10167 10162 10161 10158 ] final   18.13 input  -65.29 | X-H torsion
[ 10718 10713 10712 10709 ] final  -56.37 input   66.30 | X-H torsion
[ 10763 10752 10751 10750 ] final   10.00 input  -60.55 | X-H torsion
[ 11005 11000 10999 10996 ] final  110.08 input  -57.11 | X-H torsion

> <Gold.Protein.ActiveResidues>
 VAL166  LYS551  ARG553  GLY616  TRP617  ASP618  TYR619  PRO620  LYS621  CYS622 
 ASP623  PHE694  ASN695  SER759  ASP760  ASP761  ALA762  ILE779  LEU786  VAL792 
 PHE793  MET794  SER795  GLU796  ALA797  LYS798  CYS799  TRP800  GLU811  SER814 

> <Gold.Protein.RotatedAtoms>
  151.3608  133.3890  159.2689 H   0  0  0  0  0  0  0  0  0  0  0  0  # atno 6907 bound_to 6896
  150.9727  134.9098  159.7808 H   0  0  0  0  0  0  0  0  0  0  0  0  # atno 6908 bound_to 6896
  152.5190  134.3570  159.9323 H   0  0  0  0  0  0  0  0  0  0  0  0  # atno 6909 bound_to 6896
  145.7751  140.8792  143.0360 H   0  0  0  0  0  0  0  0  0  0  0  0  # atno 7974 bound_to 7965
  155.2608  140.0436  157.2997 H   0  0  0  0  0  0  0  0  0  0  0  0  # atno 8008 bound_to 7997
  154.5712  140.2374  155.8159 H   0  0  0  0  0  0  0  0  0  0  0  0  # atno 8009 bound_to 7997
  156.2123  140.2995  155.9769 H   0  0  0  0  0  0  0  0  0  0  0  0  # atno 8010 bound_to 7997
  140.5676  143.9222  150.6688 H   0  0  0  0  0  0  0  0  0  0  0  0  # atno 10167 bound_to 10162
  156.1294  130.4160  150.0296 H   0  0  0  0  0  0  0  0  0  0  0  0  # atno 10718 bound_to 10713
  153.2079  135.6865  153.8150 H   0  0  0  0  0  0  0  0  0  0  0  0  # atno 10763 bound_to 10752
  153.7394  135.3240  155.3302 H   0  0  0  0  0  0  0  0  0  0  0  0  # atno 10764 bound_to 10752
  154.8206  135.4654  154.0873 H   0  0  0  0  0  0  0  0  0  0  0  0  # atno 10765 bound_to 10752
  139.8874  134.9475  156.6224 H   0  0  0  0  0  0  0  0  0  0  0  0  # atno 11005 bound_to 11000
  144.6806  139.9910  143.7484 LP  0  0  0  0  0  0  0  0  0  0  0  0  # atno 17320 bound_to 7965
  146.0131  139.3186  143.0858 LP  0  0  0  0  0  0  0  0  0  0  0  0  # atno 17321 bound_to 7965
  140.2689  143.3470  152.1256 LP  0  0  0  0  0  0  0  0  0  0  0  0  # atno 17342 bound_to 10162
  139.5101  144.6878  151.5842 LP  0  0  0  0  0  0  0  0  0  0  0  0  # atno 17343 bound_to 10162
  156.8213  130.9359  151.3641 LP  0  0  0  0  0  0  0  0  0  0  0  0  # atno 17370 bound_to 10713
  157.6473  130.8855  149.9563 LP  0  0  0  0  0  0  0  0  0  0  0  0  # atno 17371 bound_to 10713
  140.7729  133.8724  155.8506 LP  0  0  0  0  0  0  0  0  0  0  0  0  # atno 17394 bound_to 11000
  140.9827  134.1384  157.4480 LP  0  0  0  0  0  0  0  0  0  0  0  0  # atno 17395 bound_to 11000

$$$$
