AV-unprocessed.smi:102|AV-procd|sdf|965|dock9
  -GOLD-   2262017513D 1   1.00000     0.00000
 Structure written by MMmdl.
 43 44  0  0  0  0  0  0  0  0  2 V2000
  152.3069  130.3952  156.1398 C   0  0  0  0  0  0  0  0  0  0  0  0
  151.0370  131.1067  155.6904 C   0  0  0  0  0  0  0  0  0  0  0  0
  150.2133  130.5490  154.9651 O   0  0  0  0  0  0  0  0  0  0  0  0
  150.9481  132.3569  156.1693 O   0  0  0  0  0  0  0  0  0  0  0  0
  149.8903  133.1976  155.7394 C   0  0  0  0  0  0  0  0  0  0  0  0
  150.0094  134.5648  156.4302 C   0  0  2  0  0  0  0  0  0  0  0  0
  149.7284  134.4238  157.8160 O   0  0  0  0  0  0  0  0  0  0  0  0
  148.3643  134.6024  158.0233 C   0  0  1  0  0  0  0  0  0  0  0  0
  148.1392  135.1242  159.4200 N   0  0  0  0  0  0  0  0  0  0  0  0
  147.5136  134.3365  160.3707 C   0  0  0  0  0  0  0  0  0  0  0  0
  147.3297  134.7780  161.6315 C   0  0  0  0  0  0  0  0  0  0  0  0
  146.7188  133.9916  162.5342 F   0  0  0  0  0  0  0  0  0  0  0  0
  147.8035  136.1088  162.0076 C   0  0  0  0  0  0  0  0  0  0  0  0
  147.6231  136.5109  163.1557 O   0  0  0  0  0  0  0  0  0  0  0  0
  148.4365  136.8535  161.0549 N   0  5  0  0  0  0  0  0  0  0  0  0
  148.6329  136.4070  159.7795 C   0  0  0  0  0  0  0  0  0  0  0  0
  149.2271  137.0604  158.9219 O   0  0  0  0  0  0  0  0  0  0  0  0
  147.8808  135.6197  156.9901 C   0  0  2  0  0  0  0  0  0  0  0  0
  146.6123  135.2355  156.4794 O   0  0  0  0  0  0  0  0  0  0  0  0
  145.5762  135.0592  157.3158 C   0  0  0  0  0  0  0  0  0  0  0  0
  144.3240  134.5771  156.5957 C   0  0  0  0  0  0  0  0  0  0  0  0
  145.5827  135.2584  158.5308 O   0  0  0  0  0  0  0  0  0  0  0  0
  148.9619  135.5651  155.9145 C   0  0  1  0  0  0  0  0  0  0  0  0
  149.5125  136.8657  155.7485 O   0  0  0  0  0  0  0  0  0  0  0  0
  150.6718  137.0332  155.0897 C   0  0  0  0  0  0  0  0  0  0  0  0
  151.0453  138.5015  154.9357 C   0  0  0  0  0  0  0  0  0  0  0  0
  151.3909  136.1371  154.6473 O   0  0  0  0  0  0  0  0  0  0  0  0
  152.9428  131.0610  156.7240 H   0  0  0  0  0  0  0  0  0  0  0  0
  152.8722  130.0509  155.2738 H   0  0  0  0  0  0  0  0  0  0  0  0
  152.0562  129.5307  156.7546 H   0  0  0  0  0  0  0  0  0  0  0  0
  149.9640  133.3277  154.6586 H   0  0  0  0  0  0  0  0  0  0  0  0
  148.9239  132.7360  155.9469 H   0  0  0  0  0  0  0  0  0  0  0  0
  151.0216  134.9487  156.2961 H   0  0  0  0  0  0  0  0  0  0  0  0
  147.8777  133.6277  157.9517 H   0  0  0  0  0  0  0  0  0  0  0  0
  147.1698  133.3469  160.1087 H   0  0  0  0  0  0  0  0  0  0  0  0
  147.8467  136.6052  157.4588 H   0  0  0  0  0  0  0  0  0  0  0  0
  144.5849  133.8700  155.8081 H   0  0  0  0  0  0  0  0  0  0  0  0
  143.7988  135.4199  156.1464 H   0  0  0  0  0  0  0  0  0  0  0  0
  143.6502  134.0806  157.2943 H   0  0  0  0  0  0  0  0  0  0  0  0
  148.5346  135.2201  154.9713 H   0  0  0  0  0  0  0  0  0  0  0  0
  150.1629  139.0981  154.7039 H   0  0  0  0  0  0  0  0  0  0  0  0
  151.7684  138.6292  154.1300 H   0  0  0  0  0  0  0  0  0  0  0  0
  151.4859  138.8770  155.8591 H   0  0  0  0  0  0  0  0  0  0  0  0
  1  2  1  0  0  0  0
  1 28  1  0  0  0  0
  1 29  1  0  0  0  0
  1 30  1  0  0  0  0
  2  3  2  0  0  0  0
  2  4  1  0  0  0  0
  4  5  1  0  0  0  0
  5  6  1  0  0  0  0
  5 31  1  0  0  0  0
  5 32  1  0  0  0  0
  6 23  1  0  0  0  0
  6  7  1  0  0  0  0
  6 33  1  0  0  0  0
  7  8  1  0  0  0  0
  8  9  1  0  0  0  0
  8 18  1  0  0  0  0
  8 34  1  0  0  0  0
  9 16  1  0  0  0  0
  9 10  1  0  0  0  0
 10 11  2  0  0  0  0
 10 35  1  0  0  0  0
 11 12  1  0  0  0  0
 11 13  1  0  0  0  0
 13 14  2  0  0  0  0
 13 15  1  0  0  0  0
 15 16  1  0  0  0  0
 16 17  2  0  0  0  0
 18 19  1  0  0  0  0
 18 23  1  0  0  0  0
 18 36  1  0  0  0  0
 19 20  1  0  0  0  0
 20 21  1  0  0  0  0
 20 22  2  0  0  0  0
 21 37  1  0  0  0  0
 21 38  1  0  0  0  0
 21 39  1  0  0  0  0
 23 24  1  0  0  0  0
 23 40  1  0  0  0  0
 24 25  1  0  0  0  0
 25 26  1  0  0  0  0
 25 27  2  0  0  0  0
 26 41  1  0  0  0  0
 26 42  1  0  0  0  0
 26 43  1  0  0  0  0
M  CHG  1  15  -1
M  END
> <s_m_source_file>
AV-unprocessed.smi

> <i_m_source_file_index>
102

> <i_lp_mmshare_version>
43012

> <i_f3d_flags>
0

> <s_epik_input>
W0NIM11DKD1PKU9bQ0gyXVtDQEBIXTFPW0NASF0oW0NAQEhdKE9DKD1PKVtDSDNdKVtDQEhdMU9DKD1PKVtDSDNdKW4yW2NIXWMoRiljKD1PKVtuSF1jMj1P

> <s_epik_cmdline>
J2VwaWtfcHl0aG9uJywgJy1waCcsICc3LjAnLCAnLXRuJywgJzgnLCAnLW1hJywgJzIwMCcsICctbWV0YWxfYmluZGluZycsICctaW1hZScsICc8aW5maWxlLm1hZT4nLCAnLW9tYWUnLCAnPG91dGZpbGUubWFlPic=

> <r_epik_Ionization_Penalty>
1.40304

> <r_epik_Ionization_Penalty_Charging>
1.43915e-08

> <r_epik_Ionization_Penalty_Neutral>
1.40304

> <r_epik_State_Penalty>
1.48536

> <r_epik_Charging_Adjusted_Penalty>
1.48536

> <i_epik_Tot_Q>
-1

> <i_epik_Tot_abs_Q>
1

> <r_epik_Metal_State_Penalty>
0.00663881

> <b_epik_Metal_Only>
0

> <s_epik_Chemistry_Notes>
This compound has an ester and may undergo hydrolysis at high or low pH. This compound contains an acetal/aminal-like group ( X-CH(R)-Y where X, Y are N, S, or O) that may be acid/base labile, releasing an aldehyde.

> <s_lp_Force_Field>
OPLS_2005

> <r_lp_Energy>
22.1455

> <b_lp_Chiralities_Consistent>
1

> <s_lp_Variant>
AV-unprocessed.smi:102-21

> <Gold.Version>
5.8.1

> <Gold.Id.Protein>
6NUR|6NUR_protein|mol2

> <Gold.PLP.Fitness>
44.8149

> <Gold.PLP.PLP>
-33.4476

> <Gold.PLP.part.hbond>
-3.4289

> <Gold.PLP.part.metal>
0.0000

> <Gold.PLP.part.buried>
-7.5844

> <Gold.PLP.part.nonpolar>
-24.4725

> <Gold.PLP.part.repulsive>
1.0386

> <Gold.PLP.ligand.clash>
0.0220

> <Gold.PLP.ligand.torsion>
0.3123

> <Gold.PLP.Chemscore.Hbond>
3.9760

> <Gold.PLP.Chemscore.CHOScore>
0.0000

> <Gold.PLP.Chemscore.Metal>
0.0000

> <Gold.Chemscore.Hbonds>
donor molecule, donor type, donor heavy atom, donor atom, acceptor molecule, acceptor atom, score
      P1  H  6896  6909       L1     7  1.00
      P1  H  6931  6943       L1    15  2.00
      P1  H 10752 10765       L1    27  1.00

> <Gold.PLP.Chemscore.Internal.Correction>
0.0859

> <Gold.Rescore>
     Score         DG    S(hbond)    S(metal)    S(lipo)     H(rot)  DE(clash)    DE(int)     intcor
      5.03      -9.41       2.91        0.00      37.80       4.00       0.02       4.35       ----

> <Gold.Chemscore.Fitness>
5.0350

> <Gold.Chemscore.DG>
-9.4053

> <Gold.Chemscore.ZeroCoef>
-5.4800

> <Gold.Chemscore.Hbond>
2.9132

> <Gold.Chemscore.Metal>
0.0000

> <Gold.Chemscore.Lipo>
37.7989

> <Gold.Chemscore.Internal_Hbond>
0.0000

> <Gold.Chemscore.DEClash>
0.0174

> <Gold.Chemscore.DEInternal>
4.3529

> <Gold.Chemscore.Rot>
3.9951

> <Gold.Chemscore.Internal.Correction>
   9.000000E+99

> <Gold.Chemscore.Hbonds>
donor molecule, donor type, donor heavy atom, donor atom, acceptor molecule, acceptor atom, score
      P1  H  6896  6909       L1     7  0.88
      P1  H  6931  6943       L1    15  0.49
      P1  H 10752 10765       L1    27  0.99

> <Gold.Chemscore.Hbond.Weighted>
-9.7302

> <Gold.Chemscore.Metal.Weighted>
-0.0000

> <Gold.Chemscore.Lipo.Weighted>
-4.4225

> <Gold.Chemscore.Internal_Hbond.Weighted>
0.0000

> <Gold.Chemscore.DEClash.Weighted>
0.0174

> <Gold.Chemscore.DEInternal.Weighted>
4.3529

> <Gold.Chemscore.Rot.Weighted>
10.2274

> <Gold.Chemscore.Internal.Correction.Weighted>
   9.000000E+99

> <Gold.Protein.RotatedTorsions>
[ 6907 6896 6895 6894 ] final    9.24 input  -60.11 | X-H torsion
[ 7974 7965 7964 7962 ] final -149.70 input  175.53 | X-H torsion
[ 8008 7997 7996 7995 ] final  143.25 input   59.86 | X-H torsion
[ 10167 10162 10161 10158 ] final  172.12 input  -65.29 | X-H torsion
[ 10718 10713 10712 10709 ] final -162.40 input   66.30 | X-H torsion
[ 10763 10752 10751 10750 ] final  178.54 input  -60.55 | X-H torsion
[ 11005 11000 10999 10996 ] final  -93.66 input  -57.11 | X-H torsion

> <Gold.Protein.ActiveResidues>
 VAL166  LYS551  ARG553  GLY616  TRP617  ASP618  TYR619  PRO620  LYS621  CYS622 
 ASP623  PHE694  ASN695  SER759  ASP760  ASP761  ALA762  ILE779  LEU786  VAL792 
 PHE793  MET794  SER795  GLU796  ALA797  LYS798  CYS799  TRP800  GLU811  SER814 

> <Gold.Protein.RotatedAtoms>
  151.7190  135.0898  160.0280 H   0  0  0  0  0  0  0  0  0  0  0  0  # atno 6907 bound_to 6896
  152.3614  133.6297  159.6026 H   0  0  0  0  0  0  0  0  0  0  0  0  # atno 6908 bound_to 6896
  150.7607  133.9334  159.3475 H   0  0  0  0  0  0  0  0  0  0  0  0  # atno 6909 bound_to 6896
  144.7952  140.5030  143.5745 H   0  0  0  0  0  0  0  0  0  0  0  0  # atno 7974 bound_to 7965
  156.2934  140.2267  156.4860 H   0  0  0  0  0  0  0  0  0  0  0  0  # atno 8008 bound_to 7997
  154.7812  140.0460  157.1149 H   0  0  0  0  0  0  0  0  0  0  0  0  # atno 8009 bound_to 7997
  154.9757  140.3072  155.4972 H   0  0  0  0  0  0  0  0  0  0  0  0  # atno 8010 bound_to 7997
  139.5067  144.3409  152.0018 H   0  0  0  0  0  0  0  0  0  0  0  0  # atno 10167 bound_to 10162
  156.6099  130.8846  151.2934 H   0  0  0  0  0  0  0  0  0  0  0  0  # atno 10718 bound_to 10713
  154.5090  135.2787  155.1358 H   0  0  0  0  0  0  0  0  0  0  0  0  # atno 10763 bound_to 10752
  154.2961  135.6257  153.5409 H   0  0  0  0  0  0  0  0  0  0  0  0  # atno 10764 bound_to 10752
  152.9915  135.5685  154.5551 H   0  0  0  0  0  0  0  0  0  0  0  0  # atno 10765 bound_to 10752
  141.1491  133.7903  157.0190 H   0  0  0  0  0  0  0  0  0  0  0  0  # atno 11005 bound_to 11000
  145.5692  139.1482  143.3298 LP  0  0  0  0  0  0  0  0  0  0  0  0  # atno 17320 bound_to 7965
  146.2217  140.5826  142.9014 LP  0  0  0  0  0  0  0  0  0  0  0  0  # atno 17321 bound_to 7965
  140.2847  144.3820  150.6107 LP  0  0  0  0  0  0  0  0  0  0  0  0  # atno 17342 bound_to 10162
  140.5991  143.2167  151.7106 LP  0  0  0  0  0  0  0  0  0  0  0  0  # atno 17343 bound_to 10162
  157.7257  130.9619  150.1625 LP  0  0  0  0  0  0  0  0  0  0  0  0  # atno 17370 bound_to 10713
  156.2399  130.3690  149.8349 LP  0  0  0  0  0  0  0  0  0  0  0  0  # atno 17371 bound_to 10713
  140.0828  134.9638  157.1651 LP  0  0  0  0  0  0  0  0  0  0  0  0  # atno 17394 bound_to 11000
  140.3553  134.2553  155.7193 LP  0  0  0  0  0  0  0  0  0  0  0  0  # atno 17395 bound_to 11000

$$$$
