AV-unprocessed.smi:749|AV-procd|sdf|3587|dock10
  -GOLD-   22720 0583D 1   1.00000     0.00000
 Structure written by MMmdl.
 42 43  0  0  0  0  0  0  0  0  2 V2000
  146.2408  132.4035  151.6535 C   0  0  0  0  0  0  0  0  0  0  0  0
  147.2992  132.3285  152.6617 N   0  0  0  0  0  0  0  0  0  0  0  0
  147.9668  133.6065  152.9532 C   0  0  0  0  0  0  0  0  0  0  0  0
  148.8032  133.6008  154.2442 C   0  0  2  0  0  0  0  0  0  0  0  0
  149.6566  134.7846  154.2803 N   0  0  0  0  0  0  0  0  0  0  0  0
  150.6143  135.0561  155.1887 C   0  0  0  0  0  0  0  0  0  0  0  0
  150.8254  134.2469  156.0913 O   0  0  0  0  0  0  0  0  0  0  0  0
  151.3026  136.2212  155.0561 N   0  5  0  0  0  0  0  0  0  0  0  0
  150.7004  137.3967  154.8038 C   0  0  0  0  0  0  0  0  0  0  0  0
  149.3205  137.6819  154.9872 C   0  0  0  0  0  0  0  0  0  0  0  0
  149.2084  138.9854  154.5877 C   0  0  0  0  0  0  0  0  0  0  0  0
  148.0530  139.9419  154.4916 C   0  0  0  0  0  0  0  0  0  0  0  0
  147.3036  140.0338  155.8359 C   0  0  0  0  0  0  0  0  0  0  0  0
  147.0619  139.4607  153.4154 C   0  0  0  0  0  0  0  0  0  0  0  0
  148.5612  141.3480  154.1220 C   0  0  0  0  0  0  0  0  0  0  0  0
  150.4272  139.4564  154.2024 O   0  0  0  0  0  0  0  0  0  0  0  0
  151.3758  138.4383  154.3506 N   0  0  0  0  0  0  0  0  0  0  0  0
  149.6427  132.3205  154.3069 C   0  0  0  0  0  0  0  0  0  0  0  0
  148.7362  131.0841  154.2828 C   0  0  0  0  0  0  0  0  0  0  0  0
  147.6501  131.1340  153.1972 C   0  0  0  0  0  0  0  0  0  0  0  0
  147.1077  130.0776  152.8709 O   0  0  0  0  0  0  0  0  0  0  0  0
  145.2850  132.0964  152.0800 H   0  0  0  0  0  0  0  0  0  0  0  0
  146.4636  131.7504  150.8085 H   0  0  0  0  0  0  0  0  0  0  0  0
  146.1179  133.4131  151.2594 H   0  0  0  0  0  0  0  0  0  0  0  0
  148.6076  133.8375  152.1003 H   0  0  0  0  0  0  0  0  0  0  0  0
  147.2282  134.4074  153.0119 H   0  0  0  0  0  0  0  0  0  0  0  0
  148.1205  133.6225  155.0959 H   0  0  0  0  0  0  0  0  0  0  0  0
  149.5125  135.4654  153.5491 H   0  0  0  0  0  0  0  0  0  0  0  0
  148.5391  137.0288  155.3456 H   0  0  0  0  0  0  0  0  0  0  0  0
  146.4652  140.7289  155.7780 H   0  0  0  0  0  0  0  0  0  0  0  0
  147.9603  140.3808  156.6346 H   0  0  0  0  0  0  0  0  0  0  0  0
  146.9032  139.0648  156.1364 H   0  0  0  0  0  0  0  0  0  0  0  0
  146.6802  138.4656  153.6470 H   0  0  0  0  0  0  0  0  0  0  0  0
  147.5326  139.4100  152.4328 H   0  0  0  0  0  0  0  0  0  0  0  0
  146.2059  140.1313  153.3331 H   0  0  0  0  0  0  0  0  0  0  0  0
  147.7409  142.0637  154.0547 H   0  0  0  0  0  0  0  0  0  0  0  0
  149.0730  141.3479  153.1589 H   0  0  0  0  0  0  0  0  0  0  0  0
  149.2648  141.7223  154.8666 H   0  0  0  0  0  0  0  0  0  0  0  0
  150.3384  132.2865  153.4672 H   0  0  0  0  0  0  0  0  0  0  0  0
  150.2501  132.3062  155.2128 H   0  0  0  0  0  0  0  0  0  0  0  0
  149.3395  130.1854  154.1512 H   0  0  0  0  0  0  0  0  0  0  0  0
  148.2346  130.9844  155.2460 H   0  0  0  0  0  0  0  0  0  0  0  0
  1  2  1  0  0  0  0
  1 22  1  0  0  0  0
  1 23  1  0  0  0  0
  1 24  1  0  0  0  0
  2 20  1  0  0  0  0
  2  3  1  0  0  0  0
  3  4  1  0  0  0  0
  3 25  1  0  0  0  0
  3 26  1  0  0  0  0
  4  5  1  0  0  0  0
  4 18  1  0  0  0  0
  4 27  1  0  0  0  0
  5  6  1  0  0  0  0
  5 28  1  0  0  0  0
  6  7  2  0  0  0  0
  6  8  1  0  0  0  0
  8  9  1  0  0  0  0
  9 17  2  0  0  0  0
  9 10  1  0  0  0  0
 10 11  2  0  0  0  0
 10 29  1  0  0  0  0
 11 12  1  0  0  0  0
 11 16  1  0  0  0  0
 12 13  1  0  0  0  0
 12 14  1  0  0  0  0
 12 15  1  0  0  0  0
 13 30  1  0  0  0  0
 13 31  1  0  0  0  0
 13 32  1  0  0  0  0
 14 33  1  0  0  0  0
 14 34  1  0  0  0  0
 14 35  1  0  0  0  0
 15 36  1  0  0  0  0
 15 37  1  0  0  0  0
 15 38  1  0  0  0  0
 16 17  1  0  0  0  0
 18 19  1  0  0  0  0
 18 39  1  0  0  0  0
 18 40  1  0  0  0  0
 19 20  1  0  0  0  0
 19 41  1  0  0  0  0
 19 42  1  0  0  0  0
 20 21  2  0  0  0  0
M  CHG  1   8  -1
M  END
> <s_m_source_file>
AV-unprocessed.smi

> <i_m_source_file_index>
749

> <i_lp_mmshare_version>
43012

> <i_f3d_flags>
0

> <s_epik_input>
Tz1DMVtDSDJdW0NIMl1bQ0BASF0oW0NIMl1OMVtDSDNdKVtOSF1DKD1PKVtOSF1jMltjSF1jKG9uMilDKFtDSDNdKShbQ0gzXSlbQ0gzXQ==

> <s_epik_cmdline>
J2VwaWtfcHl0aG9uJywgJy1waCcsICc3LjAnLCAnLXRuJywgJzgnLCAnLW1hJywgJzIwMCcsICctbWV0YWxfYmluZGluZycsICctaW1hZScsICc8aW5maWxlLm1hZT4nLCAnLW9tYWUnLCAnPG91dGZpbGUubWFlPic=

> <r_lp_tautomer_probability>
1

> <r_epik_Ionization_Penalty>
6.47858

> <r_epik_Ionization_Penalty_Charging>
6.47844

> <r_epik_Ionization_Penalty_Neutral>
0.000138814

> <r_epik_State_Penalty>
6.47843

> <r_epik_Charging_Adjusted_Penalty>
12.9569

> <i_epik_Tot_Q>
-1

> <i_epik_Tot_abs_Q>
1

> <r_epik_Metal_State_Penalty>
2.40644

> <b_epik_Metal_Only>
1

> <s_lp_Force_Field>
OPLS_2005

> <r_lp_Energy>
10.0372

> <b_lp_Chiralities_Consistent>
1

> <s_lp_Variant>
AV-unprocessed.smi:749-4

> <Gold.Version>
5.8.1

> <Gold.Id.Protein>
6NUR|6NUR_protein|mol2

> <Gold.PLP.Fitness>
41.7843

> <Gold.PLP.PLP>
-31.3319

> <Gold.PLP.part.hbond>
-3.0000

> <Gold.PLP.part.metal>
0.0000

> <Gold.PLP.part.buried>
-3.4672

> <Gold.PLP.part.nonpolar>
-26.3731

> <Gold.PLP.part.repulsive>
0.6151

> <Gold.PLP.ligand.clash>
0.0000

> <Gold.PLP.ligand.torsion>
0.6350

> <Gold.PLP.Chemscore.Hbond>
3.9000

> <Gold.PLP.Chemscore.CHOScore>
0.0000

> <Gold.PLP.Chemscore.Metal>
0.0000

> <Gold.Chemscore.Hbonds>
donor molecule, donor type, donor heavy atom, donor atom, acceptor molecule, acceptor atom, score
      L1  H     5    28       P1  7948  0.85
      P1  H  7989  7998       L1    16  0.90
      P1  H 10752 10763       L1     8  2.00

> <Gold.PLP.Chemscore.Internal.Correction>
0.0224

> <Gold.Rescore>
     Score         DG    S(hbond)    S(metal)    S(lipo)     H(rot)  DE(clash)    DE(int)     intcor
     12.81     -15.43       1.94        0.00      56.47       1.22       0.53       2.09       ----

> <Gold.Chemscore.Fitness>
12.8100

> <Gold.Chemscore.DG>
-15.4291

> <Gold.Chemscore.ZeroCoef>
-5.4800

> <Gold.Chemscore.Hbond>
1.9358

> <Gold.Chemscore.Metal>
0.0000

> <Gold.Chemscore.Lipo>
56.4652

> <Gold.Chemscore.Internal_Hbond>
0.0000

> <Gold.Chemscore.DEClash>
0.5314

> <Gold.Chemscore.DEInternal>
2.0877

> <Gold.Chemscore.Rot>
1.2198

> <Gold.Chemscore.Internal.Correction>
   9.000000E+99

> <Gold.Chemscore.Hbonds>
donor molecule, donor type, donor heavy atom, donor atom, acceptor molecule, acceptor atom, score
      L1  H     5    28       P1  7948  0.15
      P1  H  7989  7998       L1    16  0.17
      P1  H 10752 10763       L1     8  0.26

> <Gold.Chemscore.Hbond.Weighted>
-6.4654

> <Gold.Chemscore.Metal.Weighted>
-0.0000

> <Gold.Chemscore.Lipo.Weighted>
-6.6064

> <Gold.Chemscore.Internal_Hbond.Weighted>
0.0000

> <Gold.Chemscore.DEClash.Weighted>
0.5314

> <Gold.Chemscore.DEInternal.Weighted>
2.0877

> <Gold.Chemscore.Rot.Weighted>
3.1228

> <Gold.Chemscore.Internal.Correction.Weighted>
   9.000000E+99

> <Gold.Protein.RotatedTorsions>
[ 6907 6896 6895 6894 ] final  -25.02 input  -60.11 | X-H torsion
[ 7974 7965 7964 7962 ] final  128.69 input  175.53 | X-H torsion
[ 8008 7997 7996 7995 ] final  155.45 input   59.86 | X-H torsion
[ 10167 10162 10161 10158 ] final   21.24 input  -65.29 | X-H torsion
[ 10718 10713 10712 10709 ] final  -60.74 input   66.30 | X-H torsion
[ 10763 10752 10751 10750 ] final   57.67 input  -60.55 | X-H torsion
[ 11005 11000 10999 10996 ] final  -95.30 input  -57.11 | X-H torsion

> <Gold.Protein.ActiveResidues>
 VAL166  LYS551  ARG553  GLY616  TRP617  ASP618  TYR619  PRO620  LYS621  CYS622 
 ASP623  PHE694  ASN695  SER759  ASP760  ASP761  ALA762  ILE779  LEU786  VAL792 
 PHE793  MET794  SER795  GLU796  ALA797  LYS798  CYS799  TRP800  GLU811  SER814 

> <Gold.Protein.RotatedAtoms>
  151.1812  135.0362  159.8792 H   0  0  0  0  0  0  0  0  0  0  0  0  # atno 6907 bound_to 6896
  152.5444  134.1060  159.8348 H   0  0  0  0  0  0  0  0  0  0  0  0  # atno 6908 bound_to 6896
  151.1178  133.5079  159.2635 H   0  0  0  0  0  0  0  0  0  0  0  0  # atno 6909 bound_to 6896
  145.0368  139.3998  143.5122 H   0  0  0  0  0  0  0  0  0  0  0  0  # atno 7974 bound_to 7965
  156.2477  140.1939  156.6803 H   0  0  0  0  0  0  0  0  0  0  0  0  # atno 8008 bound_to 7997
  154.6327  140.0594  156.9777 H   0  0  0  0  0  0  0  0  0  0  0  0  # atno 8009 bound_to 7997
  155.1686  140.3266  155.4400 H   0  0  0  0  0  0  0  0  0  0  0  0  # atno 8010 bound_to 7997
  140.5442  143.9623  150.6538 H   0  0  0  0  0  0  0  0  0  0  0  0  # atno 10167 bound_to 10162
  156.0970  130.4191  150.0896 H   0  0  0  0  0  0  0  0  0  0  0  0  # atno 10718 bound_to 10713
  152.9854  135.5633  154.5428 H   0  0  0  0  0  0  0  0  0  0  0  0  # atno 10763 bound_to 10752
  154.4879  135.2791  155.1522 H   0  0  0  0  0  0  0  0  0  0  0  0  # atno 10764 bound_to 10752
  154.3003  135.6308  153.5475 H   0  0  0  0  0  0  0  0  0  0  0  0  # atno 10765 bound_to 10752
  141.1446  133.8016  157.0416 H   0  0  0  0  0  0  0  0  0  0  0  0  # atno 11005 bound_to 11000
  146.3505  139.9947  142.8682 LP  0  0  0  0  0  0  0  0  0  0  0  0  # atno 17320 bound_to 7965
  145.1699  140.9716  143.4327 LP  0  0  0  0  0  0  0  0  0  0  0  0  # atno 17321 bound_to 7965
  140.3032  143.3247  152.0951 LP  0  0  0  0  0  0  0  0  0  0  0  0  # atno 17342 bound_to 10162
  139.5001  144.6683  151.6303 LP  0  0  0  0  0  0  0  0  0  0  0  0  # atno 17343 bound_to 10162
  156.8893  130.9583  151.3590 LP  0  0  0  0  0  0  0  0  0  0  0  0  # atno 17370 bound_to 10713
  157.6132  130.8599  149.8986 LP  0  0  0  0  0  0  0  0  0  0  0  0  # atno 17371 bound_to 10713
  140.0689  134.9713  157.1434 LP  0  0  0  0  0  0  0  0  0  0  0  0  # atno 17394 bound_to 11000
  140.3739  134.2360  155.7176 LP  0  0  0  0  0  0  0  0  0  0  0  0  # atno 17395 bound_to 11000

$$$$
