AV-unprocessed.smi:200|AV-procd|sdf|1576|dock6
  -GOLD-   2262019453D 1   1.00000     0.00000
 Structure written by MMmdl.
 56 59  0  0  0  0  0  0  0  0  1 V2000
  148.7618  141.7158  154.5535 C   0  0  0  0  0  0  0  0  0  0  0  0
  149.6815  140.6597  154.3391 O   0  0  0  0  0  0  0  0  0  0  0  0
  150.1303  140.0755  155.5499 C   0  0  0  0  0  0  0  0  0  0  0  0
  151.2896  140.9215  156.1008 C   0  0  0  0  0  0  0  0  0  0  0  0
  151.5660  140.6731  157.5192 N   0  0  0  0  0  0  0  0  0  0  0  0
  151.3482  139.4147  157.9692 C   0  0  0  0  0  0  0  0  0  0  0  0
  152.4385  138.6281  158.1491 N   0  0  0  0  0  0  0  0  0  0  0  0
  152.2963  137.3795  158.6022 C   0  0  0  0  0  0  0  0  0  0  0  0
  151.1767  136.7368  158.9398 N   0  0  0  0  0  0  0  0  0  0  0  0
  150.0789  137.5286  158.7742 C   0  0  0  0  0  0  0  0  0  0  0  0
  150.0727  138.8685  158.2922 C   0  0  0  0  0  0  0  0  0  0  0  0
  148.7702  139.3521  158.2618 N   0  0  0  0  0  0  0  0  0  0  0  0
  148.0484  138.3548  158.6930 C   0  0  0  0  0  0  0  0  0  0  0  0
  148.7546  137.2249  159.0392 N   0  0  0  0  0  0  0  0  0  0  0  0
  148.2012  135.9846  159.5614 C   0  0  0  0  0  0  0  0  0  0  0  0
  147.3420  136.1606  160.8317 C   0  0  0  0  0  0  0  0  0  0  0  0
  146.0937  137.0121  160.5389 C   0  0  0  0  0  0  0  0  0  0  0  0
  145.3247  137.2208  161.7064 O   0  0  0  0  0  0  0  0  0  0  0  0
  147.0717  134.8817  161.6363 C   0  0  0  0  0  0  0  0  0  0  0  0
  147.5072  135.4966  162.8672 O   0  0  0  0  0  0  0  0  0  0  0  0
  148.0991  136.5687  162.1041 C   0  0  0  0  0  0  0  0  0  0  0  0
  151.2160  141.6877  158.5183 C   0  0  2  0  0  0  0  0  0  0  0  0
  151.1499  143.1231  157.9815 C   0  0  0  0  0  0  0  0  0  0  0  0
  151.2677  143.9703  159.2449 C   0  0  0  0  0  0  0  0  0  0  0  0
  152.3069  143.2297  160.0969 C   0  0  1  0  0  0  0  0  0  0  0  0
  152.1973  143.5288  161.5980 C   0  0  0  0  0  0  0  0  0  0  0  0
  152.1476  141.7387  159.7435 C   0  0  0  0  0  0  0  0  0  0  0  0
  148.4526  142.1321  153.5949 H   0  0  0  0  0  0  0  0  0  0  0  0
  149.2114  142.5183  155.1398 H   0  0  0  0  0  0  0  0  0  0  0  0
  147.8689  141.3619  155.0703 H   0  0  0  0  0  0  0  0  0  0  0  0
  149.3054  140.0315  156.2625 H   0  0  0  0  0  0  0  0  0  0  0  0
  150.4668  139.0537  155.3681 H   0  0  0  0  0  0  0  0  0  0  0  0
  152.1827  140.7053  155.5169 H   0  0  0  0  0  0  0  0  0  0  0  0
  151.0823  141.9780  155.9371 H   0  0  0  0  0  0  0  0  0  0  0  0
  153.2109  136.8160  158.7137 H   0  0  0  0  0  0  0  0  0  0  0  0
  146.9741  138.4213  158.7852 H   0  0  0  0  0  0  0  0  0  0  0  0
  147.6166  135.5142  158.7698 H   0  0  0  0  0  0  0  0  0  0  0  0
  149.0315  135.3033  159.7516 H   0  0  0  0  0  0  0  0  0  0  0  0
  146.3809  137.9905  160.1514 H   0  0  0  0  0  0  0  0  0  0  0  0
  145.4664  136.5594  159.7708 H   0  0  0  0  0  0  0  0  0  0  0  0
  145.4910  136.5098  162.3066 H   0  0  0  0  0  0  0  0  0  0  0  0
  146.0226  134.5845  161.6633 H   0  0  0  0  0  0  0  0  0  0  0  0
  147.7076  134.0399  161.3573 H   0  0  0  0  0  0  0  0  0  0  0  0
  149.1820  136.4570  162.0378 H   0  0  0  0  0  0  0  0  0  0  0  0
  147.8326  137.5554  162.4847 H   0  0  0  0  0  0  0  0  0  0  0  0
  150.2225  141.4569  158.9085 H   0  0  0  0  0  0  0  0  0  0  0  0
  151.9930  143.3406  157.3254 H   0  0  0  0  0  0  0  0  0  0  0  0
  150.2332  143.3221  157.4255 H   0  0  0  0  0  0  0  0  0  0  0  0
  151.5580  144.9996  159.0324 H   0  0  0  0  0  0  0  0  0  0  0  0
  150.3051  143.9950  159.7576 H   0  0  0  0  0  0  0  0  0  0  0  0
  153.2944  143.5443  159.7557 H   0  0  0  0  0  0  0  0  0  0  0  0
  151.2216  143.2397  161.9897 H   0  0  0  0  0  0  0  0  0  0  0  0
  152.3343  144.5922  161.7950 H   0  0  0  0  0  0  0  0  0  0  0  0
  152.9568  142.9859  162.1616 H   0  0  0  0  0  0  0  0  0  0  0  0
  151.7034  141.1740  160.5642 H   0  0  0  0  0  0  0  0  0  0  0  0
  153.1250  141.2949  159.5566 H   0  0  0  0  0  0  0  0  0  0  0  0
  1  2  1  0  0  0  0
  1 28  1  0  0  0  0
  1 29  1  0  0  0  0
  1 30  1  0  0  0  0
  2  3  1  0  0  0  0
  3  4  1  0  0  0  0
  3 31  1  0  0  0  0
  3 32  1  0  0  0  0
  4  5  1  0  0  0  0
  4 33  1  0  0  0  0
  4 34  1  0  0  0  0
  5  6  1  0  0  0  0
  5 22  1  0  0  0  0
  6 11  1  0  0  0  0
  6  7  2  0  0  0  0
  7  8  1  0  0  0  0
  8  9  2  0  0  0  0
  8 35  1  0  0  0  0
  9 10  1  0  0  0  0
 10 14  1  0  0  0  0
 10 11  2  0  0  0  0
 11 12  1  0  0  0  0
 12 13  2  0  0  0  0
 13 14  1  0  0  0  0
 13 36  1  0  0  0  0
 14 15  1  0  0  0  0
 15 16  1  0  0  0  0
 15 37  1  0  0  0  0
 15 38  1  0  0  0  0
 16 21  1  0  0  0  0
 16 17  1  0  0  0  0
 16 19  1  0  0  0  0
 17 18  1  0  0  0  0
 17 39  1  0  0  0  0
 17 40  1  0  0  0  0
 18 41  1  0  0  0  0
 19 20  1  0  0  0  0
 19 42  1  0  0  0  0
 19 43  1  0  0  0  0
 20 21  1  0  0  0  0
 21 44  1  0  0  0  0
 21 45  1  0  0  0  0
 22 27  1  0  0  0  0
 22 23  1  0  0  0  0
 22 46  1  0  0  0  0
 23 24  1  0  0  0  0
 23 47  1  0  0  0  0
 23 48  1  0  0  0  0
 24 25  1  0  0  0  0
 24 49  1  0  0  0  0
 24 50  1  0  0  0  0
 25 26  1  0  0  0  0
 25 27  1  0  0  0  0
 25 51  1  0  0  0  0
 26 52  1  0  0  0  0
 26 53  1  0  0  0  0
 26 54  1  0  0  0  0
 27 55  1  0  0  0  0
 27 56  1  0  0  0  0
M  END
> <s_m_source_file>
AV-unprocessed.smi

> <i_m_source_file_index>
200

> <i_lp_mmshare_version>
43012

> <i_f3d_flags>
0

> <s_epik_input>
W0NIM11bQ0BASF0oW0NIMl0xKVtDSDJdW0NIMl1bQ0BIXTFOKFtDSDJdW0NIMl1PW0NIM10pYyhuW2NIXW4yKWMoYzIzKW5bY0hdbjNbQ0gyXUM0KFtDSDJdW09IXSlbQ0gyXU9bQ0gyXTQ=

> <s_epik_cmdline>
J2VwaWtfcHl0aG9uJywgJy1waCcsICc3LjAnLCAnLXRuJywgJzgnLCAnLW1hJywgJzIwMCcsICctbWV0YWxfYmluZGluZycsICctaW1hZScsICc8aW5maWxlLm1hZT4nLCAnLW9tYWUnLCAnPG91dGZpbGUubWFlPic=

> <r_lp_tautomer_probability>
1

> <r_epik_Ionization_Penalty>
0.00363087

> <r_epik_Ionization_Penalty_Charging>
0

> <r_epik_Ionization_Penalty_Neutral>
0.00363087

> <r_epik_State_Penalty>
0.0024341

> <r_epik_Charging_Adjusted_Penalty>
0.0024341

> <i_epik_Tot_Q>
0

> <i_epik_Tot_abs_Q>
0

> <r_epik_Metal_State_Penalty>
-0

> <b_epik_Metal_Only>
0

> <s_lp_Force_Field>
OPLS_2005

> <r_lp_Energy>
49.2687

> <b_lp_Chiralities_Consistent>
1

> <s_lp_Variant>
AV-unprocessed.smi:200-1

> <Gold.Version>
5.8.1

> <Gold.Id.Protein>
6NUR|6NUR_protein|mol2

> <Gold.PLP.Fitness>
49.8223

> <Gold.PLP.PLP>
-46.0988

> <Gold.PLP.part.hbond>
-2.2741

> <Gold.PLP.part.metal>
0.0000

> <Gold.PLP.part.buried>
-4.1874

> <Gold.PLP.part.nonpolar>
-39.6124

> <Gold.PLP.part.repulsive>
0.1205

> <Gold.PLP.ligand.clash>
0.1093

> <Gold.PLP.ligand.torsion>
1.6813

> <Gold.PLP.Chemscore.Hbond>
1.9360

> <Gold.PLP.Chemscore.CHOScore>
0.0000

> <Gold.PLP.Chemscore.Metal>
0.0000

> <Gold.Chemscore.Hbonds>
donor molecule, donor type, donor heavy atom, donor atom, acceptor molecule, acceptor atom, score
      P1  H  6896  6909       L1     9  0.99
      P1  H  7989  7998       L1     2  0.43

> <Gold.PLP.Chemscore.Internal.Correction>
1.3875

> <Gold.Rescore>
     Score         DG    S(hbond)    S(metal)    S(lipo)     H(rot)  DE(clash)    DE(int)     intcor
     11.67     -16.51       1.79        0.00     114.73       3.28       0.36       4.48       ----

> <Gold.Chemscore.Fitness>
11.6686

> <Gold.Chemscore.DG>
-16.5068

> <Gold.Chemscore.ZeroCoef>
-5.4800

> <Gold.Chemscore.Hbond>
1.7935

> <Gold.Chemscore.Metal>
0.0000

> <Gold.Chemscore.Lipo>
114.7307

> <Gold.Chemscore.Internal_Hbond>
0.0000

> <Gold.Chemscore.DEClash>
0.3630

> <Gold.Chemscore.DEInternal>
4.4752

> <Gold.Chemscore.Rot>
3.2761

> <Gold.Chemscore.Internal.Correction>
   9.000000E+99

> <Gold.Chemscore.Hbonds>
donor molecule, donor type, donor heavy atom, donor atom, acceptor molecule, acceptor atom, score
      P1  H  6896  6909       L1     9  0.93
      P1  H  7989  7998       L1     2  0.06

> <Gold.Chemscore.Hbond.Weighted>
-5.9901

> <Gold.Chemscore.Metal.Weighted>
-0.0000

> <Gold.Chemscore.Lipo.Weighted>
-13.4235

> <Gold.Chemscore.Internal_Hbond.Weighted>
0.0000

> <Gold.Chemscore.DEClash.Weighted>
0.3630

> <Gold.Chemscore.DEInternal.Weighted>
4.4752

> <Gold.Chemscore.Rot.Weighted>
8.3868

> <Gold.Chemscore.Internal.Correction.Weighted>
   9.000000E+99

> <Gold.Protein.RotatedTorsions>
[ 6907 6896 6895 6894 ] final   98.25 input  -60.11 | X-H torsion
[ 7974 7965 7964 7962 ] final   10.43 input  175.53 | X-H torsion
[ 8008 7997 7996 7995 ] final  151.73 input   59.86 | X-H torsion
[ 10167 10162 10161 10158 ] final  -85.66 input  -65.29 | X-H torsion
[ 10718 10713 10712 10709 ] final   11.05 input   66.30 | X-H torsion
[ 10763 10752 10751 10750 ] final -160.37 input  -60.55 | X-H torsion
[ 11005 11000 10999 10996 ] final  172.77 input  -57.11 | X-H torsion

> <Gold.Protein.ActiveResidues>
 VAL166  LYS551  ARG553  GLY616  TRP617  ASP618  TYR619  PRO620  LYS621  CYS622 
 ASP623  PHE694  ASN695  SER759  ASP760  ASP761  ALA762  ILE779  LEU786  VAL792 
 PHE793  MET794  SER795  GLU796  ALA797  LYS798  CYS799  TRP800  GLU811  SER814 

> <Gold.Protein.RotatedAtoms>
  152.5412  134.0610  159.8151 H   0  0  0  0  0  0  0  0  0  0  0  0  # atno 6907 bound_to 6896
  151.0738  133.5437  159.2632 H   0  0  0  0  0  0  0  0  0  0  0  0  # atno 6908 bound_to 6896
  151.2290  135.0556  159.9034 H   0  0  0  0  0  0  0  0  0  0  0  0  # atno 6909 bound_to 6896
  146.2388  139.9635  142.8455 H   0  0  0  0  0  0  0  0  0  0  0  0  # atno 7974 bound_to 7965
  156.2661  140.2040  156.6221 H   0  0  0  0  0  0  0  0  0  0  0  0  # atno 8008 bound_to 7997
  154.6749  140.0546  157.0229 H   0  0  0  0  0  0  0  0  0  0  0  0  # atno 8009 bound_to 7997
  155.1084  140.3213  155.4531 H   0  0  0  0  0  0  0  0  0  0  0  0  # atno 8010 bound_to 7997
  140.4016  143.2660  151.9135 H   0  0  0  0  0  0  0  0  0  0  0  0  # atno 10167 bound_to 10162
  156.9899  130.6038  149.5685 H   0  0  0  0  0  0  0  0  0  0  0  0  # atno 10718 bound_to 10713
  154.7396  135.3065  154.8752 H   0  0  0  0  0  0  0  0  0  0  0  0  # atno 10763 bound_to 10752
  153.9570  135.6757  153.4749 H   0  0  0  0  0  0  0  0  0  0  0  0  # atno 10764 bound_to 10752
  153.0996  135.4919  154.8766 H   0  0  0  0  0  0  0  0  0  0  0  0  # atno 10765 bound_to 10752
  140.3333  134.7339  157.4150 H   0  0  0  0  0  0  0  0  0  0  0  0  # atno 11005 bound_to 11000
  145.1748  140.9739  143.4300 LP  0  0  0  0  0  0  0  0  0  0  0  0  # atno 17320 bound_to 7965
  144.9995  139.3612  143.6174 LP  0  0  0  0  0  0  0  0  0  0  0  0  # atno 17321 bound_to 7965
  139.4784  144.5628  151.8212 LP  0  0  0  0  0  0  0  0  0  0  0  0  # atno 17342 bound_to 10162
  140.4734  144.1554  150.5921 LP  0  0  0  0  0  0  0  0  0  0  0  0  # atno 17343 bound_to 10162
  156.0211  130.5306  150.8278 LP  0  0  0  0  0  0  0  0  0  0  0  0  # atno 17370 bound_to 10713
  157.5466  131.0942  150.9753 LP  0  0  0  0  0  0  0  0  0  0  0  0  # atno 17371 bound_to 10713
  140.0842  134.5689  155.8509 LP  0  0  0  0  0  0  0  0  0  0  0  0  # atno 17394 bound_to 11000
  141.2058  133.6649  156.6201 LP  0  0  0  0  0  0  0  0  0  0  0  0  # atno 17395 bound_to 11000

$$$$
