AV-unprocessed.smi:34|AV-procd|sdf|226|dock2
  -GOLD-   2262015553D 1   1.00000     0.00000
 Structure written by MMmdl.
 55 59  0  0  0  0  0  0  0  0  1 V2000
  152.9824  139.7442  157.9103 O   0  0  0  0  0  0  0  0  0  0  0  0
  152.1872  140.6834  157.8686 C   0  0  0  0  0  0  0  0  0  0  0  0
  151.0289  140.6773  156.9928 N   0  0  0  0  0  0  0  0  0  0  0  0
  150.6712  139.7405  156.0834 C   0  0  0  0  0  0  0  0  0  0  0  0
  150.1065  140.0609  154.8899 N   0  0  0  0  0  0  0  0  0  0  0  0
  149.7704  139.0988  154.0270 C   0  0  0  0  0  0  0  0  0  0  0  0
  149.9159  137.7789  154.1549 N   0  0  0  0  0  0  0  0  0  0  0  0
  150.4928  137.4437  155.3464 C   0  0  0  0  0  0  0  0  0  0  0  0
  150.8869  138.3646  156.3579 C   0  0  0  0  0  0  0  0  0  0  0  0
  151.4114  137.6768  157.4428 N   0  0  0  0  0  0  0  0  0  0  0  0
  151.3261  136.4227  157.0913 C   0  0  0  0  0  0  0  0  0  0  0  0
  150.8221  136.1879  155.8285 N   0  0  0  0  0  0  0  0  0  0  0  0
  150.5878  134.8538  155.1679 C   0  0  1  0  0  0  0  0  0  0  0  0
  151.0663  133.8442  156.0019 O   0  0  0  0  0  0  0  0  0  0  0  0
  150.0214  133.4465  156.8765 C   0  0  2  0  0  0  0  0  0  0  0  0
  150.3598  132.1245  157.5800 C   0  0  0  0  0  0  0  0  0  0  0  0
  151.3717  131.4414  156.8522 O   0  0  0  0  0  0  0  0  0  0  0  0
  152.6782  131.6246  157.1447 C   0  0  0  0  0  0  0  0  0  0  0  0
  153.0784  132.2478  158.1301 O   0  0  0  0  0  0  0  0  0  0  0  0
  153.5894  130.9772  156.1583 C   0  0  0  0  0  0  0  0  0  0  0  0
  154.9743  131.2605  156.2054 C   0  0  0  0  0  0  0  0  0  0  0  0
  155.8624  130.6509  155.2985 C   0  0  0  0  0  0  0  0  0  0  0  0
  155.3763  129.7498  154.3336 C   0  0  0  0  0  0  0  0  0  0  0  0
  154.0008  129.4589  154.2769 C   0  0  0  0  0  0  0  0  0  0  0  0
  153.1110  130.0680  155.1829 C   0  0  0  0  0  0  0  0  0  0  0  0
  148.8597  133.3582  155.8936 C   0  0  1  0  0  0  0  0  0  0  0  0
  147.6793  133.3989  156.5124 F   0  0  0  0  0  0  0  0  0  0  0  0
  149.0749  134.5805  155.0079 C   0  0  2  0  0  0  0  0  0  0  0  0
  148.7141  134.3004  153.6713 O   0  0  0  0  0  0  0  0  0  0  0  0
  152.3181  141.8697  158.7797 C   0  0  0  0  0  0  0  0  0  0  0  0
  151.8627  143.1390  158.3570 C   0  0  0  0  0  0  0  0  0  0  0  0
  151.9684  144.2552  159.2095 C   0  0  0  0  0  0  0  0  0  0  0  0
  152.5230  144.1106  160.4949 C   0  0  0  0  0  0  0  0  0  0  0  0
  152.9678  142.8480  160.9292 C   0  0  0  0  0  0  0  0  0  0  0  0
  152.8629  141.7309  160.0775 C   0  0  0  0  0  0  0  0  0  0  0  0
  150.4254  141.4843  157.0545 H   0  0  0  0  0  0  0  0  0  0  0  0
  149.3237  139.4344  153.1026 H   0  0  0  0  0  0  0  0  0  0  0  0
  151.6392  135.6269  157.7518 H   0  0  0  0  0  0  0  0  0  0  0  0
  151.1486  134.9107  154.2343 H   0  0  0  0  0  0  0  0  0  0  0  0
  149.8299  134.2310  157.6117 H   0  0  0  0  0  0  0  0  0  0  0  0
  150.7623  132.3374  158.5703 H   0  0  0  0  0  0  0  0  0  0  0  0
  149.4702  131.5109  157.7297 H   0  0  0  0  0  0  0  0  0  0  0  0
  155.3707  131.9470  156.9397 H   0  0  0  0  0  0  0  0  0  0  0  0
  156.9180  130.8748  155.3443 H   0  0  0  0  0  0  0  0  0  0  0  0
  156.0576  129.2813  153.6387 H   0  0  0  0  0  0  0  0  0  0  0  0
  153.6266  128.7655  153.5381 H   0  0  0  0  0  0  0  0  0  0  0  0
  152.0623  129.8181  155.1159 H   0  0  0  0  0  0  0  0  0  0  0  0
  148.9152  132.4313  155.3198 H   0  0  0  0  0  0  0  0  0  0  0  0
  148.4870  135.4204  155.3786 H   0  0  0  0  0  0  0  0  0  0  0  0
  148.9143  135.0578  153.1422 H   0  0  0  0  0  0  0  0  0  0  0  0
  151.4333  143.2669  157.3737 H   0  0  0  0  0  0  0  0  0  0  0  0
  151.6228  145.2230  158.8769 H   0  0  0  0  0  0  0  0  0  0  0  0
  152.6038  144.9667  161.1485 H   0  0  0  0  0  0  0  0  0  0  0  0
  153.3882  142.7352  161.9176 H   0  0  0  0  0  0  0  0  0  0  0  0
  153.2026  140.7699  160.4354 H   0  0  0  0  0  0  0  0  0  0  0  0
  1  2  2  0  0  0  0
  2  3  1  0  0  0  0
  2 30  1  0  0  0  0
  3  4  1  0  0  0  0
  3 36  1  0  0  0  0
  4  9  1  0  0  0  0
  4  5  2  0  0  0  0
  5  6  1  0  0  0  0
  6  7  2  0  0  0  0
  6 37  1  0  0  0  0
  7  8  1  0  0  0  0
  8 12  1  0  0  0  0
  8  9  2  0  0  0  0
  9 10  1  0  0  0  0
 10 11  2  0  0  0  0
 11 12  1  0  0  0  0
 11 38  1  0  0  0  0
 12 13  1  0  0  0  0
 13 28  1  0  0  0  0
 13 14  1  0  0  0  0
 13 39  1  0  0  0  0
 14 15  1  0  0  0  0
 15 16  1  0  0  0  0
 15 26  1  0  0  0  0
 15 40  1  0  0  0  0
 16 17  1  0  0  0  0
 16 41  1  0  0  0  0
 16 42  1  0  0  0  0
 17 18  1  0  0  0  0
 18 19  2  0  0  0  0
 18 20  1  0  0  0  0
 20 25  1  0  0  0  0
 20 21  2  0  0  0  0
 21 22  1  0  0  0  0
 21 43  1  0  0  0  0
 22 23  2  0  0  0  0
 22 44  1  0  0  0  0
 23 24  1  0  0  0  0
 23 45  1  0  0  0  0
 24 25  2  0  0  0  0
 24 46  1  0  0  0  0
 25 47  1  0  0  0  0
 26 27  1  0  0  0  0
 26 28  1  0  0  0  0
 26 48  1  0  0  0  0
 28 29  1  0  0  0  0
 28 49  1  0  0  0  0
 29 50  1  0  0  0  0
 30 35  1  0  0  0  0
 30 31  2  0  0  0  0
 31 32  1  0  0  0  0
 31 51  1  0  0  0  0
 32 33  2  0  0  0  0
 32 52  1  0  0  0  0
 33 34  1  0  0  0  0
 33 53  1  0  0  0  0
 34 35  2  0  0  0  0
 34 54  1  0  0  0  0
 35 55  1  0  0  0  0
M  END
> <s_m_source_file>
AV-unprocessed.smi

> <i_m_source_file_index>
34

> <i_lp_mmshare_version>
43012

> <i_f3d_flags>
0

> <s_epik_input>
W2NIXTFbY0hdW2NIXVtjSF1bY0hdYzFDKD1PKVtOSF1jKG5bY0hdbjIpYyhjMjMpbltjSF1uM1tDQEBIXTRPW0NASF0oW0NAQEhdKEYpW0NASF00W09IXSlbQ0gyXU9DKD1PKWM1W2NIXVtjSF1bY0hdW2NIXVtjSF01

> <s_epik_cmdline>
J2VwaWtfcHl0aG9uJywgJy1waCcsICc3LjAnLCAnLXRuJywgJzgnLCAnLW1hJywgJzIwMCcsICctbWV0YWxfYmluZGluZycsICctaW1hZScsICc8aW5maWxlLm1hZT4nLCAnLW9tYWUnLCAnPG91dGZpbGUubWFlPic=

> <r_lp_tautomer_probability>
1

> <r_epik_Ionization_Penalty>
0.00257489

> <r_epik_Ionization_Penalty_Charging>
0

> <r_epik_Ionization_Penalty_Neutral>
0.00257489

> <r_epik_State_Penalty>
0.00519398

> <r_epik_Charging_Adjusted_Penalty>
0.00519398

> <i_epik_Tot_Q>
0

> <i_epik_Tot_abs_Q>
0

> <r_epik_Metal_State_Penalty>
0.335891

> <b_epik_Metal_Only>
0

> <s_epik_Chemistry_Notes>
This compound has an ester and may undergo hydrolysis at high or low pH. This compound contains an acetal/aminal-like group ( X-CH(R)-Y where X, Y are N, S, or O) that may be acid/base labile, releasing an aldehyde.

> <s_lp_Force_Field>
OPLS_2005

> <r_lp_Energy>
40.9193

> <b_lp_Chiralities_Consistent>
1

> <s_lp_Variant>
AV-unprocessed.smi:34-12

> <Gold.Version>
5.8.1

> <Gold.Id.Protein>
6NUR|6NUR_protein|mol2

> <Gold.PLP.Fitness>
59.9002

> <Gold.PLP.PLP>
-49.6197

> <Gold.PLP.part.hbond>
-3.6218

> <Gold.PLP.part.metal>
0.0000

> <Gold.PLP.part.buried>
-5.5044

> <Gold.PLP.part.nonpolar>
-43.0794

> <Gold.PLP.part.repulsive>
1.8376

> <Gold.PLP.ligand.clash>
0.0000

> <Gold.PLP.ligand.torsion>
1.5815

> <Gold.PLP.Chemscore.Hbond>
3.3705

> <Gold.PLP.Chemscore.CHOScore>
0.9865

> <Gold.PLP.Chemscore.Metal>
0.0000

> <Gold.Chemscore.Hbonds>
donor molecule, donor type, donor heavy atom, donor atom, acceptor molecule, acceptor atom, score
      L1  H    29    50       P1  7948  1.00
      P1  H  6896  6909       L1    19  1.00
      P1  H  7989  7998       L1     5  0.32
      P1  H  7997  8010       L1     1  1.00
      L1  C     6    37       P1  7957  1.00

> <Gold.PLP.Chemscore.Internal.Correction>
0.3727

> <Gold.Rescore>
     Score         DG    S(hbond)    S(metal)    S(lipo)     H(rot)  DE(clash)    DE(int)     intcor
     17.90     -22.26       2.92        0.00     119.46       2.72       0.14       4.22       ----

> <Gold.Chemscore.Fitness>
17.9019

> <Gold.Chemscore.DG>
-22.2558

> <Gold.Chemscore.ZeroCoef>
-5.4800

> <Gold.Chemscore.Hbond>
2.9239

> <Gold.Chemscore.Metal>
0.0000

> <Gold.Chemscore.Lipo>
119.4633

> <Gold.Chemscore.Internal_Hbond>
0.0000

> <Gold.Chemscore.DEClash>
0.1388

> <Gold.Chemscore.DEInternal>
4.2152

> <Gold.Chemscore.Rot>
2.7215

> <Gold.Chemscore.Internal.Correction>
   9.000000E+99

> <Gold.Chemscore.Hbonds>
donor molecule, donor type, donor heavy atom, donor atom, acceptor molecule, acceptor atom, score
      L1  H    29    50       P1  7948  0.30
      P1  H  6896  6909       L1    19  0.99
      P1  H  7989  7998       L1     5  0.02
      P1  H  7997  8010       L1     1  0.82

> <Gold.Chemscore.Hbond.Weighted>
-9.7657

> <Gold.Chemscore.Metal.Weighted>
-0.0000

> <Gold.Chemscore.Lipo.Weighted>
-13.9772

> <Gold.Chemscore.Internal_Hbond.Weighted>
0.0000

> <Gold.Chemscore.DEClash.Weighted>
0.1388

> <Gold.Chemscore.DEInternal.Weighted>
4.2152

> <Gold.Chemscore.Rot.Weighted>
6.9670

> <Gold.Chemscore.Internal.Correction.Weighted>
   9.000000E+99

> <Gold.Protein.RotatedTorsions>
[ 6907 6896 6895 6894 ] final  -81.60 input  -60.11 | X-H torsion
[ 7974 7965 7964 7962 ] final   30.34 input  175.53 | X-H torsion
[ 8008 7997 7996 7995 ] final   43.34 input   59.86 | X-H torsion
[ 10167 10162 10161 10158 ] final   35.54 input  -65.29 | X-H torsion
[ 10718 10713 10712 10709 ] final  167.21 input   66.30 | X-H torsion
[ 10763 10752 10751 10750 ] final -129.34 input  -60.55 | X-H torsion
[ 11005 11000 10999 10996 ] final  151.22 input  -57.11 | X-H torsion

> <Gold.Protein.ActiveResidues>
 VAL166  LYS551  ARG553  GLY616  TRP617  ASP618  TYR619  PRO620  LYS621  CYS622 
 ASP623  PHE694  ASN695  SER759  ASP760  ASP761  ALA762  ILE779  LEU786  VAL792 
 PHE793  MET794  SER795  GLU796  ALA797  LYS798  CYS799  TRP800  GLU811  SER814 

> <Gold.Protein.RotatedAtoms>
  150.6909  134.3793  159.5026 H   0  0  0  0  0  0  0  0  0  0  0  0  # atno 6907 bound_to 6896
  152.1598  134.8919  160.0551 H   0  0  0  0  0  0  0  0  0  0  0  0  # atno 6908 bound_to 6896
  151.9985  133.3782  159.4209 H   0  0  0  0  0  0  0  0  0  0  0  0  # atno 6909 bound_to 6896
  146.1618  139.6802  142.9028 H   0  0  0  0  0  0  0  0  0  0  0  0  # atno 7974 bound_to 7965
  155.3012  140.3385  155.4247 H   0  0  0  0  0  0  0  0  0  0  0  0  # atno 8008 bound_to 7997
  156.2000  140.1729  156.7957 H   0  0  0  0  0  0  0  0  0  0  0  0  # atno 8009 bound_to 7997
  154.5547  140.0698  156.8709 H   0  0  0  0  0  0  0  0  0  0  0  0  # atno 8010 bound_to 7997
  140.4212  144.1457  150.6148 H   0  0  0  0  0  0  0  0  0  0  0  0  # atno 10167 bound_to 10162
  157.0547  131.0323  151.2668 H   0  0  0  0  0  0  0  0  0  0  0  0  # atno 10718 bound_to 10713
  154.8757  135.3898  154.3904 H   0  0  0  0  0  0  0  0  0  0  0  0  # atno 10763 bound_to 10752
  153.4640  135.7029  153.6038 H   0  0  0  0  0  0  0  0  0  0  0  0  # atno 10764 bound_to 10752
  153.4524  135.3831  155.2260 H   0  0  0  0  0  0  0  0  0  0  0  0  # atno 10765 bound_to 10752
  140.1199  134.8870  157.2058 H   0  0  0  0  0  0  0  0  0  0  0  0  # atno 11005 bound_to 11000
  145.4570  141.0431  143.2773 LP  0  0  0  0  0  0  0  0  0  0  0  0  # atno 17320 bound_to 7965
  144.8037  139.6092  143.7060 LP  0  0  0  0  0  0  0  0  0  0  0  0  # atno 17321 bound_to 7965
  140.4531  143.2478  151.9320 LP  0  0  0  0  0  0  0  0  0  0  0  0  # atno 17342 bound_to 10162
  139.4782  144.5542  151.8339 LP  0  0  0  0  0  0  0  0  0  0  0  0  # atno 17343 bound_to 10162
  157.5002  130.7875  149.7597 LP  0  0  0  0  0  0  0  0  0  0  0  0  # atno 17370 bound_to 10713
  155.9996  130.3887  150.2656 LP  0  0  0  0  0  0  0  0  0  0  0  0  # atno 17371 bound_to 10713
  140.2978  134.3166  155.7297 LP  0  0  0  0  0  0  0  0  0  0  0  0  # atno 17394 bound_to 11000
  141.2149  133.7574  156.9597 LP  0  0  0  0  0  0  0  0  0  0  0  0  # atno 17395 bound_to 11000

$$$$
