AV-unprocessed.smi:812|AV-procd|sdf|3816|dock2
  -GOLD-   22720 1253D 1   1.00000     0.00000
 Structure written by MMmdl.
 38 40  0  0  0  0  0  0  0  0  1 V2000
  151.2611  141.2407  159.6594 C   0  0  0  0  0  0  0  0  0  0  0  0
  151.0374  140.8981  158.2424 N   0  0  0  0  0  0  0  0  0  0  0  0
  149.8885  141.3405  157.6406 C   0  0  0  0  0  0  0  0  0  0  0  0
  149.0171  142.0099  158.1968 O   0  0  0  0  0  0  0  0  0  0  0  0
  149.7633  140.9428  156.2334 C   0  0  0  0  0  0  0  0  0  0  0  0
  150.6987  140.2014  155.5901 C   0  0  0  0  0  0  0  0  0  0  0  0
  150.3308  139.9598  154.2709 N   0  0  0  0  0  0  0  0  0  0  0  0
  149.1570  140.5866  154.1884 C   0  0  0  0  0  0  0  0  0  0  0  0
  148.7436  141.1985  155.3163 N   0  0  0  0  0  0  0  0  0  0  0  0
  147.5014  141.9395  155.4812 C   0  0  0  0  0  0  0  0  0  0  0  0
  146.6589  141.9861  154.1897 C   0  0  1  0  0  0  0  0  0  0  0  0
  145.9674  140.7660  154.0052 O   0  0  0  0  0  0  0  0  0  0  0  0
  145.7161  143.1788  154.1888 C   0  0  0  0  0  0  0  0  0  0  0  0
  145.7289  144.0993  153.1177 C   0  0  0  0  0  0  0  0  0  0  0  0
  144.8524  145.2017  153.1182 C   0  0  0  0  0  0  0  0  0  0  0  0
  143.9566  145.3889  154.1883 C   0  0  0  0  0  0  0  0  0  0  0  0
  143.1137  146.4484  154.1886 F   0  0  0  0  0  0  0  0  0  0  0  0
  143.9372  144.4725  155.2572 C   0  0  0  0  0  0  0  0  0  0  0  0
  144.8136  143.3697  155.2572 C   0  0  0  0  0  0  0  0  0  0  0  0
  151.8518  139.7946  156.3100 N   0  0  0  0  0  0  0  0  0  0  0  0
  152.8709  138.9901  155.6303 C   0  0  0  0  0  0  0  0  0  0  0  0
  152.0176  140.1376  157.6284 C   0  0  0  0  0  0  0  0  0  0  0  0
  153.0213  139.7701  158.2461 O   0  0  0  0  0  0  0  0  0  0  0  0
  150.5034  141.8893  160.1001 H   0  0  0  0  0  0  0  0  0  0  0  0
  152.2144  141.7572  159.7841 H   0  0  0  0  0  0  0  0  0  0  0  0
  151.2892  140.3344  160.2663 H   0  0  0  0  0  0  0  0  0  0  0  0
  148.5764  140.5988  153.2775 H   0  0  0  0  0  0  0  0  0  0  0  0
  146.9333  141.5156  156.3079 H   0  0  0  0  0  0  0  0  0  0  0  0
  147.7554  142.9551  155.7876 H   0  0  0  0  0  0  0  0  0  0  0  0
  147.3363  142.0854  153.3403 H   0  0  0  0  0  0  0  0  0  0  0  0
  145.2286  140.9229  153.4372 H   0  0  0  0  0  0  0  0  0  0  0  0
  146.4113  143.9615  152.2914 H   0  0  0  0  0  0  0  0  0  0  0  0
  144.8673  145.9029  152.2969 H   0  0  0  0  0  0  0  0  0  0  0  0
  143.2495  144.6150  156.0777 H   0  0  0  0  0  0  0  0  0  0  0  0
  144.7891  142.6719  156.0814 H   0  0  0  0  0  0  0  0  0  0  0  0
  153.8380  139.4947  155.6547 H   0  0  0  0  0  0  0  0  0  0  0  0
  152.6321  138.8007  154.5843 H   0  0  0  0  0  0  0  0  0  0  0  0
  152.9799  138.0210  156.1187 H   0  0  0  0  0  0  0  0  0  0  0  0
  1  2  1  0  0  0  0
  1 24  1  0  0  0  0
  1 25  1  0  0  0  0
  1 26  1  0  0  0  0
  2 22  1  0  0  0  0
  2  3  1  0  0  0  0
  3  4  2  0  0  0  0
  3  5  1  0  0  0  0
  5  9  1  0  0  0  0
  5  6  2  0  0  0  0
  6  7  1  0  0  0  0
  6 20  1  0  0  0  0
  7  8  2  0  0  0  0
  8  9  1  0  0  0  0
  8 27  1  0  0  0  0
  9 10  1  0  0  0  0
 10 11  1  0  0  0  0
 10 28  1  0  0  0  0
 10 29  1  0  0  0  0
 11 12  1  0  0  0  0
 11 13  1  0  0  0  0
 11 30  1  0  0  0  0
 12 31  1  0  0  0  0
 13 19  1  0  0  0  0
 13 14  2  0  0  0  0
 14 15  1  0  0  0  0
 14 32  1  0  0  0  0
 15 16  2  0  0  0  0
 15 33  1  0  0  0  0
 16 17  1  0  0  0  0
 16 18  1  0  0  0  0
 18 19  2  0  0  0  0
 18 34  1  0  0  0  0
 19 35  1  0  0  0  0
 20 21  1  0  0  0  0
 20 22  1  0  0  0  0
 21 36  1  0  0  0  0
 21 37  1  0  0  0  0
 21 38  1  0  0  0  0
 22 23  2  0  0  0  0
M  END
> <s_m_source_file>
AV-unprocessed.smi

> <i_m_source_file_index>
812

> <i_lp_mmshare_version>
43012

> <i_f3d_flags>
0

> <s_epik_input>
Tz1jMW4oW0NIM10pYyg9TyluKFtDSDNdKWMoYzEyKW5bY0hdbjJbQ0gyXVtDQEhdKFtPSF0pYzNbY0hdW2NIXWMoRilbY0hdW2NIXTM=

> <s_epik_cmdline>
J2VwaWtfcHl0aG9uJywgJy1waCcsICc3LjAnLCAnLXRuJywgJzgnLCAnLW1hJywgJzIwMCcsICctbWV0YWxfYmluZGluZycsICctaW1hZScsICc8aW5maWxlLm1hZT4nLCAnLW9tYWUnLCAnPG91dGZpbGUubWFlPic=

> <r_lp_tautomer_probability>
1

> <r_epik_Ionization_Penalty>
1.45649e-06

> <r_epik_Ionization_Penalty_Charging>
3.74189e-09

> <r_epik_Ionization_Penalty_Neutral>
1.45275e-06

> <r_epik_State_Penalty>
-0

> <r_epik_Charging_Adjusted_Penalty>
3.74189e-09

> <i_epik_Tot_Q>
0

> <i_epik_Tot_abs_Q>
0

> <r_epik_Metal_State_Penalty>
-0

> <b_epik_Metal_Only>
0

> <s_lp_Force_Field>
OPLS_2005

> <r_lp_Energy>
35.4349

> <b_lp_Chiralities_Consistent>
1

> <s_lp_Variant>
AV-unprocessed.smi:812-2

> <Gold.Version>
5.8.1

> <Gold.Id.Protein>
6NUR|6NUR_protein|mol2

> <Gold.PLP.Fitness>
54.6280

> <Gold.PLP.PLP>
-46.2848

> <Gold.PLP.part.hbond>
-3.0000

> <Gold.PLP.part.metal>
0.0000

> <Gold.PLP.part.buried>
0.2327

> <Gold.PLP.part.nonpolar>
-42.6429

> <Gold.PLP.part.repulsive>
1.0952

> <Gold.PLP.ligand.clash>
0.0000

> <Gold.PLP.ligand.torsion>
0.3153

> <Gold.PLP.Chemscore.Hbond>
2.3420

> <Gold.PLP.Chemscore.CHOScore>
0.6410

> <Gold.PLP.Chemscore.Metal>
0.0000

> <Gold.Chemscore.Hbonds>
donor molecule, donor type, donor heavy atom, donor atom, acceptor molecule, acceptor atom, score
      L1  H    12    31       P1 10175  1.00
      P1  H  7989  7998       L1     7  0.90
      P1  H  7997  8010       L1    23  0.67
      L1  C     8    27       P1  7957  0.82

> <Gold.PLP.Chemscore.Internal.Correction>
0.0249

> <Gold.Rescore>
     Score         DG    S(hbond)    S(metal)    S(lipo)     H(rot)  DE(clash)    DE(int)     intcor
     12.88     -13.78       1.86        0.00      66.93       2.24       0.32       0.58       ----

> <Gold.Chemscore.Fitness>
12.8820

> <Gold.Chemscore.DG>
-13.7793

> <Gold.Chemscore.ZeroCoef>
-5.4800

> <Gold.Chemscore.Hbond>
1.8553

> <Gold.Chemscore.Metal>
0.0000

> <Gold.Chemscore.Lipo>
66.9322

> <Gold.Chemscore.Internal_Hbond>
0.0000

> <Gold.Chemscore.DEClash>
0.3168

> <Gold.Chemscore.DEInternal>
0.5806

> <Gold.Chemscore.Rot>
2.2377

> <Gold.Chemscore.Internal.Correction>
   9.000000E+99

> <Gold.Chemscore.Hbonds>
donor molecule, donor type, donor heavy atom, donor atom, acceptor molecule, acceptor atom, score
      L1  H    12    31       P1 10175  0.69
      P1  H  7989  7998       L1     7  0.15
      P1  H  7997  8010       L1    23  0.11

> <Gold.Chemscore.Hbond.Weighted>
-6.1968

> <Gold.Chemscore.Metal.Weighted>
-0.0000

> <Gold.Chemscore.Lipo.Weighted>
-7.8311

> <Gold.Chemscore.Internal_Hbond.Weighted>
0.0000

> <Gold.Chemscore.DEClash.Weighted>
0.3168

> <Gold.Chemscore.DEInternal.Weighted>
0.5806

> <Gold.Chemscore.Rot.Weighted>
5.7286

> <Gold.Chemscore.Internal.Correction.Weighted>
   9.000000E+99

> <Gold.Protein.RotatedTorsions>
[ 6907 6896 6895 6894 ] final -163.30 input  -60.11 | X-H torsion
[ 7974 7965 7964 7962 ] final   39.11 input  175.53 | X-H torsion
[ 8008 7997 7996 7995 ] final   57.23 input   59.86 | X-H torsion
[ 10167 10162 10161 10158 ] final  121.02 input  -65.29 | X-H torsion
[ 10718 10713 10712 10709 ] final -115.54 input   66.30 | X-H torsion
[ 10763 10752 10751 10750 ] final -125.58 input  -60.55 | X-H torsion
[ 11005 11000 10999 10996 ] final   50.09 input  -57.11 | X-H torsion

> <Gold.Protein.ActiveResidues>
 VAL166  LYS551  ARG553  GLY616  TRP617  ASP618  TYR619  PRO620  LYS621  CYS622 
 ASP623  PHE694  ASN695  SER759  ASP760  ASP761  ALA762  ILE779  LEU786  VAL792 
 PHE793  MET794  SER795  GLU796  ALA797  LYS798  CYS799  TRP800  GLU811  SER814 

> <Gold.Protein.RotatedAtoms>
  151.3939  133.3780  159.2723 H   0  0  0  0  0  0  0  0  0  0  0  0  # atno 6907 bound_to 6896
  150.9484  134.8888  159.7667 H   0  0  0  0  0  0  0  0  0  0  0  0  # atno 6908 bound_to 6896
  152.5101  134.3893  159.9430 H   0  0  0  0  0  0  0  0  0  0  0  0  # atno 6909 bound_to 6896
  146.1010  139.5691  142.9414 H   0  0  0  0  0  0  0  0  0  0  0  0  # atno 7974 bound_to 7965
  155.5303  140.3482  155.4425 H   0  0  0  0  0  0  0  0  0  0  0  0  # atno 8008 bound_to 7997
  156.0723  140.1366  156.9841 H   0  0  0  0  0  0  0  0  0  0  0  0  # atno 8009 bound_to 7997
  154.4534  140.0963  156.6662 H   0  0  0  0  0  0  0  0  0  0  0  0  # atno 8010 bound_to 7997
  139.5945  144.7037  151.3209 H   0  0  0  0  0  0  0  0  0  0  0  0  # atno 10167 bound_to 10162
  156.0903  130.6086  150.8920 H   0  0  0  0  0  0  0  0  0  0  0  0  # atno 10718 bound_to 10713
  154.8737  135.4025  154.3291 H   0  0  0  0  0  0  0  0  0  0  0  0  # atno 10763 bound_to 10752
  153.4107  135.7020  153.6366 H   0  0  0  0  0  0  0  0  0  0  0  0  # atno 10764 bound_to 10752
  153.5070  135.3715  155.2538 H   0  0  0  0  0  0  0  0  0  0  0  0  # atno 10765 bound_to 10752
  140.1047  134.5034  155.8730 H   0  0  0  0  0  0  0  0  0  0  0  0  # atno 11005 bound_to 11000
  145.5854  141.0377  143.2099 LP  0  0  0  0  0  0  0  0  0  0  0  0  # atno 17320 bound_to 7965
  144.7433  139.7390  143.7302 LP  0  0  0  0  0  0  0  0  0  0  0  0  # atno 17321 bound_to 7965
  140.7201  143.7160  150.7732 LP  0  0  0  0  0  0  0  0  0  0  0  0  # atno 17342 bound_to 10162
  140.0723  143.5049  152.2573 LP  0  0  0  0  0  0  0  0  0  0  0  0  # atno 17343 bound_to 10162
  157.6050  131.0939  150.8895 LP  0  0  0  0  0  0  0  0  0  0  0  0  # atno 17370 bound_to 10713
  156.9045  130.5258  149.5282 LP  0  0  0  0  0  0  0  0  0  0  0  0  # atno 17371 bound_to 10713
  141.2115  133.6707  156.6588 LP  0  0  0  0  0  0  0  0  0  0  0  0  # atno 17394 bound_to 11000
  140.3171  134.8038  157.4223 LP  0  0  0  0  0  0  0  0  0  0  0  0  # atno 17395 bound_to 11000

$$$$
