AV-unprocessed.smi:2100|AV-procd|sdf|8576|dock9
  -GOLD-   2272011303D 1   1.00000     0.00000
 Structure written by MMmdl.
 40 41  0  0  0  0  0  0  0  0  2 V2000
  149.0251  141.0565  154.6090 C   0  0  0  0  0  0  0  0  0  0  0  0
  149.7790  139.8167  155.1021 C   0  0  2  0  0  0  0  0  0  0  0  0
  149.9278  139.8095  156.6320 C   0  0  0  0  0  0  0  0  0  0  0  0
  150.7606  138.6762  157.0765 N   0  0  0  0  0  0  0  0  0  0  0  0
  150.7554  138.2880  158.7692 S   0  0  0  0  0  0  0  0  0  0  0  0
  149.3441  138.1992  159.1780 O   0  0  0  0  0  0  0  0  0  0  0  0
  151.5884  137.0816  158.9046 O   0  0  0  0  0  0  0  0  0  0  0  0
  151.4684  139.6469  159.2868 N   0  5  0  0  0  0  0  0  0  0  0  0
  152.9178  139.7162  159.3547 C   0  0  0  0  0  0  0  0  0  0  0  0
  153.3549  141.0362  160.0314 C   0  0  0  0  0  0  0  0  0  0  0  0
  152.7682  142.3057  159.4157 C   0  0  0  0  0  0  0  0  0  0  0  0
  153.6126  143.2836  158.8410 C   0  0  0  0  0  0  0  0  0  0  0  0
  153.0302  144.4384  158.2860 C   0  0  0  0  0  0  0  0  0  0  0  0
  151.6289  144.5711  158.3134 C   0  0  0  0  0  0  0  0  0  0  0  0
  150.8701  143.5378  158.8980 C   0  0  0  0  0  0  0  0  0  0  0  0
  151.4180  142.4268  159.4352 N   0  0  0  0  0  0  0  0  0  0  0  0
  152.0544  138.6150  156.3776 C   0  0  0  0  0  0  0  0  0  0  0  0
  151.8804  138.6986  154.8481 C   0  0  1  0  0  0  0  0  0  0  0  0
  151.3785  137.3863  154.2189 C   0  0  0  0  0  0  0  0  0  0  0  0
  151.0642  139.8112  154.4912 O   0  0  0  0  0  0  0  0  0  0  0  0
  148.0241  141.1019  155.0390 H   0  0  0  0  0  0  0  0  0  0  0  0
  148.9209  141.0432  153.5239 H   0  0  0  0  0  0  0  0  0  0  0  0
  149.5494  141.9724  154.8830 H   0  0  0  0  0  0  0  0  0  0  0  0
  149.2156  138.9379  154.7883 H   0  0  0  0  0  0  0  0  0  0  0  0
  150.3879  140.7371  156.9748 H   0  0  0  0  0  0  0  0  0  0  0  0
  148.9404  139.7618  157.0902 H   0  0  0  0  0  0  0  0  0  0  0  0
  153.3230  138.8785  159.9230 H   0  0  0  0  0  0  0  0  0  0  0  0
  153.3773  139.6543  158.3675 H   0  0  0  0  0  0  0  0  0  0  0  0
  153.1043  141.0087  161.0928 H   0  0  0  0  0  0  0  0  0  0  0  0
  154.4423  141.1101  159.9903 H   0  0  0  0  0  0  0  0  0  0  0  0
  154.6854  143.1554  158.8411 H   0  0  0  0  0  0  0  0  0  0  0  0
  153.6478  145.2084  157.8479 H   0  0  0  0  0  0  0  0  0  0  0  0
  151.1471  145.4430  157.8967 H   0  0  0  0  0  0  0  0  0  0  0  0
  149.7928  143.6057  158.9343 H   0  0  0  0  0  0  0  0  0  0  0  0
  152.6724  139.4430  156.7265 H   0  0  0  0  0  0  0  0  0  0  0  0
  152.5812  137.6978  156.6405 H   0  0  0  0  0  0  0  0  0  0  0  0
  152.8615  138.8963  154.4155 H   0  0  0  0  0  0  0  0  0  0  0  0
  152.0981  136.5828  154.3764 H   0  0  0  0  0  0  0  0  0  0  0  0
  151.2394  137.4984  153.1434 H   0  0  0  0  0  0  0  0  0  0  0  0
  150.4324  137.0578  154.6487 H   0  0  0  0  0  0  0  0  0  0  0  0
  1  2  1  0  0  0  0
  1 21  1  0  0  0  0
  1 22  1  0  0  0  0
  1 23  1  0  0  0  0
  2 20  1  0  0  0  0
  2  3  1  0  0  0  0
  2 24  1  0  0  0  0
  3  4  1  0  0  0  0
  3 25  1  0  0  0  0
  3 26  1  0  0  0  0
  4  5  1  0  0  0  0
  4 17  1  0  0  0  0
  5  6  2  0  0  0  0
  5  7  2  0  0  0  0
  5  8  1  0  0  0  0
  8  9  1  0  0  0  0
  9 10  1  0  0  0  0
  9 27  1  0  0  0  0
  9 28  1  0  0  0  0
 10 11  1  0  0  0  0
 10 29  1  0  0  0  0
 10 30  1  0  0  0  0
 11 16  1  0  0  0  0
 11 12  2  0  0  0  0
 12 13  1  0  0  0  0
 12 31  1  0  0  0  0
 13 14  2  0  0  0  0
 13 32  1  0  0  0  0
 14 15  1  0  0  0  0
 14 33  1  0  0  0  0
 15 16  2  0  0  0  0
 15 34  1  0  0  0  0
 17 18  1  0  0  0  0
 17 35  1  0  0  0  0
 17 36  1  0  0  0  0
 18 19  1  0  0  0  0
 18 20  1  0  0  0  0
 18 37  1  0  0  0  0
 19 38  1  0  0  0  0
 19 39  1  0  0  0  0
 19 40  1  0  0  0  0
M  CHG  1   8  -1
M  END
> <s_m_source_file>
AV-unprocessed.smi

> <i_m_source_file_index>
2100

> <i_lp_mmshare_version>
43012

> <i_f3d_flags>
0

> <s_epik_input>
W0NIM11bQ0BASF0xW0NIMl1OKFtDSDJdW0NASF0oTzEpW0NIM10pUyg9TykoPU8pW05IXVtDSDJdW0NIMl1jMltjSF1bY0hdW2NIXVtjSF1uMg==

> <s_epik_cmdline>
J2VwaWtfcHl0aG9uJywgJy1waCcsICc3LjAnLCAnLXRuJywgJzgnLCAnLW1hJywgJzIwMCcsICctbWV0YWxfYmluZGluZycsICctaW1hZScsICc8aW5maWxlLm1hZT4nLCAnLW9tYWUnLCAnPG91dGZpbGUubWFlPic=

> <r_epik_Ionization_Penalty>
1.27779

> <r_epik_Ionization_Penalty_Charging>
1.20871

> <r_epik_Ionization_Penalty_Neutral>
0.0690773

> <r_epik_State_Penalty>
1.64557

> <r_epik_Charging_Adjusted_Penalty>
2.85428

> <i_epik_Tot_Q>
-1

> <i_epik_Tot_abs_Q>
1

> <r_epik_Metal_State_Penalty>
0.643506

> <b_epik_Metal_Only>
0

> <s_lp_Force_Field>
OPLS_2005

> <r_lp_Energy>
11.2488

> <b_lp_Chiralities_Consistent>
1

> <s_lp_Variant>
AV-unprocessed.smi:2100-4

> <Gold.Version>
5.8.1

> <Gold.Id.Protein>
6NUR|6NUR_protein|mol2

> <Gold.PLP.Fitness>
45.0790

> <Gold.PLP.PLP>
-40.1109

> <Gold.PLP.part.hbond>
-4.5281

> <Gold.PLP.part.metal>
0.0000

> <Gold.PLP.part.buried>
-4.3624

> <Gold.PLP.part.nonpolar>
-33.8914

> <Gold.PLP.part.repulsive>
0.0851

> <Gold.PLP.ligand.clash>
0.0000

> <Gold.PLP.ligand.torsion>
0.7941

> <Gold.PLP.Chemscore.Hbond>
1.6825

> <Gold.PLP.Chemscore.CHOScore>
0.0000

> <Gold.PLP.Chemscore.Metal>
0.0000

> <Gold.Chemscore.Hbonds>
donor molecule, donor type, donor heavy atom, donor atom, acceptor molecule, acceptor atom, score
      P1  H  6896  6907       L1     7  0.62
      P1  H  7989  7998       L1    20  1.00

> <Gold.PLP.Chemscore.Internal.Correction>
1.5088

> <Gold.Rescore>
     Score         DG    S(hbond)    S(metal)    S(lipo)     H(rot)  DE(clash)    DE(int)     intcor
     19.10     -21.41       1.91        0.00     113.72       1.47       0.13       2.18       ----

> <Gold.Chemscore.Fitness>
19.0976

> <Gold.Chemscore.DG>
-21.4066

> <Gold.Chemscore.ZeroCoef>
-5.4800

> <Gold.Chemscore.Hbond>
1.9140

> <Gold.Chemscore.Metal>
0.0000

> <Gold.Chemscore.Lipo>
113.7189

> <Gold.Chemscore.Internal_Hbond>
0.0000

> <Gold.Chemscore.DEClash>
0.1310

> <Gold.Chemscore.DEInternal>
2.1780

> <Gold.Chemscore.Rot>
1.4731

> <Gold.Chemscore.Internal.Correction>
   9.000000E+99

> <Gold.Chemscore.Hbonds>
donor molecule, donor type, donor heavy atom, donor atom, acceptor molecule, acceptor atom, score
      P1  H  6896  6907       L1     7  0.59
      P1  H  7989  7998       L1    20  0.92

> <Gold.Chemscore.Hbond.Weighted>
-6.3926

> <Gold.Chemscore.Metal.Weighted>
-0.0000

> <Gold.Chemscore.Lipo.Weighted>
-13.3051

> <Gold.Chemscore.Internal_Hbond.Weighted>
0.0000

> <Gold.Chemscore.DEClash.Weighted>
0.1310

> <Gold.Chemscore.DEInternal.Weighted>
2.1780

> <Gold.Chemscore.Rot.Weighted>
3.7712

> <Gold.Chemscore.Internal.Correction.Weighted>
   9.000000E+99

> <Gold.Protein.RotatedTorsions>
[ 6907 6896 6895 6894 ] final   -6.98 input  -60.11 | X-H torsion
[ 7974 7965 7964 7962 ] final  -59.04 input  175.53 | X-H torsion
[ 8008 7997 7996 7995 ] final -166.63 input   59.86 | X-H torsion
[ 10167 10162 10161 10158 ] final   31.86 input  -65.29 | X-H torsion
[ 10718 10713 10712 10709 ] final  152.97 input   66.30 | X-H torsion
[ 10763 10752 10751 10750 ] final   -5.33 input  -60.55 | X-H torsion
[ 11005 11000 10999 10996 ] final   -1.44 input  -57.11 | X-H torsion

> <Gold.Protein.ActiveResidues>
 VAL166  LYS551  ARG553  GLY616  TRP617  ASP618  TYR619  PRO620  LYS621  CYS622 
 ASP623  PHE694  ASN695  SER759  ASP760  ASP761  ALA762  ILE779  LEU786  VAL792 
 PHE793  MET794  SER795  GLU796  ALA797  LYS798  CYS799  TRP800  GLU811  SER814 

> <Gold.Protein.RotatedAtoms>
  151.4569  135.1035  159.9713 H   0  0  0  0  0  0  0  0  0  0  0  0  # atno 6907 bound_to 6896
  152.4867  133.8388  159.7152 H   0  0  0  0  0  0  0  0  0  0  0  0  # atno 6908 bound_to 6896
  150.8983  133.7091  159.2913 H   0  0  0  0  0  0  0  0  0  0  0  0  # atno 6909 bound_to 6896
  145.8322  140.8472  143.0077 H   0  0  0  0  0  0  0  0  0  0  0  0  # atno 7974 bound_to 7965
  155.8665  140.0986  157.1579 H   0  0  0  0  0  0  0  0  0  0  0  0  # atno 8008 bound_to 7997
  154.3994  140.1355  156.4088 H   0  0  0  0  0  0  0  0  0  0  0  0  # atno 8009 bound_to 7997
  155.7798  140.3458  155.5294 H   0  0  0  0  0  0  0  0  0  0  0  0  # atno 8010 bound_to 7997
  140.4551  144.0990  150.6200 H   0  0  0  0  0  0  0  0  0  0  0  0  # atno 10167 bound_to 10162
  157.2509  131.0778  151.1730 H   0  0  0  0  0  0  0  0  0  0  0  0  # atno 10718 bound_to 10713
  153.3971  135.7004  153.6453 H   0  0  0  0  0  0  0  0  0  0  0  0  # atno 10763 bound_to 10752
  153.5002  135.3654  155.2536 H   0  0  0  0  0  0  0  0  0  0  0  0  # atno 10764 bound_to 10752
  154.8707  135.4110  154.3298 H   0  0  0  0  0  0  0  0  0  0  0  0  # atno 10765 bound_to 10752
  140.6474  133.9435  155.8360 H   0  0  0  0  0  0  0  0  0  0  0  0  # atno 11005 bound_to 11000
  144.6739  140.0689  143.7473 LP  0  0  0  0  0  0  0  0  0  0  0  0  # atno 17320 bound_to 7965
  145.9558  139.2765  143.1185 LP  0  0  0  0  0  0  0  0  0  0  0  0  # atno 17321 bound_to 7965
  140.4161  143.2634  151.9773 LP  0  0  0  0  0  0  0  0  0  0  0  0  # atno 17342 bound_to 10162
  139.4800  144.5873  151.7832 LP  0  0  0  0  0  0  0  0  0  0  0  0  # atno 17343 bound_to 10162
  157.3279  130.6970  149.6307 LP  0  0  0  0  0  0  0  0  0  0  0  0  # atno 17370 bound_to 10713
  155.9666  130.4316  150.4927 LP  0  0  0  0  0  0  0  0  0  0  0  0  # atno 17371 bound_to 10713
  141.0562  134.0413  157.3719 LP  0  0  0  0  0  0  0  0  0  0  0  0  # atno 17394 bound_to 11000
  139.9058  135.0179  156.7478 LP  0  0  0  0  0  0  0  0  0  0  0  0  # atno 17395 bound_to 11000

$$$$
