AV-unprocessed.smi:596|AV-procd|sdf|3019|dock8
  -GOLD-   2262023533D 1   1.00000     0.00000
 Structure written by MMmdl.
 41 42  0  0  0  0  0  0  0  0  3 V2000
  148.9483  139.7552  155.8230 O   0  0  0  0  0  0  0  0  0  0  0  0
  148.8716  140.8646  155.2964 C   0  0  0  0  0  0  0  0  0  0  0  0
  147.9680  141.0420  154.0635 C   0  0  0  0  0  0  0  0  0  0  0  0
  146.6872  141.7248  154.3229 N   0  0  0  0  0  0  0  0  0  0  0  0
  146.2614  142.6651  153.3638 C   0  0  0  0  0  0  0  0  0  0  0  0
  145.1044  143.3437  153.4908 C   0  0  0  0  0  0  0  0  0  0  0  0
  144.6770  144.2960  152.4895 N   0  3  0  0  0  0  0  0  0  0  0  0
  143.7908  145.0939  152.7771 O   0  0  0  0  0  0  0  0  0  0  0  0
  145.2102  144.2772  151.3841 O   0  5  0  0  0  0  0  0  0  0  0  0
  144.2943  143.0811  154.6644 C   0  0  0  0  0  0  0  0  0  0  0  0
  144.6939  142.1799  155.5832 C   0  0  0  0  0  0  0  0  0  0  0  0
  145.9490  141.4356  155.4381 C   0  0  0  0  0  0  0  0  0  0  0  0
  146.3113  140.5994  156.2654 O   0  0  0  0  0  0  0  0  0  0  0  0
  149.5413  141.9347  155.7581 N   0  0  0  0  0  0  0  0  0  0  0  0
  150.4222  141.9413  156.9191 C   0  0  0  0  0  0  0  0  0  0  0  0
  151.3592  143.1614  156.9058 C   0  0  0  0  0  0  0  0  0  0  0  0
  151.6376  143.7026  158.2980 C   0  0  0  0  0  0  0  0  0  0  0  0
  151.3174  144.9633  158.6497 C   0  0  0  0  0  0  0  0  0  0  0  0
  151.5555  145.5512  160.0297 C   0  0  0  0  0  0  0  0  0  0  0  0
  151.8816  144.4741  161.0779 C   0  0  0  0  0  0  0  0  0  0  0  0
  152.8673  143.4396  160.5207 C   0  0  0  0  0  0  0  0  0  0  0  0
  152.2977  142.7363  159.2754 C   0  0  0  0  0  0  0  0  0  0  0  0
  148.5347  141.5694  153.2944 H   0  0  0  0  0  0  0  0  0  0  0  0
  147.7808  140.0540  153.6405 H   0  0  0  0  0  0  0  0  0  0  0  0
  146.9317  142.7818  152.5243 H   0  0  0  0  0  0  0  0  0  0  0  0
  143.3620  143.6052  154.8157 H   0  0  0  0  0  0  0  0  0  0  0  0
  144.0750  141.9996  156.4499 H   0  0  0  0  0  0  0  0  0  0  0  0
  149.4276  142.8114  155.2704 H   0  0  0  0  0  0  0  0  0  0  0  0
  149.8340  141.9195  157.8383 H   0  0  0  0  0  0  0  0  0  0  0  0
  151.0011  141.0178  156.8983 H   0  0  0  0  0  0  0  0  0  0  0  0
  152.3086  142.9028  156.4354 H   0  0  0  0  0  0  0  0  0  0  0  0
  150.9216  143.9528  156.2957 H   0  0  0  0  0  0  0  0  0  0  0  0
  150.8672  145.6258  157.9247 H   0  0  0  0  0  0  0  0  0  0  0  0
  152.3767  146.2646  159.9545 H   0  0  0  0  0  0  0  0  0  0  0  0
  150.6739  146.1133  160.3385 H   0  0  0  0  0  0  0  0  0  0  0  0
  152.2852  144.9395  161.9775 H   0  0  0  0  0  0  0  0  0  0  0  0
  150.9634  143.9669  161.3778 H   0  0  0  0  0  0  0  0  0  0  0  0
  153.8013  143.9398  160.2607 H   0  0  0  0  0  0  0  0  0  0  0  0
  153.1149  142.7017  161.2841 H   0  0  0  0  0  0  0  0  0  0  0  0
  151.5553  141.9975  159.5788 H   0  0  0  0  0  0  0  0  0  0  0  0
  153.0959  142.1926  158.7689 H   0  0  0  0  0  0  0  0  0  0  0  0
  1  2  2  0  0  0  0
  2  3  1  0  0  0  0
  2 14  1  0  0  0  0
  3  4  1  0  0  0  0
  3 23  1  0  0  0  0
  3 24  1  0  0  0  0
  4 12  1  0  0  0  0
  4  5  1  0  0  0  0
  5  6  2  0  0  0  0
  5 25  1  0  0  0  0
  6  7  1  0  0  0  0
  6 10  1  0  0  0  0
  7  8  2  0  0  0  0
  7  9  1  0  0  0  0
 10 11  2  0  0  0  0
 10 26  1  0  0  0  0
 11 12  1  0  0  0  0
 11 27  1  0  0  0  0
 12 13  2  0  0  0  0
 14 15  1  0  0  0  0
 14 28  1  0  0  0  0
 15 16  1  0  0  0  0
 15 29  1  0  0  0  0
 15 30  1  0  0  0  0
 16 17  1  0  0  0  0
 16 31  1  0  0  0  0
 16 32  1  0  0  0  0
 17 22  1  0  0  0  0
 17 18  2  0  0  0  0
 18 19  1  0  0  0  0
 18 33  1  0  0  0  0
 19 20  1  0  0  0  0
 19 34  1  0  0  0  0
 19 35  1  0  0  0  0
 20 21  1  0  0  0  0
 20 36  1  0  0  0  0
 20 37  1  0  0  0  0
 21 22  1  0  0  0  0
 21 38  1  0  0  0  0
 21 39  1  0  0  0  0
 22 40  1  0  0  0  0
 22 41  1  0  0  0  0
M  CHG  1   7   1
M  CHG  1   9  -1
M  END
> <s_m_source_file>
AV-unprocessed.smi

> <i_m_source_file_index>
596

> <i_lp_mmshare_version>
43012

> <i_f3d_flags>
0

> <s_epik_input>
Tz1jMVtjSF1bY0hdYyhbTitdKD1PKVtPLV0pW2NIXW4xW0NIMl1DKD1PKVtOSF1bQ0gyXVtDSDJdQzI9W0NIXVtDSDJdW0NIMl1bQ0gyXVtDSDJdMg==

> <s_epik_cmdline>
J2VwaWtfcHl0aG9uJywgJy1waCcsICc3LjAnLCAnLXRuJywgJzgnLCAnLW1hJywgJzIwMCcsICctbWV0YWxfYmluZGluZycsICctaW1hZScsICc8aW5maWxlLm1hZT4nLCAnLW9tYWUnLCAnPG91dGZpbGUubWFlPic=

> <r_lp_tautomer_probability>
1

> <r_epik_Ionization_Penalty>
1.81809e-08

> <r_epik_Ionization_Penalty_Charging>
7.7346e-11

> <r_epik_Ionization_Penalty_Neutral>
1.81035e-08

> <r_epik_State_Penalty>
-0

> <r_epik_Charging_Adjusted_Penalty>
7.7346e-11

> <i_epik_Tot_Q>
0

> <i_epik_Tot_abs_Q>
2

> <r_epik_Metal_State_Penalty>
-0

> <b_epik_Metal_Only>
0

> <s_lp_Force_Field>
OPLS_2005

> <r_lp_Energy>
18.9868

> <b_lp_Chiralities_Consistent>
1

> <s_lp_Variant>
AV-unprocessed.smi:596-1

> <Gold.Version>
5.8.1

> <Gold.Id.Protein>
6NUR|6NUR_protein|mol2

> <Gold.PLP.Fitness>
56.1082

> <Gold.PLP.PLP>
-54.9226

> <Gold.PLP.part.hbond>
-4.0000

> <Gold.PLP.part.metal>
0.0000

> <Gold.PLP.part.buried>
-8.2692

> <Gold.PLP.part.nonpolar>
-43.4824

> <Gold.PLP.part.repulsive>
0.4781

> <Gold.PLP.ligand.clash>
0.0000

> <Gold.PLP.ligand.torsion>
0.9382

> <Gold.PLP.Chemscore.Hbond>
0.9920

> <Gold.PLP.Chemscore.CHOScore>
0.0000

> <Gold.PLP.Chemscore.Metal>
0.0000

> <Gold.Chemscore.Hbonds>
donor molecule, donor type, donor heavy atom, donor atom, acceptor molecule, acceptor atom, score
      L1  H    14    28       P1  8028  0.80

> <Gold.PLP.Chemscore.Internal.Correction>
0.0861

> <Gold.Rescore>
     Score         DG    S(hbond)    S(metal)    S(lipo)     H(rot)  DE(clash)    DE(int)     intcor
     12.76     -17.00       0.90        0.00     116.28       1.98       0.43       3.81       ----

> <Gold.Chemscore.Fitness>
12.7641

> <Gold.Chemscore.DG>
-16.9980

> <Gold.Chemscore.ZeroCoef>
-5.4800

> <Gold.Chemscore.Hbond>
0.8955

> <Gold.Chemscore.Metal>
0.0000

> <Gold.Chemscore.Lipo>
116.2811

> <Gold.Chemscore.Internal_Hbond>
0.0000

> <Gold.Chemscore.DEClash>
0.4281

> <Gold.Chemscore.DEInternal>
3.8057

> <Gold.Chemscore.Rot>
1.9835

> <Gold.Chemscore.Internal.Correction>
   9.000000E+99

> <Gold.Chemscore.Hbonds>
donor molecule, donor type, donor heavy atom, donor atom, acceptor molecule, acceptor atom, score
      L1  H    14    28       P1  8028  0.75

> <Gold.Chemscore.Hbond.Weighted>
-2.9909

> <Gold.Chemscore.Metal.Weighted>
-0.0000

> <Gold.Chemscore.Lipo.Weighted>
-13.6049

> <Gold.Chemscore.Internal_Hbond.Weighted>
0.0000

> <Gold.Chemscore.DEClash.Weighted>
0.4281

> <Gold.Chemscore.DEInternal.Weighted>
3.8057

> <Gold.Chemscore.Rot.Weighted>
5.0778

> <Gold.Chemscore.Internal.Correction.Weighted>
   9.000000E+99

> <Gold.Protein.RotatedTorsions>
[ 6907 6896 6895 6894 ] final  131.81 input  -60.11 | X-H torsion
[ 7974 7965 7964 7962 ] final -159.82 input  175.53 | X-H torsion
[ 8008 7997 7996 7995 ] final  -62.78 input   59.86 | X-H torsion
[ 10167 10162 10161 10158 ] final    6.80 input  -65.29 | X-H torsion
[ 10718 10713 10712 10709 ] final    6.95 input   66.30 | X-H torsion
[ 10763 10752 10751 10750 ] final  -66.85 input  -60.55 | X-H torsion
[ 11005 11000 10999 10996 ] final  -43.55 input  -57.11 | X-H torsion

> <Gold.Protein.ActiveResidues>
 VAL166  LYS551  ARG553  GLY616  TRP617  ASP618  TYR619  PRO620  LYS621  CYS622 
 ASP623  PHE694  ASN695  SER759  ASP760  ASP761  ALA762  ILE779  LEU786  VAL792 
 PHE793  MET794  SER795  GLU796  ALA797  LYS798  CYS799  TRP800  GLU811  SER814 

> <Gold.Protein.RotatedAtoms>
  152.3388  133.6043  159.5861 H   0  0  0  0  0  0  0  0  0  0  0  0  # atno 6907 bound_to 6896
  150.7466  133.9754  159.3568 H   0  0  0  0  0  0  0  0  0  0  0  0  # atno 6908 bound_to 6896
  151.7621  135.0808  160.0398 H   0  0  0  0  0  0  0  0  0  0  0  0  # atno 6909 bound_to 6896
  144.7450  140.3630  143.6092 H   0  0  0  0  0  0  0  0  0  0  0  0  # atno 7974 bound_to 7965
  154.4518  140.0989  156.6640 H   0  0  0  0  0  0  0  0  0  0  0  0  # atno 8008 bound_to 7997
  155.5261  140.3480  155.4398 H   0  0  0  0  0  0  0  0  0  0  0  0  # atno 8009 bound_to 7997
  156.0696  140.1346  156.9833 H   0  0  0  0  0  0  0  0  0  0  0  0  # atno 8010 bound_to 7997
  140.6407  143.7780  150.7424 H   0  0  0  0  0  0  0  0  0  0  0  0  # atno 10167 bound_to 10162
  156.9297  130.5821  149.5649 H   0  0  0  0  0  0  0  0  0  0  0  0  # atno 10718 bound_to 10713
  154.3658  135.6106  153.5714 H   0  0  0  0  0  0  0  0  0  0  0  0  # atno 10763 bound_to 10752
  152.9792  135.5826  154.4579 H   0  0  0  0  0  0  0  0  0  0  0  0  # atno 10764 bound_to 10752
  154.4325  135.2848  155.1880 H   0  0  0  0  0  0  0  0  0  0  0  0  # atno 10765 bound_to 10752
  141.0391  133.6787  156.2749 H   0  0  0  0  0  0  0  0  0  0  0  0  # atno 11005 bound_to 11000
  145.7157  139.1696  143.2513 LP  0  0  0  0  0  0  0  0  0  0  0  0  # atno 17320 bound_to 7965
  146.1314  140.7180  142.9410 LP  0  0  0  0  0  0  0  0  0  0  0  0  # atno 17321 bound_to 7965
  140.1411  143.4440  152.2193 LP  0  0  0  0  0  0  0  0  0  0  0  0  # atno 17342 bound_to 10162
  139.5617  144.7409  151.4137 LP  0  0  0  0  0  0  0  0  0  0  0  0  # atno 17343 bound_to 10162
  156.0453  130.5530  150.8865 LP  0  0  0  0  0  0  0  0  0  0  0  0  # atno 17370 bound_to 10713
  157.5854  131.0945  150.9204 LP  0  0  0  0  0  0  0  0  0  0  0  0  # atno 17371 bound_to 10713
  140.6267  134.5306  157.5554 LP  0  0  0  0  0  0  0  0  0  0  0  0  # atno 17394 bound_to 11000
  139.9262  134.8051  156.1061 LP  0  0  0  0  0  0  0  0  0  0  0  0  # atno 17395 bound_to 11000

$$$$
