AV-unprocessed.smi:3349|AV-procd|sdf|12932|dock8
  -GOLD-   2272019363D 1   1.00000     0.00000
 Structure written by MMmdl.
 40 41  0  0  0  0  0  0  0  0  1 V2000
  145.7952  136.9923  150.6581 C   0  0  0  0  0  0  0  0  0  0  0  0
  145.8370  136.2519  152.0193 C   0  0  1  0  0  0  0  0  0  0  0  0
  145.0146  137.0695  153.0575 C   0  0  0  0  0  0  0  0  0  0  0  0
  145.5493  138.4083  153.2915 N   0  0  0  0  0  0  0  0  0  0  0  0
  146.7599  138.6742  153.8083 C   0  0  0  0  0  0  0  0  0  0  0  0
  147.5524  137.7931  154.1444 O   0  0  0  0  0  0  0  0  0  0  0  0
  147.1254  140.1602  153.9585 C   0  0  2  0  0  0  0  0  0  0  0  0
  146.9291  140.9609  152.6549 C   0  0  0  0  0  0  0  0  0  0  0  0
  148.4768  140.3008  154.4871 N   0  0  0  0  0  0  0  0  0  0  0  0
  149.6346  139.8280  154.0205 C   0  0  0  0  0  0  0  0  0  0  0  0
  150.6909  140.1860  154.7370 N   0  0  0  0  0  0  0  0  0  0  0  0
  150.0723  140.9405  155.6933 C   0  0  0  0  0  0  0  0  0  0  0  0
  148.7484  141.0488  155.5857 N   0  0  0  0  0  0  0  0  0  0  0  0
  145.4127  134.8362  151.9144 N   0  0  0  0  0  0  0  0  0  0  0  0
  143.9986  134.7027  151.5446 C   0  0  0  0  0  0  0  0  0  0  0  0
  143.5523  133.2378  151.3981 C   0  0  0  0  0  0  0  0  0  0  0  0
  144.3691  132.5836  150.4373 O   0  0  0  0  0  0  0  0  0  0  0  0
  145.7430  132.6170  150.7968 C   0  0  0  0  0  0  0  0  0  0  0  0
  146.2072  134.0769  150.9411 C   0  0  0  0  0  0  0  0  0  0  0  0
  146.0540  138.0466  150.7488 H   0  0  0  0  0  0  0  0  0  0  0  0
  144.8027  136.9363  150.2097 H   0  0  0  0  0  0  0  0  0  0  0  0
  146.5111  136.5861  149.9450 H   0  0  0  0  0  0  0  0  0  0  0  0
  146.8755  136.2616  152.3535 H   0  0  0  0  0  0  0  0  0  0  0  0
  143.9833  137.1700  152.7181 H   0  0  0  0  0  0  0  0  0  0  0  0
  144.9710  136.5775  154.0280 H   0  0  0  0  0  0  0  0  0  0  0  0
  144.9567  139.1859  153.0400 H   0  0  0  0  0  0  0  0  0  0  0  0
  146.4458  140.5826  154.7006 H   0  0  0  0  0  0  0  0  0  0  0  0
  145.8995  140.8925  152.3022 H   0  0  0  0  0  0  0  0  0  0  0  0
  147.5772  140.6042  151.8533 H   0  0  0  0  0  0  0  0  0  0  0  0
  147.1502  142.0170  152.8113 H   0  0  0  0  0  0  0  0  0  0  0  0
  149.7067  139.2115  153.1366 H   0  0  0  0  0  0  0  0  0  0  0  0
  150.6144  141.4287  156.4898 H   0  0  0  0  0  0  0  0  0  0  0  0
  143.3599  135.1548  152.3011 H   0  0  0  0  0  0  0  0  0  0  0  0
  143.8092  135.2330  150.6100 H   0  0  0  0  0  0  0  0  0  0  0  0
  143.6122  132.7172  152.3551 H   0  0  0  0  0  0  0  0  0  0  0  0
  142.5132  133.1901  151.0724 H   0  0  0  0  0  0  0  0  0  0  0  0
  145.8973  132.0687  151.7276 H   0  0  0  0  0  0  0  0  0  0  0  0
  146.3242  132.1094  150.0268 H   0  0  0  0  0  0  0  0  0  0  0  0
  146.1677  134.5677  149.9674 H   0  0  0  0  0  0  0  0  0  0  0  0
  147.2530  134.0440  151.2382 H   0  0  0  0  0  0  0  0  0  0  0  0
  1  2  1  0  0  0  0
  1 20  1  0  0  0  0
  1 21  1  0  0  0  0
  1 22  1  0  0  0  0
  2  3  1  0  0  0  0
  2 14  1  0  0  0  0
  2 23  1  0  0  0  0
  3  4  1  0  0  0  0
  3 24  1  0  0  0  0
  3 25  1  0  0  0  0
  4  5  1  0  0  0  0
  4 26  1  0  0  0  0
  5  6  2  0  0  0  0
  5  7  1  0  0  0  0
  7  8  1  0  0  0  0
  7  9  1  0  0  0  0
  7 27  1  0  0  0  0
  8 28  1  0  0  0  0
  8 29  1  0  0  0  0
  8 30  1  0  0  0  0
  9 13  1  0  0  0  0
  9 10  1  0  0  0  0
 10 11  2  0  0  0  0
 10 31  1  0  0  0  0
 11 12  1  0  0  0  0
 12 13  2  0  0  0  0
 12 32  1  0  0  0  0
 14 19  1  0  0  0  0
 14 15  1  0  0  0  0
 15 16  1  0  0  0  0
 15 33  1  0  0  0  0
 15 34  1  0  0  0  0
 16 17  1  0  0  0  0
 16 35  1  0  0  0  0
 16 36  1  0  0  0  0
 17 18  1  0  0  0  0
 18 19  1  0  0  0  0
 18 37  1  0  0  0  0
 18 38  1  0  0  0  0
 19 39  1  0  0  0  0
 19 40  1  0  0  0  0
M  END
> <s_m_source_file>
AV-unprocessed.smi

> <i_m_source_file_index>
3349

> <i_lp_mmshare_version>
43012

> <i_f3d_flags>
0

> <s_epik_input>
W0NIMl0xW0NIMl1PW0NIMl1bQ0gyXU4xW0NASF0oW0NIM10pW0NIMl1bTkhdQyg9TylbQ0BIXShbQ0gzXSluMltjSF1uW2NIXW4y

> <s_epik_cmdline>
J2VwaWtfcHl0aG9uJywgJy1waCcsICc3LjAnLCAnLXRuJywgJzgnLCAnLW1hJywgJzIwMCcsICctbWV0YWxfYmluZGluZycsICctaW1hZScsICc8aW5maWxlLm1hZT4nLCAnLW9tYWUnLCAnPG91dGZpbGUubWFlPic=

> <r_lp_tautomer_probability>
1

> <r_epik_Ionization_Penalty>
0.211373

> <r_epik_Ionization_Penalty_Charging>
0

> <r_epik_Ionization_Penalty_Neutral>
0.211373

> <r_epik_State_Penalty>
0.201459

> <r_epik_Charging_Adjusted_Penalty>
0.201459

> <i_epik_Tot_Q>
0

> <i_epik_Tot_abs_Q>
0

> <r_epik_Metal_State_Penalty>
0.201458

> <b_epik_Metal_Only>
0

> <s_lp_Force_Field>
OPLS_2005

> <r_lp_Energy>
34.2526

> <b_lp_Chiralities_Consistent>
1

> <s_lp_Variant>
AV-unprocessed.smi:3349-2

> <Gold.Version>
5.8.1

> <Gold.Id.Protein>
6NUR|6NUR_protein|mol2

> <Gold.PLP.Fitness>
32.1036

> <Gold.PLP.PLP>
-23.9025

> <Gold.PLP.part.hbond>
-2.0000

> <Gold.PLP.part.metal>
0.0000

> <Gold.PLP.part.buried>
2.6397

> <Gold.PLP.part.nonpolar>
-24.9458

> <Gold.PLP.part.repulsive>
0.8900

> <Gold.PLP.ligand.clash>
0.0000

> <Gold.PLP.ligand.torsion>
0.2507

> <Gold.PLP.Chemscore.Hbond>
2.0000

> <Gold.PLP.Chemscore.CHOScore>
0.8525

> <Gold.PLP.Chemscore.Metal>
0.0000

> <Gold.Chemscore.Hbonds>
donor molecule, donor type, donor heavy atom, donor atom, acceptor molecule, acceptor atom, score
      L1  H     4    26       P1 10175  1.00
      P1  H  7989  7998       L1    11  0.95
      L1  C    10    31       P1  7957  0.85

> <Gold.PLP.Chemscore.Internal.Correction>
0.1450

> <Gold.Rescore>
     Score         DG    S(hbond)    S(metal)    S(lipo)     H(rot)  DE(clash)    DE(int)     intcor
      6.33     -11.06       1.59        0.00      58.19       2.56       3.11       1.62       ----

> <Gold.Chemscore.Fitness>
6.3317

> <Gold.Chemscore.DG>
-11.0617

> <Gold.Chemscore.ZeroCoef>
-5.4800

> <Gold.Chemscore.Hbond>
1.5926

> <Gold.Chemscore.Metal>
0.0000

> <Gold.Chemscore.Lipo>
58.1911

> <Gold.Chemscore.Internal_Hbond>
0.0000

> <Gold.Chemscore.DEClash>
3.1103

> <Gold.Chemscore.DEInternal>
1.6197

> <Gold.Chemscore.Rot>
2.5570

> <Gold.Chemscore.Internal.Correction>
   9.000000E+99

> <Gold.Chemscore.Hbonds>
donor molecule, donor type, donor heavy atom, donor atom, acceptor molecule, acceptor atom, score
      L1  H     4    26       P1 10175  1.00
      P1  H  7989  7998       L1    11  0.21

> <Gold.Chemscore.Hbond.Weighted>
-5.3192

> <Gold.Chemscore.Metal.Weighted>
-0.0000

> <Gold.Chemscore.Lipo.Weighted>
-6.8084

> <Gold.Chemscore.Internal_Hbond.Weighted>
0.0000

> <Gold.Chemscore.DEClash.Weighted>
3.1103

> <Gold.Chemscore.DEInternal.Weighted>
1.6197

> <Gold.Chemscore.Rot.Weighted>
6.5459

> <Gold.Chemscore.Internal.Correction.Weighted>
   9.000000E+99

> <Gold.Protein.RotatedTorsions>
[ 6907 6896 6895 6894 ] final   18.91 input  -60.11 | X-H torsion
[ 7974 7965 7964 7962 ] final   44.62 input  175.53 | X-H torsion
[ 8008 7997 7996 7995 ] final -138.35 input   59.86 | X-H torsion
[ 10167 10162 10161 10158 ] final  -28.59 input  -65.29 | X-H torsion
[ 10718 10713 10712 10709 ] final  173.40 input   66.30 | X-H torsion
[ 10763 10752 10751 10750 ] final   48.86 input  -60.55 | X-H torsion
[ 11005 11000 10999 10996 ] final   30.88 input  -57.11 | X-H torsion

> <Gold.Protein.ActiveResidues>
 VAL166  LYS551  ARG553  GLY616  TRP617  ASP618  TYR619  PRO620  LYS621  CYS622 
 ASP623  PHE694  ASN695  SER759  ASP760  ASP761  ALA762  ILE779  LEU786  VAL792 
 PHE793  MET794  SER795  GLU796  ALA797  LYS798  CYS799  TRP800  GLU811  SER814 

> <Gold.Protein.RotatedAtoms>
  151.8727  135.0483  160.0480 H   0  0  0  0  0  0  0  0  0  0  0  0  # atno 6907 bound_to 6896
  152.2575  133.5264  159.5370 H   0  0  0  0  0  0  0  0  0  0  0  0  # atno 6908 bound_to 6896
  150.7105  134.0791  159.3934 H   0  0  0  0  0  0  0  0  0  0  0  0  # atno 6909 bound_to 6896
  146.0552  139.5054  142.9693 H   0  0  0  0  0  0  0  0  0  0  0  0  # atno 7974 bound_to 7965
  155.4269  140.0522  157.3021 H   0  0  0  0  0  0  0  0  0  0  0  0  # atno 8008 bound_to 7997
  154.4877  140.2107  155.9576 H   0  0  0  0  0  0  0  0  0  0  0  0  # atno 8009 bound_to 7997
  156.1298  140.3173  155.8337 H   0  0  0  0  0  0  0  0  0  0  0  0  # atno 8010 bound_to 7997
  140.7268  143.3998  151.1285 H   0  0  0  0  0  0  0  0  0  0  0  0  # atno 10167 bound_to 10162
  156.9648  131.0072  151.2919 H   0  0  0  0  0  0  0  0  0  0  0  0  # atno 10718 bound_to 10713
  152.9789  135.5930  154.3994 H   0  0  0  0  0  0  0  0  0  0  0  0  # atno 10763 bound_to 10752
  154.3641  135.2767  155.2305 H   0  0  0  0  0  0  0  0  0  0  0  0  # atno 10764 bound_to 10752
  154.4289  135.6041  153.6111 H   0  0  0  0  0  0  0  0  0  0  0  0  # atno 10765 bound_to 10752
  140.2897  134.2878  155.7779 H   0  0  0  0  0  0  0  0  0  0  0  0  # atno 11005 bound_to 11000
  145.6656  141.0229  143.1685 LP  0  0  0  0  0  0  0  0  0  0  0  0  # atno 17320 bound_to 7965
  144.7144  139.8251  143.7404 LP  0  0  0  0  0  0  0  0  0  0  0  0  # atno 17321 bound_to 7965
  139.7616  143.8627  152.3101 LP  0  0  0  0  0  0  0  0  0  0  0  0  # atno 17342 bound_to 10162
  139.8515  144.7162  150.9208 LP  0  0  0  0  0  0  0  0  0  0  0  0  # atno 17343 bound_to 10162
  157.5633  130.8260  149.8294 LP  0  0  0  0  0  0  0  0  0  0  0  0  # atno 17370 bound_to 10713
  156.0307  130.3765  150.1696 LP  0  0  0  0  0  0  0  0  0  0  0  0  # atno 17371 bound_to 10713
  141.2148  133.7577  156.9606 LP  0  0  0  0  0  0  0  0  0  0  0  0  # atno 17394 bound_to 11000
  140.1206  134.9419  157.2198 LP  0  0  0  0  0  0  0  0  0  0  0  0  # atno 17395 bound_to 11000

$$$$
