AV-unprocessed.smi:2644|AV-procd|sdf|10277|dock2
  -GOLD-   2272014283D 1   1.00000     0.00000
 Structure written by MMmdl.
 42 44  0  0  0  0  0  0  0  0  1 V2000
  155.1364  140.5333  167.6335 C   0  0  0  0  0  0  0  0  0  0  0  0
  156.2223  139.6203  167.5673 O   0  0  0  0  0  0  0  0  0  0  0  0
  156.2649  138.7417  166.5062 C   0  0  0  0  0  0  0  0  0  0  0  0
  157.3505  137.8440  166.4589 C   0  0  0  0  0  0  0  0  0  0  0  0
  157.4814  136.9287  165.3980 C   0  0  0  0  0  0  0  0  0  0  0  0
  156.5242  136.9029  164.3677 C   0  0  0  0  0  0  0  0  0  0  0  0
  155.4259  137.7882  164.4002 C   0  0  0  0  0  0  0  0  0  0  0  0
  154.4155  137.8159  163.2591 C   0  0  2  0  0  0  0  0  0  0  0  0
  153.7368  136.5856  163.1068 O   0  0  0  0  0  0  0  0  0  0  0  0
  155.0616  138.1929  161.9046 C   0  0  0  0  0  0  0  0  0  0  0  0
  154.0636  138.4255  160.8515 N   0  0  0  0  0  0  0  0  0  0  0  0
  153.7646  139.7602  160.6400 N   0  0  0  0  0  0  0  0  0  0  0  0
  152.8350  140.1164  159.8156 C   0  0  0  0  0  0  0  0  0  0  0  0
  152.5632  141.5395  159.7234 C   0  0  0  0  0  0  0  0  0  0  0  0
  153.0575  142.4238  160.6497 C   0  0  0  0  0  0  0  0  0  0  0  0
  152.6783  143.7674  160.3533 C   0  0  0  0  0  0  0  0  0  0  0  0
  151.9147  143.8832  159.2170 C   0  0  0  0  0  0  0  0  0  0  0  0
  151.3527  145.1286  158.6201 C   0  0  0  0  0  0  0  0  0  0  0  0
  151.6387  142.3284  158.4715 S   0  0  0  0  0  0  0  0  0  0  0  0
  152.1259  139.0966  159.0562 C   0  0  0  0  0  0  0  0  0  0  0  0
  152.4317  137.7965  159.2567 C   0  0  0  0  0  0  0  0  0  0  0  0
  153.4521  137.3832  160.2177 C   0  0  0  0  0  0  0  0  0  0  0  0
  153.7241  136.2055  160.4493 O   0  0  0  0  0  0  0  0  0  0  0  0
  155.2972  138.6984  165.4716 C   0  0  0  0  0  0  0  0  0  0  0  0
  155.2641  141.1826  168.4995 H   0  0  0  0  0  0  0  0  0  0  0  0
  154.1848  140.0129  167.7495 H   0  0  0  0  0  0  0  0  0  0  0  0
  155.0960  141.1695  166.7480 H   0  0  0  0  0  0  0  0  0  0  0  0
  158.0960  137.8631  167.2403 H   0  0  0  0  0  0  0  0  0  0  0  0
  158.3232  136.2528  165.3698 H   0  0  0  0  0  0  0  0  0  0  0  0
  156.6439  136.2117  163.5464 H   0  0  0  0  0  0  0  0  0  0  0  0
  153.6522  138.5566  163.5006 H   0  0  0  0  0  0  0  0  0  0  0  0
  152.8889  136.6598  163.5176 H   0  0  0  0  0  0  0  0  0  0  0  0
  155.6645  139.0945  162.0300 H   0  0  0  0  0  0  0  0  0  0  0  0
  155.7659  137.4189  161.5939 H   0  0  0  0  0  0  0  0  0  0  0  0
  153.6603  142.1893  161.5136 H   0  0  0  0  0  0  0  0  0  0  0  0
  152.9771  144.5961  160.9783 H   0  0  0  0  0  0  0  0  0  0  0  0
  151.5393  145.9907  159.2609 H   0  0  0  0  0  0  0  0  0  0  0  0
  150.2750  145.0397  158.4821 H   0  0  0  0  0  0  0  0  0  0  0  0
  151.8031  145.3279  157.6475 H   0  0  0  0  0  0  0  0  0  0  0  0
  151.3631  139.3609  158.3410 H   0  0  0  0  0  0  0  0  0  0  0  0
  151.9055  137.0389  158.6948 H   0  0  0  0  0  0  0  0  0  0  0  0
  154.4573  139.3763  165.4655 H   0  0  0  0  0  0  0  0  0  0  0  0
  1  2  1  0  0  0  0
  1 25  1  0  0  0  0
  1 26  1  0  0  0  0
  1 27  1  0  0  0  0
  2  3  1  0  0  0  0
  3 24  1  0  0  0  0
  3  4  2  0  0  0  0
  4  5  1  0  0  0  0
  4 28  1  0  0  0  0
  5  6  2  0  0  0  0
  5 29  1  0  0  0  0
  6  7  1  0  0  0  0
  6 30  1  0  0  0  0
  7  8  1  0  0  0  0
  7 24  2  0  0  0  0
  8  9  1  0  0  0  0
  8 10  1  0  0  0  0
  8 31  1  0  0  0  0
  9 32  1  0  0  0  0
 10 11  1  0  0  0  0
 10 33  1  0  0  0  0
 10 34  1  0  0  0  0
 11 22  1  0  0  0  0
 11 12  1  0  0  0  0
 12 13  2  0  0  0  0
 13 14  1  0  0  0  0
 13 20  1  0  0  0  0
 14 19  1  0  0  0  0
 14 15  2  0  0  0  0
 15 16  1  0  0  0  0
 15 35  1  0  0  0  0
 16 17  2  0  0  0  0
 16 36  1  0  0  0  0
 17 18  1  0  0  0  0
 17 19  1  0  0  0  0
 18 37  1  0  0  0  0
 18 38  1  0  0  0  0
 18 39  1  0  0  0  0
 20 21  2  0  0  0  0
 20 40  1  0  0  0  0
 21 22  1  0  0  0  0
 21 41  1  0  0  0  0
 22 23  2  0  0  0  0
 24 42  1  0  0  0  0
M  END
> <s_m_source_file>
AV-unprocessed.smi

> <i_m_source_file_index>
2644

> <i_lp_mmshare_version>
43012

> <i_f3d_flags>
0

> <s_epik_input>
W0NIM11PYzFbY0hdW2NIXVtjSF1jKFtjSF0xKVtDQEhdKFtPSF0pW0NIMl1uMm5jKFtjSF1bY0hdYzI9TyktYzNbY0hdW2NIXWMoczMpW0NIM10=

> <s_epik_cmdline>
J2VwaWtfcHl0aG9uJywgJy1waCcsICc3LjAnLCAnLXRuJywgJzgnLCAnLW1hJywgJzIwMCcsICctbWV0YWxfYmluZGluZycsICctaW1hZScsICc8aW5maWxlLm1hZT4nLCAnLW9tYWUnLCAnPG91dGZpbGUubWFlPic=

> <r_lp_tautomer_probability>
1

> <r_epik_Ionization_Penalty>
1.30631e-07

> <r_epik_Ionization_Penalty_Charging>
5.89185e-08

> <r_epik_Ionization_Penalty_Neutral>
7.1713e-08

> <r_epik_State_Penalty>
-0

> <r_epik_Charging_Adjusted_Penalty>
5.89185e-08

> <i_epik_Tot_Q>
0

> <i_epik_Tot_abs_Q>
0

> <r_epik_Metal_State_Penalty>
-0

> <b_epik_Metal_Only>
0

> <s_lp_Force_Field>
OPLS_2005

> <r_lp_Energy>
28.4714

> <b_lp_Chiralities_Consistent>
1

> <s_lp_Variant>
AV-unprocessed.smi:2644-1

> <Gold.Version>
5.8.1

> <Gold.Id.Protein>
6NUR|6NUR_protein|mol2

> <Gold.PLP.Fitness>
45.3661

> <Gold.PLP.PLP>
-43.0535

> <Gold.PLP.part.hbond>
-1.7135

> <Gold.PLP.part.metal>
0.0000

> <Gold.PLP.part.buried>
-7.1859

> <Gold.PLP.part.nonpolar>
-34.5621

> <Gold.PLP.part.repulsive>
0.0597

> <Gold.PLP.ligand.clash>
0.0000

> <Gold.PLP.ligand.torsion>
0.4007

> <Gold.PLP.Chemscore.Hbond>
1.0000

> <Gold.PLP.Chemscore.CHOScore>
0.0000

> <Gold.PLP.Chemscore.Metal>
0.0000

> <Gold.Chemscore.Hbonds>
donor molecule, donor type, donor heavy atom, donor atom, acceptor molecule, acceptor atom, score
      P1  H  6896  6908       L1    23  1.00

> <Gold.PLP.Chemscore.Internal.Correction>
0.1139

> <Gold.Rescore>
     Score         DG    S(hbond)    S(metal)    S(lipo)     H(rot)  DE(clash)    DE(int)     intcor
     16.30     -18.45       0.99        0.00     125.90       1.98       0.14       2.00       ----

> <Gold.Chemscore.Fitness>
16.2971

> <Gold.Chemscore.DG>
-18.4454

> <Gold.Chemscore.ZeroCoef>
-5.4800

> <Gold.Chemscore.Hbond>
0.9873

> <Gold.Chemscore.Metal>
0.0000

> <Gold.Chemscore.Lipo>
125.9035

> <Gold.Chemscore.Internal_Hbond>
0.0000

> <Gold.Chemscore.DEClash>
0.1440

> <Gold.Chemscore.DEInternal>
2.0043

> <Gold.Chemscore.Rot>
1.9777

> <Gold.Chemscore.Internal.Correction>
   9.000000E+99

> <Gold.Chemscore.Hbonds>
donor molecule, donor type, donor heavy atom, donor atom, acceptor molecule, acceptor atom, score
      P1  H  6896  6908       L1    23  0.94

> <Gold.Chemscore.Hbond.Weighted>
-3.2976

> <Gold.Chemscore.Metal.Weighted>
-0.0000

> <Gold.Chemscore.Lipo.Weighted>
-14.7307

> <Gold.Chemscore.Internal_Hbond.Weighted>
0.0000

> <Gold.Chemscore.DEClash.Weighted>
0.1440

> <Gold.Chemscore.DEInternal.Weighted>
2.0043

> <Gold.Chemscore.Rot.Weighted>
5.0629

> <Gold.Chemscore.Internal.Correction.Weighted>
   9.000000E+99

> <Gold.Protein.RotatedTorsions>
[ 6907 6896 6895 6894 ] final  -64.75 input  -60.11 | X-H torsion
[ 7974 7965 7964 7962 ] final -115.20 input  175.53 | X-H torsion
[ 8008 7997 7996 7995 ] final   99.09 input   59.86 | X-H torsion
[ 10167 10162 10161 10158 ] final   13.24 input  -65.29 | X-H torsion
[ 10718 10713 10712 10709 ] final  -93.71 input   66.30 | X-H torsion
[ 10763 10752 10751 10750 ] final  -80.39 input  -60.55 | X-H torsion
[ 11005 11000 10999 10996 ] final  131.01 input  -57.11 | X-H torsion

> <Gold.Protein.ActiveResidues>
 VAL166  LYS551  ARG553  GLY616  TRP617  ASP618  TYR619  PRO620  LYS621  CYS622 
 ASP623  PHE694  ASN695  SER759  ASP760  ASP761  ALA762  ILE779  LEU786  VAL792 
 PHE793  MET794  SER795  GLU796  ALA797  LYS798  CYS799  TRP800  GLU811  SER814 

> <Gold.Protein.RotatedAtoms>
  150.7566  134.6255  159.6158 H   0  0  0  0  0  0  0  0  0  0  0  0  # atno 6907 bound_to 6896
  152.3548  134.6952  160.0234 H   0  0  0  0  0  0  0  0  0  0  0  0  # atno 6908 bound_to 6896
  151.7361  133.3283  159.3389 H   0  0  0  0  0  0  0  0  0  0  0  0  # atno 6909 bound_to 6896
  145.1111  140.8612  143.3869 H   0  0  0  0  0  0  0  0  0  0  0  0  # atno 7974 bound_to 7965
  156.1070  140.3234  155.8019 H   0  0  0  0  0  0  0  0  0  0  0  0  # atno 8008 bound_to 7997
  155.4739  140.0549  157.2993 H   0  0  0  0  0  0  0  0  0  0  0  0  # atno 8009 bound_to 7997
  154.4734  140.2021  155.9952 H   0  0  0  0  0  0  0  0  0  0  0  0  # atno 8010 bound_to 7997
  140.6015  143.8594  150.6970 H   0  0  0  0  0  0  0  0  0  0  0  0  # atno 10167 bound_to 10162
  156.0017  130.5038  150.5817 H   0  0  0  0  0  0  0  0  0  0  0  0  # atno 10718 bound_to 10713
  154.5506  135.5662  153.6919 H   0  0  0  0  0  0  0  0  0  0  0  0  # atno 10763 bound_to 10752
  152.9988  135.6250  154.2379 H   0  0  0  0  0  0  0  0  0  0  0  0  # atno 10764 bound_to 10752
  154.2314  135.2866  155.2868 H   0  0  0  0  0  0  0  0  0  0  0  0  # atno 10765 bound_to 10752
  139.9705  134.9579  156.9376 H   0  0  0  0  0  0  0  0  0  0  0  0  # atno 11005 bound_to 11000
  145.0845  139.2935  143.5766 LP  0  0  0  0  0  0  0  0  0  0  0  0  # atno 17320 bound_to 7965
  146.3526  140.0363  142.8646 LP  0  0  0  0  0  0  0  0  0  0  0  0  # atno 17321 bound_to 7965
  140.2141  143.3860  152.1694 LP  0  0  0  0  0  0  0  0  0  0  0  0  # atno 17342 bound_to 10162
  139.5294  144.7142  151.5109 LP  0  0  0  0  0  0  0  0  0  0  0  0  # atno 17343 bound_to 10162
  157.3696  131.0763  151.1568 LP  0  0  0  0  0  0  0  0  0  0  0  0  # atno 17370 bound_to 10713
  157.2326  130.6532  149.5856 LP  0  0  0  0  0  0  0  0  0  0  0  0  # atno 17371 bound_to 10713
  140.5304  134.0819  155.7314 LP  0  0  0  0  0  0  0  0  0  0  0  0  # atno 17394 bound_to 11000
  141.1385  133.9180  157.2380 LP  0  0  0  0  0  0  0  0  0  0  0  0  # atno 17395 bound_to 11000

$$$$
