AV-unprocessed.smi:227|AV-procd|sdf|1735|dock10
  -GOLD-   2262020233D 1   1.00000     0.00000
 Structure written by MMmdl.
 54 58  0  0  0  0  0  0  0  0  1 V2000
  145.9952  141.9804  154.6735 O   0  0  0  0  0  0  0  0  0  0  0  0
  146.6629  141.5340  153.5120 C   0  0  0  0  0  0  0  0  0  0  0  0
  147.1081  140.0595  153.6570 C   0  0  2  0  0  0  0  0  0  0  0  0
  145.9628  139.1452  154.1730 C   0  0  0  0  0  0  0  0  0  0  0  0
  145.6512  138.0211  153.3010 N   0  0  0  0  0  0  0  0  0  0  0  0
  146.3001  137.6710  152.1393 C   0  0  0  0  0  0  0  0  0  0  0  0
  145.8275  136.6173  151.5344 N   0  0  0  0  0  0  0  0  0  0  0  0
  144.7607  136.2091  152.3267 C   0  0  0  0  0  0  0  0  0  0  0  0
  143.8130  135.1437  152.2637 C   0  0  0  0  0  0  0  0  0  0  0  0
  143.7698  134.1926  151.2886 N   0  0  0  0  0  0  0  0  0  0  0  0
  144.6980  134.2025  150.1671 C   0  0  2  0  0  0  0  0  0  0  0  0
  144.1431  133.0826  149.2699 C   0  0  0  0  0  0  0  0  0  0  0  0
  143.6196  132.0890  150.3164 C   0  0  0  0  0  0  0  0  0  0  0  0
  144.0129  132.7957  151.6266 C   0  0  1  0  0  0  0  0  0  0  0  0
  145.5457  132.7511  151.8607 C   0  0  1  0  0  0  0  0  0  0  0  0
  146.2012  131.3582  151.8287 C   0  0  0  0  0  0  0  0  0  0  0  0
  147.5121  131.4308  152.3475 O   0  0  0  0  0  0  0  0  0  0  0  0
  146.0339  133.7332  150.7783 C   0  0  0  0  0  0  0  0  0  0  0  0
  142.8707  135.0954  153.2425 N   0  0  0  0  0  0  0  0  0  0  0  0
  142.8591  136.0012  154.2232 C   0  0  0  0  0  0  0  0  0  0  0  0
  143.6833  137.0312  154.4143 N   0  0  0  0  0  0  0  0  0  0  0  0
  144.6282  137.0970  153.4342 C   0  0  0  0  0  0  0  0  0  0  0  0
  148.3921  139.9464  154.5207 C   0  0  1  0  0  0  0  0  0  0  0  0
  149.3713  138.8765  154.0668 C   0  0  0  0  0  0  0  0  0  0  0  0
  150.6569  139.2980  154.7688 C   0  0  0  0  0  0  0  0  0  0  0  0
  150.6102  140.7185  154.8285 O   0  0  0  0  0  0  0  0  0  0  0  0
  149.3069  141.1762  154.4825 C   0  0  0  0  0  0  0  0  0  0  0  0
  145.5303  142.7766  154.4635 H   0  0  0  0  0  0  0  0  0  0  0  0
  145.9639  141.6492  152.6843 H   0  0  0  0  0  0  0  0  0  0  0  0
  147.5090  142.1885  153.3021 H   0  0  0  0  0  0  0  0  0  0  0  0
  147.3652  139.7059  152.6573 H   0  0  0  0  0  0  0  0  0  0  0  0
  146.2128  138.7514  155.1586 H   0  0  0  0  0  0  0  0  0  0  0  0
  145.0511  139.7240  154.3202 H   0  0  0  0  0  0  0  0  0  0  0  0
  147.1432  138.2206  151.7490 H   0  0  0  0  0  0  0  0  0  0  0  0
  144.7751  135.1416  149.6226 H   0  0  0  0  0  0  0  0  0  0  0  0
  143.3260  133.4482  148.6468 H   0  0  0  0  0  0  0  0  0  0  0  0
  144.9021  132.6509  148.6164 H   0  0  0  0  0  0  0  0  0  0  0  0
  142.5344  132.0041  150.2435 H   0  0  0  0  0  0  0  0  0  0  0  0
  144.0327  131.0871  150.2090 H   0  0  0  0  0  0  0  0  0  0  0  0
  143.4399  132.4260  152.4779 H   0  0  0  0  0  0  0  0  0  0  0  0
  145.7427  133.1882  152.8415 H   0  0  0  0  0  0  0  0  0  0  0  0
  145.6276  130.6553  152.4330 H   0  0  0  0  0  0  0  0  0  0  0  0
  146.2510  130.9578  150.8164 H   0  0  0  0  0  0  0  0  0  0  0  0
  148.1232  131.3294  151.6339 H   0  0  0  0  0  0  0  0  0  0  0  0
  146.6898  133.2738  150.0377 H   0  0  0  0  0  0  0  0  0  0  0  0
  146.5735  134.5654  151.2320 H   0  0  0  0  0  0  0  0  0  0  0  0
  142.0780  135.8831  154.9597 H   0  0  0  0  0  0  0  0  0  0  0  0
  148.1229  139.7592  155.5612 H   0  0  0  0  0  0  0  0  0  0  0  0
  149.0704  137.8633  154.3303 H   0  0  0  0  0  0  0  0  0  0  0  0
  149.5069  138.9182  152.9850 H   0  0  0  0  0  0  0  0  0  0  0  0
  150.6793  138.9084  155.7874 H   0  0  0  0  0  0  0  0  0  0  0  0
  151.5502  138.9481  154.2510 H   0  0  0  0  0  0  0  0  0  0  0  0
  149.3489  141.5961  153.4764 H   0  0  0  0  0  0  0  0  0  0  0  0
  148.9801  141.9625  155.1634 H   0  0  0  0  0  0  0  0  0  0  0  0
  1  2  1  0  0  0  0
  1 28  1  0  0  0  0
  2  3  1  0  0  0  0
  2 29  1  0  0  0  0
  2 30  1  0  0  0  0
  3  4  1  0  0  0  0
  3 23  1  0  0  0  0
  3 31  1  0  0  0  0
  4  5  1  0  0  0  0
  4 32  1  0  0  0  0
  4 33  1  0  0  0  0
  5 22  1  0  0  0  0
  5  6  1  0  0  0  0
  6  7  2  0  0  0  0
  6 34  1  0  0  0  0
  7  8  1  0  0  0  0
  8 22  2  0  0  0  0
  8  9  1  0  0  0  0
  9 10  1  0  0  0  0
  9 19  2  0  0  0  0
 10 14  1  0  0  0  0
 10 11  1  0  0  0  0
 11 18  1  0  0  0  0
 11 12  1  0  0  0  0
 11 35  1  0  0  0  0
 12 13  1  0  0  0  0
 12 36  1  0  0  0  0
 12 37  1  0  0  0  0
 13 14  1  0  0  0  0
 13 38  1  0  0  0  0
 13 39  1  0  0  0  0
 14 15  1  0  0  0  0
 14 40  1  0  0  0  0
 15 16  1  0  0  0  0
 15 18  1  0  0  0  0
 15 41  1  0  0  0  0
 16 17  1  0  0  0  0
 16 42  1  0  0  0  0
 16 43  1  0  0  0  0
 17 44  1  0  0  0  0
 18 45  1  0  0  0  0
 18 46  1  0  0  0  0
 19 20  1  0  0  0  0
 20 21  2  0  0  0  0
 20 47  1  0  0  0  0
 21 22  1  0  0  0  0
 23 27  1  0  0  0  0
 23 24  1  0  0  0  0
 23 48  1  0  0  0  0
 24 25  1  0  0  0  0
 24 49  1  0  0  0  0
 24 50  1  0  0  0  0
 25 26  1  0  0  0  0
 25 51  1  0  0  0  0
 25 52  1  0  0  0  0
 26 27  1  0  0  0  0
 27 53  1  0  0  0  0
 27 54  1  0  0  0  0
M  END
> <s_m_source_file>
AV-unprocessed.smi

> <i_m_source_file_index>
227

> <i_lp_mmshare_version>
43012

> <i_f3d_flags>
0

> <s_epik_input>
W0NIMl0xT1tDSDJdW0NIMl1bQ0BIXTFbQ0BIXShbQ0gyXVtPSF0pW0NIMl1uKFtjSF1uMiljKGMyMyluW2NIXW5jM04oW0NASF00NSlbQ0BASF0oW0NIMl1bQ0gyXTQpW0NASF0oW0NIMl01KVtDSDJdW09IXQ==

> <s_epik_cmdline>
J2VwaWtfcHl0aG9uJywgJy1waCcsICc3LjAnLCAnLXRuJywgJzgnLCAnLW1hJywgJzIwMCcsICctbWV0YWxfYmluZGluZycsICctaW1hZScsICc8aW5maWxlLm1hZT4nLCAnLW9tYWUnLCAnPG91dGZpbGUubWFlPic=

> <r_lp_tautomer_probability>
1

> <r_epik_Ionization_Penalty>
0.0055791

> <r_epik_Ionization_Penalty_Charging>
0

> <r_epik_Ionization_Penalty_Neutral>
0.0055791

> <r_epik_State_Penalty>
0.00401299

> <r_epik_Charging_Adjusted_Penalty>
0.00401299

> <i_epik_Tot_Q>
0

> <i_epik_Tot_abs_Q>
0

> <r_epik_Metal_State_Penalty>
-0

> <b_epik_Metal_Only>
0

> <s_lp_Force_Field>
OPLS_2005

> <r_lp_Energy>
86.8427

> <b_lp_Chiralities_Consistent>
1

> <s_lp_Variant>
AV-unprocessed.smi:227-9

> <Gold.Version>
5.8.1

> <Gold.Id.Protein>
6NUR|6NUR_protein|mol2

> <Gold.PLP.Fitness>
45.2080

> <Gold.PLP.PLP>
-41.3714

> <Gold.PLP.part.hbond>
-2.0000

> <Gold.PLP.part.metal>
0.0000

> <Gold.PLP.part.buried>
-2.0533

> <Gold.PLP.part.nonpolar>
-37.4638

> <Gold.PLP.part.repulsive>
1.1076

> <Gold.PLP.ligand.clash>
0.0000

> <Gold.PLP.ligand.torsion>
1.7749

> <Gold.PLP.Chemscore.Hbond>
2.0000

> <Gold.PLP.Chemscore.CHOScore>
0.4089

> <Gold.PLP.Chemscore.Metal>
0.0000

> <Gold.Chemscore.Hbonds>
donor molecule, donor type, donor heavy atom, donor atom, acceptor molecule, acceptor atom, score
      L1  H    17    44       P1 10747  1.00
      P1  H  7989  7998       L1    26  0.58
      L1  C     6    34       P1  7948  0.25

> <Gold.PLP.Chemscore.Internal.Correction>
0.1599

> <Gold.Rescore>
     Score         DG    S(hbond)    S(metal)    S(lipo)     H(rot)  DE(clash)    DE(int)     intcor
      7.30     -11.82       1.07        0.00     102.57       3.61       0.42       4.10       ----

> <Gold.Chemscore.Fitness>
7.3023

> <Gold.Chemscore.DG>
-11.8226

> <Gold.Chemscore.ZeroCoef>
-5.4800

> <Gold.Chemscore.Hbond>
1.0708

> <Gold.Chemscore.Metal>
0.0000

> <Gold.Chemscore.Lipo>
102.5674

> <Gold.Chemscore.Internal_Hbond>
0.0000

> <Gold.Chemscore.DEClash>
0.4206

> <Gold.Chemscore.DEInternal>
4.0996

> <Gold.Chemscore.Rot>
3.6071

> <Gold.Chemscore.Internal.Correction>
   9.000000E+99

> <Gold.Chemscore.Hbonds>
donor molecule, donor type, donor heavy atom, donor atom, acceptor molecule, acceptor atom, score
      L1  H    17    44       P1 10747  1.00
      P1  H  7989  7998       L1    26  0.03

> <Gold.Chemscore.Hbond.Weighted>
-3.5764

> <Gold.Chemscore.Metal.Weighted>
-0.0000

> <Gold.Chemscore.Lipo.Weighted>
-12.0004

> <Gold.Chemscore.Internal_Hbond.Weighted>
0.0000

> <Gold.Chemscore.DEClash.Weighted>
0.4206

> <Gold.Chemscore.DEInternal.Weighted>
4.0996

> <Gold.Chemscore.Rot.Weighted>
9.2342

> <Gold.Chemscore.Internal.Correction.Weighted>
   9.000000E+99

> <Gold.Protein.RotatedTorsions>
[ 6907 6896 6895 6894 ] final  174.18 input  -60.11 | X-H torsion
[ 7974 7965 7964 7962 ] final  138.08 input  175.53 | X-H torsion
[ 8008 7997 7996 7995 ] final  141.99 input   59.86 | X-H torsion
[ 10167 10162 10161 10158 ] final   16.98 input  -65.29 | X-H torsion
[ 10718 10713 10712 10709 ] final   94.98 input   66.30 | X-H torsion
[ 10763 10752 10751 10750 ] final   28.32 input  -60.55 | X-H torsion
[ 11005 11000 10999 10996 ] final  -43.07 input  -57.11 | X-H torsion

> <Gold.Protein.ActiveResidues>
 VAL166  LYS551  ARG553  GLY616  TRP617  ASP618  TYR619  PRO620  LYS621  CYS622 
 ASP623  PHE694  ASN695  SER759  ASP760  ASP761  ALA762  ILE779  LEU786  VAL792 
 PHE793  MET794  SER795  GLU796  ALA797  LYS798  CYS799  TRP800  GLU811  SER814 

> <Gold.Protein.RotatedAtoms>
  151.7564  133.3330  159.3405 H   0  0  0  0  0  0  0  0  0  0  0  0  # atno 6907 bound_to 6896
  150.7515  134.6145  159.6113 H   0  0  0  0  0  0  0  0  0  0  0  0  # atno 6908 bound_to 6896
  152.3434  134.7105  160.0309 H   0  0  0  0  0  0  0  0  0  0  0  0  # atno 6909 bound_to 6896
  144.9406  139.4935  143.5574 H   0  0  0  0  0  0  0  0  0  0  0  0  # atno 7974 bound_to 7965
  156.2957  140.2300  156.4655 H   0  0  0  0  0  0  0  0  0  0  0  0  # atno 8008 bound_to 7997
  154.7981  140.0450  157.1273 H   0  0  0  0  0  0  0  0  0  0  0  0  # atno 8009 bound_to 7997
  154.9566  140.3049  155.5054 H   0  0  0  0  0  0  0  0  0  0  0  0  # atno 8010 bound_to 7997
  140.5759  143.9074  150.6749 H   0  0  0  0  0  0  0  0  0  0  0  0  # atno 10167 bound_to 10162
  157.6943  131.0530  150.4269 H   0  0  0  0  0  0  0  0  0  0  0  0  # atno 10718 bound_to 10713
  153.0499  135.6516  154.0719 H   0  0  0  0  0  0  0  0  0  0  0  0  # atno 10763 bound_to 10752
  154.0410  135.2903  155.3356 H   0  0  0  0  0  0  0  0  0  0  0  0  # atno 10764 bound_to 10752
  154.6781  135.5330  153.8293 H   0  0  0  0  0  0  0  0  0  0  0  0  # atno 10765 bound_to 10752
  141.0359  133.6800  156.2683 H   0  0  0  0  0  0  0  0  0  0  0  0  # atno 11005 bound_to 11000
  146.3284  139.8422  142.8888 LP  0  0  0  0  0  0  0  0  0  0  0  0  # atno 17320 bound_to 7965
  145.2997  141.0191  143.3616 LP  0  0  0  0  0  0  0  0  0  0  0  0  # atno 17321 bound_to 7965
  140.2561  143.3558  152.1363 LP  0  0  0  0  0  0  0  0  0  0  0  0  # atno 17342 bound_to 10162
  139.5142  144.6944  151.5670 LP  0  0  0  0  0  0  0  0  0  0  0  0  # atno 17343 bound_to 10162
  156.4639  130.4038  149.6559 LP  0  0  0  0  0  0  0  0  0  0  0  0  # atno 17370 bound_to 10713
  156.3664  130.7508  151.2486 LP  0  0  0  0  0  0  0  0  0  0  0  0  # atno 17371 bound_to 10713
  140.6323  134.5251  157.5561 LP  0  0  0  0  0  0  0  0  0  0  0  0  # atno 17394 bound_to 11000
  139.9240  134.8092  156.1123 LP  0  0  0  0  0  0  0  0  0  0  0  0  # atno 17395 bound_to 11000

$$$$
