AV-unprocessed.smi:2721|AV-procd|sdf|10503|dock5
  -GOLD-   2272014543D 1   1.00000     0.00000
 Structure written by MMmdl.
 29 30  0  0  0  0  0  0  0  0  2 V2000
  148.6248  141.0967  154.2776 C   0  0  0  0  0  0  0  0  0  0  0  0
  149.7700  141.0803  155.1623 N   0  0  0  0  0  0  0  0  0  0  0  0
  150.0571  141.9229  156.2143 C   0  0  0  0  0  0  0  0  0  0  0  0
  151.2452  141.5153  156.7545 C   0  0  0  0  0  0  0  0  0  0  0  0
  152.0129  142.1090  157.9066 C   0  0  2  0  0  0  0  0  0  0  0  0
  151.9985  141.2094  159.0136 O   0  0  0  0  0  0  0  0  0  0  0  0
  152.7819  141.6394  160.1218 C   0  0  0  0  0  0  0  0  0  0  0  0
  152.2147  142.9534  160.6765 C   0  0  0  0  0  0  0  0  0  0  0  0
  152.1633  144.0136  159.5727 C   0  0  0  0  0  0  0  0  0  0  0  0
  151.4103  143.4649  158.3511 C   0  0  1  0  0  0  0  0  0  0  0  0
  151.4288  144.4522  157.2549 N   0  3  0  0  0  0  0  0  0  0  0  0
  151.6079  140.3995  155.9468 C   0  0  0  0  0  0  0  0  0  0  0  0
  150.7253  140.1428  154.9964 N   0  0  0  0  0  0  0  0  0  0  0  0
  153.0530  142.2600  157.6109 H   0  0  0  0  0  0  0  0  0  0  0  0
  150.3663  143.3109  158.6289 H   0  0  0  0  0  0  0  0  0  0  0  0
  148.0628  142.0215  154.4109 H   0  0  0  0  0  0  0  0  0  0  0  0
  147.9750  140.2504  154.5022 H   0  0  0  0  0  0  0  0  0  0  0  0
  148.9545  141.0303  153.2402 H   0  0  0  0  0  0  0  0  0  0  0  0
  149.4007  142.7358  156.4891 H   0  0  0  0  0  0  0  0  0  0  0  0
  152.7575  140.8669  160.8904 H   0  0  0  0  0  0  0  0  0  0  0  0
  153.8244  141.7578  159.8226 H   0  0  0  0  0  0  0  0  0  0  0  0
  151.2118  142.7810  161.0694 H   0  0  0  0  0  0  0  0  0  0  0  0
  152.8220  143.3051  161.5110 H   0  0  0  0  0  0  0  0  0  0  0  0
  151.6823  144.9185  159.9460 H   0  0  0  0  0  0  0  0  0  0  0  0
  153.1801  144.2918  159.2907 H   0  0  0  0  0  0  0  0  0  0  0  0
  152.1629  144.2200  156.6011 H   0  0  0  0  0  0  0  0  0  0  0  0
  151.5944  145.3739  157.6332 H   0  0  0  0  0  0  0  0  0  0  0  0
  152.4857  139.7748  156.0208 H   0  0  0  0  0  0  0  0  0  0  0  0
  150.5382  144.4406  156.7782 H   0  0  0  0  0  0  0  0  0  0  0  0
  1  2  1  0  0  0  0
  1 16  1  0  0  0  0
  1 17  1  0  0  0  0
  1 18  1  0  0  0  0
  2 13  1  0  0  0  0
  2  3  1  0  0  0  0
  3  4  2  0  0  0  0
  3 19  1  0  0  0  0
  4  5  1  0  0  0  0
  4 12  1  0  0  0  0
  5 14  1  0  0  0  0
  5 10  1  0  0  0  0
  5  6  1  0  0  0  0
  6  7  1  0  0  0  0
  7  8  1  0  0  0  0
  7 20  1  0  0  0  0
  7 21  1  0  0  0  0
  8  9  1  0  0  0  0
  8 22  1  0  0  0  0
  8 23  1  0  0  0  0
  9 10  1  0  0  0  0
  9 24  1  0  0  0  0
  9 25  1  0  0  0  0
 10 15  1  0  0  0  0
 10 11  1  0  0  0  0
 11 26  1  0  0  0  0
 11 27  1  0  0  0  0
 11 29  1  0  0  0  0
 12 13  2  0  0  0  0
 12 28  1  0  0  0  0
M  CHG  1  11   1
M  END
> <s_m_source_file>
AV-unprocessed.smi

> <i_m_source_file_index>
2721

> <i_lp_mmshare_version>
43012

> <i_f3d_flags>
0

> <s_epik_input>
W0NIM11uMVtjSF1jKFtjSF1uMSlbQ0BIXTJPW0NIMl1bQ0gyXVtDSDJdW0NAQEhdMltOSDJd

> <s_epik_cmdline>
J2VwaWtfcHl0aG9uJywgJy1waCcsICc3LjAnLCAnLXRuJywgJzgnLCAnLW1hJywgJzIwMCcsICctbWV0YWxfYmluZGluZycsICctaW1hZScsICc8aW5maWxlLm1hZT4nLCAnLW9tYWUnLCAnPG91dGZpbGUubWFlPic=

> <r_lp_tautomer_probability>
1

> <r_epik_Ionization_Penalty>
0.0061467

> <r_epik_Ionization_Penalty_Charging>
0.00611941

> <r_epik_Ionization_Penalty_Neutral>
2.72888e-05

> <r_epik_State_Penalty>
0.00451057

> <r_epik_Charging_Adjusted_Penalty>
0.01063

> <i_epik_Tot_Q>
1

> <i_epik_Tot_abs_Q>
1

> <r_epik_Metal_State_Penalty>
-0

> <b_epik_Metal_Only>
0

> <s_lp_Force_Field>
OPLS_2005

> <r_lp_Energy>
11.0235

> <b_lp_Chiralities_Consistent>
1

> <s_lp_Variant>
AV-unprocessed.smi:2721-4

> <Gold.Version>
5.8.1

> <Gold.Id.Protein>
6NUR|6NUR_protein|mol2

> <Gold.PLP.Fitness>
41.4892

> <Gold.PLP.PLP>
-29.8106

> <Gold.PLP.part.hbond>
-2.0000

> <Gold.PLP.part.metal>
0.0000

> <Gold.PLP.part.buried>
-2.5919

> <Gold.PLP.part.nonpolar>
-24.6579

> <Gold.PLP.part.repulsive>
0.0981

> <Gold.PLP.ligand.clash>
0.0000

> <Gold.PLP.ligand.torsion>
0.1626

> <Gold.PLP.Chemscore.Hbond>
3.0000

> <Gold.PLP.Chemscore.CHOScore>
1.0000

> <Gold.PLP.Chemscore.Metal>
0.0000

> <Gold.Chemscore.Hbonds>
donor molecule, donor type, donor heavy atom, donor atom, acceptor molecule, acceptor atom, score
      L1  H    11    29       P1  8028  2.00
      P1  H  7989  7998       L1    13  1.00
      L1  C     3    19       P1  8028  1.00

> <Gold.PLP.Chemscore.Internal.Correction>
0.0037

> <Gold.Rescore>
     Score         DG    S(hbond)    S(metal)    S(lipo)     H(rot)  DE(clash)    DE(int)     intcor
     15.47     -16.41       1.20        0.00      80.94       1.00       0.47       0.47       ----

> <Gold.Chemscore.Fitness>
15.4702

> <Gold.Chemscore.DG>
-16.4115

> <Gold.Chemscore.ZeroCoef>
-5.4800

> <Gold.Chemscore.Hbond>
1.2041

> <Gold.Chemscore.Metal>
0.0000

> <Gold.Chemscore.Lipo>
80.9378

> <Gold.Chemscore.Internal_Hbond>
0.0000

> <Gold.Chemscore.DEClash>
0.4688

> <Gold.Chemscore.DEInternal>
0.4725

> <Gold.Chemscore.Rot>
1.0000

> <Gold.Chemscore.Internal.Correction>
   9.000000E+99

> <Gold.Chemscore.Hbonds>
donor molecule, donor type, donor heavy atom, donor atom, acceptor molecule, acceptor atom, score
      L1  H    11    29       P1  8028  0.93
      P1  H  7989  7998       L1    13  0.07

> <Gold.Chemscore.Hbond.Weighted>
-4.0218

> <Gold.Chemscore.Metal.Weighted>
-0.0000

> <Gold.Chemscore.Lipo.Weighted>
-9.4697

> <Gold.Chemscore.Internal_Hbond.Weighted>
0.0000

> <Gold.Chemscore.DEClash.Weighted>
0.4688

> <Gold.Chemscore.DEInternal.Weighted>
0.4725

> <Gold.Chemscore.Rot.Weighted>
2.5600

> <Gold.Chemscore.Internal.Correction.Weighted>
   9.000000E+99

> <Gold.Protein.RotatedTorsions>
[ 6907 6896 6895 6894 ] final  -29.42 input  -60.11 | X-H torsion
[ 7974 7965 7964 7962 ] final   62.22 input  175.53 | X-H torsion
[ 8008 7997 7996 7995 ] final  101.50 input   59.86 | X-H torsion
[ 10167 10162 10161 10158 ] final  -54.58 input  -65.29 | X-H torsion
[ 10718 10713 10712 10709 ] final  -14.73 input   66.30 | X-H torsion
[ 10763 10752 10751 10750 ] final  158.84 input  -60.55 | X-H torsion
[ 11005 11000 10999 10996 ] final   -3.31 input  -57.11 | X-H torsion

> <Gold.Protein.ActiveResidues>
 VAL166  LYS551  ARG553  GLY616  TRP617  ASP618  TYR619  PRO620  LYS621  CYS622 
 ASP623  PHE694  ASN695  SER759  ASP760  ASP761  ALA762  ILE779  LEU786  VAL792 
 PHE793  MET794  SER795  GLU796  ALA797  LYS798  CYS799  TRP800  GLU811  SER814 

> <Gold.Protein.RotatedAtoms>
  151.1194  135.0071  159.8531 H   0  0  0  0  0  0  0  0  0  0  0  0  # atno 6907 bound_to 6896
  152.5447  134.1741  159.8619 H   0  0  0  0  0  0  0  0  0  0  0  0  # atno 6908 bound_to 6896
  151.1798  133.4687  159.2627 H   0  0  0  0  0  0  0  0  0  0  0  0  # atno 6909 bound_to 6896
  145.8758  139.3409  143.0735 H   0  0  0  0  0  0  0  0  0  0  0  0  # atno 7974 bound_to 7965
  156.1305  140.3196  155.8341 H   0  0  0  0  0  0  0  0  0  0  0  0  # atno 8008 bound_to 7997
  155.4341  140.0521  157.3033 H   0  0  0  0  0  0  0  0  0  0  0  0  # atno 8009 bound_to 7997
  154.4895  140.2086  155.9592 H   0  0  0  0  0  0  0  0  0  0  0  0  # atno 8010 bound_to 7997
  140.6423  143.2514  151.4956 H   0  0  0  0  0  0  0  0  0  0  0  0  # atno 10167 bound_to 10162
  156.6117  130.4851  149.6199 H   0  0  0  0  0  0  0  0  0  0  0  0  # atno 10718 bound_to 10713
  154.2225  135.2781  155.2920 H   0  0  0  0  0  0  0  0  0  0  0  0  # atno 10763 bound_to 10752
  154.5690  135.5624  153.7081 H   0  0  0  0  0  0  0  0  0  0  0  0  # atno 10764 bound_to 10752
  153.0038  135.6316  154.2365 H   0  0  0  0  0  0  0  0  0  0  0  0  # atno 10765 bound_to 10752
  140.6680  133.9262  155.8476 H   0  0  0  0  0  0  0  0  0  0  0  0  # atno 11005 bound_to 11000
  145.9082  140.9197  143.0467 LP  0  0  0  0  0  0  0  0  0  0  0  0  # atno 17320 bound_to 7965
  144.6726  140.1125  143.7454 LP  0  0  0  0  0  0  0  0  0  0  0  0  # atno 17321 bound_to 7965
  139.5632  144.2105  152.1724 LP  0  0  0  0  0  0  0  0  0  0  0  0  # atno 17342 bound_to 10162
  140.1379  144.5228  150.6762 LP  0  0  0  0  0  0  0  0  0  0  0  0  # atno 17343 bound_to 10162
  156.2384  130.6836  151.1532 LP  0  0  0  0  0  0  0  0  0  0  0  0  # atno 17370 bound_to 10713
  157.7252  131.0654  150.5962 LP  0  0  0  0  0  0  0  0  0  0  0  0  # atno 17371 bound_to 10713
  141.0414  134.0615  157.3897 LP  0  0  0  0  0  0  0  0  0  0  0  0  # atno 17394 bound_to 11000
  139.8991  135.0157  156.7179 LP  0  0  0  0  0  0  0  0  0  0  0  0  # atno 17395 bound_to 11000

$$$$
