AV-unprocessed.smi:2032|AV-procd|sdf|8245|dock4
  -GOLD-   2272010513D 1   1.00000     0.00000
 Structure written by MMmdl.
 41 42  0  0  0  0  0  0  0  0  2 V2000
  151.2158  144.1506  160.3926 C   0  0  0  0  0  0  0  0  0  0  0  0
  152.3623  143.6963  159.4728 C   0  0  2  0  0  0  0  0  0  0  0  0
  151.8904  142.8186  158.2964 C   0  0  0  0  0  0  0  0  0  0  0  0
  151.5192  141.4540  158.6883 N   0  0  0  0  0  0  0  0  0  0  0  0
  151.0952  140.6300  157.5308 C   0  0  2  0  0  0  0  0  0  0  0  0
  149.6812  141.0048  157.0171 C   0  0  0  0  0  0  0  0  0  0  0  0
  151.1397  139.0988  157.8125 C   0  0  0  0  0  0  0  0  0  0  0  0
  149.8707  138.5534  158.2896 N   0  0  0  0  0  0  0  0  0  0  0  0
  149.7236  137.5110  159.1199 C   0  0  0  0  0  0  0  0  0  0  0  0
  150.7184  136.9320  159.5630 O   0  0  0  0  0  0  0  0  0  0  0  0
  148.4330  137.2017  159.3803 N   0  5  0  0  0  0  0  0  0  0  0  0
  148.1142  136.5279  160.4974 C   0  0  0  0  0  0  0  0  0  0  0  0
  147.7821  137.1317  161.6443 N   0  0  0  0  0  0  0  0  0  0  0  0
  147.4771  136.2392  162.6735 C   0  0  0  0  0  0  0  0  0  0  0  0
  147.5703  134.9250  162.2994 C   0  0  0  0  0  0  0  0  0  0  0  0
  148.0486  134.7683  160.6332 S   0  0  0  0  0  0  0  0  0  0  0  0
  152.6502  140.8726  159.4171 C   0  0  0  0  0  0  0  0  0  0  0  0
  153.0824  141.7208  160.6270 C   0  0  1  0  0  0  0  0  0  0  0  0
  154.3174  141.1407  161.3246 C   0  0  0  0  0  0  0  0  0  0  0  0
  153.3994  143.0404  160.1981 O   0  0  0  0  0  0  0  0  0  0  0  0
  150.4952  144.7555  159.8421 H   0  0  0  0  0  0  0  0  0  0  0  0
  151.5943  144.7561  161.2160 H   0  0  0  0  0  0  0  0  0  0  0  0
  150.6724  143.3073  160.8183 H   0  0  0  0  0  0  0  0  0  0  0  0
  152.8089  144.5993  159.0558 H   0  0  0  0  0  0  0  0  0  0  0  0
  151.0519  143.3309  157.8286 H   0  0  0  0  0  0  0  0  0  0  0  0
  152.6844  142.7744  157.5492 H   0  0  0  0  0  0  0  0  0  0  0  0
  151.7900  140.8243  156.7125 H   0  0  0  0  0  0  0  0  0  0  0  0
  149.3518  140.3655  156.1987 H   0  0  0  0  0  0  0  0  0  0  0  0
  149.6407  142.0158  156.6150 H   0  0  0  0  0  0  0  0  0  0  0  0
  148.9396  140.9261  157.8124 H   0  0  0  0  0  0  0  0  0  0  0  0
  151.4082  138.5265  156.9256 H   0  0  0  0  0  0  0  0  0  0  0  0
  151.9018  138.8825  158.5617 H   0  0  0  0  0  0  0  0  0  0  0  0
  149.0294  138.9977  157.9525 H   0  0  0  0  0  0  0  0  0  0  0  0
  147.2008  136.6282  163.6421 H   0  0  0  0  0  0  0  0  0  0  0  0
  147.3865  134.0449  162.8969 H   0  0  0  0  0  0  0  0  0  0  0  0
  152.3937  139.8887  159.8036 H   0  0  0  0  0  0  0  0  0  0  0  0
  153.4952  140.7372  158.7400 H   0  0  0  0  0  0  0  0  0  0  0  0
  152.2690  141.7599  161.3520 H   0  0  0  0  0  0  0  0  0  0  0  0
  154.1245  140.1312  161.6887 H   0  0  0  0  0  0  0  0  0  0  0  0
  154.6054  141.7525  162.1799 H   0  0  0  0  0  0  0  0  0  0  0  0
  155.1691  141.0949  160.6453 H   0  0  0  0  0  0  0  0  0  0  0  0
  1  2  1  0  0  0  0
  1 21  1  0  0  0  0
  1 22  1  0  0  0  0
  1 23  1  0  0  0  0
  2 20  1  0  0  0  0
  2  3  1  0  0  0  0
  2 24  1  0  0  0  0
  3  4  1  0  0  0  0
  3 25  1  0  0  0  0
  3 26  1  0  0  0  0
  4  5  1  0  0  0  0
  4 17  1  0  0  0  0
  5  6  1  0  0  0  0
  5  7  1  0  0  0  0
  5 27  1  0  0  0  0
  6 28  1  0  0  0  0
  6 29  1  0  0  0  0
  6 30  1  0  0  0  0
  7  8  1  0  0  0  0
  7 31  1  0  0  0  0
  7 32  1  0  0  0  0
  8  9  1  0  0  0  0
  8 33  1  0  0  0  0
  9 10  2  0  0  0  0
  9 11  1  0  0  0  0
 11 12  1  0  0  0  0
 12 16  1  0  0  0  0
 12 13  2  0  0  0  0
 13 14  1  0  0  0  0
 14 15  2  0  0  0  0
 14 34  1  0  0  0  0
 15 16  1  0  0  0  0
 15 35  1  0  0  0  0
 17 18  1  0  0  0  0
 17 36  1  0  0  0  0
 17 37  1  0  0  0  0
 18 19  1  0  0  0  0
 18 20  1  0  0  0  0
 18 38  1  0  0  0  0
 19 39  1  0  0  0  0
 19 40  1  0  0  0  0
 19 41  1  0  0  0  0
M  CHG  1  11  -1
M  END
> <s_m_source_file>
AV-unprocessed.smi

> <i_m_source_file_index>
2032

> <i_lp_mmshare_version>
43012

> <i_f3d_flags>
0

> <s_epik_input>
W0NIM11bQ0BASF0xW0NIMl1OKFtDSDJdW0NASF0oTzEpW0NIM10pW0NASF0oW0NIM10pW0NIMl1bTkhdQyg9TylbTkhdYzJuW2NIXVtjSF1zMg==

> <s_epik_cmdline>
J2VwaWtfcHl0aG9uJywgJy1waCcsICc3LjAnLCAnLXRuJywgJzgnLCAnLW1hJywgJzIwMCcsICctbWV0YWxfYmluZGluZycsICctaW1hZScsICc8aW5maWxlLm1hZT4nLCAnLW9tYWUnLCAnPG91dGZpbGUubWFlPic=

> <r_lp_tautomer_probability>
0.999

> <r_epik_Ionization_Penalty>
7.22375

> <r_epik_Ionization_Penalty_Charging>
5.82415

> <r_epik_Ionization_Penalty_Neutral>
1.39959

> <r_epik_State_Penalty>
6.03347

> <r_epik_Charging_Adjusted_Penalty>
11.8576

> <i_epik_Tot_Q>
-1

> <i_epik_Tot_abs_Q>
1

> <r_epik_Metal_State_Penalty>
2.01024

> <b_epik_Metal_Only>
1

> <s_lp_Force_Field>
OPLS_2005

> <r_lp_Energy>
26.7208

> <b_lp_Chiralities_Consistent>
1

> <s_lp_Variant>
AV-unprocessed.smi:2032-15

> <Gold.Version>
5.8.1

> <Gold.Id.Protein>
6NUR|6NUR_protein|mol2

> <Gold.PLP.Fitness>
45.4273

> <Gold.PLP.PLP>
-40.4822

> <Gold.PLP.part.hbond>
-3.0000

> <Gold.PLP.part.metal>
0.0000

> <Gold.PLP.part.buried>
-5.1129

> <Gold.PLP.part.nonpolar>
-32.0316

> <Gold.PLP.part.repulsive>
0.1390

> <Gold.PLP.ligand.clash>
0.0000

> <Gold.PLP.ligand.torsion>
1.7194

> <Gold.PLP.Chemscore.Hbond>
2.7680

> <Gold.PLP.Chemscore.CHOScore>
0.0000

> <Gold.PLP.Chemscore.Metal>
0.0000

> <Gold.Chemscore.Hbonds>
donor molecule, donor type, donor heavy atom, donor atom, acceptor molecule, acceptor atom, score
      P1  H  6896  6909       L1    10  1.00
      P1  H  6931  6943       L1    13  1.00
      P1  H  6934  6947       L1    13  0.58

> <Gold.PLP.Chemscore.Internal.Correction>
0.0799

> <Gold.Rescore>
     Score         DG    S(hbond)    S(metal)    S(lipo)     H(rot)  DE(clash)    DE(int)     intcor
     19.29     -21.05       2.38        0.00      98.98       1.54       0.00       1.76       ----

> <Gold.Chemscore.Fitness>
19.2910

> <Gold.Chemscore.DG>
-21.0543

> <Gold.Chemscore.ZeroCoef>
-5.4800

> <Gold.Chemscore.Hbond>
2.3783

> <Gold.Chemscore.Metal>
0.0000

> <Gold.Chemscore.Lipo>
98.9844

> <Gold.Chemscore.Internal_Hbond>
0.0000

> <Gold.Chemscore.DEClash>
0.0000

> <Gold.Chemscore.DEInternal>
1.7633

> <Gold.Chemscore.Rot>
1.5431

> <Gold.Chemscore.Internal.Correction>
   9.000000E+99

> <Gold.Chemscore.Hbonds>
donor molecule, donor type, donor heavy atom, donor atom, acceptor molecule, acceptor atom, score
      P1  H  6896  6909       L1    10  0.98
      P1  H  6931  6943       L1    13  0.47
      P1  H  6934  6947       L1    13  0.17

> <Gold.Chemscore.Hbond.Weighted>
-7.9434

> <Gold.Chemscore.Metal.Weighted>
-0.0000

> <Gold.Chemscore.Lipo.Weighted>
-11.5812

> <Gold.Chemscore.Internal_Hbond.Weighted>
0.0000

> <Gold.Chemscore.DEClash.Weighted>
0.0000

> <Gold.Chemscore.DEInternal.Weighted>
1.7633

> <Gold.Chemscore.Rot.Weighted>
3.9503

> <Gold.Chemscore.Internal.Correction.Weighted>
   9.000000E+99

> <Gold.Protein.RotatedTorsions>
[ 6907 6896 6895 6894 ] final   82.95 input  -60.11 | X-H torsion
[ 7974 7965 7964 7962 ] final -109.97 input  175.53 | X-H torsion
[ 8008 7997 7996 7995 ] final  -86.96 input   59.86 | X-H torsion
[ 10167 10162 10161 10158 ] final  -51.43 input  -65.29 | X-H torsion
[ 10718 10713 10712 10709 ] final   -4.17 input   66.30 | X-H torsion
[ 10763 10752 10751 10750 ] final -174.14 input  -60.55 | X-H torsion
[ 11005 11000 10999 10996 ] final   10.94 input  -57.11 | X-H torsion

> <Gold.Protein.ActiveResidues>
 VAL166  LYS551  ARG553  GLY616  TRP617  ASP618  TYR619  PRO620  LYS621  CYS622 
 ASP623  PHE694  ASN695  SER759  ASP760  ASP761  ALA762  ILE779  LEU786  VAL792 
 PHE793  MET794  SER795  GLU796  ALA797  LYS798  CYS799  TRP800  GLU811  SER814 

> <Gold.Protein.RotatedAtoms>
  152.5314  134.2971  159.9064 H   0  0  0  0  0  0  0  0  0  0  0  0  # atno 6907 bound_to 6896
  151.2922  133.4154  159.2641 H   0  0  0  0  0  0  0  0  0  0  0  0  # atno 6908 bound_to 6896
  151.0191  134.9471  159.8106 H   0  0  0  0  0  0  0  0  0  0  0  0  # atno 6909 bound_to 6896
  145.1740  140.8939  143.3519 H   0  0  0  0  0  0  0  0  0  0  0  0  # atno 7974 bound_to 7965
  154.6577  140.0572  157.0028 H   0  0  0  0  0  0  0  0  0  0  0  0  # atno 8008 bound_to 7997
  155.1275  140.3253  155.4463 H   0  0  0  0  0  0  0  0  0  0  0  0  # atno 8009 bound_to 7997
  156.2604  140.1986  156.6395 H   0  0  0  0  0  0  0  0  0  0  0  0  # atno 8010 bound_to 7997
  140.6588  143.2620  151.4503 H   0  0  0  0  0  0  0  0  0  0  0  0  # atno 10167 bound_to 10162
  156.7653  130.5282  149.5777 H   0  0  0  0  0  0  0  0  0  0  0  0  # atno 10718 bound_to 10713
  154.5997  135.2853  155.0548 H   0  0  0  0  0  0  0  0  0  0  0  0  # atno 10763 bound_to 10752
  154.1817  135.6455  153.5040 H   0  0  0  0  0  0  0  0  0  0  0  0  # atno 10764 bound_to 10752
  153.0152  135.5425  154.6712 H   0  0  0  0  0  0  0  0  0  0  0  0  # atno 10765 bound_to 10752
  140.5089  134.0672  155.7813 H   0  0  0  0  0  0  0  0  0  0  0  0  # atno 11005 bound_to 11000
  145.0204  139.3429  143.6075 LP  0  0  0  0  0  0  0  0  0  0  0  0  # atno 17320 bound_to 7965
  146.3464  139.9502  142.8730 LP  0  0  0  0  0  0  0  0  0  0  0  0  # atno 17321 bound_to 7965
  139.5817  144.1694  152.1977 LP  0  0  0  0  0  0  0  0  0  0  0  0  # atno 17342 bound_to 10162
  140.1022  144.5530  150.6981 LP  0  0  0  0  0  0  0  0  0  0  0  0  # atno 17343 bound_to 10162
  156.1313  130.6180  151.0337 LP  0  0  0  0  0  0  0  0  0  0  0  0  # atno 17370 bound_to 10713
  157.6716  131.0860  150.7598 LP  0  0  0  0  0  0  0  0  0  0  0  0  # atno 17371 bound_to 10713
  141.1396  133.9161  157.2356 LP  0  0  0  0  0  0  0  0  0  0  0  0  # atno 17394 bound_to 11000
  139.9670  135.0139  156.9414 LP  0  0  0  0  0  0  0  0  0  0  0  0  # atno 17395 bound_to 11000

$$$$
