AV-unprocessed.smi:3149|AV-procd|sdf|12003|dock5
  -GOLD-   2272017413D 1   1.00000     0.00000
 Structure written by MMmdl.
 37 38  0  0  0  0  0  0  0  0  1 V2000
  153.3186  139.5679  159.7780 C   0  0  0  0  0  0  0  0  0  0  0  0
  152.4471  140.7417  159.2901 C   0  0  2  0  0  0  0  0  0  0  0  0
  152.4923  140.7691  157.8296 N   0  0  0  0  0  0  0  0  0  0  0  0
  152.0402  139.5051  157.2326 C   0  0  0  0  0  0  0  0  0  0  0  0
  151.7950  139.6255  155.7231 C   0  0  0  0  0  0  0  0  0  0  0  0
  152.7085  139.9248  154.9527 O   0  0  0  0  0  0  0  0  0  0  0  0
  150.4792  139.4774  155.2784 N   0  0  0  0  0  0  0  0  0  0  0  0
  150.1720  138.8197  154.0172 C   0  0  0  0  0  0  0  0  0  0  0  0
  148.8557  138.4027  154.6816 C   0  0  0  0  0  0  0  0  0  0  0  0
  149.5113  138.6978  156.0349 C   0  0  0  0  0  0  0  0  0  0  0  0
  152.9280  142.1174  159.8258 C   0  0  2  0  0  0  0  0  0  0  0  0
  152.9202  142.2076  161.3625 C   0  0  0  0  0  0  0  0  0  0  0  0
  152.1276  143.2079  159.2770 N   0  0  0  0  0  0  0  0  0  0  0  0
  152.5414  144.2920  158.5282 C   0  0  0  0  0  0  0  0  0  0  0  0
  151.4352  145.0413  158.2473 C   0  0  0  0  0  0  0  0  0  0  0  0
  150.3756  144.3249  158.8703 C   0  0  0  0  0  0  0  0  0  0  0  0
  150.7923  143.2289  159.4829 N   0  0  0  0  0  0  0  0  0  0  0  0
  153.2632  139.4518  160.8598 H   0  0  0  0  0  0  0  0  0  0  0  0
  154.3659  139.7153  159.5122 H   0  0  0  0  0  0  0  0  0  0  0  0
  153.0004  138.6182  159.3481 H   0  0  0  0  0  0  0  0  0  0  0  0
  151.4206  140.5862  159.6266 H   0  0  0  0  0  0  0  0  0  0  0  0
  151.9237  141.5385  157.5033 H   0  0  0  0  0  0  0  0  0  0  0  0
  152.7806  138.7247  157.4106 H   0  0  0  0  0  0  0  0  0  0  0  0
  151.1100  139.1917  157.7082 H   0  0  0  0  0  0  0  0  0  0  0  0
  150.0602  139.5019  153.1740 H   0  0  0  0  0  0  0  0  0  0  0  0
  150.8251  137.9735  153.7940 H   0  0  0  0  0  0  0  0  0  0  0  0
  148.0237  139.0700  154.4493 H   0  0  0  0  0  0  0  0  0  0  0  0
  148.5898  137.3559  154.5316 H   0  0  0  0  0  0  0  0  0  0  0  0
  149.9364  137.8114  156.5102 H   0  0  0  0  0  0  0  0  0  0  0  0
  148.9007  139.2904  156.7169 H   0  0  0  0  0  0  0  0  0  0  0  0
  153.9595  142.2666  159.4992 H   0  0  0  0  0  0  0  0  0  0  0  0
  153.6315  141.5148  161.8105 H   0  0  0  0  0  0  0  0  0  0  0  0
  151.9334  141.9863  161.7703 H   0  0  0  0  0  0  0  0  0  0  0  0
  153.1994  143.2079  161.6951 H   0  0  0  0  0  0  0  0  0  0  0  0
  153.5778  144.4395  158.2627 H   0  0  0  0  0  0  0  0  0  0  0  0
  151.3897  145.9605  157.6825 H   0  0  0  0  0  0  0  0  0  0  0  0
  149.3232  144.5665  158.8948 H   0  0  0  0  0  0  0  0  0  0  0  0
  1  2  1  0  0  0  0
  1 18  1  0  0  0  0
  1 19  1  0  0  0  0
  1 20  1  0  0  0  0
  2  3  1  0  0  0  0
  2 11  1  0  0  0  0
  2 21  1  0  0  0  0
  3  4  1  0  0  0  0
  3 22  1  0  0  0  0
  4  5  1  0  0  0  0
  4 23  1  0  0  0  0
  4 24  1  0  0  0  0
  5  6  2  0  0  0  0
  5  7  1  0  0  0  0
  7 10  1  0  0  0  0
  7  8  1  0  0  0  0
  8  9  1  0  0  0  0
  8 25  1  0  0  0  0
  8 26  1  0  0  0  0
  9 10  1  0  0  0  0
  9 27  1  0  0  0  0
  9 28  1  0  0  0  0
 10 29  1  0  0  0  0
 10 30  1  0  0  0  0
 11 12  1  0  0  0  0
 11 13  1  0  0  0  0
 11 31  1  0  0  0  0
 12 32  1  0  0  0  0
 12 33  1  0  0  0  0
 12 34  1  0  0  0  0
 13 17  1  0  0  0  0
 13 14  1  0  0  0  0
 14 15  2  0  0  0  0
 14 35  1  0  0  0  0
 15 16  1  0  0  0  0
 15 36  1  0  0  0  0
 16 17  2  0  0  0  0
 16 37  1  0  0  0  0
M  END
> <s_m_source_file>
AV-unprocessed.smi

> <i_m_source_file_index>
3149

> <i_lp_mmshare_version>
43012

> <i_f3d_flags>
0

> <s_epik_input>
bjFbY0hdW2NIXVtjSF1uMVtDQEBIXShbQ0gzXSlbQ0BIXShbQ0gzXSlbTkhdW0NIMl1DKD1PKU4yW0NIMl1bQ0gyXVtDSDJdMg==

> <s_epik_cmdline>
J2VwaWtfcHl0aG9uJywgJy1waCcsICc3LjAnLCAnLXRuJywgJzgnLCAnLW1hJywgJzIwMCcsICctbWV0YWxfYmluZGluZycsICctaW1hZScsICc8aW5maWxlLm1hZT4nLCAnLW9tYWUnLCAnPG91dGZpbGUubWFlPic=

> <r_lp_tautomer_probability>
1

> <r_epik_Ionization_Penalty>
0.918674

> <r_epik_Ionization_Penalty_Charging>
0

> <r_epik_Ionization_Penalty_Neutral>
0.918674

> <r_epik_State_Penalty>
0.958258

> <r_epik_Charging_Adjusted_Penalty>
0.958258

> <i_epik_Tot_Q>
0

> <i_epik_Tot_abs_Q>
0

> <r_epik_Metal_State_Penalty>
0.956881

> <b_epik_Metal_Only>
0

> <s_lp_Force_Field>
OPLS_2005

> <r_lp_Energy>
24.7968

> <b_lp_Chiralities_Consistent>
1

> <s_lp_Variant>
AV-unprocessed.smi:3149-5

> <Gold.Version>
5.8.1

> <Gold.Id.Protein>
6NUR|6NUR_protein|mol2

> <Gold.PLP.Fitness>
45.2208

> <Gold.PLP.PLP>
-38.0374

> <Gold.PLP.part.hbond>
-2.8881

> <Gold.PLP.part.metal>
0.0000

> <Gold.PLP.part.buried>
-2.1070

> <Gold.PLP.part.nonpolar>
-32.1523

> <Gold.PLP.part.repulsive>
0.0676

> <Gold.PLP.ligand.clash>
0.0000

> <Gold.PLP.ligand.torsion>
0.5260

> <Gold.PLP.Chemscore.Hbond>
1.4594

> <Gold.PLP.Chemscore.CHOScore>
0.9892

> <Gold.PLP.Chemscore.Metal>
0.0000

> <Gold.Chemscore.Hbonds>
donor molecule, donor type, donor heavy atom, donor atom, acceptor molecule, acceptor atom, score
      P1  H  7989  7998       L1     6  0.48
      P1  H  7997  8009       L1     6  1.00
      L1  C    16    37       P1  8029  0.93

> <Gold.PLP.Chemscore.Internal.Correction>
0.8897

> <Gold.Rescore>
     Score         DG    S(hbond)    S(metal)    S(lipo)     H(rot)  DE(clash)    DE(int)     intcor
     14.65     -15.16       1.19        0.00      87.91       1.79       0.00       0.50       ----

> <Gold.Chemscore.Fitness>
14.6533

> <Gold.Chemscore.DG>
-15.1559

> <Gold.Chemscore.ZeroCoef>
-5.4800

> <Gold.Chemscore.Hbond>
1.1873

> <Gold.Chemscore.Metal>
0.0000

> <Gold.Chemscore.Lipo>
87.9148

> <Gold.Chemscore.Internal_Hbond>
0.0000

> <Gold.Chemscore.DEClash>
0.0000

> <Gold.Chemscore.DEInternal>
0.5025

> <Gold.Chemscore.Rot>
1.7874

> <Gold.Chemscore.Internal.Correction>
   9.000000E+99

> <Gold.Chemscore.Hbonds>
donor molecule, donor type, donor heavy atom, donor atom, acceptor molecule, acceptor atom, score
      P1  H  7989  7998       L1     6  0.14
      P1  H  7997  8009       L1     6  0.67

> <Gold.Chemscore.Hbond.Weighted>
-3.9657

> <Gold.Chemscore.Metal.Weighted>
-0.0000

> <Gold.Chemscore.Lipo.Weighted>
-10.2860

> <Gold.Chemscore.Internal_Hbond.Weighted>
0.0000

> <Gold.Chemscore.DEClash.Weighted>
0.0000

> <Gold.Chemscore.DEInternal.Weighted>
0.5025

> <Gold.Chemscore.Rot.Weighted>
4.5758

> <Gold.Chemscore.Internal.Correction.Weighted>
   9.000000E+99

> <Gold.Protein.RotatedTorsions>
[ 6907 6896 6895 6894 ] final  -37.99 input  -60.11 | X-H torsion
[ 7974 7965 7964 7962 ] final  -23.11 input  175.53 | X-H torsion
[ 8008 7997 7996 7995 ] final -144.30 input   59.86 | X-H torsion
[ 10167 10162 10161 10158 ] final -101.58 input  -65.29 | X-H torsion
[ 10718 10713 10712 10709 ] final  -63.99 input   66.30 | X-H torsion
[ 10763 10752 10751 10750 ] final  173.12 input  -60.55 | X-H torsion
[ 11005 11000 10999 10996 ] final -134.25 input  -57.11 | X-H torsion

> <Gold.Protein.ActiveResidues>
 VAL166  LYS551  ARG553  GLY616  TRP617  ASP618  TYR619  PRO620  LYS621  CYS622 
 ASP623  PHE694  ASN695  SER759  ASP760  ASP761  ALA762  ILE779  LEU786  VAL792 
 PHE793  MET794  SER795  GLU796  ALA797  LYS798  CYS799  TRP800  GLU811  SER814 

> <Gold.Protein.RotatedAtoms>
  151.0079  134.9374  159.7990 H   0  0  0  0  0  0  0  0  0  0  0  0  # atno 6907 bound_to 6896
  152.5295  134.3067  159.9108 H   0  0  0  0  0  0  0  0  0  0  0  0  # atno 6908 bound_to 6896
  151.3073  133.4054  159.2678 H   0  0  0  0  0  0  0  0  0  0  0  0  # atno 6909 bound_to 6896
  146.1636  140.4571  142.8561 H   0  0  0  0  0  0  0  0  0  0  0  0  # atno 7974 bound_to 7965
  155.5246  140.0594  157.2900 H   0  0  0  0  0  0  0  0  0  0  0  0  # atno 8008 bound_to 7997
  154.4505  140.1946  156.0478 H   0  0  0  0  0  0  0  0  0  0  0  0  # atno 8009 bound_to 7997
  156.0695  140.3262  155.7562 H   0  0  0  0  0  0  0  0  0  0  0  0  # atno 8010 bound_to 7997
  140.2398  143.3547  152.0812 H   0  0  0  0  0  0  0  0  0  0  0  0  # atno 10167 bound_to 10162
  156.0756  130.4227  150.1356 H   0  0  0  0  0  0  0  0  0  0  0  0  # atno 10718 bound_to 10713
  154.4356  135.2761  155.1883 H   0  0  0  0  0  0  0  0  0  0  0  0  # atno 10763 bound_to 10752
  154.3770  135.6096  153.5774 H   0  0  0  0  0  0  0  0  0  0  0  0  # atno 10764 bound_to 10752
  152.9838  135.5871  154.4675 H   0  0  0  0  0  0  0  0  0  0  0  0  # atno 10765 bound_to 10752
  140.9007  134.1694  157.4462 H   0  0  0  0  0  0  0  0  0  0  0  0  # atno 11005 bound_to 11000
  144.8060  140.6301  143.6446 LP  0  0  0  0  0  0  0  0  0  0  0  0  # atno 17320 bound_to 7965
  145.4526  139.1522  143.3910 LP  0  0  0  0  0  0  0  0  0  0  0  0  # atno 17321 bound_to 7965
  139.5081  144.6844  151.5925 LP  0  0  0  0  0  0  0  0  0  0  0  0  # atno 17342 bound_to 10162
  140.6122  143.9414  150.6462 LP  0  0  0  0  0  0  0  0  0  0  0  0  # atno 17343 bound_to 10162
  156.9398  130.9740  151.3518 LP  0  0  0  0  0  0  0  0  0  0  0  0  # atno 17370 bound_to 10713
  157.5850  130.8403  149.8577 LP  0  0  0  0  0  0  0  0  0  0  0  0  # atno 17371 bound_to 10713
  139.8742  134.9897  156.5468 LP  0  0  0  0  0  0  0  0  0  0  0  0  # atno 17394 bound_to 11000
  140.8233  133.8336  155.8916 LP  0  0  0  0  0  0  0  0  0  0  0  0  # atno 17395 bound_to 11000

$$$$
