AV-unprocessed.smi:1001|AV-procd|sdf|4357|dock1
  -GOLD-   22720 2253D 1   1.00000     0.00000
 Structure written by MMmdl.
 47 48  0  0  0  0  0  0  0  0  1 V2000
  149.9499  142.2920  155.8459 N   0  0  0  0  0  0  0  0  0  0  0  0
  149.1559  141.2351  156.0575 C   0  0  0  0  0  0  0  0  0  0  0  0
  148.0199  141.3611  156.5131 O   0  0  0  0  0  0  0  0  0  0  0  0
  149.7325  139.9070  155.7089 C   0  0  0  0  0  0  0  0  0  0  0  0
  151.0015  139.8956  155.0011 C   0  0  0  0  0  0  0  0  0  0  0  0
  151.5422  138.7022  154.6718 C   0  0  0  0  0  0  0  0  0  0  0  0
  150.8884  137.4365  155.0082 C   0  0  0  0  0  0  0  0  0  0  0  0
  151.3592  136.3371  154.7174 O   0  0  0  0  0  0  0  0  0  0  0  0
  149.7042  137.5844  155.6776 N   0  0  0  0  0  0  0  0  0  0  0  0
  148.9249  136.4149  156.1091 C   0  0  0  0  0  0  0  0  0  0  0  0
  149.0246  136.1482  157.6182 C   0  0  0  0  0  0  0  0  0  0  0  0
  150.1045  136.2447  158.2031 O   0  0  0  0  0  0  0  0  0  0  0  0
  147.8797  135.8259  158.2389 N   0  0  0  0  0  0  0  0  0  0  0  0
  147.7594  135.5068  159.6567 C   0  0  0  0  0  0  0  0  0  0  0  0
  147.9546  136.7572  160.5300 C   0  0  0  0  0  0  0  0  0  0  0  0
  147.8900  136.4424  162.0340 C   0  0  0  0  0  0  0  0  0  0  0  0
  146.5784  135.7598  162.4750 C   0  0  0  0  0  0  0  0  0  0  0  0
  146.5329  134.2621  162.0984 C   0  0  0  0  0  0  0  0  0  0  0  0
  145.2139  133.6045  162.5362 C   0  0  0  0  0  0  0  0  0  0  0  0
  144.0004  134.3426  161.9525 C   0  0  0  0  0  0  0  0  0  0  0  0
  144.0329  135.8333  162.3210 C   0  0  0  0  0  0  0  0  0  0  0  0
  145.3535  136.4874  161.8829 C   0  0  0  0  0  0  0  0  0  0  0  0
  149.1351  138.8014  156.0174 N   0  0  0  0  0  0  0  0  0  0  0  0
  149.6172  143.2210  156.0594 H   0  0  0  0  0  0  0  0  0  0  0  0
  150.8778  142.1560  155.4712 H   0  0  0  0  0  0  0  0  0  0  0  0
  151.5065  140.8147  154.7414 H   0  0  0  0  0  0  0  0  0  0  0  0
  152.4853  138.6789  154.1463 H   0  0  0  0  0  0  0  0  0  0  0  0
  147.8711  136.5492  155.8589 H   0  0  0  0  0  0  0  0  0  0  0  0
  149.2466  135.5304  155.5557 H   0  0  0  0  0  0  0  0  0  0  0  0
  147.0361  135.7762  157.6862 H   0  0  0  0  0  0  0  0  0  0  0  0
  146.7911  135.0449  159.8566 H   0  0  0  0  0  0  0  0  0  0  0  0
  148.5156  134.7606  159.9019 H   0  0  0  0  0  0  0  0  0  0  0  0
  148.9138  137.2126  160.2847 H   0  0  0  0  0  0  0  0  0  0  0  0
  147.1904  137.4963  160.2859 H   0  0  0  0  0  0  0  0  0  0  0  0
  148.7264  135.7867  162.2794 H   0  0  0  0  0  0  0  0  0  0  0  0
  148.0443  137.3555  162.6104 H   0  0  0  0  0  0  0  0  0  0  0  0
  146.5106  135.8382  163.5611 H   0  0  0  0  0  0  0  0  0  0  0  0
  146.6547  134.1489  161.0203 H   0  0  0  0  0  0  0  0  0  0  0  0
  147.3613  133.7253  162.5595 H   0  0  0  0  0  0  0  0  0  0  0  0
  145.1985  132.5600  162.2241 H   0  0  0  0  0  0  0  0  0  0  0  0
  145.1518  133.6021  163.6253 H   0  0  0  0  0  0  0  0  0  0  0  0
  143.9930  134.2336  160.8674 H   0  0  0  0  0  0  0  0  0  0  0  0
  143.0781  133.8885  162.3163 H   0  0  0  0  0  0  0  0  0  0  0  0
  143.1912  136.3483  161.8573 H   0  0  0  0  0  0  0  0  0  0  0  0
  143.9091  135.9464  163.3988 H   0  0  0  0  0  0  0  0  0  0  0  0
  145.3555  137.5336  162.1907 H   0  0  0  0  0  0  0  0  0  0  0  0
  145.4154  136.4868  160.7937 H   0  0  0  0  0  0  0  0  0  0  0  0
  1  2  1  0  0  0  0
  1 24  1  0  0  0  0
  1 25  1  0  0  0  0
  2  3  2  0  0  0  0
  2  4  1  0  0  0  0
  4 23  2  0  0  0  0
  4  5  1  0  0  0  0
  5  6  2  0  0  0  0
  5 26  1  0  0  0  0
  6  7  1  0  0  0  0
  6 27  1  0  0  0  0
  7  8  2  0  0  0  0
  7  9  1  0  0  0  0
  9 10  1  0  0  0  0
  9 23  1  0  0  0  0
 10 11  1  0  0  0  0
 10 28  1  0  0  0  0
 10 29  1  0  0  0  0
 11 12  2  0  0  0  0
 11 13  1  0  0  0  0
 13 14  1  0  0  0  0
 13 30  1  0  0  0  0
 14 15  1  0  0  0  0
 14 31  1  0  0  0  0
 14 32  1  0  0  0  0
 15 16  1  0  0  0  0
 15 33  1  0  0  0  0
 15 34  1  0  0  0  0
 16 17  1  0  0  0  0
 16 35  1  0  0  0  0
 16 36  1  0  0  0  0
 17 22  1  0  0  0  0
 17 18  1  0  0  0  0
 17 37  1  0  0  0  0
 18 19  1  0  0  0  0
 18 38  1  0  0  0  0
 18 39  1  0  0  0  0
 19 20  1  0  0  0  0
 19 40  1  0  0  0  0
 19 41  1  0  0  0  0
 20 21  1  0  0  0  0
 20 42  1  0  0  0  0
 20 43  1  0  0  0  0
 21 22  1  0  0  0  0
 21 44  1  0  0  0  0
 21 45  1  0  0  0  0
 22 46  1  0  0  0  0
 22 47  1  0  0  0  0
M  END
> <s_m_source_file>
AV-unprocessed.smi

> <i_m_source_file_index>
1001

> <i_lp_mmshare_version>
43012

> <i_f3d_flags>
0

> <s_epik_input>
W05IMl1DKD1PKWMxW2NIXVtjSF1jKD1PKW4objEpW0NIMl1DKD1PKVtOSF1bQ0gyXVtDSDJdW0NIMl1bQ0hdMltDSDJdW0NIMl1bQ0gyXVtDSDJdW0NIMl0y

> <s_epik_cmdline>
J2VwaWtfcHl0aG9uJywgJy1waCcsICc3LjAnLCAnLXRuJywgJzgnLCAnLW1hJywgJzIwMCcsICctbWV0YWxfYmluZGluZycsICctaW1hZScsICc8aW5maWxlLm1hZT4nLCAnLW9tYWUnLCAnPG91dGZpbGUubWFlPic=

> <r_lp_tautomer_probability>
1

> <r_epik_Ionization_Penalty>
2.90452e-06

> <r_epik_Ionization_Penalty_Charging>
3.08996e-10

> <r_epik_Ionization_Penalty_Neutral>
2.90421e-06

> <r_epik_State_Penalty>
-0

> <r_epik_Charging_Adjusted_Penalty>
3.08996e-10

> <i_epik_Tot_Q>
0

> <i_epik_Tot_abs_Q>
0

> <r_epik_Metal_State_Penalty>
-0

> <b_epik_Metal_Only>
0

> <s_lp_Force_Field>
OPLS_2005

> <r_lp_Energy>
27.0219

> <b_lp_Chiralities_Consistent>
1

> <s_lp_Variant>
AV-unprocessed.smi:1001-1

> <Gold.Version>
5.8.1

> <Gold.Id.Protein>
6NUR|6NUR_protein|mol2

> <Gold.PLP.Fitness>
45.2269

> <Gold.PLP.PLP>
-37.3852

> <Gold.PLP.part.hbond>
-3.0000

> <Gold.PLP.part.metal>
0.0000

> <Gold.PLP.part.buried>
-3.6542

> <Gold.PLP.part.nonpolar>
-30.8620

> <Gold.PLP.part.repulsive>
0.4063

> <Gold.PLP.ligand.clash>
0.0028

> <Gold.PLP.ligand.torsion>
0.6214

> <Gold.PLP.Chemscore.Hbond>
2.9360

> <Gold.PLP.Chemscore.CHOScore>
0.0000

> <Gold.PLP.Chemscore.Metal>
0.0000

> <Gold.Chemscore.Hbonds>
donor molecule, donor type, donor heavy atom, donor atom, acceptor molecule, acceptor atom, score
      L1  H     1    24       P1  8028  1.00
      P1  H  6896  6908       L1    12  0.66
      P1  H 10752 10765       L1     8  1.00

> <Gold.PLP.Chemscore.Internal.Correction>
0.2794

> <Gold.Rescore>
     Score         DG    S(hbond)    S(metal)    S(lipo)     H(rot)  DE(clash)    DE(int)     intcor
     17.96     -18.95       2.97        0.00      84.24       2.46       0.21       0.78       ----

> <Gold.Chemscore.Fitness>
17.9593

> <Gold.Chemscore.DG>
-18.9485

> <Gold.Chemscore.ZeroCoef>
-5.4800

> <Gold.Chemscore.Hbond>
2.9666

> <Gold.Chemscore.Metal>
0.0000

> <Gold.Chemscore.Lipo>
84.2379

> <Gold.Chemscore.Internal_Hbond>
0.0000

> <Gold.Chemscore.DEClash>
0.2061

> <Gold.Chemscore.DEInternal>
0.7830

> <Gold.Chemscore.Rot>
2.4593

> <Gold.Chemscore.Internal.Correction>
   9.000000E+99

> <Gold.Chemscore.Hbonds>
donor molecule, donor type, donor heavy atom, donor atom, acceptor molecule, acceptor atom, score
      L1  H     1    24       P1  8028  0.98
      P1  H  6896  6908       L1    12  0.63
      P1  H 10752 10765       L1     8  1.00

> <Gold.Chemscore.Hbond.Weighted>
-9.9084

> <Gold.Chemscore.Metal.Weighted>
-0.0000

> <Gold.Chemscore.Lipo.Weighted>
-9.8558

> <Gold.Chemscore.Internal_Hbond.Weighted>
0.0000

> <Gold.Chemscore.DEClash.Weighted>
0.2061

> <Gold.Chemscore.DEInternal.Weighted>
0.7830

> <Gold.Chemscore.Rot.Weighted>
6.2958

> <Gold.Chemscore.Internal.Correction.Weighted>
   9.000000E+99

> <Gold.Protein.RotatedTorsions>
[ 6907 6896 6895 6894 ] final -176.68 input  -60.11 | X-H torsion
[ 7974 7965 7964 7962 ] final  -78.48 input  175.53 | X-H torsion
[ 8008 7997 7996 7995 ] final  143.52 input   59.86 | X-H torsion
[ 10167 10162 10161 10158 ] final  -41.44 input  -65.29 | X-H torsion
[ 10718 10713 10712 10709 ] final   62.44 input   66.30 | X-H torsion
[ 10763 10752 10751 10750 ] final -174.10 input  -60.55 | X-H torsion
[ 11005 11000 10999 10996 ] final  174.29 input  -57.11 | X-H torsion

> <Gold.Protein.ActiveResidues>
 VAL166  LYS551  ARG553  GLY616  TRP617  ASP618  TYR619  PRO620  LYS621  CYS622 
 ASP623  PHE694  ASN695  SER759  ASP760  ASP761  ALA762  ILE779  LEU786  VAL792 
 PHE793  MET794  SER795  GLU796  ALA797  LYS798  CYS799  TRP800  GLU811  SER814 

> <Gold.Protein.RotatedAtoms>
  151.6086  133.3349  159.3062 H   0  0  0  0  0  0  0  0  0  0  0  0  # atno 6907 bound_to 6896
  150.8168  134.7358  159.6749 H   0  0  0  0  0  0  0  0  0  0  0  0  # atno 6908 bound_to 6896
  152.4264  134.5866  160.0014 H   0  0  0  0  0  0  0  0  0  0  0  0  # atno 6909 bound_to 6896
  145.5859  140.9439  143.1319 H   0  0  0  0  0  0  0  0  0  0  0  0  # atno 7974 bound_to 7965
  156.2928  140.2260  156.4904 H   0  0  0  0  0  0  0  0  0  0  0  0  # atno 8008 bound_to 7997
  154.7776  140.0462  157.1123 H   0  0  0  0  0  0  0  0  0  0  0  0  # atno 8009 bound_to 7997
  154.9798  140.3077  155.4955 H   0  0  0  0  0  0  0  0  0  0  0  0  # atno 8010 bound_to 7997
  140.7002  143.3094  151.3067 H   0  0  0  0  0  0  0  0  0  0  0  0  # atno 10167 bound_to 10162
  157.5901  130.9050  149.9588 H   0  0  0  0  0  0  0  0  0  0  0  0  # atno 10718 bound_to 10713
  154.6001  135.2853  155.0544 H   0  0  0  0  0  0  0  0  0  0  0  0  # atno 10763 bound_to 10752
  154.1812  135.6456  153.5038 H   0  0  0  0  0  0  0  0  0  0  0  0  # atno 10764 bound_to 10752
  153.0154  135.5424  154.6717 H   0  0  0  0  0  0  0  0  0  0  0  0  # atno 10765 bound_to 10752
  140.3497  134.7206  157.4259 H   0  0  0  0  0  0  0  0  0  0  0  0  # atno 11005 bound_to 11000
  144.7373  139.7549  143.7324 LP  0  0  0  0  0  0  0  0  0  0  0  0  # atno 17320 bound_to 7965
  146.1682  139.4823  142.9944 LP  0  0  0  0  0  0  0  0  0  0  0  0  # atno 17321 bound_to 7965
  139.6512  144.0359  152.2627 LP  0  0  0  0  0  0  0  0  0  0  0  0  # atno 17342 bound_to 10162
  139.9896  144.6371  150.7826 LP  0  0  0  0  0  0  0  0  0  0  0  0  # atno 17343 bound_to 10162
  156.0954  130.3660  150.0316 LP  0  0  0  0  0  0  0  0  0  0  0  0  # atno 17370 bound_to 10713
  156.8440  130.9435  151.3630 LP  0  0  0  0  0  0  0  0  0  0  0  0  # atno 17371 bound_to 10713
  140.0713  134.5858  155.8639 LP  0  0  0  0  0  0  0  0  0  0  0  0  # atno 17394 bound_to 11000
  141.2015  133.6619  156.5957 LP  0  0  0  0  0  0  0  0  0  0  0  0  # atno 17395 bound_to 11000

$$$$
