AV-unprocessed.smi:158|AV-procd|sdf|1326|dock3
  -GOLD-   2262019 23D 1   1.00000     0.00000
 Structure written by MMmdl.
 31 33  0  0  0  0  0  0  0  0  1 V2000
  144.1927  136.3202  151.0566 N   0  0  0  0  0  0  0  0  0  0  0  0
  144.7187  136.5507  152.2675 C   0  0  0  0  0  0  0  0  0  0  0  0
  144.2806  135.8104  153.3127 N   0  0  0  0  0  0  0  0  0  0  0  0
  144.7803  136.0085  154.5390 C   0  0  0  0  0  0  0  0  0  0  0  0
  144.1464  135.0103  155.7940 Cl  0  0  0  0  0  0  0  0  0  0  0  0
  145.7146  136.8946  154.9015 N   0  0  0  0  0  0  0  0  0  0  0  0
  146.1554  137.6431  153.8494 C   0  0  0  0  0  0  0  0  0  0  0  0
  145.7105  137.5330  152.5058 C   0  0  0  0  0  0  0  0  0  0  0  0
  146.3806  138.4517  151.7095 N   0  0  0  0  0  0  0  0  0  0  0  0
  147.1757  139.0683  152.5432 C   0  0  0  0  0  0  0  0  0  0  0  0
  147.0977  138.6474  153.8551 N   0  0  0  0  0  0  0  0  0  0  0  0
  147.8519  139.1239  155.0567 C   0  0  1  0  0  0  0  0  0  0  0  0
  148.3653  138.0023  155.7142 O   0  0  0  0  0  0  0  0  0  0  0  0
  149.7912  137.9608  155.6356 C   0  0  1  0  0  0  0  0  0  0  0  0
  150.3034  136.5233  155.4351 C   0  0  0  0  0  0  0  0  0  0  0  0
  151.7146  136.5098  155.4259 O   0  0  0  0  0  0  0  0  0  0  0  0
  150.1720  138.9627  154.5346 C   0  0  1  0  0  0  0  0  0  0  0  0
  150.2372  138.3759  153.2471 O   0  0  0  0  0  0  0  0  0  0  0  0
  149.0456  139.9761  154.6136 C   0  0  2  0  0  0  0  0  0  0  0  0
  149.3047  140.8757  155.5635 F   0  0  0  0  0  0  0  0  0  0  0  0
  147.1096  139.6548  155.6540 H   0  0  0  0  0  0  0  0  0  0  0  0
  150.1741  138.3574  156.5779 H   0  0  0  0  0  0  0  0  0  0  0  0
  151.1406  139.4226  154.7331 H   0  0  0  0  0  0  0  0  0  0  0  0
  148.8558  140.5211  153.6876 H   0  0  0  0  0  0  0  0  0  0  0  0
  144.5039  136.8611  150.2624 H   0  0  0  0  0  0  0  0  0  0  0  0
  143.4852  135.6094  150.9405 H   0  0  0  0  0  0  0  0  0  0  0  0
  147.8406  139.8532  152.2158 H   0  0  0  0  0  0  0  0  0  0  0  0
  149.9239  135.8492  156.2027 H   0  0  0  0  0  0  0  0  0  0  0  0
  149.9715  136.1375  154.4708 H   0  0  0  0  0  0  0  0  0  0  0  0
  152.0241  136.7866  156.2747 H   0  0  0  0  0  0  0  0  0  0  0  0
  150.1175  139.0541  152.6001 H   0  0  0  0  0  0  0  0  0  0  0  0
  1  2  1  0  0  0  0
  1 25  1  0  0  0  0
  1 26  1  0  0  0  0
  2  8  1  0  0  0  0
  2  3  2  0  0  0  0
  3  4  1  0  0  0  0
  4  5  1  0  0  0  0
  4  6  2  0  0  0  0
  6  7  1  0  0  0  0
  7 11  1  0  0  0  0
  7  8  2  0  0  0  0
  8  9  1  0  0  0  0
  9 10  2  0  0  0  0
 10 11  1  0  0  0  0
 10 27  1  0  0  0  0
 11 12  1  0  0  0  0
 12 21  1  0  0  0  0
 12 19  1  0  0  0  0
 12 13  1  0  0  0  0
 13 14  1  0  0  0  0
 14 22  1  0  0  0  0
 14 15  1  0  0  0  0
 14 17  1  0  0  0  0
 15 16  1  0  0  0  0
 15 28  1  0  0  0  0
 15 29  1  0  0  0  0
 16 30  1  0  0  0  0
 17 23  1  0  0  0  0
 17 18  1  0  0  0  0
 17 19  1  0  0  0  0
 18 31  1  0  0  0  0
 19 24  1  0  0  0  0
 19 20  1  0  0  0  0
M  END
> <s_m_source_file>
AV-unprocessed.smi

> <i_m_source_file_index>
158

> <i_lp_mmshare_version>
43012

> <i_f3d_flags>
0

> <s_epik_input>
Q2xjKG4xKW5jKFtOSDJdKWMoYzEyKW5bY0hdbjJbQ0BASF0zT1tDQEhdKFtDSDJdW09IXSlbQ0BASF0oW09IXSlbQ0BASF0zRg==

> <s_epik_cmdline>
J2VwaWtfcHl0aG9uJywgJy1waCcsICc3LjAnLCAnLXRuJywgJzgnLCAnLW1hJywgJzIwMCcsICctbWV0YWxfYmluZGluZycsICctaW1hZScsICc8aW5maWxlLm1hZT4nLCAnLW9tYWUnLCAnPG91dGZpbGUubWFlPic=

> <r_lp_tautomer_probability>
1

> <r_epik_Ionization_Penalty>
6.51543e-05

> <r_epik_Ionization_Penalty_Charging>
0

> <r_epik_Ionization_Penalty_Neutral>
6.51543e-05

> <r_epik_State_Penalty>
-0

> <r_epik_Charging_Adjusted_Penalty>
0

> <i_epik_Tot_Q>
0

> <i_epik_Tot_abs_Q>
0

> <r_epik_Metal_State_Penalty>
-0

> <b_epik_Metal_Only>
0

> <s_epik_Chemistry_Notes>
This compound contains an acetal/aminal-like group ( X-CH(R)-Y where X, Y are N, S, or O) that may be acid/base labile, releasing an aldehyde.

> <s_lp_Force_Field>
OPLS_2005

> <r_lp_Energy>
31.9678

> <b_lp_Chiralities_Consistent>
1

> <s_lp_Variant>
AV-unprocessed.smi:158-4

> <Gold.Version>
5.8.1

> <Gold.Id.Protein>
6NUR|6NUR_protein|mol2

> <Gold.PLP.Fitness>
31.1216

> <Gold.PLP.PLP>
-20.7986

> <Gold.PLP.part.hbond>
-4.7716

> <Gold.PLP.part.metal>
0.0000

> <Gold.PLP.part.buried>
-2.1049

> <Gold.PLP.part.nonpolar>
-14.5404

> <Gold.PLP.part.repulsive>
0.6742

> <Gold.PLP.ligand.clash>
0.0000

> <Gold.PLP.ligand.torsion>
0.2813

> <Gold.PLP.Chemscore.Hbond>
2.6240

> <Gold.PLP.Chemscore.CHOScore>
1.0000

> <Gold.PLP.Chemscore.Metal>
0.0000

> <Gold.Chemscore.Hbonds>
donor molecule, donor type, donor heavy atom, donor atom, acceptor molecule, acceptor atom, score
      L1  H     1    25       P1 10171  0.51
      L1  H    18    31       P1  7957  1.00
      P1  H 10752 10763       L1    16  1.00
      L1  C    10    27       P1  7957  1.00

> <Gold.PLP.Chemscore.Internal.Correction>
0.0136

> <Gold.Rescore>
     Score         DG    S(hbond)    S(metal)    S(lipo)     H(rot)  DE(clash)    DE(int)     intcor
      9.05      -9.19       2.66        0.00      24.09       3.12       0.00       0.14       ----

> <Gold.Chemscore.Fitness>
9.0470

> <Gold.Chemscore.DG>
-9.1852

> <Gold.Chemscore.ZeroCoef>
-5.4800

> <Gold.Chemscore.Hbond>
2.6592

> <Gold.Chemscore.Metal>
0.0000

> <Gold.Chemscore.Lipo>
24.0900

> <Gold.Chemscore.Internal_Hbond>
0.0000

> <Gold.Chemscore.DEClash>
0.0000

> <Gold.Chemscore.DEInternal>
0.1382

> <Gold.Chemscore.Rot>
3.1230

> <Gold.Chemscore.Internal.Correction>
   9.000000E+99

> <Gold.Chemscore.Hbonds>
donor molecule, donor type, donor heavy atom, donor atom, acceptor molecule, acceptor atom, score
      L1  H     1    25       P1 10171  0.52
      L1  H    18    31       P1  7957  0.60
      P1  H 10752 10763       L1    16  0.65

> <Gold.Chemscore.Hbond.Weighted>
-8.8816

> <Gold.Chemscore.Metal.Weighted>
-0.0000

> <Gold.Chemscore.Lipo.Weighted>
-2.8185

> <Gold.Chemscore.Internal_Hbond.Weighted>
0.0000

> <Gold.Chemscore.DEClash.Weighted>
0.0000

> <Gold.Chemscore.DEInternal.Weighted>
0.1382

> <Gold.Chemscore.Rot.Weighted>
7.9950

> <Gold.Chemscore.Internal.Correction.Weighted>
   9.000000E+99

> <Gold.Protein.RotatedTorsions>
[ 6907 6896 6895 6894 ] final -156.03 input  -60.11 | X-H torsion
[ 7974 7965 7964 7962 ] final  -73.53 input  175.53 | X-H torsion
[ 8008 7997 7996 7995 ] final    0.51 input   59.86 | X-H torsion
[ 10167 10162 10161 10158 ] final  -57.37 input  -65.29 | X-H torsion
[ 10718 10713 10712 10709 ] final -179.38 input   66.30 | X-H torsion
[ 10763 10752 10751 10750 ] final   65.62 input  -60.55 | X-H torsion
[ 11005 11000 10999 10996 ] final   65.40 input  -57.11 | X-H torsion

> <Gold.Protein.ActiveResidues>
 VAL166  LYS551  ARG553  GLY616  TRP617  ASP618  TYR619  PRO620  LYS621  CYS622 
 ASP623  PHE694  ASN695  SER759  ASP760  ASP761  ALA762  ILE779  LEU786  VAL792 
 PHE793  MET794  SER795  GLU796  ALA797  LYS798  CYS799  TRP800  GLU811  SER814 

> <Gold.Protein.RotatedAtoms>
  151.2814  133.4208  159.2626 H   0  0  0  0  0  0  0  0  0  0  0  0  # atno 6907 bound_to 6896
  151.0357  134.9572  159.8145 H   0  0  0  0  0  0  0  0  0  0  0  0  # atno 6908 bound_to 6896
  152.5355  134.2774  159.9047 H   0  0  0  0  0  0  0  0  0  0  0  0  # atno 6909 bound_to 6896
  145.6510  140.9282  143.0985 H   0  0  0  0  0  0  0  0  0  0  0  0  # atno 7974 bound_to 7965
  154.6690  140.2607  155.7027 H   0  0  0  0  0  0  0  0  0  0  0  0  # atno 8008 bound_to 7997
  156.2651  140.2833  156.1113 H   0  0  0  0  0  0  0  0  0  0  0  0  # atno 8009 bound_to 7997
  155.1197  140.0377  157.2736 H   0  0  0  0  0  0  0  0  0  0  0  0  # atno 8010 bound_to 7997
  140.6262  143.2439  151.5358 H   0  0  0  0  0  0  0  0  0  0  0  0  # atno 10167 bound_to 10162
  156.8582  130.9742  151.3086 H   0  0  0  0  0  0  0  0  0  0  0  0  # atno 10718 bound_to 10713
  153.0104  135.5350  154.6695 H   0  0  0  0  0  0  0  0  0  0  0  0  # atno 10763 bound_to 10752
  154.5883  135.2856  155.0664 H   0  0  0  0  0  0  0  0  0  0  0  0  # atno 10764 bound_to 10752
  154.1766  135.6523  153.5075 H   0  0  0  0  0  0  0  0  0  0  0  0  # atno 10765 bound_to 10752
  139.9897  134.6611  156.0113 H   0  0  0  0  0  0  0  0  0  0  0  0  # atno 11005 bound_to 11000
  144.7123  139.8326  143.7410 LP  0  0  0  0  0  0  0  0  0  0  0  0  # atno 17320 bound_to 7965
  146.1204  139.4221  143.0232 LP  0  0  0  0  0  0  0  0  0  0  0  0  # atno 17321 bound_to 7965
  139.5482  144.2465  152.1482 LP  0  0  0  0  0  0  0  0  0  0  0  0  # atno 17342 bound_to 10162
  140.1697  144.4947  150.6586 LP  0  0  0  0  0  0  0  0  0  0  0  0  # atno 17343 bound_to 10162
  157.6265  130.8695  149.9198 LP  0  0  0  0  0  0  0  0  0  0  0  0  # atno 17370 bound_to 10713
  156.0791  130.3675  150.0617 LP  0  0  0  0  0  0  0  0  0  0  0  0  # atno 17371 bound_to 10713
  141.1555  133.6543  156.4148 LP  0  0  0  0  0  0  0  0  0  0  0  0  # atno 17394 bound_to 11000
  140.4932  134.6555  157.5219 LP  0  0  0  0  0  0  0  0  0  0  0  0  # atno 17395 bound_to 11000

$$$$
