AV-unprocessed.smi:1738|AV-procd|sdf|7003|dock2
  -GOLD-   22720 8213D 1   1.00000     0.00000
 Structure written by MMmdl.
 46 48  0  0  0  0  0  0  0  0  2 V2000
  150.3572  140.8936  158.6144 C   0  0  0  0  0  0  0  0  0  0  0  0
  151.1267  140.9082  156.9443 S   0  0  0  0  0  0  0  0  0  0  0  0
  150.9860  142.2604  156.3818 O   0  0  0  0  0  0  0  0  0  0  0  0
  152.4635  140.3042  157.0578 O   0  0  0  0  0  0  0  0  0  0  0  0
  150.0899  139.8039  155.9922 C   0  0  0  0  0  0  0  0  0  0  0  0
  148.8702  139.3380  156.5226 C   0  0  0  0  0  0  0  0  0  0  0  0
  148.0672  138.5118  155.7135 C   0  0  0  0  0  0  0  0  0  0  0  0
  148.5063  138.2007  154.4031 C   0  0  0  0  0  0  0  0  0  0  0  0
  147.7959  137.3635  153.5010 N   0  0  0  0  0  0  0  0  0  0  0  0
  146.4679  137.1847  153.3995 C   0  0  0  0  0  0  0  0  0  0  0  0
  145.6165  137.7699  154.0683 O   0  0  0  0  0  0  0  0  0  0  0  0
  146.1664  136.2943  152.4435 N   0  0  0  0  0  0  0  0  0  0  0  0
  144.8083  135.8887  152.0904 C   0  0  2  0  0  0  0  0  0  0  0  0
  144.0358  135.2707  153.2487 C   0  0  0  0  0  0  0  0  0  0  0  0
  142.8914  134.5346  152.5435 C   0  0  0  0  0  0  0  0  0  0  0  0
  143.3736  134.1931  151.1821 N   0  3  2  0  0  0  0  0  0  0  0  0
  143.2800  132.7455  150.8518 C   0  0  0  0  0  0  0  0  0  0  0  0
  144.1508  132.4016  149.6342 C   0  0  0  0  0  0  0  0  0  0  0  0
  145.6401  132.6837  149.9085 C   0  0  0  0  0  0  0  0  0  0  0  0
  145.8465  133.7460  151.0052 C   0  0  0  0  0  0  0  0  0  0  0  0
  144.7192  134.8076  150.9965 C   0  0  2  0  0  0  0  0  0  0  0  0
  149.7468  138.7257  153.9805 C   0  0  0  0  0  0  0  0  0  0  0  0
  150.5226  139.5226  154.7448 N   0  0  0  0  0  0  0  0  0  0  0  0
  150.9147  141.5548  159.2773 H   0  0  0  0  0  0  0  0  0  0  0  0
  150.3749  139.8799  159.0136 H   0  0  0  0  0  0  0  0  0  0  0  0
  149.3254  141.2375  158.5425 H   0  0  0  0  0  0  0  0  0  0  0  0
  148.5555  139.5997  157.5219 H   0  0  0  0  0  0  0  0  0  0  0  0
  147.1429  138.1278  156.1161 H   0  0  0  0  0  0  0  0  0  0  0  0
  148.3646  136.8821  152.8196 H   0  0  0  0  0  0  0  0  0  0  0  0
  146.9239  135.8630  151.9340 H   0  0  0  0  0  0  0  0  0  0  0  0
  144.2544  136.7694  151.7577 H   0  0  0  0  0  0  0  0  0  0  0  0
  144.6619  134.5546  153.7828 H   0  0  0  0  0  0  0  0  0  0  0  0
  143.6820  136.0104  153.9676 H   0  0  0  0  0  0  0  0  0  0  0  0
  142.5628  133.6652  153.1145 H   0  0  0  0  0  0  0  0  0  0  0  0
  142.0306  135.1956  152.4366 H   0  0  0  0  0  0  0  0  0  0  0  0
  143.6021  132.1424  151.7026 H   0  0  0  0  0  0  0  0  0  0  0  0
  142.2367  132.4913  150.6625 H   0  0  0  0  0  0  0  0  0  0  0  0
  144.0154  131.3580  149.3484 H   0  0  0  0  0  0  0  0  0  0  0  0
  143.8178  132.9956  148.7818 H   0  0  0  0  0  0  0  0  0  0  0  0
  146.1470  131.7653  150.2068 H   0  0  0  0  0  0  0  0  0  0  0  0
  146.1168  133.0048  148.9816 H   0  0  0  0  0  0  0  0  0  0  0  0
  145.8732  133.2564  151.9798 H   0  0  0  0  0  0  0  0  0  0  0  0
  146.8255  134.2068  150.8716 H   0  0  0  0  0  0  0  0  0  0  0  0
  144.7354  135.2943  150.0201 H   0  0  0  0  0  0  0  0  0  0  0  0
  150.1261  138.5073  152.9929 H   0  0  0  0  0  0  0  0  0  0  0  0
  142.7627  134.6752  150.5380 H   0  0  0  0  0  0  0  0  0  0  0  0
  1  2  1  0  0  0  0
  1 24  1  0  0  0  0
  1 25  1  0  0  0  0
  1 26  1  0  0  0  0
  2  3  2  0  0  0  0
  2  4  2  0  0  0  0
  2  5  1  0  0  0  0
  5 23  1  0  0  0  0
  5  6  2  0  0  0  0
  6  7  1  0  0  0  0
  6 27  1  0  0  0  0
  7  8  2  0  0  0  0
  7 28  1  0  0  0  0
  8  9  1  0  0  0  0
  8 22  1  0  0  0  0
  9 10  1  0  0  0  0
  9 29  1  0  0  0  0
 10 11  2  0  0  0  0
 10 12  1  0  0  0  0
 12 13  1  0  0  0  0
 12 30  1  0  0  0  0
 13 21  1  0  0  0  0
 13 14  1  0  0  0  0
 13 31  1  0  0  0  0
 14 15  1  0  0  0  0
 14 32  1  0  0  0  0
 14 33  1  0  0  0  0
 15 16  1  0  0  0  0
 15 34  1  0  0  0  0
 15 35  1  0  0  0  0
 16 21  1  0  0  0  0
 16 17  1  0  0  0  0
 16 46  1  0  0  0  0
 17 18  1  0  0  0  0
 17 36  1  0  0  0  0
 17 37  1  0  0  0  0
 18 19  1  0  0  0  0
 18 38  1  0  0  0  0
 18 39  1  0  0  0  0
 19 20  1  0  0  0  0
 19 40  1  0  0  0  0
 19 41  1  0  0  0  0
 20 21  1  0  0  0  0
 20 42  1  0  0  0  0
 20 43  1  0  0  0  0
 21 44  1  0  0  0  0
 22 23  2  0  0  0  0
 22 45  1  0  0  0  0
M  CHG  1  16   1
M  END
> <s_m_source_file>
AV-unprocessed.smi

> <i_m_source_file_index>
1738

> <i_lp_mmshare_version>
43012

> <i_f3d_flags>
0

> <s_epik_input>
W0NIM11TKD1PKSg9TyljMVtjSF1bY0hdYyhbY0hdbjEpW05IXUMoPU8pW05IXVtDQEhdKFtDSDJdW0NIMl0yKVtDQEBIXShOMjMpW0NIMl1bQ0gyXVtDSDJdW0NIMl0z

> <s_epik_cmdline>
J2VwaWtfcHl0aG9uJywgJy1waCcsICc3LjAnLCAnLXRuJywgJzgnLCAnLW1hJywgJzIwMCcsICctbWV0YWxfYmluZGluZycsICctaW1hZScsICc8aW5maWxlLm1hZT4nLCAnLW9tYWUnLCAnPG91dGZpbGUubWFlPic=

> <r_epik_Ionization_Penalty>
0.00100042

> <r_epik_Ionization_Penalty_Charging>
0.000974069

> <r_epik_Ionization_Penalty_Neutral>
2.63543e-05

> <r_epik_State_Penalty>
0.000633842

> <r_epik_Charging_Adjusted_Penalty>
0.00160791

> <i_epik_Tot_Q>
1

> <i_epik_Tot_abs_Q>
1

> <r_epik_Metal_State_Penalty>
-0

> <b_epik_Metal_Only>
0

> <s_lp_Force_Field>
OPLS_2005

> <r_lp_Energy>
44.1137

> <b_lp_Chiralities_Consistent>
1

> <s_lp_Variant>
AV-unprocessed.smi:1738-7

> <Gold.Version>
5.8.1

> <Gold.Id.Protein>
6NUR|6NUR_protein|mol2

> <Gold.PLP.Fitness>
45.7082

> <Gold.PLP.PLP>
-29.4804

> <Gold.PLP.part.hbond>
-3.8932

> <Gold.PLP.part.metal>
0.0000

> <Gold.PLP.part.buried>
0.0330

> <Gold.PLP.part.nonpolar>
-24.7629

> <Gold.PLP.part.repulsive>
0.3430

> <Gold.PLP.ligand.clash>
0.0000

> <Gold.PLP.ligand.torsion>
1.4297

> <Gold.PLP.Chemscore.Hbond>
4.5619

> <Gold.PLP.Chemscore.CHOScore>
1.1258

> <Gold.PLP.Chemscore.Metal>
0.0000

> <Gold.Chemscore.Hbonds>
donor molecule, donor type, donor heavy atom, donor atom, acceptor molecule, acceptor atom, score
      L1  H     9    29       P1  7948  0.41
      L1  H    12    30       P1  7948  0.68
      L1  H    16    46       P1 10186  1.66
      P1  H  7989  7998       L1    23  0.71
      P1  H  7997  8009       L1     4  1.00
      L1  C    22    45       P1  7948  0.31
      L1  C    22    45       P1  7957  0.80

> <Gold.PLP.Chemscore.Internal.Correction>
2.0241

> <Gold.Rescore>
     Score         DG    S(hbond)    S(metal)    S(lipo)     H(rot)  DE(clash)    DE(int)     intcor
     17.71     -21.29       2.94        0.00      73.24       1.00       0.69       2.89       ----

> <Gold.Chemscore.Fitness>
17.7080

> <Gold.Chemscore.DG>
-21.2924

> <Gold.Chemscore.ZeroCoef>
-5.4800

> <Gold.Chemscore.Hbond>
2.9351

> <Gold.Chemscore.Metal>
0.0000

> <Gold.Chemscore.Lipo>
73.2403

> <Gold.Chemscore.Internal_Hbond>
0.0000

> <Gold.Chemscore.DEClash>
0.6929

> <Gold.Chemscore.DEInternal>
2.8916

> <Gold.Chemscore.Rot>
1.0000

> <Gold.Chemscore.Internal.Correction>
   9.000000E+99

> <Gold.Chemscore.Hbonds>
donor molecule, donor type, donor heavy atom, donor atom, acceptor molecule, acceptor atom, score
      L1  H     9    29       P1  7948  0.41
      L1  H    12    30       P1  7948  0.63
      L1  H    16    46       P1 10186  0.20
      P1  H  7989  7998       L1    23  0.49
      P1  H  7997  8009       L1     4  0.93

> <Gold.Chemscore.Hbond.Weighted>
-9.8033

> <Gold.Chemscore.Metal.Weighted>
-0.0000

> <Gold.Chemscore.Lipo.Weighted>
-8.5691

> <Gold.Chemscore.Internal_Hbond.Weighted>
0.0000

> <Gold.Chemscore.DEClash.Weighted>
0.6929

> <Gold.Chemscore.DEInternal.Weighted>
2.8916

> <Gold.Chemscore.Rot.Weighted>
2.5600

> <Gold.Chemscore.Internal.Correction.Weighted>
   9.000000E+99

> <Gold.Protein.RotatedTorsions>
[ 6907 6896 6895 6894 ] final   40.03 input  -60.11 | X-H torsion
[ 7974 7965 7964 7962 ] final -121.37 input  175.53 | X-H torsion
[ 8008 7997 7996 7995 ] final -175.69 input   59.86 | X-H torsion
[ 10167 10162 10161 10158 ] final   89.56 input  -65.29 | X-H torsion
[ 10718 10713 10712 10709 ] final   16.23 input   66.30 | X-H torsion
[ 10763 10752 10751 10750 ] final -122.94 input  -60.55 | X-H torsion
[ 11005 11000 10999 10996 ] final   42.93 input  -57.11 | X-H torsion

> <Gold.Protein.ActiveResidues>
 VAL166  LYS551  ARG553  GLY616  TRP617  ASP618  TYR619  PRO620  LYS621  CYS622 
 ASP623  PHE694  ASN695  SER759  ASP760  ASP761  ALA762  ILE779  LEU786  VAL792 
 PHE793  MET794  SER795  GLU796  ALA797  LYS798  CYS799  TRP800  GLU811  SER814 

> <Gold.Protein.RotatedAtoms>
  152.1773  134.8784  160.0529 H   0  0  0  0  0  0  0  0  0  0  0  0  # atno 6907 bound_to 6896
  151.9721  133.3724  159.4083 H   0  0  0  0  0  0  0  0  0  0  0  0  # atno 6908 bound_to 6896
  150.6911  134.4051  159.5180 H   0  0  0  0  0  0  0  0  0  0  0  0  # atno 6909 bound_to 6896
  145.0411  140.8145  143.4266 H   0  0  0  0  0  0  0  0  0  0  0  0  # atno 7974 bound_to 7965
  155.9857  140.1190  157.0685 H   0  0  0  0  0  0  0  0  0  0  0  0  # atno 8008 bound_to 7997
  154.4196  140.1135  156.5564 H   0  0  0  0  0  0  0  0  0  0  0  0  # atno 8009 bound_to 7997
  155.6411  140.3473  155.4717 H   0  0  0  0  0  0  0  0  0  0  0  0  # atno 8010 bound_to 7997
  139.8561  144.6568  150.9113 H   0  0  0  0  0  0  0  0  0  0  0  0  # atno 10167 bound_to 10162
  157.0648  130.6324  149.5793 H   0  0  0  0  0  0  0  0  0  0  0  0  # atno 10718 bound_to 10713
  154.8699  135.4115  154.2862 H   0  0  0  0  0  0  0  0  0  0  0  0  # atno 10763 bound_to 10752
  153.3746  135.7009  153.6617 H   0  0  0  0  0  0  0  0  0  0  0  0  # atno 10764 bound_to 10752
  153.5464  135.3637  155.2712 H   0  0  0  0  0  0  0  0  0  0  0  0  # atno 10765 bound_to 10752
  140.1692  134.4243  155.8267 H   0  0  0  0  0  0  0  0  0  0  0  0  # atno 11005 bound_to 11000
  145.1647  139.2438  143.5373 LP  0  0  0  0  0  0  0  0  0  0  0  0  # atno 17320 bound_to 7965
  146.3509  140.1383  142.8595 LP  0  0  0  0  0  0  0  0  0  0  0  0  # atno 17321 bound_to 7965
  140.7781  143.3785  151.1520 LP  0  0  0  0  0  0  0  0  0  0  0  0  # atno 17342 bound_to 10162
  139.7419  143.8912  152.3052 LP  0  0  0  0  0  0  0  0  0  0  0  0  # atno 17343 bound_to 10162
  155.9967  130.5038  150.7509 LP  0  0  0  0  0  0  0  0  0  0  0  0  # atno 17370 bound_to 10713
  157.4925  131.0912  151.0409 LP  0  0  0  0  0  0  0  0  0  0  0  0  # atno 17371 bound_to 10713
  141.2216  133.6948  156.7734 LP  0  0  0  0  0  0  0  0  0  0  0  0  # atno 17394 bound_to 11000
  140.2397  134.8623  157.3561 LP  0  0  0  0  0  0  0  0  0  0  0  0  # atno 17395 bound_to 11000

$$$$
