AV-unprocessed.smi:1460|AV-procd|sdf|5928|dock9
  -GOLD-   22720 6 13D 1   1.00000     0.00000
 Structure written by MMmdl.
 41 42  0  0  0  0  0  0  0  0  1 V2000
  151.5904  139.7462  158.8658 C   0  0  0  0  0  0  0  0  0  0  0  0
  151.7695  140.8442  157.8043 C   0  0  2  0  0  0  0  0  0  0  0  0
  151.8642  142.2639  158.4063 C   0  0  0  0  0  0  0  0  0  0  0  0
  152.4291  142.2798  159.7435 N   0  0  0  0  0  0  0  0  0  0  0  0
  153.6185  141.7332  160.1774 C   0  0  0  0  0  0  0  0  0  0  0  0
  153.7219  141.9938  161.5138 C   0  0  0  0  0  0  0  0  0  0  0  0
  152.5280  142.7083  161.8119 C   0  0  0  0  0  0  0  0  0  0  0  0
  151.7547  142.8747  160.7512 N   0  0  0  0  0  0  0  0  0  0  0  0
  150.6608  140.7763  156.8569 N   0  0  0  0  0  0  0  0  0  0  0  0
  150.7544  140.3998  155.5720 C   0  0  0  0  0  0  0  0  0  0  0  0
  151.8133  140.0619  155.0421 O   0  0  0  0  0  0  0  0  0  0  0  0
  149.4515  140.4098  154.7619 C   0  0  0  0  0  0  0  0  0  0  0  0
  148.8918  141.8453  154.6306 C   0  0  0  0  0  0  0  0  0  0  0  0
  147.5217  141.8429  153.9291 C   0  0  0  0  0  0  0  0  0  0  0  0
  146.6044  140.9733  154.6847 N   0  0  0  0  0  0  0  0  0  0  0  0
  145.5838  141.3817  155.4803 C   0  0  0  0  0  0  0  0  0  0  0  0
  145.3376  142.6955  155.4654 N   0  0  0  0  0  0  0  0  0  0  0  0
  144.8995  140.6193  156.1607 O   0  0  0  0  0  0  0  0  0  0  0  0
  147.0496  139.5746  154.6506 C   0  0  0  0  0  0  0  0  0  0  0  0
  148.3985  139.4627  155.3842 C   0  0  0  0  0  0  0  0  0  0  0  0
  152.4415  139.7037  159.5456 H   0  0  0  0  0  0  0  0  0  0  0  0
  151.5006  138.7635  158.4014 H   0  0  0  0  0  0  0  0  0  0  0  0
  150.6943  139.9152  159.4639 H   0  0  0  0  0  0  0  0  0  0  0  0
  152.6971  140.6293  157.2701 H   0  0  0  0  0  0  0  0  0  0  0  0
  152.4741  142.9087  157.7718 H   0  0  0  0  0  0  0  0  0  0  0  0
  150.8734  142.7189  158.4499 H   0  0  0  0  0  0  0  0  0  0  0  0
  154.2857  141.2129  159.5061 H   0  0  0  0  0  0  0  0  0  0  0  0
  154.5264  141.7150  162.1776 H   0  0  0  0  0  0  0  0  0  0  0  0
  152.2017  143.1064  162.7613 H   0  0  0  0  0  0  0  0  0  0  0  0
  149.7500  141.0371  157.2057 H   0  0  0  0  0  0  0  0  0  0  0  0
  149.6675  140.0457  153.7557 H   0  0  0  0  0  0  0  0  0  0  0  0
  148.7888  142.3051  155.6151 H   0  0  0  0  0  0  0  0  0  0  0  0
  149.5897  142.4685  154.0701 H   0  0  0  0  0  0  0  0  0  0  0  0
  147.1658  142.8662  153.8120 H   0  0  0  0  0  0  0  0  0  0  0  0
  147.6246  141.4568  152.9138 H   0  0  0  0  0  0  0  0  0  0  0  0
  144.5907  143.0743  156.0287 H   0  0  0  0  0  0  0  0  0  0  0  0
  145.8992  143.3022  154.8861 H   0  0  0  0  0  0  0  0  0  0  0  0
  146.3256  138.8913  155.0966 H   0  0  0  0  0  0  0  0  0  0  0  0
  147.1570  139.2532  153.6135 H   0  0  0  0  0  0  0  0  0  0  0  0
  148.7535  138.4321  155.3458 H   0  0  0  0  0  0  0  0  0  0  0  0
  148.2494  139.6982  156.4394 H   0  0  0  0  0  0  0  0  0  0  0  0
  1  2  1  0  0  0  0
  1 21  1  0  0  0  0
  1 22  1  0  0  0  0
  1 23  1  0  0  0  0
  2  3  1  0  0  0  0
  2  9  1  0  0  0  0
  2 24  1  0  0  0  0
  3  4  1  0  0  0  0
  3 25  1  0  0  0  0
  3 26  1  0  0  0  0
  4  8  1  0  0  0  0
  4  5  1  0  0  0  0
  5  6  2  0  0  0  0
  5 27  1  0  0  0  0
  6  7  1  0  0  0  0
  6 28  1  0  0  0  0
  7  8  2  0  0  0  0
  7 29  1  0  0  0  0
  9 10  1  0  0  0  0
  9 30  1  0  0  0  0
 10 11  2  0  0  0  0
 10 12  1  0  0  0  0
 12 20  1  0  0  0  0
 12 13  1  0  0  0  0
 12 31  1  0  0  0  0
 13 14  1  0  0  0  0
 13 32  1  0  0  0  0
 13 33  1  0  0  0  0
 14 15  1  0  0  0  0
 14 34  1  0  0  0  0
 14 35  1  0  0  0  0
 15 16  1  0  0  0  0
 15 19  1  0  0  0  0
 16 17  1  0  0  0  0
 16 18  2  0  0  0  0
 17 36  1  0  0  0  0
 17 37  1  0  0  0  0
 19 20  1  0  0  0  0
 19 38  1  0  0  0  0
 19 39  1  0  0  0  0
 20 40  1  0  0  0  0
 20 41  1  0  0  0  0
M  END
> <s_m_source_file>
AV-unprocessed.smi

> <i_m_source_file_index>
1460

> <i_lp_mmshare_version>
43012

> <i_f3d_flags>
0

> <s_epik_input>
bjFbY0hdW2NIXVtjSF1uMVtDSDJdW0NAQEhdKFtDSDNdKVtOSF1DKD1PKVtDSF0yW0NIMl1bQ0gyXU4oQyg9TylbTkgyXSlbQ0gyXVtDSDJdMg==

> <s_epik_cmdline>
J2VwaWtfcHl0aG9uJywgJy1waCcsICc3LjAnLCAnLXRuJywgJzgnLCAnLW1hJywgJzIwMCcsICctbWV0YWxfYmluZGluZycsICctaW1hZScsICc8aW5maWxlLm1hZT4nLCAnLW9tYWUnLCAnPG91dGZpbGUubWFlPic=

> <r_lp_tautomer_probability>
1

> <r_epik_Ionization_Penalty>
0.000387527

> <r_epik_Ionization_Penalty_Charging>
0

> <r_epik_Ionization_Penalty_Neutral>
0.000387527

> <r_epik_State_Penalty>
-0

> <r_epik_Charging_Adjusted_Penalty>
0

> <i_epik_Tot_Q>
0

> <i_epik_Tot_abs_Q>
0

> <r_epik_Metal_State_Penalty>
-0

> <b_epik_Metal_Only>
0

> <s_lp_Force_Field>
OPLS_2005

> <r_lp_Energy>
26.2675

> <b_lp_Chiralities_Consistent>
1

> <s_lp_Variant>
AV-unprocessed.smi:1460-1

> <Gold.Version>
5.8.1

> <Gold.Id.Protein>
6NUR|6NUR_protein|mol2

> <Gold.PLP.Fitness>
40.1361

> <Gold.PLP.PLP>
-38.2572

> <Gold.PLP.part.hbond>
-1.8192

> <Gold.PLP.part.metal>
0.0000

> <Gold.PLP.part.buried>
-3.8049

> <Gold.PLP.part.nonpolar>
-32.1368

> <Gold.PLP.part.repulsive>
0.2357

> <Gold.PLP.ligand.clash>
0.0000

> <Gold.PLP.ligand.torsion>
0.4874

> <Gold.PLP.Chemscore.Hbond>
0.9280

> <Gold.PLP.Chemscore.CHOScore>
0.0000

> <Gold.PLP.Chemscore.Metal>
0.0000

> <Gold.Chemscore.Hbonds>
donor molecule, donor type, donor heavy atom, donor atom, acceptor molecule, acceptor atom, score
      P1  H  7989  7998       L1    11  0.93

> <Gold.PLP.Chemscore.Internal.Correction>
0.0696

> <Gold.Rescore>
     Score         DG    S(hbond)    S(metal)    S(lipo)     H(rot)  DE(clash)    DE(int)     intcor
     11.78     -12.42       0.77        0.00      77.03       1.82       0.19       0.45       ----

> <Gold.Chemscore.Fitness>
11.7766

> <Gold.Chemscore.DG>
-12.4162

> <Gold.Chemscore.ZeroCoef>
-5.4800

> <Gold.Chemscore.Hbond>
0.7737

> <Gold.Chemscore.Metal>
0.0000

> <Gold.Chemscore.Lipo>
77.0328

> <Gold.Chemscore.Internal_Hbond>
0.0000

> <Gold.Chemscore.DEClash>
0.1915

> <Gold.Chemscore.DEInternal>
0.4481

> <Gold.Chemscore.Rot>
1.8206

> <Gold.Chemscore.Internal.Correction>
   9.000000E+99

> <Gold.Chemscore.Hbonds>
donor molecule, donor type, donor heavy atom, donor atom, acceptor molecule, acceptor atom, score
      P1  H  7989  7998       L1    11  0.23

> <Gold.Chemscore.Hbond.Weighted>
-2.5840

> <Gold.Chemscore.Metal.Weighted>
-0.0000

> <Gold.Chemscore.Lipo.Weighted>
-9.0128

> <Gold.Chemscore.Internal_Hbond.Weighted>
0.0000

> <Gold.Chemscore.DEClash.Weighted>
0.1915

> <Gold.Chemscore.DEInternal.Weighted>
0.4481

> <Gold.Chemscore.Rot.Weighted>
4.6607

> <Gold.Chemscore.Internal.Correction.Weighted>
   9.000000E+99

> <Gold.Protein.RotatedTorsions>
[ 6907 6896 6895 6894 ] final  -58.00 input  -60.11 | X-H torsion
[ 7974 7965 7964 7962 ] final   93.17 input  175.53 | X-H torsion
[ 8008 7997 7996 7995 ] final  142.97 input   59.86 | X-H torsion
[ 10167 10162 10161 10158 ] final  -29.88 input  -65.29 | X-H torsion
[ 10718 10713 10712 10709 ] final   37.82 input   66.30 | X-H torsion
[ 10763 10752 10751 10750 ] final -172.11 input  -60.55 | X-H torsion
[ 11005 11000 10999 10996 ] final   65.34 input  -57.11 | X-H torsion

> <Gold.Protein.ActiveResidues>
 VAL166  LYS551  ARG553  GLY616  TRP617  ASP618  TYR619  PRO620  LYS621  CYS622 
 ASP623  PHE694  ASN695  SER759  ASP760  ASP761  ALA762  ILE779  LEU786  VAL792 
 PHE793  MET794  SER795  GLU796  ALA797  LYS798  CYS799  TRP800  GLU811  SER814 

> <Gold.Protein.RotatedAtoms>
  150.8041  134.7155  159.6627 H   0  0  0  0  0  0  0  0  0  0  0  0  # atno 6907 bound_to 6896
  152.4160  134.6038  160.0017 H   0  0  0  0  0  0  0  0  0  0  0  0  # atno 6908 bound_to 6896
  151.6267  133.3298  159.3136 H   0  0  0  0  0  0  0  0  0  0  0  0  # atno 6909 bound_to 6896
  145.4825  139.2278  143.2875 H   0  0  0  0  0  0  0  0  0  0  0  0  # atno 7974 bound_to 7965
  156.2939  140.2274  156.4815 H   0  0  0  0  0  0  0  0  0  0  0  0  # atno 8008 bound_to 7997
  154.7849  140.0458  157.1177 H   0  0  0  0  0  0  0  0  0  0  0  0  # atno 8009 bound_to 7997
  154.9714  140.3067  155.4989 H   0  0  0  0  0  0  0  0  0  0  0  0  # atno 8010 bound_to 7997
  140.7256  143.3893  151.1458 H   0  0  0  0  0  0  0  0  0  0  0  0  # atno 10167 bound_to 10162
  157.3515  130.7601  149.6982 H   0  0  0  0  0  0  0  0  0  0  0  0  # atno 10718 bound_to 10713
  154.6230  135.2877  155.0304 H   0  0  0  0  0  0  0  0  0  0  0  0  # atno 10763 bound_to 10752
  154.1492  135.6506  153.4963 H   0  0  0  0  0  0  0  0  0  0  0  0  # atno 10764 bound_to 10752
  153.0244  135.5351  154.7027 H   0  0  0  0  0  0  0  0  0  0  0  0  # atno 10765 bound_to 10752
  139.9901  134.6605  156.0106 H   0  0  0  0  0  0  0  0  0  0  0  0  # atno 11005 bound_to 11000
  146.2333  140.5612  142.8966 LP  0  0  0  0  0  0  0  0  0  0  0  0  # atno 17320 bound_to 7965
  144.7881  140.5976  143.6560 LP  0  0  0  0  0  0  0  0  0  0  0  0  # atno 17321 bound_to 7965
  139.7495  143.8800  152.3073 LP  0  0  0  0  0  0  0  0  0  0  0  0  # atno 17342 bound_to 10162
  139.8649  144.7098  150.9056 LP  0  0  0  0  0  0  0  0  0  0  0  0  # atno 17343 bound_to 10162
  155.9722  130.4139  150.4106 LP  0  0  0  0  0  0  0  0  0  0  0  0  # atno 17370 bound_to 10713
  157.2169  131.0473  151.2568 LP  0  0  0  0  0  0  0  0  0  0  0  0  # atno 17371 bound_to 10713
  141.1558  133.6543  156.4158 LP  0  0  0  0  0  0  0  0  0  0  0  0  # atno 17394 bound_to 11000
  140.4925  134.6562  157.5216 LP  0  0  0  0  0  0  0  0  0  0  0  0  # atno 17395 bound_to 11000

$$$$
