AV-unprocessed.smi:3255|AV-procd|sdf|12462|dock2
  -GOLD-   2272018363D 1   1.00000     0.00000
 Structure written by MMmdl.
 38 39  0  0  0  0  0  0  0  0  1 V2000
  148.0113  140.4450  153.8036 C   0  0  0  0  0  0  0  0  0  0  0  0
  148.5930  139.0893  154.2294 C   0  0  1  0  0  0  0  0  0  0  0  0
  147.9866  138.0308  153.4231 N   0  0  0  0  0  0  0  0  0  0  0  0
  146.6713  137.8078  153.2938 C   0  0  0  0  0  0  0  0  0  0  0  0
  145.7966  138.4997  153.8153 O   0  0  0  0  0  0  0  0  0  0  0  0
  146.4218  136.7277  152.5411 N   0  0  0  0  0  0  0  0  0  0  0  0
  145.0914  136.2025  152.2595 C   0  0  0  0  0  0  0  0  0  0  0  0
  144.9486  135.7973  150.7833 C   0  0  0  0  0  0  0  0  0  0  0  0
  144.4847  134.4315  150.6523 N   0  0  0  0  0  0  0  0  0  0  0  0
  144.2658  133.7324  149.4728 C   0  0  0  0  0  0  0  0  0  0  0  0
  143.8367  132.4755  149.8353 C   0  0  0  0  0  0  0  0  0  0  0  0
  143.7859  132.3798  151.2242 N   0  0  0  0  0  0  0  0  0  0  0  0
  144.1836  133.5760  151.6383 C   0  0  0  0  0  0  0  0  0  0  0  0
  150.1371  139.0713  154.1358 C   0  0  2  0  0  0  0  0  0  0  0  0
  150.8364  137.8097  154.6625 C   0  0  0  0  0  0  0  0  0  0  0  0
  152.1713  138.3570  155.1137 C   0  0  0  0  0  0  0  0  0  0  0  0
  151.7609  139.7040  155.6953 C   0  0  0  0  0  0  0  0  0  0  0  0
  150.7073  140.1638  154.8564 O   0  0  0  0  0  0  0  0  0  0  0  0
  148.4193  141.2541  154.4099 H   0  0  0  0  0  0  0  0  0  0  0  0
  146.9275  140.4614  153.9223 H   0  0  0  0  0  0  0  0  0  0  0  0
  148.2348  140.6668  152.7595 H   0  0  0  0  0  0  0  0  0  0  0  0
  148.3156  138.9398  155.2746 H   0  0  0  0  0  0  0  0  0  0  0  0
  148.6211  137.4028  152.9524 H   0  0  0  0  0  0  0  0  0  0  0  0
  147.2054  136.2227  152.1535 H   0  0  0  0  0  0  0  0  0  0  0  0
  144.8794  135.3540  152.9125 H   0  0  0  0  0  0  0  0  0  0  0  0
  144.3614  136.9738  152.5064 H   0  0  0  0  0  0  0  0  0  0  0  0
  144.2456  136.4562  150.2715 H   0  0  0  0  0  0  0  0  0  0  0  0
  145.9032  135.8862  150.2624 H   0  0  0  0  0  0  0  0  0  0  0  0
  144.4306  134.1747  148.5012 H   0  0  0  0  0  0  0  0  0  0  0  0
  143.5642  131.6392  149.2085 H   0  0  0  0  0  0  0  0  0  0  0  0
  144.2600  133.8351  152.6842 H   0  0  0  0  0  0  0  0  0  0  0  0
  150.4310  139.2178  153.0954 H   0  0  0  0  0  0  0  0  0  0  0  0
  150.3136  137.3841  155.5192 H   0  0  0  0  0  0  0  0  0  0  0  0
  150.9297  137.0311  153.9051 H   0  0  0  0  0  0  0  0  0  0  0  0
  152.6784  137.7159  155.8351 H   0  0  0  0  0  0  0  0  0  0  0  0
  152.8304  138.5006  154.2564 H   0  0  0  0  0  0  0  0  0  0  0  0
  151.3709  139.5790  156.7067 H   0  0  0  0  0  0  0  0  0  0  0  0
  152.5847  140.4168  155.7334 H   0  0  0  0  0  0  0  0  0  0  0  0
  1  2  1  0  0  0  0
  1 19  1  0  0  0  0
  1 20  1  0  0  0  0
  1 21  1  0  0  0  0
  2  3  1  0  0  0  0
  2 14  1  0  0  0  0
  2 22  1  0  0  0  0
  3  4  1  0  0  0  0
  3 23  1  0  0  0  0
  4  5  2  0  0  0  0
  4  6  1  0  0  0  0
  6  7  1  0  0  0  0
  6 24  1  0  0  0  0
  7  8  1  0  0  0  0
  7 25  1  0  0  0  0
  7 26  1  0  0  0  0
  8  9  1  0  0  0  0
  8 27  1  0  0  0  0
  8 28  1  0  0  0  0
  9 13  1  0  0  0  0
  9 10  1  0  0  0  0
 10 11  2  0  0  0  0
 10 29  1  0  0  0  0
 11 12  1  0  0  0  0
 11 30  1  0  0  0  0
 12 13  2  0  0  0  0
 13 31  1  0  0  0  0
 14 18  1  0  0  0  0
 14 15  1  0  0  0  0
 14 32  1  0  0  0  0
 15 16  1  0  0  0  0
 15 33  1  0  0  0  0
 15 34  1  0  0  0  0
 16 17  1  0  0  0  0
 16 35  1  0  0  0  0
 16 36  1  0  0  0  0
 17 18  1  0  0  0  0
 17 37  1  0  0  0  0
 17 38  1  0  0  0  0
M  END
> <s_m_source_file>
AV-unprocessed.smi

> <i_m_source_file_index>
3255

> <i_lp_mmshare_version>
43012

> <i_f3d_flags>
0

> <s_epik_input>
TzFbQ0gyXVtDSDJdW0NIMl1bQ0BIXTFbQ0BIXShbQ0gzXSlbTkhdQyg9TylbTkhdW0NIMl1bQ0gyXW4yW2NIXVtjSF1uW2NIXTI=

> <s_epik_cmdline>
J2VwaWtfcHl0aG9uJywgJy1waCcsICc3LjAnLCAnLXRuJywgJzgnLCAnLW1hJywgJzIwMCcsICctbWV0YWxfYmluZGluZycsICctaW1hZScsICc8aW5maWxlLm1hZT4nLCAnLW9tYWUnLCAnPG91dGZpbGUubWFlPic=

> <r_lp_tautomer_probability>
1

> <r_epik_Ionization_Penalty>
0.620274

> <r_epik_Ionization_Penalty_Charging>
0.620225

> <r_epik_Ionization_Penalty_Neutral>
4.91362e-05

> <r_epik_State_Penalty>
0.636186

> <r_epik_Charging_Adjusted_Penalty>
1.25641

> <i_epik_Tot_Q>
0

> <i_epik_Tot_abs_Q>
0

> <r_epik_Metal_State_Penalty>
0.306491

> <b_epik_Metal_Only>
0

> <s_lp_Force_Field>
OPLS_2005

> <r_lp_Energy>
18.9252

> <b_lp_Chiralities_Consistent>
1

> <s_lp_Variant>
AV-unprocessed.smi:3255-6

> <Gold.Version>
5.8.1

> <Gold.Id.Protein>
6NUR|6NUR_protein|mol2

> <Gold.PLP.Fitness>
43.6547

> <Gold.PLP.PLP>
-33.2587

> <Gold.PLP.part.hbond>
-3.0000

> <Gold.PLP.part.metal>
0.0000

> <Gold.PLP.part.buried>
-0.7509

> <Gold.PLP.part.nonpolar>
-29.9122

> <Gold.PLP.part.repulsive>
0.4980

> <Gold.PLP.ligand.clash>
0.0000

> <Gold.PLP.ligand.torsion>
0.5178

> <Gold.PLP.Chemscore.Hbond>
2.7990

> <Gold.PLP.Chemscore.CHOScore>
1.0000

> <Gold.PLP.Chemscore.Metal>
0.0000

> <Gold.Chemscore.Hbonds>
donor molecule, donor type, donor heavy atom, donor atom, acceptor molecule, acceptor atom, score
      L1  H     3    23       P1  7948  1.00
      L1  H     6    24       P1  7948  0.93
      P1  H  7989  7998       L1    18  0.85
      L1  C    10    29       P1  7921  0.93

> <Gold.PLP.Chemscore.Internal.Correction>
0.0346

> <Gold.Rescore>
     Score         DG    S(hbond)    S(metal)    S(lipo)     H(rot)  DE(clash)    DE(int)     intcor
     13.30     -14.85       1.92        0.00      73.01       2.18       0.02       1.53       ----

> <Gold.Chemscore.Fitness>
13.2978

> <Gold.Chemscore.DG>
-14.8523

> <Gold.Chemscore.ZeroCoef>
-5.4800

> <Gold.Chemscore.Hbond>
1.9217

> <Gold.Chemscore.Metal>
0.0000

> <Gold.Chemscore.Lipo>
73.0093

> <Gold.Chemscore.Internal_Hbond>
0.0000

> <Gold.Chemscore.DEClash>
0.0228

> <Gold.Chemscore.DEInternal>
1.5318

> <Gold.Chemscore.Rot>
2.1828

> <Gold.Chemscore.Internal.Correction>
   9.000000E+99

> <Gold.Chemscore.Hbonds>
donor molecule, donor type, donor heavy atom, donor atom, acceptor molecule, acceptor atom, score
      L1  H     3    23       P1  7948  0.96
      L1  H     6    24       P1  7948  0.91
      P1  H  7989  7998       L1    18  0.04

> <Gold.Chemscore.Hbond.Weighted>
-6.4183

> <Gold.Chemscore.Metal.Weighted>
-0.0000

> <Gold.Chemscore.Lipo.Weighted>
-8.5421

> <Gold.Chemscore.Internal_Hbond.Weighted>
0.0000

> <Gold.Chemscore.DEClash.Weighted>
0.0228

> <Gold.Chemscore.DEInternal.Weighted>
1.5318

> <Gold.Chemscore.Rot.Weighted>
5.5881

> <Gold.Chemscore.Internal.Correction.Weighted>
   9.000000E+99

> <Gold.Protein.RotatedTorsions>
[ 6907 6896 6895 6894 ] final  171.05 input  -60.11 | X-H torsion
[ 7974 7965 7964 7962 ] final  149.43 input  175.53 | X-H torsion
[ 8008 7997 7996 7995 ] final  -79.04 input   59.86 | X-H torsion
[ 10167 10162 10161 10158 ] final  155.62 input  -65.29 | X-H torsion
[ 10718 10713 10712 10709 ] final  164.25 input   66.30 | X-H torsion
[ 10763 10752 10751 10750 ] final   91.94 input  -60.55 | X-H torsion
[ 11005 11000 10999 10996 ] final  156.31 input  -57.11 | X-H torsion

> <Gold.Protein.ActiveResidues>
 VAL166  LYS551  ARG553  GLY616  TRP617  ASP618  TYR619  PRO620  LYS621  CYS622 
 ASP623  PHE694  ASN695  SER759  ASP760  ASP761  ALA762  ILE779  LEU786  VAL792 
 PHE793  MET794  SER795  GLU796  ALA797  LYS798  CYS799  TRP800  GLU811  SER814 

> <Gold.Protein.RotatedAtoms>
  151.8064  133.3376  159.3541 H   0  0  0  0  0  0  0  0  0  0  0  0  # atno 6907 bound_to 6896
  150.7341  134.5705  159.5897 H   0  0  0  0  0  0  0  0  0  0  0  0  # atno 6908 bound_to 6896
  152.3106  134.7503  160.0388 H   0  0  0  0  0  0  0  0  0  0  0  0  # atno 6909 bound_to 6896
  144.8438  139.6280  143.6004 H   0  0  0  0  0  0  0  0  0  0  0  0  # atno 7974 bound_to 7965
  154.5746  140.0685  156.9015 H   0  0  0  0  0  0  0  0  0  0  0  0  # atno 8008 bound_to 7997
  155.2572  140.3356  155.4258 H   0  0  0  0  0  0  0  0  0  0  0  0  # atno 8009 bound_to 7997
  156.2144  140.1772  156.7607 H   0  0  0  0  0  0  0  0  0  0  0  0  # atno 8010 bound_to 7997
  139.4821  144.5082  151.8065 H   0  0  0  0  0  0  0  0  0  0  0  0  # atno 10167 bound_to 10162
  157.0970  131.0433  151.2513 H   0  0  0  0  0  0  0  0  0  0  0  0  # atno 10718 bound_to 10713
  153.2137  135.4379  155.0409 H   0  0  0  0  0  0  0  0  0  0  0  0  # atno 10763 bound_to 10752
  154.8214  135.3339  154.7031 H   0  0  0  0  0  0  0  0  0  0  0  0  # atno 10764 bound_to 10752
  153.7467  135.7001  153.5010 H   0  0  0  0  0  0  0  0  0  0  0  0  # atno 10765 bound_to 10752
  140.1663  134.8574  157.2636 H   0  0  0  0  0  0  0  0  0  0  0  0  # atno 11005 bound_to 11000
  146.2726  139.6674  142.9285 LP  0  0  0  0  0  0  0  0  0  0  0  0  # atno 17320 bound_to 7965
  145.4638  141.0434  143.2736 LP  0  0  0  0  0  0  0  0  0  0  0  0  # atno 17321 bound_to 7965
  140.4582  144.1759  150.5903 LP  0  0  0  0  0  0  0  0  0  0  0  0  # atno 17342 bound_to 10162
  140.4512  143.2486  151.9345 LP  0  0  0  0  0  0  0  0  0  0  0  0  # atno 17343 bound_to 10162
  157.4673  130.7688  149.7290 LP  0  0  0  0  0  0  0  0  0  0  0  0  # atno 17370 bound_to 10713
  155.9883  130.3960  150.3124 LP  0  0  0  0  0  0  0  0  0  0  0  0  # atno 17371 bound_to 10713
  140.2430  134.3773  155.7473 LP  0  0  0  0  0  0  0  0  0  0  0  0  # atno 17394 bound_to 11000
  141.2214  133.7275  156.8819 LP  0  0  0  0  0  0  0  0  0  0  0  0  # atno 17395 bound_to 11000

$$$$
