AV-unprocessed.smi:9|AV-procd|sdf|52|dock9
  -GOLD-   2262015173D 1   1.00000     0.00000
 Structure written by MMmdl.
 35 37  0  0  0  0  0  0  0  0  1 V2000
  150.5213  133.3525  157.5162 O   0  0  0  0  0  0  0  0  0  0  0  0
  150.2911  132.6778  156.5150 C   0  0  0  0  0  0  0  0  0  0  0  0
  150.7748  131.4261  156.3250 N   0  0  0  0  0  0  0  0  0  0  0  0
  150.5041  130.6513  155.1679 C   0  0  0  0  0  0  0  0  0  0  0  0
  151.1836  129.2932  155.2453 C   0  0  0  0  0  0  0  0  0  0  0  0
  152.1993  129.2127  154.3846 F   0  0  0  0  0  0  0  0  0  0  0  0
  151.6616  129.0809  156.4717 F   0  0  0  0  0  0  0  0  0  0  0  0
  150.3182  128.3209  154.9558 F   0  0  0  0  0  0  0  0  0  0  0  0
  149.7722  131.0222  154.1487 N   0  0  0  0  0  0  0  0  0  0  0  0
  149.2737  132.2981  154.3209 C   0  0  0  0  0  0  0  0  0  0  0  0
  149.4540  133.1457  155.3827 C   0  0  0  0  0  0  0  0  0  0  0  0
  148.7818  134.3464  155.1905 N   0  0  0  0  0  0  0  0  0  0  0  0
  148.2176  134.1673  153.9979 C   0  0  0  0  0  0  0  0  0  0  0  0
  148.4715  132.9808  153.4122 N   0  0  0  0  0  0  0  0  0  0  0  0
  147.9896  132.5203  152.1171 C   0  0  0  0  0  0  0  0  0  0  0  0
  146.4541  132.6294  151.9309 C   0  0  2  0  0  0  0  0  0  0  0  0
  145.8506  132.2274  153.1468 O   0  0  0  0  0  0  0  0  0  0  0  0
  145.9415  131.7279  150.7857 C   0  0  0  0  0  0  0  0  0  0  0  0
  144.4828  132.0334  150.4310 C   0  0  0  0  0  0  0  0  0  0  0  0
  144.3027  133.5348  150.1817 C   0  0  0  0  0  0  0  0  0  0  0  0
  144.6838  134.2487  151.3495 O   0  0  0  0  0  0  0  0  0  0  0  0
  146.0607  134.1066  151.6902 C   0  0  0  0  0  0  0  0  0  0  0  0
  151.3565  131.0291  157.0484 H   0  0  0  0  0  0  0  0  0  0  0  0
  147.6052  134.9254  153.5317 H   0  0  0  0  0  0  0  0  0  0  0  0
  148.5080  133.0805  151.3376 H   0  0  0  0  0  0  0  0  0  0  0  0
  148.3026  131.4822  151.9971 H   0  0  0  0  0  0  0  0  0  0  0  0
  145.1934  132.8660  153.3780 H   0  0  0  0  0  0  0  0  0  0  0  0
  146.5551  131.8926  149.8989 H   0  0  0  0  0  0  0  0  0  0  0  0
  146.0459  130.6724  151.0396 H   0  0  0  0  0  0  0  0  0  0  0  0
  144.1856  131.4663  149.5485 H   0  0  0  0  0  0  0  0  0  0  0  0
  143.8270  131.7152  151.2421 H   0  0  0  0  0  0  0  0  0  0  0  0
  144.8901  133.8667  149.3242 H   0  0  0  0  0  0  0  0  0  0  0  0
  143.2586  133.7551  149.9593 H   0  0  0  0  0  0  0  0  0  0  0  0
  146.2712  134.7115  152.5733 H   0  0  0  0  0  0  0  0  0  0  0  0
  146.6585  134.5278  150.8803 H   0  0  0  0  0  0  0  0  0  0  0  0
  1  2  2  0  0  0  0
  2 11  1  0  0  0  0
  2  3  1  0  0  0  0
  3 23  1  0  0  0  0
  3  4  1  0  0  0  0
  4  5  1  0  0  0  0
  4  9  2  0  0  0  0
  5  6  1  0  0  0  0
  5  7  1  0  0  0  0
  5  8  1  0  0  0  0
  9 10  1  0  0  0  0
 10 14  1  0  0  0  0
 10 11  2  0  0  0  0
 11 12  1  0  0  0  0
 12 13  2  0  0  0  0
 13 14  1  0  0  0  0
 13 24  1  0  0  0  0
 14 15  1  0  0  0  0
 15 16  1  0  0  0  0
 15 25  1  0  0  0  0
 15 26  1  0  0  0  0
 16 22  1  0  0  0  0
 16 17  1  0  0  0  0
 16 18  1  0  0  0  0
 17 27  1  0  0  0  0
 18 19  1  0  0  0  0
 18 28  1  0  0  0  0
 18 29  1  0  0  0  0
 19 20  1  0  0  0  0
 19 30  1  0  0  0  0
 19 31  1  0  0  0  0
 20 21  1  0  0  0  0
 20 32  1  0  0  0  0
 20 33  1  0  0  0  0
 21 22  1  0  0  0  0
 22 34  1  0  0  0  0
 22 35  1  0  0  0  0
M  END
> <s_m_source_file>
AV-unprocessed.smi

> <i_m_source_file_index>
9

> <i_lp_mmshare_version>
43012

> <i_f3d_flags>
0

> <s_epik_input>
RkMoRikoRiljKG4xKVtuSF1jKD1PKWMoYzEyKW5bY0hdbjJbQ0gyXVtDQEBdMyhbT0hdKVtDSDJdW0NIMl1bQ0gyXU9bQ0gyXTM=

> <s_epik_cmdline>
J2VwaWtfcHl0aG9uJywgJy1waCcsICc3LjAnLCAnLXRuJywgJzgnLCAnLW1hJywgJzIwMCcsICctbWV0YWxfYmluZGluZycsICctaW1hZScsICc8aW5maWxlLm1hZT4nLCAnLW9tYWUnLCAnPG91dGZpbGUubWFlPic=

> <r_lp_tautomer_probability>
0.85571

> <r_epik_Ionization_Penalty>
0.770127

> <r_epik_Ionization_Penalty_Charging>
0.770101

> <r_epik_Ionization_Penalty_Neutral>
2.64604e-05

> <r_epik_State_Penalty>
2.30539

> <r_epik_Charging_Adjusted_Penalty>
3.07549

> <i_epik_Tot_Q>
0

> <i_epik_Tot_abs_Q>
0

> <r_epik_Metal_State_Penalty>
2.4903

> <b_epik_Metal_Only>
0

> <s_lp_Force_Field>
OPLS_2005

> <r_lp_Energy>
27.1686

> <b_lp_Chiralities_Consistent>
1

> <s_lp_Variant>
AV-unprocessed.smi:9-4

> <Gold.Version>
5.8.1

> <Gold.Id.Protein>
6NUR|6NUR_protein|mol2

> <Gold.PLP.Fitness>
34.4695

> <Gold.PLP.PLP>
-31.1251

> <Gold.PLP.part.hbond>
-1.0000

> <Gold.PLP.part.metal>
0.0000

> <Gold.PLP.part.buried>
1.1510

> <Gold.PLP.part.nonpolar>
-31.1974

> <Gold.PLP.part.repulsive>
0.3088

> <Gold.PLP.ligand.clash>
0.0000

> <Gold.PLP.ligand.torsion>
0.6089

> <Gold.PLP.Chemscore.Hbond>
0.9920

> <Gold.PLP.Chemscore.CHOScore>
0.5269

> <Gold.PLP.Chemscore.Metal>
0.0000

> <Gold.Chemscore.Hbonds>
donor molecule, donor type, donor heavy atom, donor atom, acceptor molecule, acceptor atom, score
      P1  H  6896  6907       L1     1  0.99
      L1  C    13    24       P1  7948  0.59

> <Gold.PLP.Chemscore.Internal.Correction>
0.0054

> <Gold.Rescore>
     Score         DG    S(hbond)    S(metal)    S(lipo)     H(rot)  DE(clash)    DE(int)     intcor
      8.50      -9.48       1.00        0.00      52.40       2.14       0.18       0.80       ----

> <Gold.Chemscore.Fitness>
8.4986

> <Gold.Chemscore.DG>
-9.4795

> <Gold.Chemscore.ZeroCoef>
-5.4800

> <Gold.Chemscore.Hbond>
1.0000

> <Gold.Chemscore.Metal>
0.0000

> <Gold.Chemscore.Lipo>
52.4009

> <Gold.Chemscore.Internal_Hbond>
0.0000

> <Gold.Chemscore.DEClash>
0.1797

> <Gold.Chemscore.DEInternal>
0.8011

> <Gold.Chemscore.Rot>
2.1373

> <Gold.Chemscore.Internal.Correction>
   9.000000E+99

> <Gold.Chemscore.Hbonds>
donor molecule, donor type, donor heavy atom, donor atom, acceptor molecule, acceptor atom, score
      P1  H  6896  6907       L1     1  0.94

> <Gold.Chemscore.Hbond.Weighted>
-3.3399

> <Gold.Chemscore.Metal.Weighted>
-0.0000

> <Gold.Chemscore.Lipo.Weighted>
-6.1309

> <Gold.Chemscore.Internal_Hbond.Weighted>
0.0000

> <Gold.Chemscore.DEClash.Weighted>
0.1797

> <Gold.Chemscore.DEInternal.Weighted>
0.8011

> <Gold.Chemscore.Rot.Weighted>
5.4714

> <Gold.Chemscore.Internal.Correction.Weighted>
   9.000000E+99

> <Gold.Protein.RotatedTorsions>
[ 6907 6896 6895 6894 ] final -134.01 input  -60.11 | X-H torsion
[ 7974 7965 7964 7962 ] final -168.86 input  175.53 | X-H torsion
[ 8008 7997 7996 7995 ] final    4.93 input   59.86 | X-H torsion
[ 10167 10162 10161 10158 ] final  142.65 input  -65.29 | X-H torsion
[ 10718 10713 10712 10709 ] final -149.54 input   66.30 | X-H torsion
[ 10763 10752 10751 10750 ] final -169.49 input  -60.55 | X-H torsion
[ 11005 11000 10999 10996 ] final  106.48 input  -57.11 | X-H torsion

> <Gold.Protein.ActiveResidues>
 VAL166  LYS551  ARG553  GLY616  TRP617  ASP618  TYR619  PRO620  LYS621  CYS622 
 ASP623  PHE694  ASN695  SER759  ASP760  ASP761  ALA762  ILE779  LEU786  VAL792 
 PHE793  MET794  SER795  GLU796  ALA797  LYS798  CYS799  TRP800  GLU811  SER814 

> <Gold.Protein.RotatedAtoms>
  150.9808  133.6248  159.2722 H   0  0  0  0  0  0  0  0  0  0  0  0  # atno 6907 bound_to 6896
  151.3503  135.0882  159.9410 H   0  0  0  0  0  0  0  0  0  0  0  0  # atno 6908 bound_to 6896
  152.5215  133.9402  159.7677 H   0  0  0  0  0  0  0  0  0  0  0  0  # atno 6909 bound_to 6896
  144.7195  140.2307  143.6304 H   0  0  0  0  0  0  0  0  0  0  0  0  # atno 7974 bound_to 7965
  154.7220  140.2713  155.6532 H   0  0  0  0  0  0  0  0  0  0  0  0  # atno 8008 bound_to 7997
  156.2826  140.2732  156.1820 H   0  0  0  0  0  0  0  0  0  0  0  0  # atno 8009 bound_to 7997
  155.0494  140.0371  157.2528 H   0  0  0  0  0  0  0  0  0  0  0  0  # atno 8010 bound_to 7997
  139.4989  144.6092  151.6309 H   0  0  0  0  0  0  0  0  0  0  0  0  # atno 10167 bound_to 10162
  156.4345  130.8091  151.2319 H   0  0  0  0  0  0  0  0  0  0  0  0  # atno 10718 bound_to 10713
  154.6518  135.2912  154.9978 H   0  0  0  0  0  0  0  0  0  0  0  0  # atno 10763 bound_to 10752
  154.1068  135.6568  153.4882 H   0  0  0  0  0  0  0  0  0  0  0  0  # atno 10764 bound_to 10752
  153.0380  135.5255  154.7429 H   0  0  0  0  0  0  0  0  0  0  0  0  # atno 10765 bound_to 10752
  139.8814  134.9370  156.5672 H   0  0  0  0  0  0  0  0  0  0  0  0  # atno 11005 bound_to 11000
  145.8414  139.2131  143.1825 LP  0  0  0  0  0  0  0  0  0  0  0  0  # atno 17320 bound_to 7965
  146.0343  140.8227  142.9860 LP  0  0  0  0  0  0  0  0  0  0  0  0  # atno 17321 bound_to 7965
  140.5763  144.0023  150.6243 LP  0  0  0  0  0  0  0  0  0  0  0  0  # atno 17342 bound_to 10162
  140.3158  143.3169  152.0834 LP  0  0  0  0  0  0  0  0  0  0  0  0  # atno 17343 bound_to 10162
  157.7507  131.0188  150.3640 LP  0  0  0  0  0  0  0  0  0  0  0  0  # atno 17370 bound_to 10713
  156.3984  130.3911  149.6977 LP  0  0  0  0  0  0  0  0  0  0  0  0  # atno 17371 bound_to 10713
  140.8125  133.8418  155.8822 LP  0  0  0  0  0  0  0  0  0  0  0  0  # atno 17394 bound_to 11000
  140.9493  134.1799  157.4740 LP  0  0  0  0  0  0  0  0  0  0  0  0  # atno 17395 bound_to 11000

$$$$
