AV-unprocessed.smi:2999|AV-procd|sdf|11426|dock4
  -GOLD-   2272016353D 1   1.00000     0.00000
 Structure written by MMmdl.
 37 39  0  0  0  0  0  0  0  0  3 V2000
  151.2460  136.7681  160.0461 O   0  0  0  0  0  0  0  0  0  0  0  0
  150.0346  136.7413  159.8184 C   0  0  0  0  0  0  0  0  0  0  0  0
  149.5868  136.3700  158.6115 N   0  0  0  0  0  0  0  0  0  0  0  0
  150.4096  136.0297  157.4542 C   0  0  0  0  0  0  0  0  0  0  0  0
  150.2094  134.5757  156.9772 C   0  0  1  0  0  0  0  0  0  0  0  0
  151.1495  134.1639  155.8183 C   0  0  0  0  0  0  0  0  0  0  0  0
  150.9619  132.7427  155.4439 N   0  3  2  0  0  0  0  0  0  0  0  0
  149.7475  132.5021  154.6304 C   0  0  0  0  0  0  0  0  0  0  0  0
  149.8624  131.3093  153.7104 C   0  0  0  0  0  0  0  0  0  0  0  0
  149.9611  132.7103  153.1494 C   0  0  0  0  0  0  0  0  0  0  0  0
  151.0593  131.8643  156.6335 C   0  0  0  0  0  0  0  0  0  0  0  0
  150.1182  132.3372  157.7557 C   0  0  0  0  0  0  0  0  0  0  0  0
  150.3991  133.6924  158.0782 O   0  0  0  0  0  0  0  0  0  0  0  0
  149.0478  137.0669  160.6829 N   0  5  0  0  0  0  0  0  0  0  0  0
  148.2435  136.1103  161.1745 C   0  0  0  0  0  0  0  0  0  0  0  0
  148.1745  134.8793  160.6551 N   0  0  0  0  0  0  0  0  0  0  0  0
  147.2787  134.0437  161.3250 C   0  0  0  0  0  0  0  0  0  0  0  0
  146.6565  134.6508  162.3835 C   0  0  0  0  0  0  0  0  0  0  0  0
  147.1812  136.2997  162.5724 S   0  0  0  0  0  0  0  0  0  0  0  0
  148.5861  136.3515  158.4800 H   0  0  0  0  0  0  0  0  0  0  0  0
  150.2315  136.7303  156.6369 H   0  0  0  0  0  0  0  0  0  0  0  0
  151.4494  136.1686  157.7506 H   0  0  0  0  0  0  0  0  0  0  0  0
  149.1719  134.4861  156.6516 H   0  0  0  0  0  0  0  0  0  0  0  0
  150.9996  134.8065  154.9501 H   0  0  0  0  0  0  0  0  0  0  0  0
  152.1917  134.2844  156.1164 H   0  0  0  0  0  0  0  0  0  0  0  0
  148.7915  132.7521  155.0860 H   0  0  0  0  0  0  0  0  0  0  0  0
  150.7750  130.7170  153.7456 H   0  0  0  0  0  0  0  0  0  0  0  0
  148.9536  130.7502  153.4971 H   0  0  0  0  0  0  0  0  0  0  0  0
  149.1173  133.0754  152.5674 H   0  0  0  0  0  0  0  0  0  0  0  0
  150.9395  133.0478  152.8118 H   0  0  0  0  0  0  0  0  0  0  0  0
  150.8469  130.8303  156.3600 H   0  0  0  0  0  0  0  0  0  0  0  0
  152.0887  131.8860  156.9937 H   0  0  0  0  0  0  0  0  0  0  0  0
  149.0712  132.2266  157.4702 H   0  0  0  0  0  0  0  0  0  0  0  0
  150.2668  131.7286  158.6477 H   0  0  0  0  0  0  0  0  0  0  0  0
  147.1468  133.0292  160.9800 H   0  0  0  0  0  0  0  0  0  0  0  0
  145.9274  134.2322  163.0604 H   0  0  0  0  0  0  0  0  0  0  0  0
  151.7391  132.5010  154.8457 H   0  0  0  0  0  0  0  0  0  0  0  0
  1  2  2  0  0  0  0
  2  3  1  0  0  0  0
  2 14  1  0  0  0  0
  3  4  1  0  0  0  0
  3 20  1  0  0  0  0
  4  5  1  0  0  0  0
  4 21  1  0  0  0  0
  4 22  1  0  0  0  0
  5 13  1  0  0  0  0
  5  6  1  0  0  0  0
  5 23  1  0  0  0  0
  6  7  1  0  0  0  0
  6 24  1  0  0  0  0
  6 25  1  0  0  0  0
  7  8  1  0  0  0  0
  7 11  1  0  0  0  0
  7 37  1  0  0  0  0
  8 10  1  0  0  0  0
  8  9  1  0  0  0  0
  8 26  1  0  0  0  0
  9 10  1  0  0  0  0
  9 27  1  0  0  0  0
  9 28  1  0  0  0  0
 10 29  1  0  0  0  0
 10 30  1  0  0  0  0
 11 12  1  0  0  0  0
 11 31  1  0  0  0  0
 11 32  1  0  0  0  0
 12 13  1  0  0  0  0
 12 33  1  0  0  0  0
 12 34  1  0  0  0  0
 14 15  1  0  0  0  0
 15 19  1  0  0  0  0
 15 16  2  0  0  0  0
 16 17  1  0  0  0  0
 17 18  2  0  0  0  0
 17 35  1  0  0  0  0
 18 19  1  0  0  0  0
 18 36  1  0  0  0  0
M  CHG  1   7   1
M  CHG  1  14  -1
M  END
> <s_m_source_file>
AV-unprocessed.smi

> <i_m_source_file_index>
2999

> <i_lp_mmshare_version>
43012

> <i_f3d_flags>
0

> <s_epik_input>
czFbY0hdW2NIXW5jMVtOSF1DKD1PKVtOSF1bQ0gyXVtDQEBIXTJbQ0gyXU4oW0NIMl1bQ0gyXU8yKVtDSF0zW0NIMl1bQ0gyXTM=

> <s_epik_cmdline>
J2VwaWtfcHl0aG9uJywgJy1waCcsICc3LjAnLCAnLXRuJywgJzgnLCAnLW1hJywgJzIwMCcsICctbWV0YWxfYmluZGluZycsICctaW1hZScsICc8aW5maWxlLm1hZT4nLCAnLW9tYWUnLCAnPG91dGZpbGUubWFlPic=

> <r_lp_tautomer_probability>
0.999

> <r_epik_Ionization_Penalty>
7.79196

> <r_epik_Ionization_Penalty_Charging>
6.93299

> <r_epik_Ionization_Penalty_Neutral>
0.858963

> <r_epik_State_Penalty>
7.05108

> <r_epik_Charging_Adjusted_Penalty>
13.9841

> <i_epik_Tot_Q>
0

> <i_epik_Tot_abs_Q>
2

> <r_epik_Metal_State_Penalty>
3.05936

> <b_epik_Metal_Only>
1

> <s_lp_Force_Field>
OPLS_2005

> <r_lp_Energy>
16.0159

> <b_lp_Chiralities_Consistent>
1

> <s_lp_Variant>
AV-unprocessed.smi:2999-10

> <Gold.Version>
5.8.1

> <Gold.Id.Protein>
6NUR|6NUR_protein|mol2

> <Gold.PLP.Fitness>
42.2456

> <Gold.PLP.PLP>
-32.3314

> <Gold.PLP.part.hbond>
-3.9257

> <Gold.PLP.part.metal>
0.0000

> <Gold.PLP.part.buried>
-3.9157

> <Gold.PLP.part.nonpolar>
-26.1733

> <Gold.PLP.part.repulsive>
0.1374

> <Gold.PLP.ligand.clash>
0.0000

> <Gold.PLP.ligand.torsion>
1.3628

> <Gold.PLP.Chemscore.Hbond>
3.7909

> <Gold.PLP.Chemscore.CHOScore>
0.0000

> <Gold.PLP.Chemscore.Metal>
0.0000

> <Gold.Chemscore.Hbonds>
donor molecule, donor type, donor heavy atom, donor atom, acceptor molecule, acceptor atom, score
      P1  H  6896  6908       L1    13  0.28
      P1  H  6896  6909       L1     1  0.80
      P1  H  6931  6943       L1    14  1.44

> <Gold.PLP.Chemscore.Internal.Correction>
1.2670

> <Gold.Rescore>
     Score         DG    S(hbond)    S(metal)    S(lipo)     H(rot)  DE(clash)    DE(int)     intcor
     14.69     -16.20       2.21        0.00      62.53       1.55       0.09       1.43       ----

> <Gold.Chemscore.Fitness>
14.6863

> <Gold.Chemscore.DG>
-16.2045

> <Gold.Chemscore.ZeroCoef>
-5.4800

> <Gold.Chemscore.Hbond>
2.2088

> <Gold.Chemscore.Metal>
0.0000

> <Gold.Chemscore.Lipo>
62.5308

> <Gold.Chemscore.Internal_Hbond>
0.0000

> <Gold.Chemscore.DEClash>
0.0930

> <Gold.Chemscore.DEInternal>
1.4253

> <Gold.Chemscore.Rot>
1.5504

> <Gold.Chemscore.Internal.Correction>
   9.000000E+99

> <Gold.Chemscore.Hbonds>
donor molecule, donor type, donor heavy atom, donor atom, acceptor molecule, acceptor atom, score
      P1  H  6896  6908       L1    13  0.17
      P1  H  6896  6909       L1     1  0.12
      P1  H  6931  6943       L1    14  0.32

> <Gold.Chemscore.Hbond.Weighted>
-7.3774

> <Gold.Chemscore.Metal.Weighted>
-0.0000

> <Gold.Chemscore.Lipo.Weighted>
-7.3161

> <Gold.Chemscore.Internal_Hbond.Weighted>
0.0000

> <Gold.Chemscore.DEClash.Weighted>
0.0930

> <Gold.Chemscore.DEInternal.Weighted>
1.4253

> <Gold.Chemscore.Rot.Weighted>
3.9690

> <Gold.Chemscore.Internal.Correction.Weighted>
   9.000000E+99

> <Gold.Protein.RotatedTorsions>
[ 6907 6896 6895 6894 ] final  114.15 input  -60.11 | X-H torsion
[ 7974 7965 7964 7962 ] final    9.00 input  175.53 | X-H torsion
[ 8008 7997 7996 7995 ] final  -94.99 input   59.86 | X-H torsion
[ 10167 10162 10161 10158 ] final -136.82 input  -65.29 | X-H torsion
[ 10718 10713 10712 10709 ] final   91.71 input   66.30 | X-H torsion
[ 10763 10752 10751 10750 ] final -141.44 input  -60.55 | X-H torsion
[ 11005 11000 10999 10996 ] final   -4.56 input  -57.11 | X-H torsion

> <Gold.Protein.ActiveResidues>
 VAL166  LYS551  ARG553  GLY616  TRP617  ASP618  TYR619  PRO620  LYS621  CYS622 
 ASP623  PHE694  ASN695  SER759  ASP760  ASP761  ALA762  ILE779  LEU786  VAL792 
 PHE793  MET794  SER795  GLU796  ALA797  LYS798  CYS799  TRP800  GLU811  SER814 

> <Gold.Protein.RotatedAtoms>
  152.4819  133.8275  159.7085 H   0  0  0  0  0  0  0  0  0  0  0  0  # atno 6907 bound_to 6896
  150.8875  133.7278  159.2920 H   0  0  0  0  0  0  0  0  0  0  0  0  # atno 6908 bound_to 6896
  151.4762  135.1053  159.9817 H   0  0  0  0  0  0  0  0  0  0  0  0  # atno 6909 bound_to 6896
  146.2409  139.9850  142.8432 H   0  0  0  0  0  0  0  0  0  0  0  0  # atno 7974 bound_to 7965
  154.7555  140.0484  157.0929 H   0  0  0  0  0  0  0  0  0  0  0  0  # atno 8008 bound_to 7997
  155.0003  140.3124  155.4850 H   0  0  0  0  0  0  0  0  0  0  0  0  # atno 8009 bound_to 7997
  156.2894  140.2202  156.5113 H   0  0  0  0  0  0  0  0  0  0  0  0  # atno 8010 bound_to 7997
  139.8640  143.7041  152.2647 H   0  0  0  0  0  0  0  0  0  0  0  0  # atno 10167 bound_to 10162
  157.6960  131.0417  150.3771 H   0  0  0  0  0  0  0  0  0  0  0  0  # atno 10718 bound_to 10713
  154.8545  135.3524  154.5868 H   0  0  0  0  0  0  0  0  0  0  0  0  # atno 10763 bound_to 10752
  153.6478  135.6995  153.5224 H   0  0  0  0  0  0  0  0  0  0  0  0  # atno 10764 bound_to 10752
  153.2919  135.4232  155.1132 H   0  0  0  0  0  0  0  0  0  0  0  0  # atno 10765 bound_to 10752
  140.6816  133.9148  155.8559 H   0  0  0  0  0  0  0  0  0  0  0  0  # atno 11005 bound_to 11000
  145.1557  140.9646  143.4407 LP  0  0  0  0  0  0  0  0  0  0  0  0  # atno 17320 bound_to 7965
  145.0164  139.3464  143.6094 LP  0  0  0  0  0  0  0  0  0  0  0  0  # atno 17321 bound_to 7965
  139.7347  144.7574  151.0746 LP  0  0  0  0  0  0  0  0  0  0  0  0  # atno 17342 bound_to 10162
  140.7771  143.5045  150.9729 LP  0  0  0  0  0  0  0  0  0  0  0  0  # atno 17343 bound_to 10162
  156.4189  130.3949  149.6839 LP  0  0  0  0  0  0  0  0  0  0  0  0  # atno 17370 bound_to 10713
  156.4097  130.7716  151.2728 LP  0  0  0  0  0  0  0  0  0  0  0  0  # atno 17371 bound_to 10713
  141.0313  134.0752  157.4011 LP  0  0  0  0  0  0  0  0  0  0  0  0  # atno 17394 bound_to 11000
  139.8950  135.0139  156.6979 LP  0  0  0  0  0  0  0  0  0  0  0  0  # atno 17395 bound_to 11000

$$$$
