AV-unprocessed.smi:2698|AV-procd|sdf|10421|dock2
  -GOLD-   2272014453D 1   1.00000     0.00000
 Structure written by MMmdl.
 33 33  0  0  0  0  0  0  0  0  2 V2000
  153.1799  142.7294  162.3272 C   0  0  0  0  0  0  0  0  0  0  0  0
  152.7256  142.3159  160.9143 C   0  0  0  0  0  0  0  0  0  0  0  0
  153.5871  141.1483  160.4074 C   0  0  0  0  0  0  0  0  0  0  0  0
  152.7448  143.4861  159.9004 C   0  0  0  0  0  0  0  0  0  0  0  0
  151.8188  143.3090  158.6882 C   0  0  0  0  0  0  0  0  0  0  0  0
  151.0154  144.1860  158.3712 O   0  0  0  0  0  0  0  0  0  0  0  0
  151.9496  142.1568  158.0123 N   0  0  0  0  0  0  0  0  0  0  0  0
  151.2002  141.7710  156.8194 C   0  0  2  0  0  0  0  0  0  0  0  0
  149.6915  141.6615  157.1300 C   0  0  0  0  0  0  0  0  0  0  0  0
  148.8127  141.4666  155.9186 C   0  0  0  0  0  0  0  0  0  0  0  0
  147.4619  141.1868  155.8695 C   0  0  0  0  0  0  0  0  0  0  0  0
  147.1343  141.0892  154.5292 N   0  0  0  0  0  0  0  0  0  0  0  0
  148.2538  141.3055  153.8374 C   0  0  0  0  0  0  0  0  0  0  0  0
  149.3052  141.5425  154.6106 N   0  0  0  0  0  0  0  0  0  0  0  0
  151.8190  140.5083  156.2072 C   0  0  0  0  0  0  0  0  0  0  0  0
  152.7282  139.9451  156.8566 O   0  0  0  0  0  0  0  0  0  0  0  0
  151.3723  140.1241  155.1043 O   0  5  0  0  0  0  0  0  0  0  0  0
  146.2222  140.8848  154.1471 H   0  0  0  0  0  0  0  0  0  0  0  0
  154.1908  143.1378  162.3128 H   0  0  0  0  0  0  0  0  0  0  0  0
  153.1803  141.8730  163.0022 H   0  0  0  0  0  0  0  0  0  0  0  0
  152.5262  143.4795  162.7698 H   0  0  0  0  0  0  0  0  0  0  0  0
  151.7019  141.9455  160.9898 H   0  0  0  0  0  0  0  0  0  0  0  0
  154.6312  141.4449  160.3004 H   0  0  0  0  0  0  0  0  0  0  0  0
  153.2405  140.7936  159.4363 H   0  0  0  0  0  0  0  0  0  0  0  0
  153.5496  140.3030  161.0951 H   0  0  0  0  0  0  0  0  0  0  0  0
  152.4936  144.4224  160.3998 H   0  0  0  0  0  0  0  0  0  0  0  0
  153.7615  143.6129  159.5246 H   0  0  0  0  0  0  0  0  0  0  0  0
  152.6386  141.4928  158.3353 H   0  0  0  0  0  0  0  0  0  0  0  0
  151.3229  142.5637  156.0782 H   0  0  0  0  0  0  0  0  0  0  0  0
  149.5196  140.8266  157.8106 H   0  0  0  0  0  0  0  0  0  0  0  0
  149.3476  142.5542  157.6534 H   0  0  0  0  0  0  0  0  0  0  0  0
  146.7357  141.0450  156.6565 H   0  0  0  0  0  0  0  0  0  0  0  0
  148.3006  141.2884  152.7585 H   0  0  0  0  0  0  0  0  0  0  0  0
  1  2  1  0  0  0  0
  1 19  1  0  0  0  0
  1 20  1  0  0  0  0
  1 21  1  0  0  0  0
  2  3  1  0  0  0  0
  2  4  1  0  0  0  0
  2 22  1  0  0  0  0
  3 23  1  0  0  0  0
  3 24  1  0  0  0  0
  3 25  1  0  0  0  0
  4  5  1  0  0  0  0
  4 26  1  0  0  0  0
  4 27  1  0  0  0  0
  5  6  2  0  0  0  0
  5  7  1  0  0  0  0
  7  8  1  0  0  0  0
  7 28  1  0  0  0  0
  8  9  1  0  0  0  0
  8 15  1  0  0  0  0
  8 29  1  0  0  0  0
  9 10  1  0  0  0  0
  9 30  1  0  0  0  0
  9 31  1  0  0  0  0
 10 14  1  0  0  0  0
 10 11  2  0  0  0  0
 11 12  1  0  0  0  0
 11 32  1  0  0  0  0
 12 18  1  0  0  0  0
 12 13  1  0  0  0  0
 13 14  2  0  0  0  0
 13 33  1  0  0  0  0
 15 16  2  0  0  0  0
 15 17  1  0  0  0  0
M  CHG  1  17  -1
M  END
> <s_m_source_file>
AV-unprocessed.smi

> <i_m_source_file_index>
2698

> <i_lp_mmshare_version>
43012

> <i_f3d_flags>
0

> <s_epik_input>
W0NIM11bQ0hdKFtDSDNdKVtDSDJdQyg9TylbTkhdW0NAQEhdKEMoPU8pW09IXSlbQ0gyXWMxW2NIXVtuSF1bY0hdbjE=

> <s_epik_cmdline>
J2VwaWtfcHl0aG9uJywgJy1waCcsICc3LjAnLCAnLXRuJywgJzgnLCAnLW1hJywgJzIwMCcsICctbWV0YWxfYmluZGluZycsICctaW1hZScsICc8aW5maWxlLm1hZT4nLCAnLW9tYWUnLCAnPG91dGZpbGUubWFlPic=

> <r_lp_tautomer_probability>
0.5

> <r_epik_Ionization_Penalty>
0.818672

> <r_epik_Ionization_Penalty_Charging>
0.818672

> <r_epik_Ionization_Penalty_Neutral>
7.99661e-08

> <r_epik_State_Penalty>
0.927032

> <r_epik_Charging_Adjusted_Penalty>
1.7457

> <i_epik_Tot_Q>
-1

> <i_epik_Tot_abs_Q>
1

> <r_epik_Metal_State_Penalty>
0.525537

> <b_epik_Metal_Only>
0

> <s_lp_Force_Field>
OPLS_2005

> <r_lp_Energy>
1.77679

> <b_lp_Chiralities_Consistent>
1

> <s_lp_Variant>
AV-unprocessed.smi:2698-5

> <Gold.Version>
5.8.1

> <Gold.Id.Protein>
6NUR|6NUR_protein|mol2

> <Gold.PLP.Fitness>
45.8270

> <Gold.PLP.PLP>
-34.6246

> <Gold.PLP.part.hbond>
-3.0438

> <Gold.PLP.part.metal>
0.0000

> <Gold.PLP.part.buried>
-3.6727

> <Gold.PLP.part.nonpolar>
-27.1938

> <Gold.PLP.part.repulsive>
0.4641

> <Gold.PLP.ligand.clash>
0.0000

> <Gold.PLP.ligand.torsion>
0.4587

> <Gold.PLP.Chemscore.Hbond>
3.0000

> <Gold.PLP.Chemscore.CHOScore>
1.0000

> <Gold.PLP.Chemscore.Metal>
0.0000

> <Gold.Chemscore.Hbonds>
donor molecule, donor type, donor heavy atom, donor atom, acceptor molecule, acceptor atom, score
      P1  H  7989  7998       L1    17  1.00
      P1  H  7997  8010       L1    16  2.00
      L1  C    13    33       P1  7957  1.00

> <Gold.PLP.Chemscore.Internal.Correction>
0.1199

> <Gold.Rescore>
     Score         DG    S(hbond)    S(metal)    S(lipo)     H(rot)  DE(clash)    DE(int)     intcor
      9.78     -11.99       1.96        0.00      65.69       3.01       0.03       2.18       ----

> <Gold.Chemscore.Fitness>
9.7832

> <Gold.Chemscore.DG>
-11.9905

> <Gold.Chemscore.ZeroCoef>
-5.4800

> <Gold.Chemscore.Hbond>
1.9585

> <Gold.Chemscore.Metal>
0.0000

> <Gold.Chemscore.Lipo>
65.6924

> <Gold.Chemscore.Internal_Hbond>
0.0000

> <Gold.Chemscore.DEClash>
0.0253

> <Gold.Chemscore.DEInternal>
2.1820

> <Gold.Chemscore.Rot>
3.0145

> <Gold.Chemscore.Internal.Correction>
   9.000000E+99

> <Gold.Chemscore.Hbonds>
donor molecule, donor type, donor heavy atom, donor atom, acceptor molecule, acceptor atom, score
      P1  H  7989  7998       L1    17  0.98
      P1  H  7997  8010       L1    16  0.97

> <Gold.Chemscore.Hbond.Weighted>
-6.5415

> <Gold.Chemscore.Metal.Weighted>
-0.0000

> <Gold.Chemscore.Lipo.Weighted>
-7.6860

> <Gold.Chemscore.Internal_Hbond.Weighted>
0.0000

> <Gold.Chemscore.DEClash.Weighted>
0.0253

> <Gold.Chemscore.DEInternal.Weighted>
2.1820

> <Gold.Chemscore.Rot.Weighted>
7.7171

> <Gold.Chemscore.Internal.Correction.Weighted>
   9.000000E+99

> <Gold.Protein.RotatedTorsions>
[ 6907 6896 6895 6894 ] final   -1.81 input  -60.11 | X-H torsion
[ 7974 7965 7964 7962 ] final   17.65 input  175.53 | X-H torsion
[ 8008 7997 7996 7995 ] final   51.91 input   59.86 | X-H torsion
[ 10167 10162 10161 10158 ] final  157.34 input  -65.29 | X-H torsion
[ 10718 10713 10712 10709 ] final   94.36 input   66.30 | X-H torsion
[ 10763 10752 10751 10750 ] final  146.07 input  -60.55 | X-H torsion
[ 11005 11000 10999 10996 ] final  -97.28 input  -57.11 | X-H torsion

> <Gold.Protein.ActiveResidues>
 VAL166  LYS551  ARG553  GLY616  TRP617  ASP618  TYR619  PRO620  LYS621  CYS622 
 ASP623  PHE694  ASN695  SER759  ASP760  ASP761  ALA762  ILE779  LEU786  VAL792 
 PHE793  MET794  SER795  GLU796  ALA797  LYS798  CYS799  TRP800  GLU811  SER814 

> <Gold.Protein.RotatedAtoms>
  151.5401  135.1068  159.9923 H   0  0  0  0  0  0  0  0  0  0  0  0  # atno 6907 bound_to 6896
  152.4539  133.7680  159.6794 H   0  0  0  0  0  0  0  0  0  0  0  0  # atno 6908 bound_to 6896
  150.8476  133.7771  159.3062 H   0  0  0  0  0  0  0  0  0  0  0  0  # atno 6909 bound_to 6896
  146.2211  139.8572  142.8611 H   0  0  0  0  0  0  0  0  0  0  0  0  # atno 7974 bound_to 7965
  155.4430  140.3455  155.4292 H   0  0  0  0  0  0  0  0  0  0  0  0  # atno 8008 bound_to 7997
  156.1267  140.1502  156.9156 H   0  0  0  0  0  0  0  0  0  0  0  0  # atno 8009 bound_to 7997
  154.4863  140.0854  156.7474 H   0  0  0  0  0  0  0  0  0  0  0  0  # atno 8010 bound_to 7997
  139.4823  144.4927  151.8285 H   0  0  0  0  0  0  0  0  0  0  0  0  # atno 10167 bound_to 10162
  157.6948  131.0510  150.4175 H   0  0  0  0  0  0  0  0  0  0  0  0  # atno 10718 bound_to 10713
  154.0158  135.2910  155.3387 H   0  0  0  0  0  0  0  0  0  0  0  0  # atno 10763 bound_to 10752
  154.7076  135.5163  153.8621 H   0  0  0  0  0  0  0  0  0  0  0  0  # atno 10764 bound_to 10752
  153.0703  135.6645  154.0385 H   0  0  0  0  0  0  0  0  0  0  0  0  # atno 10765 bound_to 10752
  141.1384  133.8159  157.0684 H   0  0  0  0  0  0  0  0  0  0  0  0  # atno 11005 bound_to 11000
  145.2741  141.0118  143.3755 LP  0  0  0  0  0  0  0  0  0  0  0  0  # atno 17320 bound_to 7965
  144.9200  139.4423  143.6545 LP  0  0  0  0  0  0  0  0  0  0  0  0  # atno 17321 bound_to 7965
  140.4412  144.1984  150.5891 LP  0  0  0  0  0  0  0  0  0  0  0  0  # atno 17342 bound_to 10162
  140.4681  143.2423  151.9127 LP  0  0  0  0  0  0  0  0  0  0  0  0  # atno 17343 bound_to 10162
  156.4553  130.4020  149.6610 LP  0  0  0  0  0  0  0  0  0  0  0  0  # atno 17370 bound_to 10713
  156.3745  130.7547  151.2534 LP  0  0  0  0  0  0  0  0  0  0  0  0  # atno 17371 bound_to 10713
  140.0527  134.9797  157.1164 LP  0  0  0  0  0  0  0  0  0  0  0  0  # atno 17394 bound_to 11000
  140.3966  134.2127  155.7164 LP  0  0  0  0  0  0  0  0  0  0  0  0  # atno 17395 bound_to 11000

$$$$
