AV-unprocessed.smi:3150|AV-procd|sdf|12012|dock2
  -GOLD-   2272017423D 1   1.00000     0.00000
 Structure written by MMmdl.
 32 33  0  0  0  0  0  0  0  0  2 V2000
  153.7411  138.5453  154.3502 C   0  0  0  0  0  0  0  0  0  0  0  0
  152.2436  138.3815  154.6431 C   0  0  1  0  0  0  0  0  0  0  0  0
  152.0802  137.2097  155.4384 O   0  0  0  0  0  0  0  0  0  0  0  0
  150.7349  136.7792  155.6048 C   0  0  0  0  0  0  0  0  0  0  0  0
  150.7237  135.2767  155.7849 C   0  0  0  0  0  0  0  0  0  0  0  0
  150.1932  134.3785  154.6906 C   0  0  0  0  0  0  0  0  0  0  0  0
  149.4200  134.5354  155.9752 C   0  0  0  0  0  0  0  0  0  0  0  0
  151.6966  139.6149  155.3816 C   0  0  0  0  0  0  0  0  0  0  0  0
  150.7847  140.2606  154.8571 O   0  0  0  0  0  0  0  0  0  0  0  0
  152.3496  139.8271  156.5930 N   0  0  0  0  0  0  0  0  0  0  0  0
  152.0443  140.7913  157.4183 C   0  0  0  0  0  0  0  0  0  0  0  0
  151.0223  141.7247  157.1720 N   0  0  0  0  0  0  0  0  0  0  0  0
  150.7072  142.7435  158.0459 C   0  0  0  0  0  0  0  0  0  0  0  0
  151.3639  142.9044  159.1959 C   0  0  0  0  0  0  0  0  0  0  0  0
  152.4312  141.9829  159.5270 C   0  0  0  0  0  0  0  0  0  0  0  0
  152.7960  140.9307  158.6788 C   0  0  0  0  0  0  0  0  0  0  0  0
  153.7269  140.1583  159.0055 O   0  5  0  0  0  0  0  0  0  0  0  0
  153.9295  139.4248  153.7333 H   0  0  0  0  0  0  0  0  0  0  0  0
  154.1270  137.6784  153.8134 H   0  0  0  0  0  0  0  0  0  0  0  0
  154.3192  138.6495  155.2691 H   0  0  0  0  0  0  0  0  0  0  0  0
  151.7203  138.2432  153.6944 H   0  0  0  0  0  0  0  0  0  0  0  0
  150.2646  137.2514  156.4684 H   0  0  0  0  0  0  0  0  0  0  0  0
  150.1454  137.0336  154.7231 H   0  0  0  0  0  0  0  0  0  0  0  0
  151.5781  134.8940  156.3399 H   0  0  0  0  0  0  0  0  0  0  0  0
  149.7855  134.8509  153.7988 H   0  0  0  0  0  0  0  0  0  0  0  0
  150.7064  133.4336  154.5243 H   0  0  0  0  0  0  0  0  0  0  0  0
  149.4171  133.6961  156.6677 H   0  0  0  0  0  0  0  0  0  0  0  0
  148.4996  135.1152  155.9417 H   0  0  0  0  0  0  0  0  0  0  0  0
  149.9008  143.3849  157.7230 H   0  0  0  0  0  0  0  0  0  0  0  0
  151.1048  143.7083  159.8690 H   0  0  0  0  0  0  0  0  0  0  0  0
  152.9558  142.1228  160.4613 H   0  0  0  0  0  0  0  0  0  0  0  0
  150.4746  141.6776  156.3256 H   0  0  0  0  0  0  0  0  0  0  0  0
  1  2  1  0  0  0  0
  1 18  1  0  0  0  0
  1 19  1  0  0  0  0
  1 20  1  0  0  0  0
  2  3  1  0  0  0  0
  2  8  1  0  0  0  0
  2 21  1  0  0  0  0
  3  4  1  0  0  0  0
  4  5  1  0  0  0  0
  4 22  1  0  0  0  0
  4 23  1  0  0  0  0
  5  7  1  0  0  0  0
  5  6  1  0  0  0  0
  5 24  1  0  0  0  0
  6  7  1  0  0  0  0
  6 25  1  0  0  0  0
  6 26  1  0  0  0  0
  7 27  1  0  0  0  0
  7 28  1  0  0  0  0
  8  9  2  0  0  0  0
  8 10  1  0  0  0  0
 10 11  2  0  0  0  0
 11 16  1  0  0  0  0
 11 12  1  0  0  0  0
 12 32  1  0  0  0  0
 12 13  1  0  0  0  0
 13 29  1  0  0  0  0
 13 14  2  0  0  0  0
 14 30  1  0  0  0  0
 14 15  1  0  0  0  0
 15 16  2  0  0  0  0
 15 31  1  0  0  0  0
 16 17  1  0  0  0  0
M  CHG  1  17  -1
M  END
> <s_m_source_file>
AV-unprocessed.smi

> <i_m_source_file_index>
3150

> <i_lp_mmshare_version>
43012

> <i_f3d_flags>
0

> <s_epik_input>
W0NIMl0xW0NIMl1bQ0hdMVtDSDJdT1tDQEBIXShbQ0gzXSlDKD1PKVtOSF1jMm5bY0hdW2NIXVtjSF1jMltPSF0=

> <s_epik_cmdline>
J2VwaWtfcHl0aG9uJywgJy1waCcsICc3LjAnLCAnLXRuJywgJzgnLCAnLW1hJywgJzIwMCcsICctbWV0YWxfYmluZGluZycsICctaW1hZScsICc8aW5maWxlLm1hZT4nLCAnLW9tYWUnLCAnPG91dGZpbGUubWFlPic=

> <r_epik_Ionization_Penalty>
0.784632

> <r_epik_Ionization_Penalty_Charging>
0.784632

> <r_epik_Ionization_Penalty_Neutral>
7.02258e-13

> <r_epik_State_Penalty>
1.43154

> <r_epik_Charging_Adjusted_Penalty>
2.21617

> <i_epik_Tot_Q>
-1

> <i_epik_Tot_abs_Q>
1

> <r_epik_Metal_State_Penalty>
1.39244

> <b_epik_Metal_Only>
0

> <s_lp_Force_Field>
OPLS_2005

> <r_lp_Energy>
45.381

> <b_lp_Chiralities_Consistent>
1

> <s_lp_Variant>
AV-unprocessed.smi:3150-6

> <Gold.Version>
5.8.1

> <Gold.Id.Protein>
6NUR|6NUR_protein|mol2

> <Gold.PLP.Fitness>
42.6165

> <Gold.PLP.PLP>
-28.7976

> <Gold.PLP.part.hbond>
-4.0000

> <Gold.PLP.part.metal>
0.0000

> <Gold.PLP.part.buried>
-3.1963

> <Gold.PLP.part.nonpolar>
-20.1061

> <Gold.PLP.part.repulsive>
0.1867

> <Gold.PLP.ligand.clash>
0.0000

> <Gold.PLP.ligand.torsion>
0.5776

> <Gold.PLP.Chemscore.Hbond>
3.8000

> <Gold.PLP.Chemscore.CHOScore>
1.0000

> <Gold.PLP.Chemscore.Metal>
0.0000

> <Gold.Chemscore.Hbonds>
donor molecule, donor type, donor heavy atom, donor atom, acceptor molecule, acceptor atom, score
      P1  H  7989  7998       L1     9  0.95
      P1  H  7997  8010       L1    17  1.62
      P1  H 10752 10764       L1     3  0.90
      L1  C    13    29       P1  8028  0.72

> <Gold.PLP.Chemscore.Internal.Correction>
0.5742

> <Gold.Rescore>
     Score         DG    S(hbond)    S(metal)    S(lipo)     H(rot)  DE(clash)    DE(int)     intcor
     13.99     -14.38       1.46        0.00      70.15       1.64       0.04       0.36       ----

> <Gold.Chemscore.Fitness>
13.9892

> <Gold.Chemscore.DG>
-14.3847

> <Gold.Chemscore.ZeroCoef>
-5.4800

> <Gold.Chemscore.Hbond>
1.4649

> <Gold.Chemscore.Metal>
0.0000

> <Gold.Chemscore.Lipo>
70.1461

> <Gold.Chemscore.Internal_Hbond>
0.0000

> <Gold.Chemscore.DEClash>
0.0383

> <Gold.Chemscore.DEInternal>
0.3572

> <Gold.Chemscore.Rot>
1.6387

> <Gold.Chemscore.Internal.Correction>
   9.000000E+99

> <Gold.Chemscore.Hbonds>
donor molecule, donor type, donor heavy atom, donor atom, acceptor molecule, acceptor atom, score
      P1  H  7989  7998       L1     9  0.21
      P1  H  7997  8010       L1    17  0.26
      P1  H 10752 10764       L1     3  0.31

> <Gold.Chemscore.Hbond.Weighted>
-4.8927

> <Gold.Chemscore.Metal.Weighted>
-0.0000

> <Gold.Chemscore.Lipo.Weighted>
-8.2071

> <Gold.Chemscore.Internal_Hbond.Weighted>
0.0000

> <Gold.Chemscore.DEClash.Weighted>
0.0383

> <Gold.Chemscore.DEInternal.Weighted>
0.3572

> <Gold.Chemscore.Rot.Weighted>
4.1950

> <Gold.Chemscore.Internal.Correction.Weighted>
   9.000000E+99

> <Gold.Protein.RotatedTorsions>
[ 6907 6896 6895 6894 ] final  -21.84 input  -60.11 | X-H torsion
[ 7974 7965 7964 7962 ] final   -1.00 input  175.53 | X-H torsion
[ 8008 7997 7996 7995 ] final   16.85 input   59.86 | X-H torsion
[ 10167 10162 10161 10158 ] final   88.48 input  -65.29 | X-H torsion
[ 10718 10713 10712 10709 ] final -163.52 input   66.30 | X-H torsion
[ 10763 10752 10751 10750 ] final  -50.85 input  -60.55 | X-H torsion
[ 11005 11000 10999 10996 ] final  -64.50 input  -57.11 | X-H torsion

> <Gold.Protein.ActiveResidues>
 VAL166  LYS551  ARG553  GLY616  TRP617  ASP618  TYR619  PRO620  LYS621  CYS622 
 ASP623  PHE694  ASN695  SER759  ASP760  ASP761  ALA762  ILE779  LEU786  VAL792 
 PHE793  MET794  SER795  GLU796  ALA797  LYS798  CYS799  TRP800  GLU811  SER814 

> <Gold.Protein.RotatedAtoms>
  151.2274  135.0541  159.8973 H   0  0  0  0  0  0  0  0  0  0  0  0  # atno 6907 bound_to 6896
  152.5409  134.0574  159.8147 H   0  0  0  0  0  0  0  0  0  0  0  0  # atno 6908 bound_to 6896
  151.0749  133.5388  159.2656 H   0  0  0  0  0  0  0  0  0  0  0  0  # atno 6909 bound_to 6896
  146.2422  140.1355  142.8337 H   0  0  0  0  0  0  0  0  0  0  0  0  # atno 7974 bound_to 7965
  154.8829  140.2975  155.5415 H   0  0  0  0  0  0  0  0  0  0  0  0  # atno 8008 bound_to 7997
  156.3022  140.2439  156.3768 H   0  0  0  0  0  0  0  0  0  0  0  0  # atno 8009 bound_to 7997
  154.8698  140.0402  157.1706 H   0  0  0  0  0  0  0  0  0  0  0  0  # atno 8010 bound_to 7997
  139.8669  144.6514  150.8994 H   0  0  0  0  0  0  0  0  0  0  0  0  # atno 10167 bound_to 10162
  156.6258  130.8909  151.2967 H   0  0  0  0  0  0  0  0  0  0  0  0  # atno 10718 bound_to 10713
  154.1170  135.6540  153.4895 H   0  0  0  0  0  0  0  0  0  0  0  0  # atno 10763 bound_to 10752
  153.0238  135.5261  154.7135 H   0  0  0  0  0  0  0  0  0  0  0  0  # atno 10764 bound_to 10752
  154.6331  135.2978  155.0162 H   0  0  0  0  0  0  0  0  0  0  0  0  # atno 10765 bound_to 10752
  141.1426  133.6667  156.5843 H   0  0  0  0  0  0  0  0  0  0  0  0  # atno 11005 bound_to 11000
  145.0290  140.8856  143.5121 LP  0  0  0  0  0  0  0  0  0  0  0  0  # atno 17320 bound_to 7965
  145.1416  139.2569  143.5487 LP  0  0  0  0  0  0  0  0  0  0  0  0  # atno 17321 bound_to 7965
  140.7767  143.3697  151.1673 LP  0  0  0  0  0  0  0  0  0  0  0  0  # atno 17342 bound_to 10162
  139.7321  143.9057  152.3023 LP  0  0  0  0  0  0  0  0  0  0  0  0  # atno 17343 bound_to 10162
  157.7214  130.9564  150.1455 LP  0  0  0  0  0  0  0  0  0  0  0  0  # atno 17370 bound_to 10713
  156.2274  130.3679  149.8484 LP  0  0  0  0  0  0  0  0  0  0  0  0  # atno 17371 bound_to 10713
  140.3813  134.7521  157.4663 LP  0  0  0  0  0  0  0  0  0  0  0  0  # atno 17394 bound_to 11000
  140.0635  134.5962  155.8721 LP  0  0  0  0  0  0  0  0  0  0  0  0  # atno 17395 bound_to 11000

$$$$
