AV-unprocessed.smi:651|AV-procd|sdf|3184|dock3
  -GOLD-   22720 0113D 1   1.00000     0.00000
 Structure written by MMmdl.
 38 39  0  0  0  0  0  0  0  0  1 V2000
  153.1352  142.9848  163.1290 C   0  0  0  0  0  0  0  0  0  0  0  0
  152.7166  143.1799  161.6869 C   0  0  0  0  0  0  0  0  0  0  0  0
  151.9422  144.2948  161.3029 C   0  0  0  0  0  0  0  0  0  0  0  0
  151.5845  144.4278  159.9477 C   0  0  0  0  0  0  0  0  0  0  0  0
  152.0156  143.4471  159.0305 C   0  0  0  0  0  0  0  0  0  0  0  0
  151.6673  143.5500  157.5549 C   0  0  0  0  0  0  0  0  0  0  0  0
  150.9536  142.2859  157.0691 C   0  0  0  0  0  0  0  0  0  0  0  0
  151.4827  141.1853  157.2207 O   0  0  0  0  0  0  0  0  0  0  0  0
  149.7534  142.4554  156.4924 N   0  0  0  0  0  0  0  0  0  0  0  0
  148.9246  141.3886  155.9390 C   0  0  2  0  0  0  0  0  0  0  0  0
  149.6165  140.6620  154.7732 C   0  0  0  0  0  0  0  0  0  0  0  0
  148.4874  140.2830  153.8210 C   0  0  0  0  0  0  0  0  0  0  0  0
  147.5192  141.4599  153.9121 C   0  0  0  0  0  0  0  0  0  0  0  0
  147.5982  141.9582  155.3688 C   0  0  1  0  0  0  0  0  0  0  0  0
  146.3779  141.5289  156.1998 C   0  0  0  0  0  0  0  0  0  0  0  0
  145.1760  141.9092  155.7590 N   0  0  0  0  0  0  0  0  0  0  0  0
  146.5159  140.8594  157.2221 O   0  0  0  0  0  0  0  0  0  0  0  0
  152.7853  142.3695  159.5185 C   0  0  0  0  0  0  0  0  0  0  0  0
  153.1319  142.2335  160.8166 N   0  0  0  0  0  0  0  0  0  0  0  0
  152.6213  143.6861  163.7872 H   0  0  0  0  0  0  0  0  0  0  0  0
  154.2089  143.1417  163.2347 H   0  0  0  0  0  0  0  0  0  0  0  0
  152.8999  141.9737  163.4625 H   0  0  0  0  0  0  0  0  0  0  0  0
  151.6295  145.0329  162.0269 H   0  0  0  0  0  0  0  0  0  0  0  0
  150.9952  145.2714  159.6197 H   0  0  0  0  0  0  0  0  0  0  0  0
  151.0299  144.4207  157.3939 H   0  0  0  0  0  0  0  0  0  0  0  0
  152.5703  143.7050  156.9633 H   0  0  0  0  0  0  0  0  0  0  0  0
  149.3994  143.3973  156.4096 H   0  0  0  0  0  0  0  0  0  0  0  0
  148.7197  140.6599  156.7267 H   0  0  0  0  0  0  0  0  0  0  0  0
  150.3034  141.3364  154.2587 H   0  0  0  0  0  0  0  0  0  0  0  0
  150.1920  139.7966  155.1034 H   0  0  0  0  0  0  0  0  0  0  0  0
  148.8364  140.1022  152.8040 H   0  0  0  0  0  0  0  0  0  0  0  0
  147.9985  139.3740  154.1738 H   0  0  0  0  0  0  0  0  0  0  0  0
  147.8502  142.2541  153.2417 H   0  0  0  0  0  0  0  0  0  0  0  0
  146.5123  141.1799  153.5988 H   0  0  0  0  0  0  0  0  0  0  0  0
  147.6282  143.0496  155.3467 H   0  0  0  0  0  0  0  0  0  0  0  0
  144.3446  141.6522  156.2709 H   0  0  0  0  0  0  0  0  0  0  0  0
  145.1036  142.4550  154.9126 H   0  0  0  0  0  0  0  0  0  0  0  0
  153.1366  141.5983  158.8489 H   0  0  0  0  0  0  0  0  0  0  0  0
  1  2  1  0  0  0  0
  1 20  1  0  0  0  0
  1 21  1  0  0  0  0
  1 22  1  0  0  0  0
  2 19  1  0  0  0  0
  2  3  2  0  0  0  0
  3  4  1  0  0  0  0
  3 23  1  0  0  0  0
  4  5  2  0  0  0  0
  4 24  1  0  0  0  0
  5  6  1  0  0  0  0
  5 18  1  0  0  0  0
  6  7  1  0  0  0  0
  6 25  1  0  0  0  0
  6 26  1  0  0  0  0
  7  8  2  0  0  0  0
  7  9  1  0  0  0  0
  9 10  1  0  0  0  0
  9 27  1  0  0  0  0
 10 14  1  0  0  0  0
 10 11  1  0  0  0  0
 10 28  1  0  0  0  0
 11 12  1  0  0  0  0
 11 29  1  0  0  0  0
 11 30  1  0  0  0  0
 12 13  1  0  0  0  0
 12 31  1  0  0  0  0
 12 32  1  0  0  0  0
 13 14  1  0  0  0  0
 13 33  1  0  0  0  0
 13 34  1  0  0  0  0
 14 15  1  0  0  0  0
 14 35  1  0  0  0  0
 15 16  1  0  0  0  0
 15 17  2  0  0  0  0
 16 36  1  0  0  0  0
 16 37  1  0  0  0  0
 18 19  2  0  0  0  0
 18 38  1  0  0  0  0
M  END
> <s_m_source_file>
AV-unprocessed.smi

> <i_m_source_file_index>
651

> <i_lp_mmshare_version>
43012

> <i_f3d_flags>
0

> <s_epik_input>
W0NIM11jMVtjSF1bY0hdYyhbY0hdbjEpW0NIMl1DKD1PKVtOSF1bQ0BASF0yW0NIMl1bQ0gyXVtDSDJdW0NASF0yQyg9TylbTkgyXQ==

> <s_epik_cmdline>
J2VwaWtfcHl0aG9uJywgJy1waCcsICc3LjAnLCAnLXRuJywgJzgnLCAnLW1hJywgJzIwMCcsICctbWV0YWxfYmluZGluZycsICctaW1hZScsICc8aW5maWxlLm1hZT4nLCAnLW9tYWUnLCAnPG91dGZpbGUubWFlPic=

> <r_epik_Ionization_Penalty>
0.0159502

> <r_epik_Ionization_Penalty_Charging>
0

> <r_epik_Ionization_Penalty_Neutral>
0.0159502

> <r_epik_State_Penalty>
0.012563

> <r_epik_Charging_Adjusted_Penalty>
0.012563

> <i_epik_Tot_Q>
0

> <i_epik_Tot_abs_Q>
0

> <r_epik_Metal_State_Penalty>
0.0122326

> <b_epik_Metal_Only>
0

> <s_lp_Force_Field>
OPLS_2005

> <r_lp_Energy>
13.4816

> <b_lp_Chiralities_Consistent>
1

> <s_lp_Variant>
AV-unprocessed.smi:651-1

> <Gold.Version>
5.8.1

> <Gold.Id.Protein>
6NUR|6NUR_protein|mol2

> <Gold.PLP.Fitness>
44.5758

> <Gold.PLP.PLP>
-41.6725

> <Gold.PLP.part.hbond>
-0.9407

> <Gold.PLP.part.metal>
0.0000

> <Gold.PLP.part.buried>
-3.6964

> <Gold.PLP.part.nonpolar>
-37.5218

> <Gold.PLP.part.repulsive>
0.0781

> <Gold.PLP.ligand.clash>
0.0000

> <Gold.PLP.ligand.torsion>
0.0549

> <Gold.PLP.Chemscore.Hbond>
1.0000

> <Gold.PLP.Chemscore.CHOScore>
0.0000

> <Gold.PLP.Chemscore.Metal>
0.0000

> <Gold.Chemscore.Hbonds>
donor molecule, donor type, donor heavy atom, donor atom, acceptor molecule, acceptor atom, score
      L1  H     9    27       P1  8028  1.00

> <Gold.PLP.Chemscore.Internal.Correction>
0.0132

> <Gold.Rescore>
     Score         DG    S(hbond)    S(metal)    S(lipo)     H(rot)  DE(clash)    DE(int)     intcor
     14.30     -16.87       0.99        0.00     112.28       1.97       0.03       2.54       ----

> <Gold.Chemscore.Fitness>
14.3008

> <Gold.Chemscore.DG>
-16.8684

> <Gold.Chemscore.ZeroCoef>
-5.4800

> <Gold.Chemscore.Hbond>
0.9867

> <Gold.Chemscore.Metal>
0.0000

> <Gold.Chemscore.Lipo>
112.2840

> <Gold.Chemscore.Internal_Hbond>
0.0000

> <Gold.Chemscore.DEClash>
0.0308

> <Gold.Chemscore.DEInternal>
2.5368

> <Gold.Chemscore.Rot>
1.9704

> <Gold.Chemscore.Internal.Correction>
   9.000000E+99

> <Gold.Chemscore.Hbonds>
donor molecule, donor type, donor heavy atom, donor atom, acceptor molecule, acceptor atom, score
      L1  H     9    27       P1  8028  0.98

> <Gold.Chemscore.Hbond.Weighted>
-3.2955

> <Gold.Chemscore.Metal.Weighted>
-0.0000

> <Gold.Chemscore.Lipo.Weighted>
-13.1372

> <Gold.Chemscore.Internal_Hbond.Weighted>
0.0000

> <Gold.Chemscore.DEClash.Weighted>
0.0308

> <Gold.Chemscore.DEInternal.Weighted>
2.5368

> <Gold.Chemscore.Rot.Weighted>
5.0443

> <Gold.Chemscore.Internal.Correction.Weighted>
   9.000000E+99

> <Gold.Protein.RotatedTorsions>
[ 6907 6896 6895 6894 ] final -131.54 input  -60.11 | X-H torsion
[ 7974 7965 7964 7962 ] final  -13.09 input  175.53 | X-H torsion
[ 8008 7997 7996 7995 ] final  155.31 input   59.86 | X-H torsion
[ 10167 10162 10161 10158 ] final  -19.06 input  -65.29 | X-H torsion
[ 10718 10713 10712 10709 ] final   40.81 input   66.30 | X-H torsion
[ 10763 10752 10751 10750 ] final   37.71 input  -60.55 | X-H torsion
[ 11005 11000 10999 10996 ] final  -37.60 input  -57.11 | X-H torsion

> <Gold.Protein.ActiveResidues>
 VAL166  LYS551  ARG553  GLY616  TRP617  ASP618  TYR619  PRO620  LYS621  CYS622 
 ASP623  PHE694  ASN695  SER759  ASP760  ASP761  ALA762  ILE779  LEU786  VAL792 
 PHE793  MET794  SER795  GLU796  ALA797  LYS798  CYS799  TRP800  GLU811  SER814 

> <Gold.Protein.RotatedAtoms>
  150.9521  133.6537  159.2769 H   0  0  0  0  0  0  0  0  0  0  0  0  # atno 6907 bound_to 6896
  151.3890  135.0951  159.9530 H   0  0  0  0  0  0  0  0  0  0  0  0  # atno 6908 bound_to 6896
  152.5114  133.9040  159.7509 H   0  0  0  0  0  0  0  0  0  0  0  0  # atno 6909 bound_to 6896
  146.2127  140.3152  142.8386 H   0  0  0  0  0  0  0  0  0  0  0  0  # atno 7974 bound_to 7965
  156.2485  140.1943  156.6781 H   0  0  0  0  0  0  0  0  0  0  0  0  # atno 8008 bound_to 7997
  154.6342  140.0592  156.9795 H   0  0  0  0  0  0  0  0  0  0  0  0  # atno 8009 bound_to 7997
  155.1663  140.3264  155.4404 H   0  0  0  0  0  0  0  0  0  0  0  0  # atno 8010 bound_to 7997
  140.7265  143.4855  151.0060 H   0  0  0  0  0  0  0  0  0  0  0  0  # atno 10167 bound_to 10162
  157.3864  130.7782  149.7234 H   0  0  0  0  0  0  0  0  0  0  0  0  # atno 10718 bound_to 10713
  153.0027  135.6270  154.2188 H   0  0  0  0  0  0  0  0  0  0  0  0  # atno 10763 bound_to 10752
  154.1931  135.2807  155.3017 H   0  0  0  0  0  0  0  0  0  0  0  0  # atno 10764 bound_to 10752
  154.5744  135.5667  153.7184 H   0  0  0  0  0  0  0  0  0  0  0  0  # atno 10765 bound_to 10752
  140.9964  133.6978  156.1942 H   0  0  0  0  0  0  0  0  0  0  0  0  # atno 11005 bound_to 11000
  144.8959  140.7582  143.5897 LP  0  0  0  0  0  0  0  0  0  0  0  0  # atno 17320 bound_to 7965
  145.3076  139.1829  143.4656 LP  0  0  0  0  0  0  0  0  0  0  0  0  # atno 17321 bound_to 7965
  139.8556  143.7381  152.3176 LP  0  0  0  0  0  0  0  0  0  0  0  0  # atno 17342 bound_to 10162
  139.7578  144.7515  151.0409 LP  0  0  0  0  0  0  0  0  0  0  0  0  # atno 17343 bound_to 10162
  155.9787  130.4048  150.3629 LP  0  0  0  0  0  0  0  0  0  0  0  0  # atno 17370 bound_to 10713
  157.1739  131.0375  151.2782 LP  0  0  0  0  0  0  0  0  0  0  0  0  # atno 17371 bound_to 10713
  140.6959  134.4616  157.5587 LP  0  0  0  0  0  0  0  0  0  0  0  0  # atno 17394 bound_to 11000
  139.9017  134.8541  156.1870 LP  0  0  0  0  0  0  0  0  0  0  0  0  # atno 17395 bound_to 11000

$$$$
