AV-unprocessed.smi:1679|AV-procd|sdf|6735|dock9
  -GOLD-   22720 7483D 1   1.00000     0.00000
 Structure written by MMmdl.
 44 45  0  0  0  0  0  0  0  0  2 V2000
  145.3610  136.1250  151.2866 C   0  0  0  0  0  0  0  0  0  0  0  0
  145.0233  134.6871  150.8666 C   0  0  2  0  0  0  0  0  0  0  0  0
  143.8489  134.1158  151.6863 C   0  0  0  0  0  0  0  0  0  0  0  0
  143.4701  132.7014  151.2224 C   0  0  0  0  0  0  0  0  0  0  0  0
  144.6814  131.7579  151.2598 C   0  0  0  0  0  0  0  0  0  0  0  0
  145.8582  132.3244  150.4460 C   0  0  0  0  0  0  0  0  0  0  0  0
  146.2478  133.7399  150.9110 C   0  0  2  0  0  0  0  0  0  0  0  0
  146.7382  133.6230  152.2403 O   0  0  0  0  0  0  0  0  0  0  0  0
  148.0414  133.0748  152.3629 C   0  0  0  0  0  0  0  0  0  0  0  0
  148.3472  132.8406  153.8507 C   0  0  0  0  0  0  0  0  0  0  0  0
  148.6651  134.0900  154.5364 N   0  0  0  0  0  0  0  0  0  0  0  0
  149.8042  134.3355  155.2032 C   0  0  0  0  0  0  0  0  0  0  0  0
  150.7371  133.5336  155.2577 O   0  0  0  0  0  0  0  0  0  0  0  0
  149.9110  135.7015  155.8943 C   0  0  0  0  0  0  0  0  0  0  0  0
  151.0238  136.5072  155.3656 N   0  0  0  0  0  0  0  0  0  0  0  0
  151.0378  136.7516  153.9811 C   0  0  0  0  0  0  0  0  0  0  0  0
  151.9913  137.5029  153.3992 C   0  0  0  0  0  0  0  0  0  0  0  0
  153.0326  138.0713  154.2454 C   0  0  0  0  0  0  0  0  0  0  0  0
  153.9040  138.7715  153.7335 O   0  0  0  0  0  0  0  0  0  0  0  0
  152.9859  137.7938  155.5811 N   0  5  0  0  0  0  0  0  0  0  0  0
  152.0109  137.0246  156.1584 C   0  0  0  0  0  0  0  0  0  0  0  0
  151.9932  136.7834  157.3654 O   0  0  0  0  0  0  0  0  0  0  0  0
  145.6666  136.1723  152.3314 H   0  0  0  0  0  0  0  0  0  0  0  0
  144.4975  136.7797  151.1675 H   0  0  0  0  0  0  0  0  0  0  0  0
  146.1703  136.5325  150.6808 H   0  0  0  0  0  0  0  0  0  0  0  0
  144.6956  134.7379  149.8273 H   0  0  0  0  0  0  0  0  0  0  0  0
  144.1096  134.0934  152.7446 H   0  0  0  0  0  0  0  0  0  0  0  0
  142.9801  134.7690  151.6000 H   0  0  0  0  0  0  0  0  0  0  0  0
  142.6723  132.3071  151.8524 H   0  0  0  0  0  0  0  0  0  0  0  0
  143.0714  132.7440  150.2082 H   0  0  0  0  0  0  0  0  0  0  0  0
  144.9902  131.6044  152.2948 H   0  0  0  0  0  0  0  0  0  0  0  0
  144.4004  130.7778  150.8741 H   0  0  0  0  0  0  0  0  0  0  0  0
  146.7172  131.6574  150.5237 H   0  0  0  0  0  0  0  0  0  0  0  0
  145.5858  132.3518  149.3903 H   0  0  0  0  0  0  0  0  0  0  0  0
  147.0274  134.1137  150.2443 H   0  0  0  0  0  0  0  0  0  0  0  0
  148.0825  132.1298  151.8199 H   0  0  0  0  0  0  0  0  0  0  0  0
  148.7924  133.7324  151.9243 H   0  0  0  0  0  0  0  0  0  0  0  0
  147.5156  132.3296  154.3390 H   0  0  0  0  0  0  0  0  0  0  0  0
  149.2115  132.1827  153.9440 H   0  0  0  0  0  0  0  0  0  0  0  0
  147.9558  134.8081  154.5310 H   0  0  0  0  0  0  0  0  0  0  0  0
  148.9609  136.2254  155.7791 H   0  0  0  0  0  0  0  0  0  0  0  0
  150.0293  135.5640  156.9705 H   0  0  0  0  0  0  0  0  0  0  0  0
  150.2279  136.3004  153.4273 H   0  0  0  0  0  0  0  0  0  0  0  0
  151.9822  137.6847  152.3348 H   0  0  0  0  0  0  0  0  0  0  0  0
  1  2  1  0  0  0  0
  1 23  1  0  0  0  0
  1 24  1  0  0  0  0
  1 25  1  0  0  0  0
  2  7  1  0  0  0  0
  2  3  1  0  0  0  0
  2 26  1  0  0  0  0
  3  4  1  0  0  0  0
  3 27  1  0  0  0  0
  3 28  1  0  0  0  0
  4  5  1  0  0  0  0
  4 29  1  0  0  0  0
  4 30  1  0  0  0  0
  5  6  1  0  0  0  0
  5 31  1  0  0  0  0
  5 32  1  0  0  0  0
  6  7  1  0  0  0  0
  6 33  1  0  0  0  0
  6 34  1  0  0  0  0
  7  8  1  0  0  0  0
  7 35  1  0  0  0  0
  8  9  1  0  0  0  0
  9 10  1  0  0  0  0
  9 36  1  0  0  0  0
  9 37  1  0  0  0  0
 10 11  1  0  0  0  0
 10 38  1  0  0  0  0
 10 39  1  0  0  0  0
 11 12  1  0  0  0  0
 11 40  1  0  0  0  0
 12 13  2  0  0  0  0
 12 14  1  0  0  0  0
 14 15  1  0  0  0  0
 14 41  1  0  0  0  0
 14 42  1  0  0  0  0
 15 21  1  0  0  0  0
 15 16  1  0  0  0  0
 16 17  2  0  0  0  0
 16 43  1  0  0  0  0
 17 18  1  0  0  0  0
 17 44  1  0  0  0  0
 18 19  2  0  0  0  0
 18 20  1  0  0  0  0
 20 21  1  0  0  0  0
 21 22  2  0  0  0  0
M  CHG  1  20  -1
M  END
> <s_m_source_file>
AV-unprocessed.smi

> <i_m_source_file_index>
1679

> <i_lp_mmshare_version>
43012

> <i_f3d_flags>
0

> <s_epik_input>
W0NIM11bQ0BASF0xW0NIMl1bQ0gyXVtDSDJdW0NIMl1bQ0BIXTFPW0NIMl1bQ0gyXVtOSF1DKD1PKVtDSDJdbjJbY0hdW2NIXWMoPU8pW25IXWMyPU8=

> <s_epik_cmdline>
J2VwaWtfcHl0aG9uJywgJy1waCcsICc3LjAnLCAnLXRuJywgJzgnLCAnLW1hJywgJzIwMCcsICctbWV0YWxfYmluZGluZycsICctaW1hZScsICc8aW5maWxlLm1hZT4nLCAnLW9tYWUnLCAnPG91dGZpbGUubWFlPic=

> <r_lp_tautomer_probability>
0.999537

> <r_epik_Ionization_Penalty>
3.07454

> <r_epik_Ionization_Penalty_Charging>
2.80088e-08

> <r_epik_Ionization_Penalty_Neutral>
3.07454

> <r_epik_State_Penalty>
3.07357

> <r_epik_Charging_Adjusted_Penalty>
3.07357

> <i_epik_Tot_Q>
-1

> <i_epik_Tot_abs_Q>
1

> <r_epik_Metal_State_Penalty>
0.45948

> <b_epik_Metal_Only>
1

> <s_lp_Force_Field>
OPLS_2005

> <r_lp_Energy>
19.9019

> <b_lp_Chiralities_Consistent>
1

> <s_lp_Variant>
AV-unprocessed.smi:1679-7

> <Gold.Version>
5.8.1

> <Gold.Id.Protein>
6NUR|6NUR_protein|mol2

> <Gold.PLP.Fitness>
45.5903

> <Gold.PLP.PLP>
-38.3593

> <Gold.PLP.part.hbond>
-2.0000

> <Gold.PLP.part.metal>
0.0000

> <Gold.PLP.part.buried>
-6.2775

> <Gold.PLP.part.nonpolar>
-31.9436

> <Gold.PLP.part.repulsive>
0.1508

> <Gold.PLP.ligand.clash>
0.0000

> <Gold.PLP.ligand.torsion>
0.2181

> <Gold.PLP.Chemscore.Hbond>
1.5304

> <Gold.PLP.Chemscore.CHOScore>
1.0000

> <Gold.PLP.Chemscore.Metal>
0.0000

> <Gold.Chemscore.Hbonds>
donor molecule, donor type, donor heavy atom, donor atom, acceptor molecule, acceptor atom, score
      L1  C    16    43       P1  7948  0.32

> <Gold.PLP.Chemscore.Internal.Correction>
0.0760

> <Gold.Rescore>
     Score         DG    S(hbond)    S(metal)    S(lipo)     H(rot)  DE(clash)    DE(int)     intcor
     14.55     -14.87       1.82        0.00      81.74       2.45       0.06       0.25       ----

> <Gold.Chemscore.Fitness>
14.5538

> <Gold.Chemscore.DG>
-14.8685

> <Gold.Chemscore.ZeroCoef>
-5.4800

> <Gold.Chemscore.Hbond>
1.8247

> <Gold.Chemscore.Metal>
0.0000

> <Gold.Chemscore.Lipo>
81.7377

> <Gold.Chemscore.Internal_Hbond>
0.0000

> <Gold.Chemscore.DEClash>
0.0645

> <Gold.Chemscore.DEInternal>
0.2502

> <Gold.Chemscore.Rot>
2.4490

> <Gold.Chemscore.Internal.Correction>
   9.000000E+99

> <Gold.Chemscore.Hbond.Weighted>
-6.0946

> <Gold.Chemscore.Metal.Weighted>
-0.0000

> <Gold.Chemscore.Lipo.Weighted>
-9.5633

> <Gold.Chemscore.Internal_Hbond.Weighted>
0.0000

> <Gold.Chemscore.DEClash.Weighted>
0.0645

> <Gold.Chemscore.DEInternal.Weighted>
0.2502

> <Gold.Chemscore.Rot.Weighted>
6.2694

> <Gold.Chemscore.Internal.Correction.Weighted>
   9.000000E+99

> <Gold.Protein.RotatedTorsions>
[ 6907 6896 6895 6894 ] final -158.57 input  -60.11 | X-H torsion
[ 7974 7965 7964 7962 ] final  155.99 input  175.53 | X-H torsion
[ 8008 7997 7996 7995 ] final   -7.74 input   59.86 | X-H torsion
[ 10167 10162 10161 10158 ] final   -1.88 input  -65.29 | X-H torsion
[ 10718 10713 10712 10709 ] final -164.82 input   66.30 | X-H torsion
[ 10763 10752 10751 10750 ] final -158.56 input  -60.55 | X-H torsion
[ 11005 11000 10999 10996 ] final -142.50 input  -57.11 | X-H torsion

> <Gold.Protein.ActiveResidues>
 VAL166  LYS551  ARG553  GLY616  TRP617  ASP618  TYR619  PRO620  LYS621  CYS622 
 ASP623  PHE694  ASN695  SER759  ASP760  ASP761  ALA762  ILE779  LEU786  VAL792 
 PHE793  MET794  SER795  GLU796  ALA797  LYS798  CYS799  TRP800  GLU811  SER814 

> <Gold.Protein.RotatedAtoms>
  151.3203  133.4043  159.2653 H   0  0  0  0  0  0  0  0  0  0  0  0  # atno 6907 bound_to 6896
  151.0040  134.9345  159.7980 H   0  0  0  0  0  0  0  0  0  0  0  0  # atno 6908 bound_to 6896
  152.5283  134.3167  159.9186 H   0  0  0  0  0  0  0  0  0  0  0  0  # atno 6909 bound_to 6896
  144.7990  139.7143  143.6190 H   0  0  0  0  0  0  0  0  0  0  0  0  # atno 7974 bound_to 7965
  154.5809  140.2399  155.8055 H   0  0  0  0  0  0  0  0  0  0  0  0  # atno 8008 bound_to 7997
  156.2178  140.3007  155.9837 H   0  0  0  0  0  0  0  0  0  0  0  0  # atno 8009 bound_to 7997
  155.2543  140.0412  157.2980 H   0  0  0  0  0  0  0  0  0  0  0  0  # atno 8010 bound_to 7997
  140.6828  143.6722  150.8175 H   0  0  0  0  0  0  0  0  0  0  0  0  # atno 10167 bound_to 10162
  156.6445  130.8982  151.3002 H   0  0  0  0  0  0  0  0  0  0  0  0  # atno 10718 bound_to 10713
  154.7547  135.3101  154.8492 H   0  0  0  0  0  0  0  0  0  0  0  0  # atno 10763 bound_to 10752
  153.9270  135.6789  153.4750 H   0  0  0  0  0  0  0  0  0  0  0  0  # atno 10764 bound_to 10752
  153.1144  135.4851  154.9019 H   0  0  0  0  0  0  0  0  0  0  0  0  # atno 10765 bound_to 10752
  140.8219  134.2621  157.4896 H   0  0  0  0  0  0  0  0  0  0  0  0  # atno 11005 bound_to 11000
  146.2267  139.5735  142.9583 LP  0  0  0  0  0  0  0  0  0  0  0  0  # atno 17320 bound_to 7965
  145.5600  141.0405  143.2231 LP  0  0  0  0  0  0  0  0  0  0  0  0  # atno 17321 bound_to 7965
  140.0425  143.5331  152.2711 LP  0  0  0  0  0  0  0  0  0  0  0  0  # atno 17342 bound_to 10162
  139.6164  144.7620  151.2837 LP  0  0  0  0  0  0  0  0  0  0  0  0  # atno 17343 bound_to 10162
  157.7160  130.9498  150.1259 LP  0  0  0  0  0  0  0  0  0  0  0  0  # atno 17370 bound_to 10713
  156.2132  130.3668  149.8644 LP  0  0  0  0  0  0  0  0  0  0  0  0  # atno 17371 bound_to 10713
  139.8708  134.9540  156.4161 LP  0  0  0  0  0  0  0  0  0  0  0  0  # atno 17394 bound_to 11000
  140.9090  133.7725  155.9769 LP  0  0  0  0  0  0  0  0  0  0  0  0  # atno 17395 bound_to 11000

$$$$
