AV-unprocessed.smi:1576|AV-procd|sdf|6346|dock2
  -GOLD-   22720 6563D 1   1.00000     0.00000
 Structure written by MMmdl.
 46 48  0  0  0  0  0  0  0  0  2 V2000
  146.7381  139.3410  154.6667 O   0  0  0  0  0  0  0  0  0  0  0  0
  147.5407  139.0884  153.7689 C   0  0  0  0  0  0  0  0  0  0  0  0
  148.8274  139.4771  153.7495 N   0  0  0  0  0  0  0  0  0  0  0  0
  149.5233  140.2647  154.7063 C   0  0  0  0  0  0  0  0  0  0  0  0
  150.8966  140.0033  154.9040 C   0  0  0  0  0  0  0  0  0  0  0  0
  151.6286  140.7702  155.8334 C   0  0  0  0  0  0  0  0  0  0  0  0
  150.9752  141.8006  156.5469 C   0  0  0  0  0  0  0  0  0  0  0  0
  151.6180  142.6152  157.4878 N   0  0  0  0  0  0  0  0  0  0  0  0
  151.5570  144.0340  157.1456 C   0  0  0  0  0  0  0  0  0  0  0  0
  152.4396  144.8640  158.0941 C   0  0  0  0  0  0  0  0  0  0  0  0
  152.0722  144.5960  159.5626 C   0  0  0  0  0  0  0  0  0  0  0  0
  152.1215  143.0881  159.8578 C   0  0  0  0  0  0  0  0  0  0  0  0
  151.2441  142.3058  158.8654 C   0  0  0  0  0  0  0  0  0  0  0  0
  149.6635  142.0299  156.3212 N   0  3  0  0  0  0  0  0  0  0  0  0
  148.9261  141.3177  155.4422 C   0  0  0  0  0  0  0  0  0  0  0  0
  147.2363  138.3607  152.6825 N   0  0  0  0  0  0  0  0  0  0  0  0
  145.9450  137.7413  152.3727 C   0  0  1  0  0  0  0  0  0  0  0  0
  145.9042  137.0789  150.9657 C   0  0  0  0  0  0  0  0  0  0  0  0
  145.6922  135.5656  151.0922 C   0  0  0  0  0  0  0  0  0  0  0  0
  144.6929  135.3572  152.6016 S   0  0  0  0  0  0  0  0  0  0  0  0
  143.2988  135.7129  152.2959 O   0  0  0  0  0  0  0  0  0  0  0  0
  145.0286  134.0893  153.2670 O   0  0  0  0  0  0  0  0  0  0  0  0
  145.4738  136.7599  153.4721 C   0  0  0  0  0  0  0  0  0  0  0  0
  149.3864  139.1260  152.9855 H   0  0  0  0  0  0  0  0  0  0  0  0
  151.3897  139.2158  154.3527 H   0  0  0  0  0  0  0  0  0  0  0  0
  152.6777  140.5675  155.9926 H   0  0  0  0  0  0  0  0  0  0  0  0
  151.8833  144.1791  156.1147 H   0  0  0  0  0  0  0  0  0  0  0  0
  150.5238  144.3790  157.2059 H   0  0  0  0  0  0  0  0  0  0  0  0
  153.4886  144.6146  157.9287 H   0  0  0  0  0  0  0  0  0  0  0  0
  152.3346  145.9255  157.8686 H   0  0  0  0  0  0  0  0  0  0  0  0
  152.7512  145.1329  160.2255 H   0  0  0  0  0  0  0  0  0  0  0  0
  151.0703  144.9768  159.7654 H   0  0  0  0  0  0  0  0  0  0  0  0
  153.1521  142.7362  159.7910 H   0  0  0  0  0  0  0  0  0  0  0  0
  151.7939  142.8946  160.8796 H   0  0  0  0  0  0  0  0  0  0  0  0
  150.1944  142.5565  159.0247 H   0  0  0  0  0  0  0  0  0  0  0  0
  151.3483  141.2346  159.0435 H   0  0  0  0  0  0  0  0  0  0  0  0
  147.8962  141.6303  155.3588 H   0  0  0  0  0  0  0  0  0  0  0  0
  147.9700  138.2095  152.0055 H   0  0  0  0  0  0  0  0  0  0  0  0
  145.2322  138.5664  152.3505 H   0  0  0  0  0  0  0  0  0  0  0  0
  145.0566  137.4931  150.4185 H   0  0  0  0  0  0  0  0  0  0  0  0
  146.7856  137.3047  150.3643 H   0  0  0  0  0  0  0  0  0  0  0  0
  145.1856  135.1244  150.2339 H   0  0  0  0  0  0  0  0  0  0  0  0
  146.6421  135.0528  151.2436 H   0  0  0  0  0  0  0  0  0  0  0  0
  146.3040  136.3583  154.0531 H   0  0  0  0  0  0  0  0  0  0  0  0
  144.7597  137.2079  154.1637 H   0  0  0  0  0  0  0  0  0  0  0  0
  149.2072  142.7820  156.8380 H   0  0  0  0  0  0  0  0  0  0  0  0
  1  2  2  0  0  0  0
  2  3  1  0  0  0  0
  2 16  1  0  0  0  0
  3  4  1  0  0  0  0
  3 24  1  0  0  0  0
  4 15  1  0  0  0  0
  4  5  2  0  0  0  0
  5  6  1  0  0  0  0
  5 25  1  0  0  0  0
  6  7  2  0  0  0  0
  6 26  1  0  0  0  0
  7  8  1  0  0  0  0
  7 14  1  0  0  0  0
  8 13  1  0  0  0  0
  8  9  1  0  0  0  0
  9 10  1  0  0  0  0
  9 27  1  0  0  0  0
  9 28  1  0  0  0  0
 10 11  1  0  0  0  0
 10 29  1  0  0  0  0
 10 30  1  0  0  0  0
 11 12  1  0  0  0  0
 11 31  1  0  0  0  0
 11 32  1  0  0  0  0
 12 13  1  0  0  0  0
 12 33  1  0  0  0  0
 12 34  1  0  0  0  0
 13 35  1  0  0  0  0
 13 36  1  0  0  0  0
 14 15  2  0  0  0  0
 14 46  1  0  0  0  0
 15 37  1  0  0  0  0
 16 17  1  0  0  0  0
 16 38  1  0  0  0  0
 17 23  1  0  0  0  0
 17 18  1  0  0  0  0
 17 39  1  0  0  0  0
 18 19  1  0  0  0  0
 18 40  1  0  0  0  0
 18 41  1  0  0  0  0
 19 20  1  0  0  0  0
 19 42  1  0  0  0  0
 19 43  1  0  0  0  0
 20 21  2  0  0  0  0
 20 22  2  0  0  0  0
 20 23  1  0  0  0  0
 23 44  1  0  0  0  0
 23 45  1  0  0  0  0
M  CHG  1  14   1
M  END
> <s_m_source_file>
AV-unprocessed.smi

> <i_m_source_file_index>
1576

> <i_lp_mmshare_version>
43012

> <i_f3d_flags>
0

> <s_epik_input>
Tz1TMSg9TylbQ0gyXVtDSDJdW0NASF0oW0NIMl0xKVtOSF1DKD1PKVtOSF1jMltjSF1bY0hdYyhuW2NIXTIpTjNbQ0gyXVtDSDJdW0NIMl1bQ0gyXVtDSDJdMw==

> <s_epik_cmdline>
J2VwaWtfcHl0aG9uJywgJy1waCcsICc3LjAnLCAnLXRuJywgJzgnLCAnLW1hJywgJzIwMCcsICctbWV0YWxfYmluZGluZycsICctaW1hZScsICc8aW5maWxlLm1hZT4nLCAnLW9tYWUnLCAnPG91dGZpbGUubWFlPic=

> <r_lp_tautomer_probability>
0.999994

> <r_epik_Ionization_Penalty>
1.19724

> <r_epik_Ionization_Penalty_Charging>
1.19722

> <r_epik_Ionization_Penalty_Neutral>
2.11505e-05

> <r_epik_State_Penalty>
1.26251

> <r_epik_Charging_Adjusted_Penalty>
2.45973

> <i_epik_Tot_Q>
1

> <i_epik_Tot_abs_Q>
1

> <r_epik_Metal_State_Penalty>
1.33857

> <b_epik_Metal_Only>
0

> <s_lp_Force_Field>
OPLS_2005

> <r_lp_Energy>
28.6197

> <b_lp_Chiralities_Consistent>
1

> <s_lp_Variant>
AV-unprocessed.smi:1576-4

> <Gold.Version>
5.8.1

> <Gold.Id.Protein>
6NUR|6NUR_protein|mol2

> <Gold.PLP.Fitness>
44.3645

> <Gold.PLP.PLP>
-41.6975

> <Gold.PLP.part.hbond>
-3.2976

> <Gold.PLP.part.metal>
0.0000

> <Gold.PLP.part.buried>
1.5209

> <Gold.PLP.part.nonpolar>
-39.6395

> <Gold.PLP.part.repulsive>
0.6392

> <Gold.PLP.ligand.clash>
0.0000

> <Gold.PLP.ligand.torsion>
0.3950

> <Gold.PLP.Chemscore.Hbond>
1.0915

> <Gold.PLP.Chemscore.CHOScore>
0.0000

> <Gold.PLP.Chemscore.Metal>
0.0000

> <Gold.Chemscore.Hbonds>
donor molecule, donor type, donor heavy atom, donor atom, acceptor molecule, acceptor atom, score
      L1  H     3    24       P1  7957  0.51
      L1  H    14    46       P1  8028  0.23
      L1  H    16    38       P1  7948  0.27

> <Gold.PLP.Chemscore.Internal.Correction>
0.1827

> <Gold.Rescore>
     Score         DG    S(hbond)    S(metal)    S(lipo)     H(rot)  DE(clash)    DE(int)     intcor
     15.04     -17.75       0.92        0.00     105.80       1.25       1.65       1.06       ----

> <Gold.Chemscore.Fitness>
15.0365

> <Gold.Chemscore.DG>
-17.7464

> <Gold.Chemscore.ZeroCoef>
-5.4800

> <Gold.Chemscore.Hbond>
0.9224

> <Gold.Chemscore.Metal>
0.0000

> <Gold.Chemscore.Lipo>
105.7998

> <Gold.Chemscore.Internal_Hbond>
0.0000

> <Gold.Chemscore.DEClash>
1.6492

> <Gold.Chemscore.DEInternal>
1.0606

> <Gold.Chemscore.Rot>
1.2473

> <Gold.Chemscore.Internal.Correction>
   9.000000E+99

> <Gold.Chemscore.Hbonds>
donor molecule, donor type, donor heavy atom, donor atom, acceptor molecule, acceptor atom, score
      L1  H     3    24       P1  7957  0.47
      L1  H    14    46       P1  8028  0.11
      L1  H    16    38       P1  7948  0.26

> <Gold.Chemscore.Hbond.Weighted>
-3.0809

> <Gold.Chemscore.Metal.Weighted>
-0.0000

> <Gold.Chemscore.Lipo.Weighted>
-12.3786

> <Gold.Chemscore.Internal_Hbond.Weighted>
0.0000

> <Gold.Chemscore.DEClash.Weighted>
1.6492

> <Gold.Chemscore.DEInternal.Weighted>
1.0606

> <Gold.Chemscore.Rot.Weighted>
3.1931

> <Gold.Chemscore.Internal.Correction.Weighted>
   9.000000E+99

> <Gold.Protein.RotatedTorsions>
[ 6907 6896 6895 6894 ] final    1.01 input  -60.11 | X-H torsion
[ 7974 7965 7964 7962 ] final  146.98 input  175.53 | X-H torsion
[ 8008 7997 7996 7995 ] final   59.90 input   59.86 | X-H torsion
[ 10167 10162 10161 10158 ] final  -31.44 input  -65.29 | X-H torsion
[ 10718 10713 10712 10709 ] final  176.46 input   66.30 | X-H torsion
[ 10763 10752 10751 10750 ] final  127.71 input  -60.55 | X-H torsion
[ 11005 11000 10999 10996 ] final  -89.27 input  -57.11 | X-H torsion

> <Gold.Protein.ActiveResidues>
 VAL166  LYS551  ARG553  GLY616  TRP617  ASP618  TYR619  PRO620  LYS621  CYS622 
 ASP623  PHE694  ASN695  SER759  ASP760  ASP761  ALA762  ILE779  LEU786  VAL792 
 PHE793  MET794  SER795  GLU796  ALA797  LYS798  CYS799  TRP800  GLU811  SER814 

> <Gold.Protein.RotatedAtoms>
  151.5857  135.1056  160.0027 H   0  0  0  0  0  0  0  0  0  0  0  0  # atno 6907 bound_to 6896
  152.4332  133.7309  159.6597 H   0  0  0  0  0  0  0  0  0  0  0  0  # atno 6908 bound_to 6896
  150.8226  133.8156  159.3155 H   0  0  0  0  0  0  0  0  0  0  0  0  # atno 6909 bound_to 6896
  144.8628  139.5972  143.5923 H   0  0  0  0  0  0  0  0  0  0  0  0  # atno 7974 bound_to 7965
  155.5736  140.3490  155.4522 H   0  0  0  0  0  0  0  0  0  0  0  0  # atno 8008 bound_to 7997
  156.0426  140.1299  157.0165 H   0  0  0  0  0  0  0  0  0  0  0  0  # atno 8009 bound_to 7997
  154.4398  140.1021  156.6244 H   0  0  0  0  0  0  0  0  0  0  0  0  # atno 8010 bound_to 7997
  140.7236  143.3771  151.1670 H   0  0  0  0  0  0  0  0  0  0  0  0  # atno 10167 bound_to 10162
  156.9198  130.9937  151.3006 H   0  0  0  0  0  0  0  0  0  0  0  0  # atno 10718 bound_to 10713
  153.7138  135.3264  155.3252 H   0  0  0  0  0  0  0  0  0  0  0  0  # atno 10763 bound_to 10752
  154.8377  135.4483  154.1287 H   0  0  0  0  0  0  0  0  0  0  0  0  # atno 10764 bound_to 10752
  153.2388  135.6968  153.7886 H   0  0  0  0  0  0  0  0  0  0  0  0  # atno 10765 bound_to 10752
  141.1587  133.7620  156.9571 H   0  0  0  0  0  0  0  0  0  0  0  0  # atno 11005 bound_to 11000
  146.2873  139.7040  142.9186 LP  0  0  0  0  0  0  0  0  0  0  0  0  # atno 17320 bound_to 7965
  145.4279  141.0412  143.2927 LP  0  0  0  0  0  0  0  0  0  0  0  0  # atno 17321 bound_to 7965
  139.7353  143.9009  152.3033 LP  0  0  0  0  0  0  0  0  0  0  0  0  # atno 17342 bound_to 10162
  139.8812  144.7017  150.8876 LP  0  0  0  0  0  0  0  0  0  0  0  0  # atno 17343 bound_to 10162
  157.5915  130.8447  149.8666 LP  0  0  0  0  0  0  0  0  0  0  0  0  # atno 17370 bound_to 10713
  156.0496  130.3720  150.1233 LP  0  0  0  0  0  0  0  0  0  0  0  0  # atno 17371 bound_to 10713
  140.1218  134.9412  157.2214 LP  0  0  0  0  0  0  0  0  0  0  0  0  # atno 17394 bound_to 11000
  140.3063  134.3075  155.7277 LP  0  0  0  0  0  0  0  0  0  0  0  0  # atno 17395 bound_to 11000

$$$$
