AV-unprocessed.smi:3019|AV-procd|sdf|11488|dock1
  -GOLD-   2272016423D 1   1.00000     0.00000
 Structure written by MMmdl.
 31 32  0  0  0  0  0  0  0  0  2 V2000
  152.7400  143.6385  158.5909 C   0  0  0  0  0  0  0  0  0  0  0  0
  152.4283  142.2150  159.0760 C   0  0  0  0  0  0  0  0  0  0  0  0
  153.5612  141.6051  159.9146 C   0  0  0  0  0  0  0  0  0  0  0  0
  152.0318  141.3177  157.9434 C   0  0  0  0  0  0  0  0  0  0  0  0
  152.6458  140.1532  157.7379 N   0  0  0  0  0  0  0  0  0  0  0  0
  152.0005  139.6817  156.6510 N   0  0  0  0  0  0  0  0  0  0  0  0
  151.0613  140.5556  156.2788 C   0  0  0  0  0  0  0  0  0  0  0  0
  150.1806  140.3486  155.0860 C   0  0  1  0  0  0  0  0  0  0  0  0
  150.3262  138.9365  154.4874 C   0  0  0  0  0  0  0  0  0  0  0  0
  149.3805  138.7639  153.3675 N   0  3  0  0  0  0  0  0  0  0  0  0
  147.9937  139.0573  153.7806 C   0  0  0  0  0  0  0  0  0  0  0  0
  147.9137  140.4585  154.4121 C   0  0  0  0  0  0  0  0  0  0  0  0
  148.8298  140.5497  155.4989 O   0  0  0  0  0  0  0  0  0  0  0  0
  151.0345  141.6301  157.0598 N   0  0  0  0  0  0  0  0  0  0  0  0
  152.2214  138.7955  156.2195 H   0  0  0  0  0  0  0  0  0  0  0  0
  151.8871  144.0690  158.0649 H   0  0  0  0  0  0  0  0  0  0  0  0
  153.5917  143.6490  157.9101 H   0  0  0  0  0  0  0  0  0  0  0  0
  152.9771  144.2951  159.4284 H   0  0  0  0  0  0  0  0  0  0  0  0
  151.5664  142.2991  159.7403 H   0  0  0  0  0  0  0  0  0  0  0  0
  153.2772  140.6269  160.3042 H   0  0  0  0  0  0  0  0  0  0  0  0
  153.8049  142.2411  160.7661 H   0  0  0  0  0  0  0  0  0  0  0  0
  154.4692  141.4787  159.3243 H   0  0  0  0  0  0  0  0  0  0  0  0
  150.4430  141.1011  154.3394 H   0  0  0  0  0  0  0  0  0  0  0  0
  151.3429  138.7713  154.1295 H   0  0  0  0  0  0  0  0  0  0  0  0
  150.1237  138.1780  155.2452 H   0  0  0  0  0  0  0  0  0  0  0  0
  149.6390  139.3995  152.6262 H   0  0  0  0  0  0  0  0  0  0  0  0
  147.3350  138.9886  152.9146 H   0  0  0  0  0  0  0  0  0  0  0  0
  147.6654  138.3023  154.4961 H   0  0  0  0  0  0  0  0  0  0  0  0
  148.1313  141.2314  153.6731 H   0  0  0  0  0  0  0  0  0  0  0  0
  146.9058  140.6473  154.7823 H   0  0  0  0  0  0  0  0  0  0  0  0
  149.4359  137.8160  153.0225 H   0  0  0  0  0  0  0  0  0  0  0  0
  1  2  1  0  0  0  0
  1 16  1  0  0  0  0
  1 17  1  0  0  0  0
  1 18  1  0  0  0  0
  2  3  1  0  0  0  0
  2  4  1  0  0  0  0
  2 19  1  0  0  0  0
  3 20  1  0  0  0  0
  3 21  1  0  0  0  0
  3 22  1  0  0  0  0
  4 14  1  0  0  0  0
  4  5  2  0  0  0  0
  5  6  1  0  0  0  0
  6 15  1  0  0  0  0
  6  7  1  0  0  0  0
  7  8  1  0  0  0  0
  7 14  2  0  0  0  0
  8 13  1  0  0  0  0
  8  9  1  0  0  0  0
  8 23  1  0  0  0  0
  9 10  1  0  0  0  0
  9 24  1  0  0  0  0
  9 25  1  0  0  0  0
 10 11  1  0  0  0  0
 10 26  1  0  0  0  0
 10 31  1  0  0  0  0
 11 12  1  0  0  0  0
 11 27  1  0  0  0  0
 11 28  1  0  0  0  0
 12 13  1  0  0  0  0
 12 29  1  0  0  0  0
 12 30  1  0  0  0  0
M  CHG  1  10   1
M  END
> <s_m_source_file>
AV-unprocessed.smi

> <i_m_source_file_index>
3019

> <i_lp_mmshare_version>
43012

> <i_f3d_flags>
0

> <s_epik_input>
W0NIM11bQ0hdKFtDSDNdKWMxbltuSF1jKG4xKVtDQEBIXTJbQ0gyXVtOSF1bQ0gyXVtDSDJdTzI=

> <s_epik_cmdline>
J2VwaWtfcHl0aG9uJywgJy1waCcsICc3LjAnLCAnLXRuJywgJzgnLCAnLW1hJywgJzIwMCcsICctbWV0YWxfYmluZGluZycsICctaW1hZScsICc8aW5maWxlLm1hZT4nLCAnLW9tYWUnLCAnPG91dGZpbGUubWFlPic=

> <r_epik_Ionization_Penalty>
0.162344

> <r_epik_Ionization_Penalty_Charging>
0.125708

> <r_epik_Ionization_Penalty_Neutral>
0.0366363

> <r_epik_State_Penalty>
1.18286

> <r_epik_Charging_Adjusted_Penalty>
1.30856

> <i_epik_Tot_Q>
1

> <i_epik_Tot_abs_Q>
1

> <r_epik_Metal_State_Penalty>
1.49333

> <b_epik_Metal_Only>
0

> <s_lp_Force_Field>
OPLS_2005

> <r_lp_Energy>
8.53266

> <b_lp_Chiralities_Consistent>
1

> <s_lp_Variant>
AV-unprocessed.smi:3019-4

> <Gold.Version>
5.8.1

> <Gold.Id.Protein>
6NUR|6NUR_protein|mol2

> <Gold.PLP.Fitness>
38.0508

> <Gold.PLP.PLP>
-26.7488

> <Gold.PLP.part.hbond>
-2.8804

> <Gold.PLP.part.metal>
0.0000

> <Gold.PLP.part.buried>
-2.4877

> <Gold.PLP.part.nonpolar>
-21.3984

> <Gold.PLP.part.repulsive>
0.3553

> <Gold.PLP.ligand.clash>
0.0000

> <Gold.PLP.ligand.torsion>
0.1817

> <Gold.PLP.Chemscore.Hbond>
3.8664

> <Gold.PLP.Chemscore.CHOScore>
0.0000

> <Gold.PLP.Chemscore.Metal>
0.0000

> <Gold.Chemscore.Hbonds>
donor molecule, donor type, donor heavy atom, donor atom, acceptor molecule, acceptor atom, score
      L1  H    10    26       P1  7957  1.00
      L1  H    10    31       P1  7948  2.00
      P1  H  7997  8009       L1     5  0.79

> <Gold.PLP.Chemscore.Internal.Correction>
0.0662

> <Gold.Rescore>
     Score         DG    S(hbond)    S(metal)    S(lipo)     H(rot)  DE(clash)    DE(int)     intcor
     17.48     -17.89       2.63        0.00      58.97       1.28       0.26       0.15       ----

> <Gold.Chemscore.Fitness>
17.4815

> <Gold.Chemscore.DG>
-17.8888

> <Gold.Chemscore.ZeroCoef>
-5.4800

> <Gold.Chemscore.Hbond>
2.6300

> <Gold.Chemscore.Metal>
0.0000

> <Gold.Chemscore.Lipo>
58.9749

> <Gold.Chemscore.Internal_Hbond>
0.0000

> <Gold.Chemscore.DEClash>
0.2566

> <Gold.Chemscore.DEInternal>
0.1507

> <Gold.Chemscore.Rot>
1.2795

> <Gold.Chemscore.Internal.Correction>
   9.000000E+99

> <Gold.Chemscore.Hbonds>
donor molecule, donor type, donor heavy atom, donor atom, acceptor molecule, acceptor atom, score
      L1  H    10    26       P1  7957  0.97
      L1  H    10    31       P1  7948  0.87
      P1  H  7997  8009       L1     5  0.14

> <Gold.Chemscore.Hbond.Weighted>
-8.7842

> <Gold.Chemscore.Metal.Weighted>
-0.0000

> <Gold.Chemscore.Lipo.Weighted>
-6.9001

> <Gold.Chemscore.Internal_Hbond.Weighted>
0.0000

> <Gold.Chemscore.DEClash.Weighted>
0.2566

> <Gold.Chemscore.DEInternal.Weighted>
0.1507

> <Gold.Chemscore.Rot.Weighted>
3.2754

> <Gold.Chemscore.Internal.Correction.Weighted>
   9.000000E+99

> <Gold.Protein.RotatedTorsions>
[ 6907 6896 6895 6894 ] final  174.34 input  -60.11 | X-H torsion
[ 7974 7965 7964 7962 ] final  179.53 input  175.53 | X-H torsion
[ 8008 7997 7996 7995 ] final  156.90 input   59.86 | X-H torsion
[ 10167 10162 10161 10158 ] final  155.19 input  -65.29 | X-H torsion
[ 10718 10713 10712 10709 ] final  -54.25 input   66.30 | X-H torsion
[ 10763 10752 10751 10750 ] final -179.51 input  -60.55 | X-H torsion
[ 11005 11000 10999 10996 ] final   16.14 input  -57.11 | X-H torsion

> <Gold.Protein.ActiveResidues>
 VAL166  LYS551  ARG553  GLY616  TRP617  ASP618  TYR619  PRO620  LYS621  CYS622 
 ASP623  PHE694  ASN695  SER759  ASP760  ASP761  ALA762  ILE779  LEU786  VAL792 
 PHE793  MET794  SER795  GLU796  ALA797  LYS798  CYS799  TRP800  GLU811  SER814 

> <Gold.Protein.RotatedAtoms>
  151.7539  133.3329  159.3398 H   0  0  0  0  0  0  0  0  0  0  0  0  # atno 6907 bound_to 6896
  150.7524  134.6167  159.6124 H   0  0  0  0  0  0  0  0  0  0  0  0  # atno 6908 bound_to 6896
  152.3450  134.7085  160.0304 H   0  0  0  0  0  0  0  0  0  0  0  0  # atno 6909 bound_to 6896
  144.7145  140.0562  143.6434 H   0  0  0  0  0  0  0  0  0  0  0  0  # atno 7974 bound_to 7965
  156.2395  140.1900  156.7027 H   0  0  0  0  0  0  0  0  0  0  0  0  # atno 8008 bound_to 7997
  154.6170  140.0614  156.9594 H   0  0  0  0  0  0  0  0  0  0  0  0  # atno 8009 bound_to 7997
  155.1923  140.3285  155.4359 H   0  0  0  0  0  0  0  0  0  0  0  0  # atno 8010 bound_to 7997
  139.4821  144.5121  151.8009 H   0  0  0  0  0  0  0  0  0  0  0  0  # atno 10167 bound_to 10162
  156.1467  130.4152  150.0013 H   0  0  0  0  0  0  0  0  0  0  0  0  # atno 10718 bound_to 10713
  154.5342  135.2802  155.1153 H   0  0  0  0  0  0  0  0  0  0  0  0  # atno 10763 bound_to 10752
  154.2661  135.6312  153.5296 H   0  0  0  0  0  0  0  0  0  0  0  0  # atno 10764 bound_to 10752
  152.9963  135.5617  154.5864 H   0  0  0  0  0  0  0  0  0  0  0  0  # atno 10765 bound_to 10752
  140.4504  134.1230  155.7701 H   0  0  0  0  0  0  0  0  0  0  0  0  # atno 11005 bound_to 11000
  145.9902  139.3009  143.0989 LP  0  0  0  0  0  0  0  0  0  0  0  0  # atno 17320 bound_to 7965
  145.8911  140.9303  143.0551 LP  0  0  0  0  0  0  0  0  0  0  0  0  # atno 17321 bound_to 7965
  140.4625  144.1702  150.5908 LP  0  0  0  0  0  0  0  0  0  0  0  0  # atno 17342 bound_to 10162
  140.4469  143.2503  151.9399 LP  0  0  0  0  0  0  0  0  0  0  0  0  # atno 17343 bound_to 10162
  156.7882  130.9246  151.3646 LP  0  0  0  0  0  0  0  0  0  0  0  0  # atno 17370 bound_to 10713
  157.6622  130.8976  149.9855 LP  0  0  0  0  0  0  0  0  0  0  0  0  # atno 17371 bound_to 10713
  141.1666  133.8690  157.1695 LP  0  0  0  0  0  0  0  0  0  0  0  0  # atno 17394 bound_to 11000
  140.0011  135.0027  157.0191 LP  0  0  0  0  0  0  0  0  0  0  0  0  # atno 17395 bound_to 11000

$$$$
