AV-unprocessed.smi:3237|AV-procd|sdf|12368|dock7
  -GOLD-   2272018233D 1   1.00000     0.00000
 Structure written by MMmdl.
 36 38  0  0  0  0  0  0  0  0  3 V2000
  149.2922  140.6124  154.2440 C   0  0  0  0  0  0  0  0  0  0  0  0
  149.5033  139.1848  154.6159 C   0  0  0  0  0  0  0  0  0  0  0  0
  150.5484  138.3234  154.4376 C   0  0  0  0  0  0  0  0  0  0  0  0
  150.0782  137.1170  155.0247 C   0  0  0  0  0  0  0  0  0  0  0  0
  150.7585  135.9633  155.1091 N   0  5  0  0  0  0  0  0  0  0  0  0
  150.0958  134.7883  155.2029 C   0  0  0  0  0  0  0  0  0  0  0  0
  150.2302  133.9385  156.0863 O   0  0  0  0  0  0  0  0  0  0  0  0
  149.2191  134.5854  154.2101 N   0  0  0  0  0  0  0  0  0  0  0  0
  148.3674  133.4115  154.0593 C   0  0  1  0  0  0  0  0  0  0  0  0
  147.3908  133.4816  152.8895 C   0  0  0  0  0  0  0  0  0  0  0  0
  147.0529  132.0063  152.6493 C   0  0  0  0  0  0  0  0  0  0  0  0
  148.2249  131.2186  153.1069 N   0  3  2  0  0  0  0  0  0  0  0  0
  147.8669  130.0810  153.9822 C   0  0  0  0  0  0  0  0  0  0  0  0
  148.8729  128.9553  153.9525 C   0  0  0  0  0  0  0  0  0  0  0  0
  147.5532  128.8123  153.2258 C   0  0  0  0  0  0  0  0  0  0  0  0
  149.1807  132.1628  153.7258 C   0  0  0  0  0  0  0  0  0  0  0  0
  148.8623  137.2403  155.5297 N   0  0  0  0  0  0  0  0  0  0  0  0
  148.4831  138.5616  155.2646 O   0  0  0  0  0  0  0  0  0  0  0  0
  150.2307  141.1656  154.2836 H   0  0  0  0  0  0  0  0  0  0  0  0
  148.5884  141.0941  154.9233 H   0  0  0  0  0  0  0  0  0  0  0  0
  148.8948  140.6914  153.2321 H   0  0  0  0  0  0  0  0  0  0  0  0
  151.4960  138.5220  153.9600 H   0  0  0  0  0  0  0  0  0  0  0  0
  149.1430  135.3054  153.5064 H   0  0  0  0  0  0  0  0  0  0  0  0
  147.8158  133.2355  154.9851 H   0  0  0  0  0  0  0  0  0  0  0  0
  146.5098  134.0871  153.1049 H   0  0  0  0  0  0  0  0  0  0  0  0
  147.8823  133.9004  152.0099 H   0  0  0  0  0  0  0  0  0  0  0  0
  146.1684  131.7385  153.2301 H   0  0  0  0  0  0  0  0  0  0  0  0
  146.8303  131.8035  151.6015 H   0  0  0  0  0  0  0  0  0  0  0  0
  147.3364  130.3245  154.9014 H   0  0  0  0  0  0  0  0  0  0  0  0
  149.7695  129.0821  153.3482 H   0  0  0  0  0  0  0  0  0  0  0  0
  149.0051  128.3772  154.8648 H   0  0  0  0  0  0  0  0  0  0  0  0
  146.8161  128.1390  153.6588 H   0  0  0  0  0  0  0  0  0  0  0  0
  147.5720  128.8432  152.1377 H   0  0  0  0  0  0  0  0  0  0  0  0
  149.9474  132.3949  152.9850 H   0  0  0  0  0  0  0  0  0  0  0  0
  149.6841  131.7478  154.6002 H   0  0  0  0  0  0  0  0  0  0  0  0
  148.6784  130.8354  152.2899 H   0  0  0  0  0  0  0  0  0  0  0  0
  1  2  1  0  0  0  0
  1 19  1  0  0  0  0
  1 20  1  0  0  0  0
  1 21  1  0  0  0  0
  2 18  1  0  0  0  0
  2  3  2  0  0  0  0
  3  4  1  0  0  0  0
  3 22  1  0  0  0  0
  4  5  1  0  0  0  0
  4 17  2  0  0  0  0
  5  6  1  0  0  0  0
  6  7  2  0  0  0  0
  6  8  1  0  0  0  0
  8  9  1  0  0  0  0
  8 23  1  0  0  0  0
  9 16  1  0  0  0  0
  9 10  1  0  0  0  0
  9 24  1  0  0  0  0
 10 11  1  0  0  0  0
 10 25  1  0  0  0  0
 10 26  1  0  0  0  0
 11 12  1  0  0  0  0
 11 27  1  0  0  0  0
 11 28  1  0  0  0  0
 12 13  1  0  0  0  0
 12 16  1  0  0  0  0
 12 36  1  0  0  0  0
 13 15  1  0  0  0  0
 13 14  1  0  0  0  0
 13 29  1  0  0  0  0
 14 15  1  0  0  0  0
 14 30  1  0  0  0  0
 14 31  1  0  0  0  0
 15 32  1  0  0  0  0
 15 33  1  0  0  0  0
 16 34  1  0  0  0  0
 16 35  1  0  0  0  0
 17 18  1  0  0  0  0
M  CHG  1   5  -1
M  CHG  1  12   1
M  END
> <s_m_source_file>
AV-unprocessed.smi

> <i_m_source_file_index>
3237

> <i_lp_mmshare_version>
43012

> <i_f3d_flags>
0

> <s_epik_input>
W0NIM11jMVtjSF1jKG5vMSlbTkhdQyg9TylbTkhdW0NAQEhdMltDSDJdW0NIMl1OKFtDSDJdMilbQ0hdM1tDSDJdW0NIMl0z

> <s_epik_cmdline>
J2VwaWtfcHl0aG9uJywgJy1waCcsICc3LjAnLCAnLXRuJywgJzgnLCAnLW1hJywgJzIwMCcsICctbWV0YWxfYmluZGluZycsICctaW1hZScsICc8aW5maWxlLm1hZT4nLCAnLW9tYWUnLCAnPG91dGZpbGUubWFlPic=

> <r_epik_Ionization_Penalty>
6.08472

> <r_epik_Ionization_Penalty_Charging>
6.08464

> <r_epik_Ionization_Penalty_Neutral>
8.41751e-05

> <r_epik_State_Penalty>
6.08438

> <r_epik_Charging_Adjusted_Penalty>
12.169

> <i_epik_Tot_Q>
0

> <i_epik_Tot_abs_Q>
2

> <r_epik_Metal_State_Penalty>
2.0369

> <b_epik_Metal_Only>
1

> <s_lp_Force_Field>
OPLS_2005

> <r_lp_Energy>
24.4971

> <b_lp_Chiralities_Consistent>
1

> <s_lp_Variant>
AV-unprocessed.smi:3237-6

> <Gold.Version>
5.8.1

> <Gold.Id.Protein>
6NUR|6NUR_protein|mol2

> <Gold.PLP.Fitness>
39.4036

> <Gold.PLP.PLP>
-28.7869

> <Gold.PLP.part.hbond>
-3.0000

> <Gold.PLP.part.metal>
0.0000

> <Gold.PLP.part.buried>
-2.3436

> <Gold.PLP.part.nonpolar>
-22.6379

> <Gold.PLP.part.repulsive>
0.3212

> <Gold.PLP.ligand.clash>
0.0000

> <Gold.PLP.ligand.torsion>
1.3258

> <Gold.PLP.Chemscore.Hbond>
4.0000

> <Gold.PLP.Chemscore.CHOScore>
0.0000

> <Gold.PLP.Chemscore.Metal>
0.0000

> <Gold.Chemscore.Hbonds>
donor molecule, donor type, donor heavy atom, donor atom, acceptor molecule, acceptor atom, score
      L1  H     8    23       P1  7948  1.00
      L1  H    12    36       P1 10747  1.00
      P1  H 10752 10764       L1     5  0.78

> <Gold.PLP.Chemscore.Internal.Correction>
1.2683

> <Gold.Rescore>
     Score         DG    S(hbond)    S(metal)    S(lipo)     H(rot)  DE(clash)    DE(int)     intcor
     15.83     -17.31       2.40        0.00      59.77       1.25       0.07       1.40       ----

> <Gold.Chemscore.Fitness>
15.8349

> <Gold.Chemscore.DG>
-17.3096

> <Gold.Chemscore.ZeroCoef>
-5.4800

> <Gold.Chemscore.Hbond>
2.4034

> <Gold.Chemscore.Metal>
0.0000

> <Gold.Chemscore.Lipo>
59.7707

> <Gold.Chemscore.Internal_Hbond>
0.0000

> <Gold.Chemscore.DEClash>
0.0726

> <Gold.Chemscore.DEInternal>
1.4021

> <Gold.Chemscore.Rot>
1.2464

> <Gold.Chemscore.Internal.Correction>
   9.000000E+99

> <Gold.Chemscore.Hbonds>
donor molecule, donor type, donor heavy atom, donor atom, acceptor molecule, acceptor atom, score
      L1  H     8    23       P1  7948  0.40
      L1  H    12    36       P1 10747  0.71
      P1  H 10752 10764       L1     5  0.29

> <Gold.Chemscore.Hbond.Weighted>
-8.0273

> <Gold.Chemscore.Metal.Weighted>
-0.0000

> <Gold.Chemscore.Lipo.Weighted>
-6.9932

> <Gold.Chemscore.Internal_Hbond.Weighted>
0.0000

> <Gold.Chemscore.DEClash.Weighted>
0.0726

> <Gold.Chemscore.DEInternal.Weighted>
1.4021

> <Gold.Chemscore.Rot.Weighted>
3.1909

> <Gold.Chemscore.Internal.Correction.Weighted>
   9.000000E+99

> <Gold.Protein.RotatedTorsions>
[ 6907 6896 6895 6894 ] final -102.95 input  -60.11 | X-H torsion
[ 7974 7965 7964 7962 ] final  -12.95 input  175.53 | X-H torsion
[ 8008 7997 7996 7995 ] final  150.91 input   59.86 | X-H torsion
[ 10167 10162 10161 10158 ] final   16.16 input  -65.29 | X-H torsion
[ 10718 10713 10712 10709 ] final -114.96 input   66.30 | X-H torsion
[ 10763 10752 10751 10750 ] final  -67.25 input  -60.55 | X-H torsion
[ 11005 11000 10999 10996 ] final -130.79 input  -57.11 | X-H torsion

> <Gold.Protein.ActiveResidues>
 VAL166  LYS551  ARG553  GLY616  TRP617  ASP618  TYR619  PRO620  LYS621  CYS622 
 ASP623  PHE694  ASN695  SER759  ASP760  ASP761  ALA762  ILE779  LEU786  VAL792 
 PHE793  MET794  SER795  GLU796  ALA797  LYS798  CYS799  TRP800  GLU811  SER814 

> <Gold.Protein.RotatedAtoms>
  150.7218  134.0504  159.3796 H   0  0  0  0  0  0  0  0  0  0  0  0  # atno 6907 bound_to 6896
  151.8480  135.0565  160.0465 H   0  0  0  0  0  0  0  0  0  0  0  0  # atno 6908 bound_to 6896
  152.2812  133.5436  159.5535 H   0  0  0  0  0  0  0  0  0  0  0  0  # atno 6909 bound_to 6896
  146.2133  140.3132  142.8384 H   0  0  0  0  0  0  0  0  0  0  0  0  # atno 7974 bound_to 7965
  156.2696  140.2062  156.6093 H   0  0  0  0  0  0  0  0  0  0  0  0  # atno 8008 bound_to 7997
  154.6844  140.0536  157.0323 H   0  0  0  0  0  0  0  0  0  0  0  0  # atno 8009 bound_to 7997
  155.0954  140.3200  155.4565 H   0  0  0  0  0  0  0  0  0  0  0  0  # atno 8010 bound_to 7997
  140.5817  143.8968  150.6795 H   0  0  0  0  0  0  0  0  0  0  0  0  # atno 10167 bound_to 10162
  156.0864  130.6055  150.8843 H   0  0  0  0  0  0  0  0  0  0  0  0  # atno 10718 bound_to 10713
  154.3718  135.6093  153.5744 H   0  0  0  0  0  0  0  0  0  0  0  0  # atno 10763 bound_to 10752
  152.9790  135.5840  154.4513 H   0  0  0  0  0  0  0  0  0  0  0  0  # atno 10764 bound_to 10752
  154.4268  135.2847  155.1916 H   0  0  0  0  0  0  0  0  0  0  0  0  # atno 10765 bound_to 10752
  140.9315  134.1313  157.4231 H   0  0  0  0  0  0  0  0  0  0  0  0  # atno 11005 bound_to 11000
  144.8973  140.7599  143.5889 LP  0  0  0  0  0  0  0  0  0  0  0  0  # atno 17320 bound_to 7965
  145.3056  139.1835  143.4666 LP  0  0  0  0  0  0  0  0  0  0  0  0  # atno 17321 bound_to 7965
  140.2469  143.3622  152.1439 LP  0  0  0  0  0  0  0  0  0  0  0  0  # atno 17342 bound_to 10162
  139.5173  144.6990  151.5547 LP  0  0  0  0  0  0  0  0  0  0  0  0  # atno 17343 bound_to 10162
  157.5999  131.0941  150.8977 LP  0  0  0  0  0  0  0  0  0  0  0  0  # atno 17370 bound_to 10713
  156.9137  130.5290  149.5280 LP  0  0  0  0  0  0  0  0  0  0  0  0  # atno 17371 bound_to 10713
  139.8797  135.0006  156.6022 LP  0  0  0  0  0  0  0  0  0  0  0  0  # atno 17394 bound_to 11000
  140.7856  133.8624  155.8604 LP  0  0  0  0  0  0  0  0  0  0  0  0  # atno 17395 bound_to 11000

$$$$
