AV-unprocessed.smi:1830|AV-procd|sdf|7432|dock9
  -GOLD-   22720 9113D 1   1.00000     0.00000
 Structure written by MMmdl.
 53 56  0  0  0  0  0  0  0  0  2 V2000
  145.2638  138.0904  153.1114 O   0  0  0  0  0  0  0  0  0  0  0  0
  146.2927  137.5314  152.7312 C   0  0  0  0  0  0  0  0  0  0  0  0
  146.3057  136.4174  151.9868 N   0  0  0  0  0  0  0  0  0  0  0  0
  145.1300  135.8130  151.3661 C   0  0  0  0  0  0  0  0  0  0  0  0
  144.9227  134.3507  151.8152 C   0  0  2  0  0  0  0  0  0  0  0  0
  146.2370  133.6561  152.2614 C   0  0  0  0  0  0  0  0  0  0  0  0
  145.9544  132.2350  152.5305 N   0  3  2  0  0  0  0  0  0  0  0  0
  147.0691  131.3741  152.9650 C   0  0  0  0  0  0  0  0  0  0  0  0
  146.6749  129.9517  152.5184 C   0  0  0  0  0  0  0  0  0  0  0  0
  145.3508  130.1082  151.7512 C   0  0  0  0  0  0  0  0  0  0  0  0
  145.3612  131.5818  151.3617 C   0  0  1  0  0  0  0  0  0  0  0  0
  144.0236  132.2579  151.0420 C   0  0  0  0  0  0  0  0  0  0  0  0
  144.2974  133.6275  150.7477 O   0  0  0  0  0  0  0  0  0  0  0  0
  147.5369  137.9782  152.9602 N   0  0  0  0  0  0  0  0  0  0  0  0
  147.8712  139.2792  153.4178 C   0  0  0  0  0  0  0  0  0  0  0  0
  146.9490  140.3414  153.2706 C   0  0  0  0  0  0  0  0  0  0  0  0
  147.2703  141.6074  153.7889 C   0  0  0  0  0  0  0  0  0  0  0  0
  148.5002  141.7601  154.4506 C   0  0  0  0  0  0  0  0  0  0  0  0
  149.3845  140.7538  154.6056 N   0  0  0  0  0  0  0  0  0  0  0  0
  149.0984  139.5295  154.0974 C   0  0  0  0  0  0  0  0  0  0  0  0
  150.0814  138.5251  154.2677 N   0  0  0  0  0  0  0  0  0  0  0  0
  149.7664  137.2910  154.9802 C   0  0  0  0  0  0  0  0  0  0  0  0
  151.1182  136.6550  155.2948 C   0  0  0  0  0  0  0  0  0  0  0  0
  152.0027  137.8717  155.5460 C   0  0  0  0  0  0  0  0  0  0  0  0
  151.4532  138.9190  154.5738 C   0  0  0  0  0  0  0  0  0  0  0  0
  147.2015  136.0180  151.7479 H   0  0  0  0  0  0  0  0  0  0  0  0
  144.2626  136.4078  151.6528 H   0  0  0  0  0  0  0  0  0  0  0  0
  145.1954  135.8732  150.2784 H   0  0  0  0  0  0  0  0  0  0  0  0
  144.2276  134.3535  152.6565 H   0  0  0  0  0  0  0  0  0  0  0  0
  147.0048  133.7249  151.4909 H   0  0  0  0  0  0  0  0  0  0  0  0
  146.6358  134.1296  153.1589 H   0  0  0  0  0  0  0  0  0  0  0  0
  147.9953  131.6788  152.4758 H   0  0  0  0  0  0  0  0  0  0  0  0
  147.2150  131.4476  154.0430 H   0  0  0  0  0  0  0  0  0  0  0  0
  147.4473  129.5404  151.8674 H   0  0  0  0  0  0  0  0  0  0  0  0
  146.5632  129.2738  153.3651 H   0  0  0  0  0  0  0  0  0  0  0  0
  145.2784  129.4433  150.8900 H   0  0  0  0  0  0  0  0  0  0  0  0
  144.5094  129.8980  152.4130 H   0  0  0  0  0  0  0  0  0  0  0  0
  146.0343  131.7038  150.5102 H   0  0  0  0  0  0  0  0  0  0  0  0
  143.5550  131.7924  150.1749 H   0  0  0  0  0  0  0  0  0  0  0  0
  143.3239  132.1795  151.8756 H   0  0  0  0  0  0  0  0  0  0  0  0
  148.2870  137.4588  152.5280 H   0  0  0  0  0  0  0  0  0  0  0  0
  145.9982  140.1903  152.7810 H   0  0  0  0  0  0  0  0  0  0  0  0
  146.5859  142.4371  153.6912 H   0  0  0  0  0  0  0  0  0  0  0  0
  148.7820  142.7150  154.8690 H   0  0  0  0  0  0  0  0  0  0  0  0
  149.2427  137.5090  155.9119 H   0  0  0  0  0  0  0  0  0  0  0  0
  149.1390  136.6329  154.3786 H   0  0  0  0  0  0  0  0  0  0  0  0
  151.0792  135.9711  156.1429 H   0  0  0  0  0  0  0  0  0  0  0  0
  151.4821  136.1022  154.4274 H   0  0  0  0  0  0  0  0  0  0  0  0
  151.8694  138.2168  156.5720 H   0  0  0  0  0  0  0  0  0  0  0  0
  153.0628  137.6674  155.3947 H   0  0  0  0  0  0  0  0  0  0  0  0
  152.0293  138.9019  153.6491 H   0  0  0  0  0  0  0  0  0  0  0  0
  151.5113  139.9230  154.9958 H   0  0  0  0  0  0  0  0  0  0  0  0
  145.2593  132.1964  153.2622 H   0  0  0  0  0  0  0  0  0  0  0  0
  1  2  2  0  0  0  0
  2  3  1  0  0  0  0
  2 14  1  0  0  0  0
  3  4  1  0  0  0  0
  3 26  1  0  0  0  0
  4  5  1  0  0  0  0
  4 27  1  0  0  0  0
  4 28  1  0  0  0  0
  5 13  1  0  0  0  0
  5  6  1  0  0  0  0
  5 29  1  0  0  0  0
  6  7  1  0  0  0  0
  6 30  1  0  0  0  0
  6 31  1  0  0  0  0
  7 11  1  0  0  0  0
  7  8  1  0  0  0  0
  7 53  1  0  0  0  0
  8  9  1  0  0  0  0
  8 32  1  0  0  0  0
  8 33  1  0  0  0  0
  9 10  1  0  0  0  0
  9 34  1  0  0  0  0
  9 35  1  0  0  0  0
 10 11  1  0  0  0  0
 10 36  1  0  0  0  0
 10 37  1  0  0  0  0
 11 12  1  0  0  0  0
 11 38  1  0  0  0  0
 12 13  1  0  0  0  0
 12 39  1  0  0  0  0
 12 40  1  0  0  0  0
 14 15  1  0  0  0  0
 14 41  1  0  0  0  0
 15 20  1  0  0  0  0
 15 16  2  0  0  0  0
 16 17  1  0  0  0  0
 16 42  1  0  0  0  0
 17 18  2  0  0  0  0
 17 43  1  0  0  0  0
 18 19  1  0  0  0  0
 18 44  1  0  0  0  0
 19 20  2  0  0  0  0
 20 21  1  0  0  0  0
 21 25  1  0  0  0  0
 21 22  1  0  0  0  0
 22 23  1  0  0  0  0
 22 45  1  0  0  0  0
 22 46  1  0  0  0  0
 23 24  1  0  0  0  0
 23 47  1  0  0  0  0
 23 48  1  0  0  0  0
 24 25  1  0  0  0  0
 24 49  1  0  0  0  0
 24 50  1  0  0  0  0
 25 51  1  0  0  0  0
 25 52  1  0  0  0  0
M  CHG  1   7   1
M  END
> <s_m_source_file>
AV-unprocessed.smi

> <i_m_source_file_index>
1830

> <i_lp_mmshare_version>
43012

> <i_f3d_flags>
0

> <s_epik_input>
W0NIMl0xW0NIMl1bQ0gyXVtDQEhdKE4xMilbQ0gyXU9bQ0BASF0oW0NIMl0yKVtDSDJdW05IXUMoPU8pW05IXWMzW2NIXVtjSF1bY0hdbmMzTjRbQ0gyXVtDSDJdW0NIMl1bQ0gyXTQ=

> <s_epik_cmdline>
J2VwaWtfcHl0aG9uJywgJy1waCcsICc3LjAnLCAnLXRuJywgJzgnLCAnLW1hJywgJzIwMCcsICctbWV0YWxfYmluZGluZycsICctaW1hZScsICc8aW5maWxlLm1hZT4nLCAnLW9tYWUnLCAnPG91dGZpbGUubWFlPic=

> <r_lp_tautomer_probability>
1

> <r_epik_Ionization_Penalty>
0.193547

> <r_epik_Ionization_Penalty_Charging>
0.10673

> <r_epik_Ionization_Penalty_Neutral>
0.0868166

> <r_epik_State_Penalty>
0.173595

> <r_epik_Charging_Adjusted_Penalty>
0.280326

> <i_epik_Tot_Q>
1

> <i_epik_Tot_abs_Q>
1

> <r_epik_Metal_State_Penalty>
0.164683

> <b_epik_Metal_Only>
0

> <s_lp_Force_Field>
OPLS_2005

> <r_lp_Energy>
64.1667

> <b_lp_Chiralities_Consistent>
1

> <s_lp_Variant>
AV-unprocessed.smi:1830-1

> <Gold.Version>
5.8.1

> <Gold.Id.Protein>
6NUR|6NUR_protein|mol2

> <Gold.PLP.Fitness>
48.0936

> <Gold.PLP.PLP>
-40.4398

> <Gold.PLP.part.hbond>
-1.8792

> <Gold.PLP.part.metal>
0.0000

> <Gold.PLP.part.buried>
-4.5462

> <Gold.PLP.part.nonpolar>
-36.4156

> <Gold.PLP.part.repulsive>
2.2650

> <Gold.PLP.ligand.clash>
0.0000

> <Gold.PLP.ligand.torsion>
0.7966

> <Gold.PLP.Chemscore.Hbond>
1.9280

> <Gold.PLP.Chemscore.CHOScore>
1.0000

> <Gold.PLP.Chemscore.Metal>
0.0000

> <Gold.Chemscore.Hbonds>
donor molecule, donor type, donor heavy atom, donor atom, acceptor molecule, acceptor atom, score
      L1  H     3    26       P1  7948  0.93
      L1  H    14    41       P1  7948  1.00
      L1  C    18    44       P1  8028  1.00

> <Gold.PLP.Chemscore.Internal.Correction>
0.4630

> <Gold.Rescore>
     Score         DG    S(hbond)    S(metal)    S(lipo)     H(rot)  DE(clash)    DE(int)     intcor
     17.76     -20.56       1.95        0.00     103.97       1.41       0.52       2.28       ----

> <Gold.Chemscore.Fitness>
17.7556

> <Gold.Chemscore.DG>
-20.5565

> <Gold.Chemscore.ZeroCoef>
-5.4800

> <Gold.Chemscore.Hbond>
1.9499

> <Gold.Chemscore.Metal>
0.0000

> <Gold.Chemscore.Lipo>
103.9720

> <Gold.Chemscore.Internal_Hbond>
0.0000

> <Gold.Chemscore.DEClash>
0.5218

> <Gold.Chemscore.DEInternal>
2.2791

> <Gold.Chemscore.Rot>
1.4067

> <Gold.Chemscore.Internal.Correction>
   9.000000E+99

> <Gold.Chemscore.Hbonds>
donor molecule, donor type, donor heavy atom, donor atom, acceptor molecule, acceptor atom, score
      L1  H     3    26       P1  7948  0.90
      L1  H    14    41       P1  7948  0.92

> <Gold.Chemscore.Hbond.Weighted>
-6.5128

> <Gold.Chemscore.Metal.Weighted>
-0.0000

> <Gold.Chemscore.Lipo.Weighted>
-12.1647

> <Gold.Chemscore.Internal_Hbond.Weighted>
0.0000

> <Gold.Chemscore.DEClash.Weighted>
0.5218

> <Gold.Chemscore.DEInternal.Weighted>
2.2791

> <Gold.Chemscore.Rot.Weighted>
3.6011

> <Gold.Chemscore.Internal.Correction.Weighted>
   9.000000E+99

> <Gold.Protein.RotatedTorsions>
[ 6907 6896 6895 6894 ] final  138.79 input  -60.11 | X-H torsion
[ 7974 7965 7964 7962 ] final -177.85 input  175.53 | X-H torsion
[ 8008 7997 7996 7995 ] final -117.14 input   59.86 | X-H torsion
[ 10167 10162 10161 10158 ] final   89.81 input  -65.29 | X-H torsion
[ 10718 10713 10712 10709 ] final   40.38 input   66.30 | X-H torsion
[ 10763 10752 10751 10750 ] final   87.80 input  -60.55 | X-H torsion
[ 11005 11000 10999 10996 ] final -168.78 input  -57.11 | X-H torsion

> <Gold.Protein.ActiveResidues>
 VAL166  LYS551  ARG553  GLY616  TRP617  ASP618  TYR619  PRO620  LYS621  CYS622 
 ASP623  PHE694  ASN695  SER759  ASP760  ASP761  ALA762  ILE779  LEU786  VAL792 
 PHE793  MET794  SER795  GLU796  ALA797  LYS798  CYS799  TRP800  GLU811  SER814 

> <Gold.Protein.RotatedAtoms>
  152.2625  133.5310  159.5389 H   0  0  0  0  0  0  0  0  0  0  0  0  # atno 6907 bound_to 6896
  150.7130  134.0810  159.3907 H   0  0  0  0  0  0  0  0  0  0  0  0  # atno 6908 bound_to 6896
  151.8727  135.0483  160.0531 H   0  0  0  0  0  0  0  0  0  0  0  0  # atno 6909 bound_to 6896
  144.7129  140.0957  143.6419 H   0  0  0  0  0  0  0  0  0  0  0  0  # atno 7974 bound_to 7965
  155.0789  140.0394  157.2633 H   0  0  0  0  0  0  0  0  0  0  0  0  # atno 8008 bound_to 7997
  154.6922  140.2656  155.6776 H   0  0  0  0  0  0  0  0  0  0  0  0  # atno 8009 bound_to 7997
  156.2733  140.2757  156.1505 H   0  0  0  0  0  0  0  0  0  0  0  0  # atno 8010 bound_to 7997
  139.8535  144.6581  150.9141 H   0  0  0  0  0  0  0  0  0  0  0  0  # atno 10167 bound_to 10162
  157.3815  130.7756  149.7196 H   0  0  0  0  0  0  0  0  0  0  0  0  # atno 10718 bound_to 10713
  153.1704  135.4530  154.9895 H   0  0  0  0  0  0  0  0  0  0  0  0  # atno 10763 bound_to 10752
  154.7962  135.3238  154.7664 H   0  0  0  0  0  0  0  0  0  0  0  0  # atno 10764 bound_to 10752
  153.8141  135.6952  153.4891 H   0  0  0  0  0  0  0  0  0  0  0  0  # atno 10765 bound_to 10752
  140.5381  134.5550  157.5092 H   0  0  0  0  0  0  0  0  0  0  0  0  # atno 11005 bound_to 11000
  145.9581  139.2781  143.1172 LP  0  0  0  0  0  0  0  0  0  0  0  0  # atno 17320 bound_to 7965
  145.9250  140.9088  143.0385 LP  0  0  0  0  0  0  0  0  0  0  0  0  # atno 17321 bound_to 7965
  140.7784  143.3806  151.1484 LP  0  0  0  0  0  0  0  0  0  0  0  0  # atno 17342 bound_to 10162
  139.7442  143.8878  152.3059 LP  0  0  0  0  0  0  0  0  0  0  0  0  # atno 17343 bound_to 10162
  155.9777  130.4060  150.3697 LP  0  0  0  0  0  0  0  0  0  0  0  0  # atno 17370 bound_to 10713
  157.1801  131.0390  151.2752 LP  0  0  0  0  0  0  0  0  0  0  0  0  # atno 17371 bound_to 10713
  139.9518  134.7603  156.0430 LP  0  0  0  0  0  0  0  0  0  0  0  0  # atno 17394 bound_to 11000
  141.1243  133.6604  156.3295 LP  0  0  0  0  0  0  0  0  0  0  0  0  # atno 17395 bound_to 11000

$$$$
