AV-unprocessed.smi:746|AV-procd|sdf|3579|dock1
  -GOLD-   22720 0573D 1   1.00000     0.00000
 Structure written by MMmdl.
 48 50  0  0  0  0  0  0  0  0  1 V2000
  145.5644  136.3667  150.7607 C   0  0  0  0  0  0  0  0  0  0  0  0
  146.2351  137.5577  151.1343 O   0  0  0  0  0  0  0  0  0  0  0  0
  145.8908  137.9873  152.4407 C   0  0  0  0  0  0  0  0  0  0  0  0
  146.7941  139.1591  152.8343 C   0  0  0  0  0  0  0  0  0  0  0  0
  147.0026  139.1209  154.2389 O   0  0  0  0  0  0  0  0  0  0  0  0
  147.9348  139.9799  154.7783 C   0  0  0  0  0  0  0  0  0  0  0  0
  148.2575  141.2536  154.2474 C   0  0  0  0  0  0  0  0  0  0  0  0
  149.2333  142.0329  154.8984 C   0  0  0  0  0  0  0  0  0  0  0  0
  149.8653  141.5156  156.0535 C   0  0  0  0  0  0  0  0  0  0  0  0
  150.8526  142.2045  156.8083 N   0  0  0  0  0  0  0  0  0  0  0  0
  151.1763  142.0603  158.1086 C   0  0  0  0  0  0  0  0  0  0  0  0
  150.7679  141.1403  158.8151 O   0  0  0  0  0  0  0  0  0  0  0  0
  152.0958  142.9684  158.5184 N   0  0  0  0  0  0  0  0  0  0  0  0
  152.0758  144.3570  158.0116 C   0  0  0  0  0  0  0  0  0  0  0  0
  151.3174  145.2731  159.0030 C   0  0  0  0  0  0  0  0  0  0  0  0
  151.8980  145.1909  160.4318 C   0  0  0  0  0  0  0  0  0  0  0  0
  152.0412  143.7214  160.8620 C   0  0  2  0  0  0  0  0  0  0  0  0
  152.8285  143.4425  162.1470 C   0  0  0  0  0  0  0  0  0  0  0  0
  153.4646  142.0495  161.9463 C   0  0  0  0  0  0  0  0  0  0  0  0
  153.1443  141.6152  160.5044 C   0  0  0  0  0  0  0  0  0  0  0  0
  152.8166  142.9429  159.8057 C   0  0  1  0  0  0  0  0  0  0  0  0
  149.4602  140.2444  156.5074 C   0  0  0  0  0  0  0  0  0  0  0  0
  148.5267  139.4916  155.8892 N   0  0  0  0  0  0  0  0  0  0  0  0
  145.8671  136.0759  149.7550 H   0  0  0  0  0  0  0  0  0  0  0  0
  144.4829  136.5069  150.7593 H   0  0  0  0  0  0  0  0  0  0  0  0
  145.8106  135.5466  151.4364 H   0  0  0  0  0  0  0  0  0  0  0  0
  144.8446  138.2958  152.4716 H   0  0  0  0  0  0  0  0  0  0  0  0
  146.0145  137.1669  153.1494 H   0  0  0  0  0  0  0  0  0  0  0  0
  147.7471  139.0805  152.3086 H   0  0  0  0  0  0  0  0  0  0  0  0
  146.3212  140.0995  152.5467 H   0  0  0  0  0  0  0  0  0  0  0  0
  147.7783  141.6481  153.3645 H   0  0  0  0  0  0  0  0  0  0  0  0
  149.4634  143.0107  154.5057 H   0  0  0  0  0  0  0  0  0  0  0  0
  151.2730  142.9962  156.3438 H   0  0  0  0  0  0  0  0  0  0  0  0
  153.1001  144.7108  157.8858 H   0  0  0  0  0  0  0  0  0  0  0  0
  151.6187  144.4466  157.0255 H   0  0  0  0  0  0  0  0  0  0  0  0
  151.3423  146.3051  158.6520 H   0  0  0  0  0  0  0  0  0  0  0  0
  150.2660  144.9830  159.0258 H   0  0  0  0  0  0  0  0  0  0  0  0
  152.8748  145.6759  160.4491 H   0  0  0  0  0  0  0  0  0  0  0  0
  151.2656  145.7353  161.1335 H   0  0  0  0  0  0  0  0  0  0  0  0
  151.0468  143.2822  160.9650 H   0  0  0  0  0  0  0  0  0  0  0  0
  153.6152  144.1864  162.2804 H   0  0  0  0  0  0  0  0  0  0  0  0
  152.1887  143.4814  163.0291 H   0  0  0  0  0  0  0  0  0  0  0  0
  154.5433  142.1110  162.0948 H   0  0  0  0  0  0  0  0  0  0  0  0
  153.0799  141.3257  162.6656 H   0  0  0  0  0  0  0  0  0  0  0  0
  153.9751  141.0898  160.0328 H   0  0  0  0  0  0  0  0  0  0  0  0
  152.2988  140.9322  160.5401 H   0  0  0  0  0  0  0  0  0  0  0  0
  153.7774  143.4381  159.6461 H   0  0  0  0  0  0  0  0  0  0  0  0
  149.9034  139.8120  157.3927 H   0  0  0  0  0  0  0  0  0  0  0  0
  1  2  1  0  0  0  0
  1 24  1  0  0  0  0
  1 25  1  0  0  0  0
  1 26  1  0  0  0  0
  2  3  1  0  0  0  0
  3  4  1  0  0  0  0
  3 27  1  0  0  0  0
  3 28  1  0  0  0  0
  4  5  1  0  0  0  0
  4 29  1  0  0  0  0
  4 30  1  0  0  0  0
  5  6  1  0  0  0  0
  6 23  1  0  0  0  0
  6  7  2  0  0  0  0
  7  8  1  0  0  0  0
  7 31  1  0  0  0  0
  8  9  2  0  0  0  0
  8 32  1  0  0  0  0
  9 10  1  0  0  0  0
  9 22  1  0  0  0  0
 10 11  1  0  0  0  0
 10 33  1  0  0  0  0
 11 12  2  0  0  0  0
 11 13  1  0  0  0  0
 13 21  1  0  0  0  0
 13 14  1  0  0  0  0
 14 15  1  0  0  0  0
 14 34  1  0  0  0  0
 14 35  1  0  0  0  0
 15 16  1  0  0  0  0
 15 36  1  0  0  0  0
 15 37  1  0  0  0  0
 16 17  1  0  0  0  0
 16 38  1  0  0  0  0
 16 39  1  0  0  0  0
 17 21  1  0  0  0  0
 17 18  1  0  0  0  0
 17 40  1  0  0  0  0
 18 19  1  0  0  0  0
 18 41  1  0  0  0  0
 18 42  1  0  0  0  0
 19 20  1  0  0  0  0
 19 43  1  0  0  0  0
 19 44  1  0  0  0  0
 20 21  1  0  0  0  0
 20 45  1  0  0  0  0
 20 46  1  0  0  0  0
 21 47  1  0  0  0  0
 22 23  2  0  0  0  0
 22 48  1  0  0  0  0
M  END
> <s_m_source_file>
AV-unprocessed.smi

> <i_m_source_file_index>
746

> <i_lp_mmshare_version>
43012

> <i_f3d_flags>
0

> <s_epik_input>
W0NIM11PW0NIMl1bQ0gyXU9jMVtjSF1bY0hdYyhbY0hdbjEpW05IXUMoPU8pTihbQ0gyXVtDSDJdW0NIMl0yKVtDQEhdKFtDQEBIXTIzKVtDSDJdW0NIMl1bQ0gyXTM=

> <s_epik_cmdline>
J2VwaWtfcHl0aG9uJywgJy1waCcsICc3LjAnLCAnLXRuJywgJzgnLCAnLW1hJywgJzIwMCcsICctbWV0YWxfYmluZGluZycsICctaW1hZScsICc8aW5maWxlLm1hZT4nLCAnLW9tYWUnLCAnPG91dGZpbGUubWFlPic=

> <r_lp_tautomer_probability>
1

> <r_epik_Ionization_Penalty>
8.29966e-05

> <r_epik_Ionization_Penalty_Charging>
0

> <r_epik_Ionization_Penalty_Neutral>
8.29966e-05

> <r_epik_State_Penalty>
-0

> <r_epik_Charging_Adjusted_Penalty>
0

> <i_epik_Tot_Q>
0

> <i_epik_Tot_abs_Q>
0

> <r_epik_Metal_State_Penalty>
-0

> <b_epik_Metal_Only>
0

> <s_lp_Force_Field>
OPLS_2005

> <r_lp_Energy>
62.5595

> <b_lp_Chiralities_Consistent>
1

> <s_lp_Variant>
AV-unprocessed.smi:746-4

> <Gold.Version>
5.8.1

> <Gold.Id.Protein>
6NUR|6NUR_protein|mol2

> <Gold.PLP.Fitness>
53.8425

> <Gold.PLP.PLP>
-52.2387

> <Gold.PLP.part.hbond>
-1.0000

> <Gold.PLP.part.metal>
0.0000

> <Gold.PLP.part.buried>
-2.3241

> <Gold.PLP.part.nonpolar>
-50.2733

> <Gold.PLP.part.repulsive>
2.6581

> <Gold.PLP.ligand.clash>
0.0000

> <Gold.PLP.ligand.torsion>
0.9928

> <Gold.PLP.Chemscore.Hbond>
1.0000

> <Gold.PLP.Chemscore.CHOScore>
0.0000

> <Gold.PLP.Chemscore.Metal>
0.0000

> <Gold.Chemscore.Hbonds>
donor molecule, donor type, donor heavy atom, donor atom, acceptor molecule, acceptor atom, score
      P1  H  7954  7966       L1     2  0.29

> <Gold.PLP.Chemscore.Internal.Correction>
0.5893

> <Gold.Rescore>
     Score         DG    S(hbond)    S(metal)    S(lipo)     H(rot)  DE(clash)    DE(int)     intcor
     16.52     -21.94       0.92        0.00     147.53       1.52       1.83       3.58       ----

> <Gold.Chemscore.Fitness>
16.5192

> <Gold.Chemscore.DG>
-21.9356

> <Gold.Chemscore.ZeroCoef>
-5.4800

> <Gold.Chemscore.Hbond>
0.9216

> <Gold.Chemscore.Metal>
0.0000

> <Gold.Chemscore.Lipo>
147.5345

> <Gold.Chemscore.Internal_Hbond>
0.0000

> <Gold.Chemscore.DEClash>
1.8348

> <Gold.Chemscore.DEInternal>
3.5815

> <Gold.Chemscore.Rot>
1.5172

> <Gold.Chemscore.Internal.Correction>
   9.000000E+99

> <Gold.Chemscore.Hbonds>
donor molecule, donor type, donor heavy atom, donor atom, acceptor molecule, acceptor atom, score
      P1  H  7954  7966       L1     2  0.24

> <Gold.Chemscore.Hbond.Weighted>
-3.0781

> <Gold.Chemscore.Metal.Weighted>
-0.0000

> <Gold.Chemscore.Lipo.Weighted>
-17.2615

> <Gold.Chemscore.Internal_Hbond.Weighted>
0.0000

> <Gold.Chemscore.DEClash.Weighted>
1.8348

> <Gold.Chemscore.DEInternal.Weighted>
3.5815

> <Gold.Chemscore.Rot.Weighted>
3.8841

> <Gold.Chemscore.Internal.Correction.Weighted>
   9.000000E+99

> <Gold.Protein.RotatedTorsions>
[ 6907 6896 6895 6894 ] final   75.08 input  -60.11 | X-H torsion
[ 7974 7965 7964 7962 ] final  172.25 input  175.53 | X-H torsion
[ 8008 7997 7996 7995 ] final -176.40 input   59.86 | X-H torsion
[ 10167 10162 10161 10158 ] final  -22.00 input  -65.29 | X-H torsion
[ 10718 10713 10712 10709 ] final  138.95 input   66.30 | X-H torsion
[ 10763 10752 10751 10750 ] final -118.70 input  -60.55 | X-H torsion
[ 11005 11000 10999 10996 ] final   -0.39 input  -57.11 | X-H torsion

> <Gold.Protein.ActiveResidues>
 VAL166  LYS551  ARG553  GLY616  TRP617  ASP618  TYR619  PRO620  LYS621  CYS622 
 ASP623  PHE694  ASN695  SER759  ASP760  ASP761  ALA762  ILE779  LEU786  VAL792 
 PHE793  MET794  SER795  GLU796  ALA797  LYS798  CYS799  TRP800  GLU811  SER814 

> <Gold.Protein.RotatedAtoms>
  152.5008  134.4174  159.9468 H   0  0  0  0  0  0  0  0  0  0  0  0  # atno 6907 bound_to 6896
  151.4145  133.3711  159.2756 H   0  0  0  0  0  0  0  0  0  0  0  0  # atno 6908 bound_to 6896
  150.9267  134.8706  159.7584 H   0  0  0  0  0  0  0  0  0  0  0  0  # atno 6909 bound_to 6896
  144.7273  139.9471  143.6430 H   0  0  0  0  0  0  0  0  0  0  0  0  # atno 7974 bound_to 7965
  155.9943  140.1207  157.0608 H   0  0  0  0  0  0  0  0  0  0  0  0  # atno 8008 bound_to 7997
  154.4221  140.1119  156.5678 H   0  0  0  0  0  0  0  0  0  0  0  0  # atno 8009 bound_to 7997
  155.6299  140.3473  155.4682 H   0  0  0  0  0  0  0  0  0  0  0  0  # atno 8010 bound_to 7997
  140.7284  143.4575  151.0427 H   0  0  0  0  0  0  0  0  0  0  0  0  # atno 10167 bound_to 10162
  157.4197  131.1037  151.0367 H   0  0  0  0  0  0  0  0  0  0  0  0  # atno 10718 bound_to 10713
  154.8595  135.4264  154.2181 H   0  0  0  0  0  0  0  0  0  0  0  0  # atno 10763 bound_to 10752
  153.3192  135.6981  153.7051 H   0  0  0  0  0  0  0  0  0  0  0  0  # atno 10764 bound_to 10752
  153.6113  135.3519  155.2953 H   0  0  0  0  0  0  0  0  0  0  0  0  # atno 10765 bound_to 10752
  140.6358  133.9534  155.8299 H   0  0  0  0  0  0  0  0  0  0  0  0  # atno 11005 bound_to 11000
  146.0740  139.3728  143.0505 LP  0  0  0  0  0  0  0  0  0  0  0  0  # atno 17320 bound_to 7965
  145.7930  140.9806  143.1039 LP  0  0  0  0  0  0  0  0  0  0  0  0  # atno 17321 bound_to 7965
  139.8257  143.7760  152.3178 LP  0  0  0  0  0  0  0  0  0  0  0  0  # atno 17342 bound_to 10162
  139.7858  144.7428  151.0024 LP  0  0  0  0  0  0  0  0  0  0  0  0  # atno 17343 bound_to 10162
  157.1301  130.6098  149.5527 LP  0  0  0  0  0  0  0  0  0  0  0  0  # atno 17370 bound_to 10713
  155.9876  130.4917  150.7135 LP  0  0  0  0  0  0  0  0  0  0  0  0  # atno 17371 bound_to 10713
  141.0643  134.0300  157.3616 LP  0  0  0  0  0  0  0  0  0  0  0  0  # atno 17394 bound_to 11000
  139.9099  135.0188  156.7646 LP  0  0  0  0  0  0  0  0  0  0  0  0  # atno 17395 bound_to 11000

$$$$
