AV-unprocessed.smi:1540|AV-procd|sdf|6198|dock10
  -GOLD-   22720 6363D 1   1.00000     0.00000
 Structure written by MMmdl.
 33 33  0  0  0  0  0  0  0  0  1 V2000
  147.2501  136.0035  161.4233 C   0  0  0  0  0  0  0  0  0  0  0  0
  147.9893  135.5842  160.3855 C   0  0  0  0  0  0  0  0  0  0  0  0
  148.4900  136.4776  159.2728 C   0  0  0  0  0  0  0  0  0  0  0  0
  149.4484  135.7855  158.4820 O   0  0  0  0  0  0  0  0  0  0  0  0
  150.0091  136.5308  157.4038 C   0  0  2  0  0  0  0  0  0  0  0  0
  151.0981  135.6606  156.7591 C   0  0  0  0  0  0  0  0  0  0  0  0
  150.5863  137.8618  157.9129 C   0  0  0  0  0  0  0  0  0  0  0  0
  151.5498  137.8499  158.6786 O   0  0  0  0  0  0  0  0  0  0  0  0
  149.9692  138.9706  157.4587 N   0  0  0  0  0  0  0  0  0  0  0  0
  150.2221  140.3189  157.7621 C   0  0  0  0  0  0  0  0  0  0  0  0
  151.0999  140.7510  158.7051 C   0  0  0  0  0  0  0  0  0  0  0  0
  151.3077  142.1638  158.9759 C   0  0  0  0  0  0  0  0  0  0  0  0
  152.2503  142.6323  160.0742 C   0  0  0  0  0  0  0  0  0  0  0  0
  151.6060  143.3556  160.9911 F   0  0  0  0  0  0  0  0  0  0  0  0
  152.8227  141.5953  160.6859 F   0  0  0  0  0  0  0  0  0  0  0  0
  153.2147  143.3882  159.5513 F   0  0  0  0  0  0  0  0  0  0  0  0
  150.5624  143.0276  158.2622 C   0  0  0  0  0  0  0  0  0  0  0  0
  149.6574  142.5917  157.2919 N   0  0  0  0  0  0  0  0  0  0  0  0
  149.4295  141.2929  156.9937 C   0  0  0  0  0  0  0  0  0  0  0  0
  148.6060  140.9887  156.1313 O   0  0  0  0  0  0  0  0  0  0  0  0
  149.1412  143.3021  156.7932 H   0  0  0  0  0  0  0  0  0  0  0  0
  146.9614  137.0393  161.5250 H   0  0  0  0  0  0  0  0  0  0  0  0
  146.9232  135.3127  162.1864 H   0  0  0  0  0  0  0  0  0  0  0  0
  148.2598  134.5406  160.3160 H   0  0  0  0  0  0  0  0  0  0  0  0
  147.6509  136.7982  158.6533 H   0  0  0  0  0  0  0  0  0  0  0  0
  148.9249  137.3690  159.7252 H   0  0  0  0  0  0  0  0  0  0  0  0
  149.2361  136.7207  156.6565 H   0  0  0  0  0  0  0  0  0  0  0  0
  151.5798  136.1788  155.9291 H   0  0  0  0  0  0  0  0  0  0  0  0
  150.6715  134.7371  156.3669 H   0  0  0  0  0  0  0  0  0  0  0  0
  151.8714  135.3854  157.4776 H   0  0  0  0  0  0  0  0  0  0  0  0
  149.2401  138.8251  156.7751 H   0  0  0  0  0  0  0  0  0  0  0  0
  151.6657  140.0517  159.2985 H   0  0  0  0  0  0  0  0  0  0  0  0
  150.5946  144.1009  158.3798 H   0  0  0  0  0  0  0  0  0  0  0  0
  1  2  2  0  0  0  0
  1 22  1  0  0  0  0
  1 23  1  0  0  0  0
  2  3  1  0  0  0  0
  2 24  1  0  0  0  0
  3  4  1  0  0  0  0
  3 25  1  0  0  0  0
  3 26  1  0  0  0  0
  4  5  1  0  0  0  0
  5  6  1  0  0  0  0
  5  7  1  0  0  0  0
  5 27  1  0  0  0  0
  6 28  1  0  0  0  0
  6 29  1  0  0  0  0
  6 30  1  0  0  0  0
  7  8  2  0  0  0  0
  7  9  1  0  0  0  0
  9 10  1  0  0  0  0
  9 31  1  0  0  0  0
 10 19  1  0  0  0  0
 10 11  2  0  0  0  0
 11 12  1  0  0  0  0
 11 32  1  0  0  0  0
 12 13  1  0  0  0  0
 12 17  2  0  0  0  0
 13 14  1  0  0  0  0
 13 15  1  0  0  0  0
 13 16  1  0  0  0  0
 17 18  1  0  0  0  0
 17 33  1  0  0  0  0
 18 21  1  0  0  0  0
 18 19  1  0  0  0  0
 19 20  2  0  0  0  0
M  END
> <s_m_source_file>
AV-unprocessed.smi

> <i_m_source_file_index>
1540

> <i_lp_mmshare_version>
43012

> <i_f3d_flags>
0

> <s_epik_input>
W0NIMl09W0NIXVtDSDJdT1tDQEhdKFtDSDNdKUMoPU8pW05IXWMxW2NIXWMoQyhGKShGKUYpW2NIXVtuSF1jMT1P

> <s_epik_cmdline>
J2VwaWtfcHl0aG9uJywgJy1waCcsICc3LjAnLCAnLXRuJywgJzgnLCAnLW1hJywgJzIwMCcsICctbWV0YWxfYmluZGluZycsICctaW1hZScsICc8aW5maWxlLm1hZT4nLCAnLW9tYWUnLCAnPG91dGZpbGUubWFlPic=

> <r_lp_tautomer_probability>
0.999

> <r_epik_Ionization_Penalty>
0.0086731

> <r_epik_Ionization_Penalty_Charging>
0.00867296

> <r_epik_Ionization_Penalty_Neutral>
1.3954e-07

> <r_epik_State_Penalty>
0.00654787

> <r_epik_Charging_Adjusted_Penalty>
0.0152208

> <i_epik_Tot_Q>
0

> <i_epik_Tot_abs_Q>
0

> <r_epik_Metal_State_Penalty>
0.320056

> <b_epik_Metal_Only>
0

> <s_lp_Force_Field>
OPLS_2005

> <r_lp_Energy>
17.7944

> <b_lp_Chiralities_Consistent>
1

> <s_lp_Variant>
AV-unprocessed.smi:1540-1

> <Gold.Version>
5.8.1

> <Gold.Id.Protein>
6NUR|6NUR_protein|mol2

> <Gold.PLP.Fitness>
41.0870

> <Gold.PLP.PLP>
-35.3825

> <Gold.PLP.part.hbond>
-2.0000

> <Gold.PLP.part.metal>
0.0000

> <Gold.PLP.part.buried>
-5.7148

> <Gold.PLP.part.nonpolar>
-27.7377

> <Gold.PLP.part.repulsive>
0.1434

> <Gold.PLP.ligand.clash>
0.0000

> <Gold.PLP.ligand.torsion>
0.1719

> <Gold.PLP.Chemscore.Hbond>
2.0000

> <Gold.PLP.Chemscore.CHOScore>
0.0000

> <Gold.PLP.Chemscore.Metal>
0.0000

> <Gold.Chemscore.Hbonds>
donor molecule, donor type, donor heavy atom, donor atom, acceptor molecule, acceptor atom, score
      L1  H    18    21       P1  8028  1.00
      P1  H  6896  6908       L1     4  0.94

> <Gold.PLP.Chemscore.Internal.Correction>
0.0484

> <Gold.Rescore>
     Score         DG    S(hbond)    S(metal)    S(lipo)     H(rot)  DE(clash)    DE(int)     intcor
     13.80     -15.21       1.95        0.00      67.09       1.81       0.03       1.38       ----

> <Gold.Chemscore.Fitness>
13.8002

> <Gold.Chemscore.DG>
-15.2123

> <Gold.Chemscore.ZeroCoef>
-5.4800

> <Gold.Chemscore.Hbond>
1.9499

> <Gold.Chemscore.Metal>
0.0000

> <Gold.Chemscore.Lipo>
67.0884

> <Gold.Chemscore.Internal_Hbond>
0.0000

> <Gold.Chemscore.DEClash>
0.0304

> <Gold.Chemscore.DEInternal>
1.3818

> <Gold.Chemscore.Rot>
1.8084

> <Gold.Chemscore.Internal.Correction>
   9.000000E+99

> <Gold.Chemscore.Hbonds>
donor molecule, donor type, donor heavy atom, donor atom, acceptor molecule, acceptor atom, score
      L1  H    18    21       P1  8028  0.94
      P1  H  6896  6908       L1     4  0.79

> <Gold.Chemscore.Hbond.Weighted>
-6.5125

> <Gold.Chemscore.Metal.Weighted>
-0.0000

> <Gold.Chemscore.Lipo.Weighted>
-7.8493

> <Gold.Chemscore.Internal_Hbond.Weighted>
0.0000

> <Gold.Chemscore.DEClash.Weighted>
0.0304

> <Gold.Chemscore.DEInternal.Weighted>
1.3818

> <Gold.Chemscore.Rot.Weighted>
4.6296

> <Gold.Chemscore.Internal.Correction.Weighted>
   9.000000E+99

> <Gold.Protein.RotatedTorsions>
[ 6907 6896 6895 6894 ] final  160.73 input  -60.11 | X-H torsion
[ 7974 7965 7964 7962 ] final -123.97 input  175.53 | X-H torsion
[ 8008 7997 7996 7995 ] final   93.21 input   59.86 | X-H torsion
[ 10167 10162 10161 10158 ] final   10.97 input  -65.29 | X-H torsion
[ 10718 10713 10712 10709 ] final -134.80 input   66.30 | X-H torsion
[ 10763 10752 10751 10750 ] final  179.36 input  -60.55 | X-H torsion
[ 11005 11000 10999 10996 ] final   -5.69 input  -57.11 | X-H torsion

> <Gold.Protein.ActiveResidues>
 VAL166  LYS551  ARG553  GLY616  TRP617  ASP618  TYR619  PRO620  LYS621  CYS622 
 ASP623  PHE694  ASN695  SER759  ASP760  ASP761  ALA762  ILE779  LEU786  VAL792 
 PHE793  MET794  SER795  GLU796  ALA797  LYS798  CYS799  TRP800  GLU811  SER814 

> <Gold.Protein.RotatedAtoms>
  151.9662  133.3711  159.4053 H   0  0  0  0  0  0  0  0  0  0  0  0  # atno 6907 bound_to 6896
  150.6956  134.4188  159.5205 H   0  0  0  0  0  0  0  0  0  0  0  0  # atno 6908 bound_to 6896
  152.1885  134.8692  160.0570 H   0  0  0  0  0  0  0  0  0  0  0  0  # atno 6909 bound_to 6896
  145.0130  140.7922  143.4427 H   0  0  0  0  0  0  0  0  0  0  0  0  # atno 7974 bound_to 7965
  156.0441  140.3316  155.7277 H   0  0  0  0  0  0  0  0  0  0  0  0  # atno 8008 bound_to 7997
  155.5700  140.0627  157.2826 H   0  0  0  0  0  0  0  0  0  0  0  0  # atno 8009 bound_to 7997
  154.4406  140.1862  156.0857 H   0  0  0  0  0  0  0  0  0  0  0  0  # atno 8010 bound_to 7997
  140.6161  143.8305  150.7120 H   0  0  0  0  0  0  0  0  0  0  0  0  # atno 10167 bound_to 10162
  156.2593  130.7200  151.1128 H   0  0  0  0  0  0  0  0  0  0  0  0  # atno 10718 bound_to 10713
  154.5196  135.2793  155.1273 H   0  0  0  0  0  0  0  0  0  0  0  0  # atno 10763 bound_to 10752
  154.2836  135.6280  153.5360 H   0  0  0  0  0  0  0  0  0  0  0  0  # atno 10764 bound_to 10752
  152.9934  135.5657  154.5682 H   0  0  0  0  0  0  0  0  0  0  0  0  # atno 10765 bound_to 10752
  140.6939  133.9047  155.8637 H   0  0  0  0  0  0  0  0  0  0  0  0  # atno 11005 bound_to 11000
  145.1997  139.2258  143.5199 LP  0  0  0  0  0  0  0  0  0  0  0  0  # atno 17320 bound_to 7965
  146.3473  140.1812  142.8589 LP  0  0  0  0  0  0  0  0  0  0  0  0  # atno 17321 bound_to 7965
  140.1885  143.4056  152.1881 LP  0  0  0  0  0  0  0  0  0  0  0  0  # atno 17342 bound_to 10162
  139.5400  144.7247  151.4767 LP  0  0  0  0  0  0  0  0  0  0  0  0  # atno 17343 bound_to 10162
  157.7244  131.0660  150.5994 LP  0  0  0  0  0  0  0  0  0  0  0  0  # atno 17370 bound_to 10713
  156.6081  130.4372  149.5870 LP  0  0  0  0  0  0  0  0  0  0  0  0  # atno 17371 bound_to 10713
  141.0219  134.0878  157.4111 LP  0  0  0  0  0  0  0  0  0  0  0  0  # atno 17394 bound_to 11000
  139.8915  135.0119  156.6797 LP  0  0  0  0  0  0  0  0  0  0  0  0  # atno 17395 bound_to 11000

$$$$
