AV-unprocessed.smi:1487|AV-procd|sdf|6019|dock9
  -GOLD-   22720 6123D 1   1.00000     0.00000
 Structure written by MMmdl.
 49 51  0  0  0  0  0  0  0  0  3 V2000
  152.3565  143.6206  159.9073 C   0  0  0  0  0  0  0  0  0  0  0  0
  151.9895  142.5964  158.8467 C   0  0  0  0  0  0  0  0  0  0  0  0
  151.0394  142.9542  157.8638 C   0  0  0  0  0  0  0  0  0  0  0  0
  150.7251  141.9966  156.9072 C   0  0  0  0  0  0  0  0  0  0  0  0
  149.8422  142.0406  155.8264 N   0  3  0  0  0  0  0  0  0  0  0  0
  149.8717  140.8502  155.1660 C   0  0  0  0  0  0  0  0  0  0  0  0
  150.7601  140.0448  155.8096 N   0  0  0  0  0  0  0  0  0  0  0  0
  151.1684  138.6658  155.5022 C   0  0  0  0  0  0  0  0  0  0  0  0
  150.1766  137.9390  154.5729 C   0  0  2  0  0  0  0  0  0  0  0  0
  150.2165  138.5244  153.2860 O   0  0  0  0  0  0  0  0  0  0  0  0
  148.7322  138.0232  155.1048 C   0  0  0  0  0  0  0  0  0  0  0  0
  147.7335  137.5438  154.1154 N   0  3  1  0  0  0  0  0  0  0  0  0
  146.6400  136.7412  154.7246 C   0  0  0  0  0  0  0  0  0  0  0  0
  145.7358  136.1309  153.6425 C   0  0  0  0  0  0  0  0  0  0  0  0
  145.1574  137.2215  152.7300 C   0  0  0  0  0  0  0  0  0  0  0  0
  146.2739  138.1109  152.1576 C   0  0  2  0  0  0  0  0  0  0  0  0
  147.0346  137.3973  151.2029 O   0  0  0  0  0  0  0  0  0  0  0  0
  147.2042  138.6431  153.2656 C   0  0  0  0  0  0  0  0  0  0  0  0
  151.3190  140.7192  156.9029 C   0  0  0  0  0  0  0  0  0  0  0  0
  152.2559  140.3504  157.8657 C   0  0  0  0  0  0  0  0  0  0  0  0
  152.5905  141.3111  158.8468 C   0  0  0  0  0  0  0  0  0  0  0  0
  153.6106  140.9364  159.9085 C   0  0  0  0  0  0  0  0  0  0  0  0
  151.7672  144.5320  159.8030 H   0  0  0  0  0  0  0  0  0  0  0  0
  153.4092  143.8924  159.8269 H   0  0  0  0  0  0  0  0  0  0  0  0
  152.1763  143.2218  160.9059 H   0  0  0  0  0  0  0  0  0  0  0  0
  150.5775  143.9309  157.8572 H   0  0  0  0  0  0  0  0  0  0  0  0
  149.2947  140.5934  154.2890 H   0  0  0  0  0  0  0  0  0  0  0  0
  152.1471  138.7231  155.0239 H   0  0  0  0  0  0  0  0  0  0  0  0
  151.3181  138.1169  156.4323 H   0  0  0  0  0  0  0  0  0  0  0  0
  150.4900  136.8996  154.4805 H   0  0  0  0  0  0  0  0  0  0  0  0
  149.9243  137.8838  152.6551 H   0  0  0  0  0  0  0  0  0  0  0  0
  148.6270  137.4495  156.0269 H   0  0  0  0  0  0  0  0  0  0  0  0
  148.5249  139.0611  155.3710 H   0  0  0  0  0  0  0  0  0  0  0  0
  147.0512  135.9374  155.3344 H   0  0  0  0  0  0  0  0  0  0  0  0
  146.0518  137.3721  155.3929 H   0  0  0  0  0  0  0  0  0  0  0  0
  146.3057  135.4147  153.0492 H   0  0  0  0  0  0  0  0  0  0  0  0
  144.9255  135.5688  154.1075 H   0  0  0  0  0  0  0  0  0  0  0  0
  144.5695  136.7756  151.9267 H   0  0  0  0  0  0  0  0  0  0  0  0
  144.4685  137.8400  153.3070 H   0  0  0  0  0  0  0  0  0  0  0  0
  145.8241  138.9558  151.6351 H   0  0  0  0  0  0  0  0  0  0  0  0
  147.5317  136.7291  151.6508 H   0  0  0  0  0  0  0  0  0  0  0  0
  146.6607  139.3481  153.8967 H   0  0  0  0  0  0  0  0  0  0  0  0
  148.0279  139.1979  152.8137 H   0  0  0  0  0  0  0  0  0  0  0  0
  152.7113  139.3712  157.8729 H   0  0  0  0  0  0  0  0  0  0  0  0
  154.0164  139.9386  159.7383 H   0  0  0  0  0  0  0  0  0  0  0  0
  153.1527  140.9460  160.8978 H   0  0  0  0  0  0  0  0  0  0  0  0
  154.4450  141.6383  159.9052 H   0  0  0  0  0  0  0  0  0  0  0  0
  148.2348  136.9317  153.4867 H   0  0  0  0  0  0  0  0  0  0  0  0
  149.2628  142.8255  155.5562 H   0  0  0  0  0  0  0  0  0  0  0  0
  1  2  1  0  0  0  0
  1 23  1  0  0  0  0
  1 24  1  0  0  0  0
  1 25  1  0  0  0  0
  2 21  1  0  0  0  0
  2  3  2  0  0  0  0
  3  4  1  0  0  0  0
  3 26  1  0  0  0  0
  4 19  2  0  0  0  0
  4  5  1  0  0  0  0
  5  6  2  0  0  0  0
  5 49  1  0  0  0  0
  6  7  1  0  0  0  0
  6 27  1  0  0  0  0
  7  8  1  0  0  0  0
  7 19  1  0  0  0  0
  8  9  1  0  0  0  0
  8 28  1  0  0  0  0
  8 29  1  0  0  0  0
  9 10  1  0  0  0  0
  9 11  1  0  0  0  0
  9 30  1  0  0  0  0
 10 31  1  0  0  0  0
 11 12  1  0  0  0  0
 11 32  1  0  0  0  0
 11 33  1  0  0  0  0
 12 18  1  0  0  0  0
 12 13  1  0  0  0  0
 12 48  1  0  0  0  0
 13 14  1  0  0  0  0
 13 34  1  0  0  0  0
 13 35  1  0  0  0  0
 14 15  1  0  0  0  0
 14 36  1  0  0  0  0
 14 37  1  0  0  0  0
 15 16  1  0  0  0  0
 15 38  1  0  0  0  0
 15 39  1  0  0  0  0
 16 17  1  0  0  0  0
 16 18  1  0  0  0  0
 16 40  1  0  0  0  0
 17 41  1  0  0  0  0
 18 42  1  0  0  0  0
 18 43  1  0  0  0  0
 19 20  1  0  0  0  0
 20 21  2  0  0  0  0
 20 44  1  0  0  0  0
 21 22  1  0  0  0  0
 22 45  1  0  0  0  0
 22 46  1  0  0  0  0
 22 47  1  0  0  0  0
M  CHG  1   5   1
M  CHG  1  12   1
M  END
> <s_m_source_file>
AV-unprocessed.smi

> <i_m_source_file_index>
1487

> <i_lp_mmshare_version>
43012

> <i_f3d_flags>
0

> <s_epik_input>
W0NIM11jKFtjSF0xKWMoW0NIM10pW2NIXWMoYzEyKW4oW2NIXW4yKVtDSDJdW0NASF0oW09IXSlbQ0gyXU4zW0NIMl1bQ0gyXVtDSDJdW0NAQEhdKFtPSF0pW0NIMl0z

> <s_epik_cmdline>
J2VwaWtfcHl0aG9uJywgJy1waCcsICc3LjAnLCAnLXRuJywgJzgnLCAnLW1hJywgJzIwMCcsICctbWV0YWxfYmluZGluZycsICctaW1hZScsICc8aW5maWxlLm1hZT4nLCAnLW9tYWUnLCAnPG91dGZpbGUubWFlPic=

> <r_epik_Ionization_Penalty>
1.1857

> <r_epik_Ionization_Penalty_Charging>
1.1857

> <r_epik_Ionization_Penalty_Neutral>
1.75578e-06

> <r_epik_State_Penalty>
1.26953

> <r_epik_Charging_Adjusted_Penalty>
2.45524

> <i_epik_Tot_Q>
2

> <i_epik_Tot_abs_Q>
2

> <r_epik_Metal_State_Penalty>
5.28243

> <b_epik_Metal_Only>
0

> <s_lp_Force_Field>
OPLS_2005

> <r_lp_Energy>
30.6325

> <b_lp_Chiralities_Consistent>
1

> <s_lp_Variant>
AV-unprocessed.smi:1487-13

> <Gold.Version>
5.8.1

> <Gold.Id.Protein>
6NUR|6NUR_protein|mol2

> <Gold.PLP.Fitness>
59.7604

> <Gold.PLP.PLP>
-40.9737

> <Gold.PLP.part.hbond>
-5.9360

> <Gold.PLP.part.metal>
0.0000

> <Gold.PLP.part.buried>
-2.3530

> <Gold.PLP.part.nonpolar>
-34.9187

> <Gold.PLP.part.repulsive>
0.1558

> <Gold.PLP.ligand.clash>
0.0000

> <Gold.PLP.ligand.torsion>
0.8224

> <Gold.PLP.Chemscore.Hbond>
6.8000

> <Gold.PLP.Chemscore.CHOScore>
0.0000

> <Gold.PLP.Chemscore.Metal>
0.0000

> <Gold.Chemscore.Hbonds>
donor molecule, donor type, donor heavy atom, donor atom, acceptor molecule, acceptor atom, score
      L1  H     5    49       P1  8028  1.98
      L1  H    10    31       P1  7948  0.95
      L1  H    12    48       P1  7948  2.00
      L1  H    17    41       P1  7948  0.73
      P1  H  7954  7966       L1    17  1.00

> <Gold.PLP.Chemscore.Internal.Correction>
0.0315

> <Gold.Rescore>
     Score         DG    S(hbond)    S(metal)    S(lipo)     H(rot)  DE(clash)    DE(int)     intcor
     18.44     -22.14       3.37        0.00     106.27       2.74       0.61       3.09       ----

> <Gold.Chemscore.Fitness>
18.4369

> <Gold.Chemscore.DG>
-22.1428

> <Gold.Chemscore.ZeroCoef>
-5.4800

> <Gold.Chemscore.Hbond>
3.3650

> <Gold.Chemscore.Metal>
0.0000

> <Gold.Chemscore.Lipo>
106.2738

> <Gold.Chemscore.Internal_Hbond>
0.0000

> <Gold.Chemscore.DEClash>
0.6133

> <Gold.Chemscore.DEInternal>
3.0927

> <Gold.Chemscore.Rot>
2.7384

> <Gold.Chemscore.Internal.Correction>
   9.000000E+99

> <Gold.Chemscore.Hbonds>
donor molecule, donor type, donor heavy atom, donor atom, acceptor molecule, acceptor atom, score
      L1  H     5    49       P1  8028  0.94
      L1  H    10    31       P1  7948  0.20
      L1  H    12    48       P1  7948  0.99
      L1  H    17    41       P1  7948  0.71
      P1  H  7954  7966       L1    17  0.30

> <Gold.Chemscore.Hbond.Weighted>
-11.2392

> <Gold.Chemscore.Metal.Weighted>
-0.0000

> <Gold.Chemscore.Lipo.Weighted>
-12.4340

> <Gold.Chemscore.Internal_Hbond.Weighted>
0.0000

> <Gold.Chemscore.DEClash.Weighted>
0.6133

> <Gold.Chemscore.DEInternal.Weighted>
3.0927

> <Gold.Chemscore.Rot.Weighted>
7.0103

> <Gold.Chemscore.Internal.Correction.Weighted>
   9.000000E+99

> <Gold.Protein.RotatedTorsions>
[ 6907 6896 6895 6894 ] final  -40.93 input  -60.11 | X-H torsion
[ 7974 7965 7964 7962 ] final -127.36 input  175.53 | X-H torsion
[ 8008 7997 7996 7995 ] final  -71.80 input   59.86 | X-H torsion
[ 10167 10162 10161 10158 ] final  151.31 input  -65.29 | X-H torsion
[ 10718 10713 10712 10709 ] final -110.98 input   66.30 | X-H torsion
[ 10763 10752 10751 10750 ] final -110.65 input  -60.55 | X-H torsion
[ 11005 11000 10999 10996 ] final -163.38 input  -57.11 | X-H torsion

> <Gold.Protein.ActiveResidues>
 VAL166  LYS551  ARG553  GLY616  TRP617  ASP618  TYR619  PRO620  LYS621  CYS622 
 ASP623  PHE694  ASN695  SER759  ASP760  ASP761  ALA762  ILE779  LEU786  VAL792 
 PHE793  MET794  SER795  GLU796  ALA797  LYS798  CYS799  TRP800  GLU811  SER814 

> <Gold.Protein.RotatedAtoms>
  150.9727  134.9097  159.7796 H   0  0  0  0  0  0  0  0  0  0  0  0  # atno 6907 bound_to 6896
  152.5195  134.3519  159.9264 H   0  0  0  0  0  0  0  0  0  0  0  0  # atno 6908 bound_to 6896
  151.3528  133.3878  159.2716 H   0  0  0  0  0  0  0  0  0  0  0  0  # atno 6909 bound_to 6896
  144.9778  140.7610  143.4631 H   0  0  0  0  0  0  0  0  0  0  0  0  # atno 7974 bound_to 7965
  154.5116  140.0809  156.8000 H   0  0  0  0  0  0  0  0  0  0  0  0  # atno 8008 bound_to 7997
  155.3773  140.3426  155.4227 H   0  0  0  0  0  0  0  0  0  0  0  0  # atno 8009 bound_to 7997
  156.1579  140.1579  156.8649 H   0  0  0  0  0  0  0  0  0  0  0  0  # atno 8010 bound_to 7997
  139.4842  144.5451  151.7497 H   0  0  0  0  0  0  0  0  0  0  0  0  # atno 10167 bound_to 10162
  156.0621  130.5843  150.8311 H   0  0  0  0  0  0  0  0  0  0  0  0  # atno 10718 bound_to 10713
  154.8259  135.4556  154.0917 H   0  0  0  0  0  0  0  0  0  0  0  0  # atno 10763 bound_to 10752
  153.2232  135.6896  153.7982 H   0  0  0  0  0  0  0  0  0  0  0  0  # atno 10764 bound_to 10752
  153.7392  135.3315  155.3277 H   0  0  0  0  0  0  0  0  0  0  0  0  # atno 10765 bound_to 10752
  140.5988  134.4969  157.5202 H   0  0  0  0  0  0  0  0  0  0  0  0  # atno 11005 bound_to 11000
  145.2464  139.2050  143.4965 LP  0  0  0  0  0  0  0  0  0  0  0  0  # atno 17320 bound_to 7965
  146.3400  140.2369  142.8594 LP  0  0  0  0  0  0  0  0  0  0  0  0  # atno 17321 bound_to 7965
  140.4997  144.1188  150.5968 LP  0  0  0  0  0  0  0  0  0  0  0  0  # atno 17342 bound_to 10162
  140.4077  143.2672  151.9871 LP  0  0  0  0  0  0  0  0  0  0  0  0  # atno 17343 bound_to 10162
  157.5637  131.0946  150.9521 LP  0  0  0  0  0  0  0  0  0  0  0  0  # atno 17370 bound_to 10713
  156.9753  130.5506  149.5293 LP  0  0  0  0  0  0  0  0  0  0  0  0  # atno 17371 bound_to 10713
  139.9241  134.8090  156.1120 LP  0  0  0  0  0  0  0  0  0  0  0  0  # atno 17394 bound_to 11000
  141.0886  133.6723  156.2491 LP  0  0  0  0  0  0  0  0  0  0  0  0  # atno 17395 bound_to 11000

$$$$
