AV-unprocessed.smi:309|AV-procd|sdf|2293|dock3
  -GOLD-   2262022193D 1   1.00000     0.00000
 Structure written by MMmdl.
 37 39  0  0  0  0  0  0  0  0  2 V2000
  151.5326  136.5619  154.0257 O   0  0  0  0  0  0  0  0  0  0  0  0
  151.7463  137.8094  154.6469 C   0  0  0  0  0  0  0  0  0  0  0  0
  150.6071  138.7519  154.4326 C   0  0  0  0  0  0  0  0  0  0  0  0
  149.5371  138.5141  153.6235 N   0  3  0  0  0  0  0  0  0  0  0  0
  148.6648  139.6008  153.6581 C   0  0  0  0  0  0  0  0  0  0  0  0
  147.4528  139.8142  153.0087 C   0  0  0  0  0  0  0  0  0  0  0  0
  146.8061  141.0411  153.2627 C   0  0  0  0  0  0  0  0  0  0  0  0
  147.3682  142.0003  154.1294 C   0  0  0  0  0  0  0  0  0  0  0  0
  148.5996  141.7737  154.7783 C   0  0  0  0  0  0  0  0  0  0  0  0
  149.2308  140.5541  154.5290 C   0  0  0  0  0  0  0  0  0  0  0  0
  150.4228  139.9829  154.9970 N   0  0  0  0  0  0  0  0  0  0  0  0
  151.2545  140.7307  155.9608 C   0  0  0  0  0  0  0  0  0  0  0  0
  150.9680  140.3826  157.4407 C   0  0  2  0  0  0  0  0  0  0  0  0
  149.5722  140.3745  157.6712 O   0  0  0  0  0  0  0  0  0  0  0  0
  151.7271  141.2847  158.4139 C   0  0  0  0  0  0  0  0  0  0  0  0
  151.5398  142.6863  158.3679 C   0  0  0  0  0  0  0  0  0  0  0  0
  152.2577  143.5361  159.2295 C   0  0  0  0  0  0  0  0  0  0  0  0
  152.0321  145.2438  159.1392 Cl  0  0  0  0  0  0  0  0  0  0  0  0
  153.1653  142.9930  160.1565 C   0  0  0  0  0  0  0  0  0  0  0  0
  153.3590  141.6007  160.2130 C   0  0  0  0  0  0  0  0  0  0  0  0
  152.6505  140.7457  159.3452 C   0  0  0  0  0  0  0  0  0  0  0  0
  152.9573  139.0467  159.4341 Cl  0  0  0  0  0  0  0  0  0  0  0  0
  150.7955  136.1443  154.4458 H   0  0  0  0  0  0  0  0  0  0  0  0
  151.9165  137.6539  155.7116 H   0  0  0  0  0  0  0  0  0  0  0  0
  152.6555  138.2529  154.2406 H   0  0  0  0  0  0  0  0  0  0  0  0
  147.0212  139.0806  152.3436 H   0  0  0  0  0  0  0  0  0  0  0  0
  145.8610  141.2506  152.7830 H   0  0  0  0  0  0  0  0  0  0  0  0
  146.8443  142.9295  154.3006 H   0  0  0  0  0  0  0  0  0  0  0  0
  149.0147  142.5174  155.4416 H   0  0  0  0  0  0  0  0  0  0  0  0
  152.2966  140.5135  155.7269 H   0  0  0  0  0  0  0  0  0  0  0  0
  151.1370  141.7996  155.7823 H   0  0  0  0  0  0  0  0  0  0  0  0
  151.2816  139.3534  157.6127 H   0  0  0  0  0  0  0  0  0  0  0  0
  149.2572  141.2649  157.6283 H   0  0  0  0  0  0  0  0  0  0  0  0
  150.8565  143.1223  157.6537 H   0  0  0  0  0  0  0  0  0  0  0  0
  153.7173  143.6422  160.8204 H   0  0  0  0  0  0  0  0  0  0  0  0
  154.0618  141.1876  160.9218 H   0  0  0  0  0  0  0  0  0  0  0  0
  149.4150  137.6634  153.0891 H   0  0  0  0  0  0  0  0  0  0  0  0
  1  2  1  0  0  0  0
  1 23  1  0  0  0  0
  2  3  1  0  0  0  0
  2 24  1  0  0  0  0
  2 25  1  0  0  0  0
  3 11  1  0  0  0  0
  3  4  2  0  0  0  0
  4  5  1  0  0  0  0
  4 37  1  0  0  0  0
  5 10  2  0  0  0  0
  5  6  1  0  0  0  0
  6  7  2  0  0  0  0
  6 26  1  0  0  0  0
  7  8  1  0  0  0  0
  7 27  1  0  0  0  0
  8  9  2  0  0  0  0
  8 28  1  0  0  0  0
  9 10  1  0  0  0  0
  9 29  1  0  0  0  0
 10 11  1  0  0  0  0
 11 12  1  0  0  0  0
 12 13  1  0  0  0  0
 12 30  1  0  0  0  0
 12 31  1  0  0  0  0
 13 14  1  0  0  0  0
 13 15  1  0  0  0  0
 13 32  1  0  0  0  0
 14 33  1  0  0  0  0
 15 21  1  0  0  0  0
 15 16  2  0  0  0  0
 16 17  1  0  0  0  0
 16 34  1  0  0  0  0
 17 18  1  0  0  0  0
 17 19  2  0  0  0  0
 19 20  1  0  0  0  0
 19 35  1  0  0  0  0
 20 21  2  0  0  0  0
 20 36  1  0  0  0  0
 21 22  1  0  0  0  0
M  CHG  1   4   1
M  END
> <s_m_source_file>
AV-unprocessed.smi

> <i_m_source_file_index>
309

> <i_lp_mmshare_version>
43012

> <i_f3d_flags>
0

> <s_epik_input>
W2NIXTFbY0hdW2NIXVtjSF1jKGMxMiluKGMobjIpW0NIMl1bT0hdKVtDSDJdW0NASF0oW09IXSljM1tjSF1jKENsKVtjSF1bY0hdYzNDbA==

> <s_epik_cmdline>
J2VwaWtfcHl0aG9uJywgJy1waCcsICc3LjAnLCAnLXRuJywgJzgnLCAnLW1hJywgJzIwMCcsICctbWV0YWxfYmluZGluZycsICctaW1hZScsICc8aW5maWxlLm1hZT4nLCAnLW9tYWUnLCAnPG91dGZpbGUubWFlPic=

> <r_epik_Ionization_Penalty>
1.35643

> <r_epik_Ionization_Penalty_Charging>
1.35557

> <r_epik_Ionization_Penalty_Neutral>
0.000861512

> <r_epik_State_Penalty>
1.43401

> <r_epik_Charging_Adjusted_Penalty>
2.78958

> <i_epik_Tot_Q>
1

> <i_epik_Tot_abs_Q>
1

> <r_epik_Metal_State_Penalty>
5.47166

> <b_epik_Metal_Only>
0

> <s_lp_Force_Field>
OPLS_2005

> <r_lp_Energy>
13.7118

> <b_lp_Chiralities_Consistent>
1

> <s_lp_Variant>
AV-unprocessed.smi:309-3

> <Gold.Version>
5.8.1

> <Gold.Id.Protein>
6NUR|6NUR_protein|mol2

> <Gold.PLP.Fitness>
61.8943

> <Gold.PLP.PLP>
-53.8298

> <Gold.PLP.part.hbond>
-4.0000

> <Gold.PLP.part.metal>
0.0000

> <Gold.PLP.part.buried>
1.2883

> <Gold.PLP.part.nonpolar>
-51.3293

> <Gold.PLP.part.repulsive>
0.0699

> <Gold.PLP.ligand.clash>
0.0000

> <Gold.PLP.ligand.torsion>
0.4960

> <Gold.PLP.Chemscore.Hbond>
3.0000

> <Gold.PLP.Chemscore.CHOScore>
0.0000

> <Gold.PLP.Chemscore.Metal>
0.0000

> <Gold.Chemscore.Hbonds>
donor molecule, donor type, donor heavy atom, donor atom, acceptor molecule, acceptor atom, score
      L1  H     4    37       P1  7948  2.00
      P1  H 10752 10763       L1     1  1.00

> <Gold.PLP.Chemscore.Internal.Correction>
0.0565

> <Gold.Rescore>
     Score         DG    S(hbond)    S(metal)    S(lipo)     H(rot)  DE(clash)    DE(int)     intcor
     20.53     -21.03       1.73        0.00     142.60       2.70       0.11       0.39       ----

> <Gold.Chemscore.Fitness>
20.5293

> <Gold.Chemscore.DG>
-21.0285

> <Gold.Chemscore.ZeroCoef>
-5.4800

> <Gold.Chemscore.Hbond>
1.7266

> <Gold.Chemscore.Metal>
0.0000

> <Gold.Chemscore.Lipo>
142.5985

> <Gold.Chemscore.Internal_Hbond>
0.0000

> <Gold.Chemscore.DEClash>
0.1056

> <Gold.Chemscore.DEInternal>
0.3936

> <Gold.Chemscore.Rot>
2.6963

> <Gold.Chemscore.Internal.Correction>
   9.000000E+99

> <Gold.Chemscore.Hbonds>
donor molecule, donor type, donor heavy atom, donor atom, acceptor molecule, acceptor atom, score
      L1  H     4    37       P1  7948  0.92
      P1  H 10752 10763       L1     1  0.45

> <Gold.Chemscore.Hbond.Weighted>
-5.7669

> <Gold.Chemscore.Metal.Weighted>
-0.0000

> <Gold.Chemscore.Lipo.Weighted>
-16.6840

> <Gold.Chemscore.Internal_Hbond.Weighted>
0.0000

> <Gold.Chemscore.DEClash.Weighted>
0.1056

> <Gold.Chemscore.DEInternal.Weighted>
0.3936

> <Gold.Chemscore.Rot.Weighted>
6.9024

> <Gold.Chemscore.Internal.Correction.Weighted>
   9.000000E+99

> <Gold.Protein.RotatedTorsions>
[ 6907 6896 6895 6894 ] final -144.32 input  -60.11 | X-H torsion
[ 7974 7965 7964 7962 ] final  -20.65 input  175.53 | X-H torsion
[ 8008 7997 7996 7995 ] final -160.37 input   59.86 | X-H torsion
[ 10167 10162 10161 10158 ] final  -94.66 input  -65.29 | X-H torsion
[ 10718 10713 10712 10709 ] final  133.18 input   66.30 | X-H torsion
[ 10763 10752 10751 10750 ] final   40.81 input  -60.55 | X-H torsion
[ 11005 11000 10999 10996 ] final  116.98 input  -57.11 | X-H torsion

> <Gold.Protein.ActiveResidues>
 VAL166  LYS551  ARG553  GLY616  TRP617  ASP618  TYR619  PRO620  LYS621  CYS622 
 ASP623  PHE694  ASN695  SER759  ASP760  ASP761  ALA762  ILE779  LEU786  VAL792 
 PHE793  MET794  SER795  GLU796  ALA797  LYS798  CYS799  TRP800  GLU811  SER814 

> <Gold.Protein.RotatedAtoms>
  151.1125  133.5163  159.2604 H   0  0  0  0  0  0  0  0  0  0  0  0  # atno 6907 bound_to 6896
  151.1952  135.0419  159.8859 H   0  0  0  0  0  0  0  0  0  0  0  0  # atno 6908 bound_to 6896
  152.5451  134.0960  159.8350 H   0  0  0  0  0  0  0  0  0  0  0  0  # atno 6909 bound_to 6896
  146.1776  140.4232  142.8507 H   0  0  0  0  0  0  0  0  0  0  0  0  # atno 7974 bound_to 7965
  155.7764  140.0859  157.2081 H   0  0  0  0  0  0  0  0  0  0  0  0  # atno 8008 bound_to 7997
  154.3993  140.1516  156.3059 H   0  0  0  0  0  0  0  0  0  0  0  0  # atno 8009 bound_to 7997
  155.8696  140.3426  155.5815 H   0  0  0  0  0  0  0  0  0  0  0  0  # atno 8010 bound_to 7997
  140.3121  143.3099  152.0137 H   0  0  0  0  0  0  0  0  0  0  0  0  # atno 10167 bound_to 10162
  157.4799  131.1085  150.9696 H   0  0  0  0  0  0  0  0  0  0  0  0  # atno 10718 bound_to 10713
  152.9925  135.6180  154.2686 H   0  0  0  0  0  0  0  0  0  0  0  0  # atno 10763 bound_to 10752
  154.2420  135.2788  155.2852 H   0  0  0  0  0  0  0  0  0  0  0  0  # atno 10764 bound_to 10752
  154.5361  135.5774  153.6857 H   0  0  0  0  0  0  0  0  0  0  0  0  # atno 10765 bound_to 10752
  139.9059  134.9605  156.7281 H   0  0  0  0  0  0  0  0  0  0  0  0  # atno 11005 bound_to 11000
  144.8262  140.6632  143.6321 LP  0  0  0  0  0  0  0  0  0  0  0  0  # atno 17320 bound_to 7965
  145.4167  139.1571  143.4096 LP  0  0  0  0  0  0  0  0  0  0  0  0  # atno 17321 bound_to 7965
  139.4891  144.6376  151.6943 LP  0  0  0  0  0  0  0  0  0  0  0  0  # atno 17342 bound_to 10162
  140.5559  144.0349  150.6147 LP  0  0  0  0  0  0  0  0  0  0  0  0  # atno 17343 bound_to 10162
  157.0432  130.5757  149.5359 LP  0  0  0  0  0  0  0  0  0  0  0  0  # atno 17370 bound_to 10713
  156.0116  130.5208  150.8005 LP  0  0  0  0  0  0  0  0  0  0  0  0  # atno 17371 bound_to 10713
  140.6947  133.9359  155.7987 LP  0  0  0  0  0  0  0  0  0  0  0  0  # atno 17394 bound_to 11000
  141.0416  134.0614  157.3895 LP  0  0  0  0  0  0  0  0  0  0  0  0  # atno 17395 bound_to 11000

$$$$
