AV-unprocessed.smi:2914|AV-procd|sdf|11186|dock8
  -GOLD-   2272016 73D 1   1.00000     0.00000
 Structure written by MMmdl.
 32 34  0  0  0  0  0  0  0  0  1 V2000
  151.5398  141.2531  157.2125 O   0  0  0  0  0  0  0  0  0  0  0  0
  150.9409  142.1726  156.6540 C   0  0  0  0  0  0  0  0  0  0  0  0
  150.0676  142.0319  155.6412 N   0  0  0  0  0  0  0  0  0  0  0  0
  149.6509  140.8919  155.0283 C   0  0  0  0  0  0  0  0  0  0  0  0
  150.2520  139.6630  154.9982 C   0  0  0  0  0  0  0  0  0  0  0  0
  149.3418  138.8937  154.2186 C   0  0  0  0  0  0  0  0  0  0  0  0
  148.2872  139.5895  153.8129 N   0  0  0  0  0  0  0  0  0  0  0  0
  148.4754  140.8317  154.3104 N   0  0  0  0  0  0  0  0  0  0  0  0
  147.4888  141.8673  154.0599 C   0  0  0  0  0  0  0  0  0  0  0  0
  146.7973  142.3017  155.3373 C   0  0  0  0  0  0  0  0  0  0  0  0
  145.4419  141.7468  155.7081 C   0  0  0  0  0  0  0  0  0  0  0  0
  145.5782  143.1928  155.2951 C   0  0  0  0  0  0  0  0  0  0  0  0
  151.0851  143.4622  156.9890 N   0  0  0  0  0  0  0  0  0  0  0  0
  151.9378  143.9600  158.0199 C   0  0  0  0  0  0  0  0  0  0  0  0
  152.0055  143.1788  159.3143 C   0  0  0  0  0  0  0  0  0  0  0  0
  151.2829  144.4970  159.2741 C   0  0  0  0  0  0  0  0  0  0  0  0
  149.6586  142.8838  155.2867 H   0  0  0  0  0  0  0  0  0  0  0  0
  151.1796  139.3463  155.4500 H   0  0  0  0  0  0  0  0  0  0  0  0
  149.4146  137.8537  153.9368 H   0  0  0  0  0  0  0  0  0  0  0  0
  147.9796  142.7263  153.6016 H   0  0  0  0  0  0  0  0  0  0  0  0
  146.7529  141.4979  153.3437 H   0  0  0  0  0  0  0  0  0  0  0  0
  147.4804  142.4682  156.1681 H   0  0  0  0  0  0  0  0  0  0  0  0
  144.9646  141.0661  155.0059 H   0  0  0  0  0  0  0  0  0  0  0  0
  145.2561  141.5382  156.7595 H   0  0  0  0  0  0  0  0  0  0  0  0
  145.4824  143.9490  156.0714 H   0  0  0  0  0  0  0  0  0  0  0  0
  145.1859  143.4737  154.3198 H   0  0  0  0  0  0  0  0  0  0  0  0
  150.5519  144.1476  156.4743 H   0  0  0  0  0  0  0  0  0  0  0  0
  152.8579  144.4556  157.7125 H   0  0  0  0  0  0  0  0  0  0  0  0
  151.4012  142.2772  159.3979 H   0  0  0  0  0  0  0  0  0  0  0  0
  152.9627  143.1469  159.8313 H   0  0  0  0  0  0  0  0  0  0  0  0
  151.7575  145.3453  159.7634 H   0  0  0  0  0  0  0  0  0  0  0  0
  150.1961  144.4753  159.3314 H   0  0  0  0  0  0  0  0  0  0  0  0
  1  2  2  0  0  0  0
  2  3  1  0  0  0  0
  2 13  1  0  0  0  0
  3  4  1  0  0  0  0
  3 17  1  0  0  0  0
  4  8  1  0  0  0  0
  4  5  2  0  0  0  0
  5  6  1  0  0  0  0
  5 18  1  0  0  0  0
  6  7  2  0  0  0  0
  6 19  1  0  0  0  0
  7  8  1  0  0  0  0
  8  9  1  0  0  0  0
  9 10  1  0  0  0  0
  9 20  1  0  0  0  0
  9 21  1  0  0  0  0
 10 12  1  0  0  0  0
 10 11  1  0  0  0  0
 10 22  1  0  0  0  0
 11 12  1  0  0  0  0
 11 23  1  0  0  0  0
 11 24  1  0  0  0  0
 12 25  1  0  0  0  0
 12 26  1  0  0  0  0
 13 14  1  0  0  0  0
 13 27  1  0  0  0  0
 14 16  1  0  0  0  0
 14 15  1  0  0  0  0
 14 28  1  0  0  0  0
 15 16  1  0  0  0  0
 15 29  1  0  0  0  0
 15 30  1  0  0  0  0
 16 31  1  0  0  0  0
 16 32  1  0  0  0  0
M  END
> <s_m_source_file>
AV-unprocessed.smi

> <i_m_source_file_index>
2914

> <i_lp_mmshare_version>
43012

> <i_f3d_flags>
0

> <s_epik_input>
W0NIMl0xW0NIMl1bQ0hdMVtOSF1DKD1PKVtOSF1jMltjSF1bY0hdbm4yW0NIMl1bQ0hdM1tDSDJdW0NIMl0z

> <s_epik_cmdline>
J2VwaWtfcHl0aG9uJywgJy1waCcsICc3LjAnLCAnLXRuJywgJzgnLCAnLW1hJywgJzIwMCcsICctbWV0YWxfYmluZGluZycsICctaW1hZScsICc8aW5maWxlLm1hZT4nLCAnLW9tYWUnLCAnPG91dGZpbGUubWFlPic=

> <r_lp_tautomer_probability>
1

> <r_epik_Ionization_Penalty>
4.83987e-05

> <r_epik_Ionization_Penalty_Charging>
0

> <r_epik_Ionization_Penalty_Neutral>
4.83987e-05

> <r_epik_State_Penalty>
-0

> <r_epik_Charging_Adjusted_Penalty>
0

> <i_epik_Tot_Q>
0

> <i_epik_Tot_abs_Q>
0

> <r_epik_Metal_State_Penalty>
-0

> <b_epik_Metal_Only>
0

> <s_lp_Force_Field>
OPLS_2005

> <r_lp_Energy>
29.2759

> <b_lp_Chiralities_Consistent>
1

> <s_lp_Variant>
AV-unprocessed.smi:2914-1

> <Gold.Version>
5.8.1

> <Gold.Id.Protein>
6NUR|6NUR_protein|mol2

> <Gold.PLP.Fitness>
43.5263

> <Gold.PLP.PLP>
-36.0276

> <Gold.PLP.part.hbond>
-2.0000

> <Gold.PLP.part.metal>
0.0000

> <Gold.PLP.part.buried>
-2.9430

> <Gold.PLP.part.nonpolar>
-31.0343

> <Gold.PLP.part.repulsive>
1.3631

> <Gold.PLP.ligand.clash>
0.0000

> <Gold.PLP.ligand.torsion>
0.6141

> <Gold.PLP.Chemscore.Hbond>
2.0000

> <Gold.PLP.Chemscore.CHOScore>
0.7105

> <Gold.PLP.Chemscore.Metal>
0.0000

> <Gold.Chemscore.Hbonds>
donor molecule, donor type, donor heavy atom, donor atom, acceptor molecule, acceptor atom, score
      L1  H     3    17       P1  8028  0.99
      L1  H    13    27       P1  8028  1.00
      L1  C     6    19       P1  7948  0.71

> <Gold.PLP.Chemscore.Internal.Correction>
0.5955

> <Gold.Rescore>
     Score         DG    S(hbond)    S(metal)    S(lipo)     H(rot)  DE(clash)    DE(int)     intcor
     13.42     -16.18       1.91        0.00      67.50       1.39       0.06       2.70       ----

> <Gold.Chemscore.Fitness>
13.4178

> <Gold.Chemscore.DG>
-16.1833

> <Gold.Chemscore.ZeroCoef>
-5.4800

> <Gold.Chemscore.Hbond>
1.9076

> <Gold.Chemscore.Metal>
0.0000

> <Gold.Chemscore.Lipo>
67.5011

> <Gold.Chemscore.Internal_Hbond>
0.0000

> <Gold.Chemscore.DEClash>
0.0648

> <Gold.Chemscore.DEInternal>
2.7007

> <Gold.Chemscore.Rot>
1.3929

> <Gold.Chemscore.Internal.Correction>
   9.000000E+99

> <Gold.Chemscore.Hbonds>
donor molecule, donor type, donor heavy atom, donor atom, acceptor molecule, acceptor atom, score
      L1  H     3    17       P1  8028  0.88
      L1  H    13    27       P1  8028  0.96

> <Gold.Chemscore.Hbond.Weighted>
-6.3714

> <Gold.Chemscore.Metal.Weighted>
-0.0000

> <Gold.Chemscore.Lipo.Weighted>
-7.8976

> <Gold.Chemscore.Internal_Hbond.Weighted>
0.0000

> <Gold.Chemscore.DEClash.Weighted>
0.0648

> <Gold.Chemscore.DEInternal.Weighted>
2.7007

> <Gold.Chemscore.Rot.Weighted>
3.5657

> <Gold.Chemscore.Internal.Correction.Weighted>
   9.000000E+99

> <Gold.Protein.RotatedTorsions>
[ 6907 6896 6895 6894 ] final -103.06 input  -60.11 | X-H torsion
[ 7974 7965 7964 7962 ] final  106.12 input  175.53 | X-H torsion
[ 8008 7997 7996 7995 ] final  127.51 input   59.86 | X-H torsion
[ 10167 10162 10161 10158 ] final -159.28 input  -65.29 | X-H torsion
[ 10718 10713 10712 10709 ] final -175.36 input   66.30 | X-H torsion
[ 10763 10752 10751 10750 ] final   72.55 input  -60.55 | X-H torsion
[ 11005 11000 10999 10996 ] final -159.34 input  -57.11 | X-H torsion

> <Gold.Protein.ActiveResidues>
 VAL166  LYS551  ARG553  GLY616  TRP617  ASP618  TYR619  PRO620  LYS621  CYS622 
 ASP623  PHE694  ASN695  SER759  ASP760  ASP761  ALA762  ILE779  LEU786  VAL792 
 PHE793  MET794  SER795  GLU796  ALA797  LYS798  CYS799  TRP800  GLU811  SER814 

> <Gold.Protein.RotatedAtoms>
  150.7223  134.0486  159.3790 H   0  0  0  0  0  0  0  0  0  0  0  0  # atno 6907 bound_to 6896
  151.8462  135.0571  160.0463 H   0  0  0  0  0  0  0  0  0  0  0  0  # atno 6908 bound_to 6896
  152.2825  133.5448  159.5543 H   0  0  0  0  0  0  0  0  0  0  0  0  # atno 6909 bound_to 6896
  145.3107  139.2541  143.3764 H   0  0  0  0  0  0  0  0  0  0  0  0  # atno 7974 bound_to 7965
  156.2892  140.2667  156.2285 H   0  0  0  0  0  0  0  0  0  0  0  0  # atno 8008 bound_to 7997
  155.0096  140.0387  157.2412 H   0  0  0  0  0  0  0  0  0  0  0  0  # atno 8009 bound_to 7997
  154.7530  140.2746  155.6282 H   0  0  0  0  0  0  0  0  0  0  0  0  # atno 8010 bound_to 7997
  139.6627  143.9884  152.2235 H   0  0  0  0  0  0  0  0  0  0  0  0  # atno 10167 bound_to 10162
  156.7987  130.9544  151.3119 H   0  0  0  0  0  0  0  0  0  0  0  0  # atno 10718 bound_to 10713
  153.0466  135.5096  154.7761 H   0  0  0  0  0  0  0  0  0  0  0  0  # atno 10763 bound_to 10752
  154.6656  135.2945  154.9812 H   0  0  0  0  0  0  0  0  0  0  0  0  # atno 10764 bound_to 10752
  154.0648  135.6686  153.4869 H   0  0  0  0  0  0  0  0  0  0  0  0  # atno 10765 bound_to 10752
  140.6437  134.4524  157.5234 H   0  0  0  0  0  0  0  0  0  0  0  0  # atno 11005 bound_to 11000
  146.3119  140.3643  142.8668 LP  0  0  0  0  0  0  0  0  0  0  0  0  # atno 17320 bound_to 7965
  144.9018  140.7651  143.5862 LP  0  0  0  0  0  0  0  0  0  0  0  0  # atno 17321 bound_to 7965
  139.9627  144.6547  150.8064 LP  0  0  0  0  0  0  0  0  0  0  0  0  # atno 17342 bound_to 10162
  140.7587  143.3112  151.2841 LP  0  0  0  0  0  0  0  0  0  0  0  0  # atno 17343 bound_to 10162
  157.6564  130.8928  149.9738 LP  0  0  0  0  0  0  0  0  0  0  0  0  # atno 17370 bound_to 10713
  156.1114  130.3650  150.0042 LP  0  0  0  0  0  0  0  0  0  0  0  0  # atno 17371 bound_to 10713
  139.9071  134.8425  156.1666 LP  0  0  0  0  0  0  0  0  0  0  0  0  # atno 17394 bound_to 11000
  141.0588  133.6852  156.1912 LP  0  0  0  0  0  0  0  0  0  0  0  0  # atno 17395 bound_to 11000

$$$$
