AV-unprocessed.smi:1997|AV-procd|sdf|8087|dock4
  -GOLD-   2272010303D 1   1.00000     0.00000
 Structure written by MMmdl.
 37 39  0  0  0  0  0  0  0  0  1 V2000
  146.7121  137.0035  153.1171 O   0  0  0  0  0  0  0  0  0  0  0  0
  145.9221  137.9044  152.8338 C   0  0  0  0  0  0  0  0  0  0  0  0
  146.1544  139.2201  152.9852 N   0  0  0  0  0  0  0  0  0  0  0  0
  147.3105  139.8554  153.5104 C   0  0  0  0  0  0  0  0  0  0  0  0
  147.6363  141.1318  153.2646 N   0  0  0  0  0  0  0  0  0  0  0  0
  148.8191  141.4945  153.8939 N   0  0  0  0  0  0  0  0  0  0  0  0
  149.3527  140.4859  154.5934 C   0  0  0  0  0  0  0  0  0  0  0  0
  150.6308  140.6299  155.3503 C   0  0  0  0  0  0  0  0  0  0  0  0
  150.7033  140.2750  156.8178 C   0  0  0  0  0  0  0  0  0  0  0  0
  150.8191  141.7151  156.3882 C   0  0  0  0  0  0  0  0  0  0  0  0
  148.4302  138.9870  154.5456 S   0  0  0  0  0  0  0  0  0  0  0  0
  144.6995  137.6839  152.3264 N   0  0  0  0  0  0  0  0  0  0  0  0
  144.1275  136.3684  152.0291 C   0  0  1  0  0  0  0  0  0  0  0  0
  145.0885  135.6524  151.0521 C   0  0  0  0  0  0  0  0  0  0  0  0
  144.4211  134.5357  150.2305 C   0  0  0  0  0  0  0  0  0  0  0  0
  143.9198  133.3373  151.0508 C   0  0  0  0  0  0  0  0  0  0  0  0
  142.8220  133.6986  152.0659 C   0  0  0  0  0  0  0  0  0  0  0  0
  143.3652  134.3399  153.2560 N   0  0  0  0  0  0  0  0  0  0  0  0
  143.9922  135.5245  153.3183 C   0  0  0  0  0  0  0  0  0  0  0  0
  144.4564  135.9269  154.3849 O   0  0  0  0  0  0  0  0  0  0  0  0
  145.4109  139.8411  152.7025 H   0  0  0  0  0  0  0  0  0  0  0  0
  151.4813  140.3746  154.7212 H   0  0  0  0  0  0  0  0  0  0  0  0
  149.7818  139.9717  157.3112 H   0  0  0  0  0  0  0  0  0  0  0  0
  151.6059  139.7805  157.1702 H   0  0  0  0  0  0  0  0  0  0  0  0
  151.7999  142.1813  156.4541 H   0  0  0  0  0  0  0  0  0  0  0  0
  149.9777  142.3680  156.6110 H   0  0  0  0  0  0  0  0  0  0  0  0
  144.1224  138.4843  152.1149 H   0  0  0  0  0  0  0  0  0  0  0  0
  143.1491  136.5030  151.5643 H   0  0  0  0  0  0  0  0  0  0  0  0
  145.4779  136.3810  150.3390 H   0  0  0  0  0  0  0  0  0  0  0  0
  145.9630  135.2639  151.5772 H   0  0  0  0  0  0  0  0  0  0  0  0
  143.5929  134.9545  149.6574 H   0  0  0  0  0  0  0  0  0  0  0  0
  145.1375  134.1731  149.4926 H   0  0  0  0  0  0  0  0  0  0  0  0
  143.5183  132.5977  150.3574 H   0  0  0  0  0  0  0  0  0  0  0  0
  144.7548  132.8499  151.5561 H   0  0  0  0  0  0  0  0  0  0  0  0
  142.0519  134.3232  151.6109 H   0  0  0  0  0  0  0  0  0  0  0  0
  142.3228  132.7863  152.3931 H   0  0  0  0  0  0  0  0  0  0  0  0
  143.2838  133.8198  154.1177 H   0  0  0  0  0  0  0  0  0  0  0  0
  1  2  2  0  0  0  0
  2  3  1  0  0  0  0
  2 12  1  0  0  0  0
  3  4  1  0  0  0  0
  3 21  1  0  0  0  0
  4 11  1  0  0  0  0
  4  5  2  0  0  0  0
  5  6  1  0  0  0  0
  6  7  2  0  0  0  0
  7  8  1  0  0  0  0
  7 11  1  0  0  0  0
  8 10  1  0  0  0  0
  8  9  1  0  0  0  0
  8 22  1  0  0  0  0
  9 10  1  0  0  0  0
  9 23  1  0  0  0  0
  9 24  1  0  0  0  0
 10 25  1  0  0  0  0
 10 26  1  0  0  0  0
 12 13  1  0  0  0  0
 12 27  1  0  0  0  0
 13 19  1  0  0  0  0
 13 14  1  0  0  0  0
 13 28  1  0  0  0  0
 14 15  1  0  0  0  0
 14 29  1  0  0  0  0
 14 30  1  0  0  0  0
 15 16  1  0  0  0  0
 15 31  1  0  0  0  0
 15 32  1  0  0  0  0
 16 17  1  0  0  0  0
 16 33  1  0  0  0  0
 16 34  1  0  0  0  0
 17 18  1  0  0  0  0
 17 35  1  0  0  0  0
 17 36  1  0  0  0  0
 18 19  1  0  0  0  0
 18 37  1  0  0  0  0
 19 20  2  0  0  0  0
M  END
> <s_m_source_file>
AV-unprocessed.smi

> <i_m_source_file_index>
1997

> <i_lp_mmshare_version>
43012

> <i_f3d_flags>
0

> <s_epik_input>
W0NIMl0xW0NIMl1bQ0hdMWMoczIpbm5jMltOSF1DKD1PKVtOSF1bQ0BASF0zW0NIMl1bQ0gyXVtDSDJdW0NIMl1bTkhdQzM9Tw==

> <s_epik_cmdline>
J2VwaWtfcHl0aG9uJywgJy1waCcsICc3LjAnLCAnLXRuJywgJzgnLCAnLW1hJywgJzIwMCcsICctbWV0YWxfYmluZGluZycsICctaW1hZScsICc8aW5maWxlLm1hZT4nLCAnLW9tYWUnLCAnPG91dGZpbGUubWFlPic=

> <r_lp_tautomer_probability>
1

> <r_epik_Ionization_Penalty>
0.000421558

> <r_epik_Ionization_Penalty_Charging>
0

> <r_epik_Ionization_Penalty_Neutral>
0.000421558

> <r_epik_State_Penalty>
-0

> <r_epik_Charging_Adjusted_Penalty>
0

> <i_epik_Tot_Q>
0

> <i_epik_Tot_abs_Q>
0

> <r_epik_Metal_State_Penalty>
0.200761

> <b_epik_Metal_Only>
0

> <s_lp_Force_Field>
OPLS_2005

> <r_lp_Energy>
8.5849

> <b_lp_Chiralities_Consistent>
1

> <s_lp_Variant>
AV-unprocessed.smi:1997-2

> <Gold.Version>
5.8.1

> <Gold.Id.Protein>
6NUR|6NUR_protein|mol2

> <Gold.PLP.Fitness>
38.5334

> <Gold.PLP.PLP>
-29.5205

> <Gold.PLP.part.hbond>
-4.8504

> <Gold.PLP.part.metal>
0.0000

> <Gold.PLP.part.buried>
-0.7422

> <Gold.PLP.part.nonpolar>
-26.2466

> <Gold.PLP.part.repulsive>
4.0454

> <Gold.PLP.ligand.clash>
0.0000

> <Gold.PLP.ligand.torsion>
0.1684

> <Gold.PLP.Chemscore.Hbond>
3.0744

> <Gold.PLP.Chemscore.CHOScore>
0.0000

> <Gold.PLP.Chemscore.Metal>
0.0000

> <Gold.Chemscore.Hbonds>
donor molecule, donor type, donor heavy atom, donor atom, acceptor molecule, acceptor atom, score
      L1  H     3    21       P1 10175  1.00
      L1  H    12    27       P1 10175  0.98
      L1  H    18    37       P1 10957  0.35
      P1  H  8011  8017       L1     6  0.66

> <Gold.PLP.Chemscore.Internal.Correction>
0.1265

> <Gold.Rescore>
     Score         DG    S(hbond)    S(metal)    S(lipo)     H(rot)  DE(clash)    DE(int)     intcor
     12.46     -17.10       2.60        0.00      53.32       1.29       0.17       4.48       ----

> <Gold.Chemscore.Fitness>
12.4572

> <Gold.Chemscore.DG>
-17.1024

> <Gold.Chemscore.ZeroCoef>
-5.4800

> <Gold.Chemscore.Hbond>
2.5978

> <Gold.Chemscore.Metal>
0.0000

> <Gold.Chemscore.Lipo>
53.3176

> <Gold.Chemscore.Internal_Hbond>
0.0000

> <Gold.Chemscore.DEClash>
0.1695

> <Gold.Chemscore.DEInternal>
4.4757

> <Gold.Chemscore.Rot>
1.2860

> <Gold.Chemscore.Internal.Correction>
   9.000000E+99

> <Gold.Chemscore.Hbonds>
donor molecule, donor type, donor heavy atom, donor atom, acceptor molecule, acceptor atom, score
      L1  H     3    21       P1 10175  0.99
      L1  H    12    27       P1 10175  0.87
      L1  H    18    37       P1 10957  0.35
      P1  H  8011  8017       L1     6  0.16

> <Gold.Chemscore.Hbond.Weighted>
-8.6765

> <Gold.Chemscore.Metal.Weighted>
-0.0000

> <Gold.Chemscore.Lipo.Weighted>
-6.2382

> <Gold.Chemscore.Internal_Hbond.Weighted>
0.0000

> <Gold.Chemscore.DEClash.Weighted>
0.1695

> <Gold.Chemscore.DEInternal.Weighted>
4.4757

> <Gold.Chemscore.Rot.Weighted>
3.2923

> <Gold.Chemscore.Internal.Correction.Weighted>
   9.000000E+99

> <Gold.Protein.RotatedTorsions>
[ 6907 6896 6895 6894 ] final   89.36 input  -60.11 | X-H torsion
[ 7974 7965 7964 7962 ] final   54.75 input  175.53 | X-H torsion
[ 8008 7997 7996 7995 ] final  100.42 input   59.86 | X-H torsion
[ 10167 10162 10161 10158 ] final  -62.87 input  -65.29 | X-H torsion
[ 10718 10713 10712 10709 ] final   40.73 input   66.30 | X-H torsion
[ 10763 10752 10751 10750 ] final   68.56 input  -60.55 | X-H torsion
[ 11005 11000 10999 10996 ] final  -26.35 input  -57.11 | X-H torsion

> <Gold.Protein.ActiveResidues>
 VAL166  LYS551  ARG553  GLY616  TRP617  ASP618  TYR619  PRO620  LYS621  CYS622 
 ASP623  PHE694  ASN695  SER759  ASP760  ASP761  ALA762  ILE779  LEU786  VAL792 
 PHE793  MET794  SER795  GLU796  ALA797  LYS798  CYS799  TRP800  GLU811  SER814 

> <Gold.Protein.RotatedAtoms>
  152.5435  134.1978  159.8699 H   0  0  0  0  0  0  0  0  0  0  0  0  # atno 6907 bound_to 6896
  151.1969  133.4627  159.2603 H   0  0  0  0  0  0  0  0  0  0  0  0  # atno 6908 bound_to 6896
  151.1028  134.9994  159.8512 H   0  0  0  0  0  0  0  0  0  0  0  0  # atno 6909 bound_to 6896
  145.9576  139.4029  143.0268 H   0  0  0  0  0  0  0  0  0  0  0  0  # atno 7974 bound_to 7965
  156.1201  140.3213  155.8196 H   0  0  0  0  0  0  0  0  0  0  0  0  # atno 8008 bound_to 7997
  155.4519  140.0533  157.3017 H   0  0  0  0  0  0  0  0  0  0  0  0  # atno 8009 bound_to 7997
  154.4821  140.2057  155.9753 H   0  0  0  0  0  0  0  0  0  0  0  0  # atno 8010 bound_to 7997
  140.5910  143.2342  151.6140 H   0  0  0  0  0  0  0  0  0  0  0  0  # atno 10167 bound_to 10162
  157.3855  130.7777  149.7227 H   0  0  0  0  0  0  0  0  0  0  0  0  # atno 10718 bound_to 10713
  153.0241  135.5243  154.7153 H   0  0  0  0  0  0  0  0  0  0  0  0  # atno 10763 bound_to 10752
  154.6224  135.2890  155.0313 H   0  0  0  0  0  0  0  0  0  0  0  0  # atno 10764 bound_to 10752
  154.1295  135.6595  153.4971 H   0  0  0  0  0  0  0  0  0  0  0  0  # atno 10765 bound_to 10752
  140.9021  133.7517  156.0558 H   0  0  0  0  0  0  0  0  0  0  0  0  # atno 11005 bound_to 11000
  145.8085  140.9737  143.0961 LP  0  0  0  0  0  0  0  0  0  0  0  0  # atno 17320 bound_to 7965
  144.6808  139.9891  143.7484 LP  0  0  0  0  0  0  0  0  0  0  0  0  # atno 17321 bound_to 7965
  139.5227  144.3154  152.0957 LP  0  0  0  0  0  0  0  0  0  0  0  0  # atno 17342 bound_to 10162
  140.2318  144.4360  150.6296 LP  0  0  0  0  0  0  0  0  0  0  0  0  # atno 17343 bound_to 10162
  155.9785  130.4050  150.3641 LP  0  0  0  0  0  0  0  0  0  0  0  0  # atno 17370 bound_to 10713
  157.1751  131.0378  151.2776 LP  0  0  0  0  0  0  0  0  0  0  0  0  # atno 17371 bound_to 10713
  140.8216  134.3282  157.5379 LP  0  0  0  0  0  0  0  0  0  0  0  0  # atno 17394 bound_to 11000
  139.8744  134.9313  156.3523 LP  0  0  0  0  0  0  0  0  0  0  0  0  # atno 17395 bound_to 11000

$$$$
