AV-unprocessed.smi:750|AV-procd|sdf|3589|dock10
  -GOLD-   22720 0583D 1   1.00000     0.00000
 Structure written by MMmdl.
 23 24  0  0  0  0  0  0  0  0  1 V2000
  145.7321  135.4495  154.1589 C   0  0  0  0  0  0  0  0  0  0  0  0
  145.3934  135.7974  152.6953 C   0  0  2  0  0  0  0  0  0  0  0  0
  145.0101  134.5579  151.8717 C   0  0  0  0  0  0  0  0  0  0  0  0
  143.8215  133.8452  152.1554 C   0  0  0  0  0  0  0  0  0  0  0  0
  143.4930  132.7121  151.3879 C   0  0  0  0  0  0  0  0  0  0  0  0
  144.3692  132.3252  150.3568 C   0  0  0  0  0  0  0  0  0  0  0  0
  145.5081  132.9884  150.0691 N   0  0  0  0  0  0  0  0  0  0  0  0
  145.8146  134.0749  150.8102 C   0  0  0  0  0  0  0  0  0  0  0  0
  146.4740  136.5835  152.1122 N   0  0  0  0  0  0  0  0  0  0  0  0
  146.0831  137.8027  151.7171 C   0  0  0  0  0  0  0  0  0  0  0  0
  146.7912  138.6505  151.1792 O   0  0  0  0  0  0  0  0  0  0  0  0
  144.7891  137.9353  152.0205 N   0  0  0  0  0  0  0  0  0  0  0  0
  144.2907  136.8498  152.6095 C   0  0  0  0  0  0  0  0  0  0  0  0
  143.1418  136.7048  153.0245 O   0  0  0  0  0  0  0  0  0  0  0  0
  144.8945  134.9750  154.6707 H   0  0  0  0  0  0  0  0  0  0  0  0
  145.9958  136.3399  154.7317 H   0  0  0  0  0  0  0  0  0  0  0  0
  146.5793  134.7651  154.2110 H   0  0  0  0  0  0  0  0  0  0  0  0
  143.1614  134.1623  152.9489 H   0  0  0  0  0  0  0  0  0  0  0  0
  142.5898  132.1540  151.5845 H   0  0  0  0  0  0  0  0  0  0  0  0
  144.1493  131.4616  149.7469 H   0  0  0  0  0  0  0  0  0  0  0  0
  146.7366  134.5639  150.5337 H   0  0  0  0  0  0  0  0  0  0  0  0
  147.4125  136.2267  152.0053 H   0  0  0  0  0  0  0  0  0  0  0  0
  144.2531  138.7713  151.8394 H   0  0  0  0  0  0  0  0  0  0  0  0
  1  2  1  0  0  0  0
  1 15  1  0  0  0  0
  1 16  1  0  0  0  0
  1 17  1  0  0  0  0
  2 13  1  0  0  0  0
  2  3  1  0  0  0  0
  2  9  1  0  0  0  0
  3  8  1  0  0  0  0
  3  4  2  0  0  0  0
  4  5  1  0  0  0  0
  4 18  1  0  0  0  0
  5  6  2  0  0  0  0
  5 19  1  0  0  0  0
  6  7  1  0  0  0  0
  6 20  1  0  0  0  0
  7  8  2  0  0  0  0
  8 21  1  0  0  0  0
  9 10  1  0  0  0  0
  9 22  1  0  0  0  0
 10 11  2  0  0  0  0
 10 12  1  0  0  0  0
 12 13  1  0  0  0  0
 12 23  1  0  0  0  0
 13 14  2  0  0  0  0
M  END
> <s_m_source_file>
AV-unprocessed.smi

> <i_m_source_file_index>
750

> <i_lp_mmshare_version>
43012

> <i_f3d_flags>
0

> <s_epik_input>
Tz1DMVtOSF1DKD1PKVtOSF1bQ0BAXTEoW0NIM10pYzJbY0hdW2NIXVtjSF1uW2NIXTI=

> <s_epik_cmdline>
J2VwaWtfcHl0aG9uJywgJy1waCcsICc3LjAnLCAnLXRuJywgJzgnLCAnLW1hJywgJzIwMCcsICctbWV0YWxfYmluZGluZycsICctaW1hZScsICc8aW5maWxlLm1hZT4nLCAnLW9tYWUnLCAnPG91dGZpbGUubWFlPic=

> <r_lp_tautomer_probability>
1

> <r_epik_Ionization_Penalty>
0.0296909

> <r_epik_Ionization_Penalty_Charging>
0

> <r_epik_Ionization_Penalty_Neutral>
0.0296909

> <r_epik_State_Penalty>
0.022996

> <r_epik_Charging_Adjusted_Penalty>
0.022996

> <i_epik_Tot_Q>
0

> <i_epik_Tot_abs_Q>
0

> <r_epik_Metal_State_Penalty>
0.427807

> <b_epik_Metal_Only>
0

> <s_lp_Force_Field>
OPLS_2005

> <r_lp_Energy>
18.5111

> <b_lp_Chiralities_Consistent>
1

> <s_lp_Variant>
AV-unprocessed.smi:750-2

> <Gold.Version>
5.8.1

> <Gold.Id.Protein>
6NUR|6NUR_protein|mol2

> <Gold.PLP.Fitness>
31.6455

> <Gold.PLP.PLP>
-22.9784

> <Gold.PLP.part.hbond>
-3.6726

> <Gold.PLP.part.metal>
0.0000

> <Gold.PLP.part.buried>
-3.9205

> <Gold.PLP.part.nonpolar>
-16.9526

> <Gold.PLP.part.repulsive>
1.3805

> <Gold.PLP.ligand.clash>
0.0000

> <Gold.PLP.ligand.torsion>
0.1896

> <Gold.PLP.Chemscore.Hbond>
2.9760

> <Gold.PLP.Chemscore.CHOScore>
0.0000

> <Gold.PLP.Chemscore.Metal>
0.0000

> <Gold.Chemscore.Hbonds>
donor molecule, donor type, donor heavy atom, donor atom, acceptor molecule, acceptor atom, score
      L1  H     9    22       P1  7948  0.99
      L1  H    12    23       P1 10175  0.98
      P1  H  7954  7966       L1    11  0.99

> <Gold.PLP.Chemscore.Internal.Correction>
0.1182

> <Gold.Rescore>
     Score         DG    S(hbond)    S(metal)    S(lipo)     H(rot)  DE(clash)    DE(int)     intcor
     16.18     -16.48       2.80        0.00      35.89       1.00       0.23       0.07       ----

> <Gold.Chemscore.Fitness>
16.1838

> <Gold.Chemscore.DG>
-16.4835

> <Gold.Chemscore.ZeroCoef>
-5.4800

> <Gold.Chemscore.Hbond>
2.8037

> <Gold.Chemscore.Metal>
0.0000

> <Gold.Chemscore.Lipo>
35.8911

> <Gold.Chemscore.Internal_Hbond>
0.0000

> <Gold.Chemscore.DEClash>
0.2314

> <Gold.Chemscore.DEInternal>
0.0683

> <Gold.Chemscore.Rot>
1.0000

> <Gold.Chemscore.Internal.Correction>
   9.000000E+99

> <Gold.Chemscore.Hbonds>
donor molecule, donor type, donor heavy atom, donor atom, acceptor molecule, acceptor atom, score
      L1  H     9    22       P1  7948  0.92
      L1  H    12    23       P1 10175  0.93
      P1  H  7954  7966       L1    11  0.78

> <Gold.Chemscore.Hbond.Weighted>
-9.3643

> <Gold.Chemscore.Metal.Weighted>
-0.0000

> <Gold.Chemscore.Lipo.Weighted>
-4.1993

> <Gold.Chemscore.Internal_Hbond.Weighted>
0.0000

> <Gold.Chemscore.DEClash.Weighted>
0.2314

> <Gold.Chemscore.DEInternal.Weighted>
0.0683

> <Gold.Chemscore.Rot.Weighted>
2.5600

> <Gold.Chemscore.Internal.Correction.Weighted>
   9.000000E+99

> <Gold.Protein.RotatedTorsions>
[ 6907 6896 6895 6894 ] final  138.52 input  -60.11 | X-H torsion
[ 7974 7965 7964 7962 ] final  162.06 input  175.53 | X-H torsion
[ 8008 7997 7996 7995 ] final   30.97 input   59.86 | X-H torsion
[ 10167 10162 10161 10158 ] final  -15.82 input  -65.29 | X-H torsion
[ 10718 10713 10712 10709 ] final  -36.61 input   66.30 | X-H torsion
[ 10763 10752 10751 10750 ] final  135.95 input  -60.55 | X-H torsion
[ 11005 11000 10999 10996 ] final   25.24 input  -57.11 | X-H torsion

> <Gold.Protein.ActiveResidues>
 VAL166  LYS551  ARG553  GLY616  TRP617  ASP618  TYR619  PRO620  LYS621  CYS622 
 ASP623  PHE694  ASN695  SER759  ASP760  ASP761  ALA762  ILE779  LEU786  VAL792 
 PHE793  MET794  SER795  GLU796  ALA797  LYS798  CYS799  TRP800  GLU811  SER814 

> <Gold.Protein.RotatedAtoms>
  152.2657  133.5337  159.5408 H   0  0  0  0  0  0  0  0  0  0  0  0  # atno 6907 bound_to 6896
  150.7141  134.0768  159.3893 H   0  0  0  0  0  0  0  0  0  0  0  0  # atno 6908 bound_to 6896
  151.8684  135.0498  160.0527 H   0  0  0  0  0  0  0  0  0  0  0  0  # atno 6909 bound_to 6896
  144.7655  139.7986  143.6317 H   0  0  0  0  0  0  0  0  0  0  0  0  # atno 7974 bound_to 7965
  155.0989  140.3227  155.4552 H   0  0  0  0  0  0  0  0  0  0  0  0  # atno 8008 bound_to 7997
  156.2722  140.2064  156.6062 H   0  0  0  0  0  0  0  0  0  0  0  0  # atno 8009 bound_to 7997
  154.6844  140.0523  157.0287 H   0  0  0  0  0  0  0  0  0  0  0  0  # atno 8010 bound_to 7997
  140.7224  143.5179  150.9669 H   0  0  0  0  0  0  0  0  0  0  0  0  # atno 10167 bound_to 10162
  156.3248  130.4271  149.7926 H   0  0  0  0  0  0  0  0  0  0  0  0  # atno 10718 bound_to 10713
  153.8484  135.3082  155.3431 H   0  0  0  0  0  0  0  0  0  0  0  0  # atno 10763 bound_to 10752
  154.7902  135.4787  154.0038 H   0  0  0  0  0  0  0  0  0  0  0  0  # atno 10764 bound_to 10752
  153.1533  135.6847  153.8942 H   0  0  0  0  0  0  0  0  0  0  0  0  # atno 10765 bound_to 10752
  140.3499  134.2240  155.7681 H   0  0  0  0  0  0  0  0  0  0  0  0  # atno 11005 bound_to 11000
  146.1758  139.4929  142.9898 LP  0  0  0  0  0  0  0  0  0  0  0  0  # atno 17320 bound_to 7965
  145.6483  141.0269  143.1774 LP  0  0  0  0  0  0  0  0  0  0  0  0  # atno 17321 bound_to 7965
  139.8895  143.6971  152.3147 LP  0  0  0  0  0  0  0  0  0  0  0  0  # atno 17342 bound_to 10162
  139.7282  144.7588  151.0845 LP  0  0  0  0  0  0  0  0  0  0  0  0  # atno 17343 bound_to 10162
  156.5220  130.8219  151.3207 LP  0  0  0  0  0  0  0  0  0  0  0  0  # atno 17370 bound_to 10713
  157.7419  130.9879  150.2478 LP  0  0  0  0  0  0  0  0  0  0  0  0  # atno 17371 bound_to 10713
  141.2015  133.7961  157.0438 LP  0  0  0  0  0  0  0  0  0  0  0  0  # atno 17394 bound_to 11000
  140.0711  134.9701  157.1469 LP  0  0  0  0  0  0  0  0  0  0  0  0  # atno 17395 bound_to 11000

$$$$
