AV-unprocessed.smi:43|AV-procd|sdf|394|dock8
  -GOLD-   2262016253D 1   1.00000     0.00000
 Structure written by MMmdl.
 25 26  0  0  0  0  0  0  0  0  2 V2000
  149.5043  133.6937  156.0960 C   0  0  0  0  0  0  0  0  0  0  0  0
  149.4213  134.7576  157.0804 N   0  0  0  0  0  0  0  0  0  0  0  0
  149.3347  134.4378  158.3963 N   0  0  0  0  0  0  0  0  0  0  0  0
  149.2717  135.5561  159.0569 N   0  0  0  0  0  0  0  0  0  0  0  0
  149.3143  136.6417  158.2071 N   0  0  0  0  0  0  0  0  0  0  0  0
  149.4103  136.1019  156.9969 C   0  0  0  0  0  0  0  0  0  0  0  0
  149.4781  136.8232  155.7961 N   0  0  0  0  0  0  0  0  0  0  0  0
  149.8410  138.2265  155.5811 C   0  0  0  0  0  0  0  0  0  0  0  0
  149.6168  138.5643  154.1068 C   0  0  1  0  0  0  0  0  0  0  0  0
  150.5051  139.5571  153.6375 O   0  0  0  0  0  0  0  0  0  0  0  0
  149.8281  137.2231  153.4337 C   0  0  0  0  0  0  0  0  0  0  0  0
  149.2465  136.2494  154.4642 C   0  0  2  0  0  0  0  0  0  0  0  0
  147.7553  135.9580  154.2168 C   0  0  0  0  0  0  0  0  0  0  0  0
  146.9668  136.2388  155.1453 O   0  0  0  0  0  0  0  0  0  0  0  0
  147.4271  135.4592  153.1167 O   0  5  0  0  0  0  0  0  0  0  0  0
  148.5906  138.8998  153.9513 H   0  0  0  0  0  0  0  0  0  0  0  0
  149.7848  135.3030  154.3938 H   0  0  0  0  0  0  0  0  0  0  0  0
  150.4718  133.7278  155.5956 H   0  0  0  0  0  0  0  0  0  0  0  0
  148.7045  133.7985  155.3638 H   0  0  0  0  0  0  0  0  0  0  0  0
  149.4014  132.7204  156.5777 H   0  0  0  0  0  0  0  0  0  0  0  0
  149.2511  138.8943  156.2073 H   0  0  0  0  0  0  0  0  0  0  0  0
  150.8917  138.3481  155.8469 H   0  0  0  0  0  0  0  0  0  0  0  0
  150.2820  139.7576  152.7416 H   0  0  0  0  0  0  0  0  0  0  0  0
  149.3560  137.1622  152.4521 H   0  0  0  0  0  0  0  0  0  0  0  0
  150.8928  137.0229  153.3050 H   0  0  0  0  0  0  0  0  0  0  0  0
  1  2  1  0  0  0  0
  1 18  1  0  0  0  0
  1 19  1  0  0  0  0
  1 20  1  0  0  0  0
  2  6  1  0  0  0  0
  2  3  1  0  0  0  0
  3  4  2  0  0  0  0
  4  5  1  0  0  0  0
  5  6  2  0  0  0  0
  6  7  1  0  0  0  0
  7 12  1  0  0  0  0
  7  8  1  0  0  0  0
  8  9  1  0  0  0  0
  8 21  1  0  0  0  0
  8 22  1  0  0  0  0
  9 16  1  0  0  0  0
  9 10  1  0  0  0  0
  9 11  1  0  0  0  0
 10 23  1  0  0  0  0
 11 12  1  0  0  0  0
 11 24  1  0  0  0  0
 11 25  1  0  0  0  0
 12 17  1  0  0  0  0
 12 13  1  0  0  0  0
 13 14  2  0  0  0  0
 13 15  1  0  0  0  0
M  CHG  1  15  -1
M  END
> <s_m_source_file>
AV-unprocessed.smi

> <i_m_source_file_index>
43

> <i_lp_mmshare_version>
43012

> <i_f3d_flags>
0

> <s_epik_input>
W0NIM11uMW5ubmMxTjJbQ0gyXVtDQEhdKFtPSF0pW0NIMl1bQ0BIXTJDKD1PKVtPSF0=

> <s_epik_cmdline>
J2VwaWtfcHl0aG9uJywgJy1waCcsICc3LjAnLCAnLXRuJywgJzgnLCAnLW1hJywgJzIwMCcsICctbWV0YWxfYmluZGluZycsICctaW1hZScsICc8aW5maWxlLm1hZT4nLCAnLW9tYWUnLCAnPG91dGZpbGUubWFlPic=

> <r_lp_tautomer_probability>
1

> <r_epik_Ionization_Penalty>
0.000193127

> <r_epik_Ionization_Penalty_Charging>
0.000192933

> <r_epik_Ionization_Penalty_Neutral>
1.93728e-07

> <r_epik_State_Penalty>
-0

> <r_epik_Charging_Adjusted_Penalty>
0.000192933

> <i_epik_Tot_Q>
-1

> <i_epik_Tot_abs_Q>
1

> <r_epik_Metal_State_Penalty>
-0

> <b_epik_Metal_Only>
0

> <s_lp_Force_Field>
OPLS_2005

> <r_lp_Energy>
20.0951

> <b_lp_Chiralities_Consistent>
1

> <s_lp_Variant>
AV-unprocessed.smi:43-4

> <Gold.Version>
5.8.1

> <Gold.Id.Protein>
6NUR|6NUR_protein|mol2

> <Gold.PLP.Fitness>
37.3319

> <Gold.PLP.PLP>
-20.7071

> <Gold.PLP.part.hbond>
-5.2626

> <Gold.PLP.part.metal>
0.0000

> <Gold.PLP.part.buried>
-3.1136

> <Gold.PLP.part.nonpolar>
-12.0235

> <Gold.PLP.part.repulsive>
0.0166

> <Gold.PLP.ligand.clash>
0.0000

> <Gold.PLP.ligand.torsion>
0.1376

> <Gold.PLP.Chemscore.Hbond>
5.6320

> <Gold.PLP.Chemscore.CHOScore>
0.0000

> <Gold.PLP.Chemscore.Metal>
0.0000

> <Gold.Chemscore.Hbonds>
donor molecule, donor type, donor heavy atom, donor atom, acceptor molecule, acceptor atom, score
      L1  H    10    23       P1  7957  1.00
      P1  H  7989  7998       L1    10  0.18

> <Gold.PLP.Chemscore.Internal.Correction>
0.0041

> <Gold.Rescore>
     Score         DG    S(hbond)    S(metal)    S(lipo)     H(rot)  DE(clash)    DE(int)     intcor
     15.07     -15.50       3.39        0.00      25.72       1.69       0.02       0.41       ----

> <Gold.Chemscore.Fitness>
15.0710

> <Gold.Chemscore.DG>
-15.4967

> <Gold.Chemscore.ZeroCoef>
-5.4800

> <Gold.Chemscore.Hbond>
3.3926

> <Gold.Chemscore.Metal>
0.0000

> <Gold.Chemscore.Lipo>
25.7153

> <Gold.Chemscore.Internal_Hbond>
0.0000

> <Gold.Chemscore.DEClash>
0.0180

> <Gold.Chemscore.DEInternal>
0.4077

> <Gold.Chemscore.Rot>
1.6887

> <Gold.Chemscore.Internal.Correction>
   9.000000E+99

> <Gold.Chemscore.Hbonds>
donor molecule, donor type, donor heavy atom, donor atom, acceptor molecule, acceptor atom, score
      L1  H    10    23       P1  7957  0.96

> <Gold.Chemscore.Hbond.Weighted>
-11.3311

> <Gold.Chemscore.Metal.Weighted>
-0.0000

> <Gold.Chemscore.Lipo.Weighted>
-3.0087

> <Gold.Chemscore.Internal_Hbond.Weighted>
0.0000

> <Gold.Chemscore.DEClash.Weighted>
0.0180

> <Gold.Chemscore.DEInternal.Weighted>
0.4077

> <Gold.Chemscore.Rot.Weighted>
4.3232

> <Gold.Chemscore.Internal.Correction.Weighted>
   9.000000E+99

> <Gold.Protein.RotatedTorsions>
[ 6907 6896 6895 6894 ] final  176.33 input  -60.11 | X-H torsion
[ 7974 7965 7964 7962 ] final  -40.65 input  175.53 | X-H torsion
[ 8008 7997 7996 7995 ] final  -31.56 input   59.86 | X-H torsion
[ 10167 10162 10161 10158 ] final   34.16 input  -65.29 | X-H torsion
[ 10718 10713 10712 10709 ] final -156.29 input   66.30 | X-H torsion
[ 10763 10752 10751 10750 ] final  -34.70 input  -60.55 | X-H torsion
[ 11005 11000 10999 10996 ] final   21.96 input  -57.11 | X-H torsion

> <Gold.Protein.ActiveResidues>
 VAL166  LYS551  ARG553  GLY616  TRP617  ASP618  TYR619  PRO620  LYS621  CYS622 
 ASP623  PHE694  ASN695  SER759  ASP760  ASP761  ALA762  ILE779  LEU786  VAL792 
 PHE793  MET794  SER795  GLU796  ALA797  LYS798  CYS799  TRP800  GLU811  SER814 

> <Gold.Protein.RotatedAtoms>
  151.7218  133.3315  159.3317 H   0  0  0  0  0  0  0  0  0  0  0  0  # atno 6907 bound_to 6896
  150.7649  134.6441  159.6262 H   0  0  0  0  0  0  0  0  0  0  0  0  # atno 6908 bound_to 6896
  152.3647  134.6824  160.0247 H   0  0  0  0  0  0  0  0  0  0  0  0  # atno 6909 bound_to 6896
  146.0284  140.6762  142.9144 H   0  0  0  0  0  0  0  0  0  0  0  0  # atno 7974 bound_to 7965
  154.4209  140.1761  156.1587 H   0  0  0  0  0  0  0  0  0  0  0  0  # atno 8008 bound_to 7997
  155.9856  140.3373  155.6680 H   0  0  0  0  0  0  0  0  0  0  0  0  # atno 8009 bound_to 7997
  155.6442  140.0683  157.2599 H   0  0  0  0  0  0  0  0  0  0  0  0  # atno 8010 bound_to 7997
  140.4341  144.1282  150.6163 H   0  0  0  0  0  0  0  0  0  0  0  0  # atno 10167 bound_to 10162
  156.5244  130.8493  151.2694 H   0  0  0  0  0  0  0  0  0  0  0  0  # atno 10718 bound_to 10713
  153.8510  135.6849  153.4792 H   0  0  0  0  0  0  0  0  0  0  0  0  # atno 10763 bound_to 10752
  153.1397  135.4662  154.9475 H   0  0  0  0  0  0  0  0  0  0  0  0  # atno 10764 bound_to 10752
  154.7802  135.3266  154.7953 H   0  0  0  0  0  0  0  0  0  0  0  0  # atno 10765 bound_to 10752
  140.3858  134.1872  155.7663 H   0  0  0  0  0  0  0  0  0  0  0  0  # atno 11005 bound_to 11000
  144.7020  140.3692  143.7148 LP  0  0  0  0  0  0  0  0  0  0  0  0  # atno 17320 bound_to 7965
  145.7080  139.1677  143.2555 LP  0  0  0  0  0  0  0  0  0  0  0  0  # atno 17321 bound_to 7965
  140.4394  143.2533  151.9493 LP  0  0  0  0  0  0  0  0  0  0  0  0  # atno 17342 bound_to 10162
  139.4786  144.5669  151.8151 LP  0  0  0  0  0  0  0  0  0  0  0  0  # atno 17343 bound_to 10162
  157.7432  130.9906  150.2572 LP  0  0  0  0  0  0  0  0  0  0  0  0  # atno 17370 bound_to 10713
  156.3118  130.3773  149.7654 LP  0  0  0  0  0  0  0  0  0  0  0  0  # atno 17371 bound_to 10713
  141.1908  133.8209  157.0905 LP  0  0  0  0  0  0  0  0  0  0  0  0  # atno 17394 bound_to 11000
  140.0444  134.9838  157.1021 LP  0  0  0  0  0  0  0  0  0  0  0  0  # atno 17395 bound_to 11000

$$$$
