AV-unprocessed.smi:281|AV-procd|sdf|2102|dock10
  -GOLD-   2262021393D 1   1.00000     0.00000
 Structure written by MMmdl.
 55 59  0  0  0  0  0  0  0  0  1 V2000
  148.5459  141.9442  154.0918 C   0  0  0  0  0  0  0  0  0  0  0  0
  148.8668  140.6517  154.8484 C   0  0  1  0  0  0  0  0  0  0  0  0
  148.0314  139.4650  154.3465 C   0  0  0  0  0  0  0  0  0  0  0  0
  148.4361  138.2602  155.0537 N   0  0  0  0  0  0  0  0  0  0  0  0
  147.6449  137.1871  154.8488 C   0  0  0  0  0  0  0  0  0  0  0  0
  147.9838  136.0428  155.4908 N   0  0  0  0  0  0  0  0  0  0  0  0
  147.2413  134.9430  155.3312 C   0  0  0  0  0  0  0  0  0  0  0  0
  146.1450  134.7757  154.5881 N   0  0  0  0  0  0  0  0  0  0  0  0
  145.8092  135.9241  153.9324 C   0  0  0  0  0  0  0  0  0  0  0  0
  146.4993  137.1668  154.0040 C   0  0  0  0  0  0  0  0  0  0  0  0
  145.8689  138.1061  153.1968 N   0  0  0  0  0  0  0  0  0  0  0  0
  144.8591  137.4576  152.6838 C   0  0  0  0  0  0  0  0  0  0  0  0
  144.7500  136.1401  153.0682 N   0  0  0  0  0  0  0  0  0  0  0  0
  143.7263  135.1940  152.6514 C   0  0  0  0  0  0  0  0  0  0  0  0
  144.2977  133.8317  152.1950 C   0  0  1  0  0  0  0  0  0  0  0  0
  144.7536  133.1197  153.3327 O   0  0  0  0  0  0  0  0  0  0  0  0
  143.3008  132.9563  151.4417 C   0  0  0  0  0  0  0  0  0  0  0  0
  144.1915  132.1766  150.4850 C   0  0  0  0  0  0  0  0  0  0  0  0
  145.1364  133.1515  150.0775 O   0  0  0  0  0  0  0  0  0  0  0  0
  145.4689  133.9615  151.2010 C   0  0  0  0  0  0  0  0  0  0  0  0
  149.8540  137.9722  154.8988 C   0  0  0  0  0  0  0  0  0  0  0  0
  150.7168  139.1841  155.3336 C   0  0  2  0  0  0  0  0  0  0  0  0
  152.1732  138.9606  154.9598 C   0  0  0  0  0  0  0  0  0  0  0  0
  152.6928  138.1099  156.1136 C   0  0  0  0  0  0  0  0  0  0  0  0
  151.9172  138.4815  157.2486 O   0  0  0  0  0  0  0  0  0  0  0  0
  150.8319  139.3267  156.8689 C   0  0  1  0  0  0  0  0  0  0  0  0
  151.2015  140.7373  157.3670 C   0  0  0  0  0  0  0  0  0  0  0  0
  150.2554  140.3654  154.6682 O   0  0  0  0  0  0  0  0  0  0  0  0
  147.4954  142.2138  154.2028 H   0  0  0  0  0  0  0  0  0  0  0  0
  148.7551  141.8396  153.0269 H   0  0  0  0  0  0  0  0  0  0  0  0
  149.1439  142.7737  154.4693 H   0  0  0  0  0  0  0  0  0  0  0  0
  148.6542  140.8093  155.9059 H   0  0  0  0  0  0  0  0  0  0  0  0
  146.9697  139.6535  154.5122 H   0  0  0  0  0  0  0  0  0  0  0  0
  148.1767  139.3389  153.2732 H   0  0  0  0  0  0  0  0  0  0  0  0
  147.5734  134.0722  155.8771 H   0  0  0  0  0  0  0  0  0  0  0  0
  144.1629  137.9242  152.0020 H   0  0  0  0  0  0  0  0  0  0  0  0
  143.0363  135.0503  153.4839 H   0  0  0  0  0  0  0  0  0  0  0  0
  143.1440  135.6491  151.8491 H   0  0  0  0  0  0  0  0  0  0  0  0
  144.0045  132.7432  153.7691 H   0  0  0  0  0  0  0  0  0  0  0  0
  142.6957  132.3187  152.0876 H   0  0  0  0  0  0  0  0  0  0  0  0
  142.6212  133.5767  150.8565 H   0  0  0  0  0  0  0  0  0  0  0  0
  144.7007  131.3594  150.9981 H   0  0  0  0  0  0  0  0  0  0  0  0
  143.6438  131.7663  149.6364 H   0  0  0  0  0  0  0  0  0  0  0  0
  145.6137  134.9883  150.8640 H   0  0  0  0  0  0  0  0  0  0  0  0
  146.4139  133.6247  151.6306 H   0  0  0  0  0  0  0  0  0  0  0  0
  150.1167  137.0854  155.4774 H   0  0  0  0  0  0  0  0  0  0  0  0
  150.0493  137.7364  153.8516 H   0  0  0  0  0  0  0  0  0  0  0  0
  152.3083  138.4877  153.9867 H   0  0  0  0  0  0  0  0  0  0  0  0
  152.7071  139.9115  154.9378 H   0  0  0  0  0  0  0  0  0  0  0  0
  152.5324  137.0502  155.9129 H   0  0  0  0  0  0  0  0  0  0  0  0
  153.7572  138.2617  156.2930 H   0  0  0  0  0  0  0  0  0  0  0  0
  149.9179  139.0029  157.3678 H   0  0  0  0  0  0  0  0  0  0  0  0
  150.4267  141.4683  157.1420 H   0  0  0  0  0  0  0  0  0  0  0  0
  152.1299  141.0938  156.9215 H   0  0  0  0  0  0  0  0  0  0  0  0
  151.3379  140.7371  158.4486 H   0  0  0  0  0  0  0  0  0  0  0  0
  1  2  1  0  0  0  0
  1 29  1  0  0  0  0
  1 30  1  0  0  0  0
  1 31  1  0  0  0  0
  2 28  1  0  0  0  0
  2  3  1  0  0  0  0
  2 32  1  0  0  0  0
  3  4  1  0  0  0  0
  3 33  1  0  0  0  0
  3 34  1  0  0  0  0
  4  5  1  0  0  0  0
  4 21  1  0  0  0  0
  5 10  1  0  0  0  0
  5  6  2  0  0  0  0
  6  7  1  0  0  0  0
  7  8  2  0  0  0  0
  7 35  1  0  0  0  0
  8  9  1  0  0  0  0
  9 13  1  0  0  0  0
  9 10  2  0  0  0  0
 10 11  1  0  0  0  0
 11 12  2  0  0  0  0
 12 13  1  0  0  0  0
 12 36  1  0  0  0  0
 13 14  1  0  0  0  0
 14 15  1  0  0  0  0
 14 37  1  0  0  0  0
 14 38  1  0  0  0  0
 15 20  1  0  0  0  0
 15 16  1  0  0  0  0
 15 17  1  0  0  0  0
 16 39  1  0  0  0  0
 17 18  1  0  0  0  0
 17 40  1  0  0  0  0
 17 41  1  0  0  0  0
 18 19  1  0  0  0  0
 18 42  1  0  0  0  0
 18 43  1  0  0  0  0
 19 20  1  0  0  0  0
 20 44  1  0  0  0  0
 20 45  1  0  0  0  0
 21 22  1  0  0  0  0
 21 46  1  0  0  0  0
 21 47  1  0  0  0  0
 22 26  1  0  0  0  0
 22 23  1  0  0  0  0
 22 28  1  0  0  0  0
 23 24  1  0  0  0  0
 23 48  1  0  0  0  0
 23 49  1  0  0  0  0
 24 25  1  0  0  0  0
 24 50  1  0  0  0  0
 24 51  1  0  0  0  0
 25 26  1  0  0  0  0
 26 27  1  0  0  0  0
 26 52  1  0  0  0  0
 27 53  1  0  0  0  0
 27 54  1  0  0  0  0
 27 55  1  0  0  0  0
M  END
> <s_m_source_file>
AV-unprocessed.smi

> <i_m_source_file_index>
281

> <i_lp_mmshare_version>
43012

> <i_f3d_flags>
0

> <s_epik_input>
W0NIM11bQ0BASF0xT1tDSDJdW0NIMl1bQ0BAXTEyW0NIMl1OKFtDSDJdW0NASF0oTzIpW0NIM10pYyhuW2NIXW4zKWMoYzM0KW5bY0hdbjRbQ0gyXVtDQEBdNShbT0hdKVtDSDJdW0NIMl1PW0NIMl01

> <s_epik_cmdline>
J2VwaWtfcHl0aG9uJywgJy1waCcsICc3LjAnLCAnLXRuJywgJzgnLCAnLW1hJywgJzIwMCcsICctbWV0YWxfYmluZGluZycsICctaW1hZScsICc8aW5maWxlLm1hZT4nLCAnLW9tYWUnLCAnPG91dGZpbGUubWFlPic=

> <r_lp_tautomer_probability>
1

> <r_epik_Ionization_Penalty>
0.00571331

> <r_epik_Ionization_Penalty_Charging>
0

> <r_epik_Ionization_Penalty_Neutral>
0.00571331

> <r_epik_State_Penalty>
0.00399586

> <r_epik_Charging_Adjusted_Penalty>
0.00399586

> <i_epik_Tot_Q>
0

> <i_epik_Tot_abs_Q>
0

> <r_epik_Metal_State_Penalty>
-0

> <b_epik_Metal_Only>
0

> <s_lp_Force_Field>
OPLS_2005

> <r_lp_Energy>
56.2514

> <b_lp_Chiralities_Consistent>
1

> <s_lp_Variant>
AV-unprocessed.smi:281-2

> <Gold.Version>
5.8.1

> <Gold.Id.Protein>
6NUR|6NUR_protein|mol2

> <Gold.PLP.Fitness>
44.1699

> <Gold.PLP.PLP>
-33.3961

> <Gold.PLP.part.hbond>
-2.0000

> <Gold.PLP.part.metal>
0.0000

> <Gold.PLP.part.buried>
-2.5789

> <Gold.PLP.part.nonpolar>
-29.8619

> <Gold.PLP.part.repulsive>
1.8315

> <Gold.PLP.ligand.clash>
0.0000

> <Gold.PLP.ligand.torsion>
0.3633

> <Gold.PLP.Chemscore.Hbond>
1.9913

> <Gold.PLP.Chemscore.CHOScore>
1.7965

> <Gold.PLP.Chemscore.Metal>
0.0000

> <Gold.Chemscore.Hbonds>
donor molecule, donor type, donor heavy atom, donor atom, acceptor molecule, acceptor atom, score
      L1  H    16    39       P1 10957  1.00
      P1  H  7989  7998       L1    28  1.00
      L1  C    12    36       P1 10171  1.00
      L1  C    12    36       P1 10175  0.60

> <Gold.PLP.Chemscore.Internal.Correction>
0.1370

> <Gold.Rescore>
     Score         DG    S(hbond)    S(metal)    S(lipo)     H(rot)  DE(clash)    DE(int)     intcor
     13.63     -17.10       1.96        0.00      89.23       2.09       1.50       1.97       ----

> <Gold.Chemscore.Fitness>
13.6270

> <Gold.Chemscore.DG>
-17.0999

> <Gold.Chemscore.ZeroCoef>
-5.4800

> <Gold.Chemscore.Hbond>
1.9573

> <Gold.Chemscore.Metal>
0.0000

> <Gold.Chemscore.Lipo>
89.2282

> <Gold.Chemscore.Internal_Hbond>
0.0000

> <Gold.Chemscore.DEClash>
1.4984

> <Gold.Chemscore.DEInternal>
1.9745

> <Gold.Chemscore.Rot>
2.0927

> <Gold.Chemscore.Internal.Correction>
   9.000000E+99

> <Gold.Chemscore.Hbonds>
donor molecule, donor type, donor heavy atom, donor atom, acceptor molecule, acceptor atom, score
      L1  H    16    39       P1 10957  0.74
      P1  H  7989  7998       L1    28  0.58

> <Gold.Chemscore.Hbond.Weighted>
-6.5375

> <Gold.Chemscore.Metal.Weighted>
-0.0000

> <Gold.Chemscore.Lipo.Weighted>
-10.4397

> <Gold.Chemscore.Internal_Hbond.Weighted>
0.0000

> <Gold.Chemscore.DEClash.Weighted>
1.4984

> <Gold.Chemscore.DEInternal.Weighted>
1.9745

> <Gold.Chemscore.Rot.Weighted>
5.3573

> <Gold.Chemscore.Internal.Correction.Weighted>
   9.000000E+99

> <Gold.Protein.RotatedTorsions>
[ 6907 6896 6895 6894 ] final  163.47 input  -60.11 | X-H torsion
[ 7974 7965 7964 7962 ] final  -99.04 input  175.53 | X-H torsion
[ 8008 7997 7996 7995 ] final  162.66 input   59.86 | X-H torsion
[ 10167 10162 10161 10158 ] final  -12.01 input  -65.29 | X-H torsion
[ 10718 10713 10712 10709 ] final   91.89 input   66.30 | X-H torsion
[ 10763 10752 10751 10750 ] final -177.54 input  -60.55 | X-H torsion
[ 11005 11000 10999 10996 ] final  -66.96 input  -57.11 | X-H torsion

> <Gold.Protein.ActiveResidues>
 VAL166  LYS551  ARG553  GLY616  TRP617  ASP618  TYR619  PRO620  LYS621  CYS622 
 ASP623  PHE694  ASN695  SER759  ASP760  ASP761  ALA762  ILE779  LEU786  VAL792 
 PHE793  MET794  SER795  GLU796  ALA797  LYS798  CYS799  TRP800  GLU811  SER814 

> <Gold.Protein.RotatedAtoms>
  151.9247  133.3595  159.3909 H   0  0  0  0  0  0  0  0  0  0  0  0  # atno 6907 bound_to 6896
  150.7029  134.4599  159.5385 H   0  0  0  0  0  0  0  0  0  0  0  0  # atno 6908 bound_to 6896
  152.2229  134.8396  160.0534 H   0  0  0  0  0  0  0  0  0  0  0  0  # atno 6909 bound_to 6896
  145.3128  140.9404  143.2760 H   0  0  0  0  0  0  0  0  0  0  0  0  # atno 7974 bound_to 7965
  156.2015  140.1744  156.7890 H   0  0  0  0  0  0  0  0  0  0  0  0  # atno 8008 bound_to 7997
  154.5597  140.0702  156.8831 H   0  0  0  0  0  0  0  0  0  0  0  0  # atno 8009 bound_to 7997
  155.2871  140.3353  155.4257 H   0  0  0  0  0  0  0  0  0  0  0  0  # atno 8010 bound_to 7997
  140.7152  143.5578  150.9229 H   0  0  0  0  0  0  0  0  0  0  0  0  # atno 10167 bound_to 10162
  157.6959  131.0423  150.3798 H   0  0  0  0  0  0  0  0  0  0  0  0  # atno 10718 bound_to 10713
  154.5589  135.2818  155.0938 H   0  0  0  0  0  0  0  0  0  0  0  0  # atno 10763 bound_to 10752
  154.2355  135.6366  153.5193 H   0  0  0  0  0  0  0  0  0  0  0  0  # atno 10764 bound_to 10752
  153.0023  135.5547  154.6177 H   0  0  0  0  0  0  0  0  0  0  0  0  # atno 10765 bound_to 10752
  141.1496  133.6709  156.6219 H   0  0  0  0  0  0  0  0  0  0  0  0  # atno 11005 bound_to 11000
  144.9002  139.4659  143.6636 LP  0  0  0  0  0  0  0  0  0  0  0  0  # atno 17320 bound_to 7965
  146.3111  139.7751  142.9019 LP  0  0  0  0  0  0  0  0  0  0  0  0  # atno 17321 bound_to 7965
  139.9303  143.6501  152.3078 LP  0  0  0  0  0  0  0  0  0  0  0  0  # atno 17342 bound_to 10162
  139.6950  144.7642  151.1373 LP  0  0  0  0  0  0  0  0  0  0  0  0  # atno 17343 bound_to 10162
  156.4213  130.3953  149.6823 LP  0  0  0  0  0  0  0  0  0  0  0  0  # atno 17370 bound_to 10713
  156.4073  130.7704  151.2715 LP  0  0  0  0  0  0  0  0  0  0  0  0  # atno 17371 bound_to 10713
  140.3534  134.7749  157.4483 LP  0  0  0  0  0  0  0  0  0  0  0  0  # atno 17394 bound_to 11000
  140.0843  134.5689  155.8509 LP  0  0  0  0  0  0  0  0  0  0  0  0  # atno 17395 bound_to 11000

$$$$
