AV-unprocessed.smi:1622|AV-procd|sdf|6498|dock4
  -GOLD-   22720 7163D 1   1.00000     0.00000
 Structure written by MMmdl.
 41 42  0  0  0  0  0  0  0  0  2 V2000
  146.6407  138.9556  151.5346 C   0  0  0  0  0  0  0  0  0  0  0  0
  145.7257  137.7396  151.3252 C   0  0  0  0  0  0  0  0  0  0  0  0
  145.6526  136.7719  152.5377 C   0  0  1  0  0  0  0  0  0  0  0  0
  144.1875  136.4803  152.9691 C   0  0  0  0  0  0  0  0  0  0  0  0
  143.4338  137.6878  153.3052 N   0  0  0  0  0  0  0  0  0  0  0  0
  142.3286  137.7328  154.0625 C   0  0  0  0  0  0  0  0  0  0  0  0
  141.8189  136.7393  154.5787 O   0  0  0  0  0  0  0  0  0  0  0  0
  141.8723  138.9900  154.1796 N   0  0  0  0  0  0  0  0  0  0  0  0
  140.7303  139.4398  154.8883 C   0  0  0  0  0  0  0  0  0  0  0  0
  140.7542  140.6741  155.3984 N   0  0  0  0  0  0  0  0  0  0  0  0
  139.5734  140.9845  156.0597 N   0  0  0  0  0  0  0  0  0  0  0  0
  138.6923  139.9764  156.0312 C   0  0  0  0  0  0  0  0  0  0  0  0
  137.3458  140.0637  156.6641 C   0  0  0  0  0  0  0  0  0  0  0  0
  139.2426  138.5387  155.1799 S   0  0  0  0  0  0  0  0  0  0  0  0
  146.3916  135.4991  152.2745 N   0  3  0  0  0  0  0  0  0  0  0  0
  146.7069  134.6663  153.4559 C   0  0  0  0  0  0  0  0  0  0  0  0
  146.9920  133.2779  152.8959 C   0  0  0  0  0  0  0  0  0  0  0  0
  145.9911  133.1547  151.7535 C   0  0  0  0  0  0  0  0  0  0  0  0
  145.7540  134.5958  151.2817 C   0  0  0  0  0  0  0  0  0  0  0  0
  146.7346  139.5262  150.6106 H   0  0  0  0  0  0  0  0  0  0  0  0
  147.6428  138.6484  151.8348 H   0  0  0  0  0  0  0  0  0  0  0  0
  146.2551  139.6370  152.2912 H   0  0  0  0  0  0  0  0  0  0  0  0
  144.7269  138.0748  151.0453 H   0  0  0  0  0  0  0  0  0  0  0  0
  146.1183  137.2180  150.4533 H   0  0  0  0  0  0  0  0  0  0  0  0
  146.1521  137.2669  153.3722 H   0  0  0  0  0  0  0  0  0  0  0  0
  143.6540  135.9966  152.1511 H   0  0  0  0  0  0  0  0  0  0  0  0
  144.1457  135.7559  153.7822 H   0  0  0  0  0  0  0  0  0  0  0  0
  143.7696  138.5555  152.9129 H   0  0  0  0  0  0  0  0  0  0  0  0
  142.3956  139.7098  153.7035 H   0  0  0  0  0  0  0  0  0  0  0  0
  137.3343  140.8332  157.4365 H   0  0  0  0  0  0  0  0  0  0  0  0
  137.0828  139.1090  157.1198 H   0  0  0  0  0  0  0  0  0  0  0  0
  136.5973  140.3108  155.9112 H   0  0  0  0  0  0  0  0  0  0  0  0
  147.5572  135.0550  154.0169 H   0  0  0  0  0  0  0  0  0  0  0  0
  145.8428  134.6267  154.1214 H   0  0  0  0  0  0  0  0  0  0  0  0
  148.0092  133.2384  152.5037 H   0  0  0  0  0  0  0  0  0  0  0  0
  146.8871  132.4890  153.6414 H   0  0  0  0  0  0  0  0  0  0  0  0
  146.3517  132.5059  150.9543 H   0  0  0  0  0  0  0  0  0  0  0  0
  145.0570  132.7321  152.1268 H   0  0  0  0  0  0  0  0  0  0  0  0
  144.6816  134.7791  151.2011 H   0  0  0  0  0  0  0  0  0  0  0  0
  146.1956  134.7700  150.3000 H   0  0  0  0  0  0  0  0  0  0  0  0
  147.2850  135.7576  151.8803 H   0  0  0  0  0  0  0  0  0  0  0  0
  1  2  1  0  0  0  0
  1 20  1  0  0  0  0
  1 21  1  0  0  0  0
  1 22  1  0  0  0  0
  2  3  1  0  0  0  0
  2 23  1  0  0  0  0
  2 24  1  0  0  0  0
  3  4  1  0  0  0  0
  3 15  1  0  0  0  0
  3 25  1  0  0  0  0
  4  5  1  0  0  0  0
  4 26  1  0  0  0  0
  4 27  1  0  0  0  0
  5  6  1  0  0  0  0
  5 28  1  0  0  0  0
  6  7  2  0  0  0  0
  6  8  1  0  0  0  0
  8  9  1  0  0  0  0
  8 29  1  0  0  0  0
  9 14  1  0  0  0  0
  9 10  2  0  0  0  0
 10 11  1  0  0  0  0
 11 12  2  0  0  0  0
 12 13  1  0  0  0  0
 12 14  1  0  0  0  0
 13 30  1  0  0  0  0
 13 31  1  0  0  0  0
 13 32  1  0  0  0  0
 15 19  1  0  0  0  0
 15 16  1  0  0  0  0
 15 41  1  0  0  0  0
 16 17  1  0  0  0  0
 16 33  1  0  0  0  0
 16 34  1  0  0  0  0
 17 18  1  0  0  0  0
 17 35  1  0  0  0  0
 17 36  1  0  0  0  0
 18 19  1  0  0  0  0
 18 37  1  0  0  0  0
 18 38  1  0  0  0  0
 19 39  1  0  0  0  0
 19 40  1  0  0  0  0
M  CHG  1  15   1
M  END
> <s_m_source_file>
AV-unprocessed.smi

> <i_m_source_file_index>
1622

> <i_lp_mmshare_version>
43012

> <i_f3d_flags>
0

> <s_epik_input>
W0NIMl0xW0NIMl1bQ0gyXVtDSDJdTjFbQ0BIXShbQ0gyXVtDSDNdKVtDSDJdW05IXUMoPU8pW05IXWMybm5jKHMyKVtDSDNd

> <s_epik_cmdline>
J2VwaWtfcHl0aG9uJywgJy1waCcsICc3LjAnLCAnLXRuJywgJzgnLCAnLW1hJywgJzIwMCcsICctbWV0YWxfYmluZGluZycsICctaW1hZScsICc8aW5maWxlLm1hZT4nLCAnLW9tYWUnLCAnPG91dGZpbGUubWFlPic=

> <r_lp_tautomer_probability>
1

> <r_epik_Ionization_Penalty>
0.00164835

> <r_epik_Ionization_Penalty_Charging>
0.00115997

> <r_epik_Ionization_Penalty_Neutral>
0.00048838

> <r_epik_State_Penalty>
-0

> <r_epik_Charging_Adjusted_Penalty>
0.00115997

> <i_epik_Tot_Q>
1

> <i_epik_Tot_abs_Q>
1

> <r_epik_Metal_State_Penalty>
0.216651

> <b_epik_Metal_Only>
0

> <s_lp_Force_Field>
OPLS_2005

> <r_lp_Energy>
37.4677

> <b_lp_Chiralities_Consistent>
1

> <s_lp_Variant>
AV-unprocessed.smi:1622-2

> <Gold.Version>
5.8.1

> <Gold.Id.Protein>
6NUR|6NUR_protein|mol2

> <Gold.PLP.Fitness>
39.6316

> <Gold.PLP.PLP>
-29.8519

> <Gold.PLP.part.hbond>
-5.0000

> <Gold.PLP.part.metal>
0.0000

> <Gold.PLP.part.buried>
2.0163

> <Gold.PLP.part.nonpolar>
-28.0609

> <Gold.PLP.part.repulsive>
0.5316

> <Gold.PLP.ligand.clash>
0.0000

> <Gold.PLP.ligand.torsion>
1.1565

> <Gold.PLP.Chemscore.Hbond>
3.9760

> <Gold.PLP.Chemscore.CHOScore>
0.0000

> <Gold.PLP.Chemscore.Metal>
0.0000

> <Gold.Chemscore.Hbonds>
donor molecule, donor type, donor heavy atom, donor atom, acceptor molecule, acceptor atom, score
      L1  H     5    28       P1 10175  1.00
      L1  H     8    29       P1 10175  1.00
      L1  H    15    41       P1  7948  2.00

> <Gold.PLP.Chemscore.Internal.Correction>
0.1646

> <Gold.Rescore>
     Score         DG    S(hbond)    S(metal)    S(lipo)     H(rot)  DE(clash)    DE(int)     intcor
     15.70     -18.15       2.87        0.00      65.22       1.77       1.41       1.04       ----

> <Gold.Chemscore.Fitness>
15.6978

> <Gold.Chemscore.DG>
-18.1506

> <Gold.Chemscore.ZeroCoef>
-5.4800

> <Gold.Chemscore.Hbond>
2.8687

> <Gold.Chemscore.Metal>
0.0000

> <Gold.Chemscore.Lipo>
65.2151

> <Gold.Chemscore.Internal_Hbond>
0.0000

> <Gold.Chemscore.DEClash>
1.4108

> <Gold.Chemscore.DEInternal>
1.0419

> <Gold.Chemscore.Rot>
1.7738

> <Gold.Chemscore.Internal.Correction>
   9.000000E+99

> <Gold.Chemscore.Hbonds>
donor molecule, donor type, donor heavy atom, donor atom, acceptor molecule, acceptor atom, score
      L1  H     5    28       P1 10175  0.97
      L1  H     8    29       P1 10175  0.99
      L1  H    15    41       P1  7948  0.99

> <Gold.Chemscore.Hbond.Weighted>
-9.5814

> <Gold.Chemscore.Metal.Weighted>
-0.0000

> <Gold.Chemscore.Lipo.Weighted>
-7.6302

> <Gold.Chemscore.Internal_Hbond.Weighted>
0.0000

> <Gold.Chemscore.DEClash.Weighted>
1.4108

> <Gold.Chemscore.DEInternal.Weighted>
1.0419

> <Gold.Chemscore.Rot.Weighted>
4.5411

> <Gold.Chemscore.Internal.Correction.Weighted>
   9.000000E+99

> <Gold.Protein.RotatedTorsions>
[ 6907 6896 6895 6894 ] final  138.93 input  -60.11 | X-H torsion
[ 7974 7965 7964 7962 ] final -154.29 input  175.53 | X-H torsion
[ 8008 7997 7996 7995 ] final   60.17 input   59.86 | X-H torsion
[ 10167 10162 10161 10158 ] final -146.69 input  -65.29 | X-H torsion
[ 10718 10713 10712 10709 ] final  -59.68 input   66.30 | X-H torsion
[ 10763 10752 10751 10750 ] final   81.90 input  -60.55 | X-H torsion
[ 11005 11000 10999 10996 ] final  104.16 input  -57.11 | X-H torsion

> <Gold.Protein.ActiveResidues>
 VAL166  LYS551  ARG553  GLY616  TRP617  ASP618  TYR619  PRO620  LYS621  CYS622 
 ASP623  PHE694  ASN695  SER759  ASP760  ASP761  ALA762  ILE779  LEU786  VAL792 
 PHE793  MET794  SER795  GLU796  ALA797  LYS798  CYS799  TRP800  GLU811  SER814 

> <Gold.Protein.RotatedAtoms>
  152.2608  133.5296  159.5380 H   0  0  0  0  0  0  0  0  0  0  0  0  # atno 6907 bound_to 6896
  150.7124  134.0832  159.3914 H   0  0  0  0  0  0  0  0  0  0  0  0  # atno 6908 bound_to 6896
  151.8749  135.0475  160.0534 H   0  0  0  0  0  0  0  0  0  0  0  0  # atno 6909 bound_to 6896
  144.7697  140.4409  143.5916 H   0  0  0  0  0  0  0  0  0  0  0  0  # atno 7974 bound_to 7965
  155.5779  140.3491  155.4532 H   0  0  0  0  0  0  0  0  0  0  0  0  # atno 8008 bound_to 7997
  156.0395  140.1292  157.0196 H   0  0  0  0  0  0  0  0  0  0  0  0  # atno 8009 bound_to 7997
  154.4386  140.1027  156.6202 H   0  0  0  0  0  0  0  0  0  0  0  0  # atno 8010 bound_to 7997
  139.7690  143.8265  152.2621 H   0  0  0  0  0  0  0  0  0  0  0  0  # atno 10167 bound_to 10162
  156.1044  130.4182  150.0749 H   0  0  0  0  0  0  0  0  0  0  0  0  # atno 10718 bound_to 10713
  153.1156  135.4748  154.9109 H   0  0  0  0  0  0  0  0  0  0  0  0  # atno 10763 bound_to 10752
  154.7525  135.3109  154.8534 H   0  0  0  0  0  0  0  0  0  0  0  0  # atno 10764 bound_to 10752
  153.9111  135.6865  153.4804 H   0  0  0  0  0  0  0  0  0  0  0  0  # atno 10765 bound_to 10752
  139.8789  134.9290  156.5319 H   0  0  0  0  0  0  0  0  0  0  0  0  # atno 11005 bound_to 11000
  145.6361  139.1543  143.2941 LP  0  0  0  0  0  0  0  0  0  0  0  0  # atno 17320 bound_to 7965
  146.1834  140.6461  142.9179 LP  0  0  0  0  0  0  0  0  0  0  0  0  # atno 17321 bound_to 7965
  139.8294  144.7261  150.9470 LP  0  0  0  0  0  0  0  0  0  0  0  0  # atno 17342 bound_to 10162
  140.7813  143.4084  151.1032 LP  0  0  0  0  0  0  0  0  0  0  0  0  # atno 17343 bound_to 10162
  156.8728  130.9530  151.3607 LP  0  0  0  0  0  0  0  0  0  0  0  0  # atno 17370 bound_to 10713
  157.6219  130.8661  149.9123 LP  0  0  0  0  0  0  0  0  0  0  0  0  # atno 17371 bound_to 10713
  140.8374  133.8232  155.9042 LP  0  0  0  0  0  0  0  0  0  0  0  0  # atno 17394 bound_to 11000
  140.9270  134.2069  157.4889 LP  0  0  0  0  0  0  0  0  0  0  0  0  # atno 17395 bound_to 11000

$$$$
