AV-unprocessed.smi:1815|AV-procd|sdf|7357|dock1
  -GOLD-   22720 9 13D 1   1.00000     0.00000
 Structure written by MMmdl.
 38 39  0  0  0  0  0  0  0  0  2 V2000
  154.2330  141.2954  160.1480 C   0  0  0  0  0  0  0  0  0  0  0  0
  152.8696  141.7870  159.6504 C   0  0  2  0  0  0  0  0  0  0  0  0
  152.2073  140.7825  158.6907 C   0  0  0  0  0  0  0  0  0  0  0  0
  150.9510  141.2886  158.1552 N   0  0  0  0  0  0  0  0  0  0  0  0
  150.3139  140.3002  157.2843 C   0  0  0  0  0  0  0  0  0  0  0  0
  150.4178  138.8360  157.7560 C   0  0  0  0  0  0  0  0  0  0  0  0
  149.3870  138.5016  158.7343 N   0  0  0  0  0  0  0  0  0  0  0  0
  149.2712  137.3349  159.3842 C   0  0  0  0  0  0  0  0  0  0  0  0
  150.0761  136.4264  159.1653 O   0  0  0  0  0  0  0  0  0  0  0  0
  148.2313  137.2932  160.2482 N   0  5  0  0  0  0  0  0  0  0  0  0
  147.8742  136.1279  160.8120 C   0  0  0  0  0  0  0  0  0  0  0  0
  148.0049  134.9487  160.1935 N   0  0  0  0  0  0  0  0  0  0  0  0
  147.5686  133.8675  160.9612 C   0  0  0  0  0  0  0  0  0  0  0  0
  147.0852  134.2327  162.1895 C   0  0  0  0  0  0  0  0  0  0  0  0
  147.1639  135.9561  162.4200 S   0  0  0  0  0  0  0  0  0  0  0  0
  151.1974  142.5590  157.4779 C   0  0  0  0  0  0  0  0  0  0  0  0
  151.8922  143.5926  158.3868 C   0  0  1  0  0  0  0  0  0  0  0  0
  150.9548  144.1957  159.4467 C   0  0  0  0  0  0  0  0  0  0  0  0
  153.0656  143.0282  158.9751 O   0  0  0  0  0  0  0  0  0  0  0  0
  154.1375  140.3522  160.6862 H   0  0  0  0  0  0  0  0  0  0  0  0
  154.6844  142.0202  160.8256 H   0  0  0  0  0  0  0  0  0  0  0  0
  154.9229  141.1397  159.3182 H   0  0  0  0  0  0  0  0  0  0  0  0
  152.2248  141.9430  160.5160 H   0  0  0  0  0  0  0  0  0  0  0  0
  152.8911  140.5526  157.8719 H   0  0  0  0  0  0  0  0  0  0  0  0
  152.0297  139.8458  159.2204 H   0  0  0  0  0  0  0  0  0  0  0  0
  149.2628  140.5576  157.1474 H   0  0  0  0  0  0  0  0  0  0  0  0
  150.7626  140.3625  156.2919 H   0  0  0  0  0  0  0  0  0  0  0  0
  150.3346  138.1475  156.9160 H   0  0  0  0  0  0  0  0  0  0  0  0
  151.4040  138.6568  158.1867 H   0  0  0  0  0  0  0  0  0  0  0  0
  148.7101  139.2193  158.9471 H   0  0  0  0  0  0  0  0  0  0  0  0
  147.6378  132.8704  160.5526 H   0  0  0  0  0  0  0  0  0  0  0  0
  146.6893  133.5980  162.9676 H   0  0  0  0  0  0  0  0  0  0  0  0
  151.8219  142.3846  156.6004 H   0  0  0  0  0  0  0  0  0  0  0  0
  150.2636  142.9843  157.1121 H   0  0  0  0  0  0  0  0  0  0  0  0
  152.2313  144.4161  157.7579 H   0  0  0  0  0  0  0  0  0  0  0  0
  150.1232  144.7188  158.9741 H   0  0  0  0  0  0  0  0  0  0  0  0
  151.4849  144.9141  160.0718 H   0  0  0  0  0  0  0  0  0  0  0  0
  150.5289  143.4336  160.0991 H   0  0  0  0  0  0  0  0  0  0  0  0
  1  2  1  0  0  0  0
  1 20  1  0  0  0  0
  1 21  1  0  0  0  0
  1 22  1  0  0  0  0
  2 19  1  0  0  0  0
  2  3  1  0  0  0  0
  2 23  1  0  0  0  0
  3  4  1  0  0  0  0
  3 24  1  0  0  0  0
  3 25  1  0  0  0  0
  4  5  1  0  0  0  0
  4 16  1  0  0  0  0
  5  6  1  0  0  0  0
  5 26  1  0  0  0  0
  5 27  1  0  0  0  0
  6  7  1  0  0  0  0
  6 28  1  0  0  0  0
  6 29  1  0  0  0  0
  7  8  1  0  0  0  0
  7 30  1  0  0  0  0
  8  9  2  0  0  0  0
  8 10  1  0  0  0  0
 10 11  1  0  0  0  0
 11 15  1  0  0  0  0
 11 12  2  0  0  0  0
 12 13  1  0  0  0  0
 13 14  2  0  0  0  0
 13 31  1  0  0  0  0
 14 15  1  0  0  0  0
 14 32  1  0  0  0  0
 16 17  1  0  0  0  0
 16 33  1  0  0  0  0
 16 34  1  0  0  0  0
 17 18  1  0  0  0  0
 17 19  1  0  0  0  0
 17 35  1  0  0  0  0
 18 36  1  0  0  0  0
 18 37  1  0  0  0  0
 18 38  1  0  0  0  0
M  CHG  1  10  -1
M  END
> <s_m_source_file>
AV-unprocessed.smi

> <i_m_source_file_index>
1815

> <i_lp_mmshare_version>
43012

> <i_f3d_flags>
0

> <s_epik_input>
W0NIM11bQ0BASF0xW0NIMl1OKFtDSDJdW0NASF0oTzEpW0NIM10pW0NIMl1bQ0gyXVtOSF1DKD1PKVtOSF1jMm5bY0hdW2NIXXMy

> <s_epik_cmdline>
J2VwaWtfcHl0aG9uJywgJy1waCcsICc3LjAnLCAnLXRuJywgJzgnLCAnLW1hJywgJzIwMCcsICctbWV0YWxfYmluZGluZycsICctaW1hZScsICc8aW5maWxlLm1hZT4nLCAnLW9tYWUnLCAnPG91dGZpbGUubWFlPic=

> <r_lp_tautomer_probability>
0.999

> <r_epik_Ionization_Penalty>
7.22374

> <r_epik_Ionization_Penalty_Charging>
5.82415

> <r_epik_Ionization_Penalty_Neutral>
1.39959

> <r_epik_State_Penalty>
6.03347

> <r_epik_Charging_Adjusted_Penalty>
11.8576

> <i_epik_Tot_Q>
-1

> <i_epik_Tot_abs_Q>
1

> <r_epik_Metal_State_Penalty>
2.01024

> <b_epik_Metal_Only>
1

> <s_lp_Force_Field>
OPLS_2005

> <r_lp_Energy>
21.2187

> <b_lp_Chiralities_Consistent>
1

> <s_lp_Variant>
AV-unprocessed.smi:1815-8

> <Gold.Version>
5.8.1

> <Gold.Id.Protein>
6NUR|6NUR_protein|mol2

> <Gold.PLP.Fitness>
45.7148

> <Gold.PLP.PLP>
-36.5777

> <Gold.PLP.part.hbond>
-3.0000

> <Gold.PLP.part.metal>
0.0000

> <Gold.PLP.part.buried>
-3.9300

> <Gold.PLP.part.nonpolar>
-31.3474

> <Gold.PLP.part.repulsive>
0.2415

> <Gold.PLP.ligand.clash>
0.0000

> <Gold.PLP.ligand.torsion>
0.5455

> <Gold.PLP.Chemscore.Hbond>
3.3790

> <Gold.PLP.Chemscore.CHOScore>
0.0000

> <Gold.PLP.Chemscore.Metal>
0.0000

> <Gold.Chemscore.Hbonds>
donor molecule, donor type, donor heavy atom, donor atom, acceptor molecule, acceptor atom, score
      P1  H  6896  6909       L1     9  1.00
      P1  H  6931  6943       L1    10  1.16
      P1  H  6934  6947       L1    10  0.95

> <Gold.PLP.Chemscore.Internal.Correction>
0.0910

> <Gold.Rescore>
     Score         DG    S(hbond)    S(metal)    S(lipo)     H(rot)  DE(clash)    DE(int)     intcor
     15.32     -17.54       1.66        0.00      90.07       1.57       0.24       1.98       ----

> <Gold.Chemscore.Fitness>
15.3242

> <Gold.Chemscore.DG>
-17.5416

> <Gold.Chemscore.ZeroCoef>
-5.4800

> <Gold.Chemscore.Hbond>
1.6577

> <Gold.Chemscore.Metal>
0.0000

> <Gold.Chemscore.Lipo>
90.0683

> <Gold.Chemscore.Internal_Hbond>
0.0000

> <Gold.Chemscore.DEClash>
0.2376

> <Gold.Chemscore.DEInternal>
1.9798

> <Gold.Chemscore.Rot>
1.5676

> <Gold.Chemscore.Internal.Correction>
   9.000000E+99

> <Gold.Chemscore.Hbonds>
donor molecule, donor type, donor heavy atom, donor atom, acceptor molecule, acceptor atom, score
      P1  H  6896  6909       L1     9  1.00
      P1  H  6931  6943       L1    10  0.05
      P1  H  6934  6947       L1    10  0.45

> <Gold.Chemscore.Hbond.Weighted>
-5.5366

> <Gold.Chemscore.Metal.Weighted>
-0.0000

> <Gold.Chemscore.Lipo.Weighted>
-10.5380

> <Gold.Chemscore.Internal_Hbond.Weighted>
0.0000

> <Gold.Chemscore.DEClash.Weighted>
0.2376

> <Gold.Chemscore.DEInternal.Weighted>
1.9798

> <Gold.Chemscore.Rot.Weighted>
4.0130

> <Gold.Chemscore.Internal.Correction.Weighted>
   9.000000E+99

> <Gold.Protein.RotatedTorsions>
[ 6907 6896 6895 6894 ] final   85.18 input  -60.11 | X-H torsion
[ 7974 7965 7964 7962 ] final  124.32 input  175.53 | X-H torsion
[ 8008 7997 7996 7995 ] final  -36.58 input   59.86 | X-H torsion
[ 10167 10162 10161 10158 ] final    1.97 input  -65.29 | X-H torsion
[ 10718 10713 10712 10709 ] final  -45.62 input   66.30 | X-H torsion
[ 10763 10752 10751 10750 ] final  -13.04 input  -60.55 | X-H torsion
[ 11005 11000 10999 10996 ] final -114.61 input  -57.11 | X-H torsion

> <Gold.Protein.ActiveResidues>
 VAL166  LYS551  ARG553  GLY616  TRP617  ASP618  TYR619  PRO620  LYS621  CYS622 
 ASP623  PHE694  ASN695  SER759  ASP760  ASP761  ALA762  ILE779  LEU786  VAL792 
 PHE793  MET794  SER795  GLU796  ALA797  LYS798  CYS799  TRP800  GLU811  SER814 

> <Gold.Protein.RotatedAtoms>
  152.5369  134.2626  159.8940 H   0  0  0  0  0  0  0  0  0  0  0  0  # atno 6907 bound_to 6896
  151.2585  133.4307  159.2622 H   0  0  0  0  0  0  0  0  0  0  0  0  # atno 6908 bound_to 6896
  151.0474  134.9664  159.8250 H   0  0  0  0  0  0  0  0  0  0  0  0  # atno 6909 bound_to 6896
  145.0857  139.3623  143.4886 H   0  0  0  0  0  0  0  0  0  0  0  0  # atno 7974 bound_to 7965
  154.4070  140.1627  156.2397 H   0  0  0  0  0  0  0  0  0  0  0  0  # atno 8008 bound_to 7997
  155.9212  140.3421  155.6152 H   0  0  0  0  0  0  0  0  0  0  0  0  # atno 8009 bound_to 7997
  155.7220  140.0769  157.2317 H   0  0  0  0  0  0  0  0  0  0  0  0  # atno 8010 bound_to 7997
  140.6657  143.7185  150.7823 H   0  0  0  0  0  0  0  0  0  0  0  0  # atno 10167 bound_to 10162
  156.2265  130.4169  149.8927 H   0  0  0  0  0  0  0  0  0  0  0  0  # atno 10718 bound_to 10713
  153.5074  135.7016  153.5799 H   0  0  0  0  0  0  0  0  0  0  0  0  # atno 10763 bound_to 10752
  153.3904  135.3897  155.1919 H   0  0  0  0  0  0  0  0  0  0  0  0  # atno 10764 bound_to 10752
  154.8706  135.3857  154.4550 H   0  0  0  0  0  0  0  0  0  0  0  0  # atno 10765 bound_to 10752
  141.0541  133.9641  157.2785 H   0  0  0  0  0  0  0  0  0  0  0  0  # atno 11005 bound_to 11000
  146.3531  140.0669  142.8625 LP  0  0  0  0  0  0  0  0  0  0  0  0  # atno 17320 bound_to 7965
  145.1125  140.9413  143.4648 LP  0  0  0  0  0  0  0  0  0  0  0  0  # atno 17321 bound_to 7965
  140.0862  143.4921  152.2504 LP  0  0  0  0  0  0  0  0  0  0  0  0  # atno 17342 bound_to 10162
  139.5905  144.7548  151.3411 LP  0  0  0  0  0  0  0  0  0  0  0  0  # atno 17343 bound_to 10162
  156.6556  130.8761  151.3539 LP  0  0  0  0  0  0  0  0  0  0  0  0  # atno 17370 bound_to 10713
  157.7113  130.9443  150.1099 LP  0  0  0  0  0  0  0  0  0  0  0  0  # atno 17371 bound_to 10713
  139.9375  135.0195  156.8602 LP  0  0  0  0  0  0  0  0  0  0  0  0  # atno 17394 bound_to 11000
  140.5999  134.0182  155.7533 LP  0  0  0  0  0  0  0  0  0  0  0  0  # atno 17395 bound_to 11000

$$$$
