AV-unprocessed.smi:266|AV-procd|sdf|2035|dock3
  -GOLD-   2262021243D 1   1.00000     0.00000
 Structure written by MMmdl.
 52 55  0  0  0  0  0  0  0  0  1 V2000
  152.2071  144.8224  157.1797 C   0  0  0  0  0  0  0  0  0  0  0  0
  151.4980  144.5927  158.5236 C   0  0  2  0  0  0  0  0  0  0  0  0
  152.2421  145.2748  159.5296 O   0  0  0  0  0  0  0  0  0  0  0  0
  152.0878  144.5850  160.7571 C   0  0  0  0  0  0  0  0  0  0  0  0
  152.1599  143.1291  160.3234 C   0  0  0  0  0  0  0  0  0  0  0  0
  151.3781  143.1209  159.0120 C   0  0  1  0  0  0  0  0  0  0  0  0
  150.0147  142.8823  159.3217 O   0  0  0  0  0  0  0  0  0  0  0  0
  151.8427  142.0238  158.0180 C   0  0  0  0  0  0  0  0  0  0  0  0
  151.3481  140.6954  158.3474 N   0  0  0  0  0  0  0  0  0  0  0  0
  152.0149  139.7197  159.0528 C   0  0  0  0  0  0  0  0  0  0  0  0
  151.3569  138.6055  159.2181 N   0  0  0  0  0  0  0  0  0  0  0  0
  150.1375  138.8305  158.5894 C   0  0  0  0  0  0  0  0  0  0  0  0
  148.9572  138.0563  158.3881 C   0  0  0  0  0  0  0  0  0  0  0  0
  148.7611  136.7918  158.8326 N   0  0  0  0  0  0  0  0  0  0  0  0
  149.3309  135.7973  157.9341 C   0  0  0  0  0  0  0  0  0  0  0  0
  148.8599  136.5247  160.2675 C   0  0  0  0  0  0  0  0  0  0  0  0
  147.6038  135.8576  160.8685 C   0  0  1  0  0  0  0  0  0  0  0  0
  147.7194  135.6103  162.3866 C   0  0  0  0  0  0  0  0  0  0  0  0
  146.3371  135.2312  162.9262 C   0  0  0  0  0  0  0  0  0  0  0  0
  145.1382  136.1819  161.9203 S   0  0  0  0  0  0  0  0  0  0  0  0
  144.1560  135.2528  161.3418 O   0  0  0  0  0  0  0  0  0  0  0  0
  144.7058  137.3730  162.6671 O   0  0  0  0  0  0  0  0  0  0  0  0
  146.3361  136.6912  160.6294 C   0  0  0  0  0  0  0  0  0  0  0  0
  147.9451  138.6214  157.6829 N   0  0  0  0  0  0  0  0  0  0  0  0
  148.0621  139.8696  157.2211 C   0  0  0  0  0  0  0  0  0  0  0  0
  149.0899  140.7114  157.3434 N   0  0  0  0  0  0  0  0  0  0  0  0
  150.1180  140.1423  158.0355 C   0  0  0  0  0  0  0  0  0  0  0  0
  151.6819  144.3288  156.3619 H   0  0  0  0  0  0  0  0  0  0  0  0
  153.2331  144.4547  157.2005 H   0  0  0  0  0  0  0  0  0  0  0  0
  152.2473  145.8862  156.9451 H   0  0  0  0  0  0  0  0  0  0  0  0
  150.5115  145.0577  158.4742 H   0  0  0  0  0  0  0  0  0  0  0  0
  152.8668  144.8532  161.4711 H   0  0  0  0  0  0  0  0  0  0  0  0
  151.1165  144.8194  161.1953 H   0  0  0  0  0  0  0  0  0  0  0  0
  153.2042  142.8747  160.1398 H   0  0  0  0  0  0  0  0  0  0  0  0
  151.7759  142.4358  161.0730 H   0  0  0  0  0  0  0  0  0  0  0  0
  149.8591  143.1503  160.2143 H   0  0  0  0  0  0  0  0  0  0  0  0
  151.5158  142.2642  157.0054 H   0  0  0  0  0  0  0  0  0  0  0  0
  152.9311  141.9727  157.9866 H   0  0  0  0  0  0  0  0  0  0  0  0
  153.0146  139.8591  159.4379 H   0  0  0  0  0  0  0  0  0  0  0  0
  148.8642  135.8487  156.9499 H   0  0  0  0  0  0  0  0  0  0  0  0
  149.1761  134.7904  158.3225 H   0  0  0  0  0  0  0  0  0  0  0  0
  150.4039  135.9539  157.8158 H   0  0  0  0  0  0  0  0  0  0  0  0
  149.7187  135.8737  160.4357 H   0  0  0  0  0  0  0  0  0  0  0  0
  149.0864  137.4514  160.7941 H   0  0  0  0  0  0  0  0  0  0  0  0
  147.4323  134.8915  160.3932 H   0  0  0  0  0  0  0  0  0  0  0  0
  148.4577  134.8418  162.6180 H   0  0  0  0  0  0  0  0  0  0  0  0
  148.0507  136.5272  162.8758 H   0  0  0  0  0  0  0  0  0  0  0  0
  146.1403  134.1699  162.7728 H   0  0  0  0  0  0  0  0  0  0  0  0
  146.2122  135.4615  163.9842 H   0  0  0  0  0  0  0  0  0  0  0  0
  146.5335  137.7554  160.7611 H   0  0  0  0  0  0  0  0  0  0  0  0
  145.9090  136.5381  159.6381 H   0  0  0  0  0  0  0  0  0  0  0  0
  147.2101  140.2485  156.6760 H   0  0  0  0  0  0  0  0  0  0  0  0
  1  2  1  0  0  0  0
  1 28  1  0  0  0  0
  1 29  1  0  0  0  0
  1 30  1  0  0  0  0
  2  6  1  0  0  0  0
  2  3  1  0  0  0  0
  2 31  1  0  0  0  0
  3  4  1  0  0  0  0
  4  5  1  0  0  0  0
  4 32  1  0  0  0  0
  4 33  1  0  0  0  0
  5  6  1  0  0  0  0
  5 34  1  0  0  0  0
  5 35  1  0  0  0  0
  6  7  1  0  0  0  0
  6  8  1  0  0  0  0
  7 36  1  0  0  0  0
  8  9  1  0  0  0  0
  8 37  1  0  0  0  0
  8 38  1  0  0  0  0
  9 27  1  0  0  0  0
  9 10  1  0  0  0  0
 10 11  2  0  0  0  0
 10 39  1  0  0  0  0
 11 12  1  0  0  0  0
 12 27  2  0  0  0  0
 12 13  1  0  0  0  0
 13 14  1  0  0  0  0
 13 24  2  0  0  0  0
 14 15  1  0  0  0  0
 14 16  1  0  0  0  0
 15 40  1  0  0  0  0
 15 41  1  0  0  0  0
 15 42  1  0  0  0  0
 16 17  1  0  0  0  0
 16 43  1  0  0  0  0
 16 44  1  0  0  0  0
 17 23  1  0  0  0  0
 17 18  1  0  0  0  0
 17 45  1  0  0  0  0
 18 19  1  0  0  0  0
 18 46  1  0  0  0  0
 18 47  1  0  0  0  0
 19 20  1  0  0  0  0
 19 48  1  0  0  0  0
 19 49  1  0  0  0  0
 20 21  2  0  0  0  0
 20 22  2  0  0  0  0
 20 23  1  0  0  0  0
 23 50  1  0  0  0  0
 23 51  1  0  0  0  0
 24 25  1  0  0  0  0
 25 26  2  0  0  0  0
 25 52  1  0  0  0  0
 26 27  1  0  0  0  0
M  END
> <s_m_source_file>
AV-unprocessed.smi

> <i_m_source_file_index>
266

> <i_lp_mmshare_version>
43012

> <i_f3d_flags>
0

> <s_epik_input>
W0NIMl0xW0NIMl1PW0NAQEhdKFtDSDNdKVtDQEBdMShbT0hdKVtDSDJdbihbY0hdbjIpYyhjMjMpbltjSF1uYzNOKFtDSDNdKVtDSDJdW0NAQEhdKFtDSDJdNClbQ0gyXVtDSDJdUzQoPU8pPU8=

> <s_epik_cmdline>
J2VwaWtfcHl0aG9uJywgJy1waCcsICc3LjAnLCAnLXRuJywgJzgnLCAnLW1hJywgJzIwMCcsICctbWV0YWxfYmluZGluZycsICctaW1hZScsICc8aW5maWxlLm1hZT4nLCAnLW9tYWUnLCAnPG91dGZpbGUubWFlPic=

> <r_lp_tautomer_probability>
1

> <r_epik_Ionization_Penalty>
0.00155497

> <r_epik_Ionization_Penalty_Charging>
0

> <r_epik_Ionization_Penalty_Neutral>
0.00155497

> <r_epik_State_Penalty>
-0

> <r_epik_Charging_Adjusted_Penalty>
0

> <i_epik_Tot_Q>
0

> <i_epik_Tot_abs_Q>
0

> <r_epik_Metal_State_Penalty>
-0

> <b_epik_Metal_Only>
0

> <s_lp_Force_Field>
OPLS_2005

> <r_lp_Energy>
31.7586

> <b_lp_Chiralities_Consistent>
1

> <s_lp_Variant>
AV-unprocessed.smi:266-5

> <Gold.Version>
5.8.1

> <Gold.Id.Protein>
6NUR|6NUR_protein|mol2

> <Gold.PLP.Fitness>
38.7529

> <Gold.PLP.PLP>
-41.1980

> <Gold.PLP.part.hbond>
-1.0000

> <Gold.PLP.part.metal>
0.0000

> <Gold.PLP.part.buried>
-8.0482

> <Gold.PLP.part.nonpolar>
-32.3610

> <Gold.PLP.part.repulsive>
0.1271

> <Gold.PLP.ligand.clash>
0.0000

> <Gold.PLP.ligand.torsion>
1.5212

> <Gold.PLP.Chemscore.Hbond>
0.0000

> <Gold.PLP.Chemscore.CHOScore>
0.0000

> <Gold.PLP.Chemscore.Metal>
0.0000

> <Gold.PLP.Chemscore.Internal.Correction>
0.5972

> <Gold.Rescore>
     Score         DG    S(hbond)    S(metal)    S(lipo)     H(rot)  DE(clash)    DE(int)     intcor
      9.24     -11.06       0.00        0.00     108.20       2.76       0.36       1.46       ----

> <Gold.Chemscore.Fitness>
9.2449

> <Gold.Chemscore.DG>
-11.0643

> <Gold.Chemscore.ZeroCoef>
-5.4800

> <Gold.Chemscore.Hbond>
0.0000

> <Gold.Chemscore.Metal>
0.0000

> <Gold.Chemscore.Lipo>
108.1998

> <Gold.Chemscore.Internal_Hbond>
0.0000

> <Gold.Chemscore.DEClash>
0.3569

> <Gold.Chemscore.DEInternal>
1.4626

> <Gold.Chemscore.Rot>
2.7637

> <Gold.Chemscore.Internal.Correction>
   9.000000E+99

> <Gold.Chemscore.Hbond.Weighted>
-0.0000

> <Gold.Chemscore.Metal.Weighted>
-0.0000

> <Gold.Chemscore.Lipo.Weighted>
-12.6594

> <Gold.Chemscore.Internal_Hbond.Weighted>
0.0000

> <Gold.Chemscore.DEClash.Weighted>
0.3569

> <Gold.Chemscore.DEInternal.Weighted>
1.4626

> <Gold.Chemscore.Rot.Weighted>
7.0750

> <Gold.Chemscore.Internal.Correction.Weighted>
   9.000000E+99

> <Gold.Protein.RotatedTorsions>
[ 6907 6896 6895 6894 ] final  132.59 input  -60.11 | X-H torsion
[ 7974 7965 7964 7962 ] final  -52.54 input  175.53 | X-H torsion
[ 8008 7997 7996 7995 ] final  -68.19 input   59.86 | X-H torsion
[ 10167 10162 10161 10158 ] final   74.15 input  -65.29 | X-H torsion
[ 10718 10713 10712 10709 ] final   16.63 input   66.30 | X-H torsion
[ 10763 10752 10751 10750 ] final  -15.86 input  -60.55 | X-H torsion
[ 11005 11000 10999 10996 ] final   26.25 input  -57.11 | X-H torsion

> <Gold.Protein.ActiveResidues>
 VAL166  LYS551  ARG553  GLY616  TRP617  ASP618  TYR619  PRO620  LYS621  CYS622 
 ASP623  PHE694  ASN695  SER759  ASP760  ASP761  ALA762  ILE779  LEU786  VAL792 
 PHE793  MET794  SER795  GLU796  ALA797  LYS798  CYS799  TRP800  GLU811  SER814 

> <Gold.Protein.RotatedAtoms>
  152.3308  133.5956  159.5808 H   0  0  0  0  0  0  0  0  0  0  0  0  # atno 6907 bound_to 6896
  150.7422  133.9871  159.3604 H   0  0  0  0  0  0  0  0  0  0  0  0  # atno 6908 bound_to 6896
  151.7746  135.0778  160.0416 H   0  0  0  0  0  0  0  0  0  0  0  0  # atno 6909 bound_to 6896
  145.9068  140.7949  142.9715 H   0  0  0  0  0  0  0  0  0  0  0  0  # atno 7974 bound_to 7965
  154.4851  140.0878  156.7467 H   0  0  0  0  0  0  0  0  0  0  0  0  # atno 8008 bound_to 7997
  155.4371  140.3452  155.4268 H   0  0  0  0  0  0  0  0  0  0  0  0  # atno 8009 bound_to 7997
  156.1249  140.1484  156.9139 H   0  0  0  0  0  0  0  0  0  0  0  0  # atno 8010 bound_to 7997
  140.0168  144.5572  150.7614 H   0  0  0  0  0  0  0  0  0  0  0  0  # atno 10167 bound_to 10162
  157.0707  130.6347  149.5805 H   0  0  0  0  0  0  0  0  0  0  0  0  # atno 10718 bound_to 10713
  153.5497  135.7012  153.5597 H   0  0  0  0  0  0  0  0  0  0  0  0  # atno 10763 bound_to 10752
  153.3526  135.3991  155.1658 H   0  0  0  0  0  0  0  0  0  0  0  0  # atno 10764 bound_to 10752
  154.8663  135.3769  154.5007 H   0  0  0  0  0  0  0  0  0  0  0  0  # atno 10765 bound_to 10752
  140.3391  134.2353  155.7692 H   0  0  0  0  0  0  0  0  0  0  0  0  # atno 11005 bound_to 11000
  144.6740  140.1763  143.7410 LP  0  0  0  0  0  0  0  0  0  0  0  0  # atno 17320 bound_to 7965
  145.8722  139.2278  143.1654 LP  0  0  0  0  0  0  0  0  0  0  0  0  # atno 17321 bound_to 7965
  140.7359  143.2746  151.3781 LP  0  0  0  0  0  0  0  0  0  0  0  0  # atno 17342 bound_to 10162
  139.6167  144.0988  152.2352 LP  0  0  0  0  0  0  0  0  0  0  0  0  # atno 17343 bound_to 10162
  155.9951  130.5017  150.7447 LP  0  0  0  0  0  0  0  0  0  0  0  0  # atno 17370 bound_to 10713
  157.4880  131.0908  151.0459 LP  0  0  0  0  0  0  0  0  0  0  0  0  # atno 17371 bound_to 10713
  141.2043  133.7889  157.0292 LP  0  0  0  0  0  0  0  0  0  0  0  0  # atno 17394 bound_to 11000
  140.0796  134.9655  157.1603 LP  0  0  0  0  0  0  0  0  0  0  0  0  # atno 17395 bound_to 11000

$$$$
