AV-unprocessed.smi:2516|AV-procd|sdf|9899|dock3
  -GOLD-   2272013533D 1   1.00000     0.00000
 Structure written by MMmdl.
 47 48  0  0  0  0  0  0  0  0  1 V2000
  144.1274  132.0868  149.8728 C   0  0  0  0  0  0  0  0  0  0  0  0
  143.6643  132.3351  151.3130 C   0  0  0  0  0  0  0  0  0  0  0  0
  144.2711  133.5307  151.8715 N   0  0  0  0  0  0  0  0  0  0  0  0
  143.4695  134.5552  152.2494 N   0  0  0  0  0  0  0  0  0  0  0  0
  144.2815  135.4911  152.7184 C   0  0  0  0  0  0  0  0  0  0  0  0
  143.6851  136.7456  153.2940 C   0  0  0  0  0  0  0  0  0  0  0  0
  145.6407  135.0728  152.6009 C   0  0  0  0  0  0  0  0  0  0  0  0
  146.8218  135.7450  153.0042 N   0  0  0  0  0  0  0  0  0  0  0  0
  147.0711  136.2797  154.2093 C   0  0  0  0  0  0  0  0  0  0  0  0
  146.2927  136.2613  155.1622 O   0  0  0  0  0  0  0  0  0  0  0  0
  148.2771  136.8648  154.2431 N   0  0  0  0  0  0  0  0  0  0  0  0
  148.8490  137.5711  155.3894 C   0  0  1  0  0  0  0  0  0  0  0  0
  149.2265  136.5386  156.4682 C   0  0  0  0  0  0  0  0  0  0  0  0
  150.0446  138.4484  154.9335 C   0  0  0  0  0  0  0  0  0  0  0  0
  151.2838  137.6135  154.5501 C   0  0  0  0  0  0  0  0  0  0  0  0
  152.4746  138.5138  154.1826 C   0  0  0  0  0  0  0  0  0  0  0  0
  152.7745  139.3925  155.2595 O   0  0  0  0  0  0  0  0  0  0  0  0
  151.7007  140.2749  155.5606 C   0  0  0  0  0  0  0  0  0  0  0  0
  150.4708  139.4700  156.0101 C   0  0  0  0  0  0  0  0  0  0  0  0
  145.6097  133.8081  152.0886 C   0  0  0  0  0  0  0  0  0  0  0  0
  146.7053  132.8409  151.7737 C   0  0  0  0  0  0  0  0  0  0  0  0
  143.6675  131.1855  149.4673 H   0  0  0  0  0  0  0  0  0  0  0  0
  145.2091  131.9604  149.8222 H   0  0  0  0  0  0  0  0  0  0  0  0
  143.8568  132.9197  149.2232 H   0  0  0  0  0  0  0  0  0  0  0  0
  142.5791  132.4413  151.3458 H   0  0  0  0  0  0  0  0  0  0  0  0
  143.9121  131.4813  151.9440 H   0  0  0  0  0  0  0  0  0  0  0  0
  144.2849  137.1243  154.1213 H   0  0  0  0  0  0  0  0  0  0  0  0
  142.6796  136.5698  153.6776 H   0  0  0  0  0  0  0  0  0  0  0  0
  143.6177  137.5293  152.5398 H   0  0  0  0  0  0  0  0  0  0  0  0
  147.4939  135.9348  152.2758 H   0  0  0  0  0  0  0  0  0  0  0  0
  148.8427  136.8291  153.4078 H   0  0  0  0  0  0  0  0  0  0  0  0
  148.0906  138.2358  155.8076 H   0  0  0  0  0  0  0  0  0  0  0  0
  149.5416  137.0176  157.3944 H   0  0  0  0  0  0  0  0  0  0  0  0
  150.0366  135.8906  156.1319 H   0  0  0  0  0  0  0  0  0  0  0  0
  148.3764  135.9029  156.7183 H   0  0  0  0  0  0  0  0  0  0  0  0
  149.7341  139.0089  154.0500 H   0  0  0  0  0  0  0  0  0  0  0  0
  151.5646  136.9646  155.3807 H   0  0  0  0  0  0  0  0  0  0  0  0
  151.0655  136.9620  153.7045 H   0  0  0  0  0  0  0  0  0  0  0  0
  153.3536  137.9038  153.9733 H   0  0  0  0  0  0  0  0  0  0  0  0
  152.2643  139.0874  153.2786 H   0  0  0  0  0  0  0  0  0  0  0  0
  152.0152  140.9524  156.3547 H   0  0  0  0  0  0  0  0  0  0  0  0
  151.4660  140.8913  154.6913 H   0  0  0  0  0  0  0  0  0  0  0  0
  149.6590  140.1624  156.2340 H   0  0  0  0  0  0  0  0  0  0  0  0
  150.7003  138.9501  156.9412 H   0  0  0  0  0  0  0  0  0  0  0  0
  147.6853  133.3046  151.8845 H   0  0  0  0  0  0  0  0  0  0  0  0
  146.6229  132.4793  150.7487 H   0  0  0  0  0  0  0  0  0  0  0  0
  146.6641  131.9806  152.4418 H   0  0  0  0  0  0  0  0  0  0  0  0
  1  2  1  0  0  0  0
  1 22  1  0  0  0  0
  1 23  1  0  0  0  0
  1 24  1  0  0  0  0
  2  3  1  0  0  0  0
  2 25  1  0  0  0  0
  2 26  1  0  0  0  0
  3 20  1  0  0  0  0
  3  4  1  0  0  0  0
  4  5  2  0  0  0  0
  5  6  1  0  0  0  0
  5  7  1  0  0  0  0
  6 27  1  0  0  0  0
  6 28  1  0  0  0  0
  6 29  1  0  0  0  0
  7  8  1  0  0  0  0
  7 20  2  0  0  0  0
  8  9  1  0  0  0  0
  8 30  1  0  0  0  0
  9 10  2  0  0  0  0
  9 11  1  0  0  0  0
 11 12  1  0  0  0  0
 11 31  1  0  0  0  0
 12 13  1  0  0  0  0
 12 14  1  0  0  0  0
 12 32  1  0  0  0  0
 13 33  1  0  0  0  0
 13 34  1  0  0  0  0
 13 35  1  0  0  0  0
 14 19  1  0  0  0  0
 14 15  1  0  0  0  0
 14 36  1  0  0  0  0
 15 16  1  0  0  0  0
 15 37  1  0  0  0  0
 15 38  1  0  0  0  0
 16 17  1  0  0  0  0
 16 39  1  0  0  0  0
 16 40  1  0  0  0  0
 17 18  1  0  0  0  0
 18 19  1  0  0  0  0
 18 41  1  0  0  0  0
 18 42  1  0  0  0  0
 19 43  1  0  0  0  0
 19 44  1  0  0  0  0
 20 21  1  0  0  0  0
 21 45  1  0  0  0  0
 21 46  1  0  0  0  0
 21 47  1  0  0  0  0
M  END
> <s_m_source_file>
AV-unprocessed.smi

> <i_m_source_file_index>
2516

> <i_lp_mmshare_version>
43012

> <i_f3d_flags>
0

> <s_epik_input>
W0NIM11bQ0gyXW4xbmMoW0NIM10pYyhjMVtDSDNdKVtOSF1DKD1PKVtOSF1bQ0BIXShbQ0gzXSlbQ0hdMltDSDJdW0NIMl1PW0NIMl1bQ0gyXTI=

> <s_epik_cmdline>
J2VwaWtfcHl0aG9uJywgJy1waCcsICc3LjAnLCAnLXRuJywgJzgnLCAnLW1hJywgJzIwMCcsICctbWV0YWxfYmluZGluZycsICctaW1hZScsICc8aW5maWxlLm1hZT4nLCAnLW9tYWUnLCAnPG91dGZpbGUubWFlPic=

> <r_lp_tautomer_probability>
1

> <r_epik_Ionization_Penalty>
0.00383358

> <r_epik_Ionization_Penalty_Charging>
0

> <r_epik_Ionization_Penalty_Neutral>
0.00383358

> <r_epik_State_Penalty>
0.00270714

> <r_epik_Charging_Adjusted_Penalty>
0.00270714

> <i_epik_Tot_Q>
0

> <i_epik_Tot_abs_Q>
0

> <r_epik_Metal_State_Penalty>
-0

> <b_epik_Metal_Only>
0

> <s_lp_Force_Field>
OPLS_2005

> <r_lp_Energy>
15.2282

> <b_lp_Chiralities_Consistent>
1

> <s_lp_Variant>
AV-unprocessed.smi:2516-2

> <Gold.Version>
5.8.1

> <Gold.Id.Protein>
6NUR|6NUR_protein|mol2

> <Gold.PLP.Fitness>
41.2214

> <Gold.PLP.PLP>
-33.6937

> <Gold.PLP.part.hbond>
-2.8032

> <Gold.PLP.part.metal>
0.0000

> <Gold.PLP.part.buried>
-4.7949

> <Gold.PLP.part.nonpolar>
-26.2948

> <Gold.PLP.part.repulsive>
0.2421

> <Gold.PLP.ligand.clash>
0.0000

> <Gold.PLP.ligand.torsion>
0.7936

> <Gold.PLP.Chemscore.Hbond>
2.9280

> <Gold.PLP.Chemscore.CHOScore>
0.0000

> <Gold.PLP.Chemscore.Metal>
0.0000

> <Gold.Chemscore.Hbonds>
donor molecule, donor type, donor heavy atom, donor atom, acceptor molecule, acceptor atom, score
      L1  H     8    30       P1  7948  0.99
      L1  H    11    31       P1  7948  0.93
      P1  H  7997  8008       L1    17  1.00

> <Gold.PLP.Chemscore.Internal.Correction>
0.3308

> <Gold.Rescore>
     Score         DG    S(hbond)    S(metal)    S(lipo)     H(rot)  DE(clash)    DE(int)     intcor
     19.15     -19.97       2.77        0.00      73.18       1.30       0.01       0.81       ----

> <Gold.Chemscore.Fitness>
19.1506

> <Gold.Chemscore.DG>
-19.9672

> <Gold.Chemscore.ZeroCoef>
-5.4800

> <Gold.Chemscore.Hbond>
2.7696

> <Gold.Chemscore.Metal>
0.0000

> <Gold.Chemscore.Lipo>
73.1818

> <Gold.Chemscore.Internal_Hbond>
0.0000

> <Gold.Chemscore.DEClash>
0.0059

> <Gold.Chemscore.DEInternal>
0.8106

> <Gold.Chemscore.Rot>
1.2990

> <Gold.Chemscore.Internal.Correction>
   9.000000E+99

> <Gold.Chemscore.Hbonds>
donor molecule, donor type, donor heavy atom, donor atom, acceptor molecule, acceptor atom, score
      L1  H     8    30       P1  7948  0.87
      L1  H    11    31       P1  7948  0.89
      P1  H  7997  8008       L1    17  0.60

> <Gold.Chemscore.Hbond.Weighted>
-9.2503

> <Gold.Chemscore.Metal.Weighted>
-0.0000

> <Gold.Chemscore.Lipo.Weighted>
-8.5623

> <Gold.Chemscore.Internal_Hbond.Weighted>
0.0000

> <Gold.Chemscore.DEClash.Weighted>
0.0059

> <Gold.Chemscore.DEInternal.Weighted>
0.8106

> <Gold.Chemscore.Rot.Weighted>
3.3254

> <Gold.Chemscore.Internal.Correction.Weighted>
   9.000000E+99

> <Gold.Protein.RotatedTorsions>
[ 6907 6896 6895 6894 ] final -163.41 input  -60.11 | X-H torsion
[ 7974 7965 7964 7962 ] final -165.58 input  175.53 | X-H torsion
[ 8008 7997 7996 7995 ] final  -28.86 input   59.86 | X-H torsion
[ 10167 10162 10161 10158 ] final  136.92 input  -65.29 | X-H torsion
[ 10718 10713 10712 10709 ] final   46.17 input   66.30 | X-H torsion
[ 10763 10752 10751 10750 ] final  119.20 input  -60.55 | X-H torsion
[ 11005 11000 10999 10996 ] final  135.01 input  -57.11 | X-H torsion

> <Gold.Protein.ActiveResidues>
 VAL166  LYS551  ARG553  GLY616  TRP617  ASP618  TYR619  PRO620  LYS621  CYS622 
 ASP623  PHE694  ASN695  SER759  ASP760  ASP761  ALA762  ILE779  LEU786  VAL792 
 PHE793  MET794  SER795  GLU796  ALA797  LYS798  CYS799  TRP800  GLU811  SER814 

> <Gold.Protein.RotatedAtoms>
  151.3956  133.3774  159.2725 H   0  0  0  0  0  0  0  0  0  0  0  0  # atno 6907 bound_to 6896
  150.9472  134.8877  159.7660 H   0  0  0  0  0  0  0  0  0  0  0  0  # atno 6908 bound_to 6896
  152.5096  134.3909  159.9436 H   0  0  0  0  0  0  0  0  0  0  0  0  # atno 6909 bound_to 6896
  144.7266  140.2792  143.6238 H   0  0  0  0  0  0  0  0  0  0  0  0  # atno 7974 bound_to 7965
  154.4314  140.1834  156.1156 H   0  0  0  0  0  0  0  0  0  0  0  0  # atno 8008 bound_to 7997
  156.0183  140.3343  155.6987 H   0  0  0  0  0  0  0  0  0  0  0  0  # atno 8009 bound_to 7997
  155.6013  140.0640  157.2723 H   0  0  0  0  0  0  0  0  0  0  0  0  # atno 8010 bound_to 7997
  139.5162  144.6438  151.5496 H   0  0  0  0  0  0  0  0  0  0  0  0  # atno 10167 bound_to 10162
  157.4452  130.8105  149.7734 H   0  0  0  0  0  0  0  0  0  0  0  0  # atno 10718 bound_to 10713
  153.5793  135.3487  155.2868 H   0  0  0  0  0  0  0  0  0  0  0  0  # atno 10763 bound_to 10752
  154.8670  135.4178  154.2638 H   0  0  0  0  0  0  0  0  0  0  0  0  # atno 10764 bound_to 10752
  153.3421  135.7050  153.6929 H   0  0  0  0  0  0  0  0  0  0  0  0  # atno 10765 bound_to 10752
  139.9952  134.9500  156.9947 H   0  0  0  0  0  0  0  0  0  0  0  0  # atno 11005 bound_to 11000
  145.7966  139.1947  143.2072 LP  0  0  0  0  0  0  0  0  0  0  0  0  # atno 17320 bound_to 7965
  146.0712  140.7867  142.9687 LP  0  0  0  0  0  0  0  0  0  0  0  0  # atno 17321 bound_to 7965
  140.6215  143.9249  150.6530 LP  0  0  0  0  0  0  0  0  0  0  0  0  # atno 17342 bound_to 10162
  140.2524  143.3583  152.1394 LP  0  0  0  0  0  0  0  0  0  0  0  0  # atno 17343 bound_to 10162
  155.9965  130.3905  150.2778 LP  0  0  0  0  0  0  0  0  0  0  0  0  # atno 17370 bound_to 10713
  157.0946  131.0179  151.3109 LP  0  0  0  0  0  0  0  0  0  0  0  0  # atno 17371 bound_to 10713
  140.4832  134.1268  155.7220 LP  0  0  0  0  0  0  0  0  0  0  0  0  # atno 17394 bound_to 11000
  141.1598  133.8814  157.1878 LP  0  0  0  0  0  0  0  0  0  0  0  0  # atno 17395 bound_to 11000

$$$$
