AV-unprocessed.smi:1049|AV-procd|sdf|4608|dock2
  -GOLD-   22720 3103D 1   1.00000     0.00000
 Structure written by MMmdl.
 40 41  0  0  0  0  0  0  0  0  1 V2000
  145.6625  138.3964  154.4009 C   0  0  0  0  0  0  0  0  0  0  0  0
  146.4467  139.6579  154.7873 C   0  0  2  0  0  0  0  0  0  0  0  0
  145.5161  140.8833  154.9268 C   0  0  0  0  0  0  0  0  0  0  0  0
  146.3022  142.1848  155.1758 C   0  0  0  0  0  0  0  0  0  0  0  0
  147.4272  142.3493  154.1393 C   0  0  0  0  0  0  0  0  0  0  0  0
  148.2977  141.1624  154.2005 N   0  0  0  0  0  0  0  0  0  0  0  0
  149.5100  141.0968  154.8071 C   0  0  0  0  0  0  0  0  0  0  0  0
  150.3185  140.1886  154.6099 O   0  0  0  0  0  0  0  0  0  0  0  0
  149.7740  142.1190  155.6363 N   0  0  0  0  0  0  0  0  0  0  0  0
  150.9522  142.2382  156.4877 C   0  0  0  0  0  0  0  0  0  0  0  0
  150.5863  142.4045  157.9761 C   0  0  0  0  0  0  0  0  0  0  0  0
  151.7090  142.0641  158.9144 C   0  0  0  0  0  0  0  0  0  0  0  0
  152.0268  140.8160  159.2460 N   0  0  0  0  0  0  0  0  0  0  0  0
  153.1152  140.9394  160.1011 C   0  0  0  0  0  0  0  0  0  0  0  0
  153.4109  142.2694  160.2708 C   0  0  0  0  0  0  0  0  0  0  0  0
  152.4849  142.9863  159.5209 N   0  0  0  0  0  0  0  0  0  0  0  0
  152.4053  144.4345  159.4159 C   0  0  0  0  0  0  0  0  0  0  0  0
  152.5103  144.8193  158.1437 F   0  0  0  0  0  0  0  0  0  0  0  0
  151.2507  144.8678  159.9172 F   0  0  0  0  0  0  0  0  0  0  0  0
  147.5769  139.9549  153.7779 C   0  0  0  0  0  0  0  0  0  0  0  0
  145.1912  138.5065  153.4239 H   0  0  0  0  0  0  0  0  0  0  0  0
  144.8783  138.1836  155.1278 H   0  0  0  0  0  0  0  0  0  0  0  0
  146.3173  137.5257  154.3587 H   0  0  0  0  0  0  0  0  0  0  0  0
  146.9050  139.4721  155.7594 H   0  0  0  0  0  0  0  0  0  0  0  0
  144.9313  140.9966  154.0130 H   0  0  0  0  0  0  0  0  0  0  0  0
  144.7988  140.7234  155.7325 H   0  0  0  0  0  0  0  0  0  0  0  0
  145.6277  143.0404  155.1383 H   0  0  0  0  0  0  0  0  0  0  0  0
  146.7287  142.1717  156.1797 H   0  0  0  0  0  0  0  0  0  0  0  0
  147.0010  142.4297  153.1381 H   0  0  0  0  0  0  0  0  0  0  0  0
  147.9475  143.2924  154.3055 H   0  0  0  0  0  0  0  0  0  0  0  0
  149.0728  142.8392  155.7311 H   0  0  0  0  0  0  0  0  0  0  0  0
  151.6231  141.3893  156.3473 H   0  0  0  0  0  0  0  0  0  0  0  0
  151.4994  143.1195  156.1519 H   0  0  0  0  0  0  0  0  0  0  0  0
  150.2609  143.4300  158.1451 H   0  0  0  0  0  0  0  0  0  0  0  0
  149.7299  141.7742  158.2169 H   0  0  0  0  0  0  0  0  0  0  0  0
  153.5979  140.0699  160.5225 H   0  0  0  0  0  0  0  0  0  0  0  0
  154.1797  142.7511  160.8568 H   0  0  0  0  0  0  0  0  0  0  0  0
  153.2224  144.9011  159.9662 H   0  0  0  0  0  0  0  0  0  0  0  0
  148.2377  139.0915  153.6848 H   0  0  0  0  0  0  0  0  0  0  0  0
  147.1615  140.1138  152.7814 H   0  0  0  0  0  0  0  0  0  0  0  0
  1  2  1  0  0  0  0
  1 21  1  0  0  0  0
  1 22  1  0  0  0  0
  1 23  1  0  0  0  0
  2 20  1  0  0  0  0
  2  3  1  0  0  0  0
  2 24  1  0  0  0  0
  3  4  1  0  0  0  0
  3 25  1  0  0  0  0
  3 26  1  0  0  0  0
  4  5  1  0  0  0  0
  4 27  1  0  0  0  0
  4 28  1  0  0  0  0
  5  6  1  0  0  0  0
  5 29  1  0  0  0  0
  5 30  1  0  0  0  0
  6  7  1  0  0  0  0
  6 20  1  0  0  0  0
  7  8  2  0  0  0  0
  7  9  1  0  0  0  0
  9 10  1  0  0  0  0
  9 31  1  0  0  0  0
 10 11  1  0  0  0  0
 10 32  1  0  0  0  0
 10 33  1  0  0  0  0
 11 12  1  0  0  0  0
 11 34  1  0  0  0  0
 11 35  1  0  0  0  0
 12 16  1  0  0  0  0
 12 13  2  0  0  0  0
 13 14  1  0  0  0  0
 14 15  2  0  0  0  0
 14 36  1  0  0  0  0
 15 16  1  0  0  0  0
 15 37  1  0  0  0  0
 16 17  1  0  0  0  0
 17 18  1  0  0  0  0
 17 19  1  0  0  0  0
 17 38  1  0  0  0  0
 20 39  1  0  0  0  0
 20 40  1  0  0  0  0
M  END
> <s_m_source_file>
AV-unprocessed.smi

> <i_m_source_file_index>
1049

> <i_lp_mmshare_version>
43012

> <i_f3d_flags>
0

> <s_epik_input>
W0NIM11bQ0BASF0xW0NIMl1bQ0gyXVtDSDJdTihbQ0gyXTEpQyg9TylbTkhdW0NIMl1bQ0gyXWMybltjSF1bY0hdbjJbQ0hdKEYpRg==

> <s_epik_cmdline>
J2VwaWtfcHl0aG9uJywgJy1waCcsICc3LjAnLCAnLXRuJywgJzgnLCAnLW1hJywgJzIwMCcsICctbWV0YWxfYmluZGluZycsICctaW1hZScsICc8aW5maWxlLm1hZT4nLCAnLW9tYWUnLCAnPG91dGZpbGUubWFlPic=

> <r_lp_tautomer_probability>
1

> <r_epik_Ionization_Penalty>
0.101141

> <r_epik_Ionization_Penalty_Charging>
0.101077

> <r_epik_Ionization_Penalty_Neutral>
6.38597e-05

> <r_epik_State_Penalty>
0.091079

> <r_epik_Charging_Adjusted_Penalty>
0.192156

> <i_epik_Tot_Q>
0

> <i_epik_Tot_abs_Q>
0

> <r_epik_Metal_State_Penalty>
0.0777008

> <b_epik_Metal_Only>
0

> <s_lp_Force_Field>
OPLS_2005

> <r_lp_Energy>
32.1831

> <b_lp_Chiralities_Consistent>
1

> <s_lp_Variant>
AV-unprocessed.smi:1049-1

> <Gold.Version>
5.8.1

> <Gold.Id.Protein>
6NUR|6NUR_protein|mol2

> <Gold.PLP.Fitness>
52.0646

> <Gold.PLP.PLP>
-47.4625

> <Gold.PLP.part.hbond>
-2.0000

> <Gold.PLP.part.metal>
0.0000

> <Gold.PLP.part.buried>
-4.7224

> <Gold.PLP.part.nonpolar>
-40.0454

> <Gold.PLP.part.repulsive>
0.2454

> <Gold.PLP.ligand.clash>
0.0000

> <Gold.PLP.ligand.torsion>
0.6117

> <Gold.PLP.Chemscore.Hbond>
1.8960

> <Gold.PLP.Chemscore.CHOScore>
0.0000

> <Gold.PLP.Chemscore.Metal>
0.0000

> <Gold.Chemscore.Hbonds>
donor molecule, donor type, donor heavy atom, donor atom, acceptor molecule, acceptor atom, score
      L1  H     9    31       P1  8028  0.82
      P1  H  7989  7998       L1     8  1.00

> <Gold.PLP.Chemscore.Internal.Correction>
0.1373

> <Gold.Rescore>
     Score         DG    S(hbond)    S(metal)    S(lipo)     H(rot)  DE(clash)    DE(int)     intcor
     15.04     -15.61       1.62        0.00      74.47       1.56       0.16       0.40       ----

> <Gold.Chemscore.Fitness>
15.0438

> <Gold.Chemscore.DG>
-15.6076

> <Gold.Chemscore.ZeroCoef>
-5.4800

> <Gold.Chemscore.Hbond>
1.6213

> <Gold.Chemscore.Metal>
0.0000

> <Gold.Chemscore.Lipo>
74.4671

> <Gold.Chemscore.Internal_Hbond>
0.0000

> <Gold.Chemscore.DEClash>
0.1623

> <Gold.Chemscore.DEInternal>
0.4014

> <Gold.Chemscore.Rot>
1.5626

> <Gold.Chemscore.Internal.Correction>
   9.000000E+99

> <Gold.Chemscore.Hbonds>
donor molecule, donor type, donor heavy atom, donor atom, acceptor molecule, acceptor atom, score
      L1  H     9    31       P1  8028  0.81
      P1  H  7989  7998       L1     8  0.54

> <Gold.Chemscore.Hbond.Weighted>
-5.4153

> <Gold.Chemscore.Metal.Weighted>
-0.0000

> <Gold.Chemscore.Lipo.Weighted>
-8.7126

> <Gold.Chemscore.Internal_Hbond.Weighted>
0.0000

> <Gold.Chemscore.DEClash.Weighted>
0.1623

> <Gold.Chemscore.DEInternal.Weighted>
0.4014

> <Gold.Chemscore.Rot.Weighted>
4.0004

> <Gold.Chemscore.Internal.Correction.Weighted>
   9.000000E+99

> <Gold.Protein.RotatedTorsions>
[ 6907 6896 6895 6894 ] final  -28.96 input  -60.11 | X-H torsion
[ 7974 7965 7964 7962 ] final -174.24 input  175.53 | X-H torsion
[ 8008 7997 7996 7995 ] final -124.33 input   59.86 | X-H torsion
[ 10167 10162 10161 10158 ] final -172.34 input  -65.29 | X-H torsion
[ 10718 10713 10712 10709 ] final  122.76 input   66.30 | X-H torsion
[ 10763 10752 10751 10750 ] final  168.65 input  -60.55 | X-H torsion
[ 11005 11000 10999 10996 ] final   44.67 input  -57.11 | X-H torsion

> <Gold.Protein.ActiveResidues>
 VAL166  LYS551  ARG553  GLY616  TRP617  ASP618  TYR619  PRO620  LYS621  CYS622 
 ASP623  PHE694  ASN695  SER759  ASP760  ASP761  ALA762  ILE779  LEU786  VAL792 
 PHE793  MET794  SER795  GLU796  ALA797  LYS798  CYS799  TRP800  GLU811  SER814 

> <Gold.Protein.RotatedAtoms>
  151.1257  135.0103  159.8559 H   0  0  0  0  0  0  0  0  0  0  0  0  # atno 6907 bound_to 6896
  152.5449  134.1669  159.8591 H   0  0  0  0  0  0  0  0  0  0  0  0  # atno 6908 bound_to 6896
  151.1731  133.4726  159.2627 H   0  0  0  0  0  0  0  0  0  0  0  0  # atno 6909 bound_to 6896
  144.7133  140.1502  143.6385 H   0  0  0  0  0  0  0  0  0  0  0  0  # atno 7974 bound_to 7965
  155.1951  140.0414  157.2907 H   0  0  0  0  0  0  0  0  0  0  0  0  # atno 8008 bound_to 7997
  154.6112  140.2477  155.7638 H   0  0  0  0  0  0  0  0  0  0  0  0  # atno 8009 bound_to 7997
  156.2380  140.2914  156.0375 H   0  0  0  0  0  0  0  0  0  0  0  0  # atno 8010 bound_to 7997
  139.5750  144.1554  152.1437 H   0  0  0  0  0  0  0  0  0  0  0  0  # atno 10167 bound_to 10162
  157.5718  131.1082  150.8353 H   0  0  0  0  0  0  0  0  0  0  0  0  # atno 10718 bound_to 10713
  154.3716  135.2753  155.2263 H   0  0  0  0  0  0  0  0  0  0  0  0  # atno 10763 bound_to 10752
  154.4408  135.5955  153.6131 H   0  0  0  0  0  0  0  0  0  0  0  0  # atno 10764 bound_to 10752
  152.9838  135.6018  154.3948 H   0  0  0  0  0  0  0  0  0  0  0  0  # atno 10765 bound_to 10752
  140.1530  134.4437  155.8369 H   0  0  0  0  0  0  0  0  0  0  0  0  # atno 11005 bound_to 11000
  145.9123  139.2495  143.1430 LP  0  0  0  0  0  0  0  0  0  0  0  0  # atno 17320 bound_to 7965
  145.9703  140.8765  143.0166 LP  0  0  0  0  0  0  0  0  0  0  0  0  # atno 17321 bound_to 7965
  140.1094  144.5470  150.6935 LP  0  0  0  0  0  0  0  0  0  0  0  0  # atno 17342 bound_to 10162
  140.7033  143.2450  151.4801 LP  0  0  0  0  0  0  0  0  0  0  0  0  # atno 17343 bound_to 10162
  156.8823  130.5183  149.5290 LP  0  0  0  0  0  0  0  0  0  0  0  0  # atno 17370 bound_to 10713
  156.0763  130.5784  150.9479 LP  0  0  0  0  0  0  0  0  0  0  0  0  # atno 17371 bound_to 10713
  141.2201  133.6880  156.7456 LP  0  0  0  0  0  0  0  0  0  0  0  0  # atno 17394 bound_to 11000
  140.2581  134.8488  157.3733 LP  0  0  0  0  0  0  0  0  0  0  0  0  # atno 17395 bound_to 11000

$$$$
