AV-unprocessed.smi:158|AV-procd|sdf|1333|dock3
  -GOLD-   2262019 33D 1   1.00000     0.00000
 Structure written by MMmdl.
 31 33  0  0  0  0  0  0  0  0  1 V2000
  143.9785  142.4487  154.8962 N   0  0  0  0  0  0  0  0  0  0  0  0
  145.1802  142.3628  155.4835 C   0  0  0  0  0  0  0  0  0  0  0  0
  145.3128  142.8269  156.7472 N   0  0  0  0  0  0  0  0  0  0  0  0
  146.4957  142.7607  157.3688 C   0  0  0  0  0  0  0  0  0  0  0  0
  146.5544  143.3801  158.9767 Cl  0  0  0  0  0  0  0  0  0  0  0  0
  147.6395  142.2694  156.8821 N   0  0  0  0  0  0  0  0  0  0  0  0
  147.5152  141.7984  155.6069 C   0  0  0  0  0  0  0  0  0  0  0  0
  146.3163  141.8102  154.8429 C   0  0  0  0  0  0  0  0  0  0  0  0
  146.5434  141.2541  153.5926 N   0  0  0  0  0  0  0  0  0  0  0  0
  147.8085  140.9334  153.6194 C   0  0  0  0  0  0  0  0  0  0  0  0
  148.4763  141.2294  154.7882 N   0  0  0  0  0  0  0  0  0  0  0  0
  149.9299  140.9712  155.0696 C   0  0  2  0  0  0  0  0  0  0  0  0
  150.4476  140.0971  154.1067 O   0  0  0  0  0  0  0  0  0  0  0  0
  150.6793  138.7893  154.6478 C   0  0  1  0  0  0  0  0  0  0  0  0
  152.2074  138.5791  154.7037 C   0  0  0  0  0  0  0  0  0  0  0  0
  152.8447  139.7892  155.0527 O   0  0  0  0  0  0  0  0  0  0  0  0
  149.9688  138.8236  156.0125 C   0  0  1  0  0  0  0  0  0  0  0  0
  150.4648  137.9348  156.9944 O   0  0  0  0  0  0  0  0  0  0  0  0
  150.0795  140.2783  156.4233 C   0  0  1  0  0  0  0  0  0  0  0  0
  151.2891  140.5693  156.9063 F   0  0  0  0  0  0  0  0  0  0  0  0
  150.3932  141.9569  155.0160 H   0  0  0  0  0  0  0  0  0  0  0  0
  150.2244  138.0235  154.0179 H   0  0  0  0  0  0  0  0  0  0  0  0
  148.9148  138.5851  155.8645 H   0  0  0  0  0  0  0  0  0  0  0  0
  149.3317  140.6056  157.1468 H   0  0  0  0  0  0  0  0  0  0  0  0
  143.8548  142.1096  153.9530 H   0  0  0  0  0  0  0  0  0  0  0  0
  143.1996  142.8515  155.3965 H   0  0  0  0  0  0  0  0  0  0  0  0
  148.2980  140.4702  152.7749 H   0  0  0  0  0  0  0  0  0  0  0  0
  152.4838  137.7948  155.4084 H   0  0  0  0  0  0  0  0  0  0  0  0
  152.5999  138.2910  153.7288 H   0  0  0  0  0  0  0  0  0  0  0  0
  152.1866  140.4620  155.1371 H   0  0  0  0  0  0  0  0  0  0  0  0
  151.2833  138.2761  157.3214 H   0  0  0  0  0  0  0  0  0  0  0  0
  1  2  1  0  0  0  0
  1 25  1  0  0  0  0
  1 26  1  0  0  0  0
  2  8  1  0  0  0  0
  2  3  2  0  0  0  0
  3  4  1  0  0  0  0
  4  5  1  0  0  0  0
  4  6  2  0  0  0  0
  6  7  1  0  0  0  0
  7 11  1  0  0  0  0
  7  8  2  0  0  0  0
  8  9  1  0  0  0  0
  9 10  2  0  0  0  0
 10 11  1  0  0  0  0
 10 27  1  0  0  0  0
 11 12  1  0  0  0  0
 12 21  1  0  0  0  0
 12 19  1  0  0  0  0
 12 13  1  0  0  0  0
 13 14  1  0  0  0  0
 14 22  1  0  0  0  0
 14 15  1  0  0  0  0
 14 17  1  0  0  0  0
 15 16  1  0  0  0  0
 15 28  1  0  0  0  0
 15 29  1  0  0  0  0
 16 30  1  0  0  0  0
 17 23  1  0  0  0  0
 17 18  1  0  0  0  0
 17 19  1  0  0  0  0
 18 31  1  0  0  0  0
 19 24  1  0  0  0  0
 19 20  1  0  0  0  0
M  END
> <s_m_source_file>
AV-unprocessed.smi

> <i_m_source_file_index>
158

> <i_lp_mmshare_version>
43012

> <i_f3d_flags>
0

> <s_epik_input>
Q2xjKG4xKW5jKFtOSDJdKWMoYzEyKW5bY0hdbjJbQ0BASF0zT1tDQEhdKFtDSDJdW09IXSlbQ0BASF0oW09IXSlbQ0BASF0zRg==

> <s_epik_cmdline>
J2VwaWtfcHl0aG9uJywgJy1waCcsICc3LjAnLCAnLXRuJywgJzgnLCAnLW1hJywgJzIwMCcsICctbWV0YWxfYmluZGluZycsICctaW1hZScsICc8aW5maWxlLm1hZT4nLCAnLW9tYWUnLCAnPG91dGZpbGUubWFlPic=

> <r_lp_tautomer_probability>
1

> <r_epik_Ionization_Penalty>
6.51543e-05

> <r_epik_Ionization_Penalty_Charging>
0

> <r_epik_Ionization_Penalty_Neutral>
6.51543e-05

> <r_epik_State_Penalty>
-0

> <r_epik_Charging_Adjusted_Penalty>
0

> <i_epik_Tot_Q>
0

> <i_epik_Tot_abs_Q>
0

> <r_epik_Metal_State_Penalty>
-0

> <b_epik_Metal_Only>
0

> <s_epik_Chemistry_Notes>
This compound contains an acetal/aminal-like group ( X-CH(R)-Y where X, Y are N, S, or O) that may be acid/base labile, releasing an aldehyde.

> <s_lp_Force_Field>
OPLS_2005

> <r_lp_Energy>
36.1336

> <b_lp_Chiralities_Consistent>
1

> <s_lp_Variant>
AV-unprocessed.smi:158-11

> <Gold.Version>
5.8.1

> <Gold.Id.Protein>
6NUR|6NUR_protein|mol2

> <Gold.PLP.Fitness>
36.7925

> <Gold.PLP.PLP>
-27.5730

> <Gold.PLP.part.hbond>
-4.6121

> <Gold.PLP.part.metal>
0.0000

> <Gold.PLP.part.buried>
-2.7435

> <Gold.PLP.part.nonpolar>
-22.0079

> <Gold.PLP.part.repulsive>
1.2223

> <Gold.PLP.ligand.clash>
0.0000

> <Gold.PLP.ligand.torsion>
0.4857

> <Gold.PLP.Chemscore.Hbond>
2.3920

> <Gold.PLP.Chemscore.CHOScore>
1.0000

> <Gold.PLP.Chemscore.Metal>
0.0000

> <Gold.Chemscore.Hbonds>
donor molecule, donor type, donor heavy atom, donor atom, acceptor molecule, acceptor atom, score
      L1  H     1    25       P1 10175  0.07
      P1  H  7989  7998       L1    13  1.00
      P1  H  7997  8009       L1    16  1.00
      L1  C    10    27       P1  7957  1.00

> <Gold.PLP.Chemscore.Internal.Correction>
0.0150

> <Gold.Rescore>
     Score         DG    S(hbond)    S(metal)    S(lipo)     H(rot)  DE(clash)    DE(int)     intcor
      5.83      -8.68       2.39        0.00      27.53       3.12       0.45       2.39       ----

> <Gold.Chemscore.Fitness>
5.8295

> <Gold.Chemscore.DG>
-8.6787

> <Gold.Chemscore.ZeroCoef>
-5.4800

> <Gold.Chemscore.Hbond>
2.3872

> <Gold.Chemscore.Metal>
0.0000

> <Gold.Chemscore.Lipo>
27.5258

> <Gold.Chemscore.Internal_Hbond>
0.0000

> <Gold.Chemscore.DEClash>
0.4548

> <Gold.Chemscore.DEInternal>
2.3944

> <Gold.Chemscore.Rot>
3.1230

> <Gold.Chemscore.Internal.Correction>
   9.000000E+99

> <Gold.Chemscore.Hbonds>
donor molecule, donor type, donor heavy atom, donor atom, acceptor molecule, acceptor atom, score
      P1  H  7989  7998       L1    13  0.40
      P1  H  7997  8009       L1    16  0.74

> <Gold.Chemscore.Hbond.Weighted>
-7.9732

> <Gold.Chemscore.Metal.Weighted>
-0.0000

> <Gold.Chemscore.Lipo.Weighted>
-3.2205

> <Gold.Chemscore.Internal_Hbond.Weighted>
0.0000

> <Gold.Chemscore.DEClash.Weighted>
0.4548

> <Gold.Chemscore.DEInternal.Weighted>
2.3944

> <Gold.Chemscore.Rot.Weighted>
7.9950

> <Gold.Chemscore.Internal.Correction.Weighted>
   9.000000E+99

> <Gold.Protein.RotatedTorsions>
[ 6907 6896 6895 6894 ] final -150.78 input  -60.11 | X-H torsion
[ 7974 7965 7964 7962 ] final  -41.22 input  175.53 | X-H torsion
[ 8008 7997 7996 7995 ] final -157.25 input   59.86 | X-H torsion
[ 10167 10162 10161 10158 ] final    3.74 input  -65.29 | X-H torsion
[ 10718 10713 10712 10709 ] final  179.41 input   66.30 | X-H torsion
[ 10763 10752 10751 10750 ] final   34.29 input  -60.55 | X-H torsion
[ 11005 11000 10999 10996 ] final -172.37 input  -57.11 | X-H torsion

> <Gold.Protein.ActiveResidues>
 VAL166  LYS551  ARG553  GLY616  TRP617  ASP618  TYR619  PRO620  LYS621  CYS622 
 ASP623  PHE694  ASN695  SER759  ASP760  ASP761  ALA762  ILE779  LEU786  VAL792 
 PHE793  MET794  SER795  GLU796  ALA797  LYS798  CYS799  TRP800  GLU811  SER814 

> <Gold.Protein.RotatedAtoms>
  151.2035  133.4597  159.2596 H   0  0  0  0  0  0  0  0  0  0  0  0  # atno 6907 bound_to 6896
  151.1046  134.9992  159.8475 H   0  0  0  0  0  0  0  0  0  0  0  0  # atno 6908 bound_to 6896
  152.5446  134.1959  159.8745 H   0  0  0  0  0  0  0  0  0  0  0  0  # atno 6909 bound_to 6896
  146.0231  140.6825  142.9169 H   0  0  0  0  0  0  0  0  0  0  0  0  # atno 7974 bound_to 7965
  155.7296  140.0800  157.2295 H   0  0  0  0  0  0  0  0  0  0  0  0  # atno 8008 bound_to 7997
  154.4034  140.1598  156.2548 H   0  0  0  0  0  0  0  0  0  0  0  0  # atno 8009 bound_to 7997
  155.9121  140.3403  155.6110 H   0  0  0  0  0  0  0  0  0  0  0  0  # atno 8010 bound_to 7997
  140.6570  143.7401  150.7671 H   0  0  0  0  0  0  0  0  0  0  0  0  # atno 10167 bound_to 10162
  156.8761  130.9800  151.3067 H   0  0  0  0  0  0  0  0  0  0  0  0  # atno 10718 bound_to 10713
  153.0171  135.6364  154.1645 H   0  0  0  0  0  0  0  0  0  0  0  0  # atno 10763 bound_to 10752
  154.1383  135.2836  155.3169 H   0  0  0  0  0  0  0  0  0  0  0  0  # atno 10764 bound_to 10752
  154.6143  135.5546  153.7568 H   0  0  0  0  0  0  0  0  0  0  0  0  # atno 10765 bound_to 10752
  140.4977  134.5923  157.4977 H   0  0  0  0  0  0  0  0  0  0  0  0  # atno 11005 bound_to 11000
  144.6998  140.3601  143.7165 LP  0  0  0  0  0  0  0  0  0  0  0  0  # atno 17320 bound_to 7965
  145.7161  139.1697  143.2511 LP  0  0  0  0  0  0  0  0  0  0  0  0  # atno 17321 bound_to 7965
  140.1063  143.4741  152.2396 LP  0  0  0  0  0  0  0  0  0  0  0  0  # atno 17342 bound_to 10162
  139.5795  144.7503  151.3677 LP  0  0  0  0  0  0  0  0  0  0  0  0  # atno 17343 bound_to 10162
  157.6167  130.8624  149.9041 LP  0  0  0  0  0  0  0  0  0  0  0  0  # atno 17370 bound_to 10713
  156.0701  130.3686  150.0794 LP  0  0  0  0  0  0  0  0  0  0  0  0  # atno 17371 bound_to 10713
  139.9731  134.7259  156.0001 LP  0  0  0  0  0  0  0  0  0  0  0  0  # atno 17394 bound_to 11000
  141.1451  133.6557  156.3845 LP  0  0  0  0  0  0  0  0  0  0  0  0  # atno 17395 bound_to 11000

$$$$
