AV-unprocessed.smi:1535|AV-procd|sdf|6173|dock8
  -GOLD-   22720 6323D 1   1.00000     0.00000
 Structure written by MMmdl.
 46 47  0  0  0  0  0  0  0  0  1 V2000
  153.2956  142.1851  161.8885 C   0  0  0  0  0  0  0  0  0  0  0  0
  152.7206  142.0947  160.4861 C   0  0  0  0  0  0  0  0  0  0  0  0
  153.0092  140.9584  159.6973 C   0  0  0  0  0  0  0  0  0  0  0  0
  152.4922  140.8346  158.3891 C   0  0  0  0  0  0  0  0  0  0  0  0
  152.6442  139.8240  157.4554 N   0  0  0  0  0  0  0  0  0  0  0  0
  151.9226  140.2880  156.4393 C   0  0  0  0  0  0  0  0  0  0  0  0
  151.3215  141.4819  156.6034 N   0  0  0  0  0  0  0  0  0  0  0  0
  150.4888  142.1770  155.6375 C   0  0  0  0  0  0  0  0  0  0  0  0
  149.1870  141.4143  155.3259 C   0  0  1  0  0  0  0  0  0  0  0  0
  148.3265  142.2509  154.5770 O   0  0  0  0  0  0  0  0  0  0  0  0
  149.4642  140.1331  154.5107 C   0  0  0  0  0  0  0  0  0  0  0  0
  148.4025  139.1223  154.5254 N   0  0  0  0  0  0  0  0  0  0  0  0
  147.4207  139.4230  153.4885 C   0  0  0  0  0  0  0  0  0  0  0  0
  148.9292  137.7614  154.3698 C   0  0  0  0  0  0  0  0  0  0  0  0
  150.1564  137.4235  155.2384 C   0  0  1  0  0  0  0  0  0  0  0  0
  150.0663  135.9953  155.7903 C   0  0  0  0  0  0  0  0  0  0  0  0
  151.4145  137.6132  154.4972 C   0  0  0  0  0  0  0  0  0  0  0  0
  152.4036  137.7623  153.9155 N   0  0  0  0  0  0  0  0  0  0  0  0
  151.6722  141.8873  157.8869 C   0  0  0  0  0  0  0  0  0  0  0  0
  151.3791  143.0234  158.6618 C   0  0  0  0  0  0  0  0  0  0  0  0
  151.9045  143.1315  159.9665 C   0  0  0  0  0  0  0  0  0  0  0  0
  151.5824  144.3627  160.7949 C   0  0  0  0  0  0  0  0  0  0  0  0
  153.8575  141.2871  162.1471 H   0  0  0  0  0  0  0  0  0  0  0  0
  152.4983  142.3023  162.6227 H   0  0  0  0  0  0  0  0  0  0  0  0
  153.9703  143.0376  161.9699 H   0  0  0  0  0  0  0  0  0  0  0  0
  153.6315  140.1689  160.0921 H   0  0  0  0  0  0  0  0  0  0  0  0
  151.8231  139.7275  155.5213 H   0  0  0  0  0  0  0  0  0  0  0  0
  150.2698  143.1765  156.0155 H   0  0  0  0  0  0  0  0  0  0  0  0
  151.0713  142.3111  154.7250 H   0  0  0  0  0  0  0  0  0  0  0  0
  148.6979  141.1828  156.2706 H   0  0  0  0  0  0  0  0  0  0  0  0
  148.4104  143.1350  154.8995 H   0  0  0  0  0  0  0  0  0  0  0  0
  149.6629  140.4353  153.4812 H   0  0  0  0  0  0  0  0  0  0  0  0
  150.3902  139.6763  154.8640 H   0  0  0  0  0  0  0  0  0  0  0  0
  146.5613  138.7566  153.5489 H   0  0  0  0  0  0  0  0  0  0  0  0
  147.8568  139.3329  152.4927 H   0  0  0  0  0  0  0  0  0  0  0  0
  147.0389  140.4386  153.5996 H   0  0  0  0  0  0  0  0  0  0  0  0
  148.1349  137.0409  154.5712 H   0  0  0  0  0  0  0  0  0  0  0  0
  149.2239  137.5936  153.3359 H   0  0  0  0  0  0  0  0  0  0  0  0
  150.2001  138.0977  156.0927 H   0  0  0  0  0  0  0  0  0  0  0  0
  150.9215  135.7689  156.4275 H   0  0  0  0  0  0  0  0  0  0  0  0
  150.0484  135.2608  154.9844 H   0  0  0  0  0  0  0  0  0  0  0  0
  149.1639  135.8601  156.3872 H   0  0  0  0  0  0  0  0  0  0  0  0
  150.7532  143.8039  158.2556 H   0  0  0  0  0  0  0  0  0  0  0  0
  150.9906  145.0811  160.2269 H   0  0  0  0  0  0  0  0  0  0  0  0
  152.4982  144.8621  161.1117 H   0  0  0  0  0  0  0  0  0  0  0  0
  151.0132  144.0858  161.6823 H   0  0  0  0  0  0  0  0  0  0  0  0
  1  2  1  0  0  0  0
  1 23  1  0  0  0  0
  1 24  1  0  0  0  0
  1 25  1  0  0  0  0
  2 21  1  0  0  0  0
  2  3  2  0  0  0  0
  3  4  1  0  0  0  0
  3 26  1  0  0  0  0
  4 19  2  0  0  0  0
  4  5  1  0  0  0  0
  5  6  2  0  0  0  0
  6  7  1  0  0  0  0
  6 27  1  0  0  0  0
  7  8  1  0  0  0  0
  7 19  1  0  0  0  0
  8  9  1  0  0  0  0
  8 28  1  0  0  0  0
  8 29  1  0  0  0  0
  9 10  1  0  0  0  0
  9 11  1  0  0  0  0
  9 30  1  0  0  0  0
 10 31  1  0  0  0  0
 11 12  1  0  0  0  0
 11 32  1  0  0  0  0
 11 33  1  0  0  0  0
 12 13  1  0  0  0  0
 12 14  1  0  0  0  0
 13 34  1  0  0  0  0
 13 35  1  0  0  0  0
 13 36  1  0  0  0  0
 14 15  1  0  0  0  0
 14 37  1  0  0  0  0
 14 38  1  0  0  0  0
 15 16  1  0  0  0  0
 15 17  1  0  0  0  0
 15 39  1  0  0  0  0
 16 40  1  0  0  0  0
 16 41  1  0  0  0  0
 16 42  1  0  0  0  0
 17 18  3  0  0  0  0
 19 20  1  0  0  0  0
 20 21  2  0  0  0  0
 20 43  1  0  0  0  0
 21 22  1  0  0  0  0
 22 44  1  0  0  0  0
 22 45  1  0  0  0  0
 22 46  1  0  0  0  0
M  END
> <s_m_source_file>
AV-unprocessed.smi

> <i_m_source_file_index>
1535

> <i_lp_mmshare_version>
43012

> <i_f3d_flags>
0

> <s_epik_input>
W0NIM11jKFtjSF0xKWMoW0NIM10pW2NIXWMoYzEyKW4oW2NIXW4yKVtDSDJdW0NASF0oW09IXSlbQ0gyXU4oW0NIM10pW0NIMl1bQ0BIXShbQ0gzXSlDI04=

> <s_epik_cmdline>
J2VwaWtfcHl0aG9uJywgJy1waCcsICc3LjAnLCAnLXRuJywgJzgnLCAnLW1hJywgJzIwMCcsICctbWV0YWxfYmluZGluZycsICctaW1hZScsICc8aW5maWxlLm1hZT4nLCAnLW9tYWUnLCAnPG91dGZpbGUubWFlPic=

> <r_epik_Ionization_Penalty>
0.098511

> <r_epik_Ionization_Penalty_Charging>
0

> <r_epik_Ionization_Penalty_Neutral>
0.098511

> <r_epik_State_Penalty>
0.0881608

> <r_epik_Charging_Adjusted_Penalty>
0.0881608

> <i_epik_Tot_Q>
0

> <i_epik_Tot_abs_Q>
0

> <r_epik_Metal_State_Penalty>
0.0128087

> <b_epik_Metal_Only>
0

> <s_lp_Force_Field>
OPLS_2005

> <r_lp_Energy>
24.0286

> <b_lp_Chiralities_Consistent>
1

> <s_lp_Variant>
AV-unprocessed.smi:1535-4

> <Gold.Version>
5.8.1

> <Gold.Id.Protein>
6NUR|6NUR_protein|mol2

> <Gold.PLP.Fitness>
48.5315

> <Gold.PLP.PLP>
-42.4470

> <Gold.PLP.part.hbond>
-3.6357

> <Gold.PLP.part.metal>
0.0000

> <Gold.PLP.part.buried>
-4.2081

> <Gold.PLP.part.nonpolar>
-34.0602

> <Gold.PLP.part.repulsive>
0.2664

> <Gold.PLP.ligand.clash>
0.0000

> <Gold.PLP.ligand.torsion>
1.1741

> <Gold.PLP.Chemscore.Hbond>
2.7820

> <Gold.PLP.Chemscore.CHOScore>
0.0000

> <Gold.PLP.Chemscore.Metal>
0.0000

> <Gold.Chemscore.Hbonds>
donor molecule, donor type, donor heavy atom, donor atom, acceptor molecule, acceptor atom, score
      L1  H    10    31       P1  8028  1.00
      P1  H  7997  8010       L1     5  1.00
      P1  H 10752 10765       L1    18  0.31

> <Gold.PLP.Chemscore.Internal.Correction>
0.0867

> <Gold.Rescore>
     Score         DG    S(hbond)    S(metal)    S(lipo)     H(rot)  DE(clash)    DE(int)     intcor
     17.45     -19.16       1.91        0.00     117.34       2.51       0.51       1.19       ----

> <Gold.Chemscore.Fitness>
17.4547

> <Gold.Chemscore.DG>
-19.1573

> <Gold.Chemscore.ZeroCoef>
-5.4800

> <Gold.Chemscore.Hbond>
1.9095

> <Gold.Chemscore.Metal>
0.0000

> <Gold.Chemscore.Lipo>
117.3367

> <Gold.Chemscore.Internal_Hbond>
0.0000

> <Gold.Chemscore.DEClash>
0.5147

> <Gold.Chemscore.DEInternal>
1.1879

> <Gold.Chemscore.Rot>
2.5113

> <Gold.Chemscore.Internal.Correction>
   9.000000E+99

> <Gold.Chemscore.Hbonds>
donor molecule, donor type, donor heavy atom, donor atom, acceptor molecule, acceptor atom, score
      L1  H    10    31       P1  8028  1.00
      P1  H  7997  8010       L1     5  0.15
      P1  H 10752 10765       L1    18  0.03

> <Gold.Chemscore.Hbond.Weighted>
-6.3778

> <Gold.Chemscore.Metal.Weighted>
-0.0000

> <Gold.Chemscore.Lipo.Weighted>
-13.7284

> <Gold.Chemscore.Internal_Hbond.Weighted>
0.0000

> <Gold.Chemscore.DEClash.Weighted>
0.5147

> <Gold.Chemscore.DEInternal.Weighted>
1.1879

> <Gold.Chemscore.Rot.Weighted>
6.4289

> <Gold.Chemscore.Internal.Correction.Weighted>
   9.000000E+99

> <Gold.Protein.RotatedTorsions>
[ 6907 6896 6895 6894 ] final  -78.04 input  -60.11 | X-H torsion
[ 7974 7965 7964 7962 ] final -157.03 input  175.53 | X-H torsion
[ 8008 7997 7996 7995 ] final   44.09 input   59.86 | X-H torsion
[ 10167 10162 10161 10158 ] final -160.27 input  -65.29 | X-H torsion
[ 10718 10713 10712 10709 ] final  -66.27 input   66.30 | X-H torsion
[ 10763 10752 10751 10750 ] final  155.37 input  -60.55 | X-H torsion
[ 11005 11000 10999 10996 ] final -110.21 input  -57.11 | X-H torsion

> <Gold.Protein.ActiveResidues>
 VAL166  LYS551  ARG553  GLY616  TRP617  ASP618  TYR619  PRO620  LYS621  CYS622 
 ASP623  PHE694  ASN695  SER759  ASP760  ASP761  ALA762  ILE779  LEU786  VAL792 
 PHE793  MET794  SER795  GLU796  ALA797  LYS798  CYS799  TRP800  GLU811  SER814 

> <Gold.Protein.RotatedAtoms>
  150.6983  134.4332  159.5257 H   0  0  0  0  0  0  0  0  0  0  0  0  # atno 6907 bound_to 6896
  152.2055  134.8546  160.0512 H   0  0  0  0  0  0  0  0  0  0  0  0  # atno 6908 bound_to 6896
  151.9450  133.3614  159.4016 H   0  0  0  0  0  0  0  0  0  0  0  0  # atno 6909 bound_to 6896
  144.7566  140.4027  143.6007 H   0  0  0  0  0  0  0  0  0  0  0  0  # atno 7974 bound_to 7965
  155.3135  140.3392  155.4243 H   0  0  0  0  0  0  0  0  0  0  0  0  # atno 8008 bound_to 7997
  156.1944  140.1709  156.8066 H   0  0  0  0  0  0  0  0  0  0  0  0  # atno 8009 bound_to 7997
  154.5480  140.0711  156.8605 H   0  0  0  0  0  0  0  0  0  0  0  0  # atno 8010 bound_to 7997
  139.6552  144.0012  152.2189 H   0  0  0  0  0  0  0  0  0  0  0  0  # atno 10167 bound_to 10162
  156.0622  130.4259  150.1685 H   0  0  0  0  0  0  0  0  0  0  0  0  # atno 10718 bound_to 10713
  154.1673  135.2806  155.3091 H   0  0  0  0  0  0  0  0  0  0  0  0  # atno 10763 bound_to 10752
  154.6102  135.5501  153.7468 H   0  0  0  0  0  0  0  0  0  0  0  0  # atno 10764 bound_to 10752
  153.0175  135.6413  154.1813 H   0  0  0  0  0  0  0  0  0  0  0  0  # atno 10765 bound_to 10752
  141.0805  133.9228  157.2299 H   0  0  0  0  0  0  0  0  0  0  0  0  # atno 11005 bound_to 11000
  145.6757  139.1608  143.2729 LP  0  0  0  0  0  0  0  0  0  0  0  0  # atno 17320 bound_to 7965
  146.1584  140.6824  142.9289 LP  0  0  0  0  0  0  0  0  0  0  0  0  # atno 17321 bound_to 7965
  139.9737  144.6476  150.7965 LP  0  0  0  0  0  0  0  0  0  0  0  0  # atno 17342 bound_to 10162
  140.7556  143.3049  151.2988 LP  0  0  0  0  0  0  0  0  0  0  0  0  # atno 17343 bound_to 10162
  156.9751  130.9847  151.3450 LP  0  0  0  0  0  0  0  0  0  0  0  0  # atno 17370 bound_to 10713
  157.5638  130.8264  149.8301 LP  0  0  0  0  0  0  0  0  0  0  0  0  # atno 17371 bound_to 10713
  139.9618  135.0152  156.9282 LP  0  0  0  0  0  0  0  0  0  0  0  0  # atno 17394 bound_to 11000
  140.5480  134.0655  155.7360 LP  0  0  0  0  0  0  0  0  0  0  0  0  # atno 17395 bound_to 11000

$$$$
