AV-unprocessed.smi:274|AV-procd|sdf|2060|dock2
  -GOLD-   2262021303D 1   1.00000     0.00000
 Structure written by MMmdl.
 50 53  0  0  0  0  0  0  0  0  1 V2000
  151.3010  141.9040  156.6621 C   0  0  0  0  0  0  0  0  0  0  0  0
  149.7655  141.7699  156.6183 C   0  0  0  0  0  0  0  0  0  0  0  0
  149.1898  142.1659  157.9933 C   0  0  0  0  0  0  0  0  0  0  0  0
  149.2775  140.3578  156.1640 C   0  0  2  0  0  0  0  0  0  0  0  0
  149.7160  140.0106  154.7185 C   0  0  0  0  0  0  0  0  0  0  0  0
  150.8758  139.6704  154.4942 O   0  0  0  0  0  0  0  0  0  0  0  0
  148.8049  140.0552  153.7295 N   0  0  0  0  0  0  0  0  0  0  0  0
  147.3822  140.3619  153.8789 C   0  0  0  0  0  0  0  0  0  0  0  0
  147.0199  140.9190  155.2673 C   0  0  0  0  0  0  0  0  0  0  0  0
  147.8142  140.2651  156.3046 N   0  0  0  0  0  0  0  0  0  0  0  0
  147.2696  139.1206  156.7936 C   0  0  0  0  0  0  0  0  0  0  0  0
  146.0338  138.7222  156.3897 N   0  0  0  0  0  0  0  0  0  0  0  0
  145.4883  137.6086  156.8870 C   0  0  0  0  0  0  0  0  0  0  0  0
  145.9935  136.7615  157.7857 N   0  0  0  0  0  0  0  0  0  0  0  0
  147.2336  137.1555  158.1946 C   0  0  0  0  0  0  0  0  0  0  0  0
  147.9404  138.3074  157.7487 C   0  0  0  0  0  0  0  0  0  0  0  0
  149.1822  138.3716  158.3690 N   0  0  0  0  0  0  0  0  0  0  0  0
  149.2052  137.3208  159.1424 C   0  0  0  0  0  0  0  0  0  0  0  0
  148.0687  136.5437  159.1140 N   0  0  0  0  0  0  0  0  0  0  0  0
  147.8218  135.3268  159.8734 C   0  0  0  0  0  0  0  0  0  0  0  0
  147.4256  135.5691  161.3529 C   0  0  2  0  0  0  0  0  0  0  0  0
  148.3115  136.5115  161.9286 O   0  0  0  0  0  0  0  0  0  0  0  0
  147.4127  134.3037  162.2141 C   0  0  0  0  0  0  0  0  0  0  0  0
  145.9386  133.9280  162.2502 C   0  0  0  0  0  0  0  0  0  0  0  0
  145.3082  135.1914  162.3545 O   0  0  0  0  0  0  0  0  0  0  0  0
  145.9765  136.0847  161.4725 C   0  0  0  0  0  0  0  0  0  0  0  0
  151.7473  141.1372  157.2959 H   0  0  0  0  0  0  0  0  0  0  0  0
  151.5987  142.8746  157.0595 H   0  0  0  0  0  0  0  0  0  0  0  0
  151.7484  141.8259  155.6718 H   0  0  0  0  0  0  0  0  0  0  0  0
  149.4102  142.5087  155.8992 H   0  0  0  0  0  0  0  0  0  0  0  0
  149.4703  141.4439  158.7606 H   0  0  0  0  0  0  0  0  0  0  0  0
  148.1017  142.2310  157.9786 H   0  0  0  0  0  0  0  0  0  0  0  0
  149.5580  143.1429  158.3077 H   0  0  0  0  0  0  0  0  0  0  0  0
  149.7534  139.6343  156.8286 H   0  0  0  0  0  0  0  0  0  0  0  0
  149.1195  139.8202  152.7992 H   0  0  0  0  0  0  0  0  0  0  0  0
  147.0699  141.0527  153.0958 H   0  0  0  0  0  0  0  0  0  0  0  0
  146.8363  139.4327  153.7120 H   0  0  0  0  0  0  0  0  0  0  0  0
  147.2257  141.9887  155.2982 H   0  0  0  0  0  0  0  0  0  0  0  0
  145.9473  140.8231  155.4387 H   0  0  0  0  0  0  0  0  0  0  0  0
  144.5055  137.3625  156.5130 H   0  0  0  0  0  0  0  0  0  0  0  0
  150.0574  137.0850  159.7631 H   0  0  0  0  0  0  0  0  0  0  0  0
  147.0361  134.7659  159.3648 H   0  0  0  0  0  0  0  0  0  0  0  0
  148.7181  134.7073  159.8215 H   0  0  0  0  0  0  0  0  0  0  0  0
  148.3708  136.3391  162.8559 H   0  0  0  0  0  0  0  0  0  0  0  0
  148.0398  133.4951  161.8427 H   0  0  0  0  0  0  0  0  0  0  0  0
  147.7399  134.5246  163.2316 H   0  0  0  0  0  0  0  0  0  0  0  0
  145.6342  133.4351  161.3253 H   0  0  0  0  0  0  0  0  0  0  0  0
  145.6872  133.2801  163.0900 H   0  0  0  0  0  0  0  0  0  0  0  0
  145.9108  137.1065  161.8484 H   0  0  0  0  0  0  0  0  0  0  0  0
  145.4672  136.0602  160.5084 H   0  0  0  0  0  0  0  0  0  0  0  0
  1  2  1  0  0  0  0
  1 27  1  0  0  0  0
  1 28  1  0  0  0  0
  1 29  1  0  0  0  0
  2  3  1  0  0  0  0
  2  4  1  0  0  0  0
  2 30  1  0  0  0  0
  3 31  1  0  0  0  0
  3 32  1  0  0  0  0
  3 33  1  0  0  0  0
  4 10  1  0  0  0  0
  4  5  1  0  0  0  0
  4 34  1  0  0  0  0
  5  6  2  0  0  0  0
  5  7  1  0  0  0  0
  7  8  1  0  0  0  0
  7 35  1  0  0  0  0
  8  9  1  0  0  0  0
  8 36  1  0  0  0  0
  8 37  1  0  0  0  0
  9 10  1  0  0  0  0
  9 38  1  0  0  0  0
  9 39  1  0  0  0  0
 10 11  1  0  0  0  0
 11 16  1  0  0  0  0
 11 12  2  0  0  0  0
 12 13  1  0  0  0  0
 13 14  2  0  0  0  0
 13 40  1  0  0  0  0
 14 15  1  0  0  0  0
 15 19  1  0  0  0  0
 15 16  2  0  0  0  0
 16 17  1  0  0  0  0
 17 18  2  0  0  0  0
 18 19  1  0  0  0  0
 18 41  1  0  0  0  0
 19 20  1  0  0  0  0
 20 21  1  0  0  0  0
 20 42  1  0  0  0  0
 20 43  1  0  0  0  0
 21 26  1  0  0  0  0
 21 22  1  0  0  0  0
 21 23  1  0  0  0  0
 22 44  1  0  0  0  0
 23 24  1  0  0  0  0
 23 45  1  0  0  0  0
 23 46  1  0  0  0  0
 24 25  1  0  0  0  0
 24 47  1  0  0  0  0
 24 48  1  0  0  0  0
 25 26  1  0  0  0  0
 26 49  1  0  0  0  0
 26 50  1  0  0  0  0
M  END
> <s_m_source_file>
AV-unprocessed.smi

> <i_m_source_file_index>
274

> <i_lp_mmshare_version>
43012

> <i_f3d_flags>
0

> <s_epik_input>
W0NIM11bQ0hdKFtDSDNdKVtDQEBIXTFDKD1PKVtOSF1bQ0gyXVtDSDJdTjFjKG5bY0hdbjIpYyhjMjMpbltjSF1uM1tDSDJdW0NAQF00KFtPSF0pW0NIMl1bQ0gyXU9bQ0gyXTQ=

> <s_epik_cmdline>
J2VwaWtfcHl0aG9uJywgJy1waCcsICc3LjAnLCAnLXRuJywgJzgnLCAnLW1hJywgJzIwMCcsICctbWV0YWxfYmluZGluZycsICctaW1hZScsICc8aW5maWxlLm1hZT4nLCAnLW9tYWUnLCAnPG91dGZpbGUubWFlPic=

> <r_lp_tautomer_probability>
1

> <r_epik_Ionization_Penalty>
0.000690079

> <r_epik_Ionization_Penalty_Charging>
0

> <r_epik_Ionization_Penalty_Neutral>
0.000690079

> <r_epik_State_Penalty>
0.000321372

> <r_epik_Charging_Adjusted_Penalty>
0.000321372

> <i_epik_Tot_Q>
0

> <i_epik_Tot_abs_Q>
0

> <r_epik_Metal_State_Penalty>
-0

> <b_epik_Metal_Only>
0

> <s_lp_Force_Field>
OPLS_2005

> <r_lp_Energy>
42.4

> <b_lp_Chiralities_Consistent>
1

> <s_lp_Variant>
AV-unprocessed.smi:274-3

> <Gold.Version>
5.8.1

> <Gold.Id.Protein>
6NUR|6NUR_protein|mol2

> <Gold.PLP.Fitness>
39.9814

> <Gold.PLP.PLP>
-32.0004

> <Gold.PLP.part.hbond>
-3.0000

> <Gold.PLP.part.metal>
0.0000

> <Gold.PLP.part.buried>
-5.9352

> <Gold.PLP.part.nonpolar>
-23.0545

> <Gold.PLP.part.repulsive>
0.2229

> <Gold.PLP.ligand.clash>
0.0000

> <Gold.PLP.ligand.torsion>
0.8062

> <Gold.PLP.Chemscore.Hbond>
3.0000

> <Gold.PLP.Chemscore.CHOScore>
0.0000

> <Gold.PLP.Chemscore.Metal>
0.0000

> <Gold.Chemscore.Hbonds>
donor molecule, donor type, donor heavy atom, donor atom, acceptor molecule, acceptor atom, score
      L1  H     7    35       P1  7957  1.00
      P1  H  6931  6943       L1    22  0.90
      P1  H  7989  7998       L1     6  1.00

> <Gold.PLP.Chemscore.Internal.Correction>
0.5935

> <Gold.Rescore>
     Score         DG    S(hbond)    S(metal)    S(lipo)     H(rot)  DE(clash)    DE(int)     intcor
     14.21     -16.07       2.79        0.00      65.52       2.50       0.09       1.77       ----

> <Gold.Chemscore.Fitness>
14.2119

> <Gold.Chemscore.DG>
-16.0697

> <Gold.Chemscore.ZeroCoef>
-5.4800

> <Gold.Chemscore.Hbond>
2.7908

> <Gold.Chemscore.Metal>
0.0000

> <Gold.Chemscore.Lipo>
65.5167

> <Gold.Chemscore.Internal_Hbond>
0.0000

> <Gold.Chemscore.DEClash>
0.0853

> <Gold.Chemscore.DEInternal>
1.7724

> <Gold.Chemscore.Rot>
2.4988

> <Gold.Chemscore.Internal.Correction>
   9.000000E+99

> <Gold.Chemscore.Hbonds>
donor molecule, donor type, donor heavy atom, donor atom, acceptor molecule, acceptor atom, score
      L1  H     7    35       P1  7957  0.99
      P1  H  6931  6943       L1    22  0.18
      P1  H  7989  7998       L1     6  0.70

> <Gold.Chemscore.Hbond.Weighted>
-9.3212

> <Gold.Chemscore.Metal.Weighted>
-0.0000

> <Gold.Chemscore.Lipo.Weighted>
-7.6655

> <Gold.Chemscore.Internal_Hbond.Weighted>
0.0000

> <Gold.Chemscore.DEClash.Weighted>
0.0853

> <Gold.Chemscore.DEInternal.Weighted>
1.7724

> <Gold.Chemscore.Rot.Weighted>
6.3970

> <Gold.Chemscore.Internal.Correction.Weighted>
   9.000000E+99

> <Gold.Protein.RotatedTorsions>
[ 6907 6896 6895 6894 ] final  145.74 input  -60.11 | X-H torsion
[ 7974 7965 7964 7962 ] final  121.02 input  175.53 | X-H torsion
[ 8008 7997 7996 7995 ] final -162.22 input   59.86 | X-H torsion
[ 10167 10162 10161 10158 ] final  172.22 input  -65.29 | X-H torsion
[ 10718 10713 10712 10709 ] final  102.05 input   66.30 | X-H torsion
[ 10763 10752 10751 10750 ] final   75.78 input  -60.55 | X-H torsion
[ 11005 11000 10999 10996 ] final  -38.83 input  -57.11 | X-H torsion

> <Gold.Protein.ActiveResidues>
 VAL166  LYS551  ARG553  GLY616  TRP617  ASP618  TYR619  PRO620  LYS621  CYS622 
 ASP623  PHE694  ASN695  SER759  ASP760  ASP761  ALA762  ILE779  LEU786  VAL792 
 PHE793  MET794  SER795  GLU796  ALA797  LYS798  CYS799  TRP800  GLU811  SER814 

> <Gold.Protein.RotatedAtoms>
  152.1770  133.4681  159.4938 H   0  0  0  0  0  0  0  0  0  0  0  0  # atno 6907 bound_to 6896
  150.6928  134.1881  159.4283 H   0  0  0  0  0  0  0  0  0  0  0  0  # atno 6908 bound_to 6896
  151.9791  135.0037  160.0607 H   0  0  0  0  0  0  0  0  0  0  0  0  # atno 6909 bound_to 6896
  145.1242  139.3369  143.4698 H   0  0  0  0  0  0  0  0  0  0  0  0  # atno 7974 bound_to 7965
  155.8036  140.0895  157.1943 H   0  0  0  0  0  0  0  0  0  0  0  0  # atno 8008 bound_to 7997
  154.3981  140.1468  156.3362 H   0  0  0  0  0  0  0  0  0  0  0  0  # atno 8009 bound_to 7997
  155.8437  140.3437  155.5651 H   0  0  0  0  0  0  0  0  0  0  0  0  # atno 8010 bound_to 7997
  139.5070  144.3398  152.0029 H   0  0  0  0  0  0  0  0  0  0  0  0  # atno 10167 bound_to 10162
  157.6813  131.0743  150.5346 H   0  0  0  0  0  0  0  0  0  0  0  0  # atno 10718 bound_to 10713
  153.0679  135.4976  154.8240 H   0  0  0  0  0  0  0  0  0  0  0  0  # atno 10763 bound_to 10752
  154.6980  135.2996  154.9385 H   0  0  0  0  0  0  0  0  0  0  0  0  # atno 10764 bound_to 10752
  154.0118  135.6753  153.4819 H   0  0  0  0  0  0  0  0  0  0  0  0  # atno 10765 bound_to 10752
  141.0057  133.6933  156.2106 H   0  0  0  0  0  0  0  0  0  0  0  0  # atno 11005 bound_to 11000
  146.3519  140.1214  142.8600 LP  0  0  0  0  0  0  0  0  0  0  0  0  # atno 17320 bound_to 7965
  145.0706  140.9153  143.4884 LP  0  0  0  0  0  0  0  0  0  0  0  0  # atno 17321 bound_to 7965
  140.2836  144.3832  150.6111 LP  0  0  0  0  0  0  0  0  0  0  0  0  # atno 17342 bound_to 10162
  140.6000  143.2167  151.7091 LP  0  0  0  0  0  0  0  0  0  0  0  0  # atno 17343 bound_to 10162
  156.5655  130.4266  149.6043 LP  0  0  0  0  0  0  0  0  0  0  0  0  # atno 17370 bound_to 10713
  156.2785  130.7057  151.1875 LP  0  0  0  0  0  0  0  0  0  0  0  0  # atno 17371 bound_to 10713
  140.6817  134.4760  157.5589 LP  0  0  0  0  0  0  0  0  0  0  0  0  # atno 17394 bound_to 11000
  139.9062  134.8444  156.1698 LP  0  0  0  0  0  0  0  0  0  0  0  0  # atno 17395 bound_to 11000

$$$$
