AV-unprocessed.smi:3327|AV-procd|sdf|12790|dock3
  -GOLD-   2272019143D 1   1.00000     0.00000
 Structure written by MMmdl.
 40 41  0  0  0  0  0  0  0  0  1 V2000
  152.9404  143.2566  162.4241 C   0  0  0  0  0  0  0  0  0  0  0  0
  152.2787  143.4219  161.0489 C   0  0  1  0  0  0  0  0  0  0  0  0
  152.4034  144.8712  160.5298 C   0  0  0  0  0  0  0  0  0  0  0  0
  151.8493  145.0215  159.1003 C   0  0  0  0  0  0  0  0  0  0  0  0
  152.4496  143.9563  158.1667 C   0  0  0  0  0  0  0  0  0  0  0  0
  152.1718  142.6280  158.7295 N   0  0  0  0  0  0  0  0  0  0  0  0
  151.3075  141.7191  158.2148 C   0  0  0  0  0  0  0  0  0  0  0  0
  151.0951  140.6341  158.7604 O   0  0  0  0  0  0  0  0  0  0  0  0
  150.5670  142.0553  156.9085 C   0  0  0  0  0  0  0  0  0  0  0  0
  150.8896  141.1416  155.8045 N   0  0  0  0  0  0  0  0  0  0  0  0
  150.0405  139.9612  155.8526 C   0  0  0  0  0  0  0  0  0  0  0  0
  149.2628  139.8328  154.5346 C   0  0  0  0  0  0  0  0  0  0  0  0
  148.2342  140.8487  154.4203 N   0  0  0  0  0  0  0  0  0  0  0  0
  147.4333  141.1390  153.3357 C   0  0  0  0  0  0  0  0  0  0  0  0
  146.6207  142.1753  153.6966 C   0  0  0  0  0  0  0  0  0  0  0  0
  147.0039  142.4533  155.0386 C   0  0  0  0  0  0  0  0  0  0  0  0
  147.9703  141.6580  155.4687 N   0  0  0  0  0  0  0  0  0  0  0  0
  152.8576  142.4330  160.0141 C   0  0  0  0  0  0  0  0  0  0  0  0
  154.0109  143.4588  162.3768 H   0  0  0  0  0  0  0  0  0  0  0  0
  152.8095  142.2425  162.8030 H   0  0  0  0  0  0  0  0  0  0  0  0
  152.5044  143.9395  163.1536 H   0  0  0  0  0  0  0  0  0  0  0  0
  151.2172  143.1981  161.1671 H   0  0  0  0  0  0  0  0  0  0  0  0
  151.8899  145.5598  161.2014 H   0  0  0  0  0  0  0  0  0  0  0  0
  153.4538  145.1653  160.5324 H   0  0  0  0  0  0  0  0  0  0  0  0
  150.7628  144.9236  159.1152 H   0  0  0  0  0  0  0  0  0  0  0  0
  152.0658  146.0197  158.7193 H   0  0  0  0  0  0  0  0  0  0  0  0
  152.0731  144.0947  157.1546 H   0  0  0  0  0  0  0  0  0  0  0  0
  153.5292  144.0937  158.0923 H   0  0  0  0  0  0  0  0  0  0  0  0
  149.4926  142.0174  157.0966 H   0  0  0  0  0  0  0  0  0  0  0  0
  150.8216  143.0745  156.6144 H   0  0  0  0  0  0  0  0  0  0  0  0
  150.7823  141.5967  154.9092 H   0  0  0  0  0  0  0  0  0  0  0  0
  150.6521  139.0726  156.0168 H   0  0  0  0  0  0  0  0  0  0  0  0
  149.3440  140.0404  156.6887 H   0  0  0  0  0  0  0  0  0  0  0  0
  149.9379  139.9290  153.6829 H   0  0  0  0  0  0  0  0  0  0  0  0
  148.7934  138.8507  154.4576 H   0  0  0  0  0  0  0  0  0  0  0  0
  147.5084  140.5913  152.4077 H   0  0  0  0  0  0  0  0  0  0  0  0
  145.8673  142.6606  153.0939 H   0  0  0  0  0  0  0  0  0  0  0  0
  146.6115  143.2043  155.7084 H   0  0  0  0  0  0  0  0  0  0  0  0
  153.9268  142.6055  159.8817 H   0  0  0  0  0  0  0  0  0  0  0  0
  152.7689  141.4112  160.3857 H   0  0  0  0  0  0  0  0  0  0  0  0
  1  2  1  0  0  0  0
  1 19  1  0  0  0  0
  1 20  1  0  0  0  0
  1 21  1  0  0  0  0
  2 18  1  0  0  0  0
  2  3  1  0  0  0  0
  2 22  1  0  0  0  0
  3  4  1  0  0  0  0
  3 23  1  0  0  0  0
  3 24  1  0  0  0  0
  4  5  1  0  0  0  0
  4 25  1  0  0  0  0
  4 26  1  0  0  0  0
  5  6  1  0  0  0  0
  5 27  1  0  0  0  0
  5 28  1  0  0  0  0
  6  7  1  0  0  0  0
  6 18  1  0  0  0  0
  7  8  2  0  0  0  0
  7  9  1  0  0  0  0
  9 10  1  0  0  0  0
  9 29  1  0  0  0  0
  9 30  1  0  0  0  0
 10 11  1  0  0  0  0
 10 31  1  0  0  0  0
 11 12  1  0  0  0  0
 11 32  1  0  0  0  0
 11 33  1  0  0  0  0
 12 13  1  0  0  0  0
 12 34  1  0  0  0  0
 12 35  1  0  0  0  0
 13 17  1  0  0  0  0
 13 14  1  0  0  0  0
 14 15  2  0  0  0  0
 14 36  1  0  0  0  0
 15 16  1  0  0  0  0
 15 37  1  0  0  0  0
 16 17  2  0  0  0  0
 16 38  1  0  0  0  0
 18 39  1  0  0  0  0
 18 40  1  0  0  0  0
M  END
> <s_m_source_file>
AV-unprocessed.smi

> <i_m_source_file_index>
3327

> <i_lp_mmshare_version>
43012

> <i_f3d_flags>
0

> <s_epik_input>
W0NIM11bQ0BASF0xW0NIMl1bQ0gyXVtDSDJdTihbQ0gyXTEpQyg9TylbQ0gyXVtOSF1bQ0gyXVtDSDJdbjJbY0hdW2NIXVtjSF1uMg==

> <s_epik_cmdline>
J2VwaWtfcHl0aG9uJywgJy1waCcsICc3LjAnLCAnLXRuJywgJzgnLCAnLW1hJywgJzIwMCcsICctbWV0YWxfYmluZGluZycsICctaW1hZScsICc8aW5maWxlLm1hZT4nLCAnLW9tYWUnLCAnPG91dGZpbGUubWFlPic=

> <r_lp_tautomer_probability>
1

> <r_epik_Ionization_Penalty>
0.752964

> <r_epik_Ionization_Penalty_Charging>
0

> <r_epik_Ionization_Penalty_Neutral>
0.752964

> <r_epik_State_Penalty>
0.778238

> <r_epik_Charging_Adjusted_Penalty>
0.778238

> <i_epik_Tot_Q>
0

> <i_epik_Tot_abs_Q>
0

> <r_epik_Metal_State_Penalty>
0.776974

> <b_epik_Metal_Only>
0

> <s_lp_Force_Field>
OPLS_2005

> <r_lp_Energy>
25.5335

> <b_lp_Chiralities_Consistent>
1

> <s_lp_Variant>
AV-unprocessed.smi:3327-4

> <Gold.Version>
5.8.1

> <Gold.Id.Protein>
6NUR|6NUR_protein|mol2

> <Gold.PLP.Fitness>
49.1371

> <Gold.PLP.PLP>
-47.3116

> <Gold.PLP.part.hbond>
-0.8513

> <Gold.PLP.part.metal>
0.0000

> <Gold.PLP.part.buried>
-4.7616

> <Gold.PLP.part.nonpolar>
-41.1792

> <Gold.PLP.part.repulsive>
0.1071

> <Gold.PLP.ligand.clash>
0.0000

> <Gold.PLP.ligand.torsion>
0.6145

> <Gold.PLP.Chemscore.Hbond>
0.0000

> <Gold.PLP.Chemscore.CHOScore>
1.0000

> <Gold.PLP.Chemscore.Metal>
0.0000

> <Gold.Chemscore.Hbonds>
donor molecule, donor type, donor heavy atom, donor atom, acceptor molecule, acceptor atom, score
      L1  C    14    36       P1  7957  0.95
      L1  C    16    38       P1  8028  0.02

> <Gold.PLP.Chemscore.Internal.Correction>
0.0545

> <Gold.Rescore>
     Score         DG    S(hbond)    S(metal)    S(lipo)     H(rot)  DE(clash)    DE(int)     intcor
     13.57     -14.22       0.00        0.00     112.50       1.73       0.01       0.63       ----

> <Gold.Chemscore.Fitness>
13.5725

> <Gold.Chemscore.DG>
-14.2152

> <Gold.Chemscore.ZeroCoef>
-5.4800

> <Gold.Chemscore.Hbond>
0.0000

> <Gold.Chemscore.Metal>
0.0000

> <Gold.Chemscore.Lipo>
112.5046

> <Gold.Chemscore.Internal_Hbond>
0.0000

> <Gold.Chemscore.DEClash>
0.0144

> <Gold.Chemscore.DEInternal>
0.6283

> <Gold.Chemscore.Rot>
1.7296

> <Gold.Chemscore.Internal.Correction>
   9.000000E+99

> <Gold.Chemscore.Hbond.Weighted>
-0.0000

> <Gold.Chemscore.Metal.Weighted>
-0.0000

> <Gold.Chemscore.Lipo.Weighted>
-13.1630

> <Gold.Chemscore.Internal_Hbond.Weighted>
0.0000

> <Gold.Chemscore.DEClash.Weighted>
0.0144

> <Gold.Chemscore.DEInternal.Weighted>
0.6283

> <Gold.Chemscore.Rot.Weighted>
4.4278

> <Gold.Chemscore.Internal.Correction.Weighted>
   9.000000E+99

> <Gold.Protein.RotatedTorsions>
[ 6907 6896 6895 6894 ] final   59.14 input  -60.11 | X-H torsion
[ 7974 7965 7964 7962 ] final -154.66 input  175.53 | X-H torsion
[ 8008 7997 7996 7995 ] final  172.65 input   59.86 | X-H torsion
[ 10167 10162 10161 10158 ] final    7.87 input  -65.29 | X-H torsion
[ 10718 10713 10712 10709 ] final -135.60 input   66.30 | X-H torsion
[ 10763 10752 10751 10750 ] final -119.45 input  -60.55 | X-H torsion
[ 11005 11000 10999 10996 ] final -161.79 input  -57.11 | X-H torsion

> <Gold.Protein.ActiveResidues>
 VAL166  LYS551  ARG553  GLY616  TRP617  ASP618  TYR619  PRO620  LYS621  CYS622 
 ASP623  PHE694  ASN695  SER759  ASP760  ASP761  ALA762  ILE779  LEU786  VAL792 
 PHE793  MET794  SER795  GLU796  ALA797  LYS798  CYS799  TRP800  GLU811  SER814 

> <Gold.Protein.RotatedAtoms>
  152.3888  134.6475  160.0115 H   0  0  0  0  0  0  0  0  0  0  0  0  # atno 6907 bound_to 6896
  151.6715  133.3308  159.3206 H   0  0  0  0  0  0  0  0  0  0  0  0  # atno 6908 bound_to 6896
  150.7808  134.6795  159.6480 H   0  0  0  0  0  0  0  0  0  0  0  0  # atno 6909 bound_to 6896
  144.7678  140.4357  143.5929 H   0  0  0  0  0  0  0  0  0  0  0  0  # atno 7974 bound_to 7965
  156.1153  140.1480  156.9281 H   0  0  0  0  0  0  0  0  0  0  0  0  # atno 8008 bound_to 7997
  154.4796  140.0883  156.7388 H   0  0  0  0  0  0  0  0  0  0  0  0  # atno 8009 bound_to 7997
  155.4524  140.3435  155.4304 H   0  0  0  0  0  0  0  0  0  0  0  0  # atno 8010 bound_to 7997
  140.6347  143.7913  150.7343 H   0  0  0  0  0  0  0  0  0  0  0  0  # atno 10167 bound_to 10162
  156.2680  130.7248  151.1206 H   0  0  0  0  0  0  0  0  0  0  0  0  # atno 10718 bound_to 10713
  154.8617  135.4238  154.2301 H   0  0  0  0  0  0  0  0  0  0  0  0  # atno 10763 bound_to 10752
  153.3288  135.6987  153.6972 H   0  0  0  0  0  0  0  0  0  0  0  0  # atno 10764 bound_to 10752
  153.5997  135.3539  155.2914 H   0  0  0  0  0  0  0  0  0  0  0  0  # atno 10765 bound_to 10752
  140.6165  134.4795  157.5220 H   0  0  0  0  0  0  0  0  0  0  0  0  # atno 11005 bound_to 11000
  145.6416  139.1551  143.2912 LP  0  0  0  0  0  0  0  0  0  0  0  0  # atno 17320 bound_to 7965
  146.1800  140.6512  142.9193 LP  0  0  0  0  0  0  0  0  0  0  0  0  # atno 17321 bound_to 7965
  140.1532  143.4339  152.2117 LP  0  0  0  0  0  0  0  0  0  0  0  0  # atno 17342 bound_to 10162
  139.5558  144.7372  151.4298 LP  0  0  0  0  0  0  0  0  0  0  0  0  # atno 17343 bound_to 10162
  157.7274  131.0639  150.5867 LP  0  0  0  0  0  0  0  0  0  0  0  0  # atno 17370 bound_to 10713
  156.5961  130.4342  149.5916 LP  0  0  0  0  0  0  0  0  0  0  0  0  # atno 17371 bound_to 10713
  139.9171  134.8225  156.1332 LP  0  0  0  0  0  0  0  0  0  0  0  0  # atno 17394 bound_to 11000
  141.0772  133.6770  156.2261 LP  0  0  0  0  0  0  0  0  0  0  0  0  # atno 17395 bound_to 11000

$$$$
