AV-unprocessed.smi:2801|AV-procd|sdf|10799|dock3
  -GOLD-   2272015233D 1   1.00000     0.00000
 Structure written by MMmdl.
 32 32  0  0  0  0  0  0  0  0  1 V2000
  146.4730  143.0521  153.8731 C   0  0  0  0  0  0  0  0  0  0  0  0
  147.5058  141.9378  153.6913 C   0  0  0  0  0  0  0  0  0  0  0  0
  148.2869  141.8436  154.8764 O   0  0  0  0  0  0  0  0  0  0  0  0
  149.5223  141.1443  154.7410 C   0  0  2  0  0  0  0  0  0  0  0  0
  149.2020  139.6904  154.3451 C   0  0  0  0  0  0  0  0  0  0  0  0
  148.1875  139.0279  155.2856 C   0  0  0  0  0  0  0  0  0  0  0  0
  150.3080  141.1999  156.0617 C   0  0  0  0  0  0  0  0  0  0  0  0
  150.5934  140.1525  156.6413 O   0  0  0  0  0  0  0  0  0  0  0  0
  150.6036  142.4337  156.5114 N   0  0  0  0  0  0  0  0  0  0  0  0
  151.3134  142.8247  157.6820 C   0  0  0  0  0  0  0  0  0  0  0  0
  151.5411  141.9744  158.7916 C   0  0  0  0  0  0  0  0  0  0  0  0
  152.2751  142.4714  159.8869 C   0  0  0  0  0  0  0  0  0  0  0  0
  152.7843  143.7197  159.9370 N   0  0  0  0  0  0  0  0  0  0  0  0
  152.5782  144.5245  158.8743 C   0  0  0  0  0  0  0  0  0  0  0  0
  151.8585  144.1290  157.7280 C   0  0  0  0  0  0  0  0  0  0  0  0
  151.6994  145.0043  156.6902 O   0  0  0  0  0  0  0  0  0  0  0  0
  145.8492  143.1536  152.9849 H   0  0  0  0  0  0  0  0  0  0  0  0
  146.9596  144.0113  154.0509 H   0  0  0  0  0  0  0  0  0  0  0  0
  145.8191  142.8451  154.7205 H   0  0  0  0  0  0  0  0  0  0  0  0
  146.9983  140.9909  153.5018 H   0  0  0  0  0  0  0  0  0  0  0  0
  148.1289  142.1577  152.8238 H   0  0  0  0  0  0  0  0  0  0  0  0
  150.1143  141.5988  153.9438 H   0  0  0  0  0  0  0  0  0  0  0  0
  148.8014  139.6648  153.3306 H   0  0  0  0  0  0  0  0  0  0  0  0
  150.1173  139.0971  154.3276 H   0  0  0  0  0  0  0  0  0  0  0  0
  147.9751  138.0065  154.9701 H   0  0  0  0  0  0  0  0  0  0  0  0
  147.2446  139.5750  155.2968 H   0  0  0  0  0  0  0  0  0  0  0  0
  148.5642  138.9877  156.3080 H   0  0  0  0  0  0  0  0  0  0  0  0
  150.2323  143.1983  155.9663 H   0  0  0  0  0  0  0  0  0  0  0  0
  151.1850  140.9571  158.8246 H   0  0  0  0  0  0  0  0  0  0  0  0
  152.4634  141.8444  160.7456 H   0  0  0  0  0  0  0  0  0  0  0  0
  153.0039  145.5150  158.9393 H   0  0  0  0  0  0  0  0  0  0  0  0
  150.7926  145.2012  156.5099 H   0  0  0  0  0  0  0  0  0  0  0  0
  1  2  1  0  0  0  0
  1 17  1  0  0  0  0
  1 18  1  0  0  0  0
  1 19  1  0  0  0  0
  2  3  1  0  0  0  0
  2 20  1  0  0  0  0
  2 21  1  0  0  0  0
  3  4  1  0  0  0  0
  4  5  1  0  0  0  0
  4  7  1  0  0  0  0
  4 22  1  0  0  0  0
  5  6  1  0  0  0  0
  5 23  1  0  0  0  0
  5 24  1  0  0  0  0
  6 25  1  0  0  0  0
  6 26  1  0  0  0  0
  6 27  1  0  0  0  0
  7  8  2  0  0  0  0
  7  9  1  0  0  0  0
  9 10  1  0  0  0  0
  9 28  1  0  0  0  0
 10 15  1  0  0  0  0
 10 11  2  0  0  0  0
 11 12  1  0  0  0  0
 11 29  1  0  0  0  0
 12 13  2  0  0  0  0
 12 30  1  0  0  0  0
 13 14  1  0  0  0  0
 14 15  2  0  0  0  0
 14 31  1  0  0  0  0
 15 16  1  0  0  0  0
 16 32  1  0  0  0  0
M  END
> <s_m_source_file>
AV-unprocessed.smi

> <i_m_source_file_index>
2801

> <i_lp_mmshare_version>
43012

> <i_f3d_flags>
0

> <s_epik_input>
W0NIM11bQ0gyXU9bQ0BIXShbQ0gyXVtDSDNdKUMoPU8pW05IXWMxW2NIXVtjSF1uW2NIXWMxW09IXQ==

> <s_epik_cmdline>
J2VwaWtfcHl0aG9uJywgJy1waCcsICc3LjAnLCAnLXRuJywgJzgnLCAnLW1hJywgJzIwMCcsICctbWV0YWxfYmluZGluZycsICctaW1hZScsICc8aW5maWxlLm1hZT4nLCAnLW9tYWUnLCAnPG91dGZpbGUubWFlPic=

> <r_lp_tautomer_probability>
0.43658

> <r_epik_Ionization_Penalty>
0.0250035

> <r_epik_Ionization_Penalty_Charging>
0

> <r_epik_Ionization_Penalty_Neutral>
0.0250035

> <r_epik_State_Penalty>
0.520524

> <r_epik_Charging_Adjusted_Penalty>
0.520524

> <i_epik_Tot_Q>
0

> <i_epik_Tot_abs_Q>
0

> <r_epik_Metal_State_Penalty>
0.772586

> <b_epik_Metal_Only>
0

> <s_lp_Force_Field>
OPLS_2005

> <r_lp_Energy>
11.8743

> <b_lp_Chiralities_Consistent>
1

> <s_lp_Variant>
AV-unprocessed.smi:2801-3

> <Gold.Version>
5.8.1

> <Gold.Id.Protein>
6NUR|6NUR_protein|mol2

> <Gold.PLP.Fitness>
38.5842

> <Gold.PLP.PLP>
-32.9623

> <Gold.PLP.part.hbond>
-2.0000

> <Gold.PLP.part.metal>
0.0000

> <Gold.PLP.part.buried>
-0.7812

> <Gold.PLP.part.nonpolar>
-30.0828

> <Gold.PLP.part.repulsive>
0.2109

> <Gold.PLP.ligand.clash>
0.0000

> <Gold.PLP.ligand.torsion>
0.1952

> <Gold.PLP.Chemscore.Hbond>
2.0000

> <Gold.PLP.Chemscore.CHOScore>
0.0000

> <Gold.PLP.Chemscore.Metal>
0.0000

> <Gold.Chemscore.Hbonds>
donor molecule, donor type, donor heavy atom, donor atom, acceptor molecule, acceptor atom, score
      L1  H     9    28       P1  8028  0.94
      L1  H    16    32       P1  8028  0.86

> <Gold.PLP.Chemscore.Internal.Correction>
0.0123

> <Gold.Rescore>
     Score         DG    S(hbond)    S(metal)    S(lipo)     H(rot)  DE(clash)    DE(int)     intcor
     13.52     -16.46       1.93        0.00      84.93       2.11       1.65       1.30       ----

> <Gold.Chemscore.Fitness>
13.5154

> <Gold.Chemscore.DG>
-16.4561

> <Gold.Chemscore.ZeroCoef>
-5.4800

> <Gold.Chemscore.Hbond>
1.9308

> <Gold.Chemscore.Metal>
0.0000

> <Gold.Chemscore.Lipo>
84.9253

> <Gold.Chemscore.Internal_Hbond>
0.0000

> <Gold.Chemscore.DEClash>
1.6455

> <Gold.Chemscore.DEInternal>
1.2952

> <Gold.Chemscore.Rot>
2.1129

> <Gold.Chemscore.Internal.Correction>
   9.000000E+99

> <Gold.Chemscore.Hbonds>
donor molecule, donor type, donor heavy atom, donor atom, acceptor molecule, acceptor atom, score
      L1  H     9    28       P1  8028  0.87
      L1  H    16    32       P1  8028  0.53

> <Gold.Chemscore.Hbond.Weighted>
-6.4487

> <Gold.Chemscore.Metal.Weighted>
-0.0000

> <Gold.Chemscore.Lipo.Weighted>
-9.9363

> <Gold.Chemscore.Internal_Hbond.Weighted>
0.0000

> <Gold.Chemscore.DEClash.Weighted>
1.6455

> <Gold.Chemscore.DEInternal.Weighted>
1.2952

> <Gold.Chemscore.Rot.Weighted>
5.4089

> <Gold.Chemscore.Internal.Correction.Weighted>
   9.000000E+99

> <Gold.Protein.RotatedTorsions>
[ 6907 6896 6895 6894 ] final -105.64 input  -60.11 | X-H torsion
[ 7974 7965 7964 7962 ] final  -81.43 input  175.53 | X-H torsion
[ 8008 7997 7996 7995 ] final -114.45 input   59.86 | X-H torsion
[ 10167 10162 10161 10158 ] final  115.39 input  -65.29 | X-H torsion
[ 10718 10713 10712 10709 ] final -167.54 input   66.30 | X-H torsion
[ 10763 10752 10751 10750 ] final -116.27 input  -60.55 | X-H torsion
[ 11005 11000 10999 10996 ] final  -34.30 input  -57.11 | X-H torsion

> <Gold.Protein.ActiveResidues>
 VAL166  LYS551  ARG553  GLY616  TRP617  ASP618  TYR619  PRO620  LYS621  CYS622 
 ASP623  PHE694  ASN695  SER759  ASP760  ASP761  ALA762  ILE779  LEU786  VAL792 
 PHE793  MET794  SER795  GLU796  ALA797  LYS798  CYS799  TRP800  GLU811  SER814 

> <Gold.Protein.RotatedAtoms>
  150.7347  134.0096  159.3665 H   0  0  0  0  0  0  0  0  0  0  0  0  # atno 6907 bound_to 6896
  151.8055  135.0694  160.0415 H   0  0  0  0  0  0  0  0  0  0  0  0  # atno 6908 bound_to 6896
  152.3110  133.5716  159.5717 H   0  0  0  0  0  0  0  0  0  0  0  0  # atno 6909 bound_to 6896
  145.5467  140.9502  143.1521 H   0  0  0  0  0  0  0  0  0  0  0  0  # atno 7974 bound_to 7965
  155.0365  140.0392  157.2493 H   0  0  0  0  0  0  0  0  0  0  0  0  # atno 8008 bound_to 7997
  154.7252  140.2720  155.6481 H   0  0  0  0  0  0  0  0  0  0  0  0  # atno 8009 bound_to 7997
  156.2827  140.2695  156.1936 H   0  0  0  0  0  0  0  0  0  0  0  0  # atno 8010 bound_to 7997
  139.6321  144.7116  151.2411 H   0  0  0  0  0  0  0  0  0  0  0  0  # atno 10167 bound_to 10162
  156.6838  130.9132  151.3060 H   0  0  0  0  0  0  0  0  0  0  0  0  # atno 10718 bound_to 10713
  154.8513  135.4352  154.1794 H   0  0  0  0  0  0  0  0  0  0  0  0  # atno 10763 bound_to 10752
  153.2888  135.6960  153.7319 H   0  0  0  0  0  0  0  0  0  0  0  0  # atno 10764 bound_to 10752
  153.6494  135.3454  155.3070 H   0  0  0  0  0  0  0  0  0  0  0  0  # atno 10765 bound_to 10752
  140.9705  133.7112  156.1515 H   0  0  0  0  0  0  0  0  0  0  0  0  # atno 11005 bound_to 11000
  144.7550  139.7098  143.7258 LP  0  0  0  0  0  0  0  0  0  0  0  0  # atno 17320 bound_to 7965
  146.1944  139.5203  142.9784 LP  0  0  0  0  0  0  0  0  0  0  0  0  # atno 17321 bound_to 7965
  140.7445  143.6462  150.8289 LP  0  0  0  0  0  0  0  0  0  0  0  0  # atno 17342 bound_to 10162
  140.0088  143.5664  152.2847 LP  0  0  0  0  0  0  0  0  0  0  0  0  # atno 17343 bound_to 10162
  157.7034  130.9358  150.0854 LP  0  0  0  0  0  0  0  0  0  0  0  0  # atno 17370 bound_to 10713
  156.1847  130.3651  149.8988 LP  0  0  0  0  0  0  0  0  0  0  0  0  # atno 17371 bound_to 10713
  140.7336  134.4227  157.5563 LP  0  0  0  0  0  0  0  0  0  0  0  0  # atno 17394 bound_to 11000
  139.8910  134.8790  156.2340 LP  0  0  0  0  0  0  0  0  0  0  0  0  # atno 17395 bound_to 11000

$$$$
