AV-unprocessed.smi:435|AV-procd|sdf|2556|dock2
  -GOLD-   2262022523D 1   1.00000     0.00000
 Structure written by MMmdl.
 44 45  0  0  0  0  0  0  0  0  1 V2000
  149.7141  134.6324  155.2658 C   0  0  0  0  0  0  0  0  0  0  0  0
  149.8806  135.5172  156.4718 C   0  0  0  0  0  0  0  0  0  0  0  0
  151.0451  136.0513  156.6425 N   0  0  0  0  0  0  0  0  0  0  0  0
  151.3066  136.8793  157.7169 N   0  0  0  0  0  0  0  0  0  0  0  0
  152.6746  137.4180  157.7404 C   0  0  0  0  0  0  0  0  0  0  0  0
  152.7368  138.9367  157.5188 C   0  0  0  0  0  0  0  0  0  0  0  0
  152.7549  139.4090  156.3811 O   0  0  0  0  0  0  0  0  0  0  0  0
  152.7878  139.6893  158.6283 N   0  0  0  0  0  0  0  0  0  0  0  0
  152.8444  141.1476  158.6586 C   0  0  2  0  0  0  0  0  0  0  0  0
  153.0725  141.6567  160.0962 C   0  0  0  0  0  0  0  0  0  0  0  0
  153.0554  143.1927  160.1577 C   0  0  0  0  0  0  0  0  0  0  0  0
  151.7488  143.7702  159.5813 C   0  0  1  0  0  0  0  0  0  0  0  0
  151.7378  145.3041  159.6415 C   0  0  0  0  0  0  0  0  0  0  0  0
  151.5267  143.2609  158.1444 C   0  0  0  0  0  0  0  0  0  0  0  0
  151.5402  141.7252  158.0798 C   0  0  0  0  0  0  0  0  0  0  0  0
  150.4047  137.1963  158.6906 C   0  0  0  0  0  0  0  0  0  0  0  0
  150.6868  137.9248  159.6431 O   0  0  0  0  0  0  0  0  0  0  0  0
  149.0861  136.5921  158.4879 C   0  0  0  0  0  0  0  0  0  0  0  0
  148.1089  136.9053  159.4800 C   0  0  0  0  0  0  0  0  0  0  0  0
  147.3290  137.1739  160.2921 N   0  0  0  0  0  0  0  0  0  0  0  0
  148.8128  135.7896  157.4290 C   0  0  0  0  0  0  0  0  0  0  0  0
  147.4599  135.1379  157.1767 C   0  0  0  0  0  0  0  0  0  0  0  0
  149.3177  133.6578  155.5502 H   0  0  0  0  0  0  0  0  0  0  0  0
  150.6616  134.4630  154.7522 H   0  0  0  0  0  0  0  0  0  0  0  0
  149.0263  135.0821  154.5497 H   0  0  0  0  0  0  0  0  0  0  0  0
  153.1554  137.1674  158.6879 H   0  0  0  0  0  0  0  0  0  0  0  0
  153.2824  136.9409  156.9696 H   0  0  0  0  0  0  0  0  0  0  0  0
  152.7765  139.2169  159.5208 H   0  0  0  0  0  0  0  0  0  0  0  0
  153.6713  141.4827  158.0295 H   0  0  0  0  0  0  0  0  0  0  0  0
  152.2998  141.2599  160.7562 H   0  0  0  0  0  0  0  0  0  0  0  0
  154.0246  141.2892  160.4809 H   0  0  0  0  0  0  0  0  0  0  0  0
  153.1830  143.5173  161.1910 H   0  0  0  0  0  0  0  0  0  0  0  0
  153.9089  143.5861  159.6037 H   0  0  0  0  0  0  0  0  0  0  0  0
  150.9223  143.4118  160.1967 H   0  0  0  0  0  0  0  0  0  0  0  0
  152.5429  145.7307  159.0425 H   0  0  0  0  0  0  0  0  0  0  0  0
  151.8613  145.6582  160.6654 H   0  0  0  0  0  0  0  0  0  0  0  0
  150.7957  145.7046  159.2665 H   0  0  0  0  0  0  0  0  0  0  0  0
  150.5767  143.6332  157.7595 H   0  0  0  0  0  0  0  0  0  0  0  0
  152.3022  143.6579  157.4879 H   0  0  0  0  0  0  0  0  0  0  0  0
  151.4149  141.4016  157.0458 H   0  0  0  0  0  0  0  0  0  0  0  0
  150.6843  141.3338  158.6317 H   0  0  0  0  0  0  0  0  0  0  0  0
  146.6879  135.5239  157.8417 H   0  0  0  0  0  0  0  0  0  0  0  0
  147.5240  134.0607  157.3317 H   0  0  0  0  0  0  0  0  0  0  0  0
  147.1243  135.3196  156.1554 H   0  0  0  0  0  0  0  0  0  0  0  0
  1  2  1  0  0  0  0
  1 23  1  0  0  0  0
  1 24  1  0  0  0  0
  1 25  1  0  0  0  0
  2 21  1  0  0  0  0
  2  3  2  0  0  0  0
  3  4  1  0  0  0  0
  4  5  1  0  0  0  0
  4 16  1  0  0  0  0
  5  6  1  0  0  0  0
  5 26  1  0  0  0  0
  5 27  1  0  0  0  0
  6  7  2  0  0  0  0
  6  8  1  0  0  0  0
  8  9  1  0  0  0  0
  8 28  1  0  0  0  0
  9 15  1  0  0  0  0
  9 10  1  0  0  0  0
  9 29  1  0  0  0  0
 10 11  1  0  0  0  0
 10 30  1  0  0  0  0
 10 31  1  0  0  0  0
 11 12  1  0  0  0  0
 11 32  1  0  0  0  0
 11 33  1  0  0  0  0
 12 13  1  0  0  0  0
 12 14  1  0  0  0  0
 12 34  1  0  0  0  0
 13 35  1  0  0  0  0
 13 36  1  0  0  0  0
 13 37  1  0  0  0  0
 14 15  1  0  0  0  0
 14 38  1  0  0  0  0
 14 39  1  0  0  0  0
 15 40  1  0  0  0  0
 15 41  1  0  0  0  0
 16 17  2  0  0  0  0
 16 18  1  0  0  0  0
 18 19  1  0  0  0  0
 18 21  2  0  0  0  0
 19 20  3  0  0  0  0
 21 22  1  0  0  0  0
 22 42  1  0  0  0  0
 22 43  1  0  0  0  0
 22 44  1  0  0  0  0
M  END
> <s_m_source_file>
AV-unprocessed.smi

> <i_m_source_file_index>
435

> <i_lp_mmshare_version>
43012

> <i_f3d_flags>
0

> <s_epik_input>
TiNDYyhjMVtDSDNdKWMoPU8pbihuYzFbQ0gzXSlbQ0gyXUMoPU8pW05IXVtDQEBIXTJbQ0gyXVtDSDJdW0NAQEhdKFtDSDNdKVtDSDJdW0NIMl0y

> <s_epik_cmdline>
J2VwaWtfcHl0aG9uJywgJy1waCcsICc3LjAnLCAnLXRuJywgJzgnLCAnLW1hJywgJzIwMCcsICctbWV0YWxfYmluZGluZycsICctaW1hZScsICc8aW5maWxlLm1hZT4nLCAnLW9tYWUnLCAnPG91dGZpbGUubWFlPic=

> <r_lp_tautomer_probability>
1

> <r_epik_Ionization_Penalty>
1.90703e-08

> <r_epik_Ionization_Penalty_Charging>
2.32563e-11

> <r_epik_Ionization_Penalty_Neutral>
1.90471e-08

> <r_epik_State_Penalty>
-0

> <r_epik_Charging_Adjusted_Penalty>
2.32563e-11

> <i_epik_Tot_Q>
0

> <i_epik_Tot_abs_Q>
0

> <r_epik_Metal_State_Penalty>
-0

> <b_epik_Metal_Only>
0

> <s_lp_Force_Field>
OPLS_2005

> <r_lp_Energy>
23.1706

> <b_lp_Chiralities_Consistent>
1

> <s_lp_Variant>
AV-unprocessed.smi:435-1

> <Gold.Version>
5.8.1

> <Gold.Id.Protein>
6NUR|6NUR_protein|mol2

> <Gold.PLP.Fitness>
39.8277

> <Gold.PLP.PLP>
-34.6880

> <Gold.PLP.part.hbond>
-3.0000

> <Gold.PLP.part.metal>
0.0000

> <Gold.PLP.part.buried>
-5.1441

> <Gold.PLP.part.nonpolar>
-26.2261

> <Gold.PLP.part.repulsive>
0.0967

> <Gold.PLP.ligand.clash>
0.0000

> <Gold.PLP.ligand.torsion>
0.4322

> <Gold.PLP.Chemscore.Hbond>
2.0000

> <Gold.PLP.Chemscore.CHOScore>
0.0000

> <Gold.PLP.Chemscore.Metal>
0.0000

> <Gold.Chemscore.Hbonds>
donor molecule, donor type, donor heavy atom, donor atom, acceptor molecule, acceptor atom, score
      P1  H  6934  6947       L1    20  1.00
      P1  H  7997  8009       L1     7  1.00

> <Gold.PLP.Chemscore.Internal.Correction>
0.0041

> <Gold.Rescore>
     Score         DG    S(hbond)    S(metal)    S(lipo)     H(rot)  DE(clash)    DE(int)     intcor
     18.00     -18.81       1.85        0.00      92.99       1.46       0.12       0.68       ----

> <Gold.Chemscore.Fitness>
18.0045

> <Gold.Chemscore.DG>
-18.8058

> <Gold.Chemscore.ZeroCoef>
-5.4800

> <Gold.Chemscore.Hbond>
1.8524

> <Gold.Chemscore.Metal>
0.0000

> <Gold.Chemscore.Lipo>
92.9928

> <Gold.Chemscore.Internal_Hbond>
0.0000

> <Gold.Chemscore.DEClash>
0.1196

> <Gold.Chemscore.DEInternal>
0.6817

> <Gold.Chemscore.Rot>
1.4615

> <Gold.Chemscore.Internal.Correction>
   9.000000E+99

> <Gold.Chemscore.Hbonds>
donor molecule, donor type, donor heavy atom, donor atom, acceptor molecule, acceptor atom, score
      P1  H  6934  6947       L1    20  0.94
      P1  H  7997  8009       L1     7  0.30

> <Gold.Chemscore.Hbond.Weighted>
-6.1870

> <Gold.Chemscore.Metal.Weighted>
-0.0000

> <Gold.Chemscore.Lipo.Weighted>
-10.8802

> <Gold.Chemscore.Internal_Hbond.Weighted>
0.0000

> <Gold.Chemscore.DEClash.Weighted>
0.1196

> <Gold.Chemscore.DEInternal.Weighted>
0.6817

> <Gold.Chemscore.Rot.Weighted>
3.7414

> <Gold.Chemscore.Internal.Correction.Weighted>
   9.000000E+99

> <Gold.Protein.RotatedTorsions>
[ 6907 6896 6895 6894 ] final   36.51 input  -60.11 | X-H torsion
[ 7974 7965 7964 7962 ] final  -61.58 input  175.53 | X-H torsion
[ 8008 7997 7996 7995 ] final -161.59 input   59.86 | X-H torsion
[ 10167 10162 10161 10158 ] final  -99.63 input  -65.29 | X-H torsion
[ 10718 10713 10712 10709 ] final  -23.58 input   66.30 | X-H torsion
[ 10763 10752 10751 10750 ] final  -56.13 input  -60.55 | X-H torsion
[ 11005 11000 10999 10996 ] final  173.92 input  -57.11 | X-H torsion

> <Gold.Protein.ActiveResidues>
 VAL166  LYS551  ARG553  GLY616  TRP617  ASP618  TYR619  PRO620  LYS621  CYS622 
 ASP623  PHE694  ASN695  SER759  ASP760  ASP761  ALA762  ILE779  LEU786  VAL792 
 PHE793  MET794  SER795  GLU796  ALA797  LYS798  CYS799  TRP800  GLU811  SER814 

> <Gold.Protein.RotatedAtoms>
  152.1307  134.9137  160.0558 H   0  0  0  0  0  0  0  0  0  0  0  0  # atno 6907 bound_to 6896
  152.0242  133.3906  159.4279 H   0  0  0  0  0  0  0  0  0  0  0  0  # atno 6908 bound_to 6896
  150.6856  134.3514  159.4954 H   0  0  0  0  0  0  0  0  0  0  0  0  # atno 6909 bound_to 6896
  145.8017  140.8651  143.0227 H   0  0  0  0  0  0  0  0  0  0  0  0  # atno 7974 bound_to 7965
  155.7944  140.0883  157.1991 H   0  0  0  0  0  0  0  0  0  0  0  0  # atno 8008 bound_to 7997
  154.3984  140.1484  156.3259 H   0  0  0  0  0  0  0  0  0  0  0  0  # atno 8009 bound_to 7997
  155.8526  140.3434  155.5706 H   0  0  0  0  0  0  0  0  0  0  0  0  # atno 8010 bound_to 7997
  140.2604  143.3411  152.0631 H   0  0  0  0  0  0  0  0  0  0  0  0  # atno 10167 bound_to 10162
  156.4891  130.4562  149.6766 H   0  0  0  0  0  0  0  0  0  0  0  0  # atno 10718 bound_to 10713
  154.2018  135.6409  153.5089 H   0  0  0  0  0  0  0  0  0  0  0  0  # atno 10763 bound_to 10752
  153.0010  135.5453  154.6307 H   0  0  0  0  0  0  0  0  0  0  0  0  # atno 10764 bound_to 10752
  154.5722  135.2918  155.0789 H   0  0  0  0  0  0  0  0  0  0  0  0  # atno 10765 bound_to 10752
  140.3457  134.7238  157.4233 H   0  0  0  0  0  0  0  0  0  0  0  0  # atno 11005 bound_to 11000
  144.6768  140.0269  143.7483 LP  0  0  0  0  0  0  0  0  0  0  0  0  # atno 17320 bound_to 7965
  145.9870  139.2985  143.1007 LP  0  0  0  0  0  0  0  0  0  0  0  0  # atno 17321 bound_to 7965
  139.5018  144.6722  151.6215 LP  0  0  0  0  0  0  0  0  0  0  0  0  # atno 17342 bound_to 10162
  140.5970  143.9678  150.6361 LP  0  0  0  0  0  0  0  0  0  0  0  0  # atno 17343 bound_to 10162
  156.3444  130.7399  151.2349 LP  0  0  0  0  0  0  0  0  0  0  0  0  # atno 17370 bound_to 10713
  157.7475  131.0394  150.4551 LP  0  0  0  0  0  0  0  0  0  0  0  0  # atno 17371 bound_to 10713
  140.0744  134.5817  155.8606 LP  0  0  0  0  0  0  0  0  0  0  0  0  # atno 17394 bound_to 11000
  141.2026  133.6626  156.6017 LP  0  0  0  0  0  0  0  0  0  0  0  0  # atno 17395 bound_to 11000

$$$$
