AV-unprocessed.smi:282|AV-procd|sdf|2121|dock2
  -GOLD-   2262021423D 1   1.00000     0.00000
 Structure written by MMmdl.
 65 69  0  0  0  0  0  0  0  0  2 V2000
  141.4864  135.5338  154.1092 C   0  0  0  0  0  0  0  0  0  0  0  0
  142.9756  135.2316  154.3233 C   0  0  0  0  0  0  0  0  0  0  0  0
  143.8537  135.4609  153.0688 C   0  0  2  0  0  0  0  0  0  0  0  0
  143.5230  134.5004  151.9074 C   0  0  0  0  0  0  0  0  0  0  0  0
  143.9818  133.1140  152.1901 N   0  3  1  0  0  0  0  0  0  0  0  0
  143.5946  132.1342  151.1418 C   0  0  0  0  0  0  0  0  0  0  0  0
  144.4701  132.2578  149.8802 C   0  0  0  0  0  0  0  0  0  0  0  0
  145.9601  132.1460  150.2307 C   0  0  0  0  0  0  0  0  0  0  0  0
  146.3340  133.1670  151.3144 C   0  0  0  0  0  0  0  0  0  0  0  0
  145.4257  133.0195  152.5553 C   0  0  1  0  0  0  0  0  0  0  0  0
  145.7901  134.0181  153.6718 C   0  0  0  0  0  0  0  0  0  0  0  0
  145.2817  135.3578  153.3795 N   0  0  0  0  0  0  0  0  0  0  0  0
  145.8446  136.4094  154.0276 C   0  0  0  0  0  0  0  0  0  0  0  0
  145.1849  137.5971  154.0810 N   0  0  0  0  0  0  0  0  0  0  0  0
  145.7301  138.6439  154.7076 C   0  0  0  0  0  0  0  0  0  0  0  0
  146.9006  138.7183  155.3433 N   0  0  0  0  0  0  0  0  0  0  0  0
  147.5619  137.5261  155.3043 C   0  0  0  0  0  0  0  0  0  0  0  0
  147.1129  136.3340  154.6691 C   0  0  0  0  0  0  0  0  0  0  0  0
  148.0517  135.3240  154.8427 N   0  0  0  0  0  0  0  0  0  0  0  0
  149.0036  135.8889  155.5338 C   0  0  0  0  0  0  0  0  0  0  0  0
  148.7832  137.2050  155.8720 N   0  0  0  0  0  0  0  0  0  0  0  0
  149.6679  138.0727  156.6344 C   0  0  0  0  0  0  0  0  0  0  0  0
  150.8443  138.7168  155.8317 C   0  0  0  0  0  0  0  0  0  0  0  0
  150.4579  138.9120  154.3383 C   0  0  0  0  0  0  0  0  0  0  0  0
  149.8794  140.1724  154.0610 O   0  0  0  0  0  0  0  0  0  0  0  0
  151.3260  140.0643  156.4300 C   0  0  0  0  0  0  0  0  0  0  0  0
  152.0159  139.8940  157.7949 C   0  0  0  0  0  0  0  0  0  0  0  0
  153.1188  139.0056  157.6710 O   0  0  0  0  0  0  0  0  0  0  0  0
  152.7337  137.6995  157.2625 C   0  0  0  0  0  0  0  0  0  0  0  0
  152.0593  137.7558  155.8783 C   0  0  0  0  0  0  0  0  0  0  0  0
  140.9398  135.4492  155.0487 H   0  0  0  0  0  0  0  0  0  0  0  0
  141.0268  134.8407  153.4054 H   0  0  0  0  0  0  0  0  0  0  0  0
  141.3401  136.5464  153.7323 H   0  0  0  0  0  0  0  0  0  0  0  0
  143.3290  135.8762  155.1291 H   0  0  0  0  0  0  0  0  0  0  0  0
  143.0862  134.2101  154.6880 H   0  0  0  0  0  0  0  0  0  0  0  0
  143.6410  136.4679  152.7133 H   0  0  0  0  0  0  0  0  0  0  0  0
  142.4547  134.5014  151.6944 H   0  0  0  0  0  0  0  0  0  0  0  0
  144.0062  134.8664  151.0013 H   0  0  0  0  0  0  0  0  0  0  0  0
  143.6980  131.1307  151.5567 H   0  0  0  0  0  0  0  0  0  0  0  0
  142.5403  132.2529  150.8896 H   0  0  0  0  0  0  0  0  0  0  0  0
  144.1995  131.4802  149.1654 H   0  0  0  0  0  0  0  0  0  0  0  0
  144.2796  133.2081  149.3808 H   0  0  0  0  0  0  0  0  0  0  0  0
  146.1781  131.1381  150.5858 H   0  0  0  0  0  0  0  0  0  0  0  0
  146.5697  132.3012  149.3401 H   0  0  0  0  0  0  0  0  0  0  0  0
  147.3773  133.0271  151.5995 H   0  0  0  0  0  0  0  0  0  0  0  0
  146.2641  134.1766  150.9083 H   0  0  0  0  0  0  0  0  0  0  0  0
  145.5890  132.0177  152.9559 H   0  0  0  0  0  0  0  0  0  0  0  0
  145.3682  133.6814  154.6193 H   0  0  0  0  0  0  0  0  0  0  0  0
  146.8730  134.0403  153.8038 H   0  0  0  0  0  0  0  0  0  0  0  0
  145.1439  139.5509  154.7005 H   0  0  0  0  0  0  0  0  0  0  0  0
  149.8950  135.3535  155.8257 H   0  0  0  0  0  0  0  0  0  0  0  0
  149.0417  138.8350  157.0948 H   0  0  0  0  0  0  0  0  0  0  0  0
  150.0686  137.4913  157.4656 H   0  0  0  0  0  0  0  0  0  0  0  0
  151.3388  138.8279  153.7010 H   0  0  0  0  0  0  0  0  0  0  0  0
  149.7694  138.1300  154.0163 H   0  0  0  0  0  0  0  0  0  0  0  0
  149.4712  140.1344  153.2095 H   0  0  0  0  0  0  0  0  0  0  0  0
  152.0403  140.5249  155.7459 H   0  0  0  0  0  0  0  0  0  0  0  0
  150.5067  140.7766  156.5161 H   0  0  0  0  0  0  0  0  0  0  0  0
  152.3859  140.8579  158.1446 H   0  0  0  0  0  0  0  0  0  0  0  0
  151.3219  139.5322  158.5542 H   0  0  0  0  0  0  0  0  0  0  0  0
  153.6268  137.0765  157.2119 H   0  0  0  0  0  0  0  0  0  0  0  0
  152.0850  137.2460  158.0121 H   0  0  0  0  0  0  0  0  0  0  0  0
  151.7638  136.7526  155.5685 H   0  0  0  0  0  0  0  0  0  0  0  0
  152.8128  138.0800  155.1592 H   0  0  0  0  0  0  0  0  0  0  0  0
  143.4738  132.8412  153.0192 H   0  0  0  0  0  0  0  0  0  0  0  0
  1  2  1  0  0  0  0
  1 31  1  0  0  0  0
  1 32  1  0  0  0  0
  1 33  1  0  0  0  0
  2  3  1  0  0  0  0
  2 34  1  0  0  0  0
  2 35  1  0  0  0  0
  3 12  1  0  0  0  0
  3  4  1  0  0  0  0
  3 36  1  0  0  0  0
  4  5  1  0  0  0  0
  4 37  1  0  0  0  0
  4 38  1  0  0  0  0
  5 10  1  0  0  0  0
  5  6  1  0  0  0  0
  5 65  1  0  0  0  0
  6  7  1  0  0  0  0
  6 39  1  0  0  0  0
  6 40  1  0  0  0  0
  7  8  1  0  0  0  0
  7 41  1  0  0  0  0
  7 42  1  0  0  0  0
  8  9  1  0  0  0  0
  8 43  1  0  0  0  0
  8 44  1  0  0  0  0
  9 10  1  0  0  0  0
  9 45  1  0  0  0  0
  9 46  1  0  0  0  0
 10 11  1  0  0  0  0
 10 47  1  0  0  0  0
 11 12  1  0  0  0  0
 11 48  1  0  0  0  0
 11 49  1  0  0  0  0
 12 13  1  0  0  0  0
 13 18  1  0  0  0  0
 13 14  2  0  0  0  0
 14 15  1  0  0  0  0
 15 16  2  0  0  0  0
 15 50  1  0  0  0  0
 16 17  1  0  0  0  0
 17 21  1  0  0  0  0
 17 18  2  0  0  0  0
 18 19  1  0  0  0  0
 19 20  2  0  0  0  0
 20 21  1  0  0  0  0
 20 51  1  0  0  0  0
 21 22  1  0  0  0  0
 22 23  1  0  0  0  0
 22 52  1  0  0  0  0
 22 53  1  0  0  0  0
 23 30  1  0  0  0  0
 23 24  1  0  0  0  0
 23 26  1  0  0  0  0
 24 25  1  0  0  0  0
 24 54  1  0  0  0  0
 24 55  1  0  0  0  0
 25 56  1  0  0  0  0
 26 27  1  0  0  0  0
 26 57  1  0  0  0  0
 26 58  1  0  0  0  0
 27 28  1  0  0  0  0
 27 59  1  0  0  0  0
 27 60  1  0  0  0  0
 28 29  1  0  0  0  0
 29 30  1  0  0  0  0
 29 61  1  0  0  0  0
 29 62  1  0  0  0  0
 30 63  1  0  0  0  0
 30 64  1  0  0  0  0
M  CHG  1   5   1
M  END
> <s_m_source_file>
AV-unprocessed.smi

> <i_m_source_file_index>
282

> <i_lp_mmshare_version>
43012

> <i_f3d_flags>
0

> <s_epik_input>
W0NIMl0xW0NIMl1bQ0gyXVtDSDJdW0NAQEhdKE4xMilbQ0gyXU4oW0NAQEhdKFtDSDJdMilbQ0gyXVtDSDNdKWMobltjSF1uMyljKGMzNCluW2NIXW40W0NIMl1DNShbQ0gyXVtPSF0pW0NIMl1bQ0gyXU9bQ0gyXVtDSDJdNQ==

> <s_epik_cmdline>
J2VwaWtfcHl0aG9uJywgJy1waCcsICc3LjAnLCAnLXRuJywgJzgnLCAnLW1hJywgJzIwMCcsICctbWV0YWxfYmluZGluZycsICctaW1hZScsICc8aW5maWxlLm1hZT4nLCAnLW9tYWUnLCAnPG91dGZpbGUubWFlPic=

> <r_lp_tautomer_probability>
1

> <r_epik_Ionization_Penalty>
0.00308583

> <r_epik_Ionization_Penalty_Charging>
0.00300384

> <r_epik_Ionization_Penalty_Neutral>
8.19894e-05

> <r_epik_State_Penalty>
-0

> <r_epik_Charging_Adjusted_Penalty>
0.00300384

> <i_epik_Tot_Q>
1

> <i_epik_Tot_abs_Q>
1

> <r_epik_Metal_State_Penalty>
-0

> <b_epik_Metal_Only>
0

> <s_lp_Force_Field>
OPLS_2005

> <r_lp_Energy>
61.1987

> <b_lp_Chiralities_Consistent>
1

> <s_lp_Variant>
AV-unprocessed.smi:282-5

> <Gold.Version>
5.8.1

> <Gold.Id.Protein>
6NUR|6NUR_protein|mol2

> <Gold.PLP.Fitness>
47.4459

> <Gold.PLP.PLP>
-36.4933

> <Gold.PLP.part.hbond>
-3.3918

> <Gold.PLP.part.metal>
0.0000

> <Gold.PLP.part.buried>
-7.1698

> <Gold.PLP.part.nonpolar>
-28.2706

> <Gold.PLP.part.repulsive>
0.3126

> <Gold.PLP.ligand.clash>
0.0000

> <Gold.PLP.ligand.torsion>
1.5154

> <Gold.PLP.Chemscore.Hbond>
3.5575

> <Gold.PLP.Chemscore.CHOScore>
1.0000

> <Gold.PLP.Chemscore.Metal>
0.0000

> <Gold.Chemscore.Hbonds>
donor molecule, donor type, donor heavy atom, donor atom, acceptor molecule, acceptor atom, score
      L1  H     5    65       P1 10957  1.14
      L1  H    25    56       P1  7957  0.94
      P1  H  7989  7998       L1    25  0.40
      P1  H  7997  8009       L1    28  1.00
      L1  C    15    50       P1 10175  0.26

> <Gold.PLP.Chemscore.Internal.Correction>
0.3108

> <Gold.Rescore>
     Score         DG    S(hbond)    S(metal)    S(lipo)     H(rot)  DE(clash)    DE(int)     intcor
     16.32     -19.64       2.49        0.00      98.03       2.20       0.08       3.24       ----

> <Gold.Chemscore.Fitness>
16.3179

> <Gold.Chemscore.DG>
-19.6360

> <Gold.Chemscore.ZeroCoef>
-5.4800

> <Gold.Chemscore.Hbond>
2.4939

> <Gold.Chemscore.Metal>
0.0000

> <Gold.Chemscore.Lipo>
98.0269

> <Gold.Chemscore.Internal_Hbond>
0.0000

> <Gold.Chemscore.DEClash>
0.0808

> <Gold.Chemscore.DEInternal>
3.2373

> <Gold.Chemscore.Rot>
2.2042

> <Gold.Chemscore.Internal.Correction>
   9.000000E+99

> <Gold.Chemscore.Hbonds>
donor molecule, donor type, donor heavy atom, donor atom, acceptor molecule, acceptor atom, score
      L1  H     5    65       P1 10957  0.22
      L1  H    25    56       P1  7957  0.85
      P1  H  7997  8009       L1    28  0.33

> <Gold.Chemscore.Hbond.Weighted>
-8.3297

> <Gold.Chemscore.Metal.Weighted>
-0.0000

> <Gold.Chemscore.Lipo.Weighted>
-11.4691

> <Gold.Chemscore.Internal_Hbond.Weighted>
0.0000

> <Gold.Chemscore.DEClash.Weighted>
0.0808

> <Gold.Chemscore.DEInternal.Weighted>
3.2373

> <Gold.Chemscore.Rot.Weighted>
5.6429

> <Gold.Chemscore.Internal.Correction.Weighted>
   9.000000E+99

> <Gold.Protein.RotatedTorsions>
[ 6907 6896 6895 6894 ] final   26.18 input  -60.11 | X-H torsion
[ 7974 7965 7964 7962 ] final  -91.78 input  175.53 | X-H torsion
[ 8008 7997 7996 7995 ] final -178.01 input   59.86 | X-H torsion
[ 10167 10162 10161 10158 ] final -175.72 input  -65.29 | X-H torsion
[ 10718 10713 10712 10709 ] final -112.99 input   66.30 | X-H torsion
[ 10763 10752 10751 10750 ] final  -97.13 input  -60.55 | X-H torsion
[ 11005 11000 10999 10996 ] final   94.04 input  -57.11 | X-H torsion

> <Gold.Protein.ActiveResidues>
 VAL166  LYS551  ARG553  GLY616  TRP617  ASP618  TYR619  PRO620  LYS621  CYS622 
 ASP623  PHE694  ASN695  SER759  ASP760  ASP761  ALA762  ILE779  LEU786  VAL792 
 PHE793  MET794  SER795  GLU796  ALA797  LYS798  CYS799  TRP800  GLU811  SER814 

> <Gold.Protein.RotatedAtoms>
  151.9837  135.0015  160.0558 H   0  0  0  0  0  0  0  0  0  0  0  0  # atno 6907 bound_to 6896
  152.1673  133.4616  159.4899 H   0  0  0  0  0  0  0  0  0  0  0  0  # atno 6908 bound_to 6896
  150.6896  134.1915  159.4330 H   0  0  0  0  0  0  0  0  0  0  0  0  # atno 6909 bound_to 6896
  145.4085  140.9543  143.2247 H   0  0  0  0  0  0  0  0  0  0  0  0  # atno 7974 bound_to 7965
  156.0137  140.1246  157.0428 H   0  0  0  0  0  0  0  0  0  0  0  0  # atno 8008 bound_to 7997
  154.4285  140.1082  156.5935 H   0  0  0  0  0  0  0  0  0  0  0  0  # atno 8009 bound_to 7997
  155.6043  140.3471  155.4605 H   0  0  0  0  0  0  0  0  0  0  0  0  # atno 8010 bound_to 7997
  139.5566  144.1973  152.1170 H   0  0  0  0  0  0  0  0  0  0  0  0  # atno 10167 bound_to 10162
  156.0739  130.5949  150.8583 H   0  0  0  0  0  0  0  0  0  0  0  0  # atno 10718 bound_to 10713
  154.7301  135.5058  153.8950 H   0  0  0  0  0  0  0  0  0  0  0  0  # atno 10763 bound_to 10752
  153.0942  135.6667  153.9804 H   0  0  0  0  0  0  0  0  0  0  0  0  # atno 10764 bound_to 10752
  153.9607  135.3048  155.3413 H   0  0  0  0  0  0  0  0  0  0  0  0  # atno 10765 bound_to 10752
  139.8803  134.8823  156.3806 H   0  0  0  0  0  0  0  0  0  0  0  0  # atno 11005 bound_to 11000
  144.8325  139.5605  143.6937 LP  0  0  0  0  0  0  0  0  0  0  0  0  # atno 17320 bound_to 7965
  146.2716  139.6651  142.9292 LP  0  0  0  0  0  0  0  0  0  0  0  0  # atno 17321 bound_to 7965
  140.1478  144.5142  150.6705 LP  0  0  0  0  0  0  0  0  0  0  0  0  # atno 17342 bound_to 10162
  140.6840  143.2341  151.5309 LP  0  0  0  0  0  0  0  0  0  0  0  0  # atno 17343 bound_to 10162
  157.5825  131.0946  150.9249 LP  0  0  0  0  0  0  0  0  0  0  0  0  # atno 17370 bound_to 10713
  156.9441  130.5395  149.5281 LP  0  0  0  0  0  0  0  0  0  0  0  0  # atno 17371 bound_to 10713
  140.9401  133.7520  156.0135 LP  0  0  0  0  0  0  0  0  0  0  0  0  # atno 17394 bound_to 11000
  140.8229  134.3268  157.5375 LP  0  0  0  0  0  0  0  0  0  0  0  0  # atno 17395 bound_to 11000

$$$$
