AV-unprocessed.smi:3047|AV-procd|sdf|11621|dock9
  -GOLD-   2272017 03D 1   1.00000     0.00000
 Structure written by MMmdl.
 38 39  0  0  0  0  0  0  0  0  2 V2000
  149.9481  136.5015  157.7191 C   0  0  0  0  0  0  0  0  0  0  0  0
  148.4098  135.5013  157.8386 S   0  0  0  0  0  0  0  0  0  0  0  0
  148.3751  134.8658  159.1649 O   0  0  0  0  0  0  0  0  0  0  0  0
  147.2696  136.3111  157.3834 O   0  0  0  0  0  0  0  0  0  0  0  0
  148.6712  134.2521  156.6701 N   0  0  0  0  0  0  0  0  0  0  0  0
  149.6812  133.2219  156.9487 C   0  0  0  0  0  0  0  0  0  0  0  0
  150.1068  132.6828  155.5854 C   0  0  0  0  0  0  0  0  0  0  0  0
  149.9291  133.8861  154.6697 C   0  0  0  0  0  0  0  0  0  0  0  0
  148.7028  134.6170  155.2444 C   0  0  1  0  0  0  0  0  0  0  0  0
  147.3931  134.2752  154.5197 C   0  0  0  0  0  0  0  0  0  0  0  0
  146.4547  133.7567  155.1258 O   0  0  0  0  0  0  0  0  0  0  0  0
  147.3383  134.5871  153.2156 N   0  0  0  0  0  0  0  0  0  0  0  0
  146.1806  134.3831  152.3539 C   0  0  0  0  0  0  0  0  0  0  0  0
  146.4638  133.3454  151.2549 C   0  0  0  0  0  0  0  0  0  0  0  0
  145.2943  133.1316  150.4011 N   0  0  0  0  0  0  0  0  0  0  0  0
  145.2149  132.3300  149.2914 C   0  0  0  0  0  0  0  0  0  0  0  0
  143.9312  132.4395  148.8218 C   0  0  0  0  0  0  0  0  0  0  0  0
  143.2823  133.3025  149.6643 N   0  3  0  0  0  0  0  0  0  0  0  0
  144.1130  133.7219  150.6246 C   0  0  0  0  0  0  0  0  0  0  0  0
  149.9137  137.3059  158.4533 H   0  0  0  0  0  0  0  0  0  0  0  0
  150.0318  136.9295  156.7206 H   0  0  0  0  0  0  0  0  0  0  0  0
  150.8118  135.8673  157.9172 H   0  0  0  0  0  0  0  0  0  0  0  0
  150.5343  133.6763  157.4537 H   0  0  0  0  0  0  0  0  0  0  0  0
  149.2747  132.4441  157.5956 H   0  0  0  0  0  0  0  0  0  0  0  0
  151.1259  132.2956  155.5832 H   0  0  0  0  0  0  0  0  0  0  0  0
  149.4391  131.8770  155.2780 H   0  0  0  0  0  0  0  0  0  0  0  0
  150.8050  134.5330  154.7377 H   0  0  0  0  0  0  0  0  0  0  0  0
  149.8219  133.5976  153.6230 H   0  0  0  0  0  0  0  0  0  0  0  0
  148.8737  135.6911  155.1515 H   0  0  0  0  0  0  0  0  0  0  0  0
  148.1483  135.0251  152.8000 H   0  0  0  0  0  0  0  0  0  0  0  0
  145.3213  134.0815  152.9555 H   0  0  0  0  0  0  0  0  0  0  0  0
  145.9221  135.3419  151.9033 H   0  0  0  0  0  0  0  0  0  0  0  0
  147.2986  133.6609  150.6269 H   0  0  0  0  0  0  0  0  0  0  0  0
  146.7342  132.3810  151.6875 H   0  0  0  0  0  0  0  0  0  0  0  0
  146.0557  131.7555  148.9291 H   0  0  0  0  0  0  0  0  0  0  0  0
  143.4440  131.9799  147.9740 H   0  0  0  0  0  0  0  0  0  0  0  0
  143.8747  134.4026  151.4228 H   0  0  0  0  0  0  0  0  0  0  0  0
  142.3136  133.5834  149.5760 H   0  0  0  0  0  0  0  0  0  0  0  0
  1  2  1  0  0  0  0
  1 20  1  0  0  0  0
  1 21  1  0  0  0  0
  1 22  1  0  0  0  0
  2  3  2  0  0  0  0
  2  4  2  0  0  0  0
  2  5  1  0  0  0  0
  5  9  1  0  0  0  0
  5  6  1  0  0  0  0
  6  7  1  0  0  0  0
  6 23  1  0  0  0  0
  6 24  1  0  0  0  0
  7  8  1  0  0  0  0
  7 25  1  0  0  0  0
  7 26  1  0  0  0  0
  8  9  1  0  0  0  0
  8 27  1  0  0  0  0
  8 28  1  0  0  0  0
  9 10  1  0  0  0  0
  9 29  1  0  0  0  0
 10 11  2  0  0  0  0
 10 12  1  0  0  0  0
 12 13  1  0  0  0  0
 12 30  1  0  0  0  0
 13 14  1  0  0  0  0
 13 31  1  0  0  0  0
 13 32  1  0  0  0  0
 14 15  1  0  0  0  0
 14 33  1  0  0  0  0
 14 34  1  0  0  0  0
 15 19  1  0  0  0  0
 15 16  1  0  0  0  0
 16 17  2  0  0  0  0
 16 35  1  0  0  0  0
 17 18  1  0  0  0  0
 17 36  1  0  0  0  0
 18 19  2  0  0  0  0
 18 38  1  0  0  0  0
 19 37  1  0  0  0  0
M  CHG  1  18   1
M  END
> <s_m_source_file>
AV-unprocessed.smi

> <i_m_source_file_index>
3047

> <i_lp_mmshare_version>
43012

> <i_f3d_flags>
0

> <s_epik_input>
W0NIM11TKD1PKSg9TylOMVtDSDJdW0NIMl1bQ0gyXVtDQEhdMUMoPU8pW05IXVtDSDJdW0NIMl1uMltjSF1bY0hdbltjSF0y

> <s_epik_cmdline>
J2VwaWtfcHl0aG9uJywgJy1waCcsICc3LjAnLCAnLXRuJywgJzgnLCAnLW1hJywgJzIwMCcsICctbWV0YWxfYmluZGluZycsICctaW1hZScsICc8aW5maWxlLm1hZT4nLCAnLW9tYWUnLCAnPG91dGZpbGUubWFlPic=

> <r_lp_tautomer_probability>
1

> <r_epik_Ionization_Penalty>
0.281738

> <r_epik_Ionization_Penalty_Charging>
0

> <r_epik_Ionization_Penalty_Neutral>
0.281738

> <r_epik_State_Penalty>
0.274352

> <r_epik_Charging_Adjusted_Penalty>
0.274352

> <i_epik_Tot_Q>
1

> <i_epik_Tot_abs_Q>
1

> <r_epik_Metal_State_Penalty>
0.555562

> <b_epik_Metal_Only>
0

> <s_lp_Force_Field>
OPLS_2005

> <r_lp_Energy>
11.1573

> <b_lp_Chiralities_Consistent>
1

> <s_lp_Variant>
AV-unprocessed.smi:3047-1

> <Gold.Version>
5.8.1

> <Gold.Id.Protein>
6NUR|6NUR_protein|mol2

> <Gold.PLP.Fitness>
38.6953

> <Gold.PLP.PLP>
-26.7366

> <Gold.PLP.part.hbond>
-3.0000

> <Gold.PLP.part.metal>
0.0000

> <Gold.PLP.part.buried>
-3.2798

> <Gold.PLP.part.nonpolar>
-20.6455

> <Gold.PLP.part.repulsive>
0.1164

> <Gold.PLP.ligand.clash>
0.0000

> <Gold.PLP.ligand.torsion>
0.3008

> <Gold.PLP.Chemscore.Hbond>
4.0000

> <Gold.PLP.Chemscore.CHOScore>
0.0000

> <Gold.PLP.Chemscore.Metal>
0.0000

> <Gold.Chemscore.Hbonds>
donor molecule, donor type, donor heavy atom, donor atom, acceptor molecule, acceptor atom, score
      L1  H    12    30       P1  7948  1.00
      L1  H    18    38       P1 10186  2.00
      P1  H  6896  6908       L1     3  0.23

> <Gold.PLP.Chemscore.Internal.Correction>
0.5603

> <Gold.Rescore>
     Score         DG    S(hbond)    S(metal)    S(lipo)     H(rot)  DE(clash)    DE(int)     intcor
     15.15     -15.70       2.90        0.00      58.48       2.47       0.05       0.50       ----

> <Gold.Chemscore.Fitness>
15.1480

> <Gold.Chemscore.DG>
-15.6998

> <Gold.Chemscore.ZeroCoef>
-5.4800

> <Gold.Chemscore.Hbond>
2.9037

> <Gold.Chemscore.Metal>
0.0000

> <Gold.Chemscore.Lipo>
58.4777

> <Gold.Chemscore.Internal_Hbond>
0.0000

> <Gold.Chemscore.DEClash>
0.0504

> <Gold.Chemscore.DEInternal>
0.5014

> <Gold.Chemscore.Rot>
2.4689

> <Gold.Chemscore.Internal.Correction>
   9.000000E+99

> <Gold.Chemscore.Hbonds>
donor molecule, donor type, donor heavy atom, donor atom, acceptor molecule, acceptor atom, score
      L1  H    12    30       P1  7948  0.89
      L1  H    18    38       P1 10186  0.95
      P1  H  6896  6908       L1     3  0.07

> <Gold.Chemscore.Hbond.Weighted>
-9.6984

> <Gold.Chemscore.Metal.Weighted>
-0.0000

> <Gold.Chemscore.Lipo.Weighted>
-6.8419

> <Gold.Chemscore.Internal_Hbond.Weighted>
0.0000

> <Gold.Chemscore.DEClash.Weighted>
0.0504

> <Gold.Chemscore.DEInternal.Weighted>
0.5014

> <Gold.Chemscore.Rot.Weighted>
6.3204

> <Gold.Chemscore.Internal.Correction.Weighted>
   9.000000E+99

> <Gold.Protein.RotatedTorsions>
[ 6907 6896 6895 6894 ] final  149.26 input  -60.11 | X-H torsion
[ 7974 7965 7964 7962 ] final  170.33 input  175.53 | X-H torsion
[ 8008 7997 7996 7995 ] final   34.68 input   59.86 | X-H torsion
[ 10167 10162 10161 10158 ] final  109.08 input  -65.29 | X-H torsion
[ 10718 10713 10712 10709 ] final  -45.17 input   66.30 | X-H torsion
[ 10763 10752 10751 10750 ] final -154.49 input  -60.55 | X-H torsion
[ 11005 11000 10999 10996 ] final    9.23 input  -57.11 | X-H torsion

> <Gold.Protein.ActiveResidues>
 VAL166  LYS551  ARG553  GLY616  TRP617  ASP618  TYR619  PRO620  LYS621  CYS622 
 ASP623  PHE694  ASN695  SER759  ASP760  ASP761  ALA762  ILE779  LEU786  VAL792 
 PHE793  MET794  SER795  GLU796  ALA797  LYS798  CYS799  TRP800  GLU811  SER814 

> <Gold.Protein.RotatedAtoms>
  152.1304  133.4405  159.4717 H   0  0  0  0  0  0  0  0  0  0  0  0  # atno 6907 bound_to 6896
  150.6878  134.2427  159.4488 H   0  0  0  0  0  0  0  0  0  0  0  0  # atno 6908 bound_to 6896
  152.0310  134.9767  160.0623 H   0  0  0  0  0  0  0  0  0  0  0  0  # atno 6909 bound_to 6896
  144.7327  139.9186  143.6419 H   0  0  0  0  0  0  0  0  0  0  0  0  # atno 7974 bound_to 7965
  155.1588  140.3281  155.4416 H   0  0  0  0  0  0  0  0  0  0  0  0  # atno 8008 bound_to 7997
  156.2550  140.1964  156.6646 H   0  0  0  0  0  0  0  0  0  0  0  0  # atno 8009 bound_to 7997
  154.6420  140.0569  156.9843 H   0  0  0  0  0  0  0  0  0  0  0  0  # atno 8010 bound_to 7997
  139.6795  144.7119  151.1542 H   0  0  0  0  0  0  0  0  0  0  0  0  # atno 10167 bound_to 10162
  156.2311  130.4172  149.8874 H   0  0  0  0  0  0  0  0  0  0  0  0  # atno 10718 bound_to 10713
  154.7855  135.3189  154.7896 H   0  0  0  0  0  0  0  0  0  0  0  0  # atno 10763 bound_to 10752
  153.8598  135.6854  153.4788 H   0  0  0  0  0  0  0  0  0  0  0  0  # atno 10764 bound_to 10752
  153.1505  135.4701  154.9568 H   0  0  0  0  0  0  0  0  0  0  0  0  # atno 10765 bound_to 10752
  140.5281  134.0493  155.7865 H   0  0  0  0  0  0  0  0  0  0  0  0  # atno 11005 bound_to 11000
  146.0947  139.3938  143.0384 LP  0  0  0  0  0  0  0  0  0  0  0  0  # atno 17320 bound_to 7965
  145.7663  140.9915  143.1173 LP  0  0  0  0  0  0  0  0  0  0  0  0  # atno 17321 bound_to 7965
  140.7647  143.5721  150.8984 LP  0  0  0  0  0  0  0  0  0  0  0  0  # atno 17342 bound_to 10162
  139.9392  143.6402  152.3058 LP  0  0  0  0  0  0  0  0  0  0  0  0  # atno 17343 bound_to 10162
  156.6488  130.8735  151.3527 LP  0  0  0  0  0  0  0  0  0  0  0  0  # atno 17370 bound_to 10713
  157.7133  130.9467  150.1166 LP  0  0  0  0  0  0  0  0  0  0  0  0  # atno 17371 bound_to 10713
  141.1297  133.9324  157.2562 LP  0  0  0  0  0  0  0  0  0  0  0  0  # atno 17394 bound_to 11000
  139.9569  135.0163  156.9153 LP  0  0  0  0  0  0  0  0  0  0  0  0  # atno 17395 bound_to 11000

$$$$
