AV-unprocessed.smi:1047|AV-procd|sdf|4590|dock6
  -GOLD-   22720 3 63D 1   1.00000     0.00000
 Structure written by MMmdl.
 57 59  0  0  0  0  0  0  0  0  3 V2000
  147.6966  129.1873  153.4036 C   0  0  0  0  0  0  0  0  0  0  0  0
  148.7486  130.1254  154.0124 C   0  0  0  0  0  0  0  0  0  0  0  0
  148.5655  131.5421  153.7007 N   0  0  0  0  0  0  0  0  0  0  0  0
  147.2073  132.0051  153.9753 C   0  0  0  0  0  0  0  0  0  0  0  0
  147.0419  133.5038  153.6715 C   0  0  0  0  0  0  0  0  0  0  0  0
  148.0025  134.2503  154.4116 O   0  0  0  0  0  0  0  0  0  0  0  0
  149.3457  133.8669  154.1268 C   0  0  1  0  0  0  0  0  0  0  0  0
  150.2817  134.7401  154.9733 C   0  0  0  0  0  0  0  0  0  0  0  0
  150.0561  136.1740  154.7053 N   0  3  0  0  0  0  0  0  0  0  0  0
  151.1718  137.0463  155.1228 C   0  0  0  0  0  0  0  0  0  0  0  0
  150.7040  138.4962  155.3561 C   0  0  1  0  0  0  0  0  0  0  0  0
  149.5080  138.4815  156.1093 O   0  0  0  0  0  0  0  0  0  0  0  0
  151.7169  139.3615  156.1337 C   0  0  0  0  0  0  0  0  0  0  0  0
  151.2690  140.7481  156.3269 N   0  0  0  0  0  0  0  0  0  0  0  0
  150.5033  141.5297  155.5174 C   0  0  0  0  0  0  0  0  0  0  0  0
  150.3448  142.7321  156.1362 N   0  3  0  0  0  0  0  0  0  0  0  0
  151.0153  142.7183  157.3609 C   0  0  0  0  0  0  0  0  0  0  0  0
  151.1428  143.6977  158.3386 C   0  0  0  0  0  0  0  0  0  0  0  0
  151.8987  143.3694  159.4864 C   0  0  0  0  0  0  0  0  0  0  0  0
  152.0550  144.4171  160.5759 C   0  0  0  0  0  0  0  0  0  0  0  0
  152.4998  142.0914  159.6228 C   0  0  0  0  0  0  0  0  0  0  0  0
  153.3129  141.7493  160.8599 C   0  0  0  0  0  0  0  0  0  0  0  0
  152.3586  141.1088  158.6170 C   0  0  0  0  0  0  0  0  0  0  0  0
  151.6088  141.4473  157.4924 C   0  0  0  0  0  0  0  0  0  0  0  0
  149.5074  132.3679  154.4481 C   0  0  0  0  0  0  0  0  0  0  0  0
  147.9623  128.1459  153.5863 H   0  0  0  0  0  0  0  0  0  0  0  0
  147.6233  129.3249  152.3243 H   0  0  0  0  0  0  0  0  0  0  0  0
  146.7087  129.3483  153.8338 H   0  0  0  0  0  0  0  0  0  0  0  0
  148.7797  129.9836  155.0938 H   0  0  0  0  0  0  0  0  0  0  0  0
  149.7233  129.8066  153.6407 H   0  0  0  0  0  0  0  0  0  0  0  0
  146.4880  131.4469  153.3765 H   0  0  0  0  0  0  0  0  0  0  0  0
  146.9565  131.8189  155.0208 H   0  0  0  0  0  0  0  0  0  0  0  0
  147.1641  133.6975  152.6045 H   0  0  0  0  0  0  0  0  0  0  0  0
  146.0412  133.8383  153.9455 H   0  0  0  0  0  0  0  0  0  0  0  0
  149.5548  134.0341  153.0683 H   0  0  0  0  0  0  0  0  0  0  0  0
  150.1313  134.5343  156.0341 H   0  0  0  0  0  0  0  0  0  0  0  0
  151.3204  134.5009  154.7423 H   0  0  0  0  0  0  0  0  0  0  0  0
  149.8980  136.2976  153.7153 H   0  0  0  0  0  0  0  0  0  0  0  0
  151.6355  136.6467  156.0262 H   0  0  0  0  0  0  0  0  0  0  0  0
  151.9254  137.0165  154.3360 H   0  0  0  0  0  0  0  0  0  0  0  0
  150.4959  138.9730  154.3971 H   0  0  0  0  0  0  0  0  0  0  0  0
  148.9963  139.2457  155.8925 H   0  0  0  0  0  0  0  0  0  0  0  0
  151.8732  138.9418  157.1288 H   0  0  0  0  0  0  0  0  0  0  0  0
  152.6941  139.3595  155.6505 H   0  0  0  0  0  0  0  0  0  0  0  0
  150.0905  141.2453  154.5599 H   0  0  0  0  0  0  0  0  0  0  0  0
  150.6825  144.6688  158.2274 H   0  0  0  0  0  0  0  0  0  0  0  0
  151.6655  144.0460  161.5242 H   0  0  0  0  0  0  0  0  0  0  0  0
  151.5144  145.3318  160.3303 H   0  0  0  0  0  0  0  0  0  0  0  0
  153.1057  144.6766  160.7100 H   0  0  0  0  0  0  0  0  0  0  0  0
  153.7266  140.7423  160.8001 H   0  0  0  0  0  0  0  0  0  0  0  0
  152.6901  141.8007  161.7533 H   0  0  0  0  0  0  0  0  0  0  0  0
  154.1451  142.4439  160.9767 H   0  0  0  0  0  0  0  0  0  0  0  0
  152.8186  140.1379  158.7255 H   0  0  0  0  0  0  0  0  0  0  0  0
  149.3684  132.2082  155.5186 H   0  0  0  0  0  0  0  0  0  0  0  0
  150.5279  132.0587  154.2182 H   0  0  0  0  0  0  0  0  0  0  0  0
  149.2246  136.4590  155.2035 H   0  0  0  0  0  0  0  0  0  0  0  0
  149.8110  143.5017  155.7522 H   0  0  0  0  0  0  0  0  0  0  0  0
  1  2  1  0  0  0  0
  1 26  1  0  0  0  0
  1 27  1  0  0  0  0
  1 28  1  0  0  0  0
  2  3  1  0  0  0  0
  2 29  1  0  0  0  0
  2 30  1  0  0  0  0
  3 25  1  0  0  0  0
  3  4  1  0  0  0  0
  4  5  1  0  0  0  0
  4 31  1  0  0  0  0
  4 32  1  0  0  0  0
  5  6  1  0  0  0  0
  5 33  1  0  0  0  0
  5 34  1  0  0  0  0
  6  7  1  0  0  0  0
  7  8  1  0  0  0  0
  7 25  1  0  0  0  0
  7 35  1  0  0  0  0
  8  9  1  0  0  0  0
  8 36  1  0  0  0  0
  8 37  1  0  0  0  0
  9 10  1  0  0  0  0
  9 38  1  0  0  0  0
  9 56  1  0  0  0  0
 10 11  1  0  0  0  0
 10 39  1  0  0  0  0
 10 40  1  0  0  0  0
 11 12  1  0  0  0  0
 11 13  1  0  0  0  0
 11 41  1  0  0  0  0
 12 42  1  0  0  0  0
 13 14  1  0  0  0  0
 13 43  1  0  0  0  0
 13 44  1  0  0  0  0
 14 24  1  0  0  0  0
 14 15  1  0  0  0  0
 15 16  2  0  0  0  0
 15 45  1  0  0  0  0
 16 17  1  0  0  0  0
 16 57  1  0  0  0  0
 17 24  2  0  0  0  0
 17 18  1  0  0  0  0
 18 19  2  0  0  0  0
 18 46  1  0  0  0  0
 19 20  1  0  0  0  0
 19 21  1  0  0  0  0
 20 47  1  0  0  0  0
 20 48  1  0  0  0  0
 20 49  1  0  0  0  0
 21 22  1  0  0  0  0
 21 23  2  0  0  0  0
 22 50  1  0  0  0  0
 22 51  1  0  0  0  0
 22 52  1  0  0  0  0
 23 24  1  0  0  0  0
 23 53  1  0  0  0  0
 25 54  1  0  0  0  0
 25 55  1  0  0  0  0
M  CHG  1   9   1
M  CHG  1  16   1
M  END
> <s_m_source_file>
AV-unprocessed.smi

> <i_m_source_file_index>
1047

> <i_lp_mmshare_version>
43012

> <i_f3d_flags>
0

> <s_epik_input>
W0NIM11bQ0gyXU4xW0NIMl1bQ0gyXU9bQ0BIXShbQ0gyXTEpW0NIMl1bTkhdW0NIMl1bQ0BIXShbT0hdKVtDSDJdbihbY0hdbjIpYyhjMjMpW2NIXWMoW0NIM10pYyhbY0hdMylbQ0gzXQ==

> <s_epik_cmdline>
J2VwaWtfcHl0aG9uJywgJy1waCcsICc3LjAnLCAnLXRuJywgJzgnLCAnLW1hJywgJzIwMCcsICctbWV0YWxfYmluZGluZycsICctaW1hZScsICc8aW5maWxlLm1hZT4nLCAnLW9tYWUnLCAnPG91dGZpbGUubWFlPic=

> <r_epik_Ionization_Penalty>
1.75732

> <r_epik_Ionization_Penalty_Charging>
1.18089

> <r_epik_Ionization_Penalty_Neutral>
0.576429

> <r_epik_State_Penalty>
1.69377

> <r_epik_Charging_Adjusted_Penalty>
2.87466

> <i_epik_Tot_Q>
2

> <i_epik_Tot_abs_Q>
2

> <r_epik_Metal_State_Penalty>
5.70174

> <b_epik_Metal_Only>
0

> <s_lp_Force_Field>
OPLS_2005

> <r_lp_Energy>
42.3107

> <b_lp_Chiralities_Consistent>
1

> <s_lp_Variant>
AV-unprocessed.smi:1047-31

> <Gold.Version>
5.8.1

> <Gold.Id.Protein>
6NUR|6NUR_protein|mol2

> <Gold.PLP.Fitness>
59.8220

> <Gold.PLP.PLP>
-49.0750

> <Gold.PLP.part.hbond>
-1.9930

> <Gold.PLP.part.metal>
0.0000

> <Gold.PLP.part.buried>
-6.8705

> <Gold.PLP.part.nonpolar>
-40.6774

> <Gold.PLP.part.repulsive>
0.3436

> <Gold.PLP.ligand.clash>
0.0000

> <Gold.PLP.ligand.torsion>
0.7141

> <Gold.PLP.Chemscore.Hbond>
3.9825

> <Gold.PLP.Chemscore.CHOScore>
0.0000

> <Gold.PLP.Chemscore.Metal>
0.0000

> <Gold.Chemscore.Hbonds>
donor molecule, donor type, donor heavy atom, donor atom, acceptor molecule, acceptor atom, score
      L1  H     9    38       P1  7948  1.85
      L1  H    16    57       P1  8028  1.98

> <Gold.PLP.Chemscore.Internal.Correction>
0.2277

> <Gold.Rescore>
     Score         DG    S(hbond)    S(metal)    S(lipo)     H(rot)  DE(clash)    DE(int)     intcor
     19.10     -20.13       1.93        0.00     128.97       2.69       0.33       0.69       ----

> <Gold.Chemscore.Fitness>
19.1042

> <Gold.Chemscore.DG>
-20.1254

> <Gold.Chemscore.ZeroCoef>
-5.4800

> <Gold.Chemscore.Hbond>
1.9302

> <Gold.Chemscore.Metal>
0.0000

> <Gold.Chemscore.Lipo>
128.9680

> <Gold.Chemscore.Internal_Hbond>
0.0000

> <Gold.Chemscore.DEClash>
0.3341

> <Gold.Chemscore.DEInternal>
0.6871

> <Gold.Chemscore.Rot>
2.6917

> <Gold.Chemscore.Internal.Correction>
   9.000000E+99

> <Gold.Chemscore.Hbonds>
donor molecule, donor type, donor heavy atom, donor atom, acceptor molecule, acceptor atom, score
      L1  H     9    38       P1  7948  0.20
      L1  H    16    57       P1  8028  0.92

> <Gold.Chemscore.Hbond.Weighted>
-6.4468

> <Gold.Chemscore.Metal.Weighted>
-0.0000

> <Gold.Chemscore.Lipo.Weighted>
-15.0893

> <Gold.Chemscore.Internal_Hbond.Weighted>
0.0000

> <Gold.Chemscore.DEClash.Weighted>
0.3341

> <Gold.Chemscore.DEInternal.Weighted>
0.6871

> <Gold.Chemscore.Rot.Weighted>
6.8907

> <Gold.Chemscore.Internal.Correction.Weighted>
   9.000000E+99

> <Gold.Protein.RotatedTorsions>
[ 6907 6896 6895 6894 ] final  -46.11 input  -60.11 | X-H torsion
[ 7974 7965 7964 7962 ] final   -7.46 input  175.53 | X-H torsion
[ 8008 7997 7996 7995 ] final   -7.12 input   59.86 | X-H torsion
[ 10167 10162 10161 10158 ] final   19.78 input  -65.29 | X-H torsion
[ 10718 10713 10712 10709 ] final   56.50 input   66.30 | X-H torsion
[ 10763 10752 10751 10750 ] final -112.77 input  -60.55 | X-H torsion
[ 11005 11000 10999 10996 ] final  -51.05 input  -57.11 | X-H torsion

> <Gold.Protein.ActiveResidues>
 VAL166  LYS551  ARG553  GLY616  TRP617  ASP618  TYR619  PRO620  LYS621  CYS622 
 ASP623  PHE694  ASN695  SER759  ASP760  ASP761  ALA762  ILE779  LEU786  VAL792 
 PHE793  MET794  SER795  GLU796  ALA797  LYS798  CYS799  TRP800  GLU811  SER814 

> <Gold.Protein.RotatedAtoms>
  150.9147  134.8565  159.7448 H   0  0  0  0  0  0  0  0  0  0  0  0  # atno 6907 bound_to 6896
  152.4962  134.4306  159.9521 H   0  0  0  0  0  0  0  0  0  0  0  0  # atno 6908 bound_to 6896
  151.4345  133.3621  159.2808 H   0  0  0  0  0  0  0  0  0  0  0  0  # atno 6909 bound_to 6896
  146.2306  140.2322  142.8340 H   0  0  0  0  0  0  0  0  0  0  0  0  # atno 7974 bound_to 7965
  154.5870  140.2415  155.7973 H   0  0  0  0  0  0  0  0  0  0  0  0  # atno 8008 bound_to 7997
  156.2220  140.2994  155.9931 H   0  0  0  0  0  0  0  0  0  0  0  0  # atno 8009 bound_to 7997
  155.2440  140.0408  157.2969 H   0  0  0  0  0  0  0  0  0  0  0  0  # atno 8010 bound_to 7997
  140.5553  143.9435  150.6605 H   0  0  0  0  0  0  0  0  0  0  0  0  # atno 10167 bound_to 10162
  157.5436  130.8715  149.8859 H   0  0  0  0  0  0  0  0  0  0  0  0  # atno 10718 bound_to 10713
  154.8365  135.4478  154.1246 H   0  0  0  0  0  0  0  0  0  0  0  0  # atno 10763 bound_to 10752
  153.2472  135.6923  153.7724 H   0  0  0  0  0  0  0  0  0  0  0  0  # atno 10764 bound_to 10752
  153.7050  135.3366  155.3209 H   0  0  0  0  0  0  0  0  0  0  0  0  # atno 10765 bound_to 10752
  141.0850  133.6644  156.3821 H   0  0  0  0  0  0  0  0  0  0  0  0  # atno 11005 bound_to 11000
  144.9549  140.8216  143.5549 LP  0  0  0  0  0  0  0  0  0  0  0  0  # atno 17320 bound_to 7965
  145.2287  139.2125  143.5054 LP  0  0  0  0  0  0  0  0  0  0  0  0  # atno 17321 bound_to 7965
  140.2872  143.3349  152.1096 LP  0  0  0  0  0  0  0  0  0  0  0  0  # atno 17342 bound_to 10162
  139.5045  144.6777  151.6087 LP  0  0  0  0  0  0  0  0  0  0  0  0  # atno 17343 bound_to 10162
  156.0517  130.3716  150.1185 LP  0  0  0  0  0  0  0  0  0  0  0  0  # atno 17370 bound_to 10713
  156.9363  130.9730  151.3524 LP  0  0  0  0  0  0  0  0  0  0  0  0  # atno 17371 bound_to 10713
  140.5384  134.6145  157.5372 LP  0  0  0  0  0  0  0  0  0  0  0  0  # atno 17394 bound_to 11000
  139.9667  134.7361  156.0124 LP  0  0  0  0  0  0  0  0  0  0  0  0  # atno 17395 bound_to 11000

$$$$
