AV-unprocessed.smi:2698|AV-procd|sdf|10419|dock4
  -GOLD-   2272014453D 1   1.00000     0.00000
 Structure written by MMmdl.
 33 33  0  0  0  0  0  0  0  0  2 V2000
  152.8783  142.3398  160.4152 C   0  0  0  0  0  0  0  0  0  0  0  0
  152.5409  142.3933  158.9136 C   0  0  0  0  0  0  0  0  0  0  0  0
  152.2272  143.8345  158.4845 C   0  0  0  0  0  0  0  0  0  0  0  0
  151.3873  141.4456  158.5118 C   0  0  0  0  0  0  0  0  0  0  0  0
  151.2265  141.2992  156.9972 C   0  0  0  0  0  0  0  0  0  0  0  0
  150.9184  142.2748  156.3128 O   0  0  0  0  0  0  0  0  0  0  0  0
  151.4342  140.0717  156.4970 N   0  0  0  0  0  0  0  0  0  0  0  0
  151.3175  139.6787  155.0932 C   0  0  2  0  0  0  0  0  0  0  0  0
  149.8911  139.1459  154.8314 C   0  0  0  0  0  0  0  0  0  0  0  0
  148.8054  140.1966  154.7624 C   0  0  0  0  0  0  0  0  0  0  0  0
  147.8718  140.6308  155.6806 C   0  0  0  0  0  0  0  0  0  0  0  0
  147.0920  141.6473  155.1236 N   0  0  0  0  0  0  0  0  0  0  0  0
  147.5872  141.8000  153.9014 C   0  0  0  0  0  0  0  0  0  0  0  0
  148.6034  140.9751  153.6359 N   0  0  0  0  0  0  0  0  0  0  0  0
  152.3621  138.5980  154.7829 C   0  0  0  0  0  0  0  0  0  0  0  0
  153.5695  138.9089  154.8934 O   0  0  0  0  0  0  0  0  0  0  0  0
  151.9339  137.4745  154.4392 O   0  5  0  0  0  0  0  0  0  0  0  0
  149.1239  140.9232  152.7719 H   0  0  0  0  0  0  0  0  0  0  0  0
  152.0108  142.5938  161.0250 H   0  0  0  0  0  0  0  0  0  0  0  0
  153.6748  143.0425  160.6618 H   0  0  0  0  0  0  0  0  0  0  0  0
  153.2219  141.3510  160.7185 H   0  0  0  0  0  0  0  0  0  0  0  0
  153.4344  142.0856  158.3678 H   0  0  0  0  0  0  0  0  0  0  0  0
  151.3399  144.2141  158.9921 H   0  0  0  0  0  0  0  0  0  0  0  0
  152.0484  143.8953  157.4106 H   0  0  0  0  0  0  0  0  0  0  0  0
  153.0558  144.5042  158.7165 H   0  0  0  0  0  0  0  0  0  0  0  0
  151.5461  140.4576  158.9464 H   0  0  0  0  0  0  0  0  0  0  0  0
  150.4455  141.8093  158.9255 H   0  0  0  0  0  0  0  0  0  0  0  0
  151.7050  139.3412  157.1389 H   0  0  0  0  0  0  0  0  0  0  0  0
  151.5023  140.5282  154.4328 H   0  0  0  0  0  0  0  0  0  0  0  0
  149.8697  138.5943  153.8905 H   0  0  0  0  0  0  0  0  0  0  0  0
  149.6161  138.4316  155.6095 H   0  0  0  0  0  0  0  0  0  0  0  0
  147.7005  140.2937  156.6922 H   0  0  0  0  0  0  0  0  0  0  0  0
  147.2075  142.5215  153.1931 H   0  0  0  0  0  0  0  0  0  0  0  0
  1  2  1  0  0  0  0
  1 19  1  0  0  0  0
  1 20  1  0  0  0  0
  1 21  1  0  0  0  0
  2  3  1  0  0  0  0
  2  4  1  0  0  0  0
  2 22  1  0  0  0  0
  3 23  1  0  0  0  0
  3 24  1  0  0  0  0
  3 25  1  0  0  0  0
  4  5  1  0  0  0  0
  4 26  1  0  0  0  0
  4 27  1  0  0  0  0
  5  6  2  0  0  0  0
  5  7  1  0  0  0  0
  7  8  1  0  0  0  0
  7 28  1  0  0  0  0
  8  9  1  0  0  0  0
  8 15  1  0  0  0  0
  8 29  1  0  0  0  0
  9 30  1  0  0  0  0
  9 31  1  0  0  0  0
  9 10  1  0  0  0  0
 10 11  2  0  0  0  0
 10 14  1  0  0  0  0
 11 32  1  0  0  0  0
 11 12  1  0  0  0  0
 12 13  2  0  0  0  0
 13 14  1  0  0  0  0
 13 33  1  0  0  0  0
 14 18  1  0  0  0  0
 15 16  2  0  0  0  0
 15 17  1  0  0  0  0
M  CHG  1  17  -1
M  END
> <s_m_source_file>
AV-unprocessed.smi

> <i_m_source_file_index>
2698

> <i_lp_mmshare_version>
43012

> <i_f3d_flags>
0

> <s_epik_input>
W0NIM11bQ0hdKFtDSDNdKVtDSDJdQyg9TylbTkhdW0NAQEhdKEMoPU8pW09IXSlbQ0gyXWMxW2NIXVtuSF1bY0hdbjE=

> <s_epik_cmdline>
J2VwaWtfcHl0aG9uJywgJy1waCcsICc3LjAnLCAnLXRuJywgJzgnLCAnLW1hJywgJzIwMCcsICctbWV0YWxfYmluZGluZycsICctaW1hZScsICc8aW5maWxlLm1hZT4nLCAnLW9tYWUnLCAnPG91dGZpbGUubWFlPic=

> <r_lp_tautomer_probability>
0.5

> <r_epik_Ionization_Penalty>
0.536153

> <r_epik_Ionization_Penalty_Charging>
0.536153

> <r_epik_Ionization_Penalty_Neutral>
4.95393e-08

> <r_epik_State_Penalty>
0.778213

> <r_epik_Charging_Adjusted_Penalty>
1.31437

> <i_epik_Tot_Q>
-1

> <i_epik_Tot_abs_Q>
1

> <r_epik_Metal_State_Penalty>
0.658344

> <b_epik_Metal_Only>
0

> <s_lp_Force_Field>
OPLS_2005

> <r_lp_Energy>
3.7745

> <b_lp_Chiralities_Consistent>
1

> <s_lp_Variant>
AV-unprocessed.smi:2698-3

> <Gold.Version>
5.8.1

> <Gold.Id.Protein>
6NUR|6NUR_protein|mol2

> <Gold.PLP.Fitness>
47.9075

> <Gold.PLP.PLP>
-34.9884

> <Gold.PLP.part.hbond>
-3.0000

> <Gold.PLP.part.metal>
0.0000

> <Gold.PLP.part.buried>
-4.9958

> <Gold.PLP.part.nonpolar>
-27.2744

> <Gold.PLP.part.repulsive>
0.6590

> <Gold.PLP.ligand.clash>
0.0000

> <Gold.PLP.ligand.torsion>
0.8073

> <Gold.PLP.Chemscore.Hbond>
4.8240

> <Gold.PLP.Chemscore.CHOScore>
0.0000

> <Gold.PLP.Chemscore.Metal>
0.0000

> <Gold.Chemscore.Hbonds>
donor molecule, donor type, donor heavy atom, donor atom, acceptor molecule, acceptor atom, score
      L1  H    14    18       P1  7957  1.00
      P1  H  7997  8008       L1    16  2.00
      P1  H 10752 10763       L1    17  1.63

> <Gold.PLP.Chemscore.Internal.Correction>
0.0618

> <Gold.Rescore>
     Score         DG    S(hbond)    S(metal)    S(lipo)     H(rot)  DE(clash)    DE(int)     intcor
     13.56     -14.73       2.75        0.00      66.47       3.01       0.29       0.89       ----

> <Gold.Chemscore.Fitness>
13.5580

> <Gold.Chemscore.DG>
-14.7341

> <Gold.Chemscore.ZeroCoef>
-5.4800

> <Gold.Chemscore.Hbond>
2.7527

> <Gold.Chemscore.Metal>
0.0000

> <Gold.Chemscore.Lipo>
66.4713

> <Gold.Chemscore.Internal_Hbond>
0.0000

> <Gold.Chemscore.DEClash>
0.2887

> <Gold.Chemscore.DEInternal>
0.8874

> <Gold.Chemscore.Rot>
3.0145

> <Gold.Chemscore.Internal.Correction>
   9.000000E+99

> <Gold.Chemscore.Hbonds>
donor molecule, donor type, donor heavy atom, donor atom, acceptor molecule, acceptor atom, score
      L1  H    14    18       P1  7957  0.96
      P1  H  7997  8008       L1    16  0.95
      P1  H 10752 10763       L1    17  0.75

> <Gold.Chemscore.Hbond.Weighted>
-9.1940

> <Gold.Chemscore.Metal.Weighted>
-0.0000

> <Gold.Chemscore.Lipo.Weighted>
-7.7771

> <Gold.Chemscore.Internal_Hbond.Weighted>
0.0000

> <Gold.Chemscore.DEClash.Weighted>
0.2887

> <Gold.Chemscore.DEInternal.Weighted>
0.8874

> <Gold.Chemscore.Rot.Weighted>
7.7171

> <Gold.Chemscore.Internal.Correction.Weighted>
   9.000000E+99

> <Gold.Protein.RotatedTorsions>
[ 6907 6896 6895 6894 ] final   -5.46 input  -60.11 | X-H torsion
[ 7974 7965 7964 7962 ] final   81.76 input  175.53 | X-H torsion
[ 8008 7997 7996 7995 ] final   -3.70 input   59.86 | X-H torsion
[ 10167 10162 10161 10158 ] final  152.49 input  -65.29 | X-H torsion
[ 10718 10713 10712 10709 ] final   83.53 input   66.30 | X-H torsion
[ 10763 10752 10751 10750 ] final   39.45 input  -60.55 | X-H torsion
[ 11005 11000 10999 10996 ] final  -51.05 input  -57.11 | X-H torsion

> <Gold.Protein.ActiveResidues>
 VAL166  LYS551  ARG553  GLY616  TRP617  ASP618  TYR619  PRO620  LYS621  CYS622 
 ASP623  PHE694  ASN695  SER759  ASP760  ASP761  ALA762  ILE779  LEU786  VAL792 
 PHE793  MET794  SER795  GLU796  ALA797  LYS798  CYS799  TRP800  GLU811  SER814 

> <Gold.Protein.RotatedAtoms>
  151.4812  135.1052  159.9777 H   0  0  0  0  0  0  0  0  0  0  0  0  # atno 6907 bound_to 6896
  152.4778  133.8177  159.7048 H   0  0  0  0  0  0  0  0  0  0  0  0  # atno 6908 bound_to 6896
  150.8829  133.7286  159.2953 H   0  0  0  0  0  0  0  0  0  0  0  0  # atno 6909 bound_to 6896
  145.6339  139.2410  143.2069 H   0  0  0  0  0  0  0  0  0  0  0  0  # atno 7974 bound_to 7965
  154.6221  140.2502  155.7537 H   0  0  0  0  0  0  0  0  0  0  0  0  # atno 8008 bound_to 7997
  156.2432  140.2924  156.0453 H   0  0  0  0  0  0  0  0  0  0  0  0  # atno 8009 bound_to 7997
  155.1880  140.0391  157.2885 H   0  0  0  0  0  0  0  0  0  0  0  0  # atno 8010 bound_to 7997
  139.4832  144.5353  151.7655 H   0  0  0  0  0  0  0  0  0  0  0  0  # atno 10167 bound_to 10162
  157.6881  131.0095  150.2538 H   0  0  0  0  0  0  0  0  0  0  0  0  # atno 10718 bound_to 10713
  152.9967  135.6220  154.2467 H   0  0  0  0  0  0  0  0  0  0  0  0  # atno 10763 bound_to 10752
  154.2207  135.2796  155.2927 H   0  0  0  0  0  0  0  0  0  0  0  0  # atno 10764 bound_to 10752
  154.5531  135.5727  153.6998 H   0  0  0  0  0  0  0  0  0  0  0  0  # atno 10765 bound_to 10752
  141.0850  133.6644  156.3820 H   0  0  0  0  0  0  0  0  0  0  0  0  # atno 11005 bound_to 11000
  146.1335  140.7154  142.9401 LP  0  0  0  0  0  0  0  0  0  0  0  0  # atno 17320 bound_to 7965
  144.7183  140.4286  143.7027 LP  0  0  0  0  0  0  0  0  0  0  0  0  # atno 17321 bound_to 7965
  140.4885  144.1346  150.5945 LP  0  0  0  0  0  0  0  0  0  0  0  0  # atno 17342 bound_to 10162
  140.4198  143.2617  151.9729 LP  0  0  0  0  0  0  0  0  0  0  0  0  # atno 17343 bound_to 10162
  156.3130  130.3774  149.7644 LP  0  0  0  0  0  0  0  0  0  0  0  0  # atno 17370 bound_to 10713
  156.5239  130.8227  151.3213 LP  0  0  0  0  0  0  0  0  0  0  0  0  # atno 17371 bound_to 10713
  140.5384  134.6144  157.5372 LP  0  0  0  0  0  0  0  0  0  0  0  0  # atno 17394 bound_to 11000
  139.9667  134.7361  156.0124 LP  0  0  0  0  0  0  0  0  0  0  0  0  # atno 17395 bound_to 11000

$$$$
