AV-unprocessed.smi:803|AV-procd|sdf|3793|dock4
  -GOLD-   22720 1233D 1   1.00000     0.00000
 Structure written by MMmdl.
 37 38  0  0  0  0  0  0  0  0  1 V2000
  153.9315  141.3042  160.9207 C   0  0  0  0  0  0  0  0  0  0  0  0
  152.9930  142.4973  161.1401 C   0  0  0  0  0  0  0  0  0  0  0  0
  152.4025  142.9557  159.8978 N   0  0  0  0  0  0  0  0  0  0  0  0
  151.5401  142.2758  159.0606 C   0  0  0  0  0  0  0  0  0  0  0  0
  151.2759  143.1315  158.0288 C   0  0  0  0  0  0  0  0  0  0  0  0
  150.4465  142.9444  156.8945 N   0  0  0  0  0  0  0  0  0  0  0  0
  150.2082  141.7965  156.2392 C   0  0  0  0  0  0  0  0  0  0  0  0
  150.6999  140.7040  156.5235 O   0  0  0  0  0  0  0  0  0  0  0  0
  149.3617  141.9879  155.2173 N   0  0  0  0  0  0  0  0  0  0  0  0
  148.9040  140.9529  154.2951 C   0  0  0  0  0  0  0  0  0  0  0  0
  147.6755  141.4432  153.5015 C   0  0  0  0  0  0  0  0  0  0  0  0
  147.1234  140.3415  152.5827 C   0  0  0  0  0  0  0  0  0  0  0  0
  146.7970  139.0653  153.3743 C   0  0  0  0  0  0  0  0  0  0  0  0
  148.0219  138.5710  154.1593 C   0  0  0  0  0  0  0  0  0  0  0  0
  148.5735  139.6702  155.0815 C   0  0  0  0  0  0  0  0  0  0  0  0
  152.0122  144.3123  158.3065 C   0  0  0  0  0  0  0  0  0  0  0  0
  152.6941  144.1971  159.4360 N   0  0  0  0  0  0  0  0  0  0  0  0
  154.3786  140.9850  161.8621 H   0  0  0  0  0  0  0  0  0  0  0  0
  154.7414  141.5616  160.2373 H   0  0  0  0  0  0  0  0  0  0  0  0
  153.3970  140.4512  160.5015 H   0  0  0  0  0  0  0  0  0  0  0  0
  152.1918  142.2300  161.8302 H   0  0  0  0  0  0  0  0  0  0  0  0
  153.5393  143.3252  161.5935 H   0  0  0  0  0  0  0  0  0  0  0  0
  151.2027  141.2726  159.2758 H   0  0  0  0  0  0  0  0  0  0  0  0
  149.9898  143.7730  156.5427 H   0  0  0  0  0  0  0  0  0  0  0  0
  149.0098  142.9211  155.0611 H   0  0  0  0  0  0  0  0  0  0  0  0
  149.7052  140.7180  153.5914 H   0  0  0  0  0  0  0  0  0  0  0  0
  146.8931  141.7625  154.1917 H   0  0  0  0  0  0  0  0  0  0  0  0
  147.9371  142.3186  152.9056 H   0  0  0  0  0  0  0  0  0  0  0  0
  146.2302  140.6986  152.0693 H   0  0  0  0  0  0  0  0  0  0  0  0
  147.8555  140.1133  151.8070 H   0  0  0  0  0  0  0  0  0  0  0  0
  145.9763  139.2636  154.0647 H   0  0  0  0  0  0  0  0  0  0  0  0
  146.4497  138.2852  152.6963 H   0  0  0  0  0  0  0  0  0  0  0  0
  147.7566  137.6917  154.7465 H   0  0  0  0  0  0  0  0  0  0  0  0
  148.7993  138.2539  153.4627 H   0  0  0  0  0  0  0  0  0  0  0  0
  149.4649  139.3053  155.5930 H   0  0  0  0  0  0  0  0  0  0  0  0
  147.8395  139.8900  155.8584 H   0  0  0  0  0  0  0  0  0  0  0  0
  152.0751  145.2286  157.7385 H   0  0  0  0  0  0  0  0  0  0  0  0
  1  2  1  0  0  0  0
  1 18  1  0  0  0  0
  1 19  1  0  0  0  0
  1 20  1  0  0  0  0
  2  3  1  0  0  0  0
  2 21  1  0  0  0  0
  2 22  1  0  0  0  0
  3 17  1  0  0  0  0
  3  4  1  0  0  0  0
  4  5  2  0  0  0  0
  4 23  1  0  0  0  0
  5  6  1  0  0  0  0
  5 16  1  0  0  0  0
  6  7  1  0  0  0  0
  6 24  1  0  0  0  0
  7  8  2  0  0  0  0
  7  9  1  0  0  0  0
  9 10  1  0  0  0  0
  9 25  1  0  0  0  0
 10 15  1  0  0  0  0
 10 11  1  0  0  0  0
 10 26  1  0  0  0  0
 11 12  1  0  0  0  0
 11 27  1  0  0  0  0
 11 28  1  0  0  0  0
 12 13  1  0  0  0  0
 12 29  1  0  0  0  0
 12 30  1  0  0  0  0
 13 14  1  0  0  0  0
 13 31  1  0  0  0  0
 13 32  1  0  0  0  0
 14 15  1  0  0  0  0
 14 33  1  0  0  0  0
 14 34  1  0  0  0  0
 15 35  1  0  0  0  0
 15 36  1  0  0  0  0
 16 17  2  0  0  0  0
 16 37  1  0  0  0  0
M  END
> <s_m_source_file>
AV-unprocessed.smi

> <i_m_source_file_index>
803

> <i_lp_mmshare_version>
43012

> <i_f3d_flags>
0

> <s_epik_input>
W0NIM11bQ0gyXW4xW2NIXWMoW2NIXW4xKVtOSF1DKD1PKVtOSF1bQ0hdMltDSDJdW0NIMl1bQ0gyXVtDSDJdW0NIMl0y

> <s_epik_cmdline>
J2VwaWtfcHl0aG9uJywgJy1waCcsICc3LjAnLCAnLXRuJywgJzgnLCAnLW1hJywgJzIwMCcsICctbWV0YWxfYmluZGluZycsICctaW1hZScsICc8aW5maWxlLm1hZT4nLCAnLW9tYWUnLCAnPG91dGZpbGUubWFlPic=

> <r_lp_tautomer_probability>
1

> <r_epik_Ionization_Penalty>
0.000191435

> <r_epik_Ionization_Penalty_Charging>
0

> <r_epik_Ionization_Penalty_Neutral>
0.000191435

> <r_epik_State_Penalty>
-0

> <r_epik_Charging_Adjusted_Penalty>
0

> <i_epik_Tot_Q>
0

> <i_epik_Tot_abs_Q>
0

> <r_epik_Metal_State_Penalty>
-0

> <b_epik_Metal_Only>
0

> <s_lp_Force_Field>
OPLS_2005

> <r_lp_Energy>
12.5011

> <b_lp_Chiralities_Consistent>
1

> <s_lp_Variant>
AV-unprocessed.smi:803-1

> <Gold.Version>
5.8.1

> <Gold.Id.Protein>
6NUR|6NUR_protein|mol2

> <Gold.PLP.Fitness>
42.6477

> <Gold.PLP.PLP>
-37.5384

> <Gold.PLP.part.hbond>
-2.0000

> <Gold.PLP.part.metal>
0.0000

> <Gold.PLP.part.buried>
-3.9252

> <Gold.PLP.part.nonpolar>
-32.7254

> <Gold.PLP.part.repulsive>
0.2506

> <Gold.PLP.ligand.clash>
0.0000

> <Gold.PLP.ligand.torsion>
0.4470

> <Gold.PLP.Chemscore.Hbond>
2.0000

> <Gold.PLP.Chemscore.CHOScore>
0.0000

> <Gold.PLP.Chemscore.Metal>
0.0000

> <Gold.Chemscore.Hbonds>
donor molecule, donor type, donor heavy atom, donor atom, acceptor molecule, acceptor atom, score
      L1  H     6    24       P1  8028  1.00
      L1  H     9    25       P1  8028  0.99

> <Gold.PLP.Chemscore.Internal.Correction>
0.0034

> <Gold.Rescore>
     Score         DG    S(hbond)    S(metal)    S(lipo)     H(rot)  DE(clash)    DE(int)     intcor
     17.71     -19.47       1.93        0.00      89.90       1.17       0.12       1.64       ----

> <Gold.Chemscore.Fitness>
17.7053

> <Gold.Chemscore.DG>
-19.4714

> <Gold.Chemscore.ZeroCoef>
-5.4800

> <Gold.Chemscore.Hbond>
1.9342

> <Gold.Chemscore.Metal>
0.0000

> <Gold.Chemscore.Lipo>
89.8957

> <Gold.Chemscore.Internal_Hbond>
0.0000

> <Gold.Chemscore.DEClash>
0.1223

> <Gold.Chemscore.DEInternal>
1.6438

> <Gold.Chemscore.Rot>
1.1667

> <Gold.Chemscore.Internal.Correction>
   9.000000E+99

> <Gold.Chemscore.Hbonds>
donor molecule, donor type, donor heavy atom, donor atom, acceptor molecule, acceptor atom, score
      L1  H     6    24       P1  8028  1.00
      L1  H     9    25       P1  8028  0.93

> <Gold.Chemscore.Hbond.Weighted>
-6.4603

> <Gold.Chemscore.Metal.Weighted>
-0.0000

> <Gold.Chemscore.Lipo.Weighted>
-10.5178

> <Gold.Chemscore.Internal_Hbond.Weighted>
0.0000

> <Gold.Chemscore.DEClash.Weighted>
0.1223

> <Gold.Chemscore.DEInternal.Weighted>
1.6438

> <Gold.Chemscore.Rot.Weighted>
2.9867

> <Gold.Chemscore.Internal.Correction.Weighted>
   9.000000E+99

> <Gold.Protein.RotatedTorsions>
[ 6907 6896 6895 6894 ] final  -51.63 input  -60.11 | X-H torsion
[ 7974 7965 7964 7962 ] final  175.39 input  175.53 | X-H torsion
[ 8008 7997 7996 7995 ] final   98.07 input   59.86 | X-H torsion
[ 10167 10162 10161 10158 ] final   77.05 input  -65.29 | X-H torsion
[ 10718 10713 10712 10709 ] final  118.28 input   66.30 | X-H torsion
[ 10763 10752 10751 10750 ] final   89.39 input  -60.55 | X-H torsion
[ 11005 11000 10999 10996 ] final  -48.84 input  -57.11 | X-H torsion

> <Gold.Protein.ActiveResidues>
 VAL166  LYS551  ARG553  GLY616  TRP617  ASP618  TYR619  PRO620  LYS621  CYS622 
 ASP623  PHE694  ASN695  SER759  ASP760  ASP761  ALA762  ILE779  LEU786  VAL792 
 PHE793  MET794  SER795  GLU796  ALA797  LYS798  CYS799  TRP800  GLU811  SER814 

> <Gold.Protein.RotatedAtoms>
  150.8593  134.7941  159.7070 H   0  0  0  0  0  0  0  0  0  0  0  0  # atno 6907 bound_to 6896
  152.4635  134.5126  159.9768 H   0  0  0  0  0  0  0  0  0  0  0  0  # atno 6908 bound_to 6896
  151.5233  133.3424  159.2941 H   0  0  0  0  0  0  0  0  0  0  0  0  # atno 6909 bound_to 6896
  144.7203  139.9939  143.6440 H   0  0  0  0  0  0  0  0  0  0  0  0  # atno 7974 bound_to 7965
  156.0967  140.3249  155.7887 H   0  0  0  0  0  0  0  0  0  0  0  0  # atno 8008 bound_to 7997
  155.4906  140.0561  157.2971 H   0  0  0  0  0  0  0  0  0  0  0  0  # atno 8009 bound_to 7997
  154.4671  140.1994  156.0106 H   0  0  0  0  0  0  0  0  0  0  0  0  # atno 8010 bound_to 7997
  139.9857  144.5794  150.7862 H   0  0  0  0  0  0  0  0  0  0  0  0  # atno 10167 bound_to 10162
  157.6040  131.1046  150.7734 H   0  0  0  0  0  0  0  0  0  0  0  0  # atno 10718 bound_to 10713
  153.1866  135.4472  155.0096 H   0  0  0  0  0  0  0  0  0  0  0  0  # atno 10763 bound_to 10752
  154.8064  135.3276  154.7422 H   0  0  0  0  0  0  0  0  0  0  0  0  # atno 10764 bound_to 10752
  153.7880  135.6972  153.4931 H   0  0  0  0  0  0  0  0  0  0  0  0  # atno 10765 bound_to 10752
  141.0724  133.6675  156.3499 H   0  0  0  0  0  0  0  0  0  0  0  0  # atno 11005 bound_to 11000
  146.0389  139.3403  143.0709 LP  0  0  0  0  0  0  0  0  0  0  0  0  # atno 17320 bound_to 7965
  145.8359  140.9606  143.0824 LP  0  0  0  0  0  0  0  0  0  0  0  0  # atno 17321 bound_to 7965
  140.7473  143.2904  151.3345 LP  0  0  0  0  0  0  0  0  0  0  0  0  # atno 17342 bound_to 10162
  139.6377  144.0599  152.2529 LP  0  0  0  0  0  0  0  0  0  0  0  0  # atno 17343 bound_to 10162
  156.8127  130.4957  149.5354 LP  0  0  0  0  0  0  0  0  0  0  0  0  # atno 17370 bound_to 10713
  156.1121  130.6048  151.0064 LP  0  0  0  0  0  0  0  0  0  0  0  0  # atno 17371 bound_to 10713
  140.5645  134.5902  157.5442 LP  0  0  0  0  0  0  0  0  0  0  0  0  # atno 17394 bound_to 11000
  139.9537  134.7572  156.0390 LP  0  0  0  0  0  0  0  0  0  0  0  0  # atno 17395 bound_to 11000

$$$$
