AV-unprocessed.smi:2147|AV-procd|sdf|8745|dock8
  -GOLD-   2272011523D 1   1.00000     0.00000
 Structure written by MMmdl.
 42 44  0  0  0  0  0  0  0  0  2 V2000
  153.6326  132.2008  165.1170 C   0  0  0  0  0  0  0  0  0  0  0  0
  154.2646  132.5723  163.7766 C   0  0  0  0  0  0  0  0  0  0  0  0
  154.5557  131.6709  162.9910 O   0  0  0  0  0  0  0  0  0  0  0  0
  154.4921  134.0178  163.4916 C   0  0  0  0  0  0  0  0  0  0  0  0
  154.2313  135.0189  164.4556 C   0  0  0  0  0  0  0  0  0  0  0  0
  154.4539  136.3761  164.1534 C   0  0  0  0  0  0  0  0  0  0  0  0
  154.9384  136.7677  162.8898 C   0  0  0  0  0  0  0  0  0  0  0  0
  155.1195  138.1177  162.6781 O   0  0  0  0  0  0  0  0  0  0  0  0
  155.4423  138.9356  163.7949 C   0  0  0  0  0  0  0  0  0  0  0  0
  155.5194  140.3988  163.3353 C   0  0  1  0  0  0  0  0  0  0  0  0
  156.8687  140.7084  163.0466 O   0  0  0  0  0  0  0  0  0  0  0  0
  154.6474  140.6702  162.0928 C   0  0  0  0  0  0  0  0  0  0  0  0
  153.8141  141.8716  162.2302 N   0  0  0  0  0  0  0  0  0  0  0  0
  153.5064  142.5993  163.3380 C   0  0  0  0  0  0  0  0  0  0  0  0
  152.6959  143.6214  162.9462 N   0  3  0  0  0  0  0  0  0  0  0  0
  152.4813  143.5440  161.5683 C   0  0  0  0  0  0  0  0  0  0  0  0
  151.7330  144.3495  160.7154 C   0  0  0  0  0  0  0  0  0  0  0  0
  151.7229  143.9892  159.3516 C   0  0  0  0  0  0  0  0  0  0  0  0
  152.4376  142.8674  158.8825 C   0  0  0  0  0  0  0  0  0  0  0  0
  153.1932  142.0575  159.7563 C   0  0  0  0  0  0  0  0  0  0  0  0
  153.1976  142.4214  161.1021 C   0  0  0  0  0  0  0  0  0  0  0  0
  155.2057  135.7654  161.9253 C   0  0  0  0  0  0  0  0  0  0  0  0
  154.9838  134.4076  162.2258 C   0  0  0  0  0  0  0  0  0  0  0  0
  152.6533  132.6683  165.2208 H   0  0  0  0  0  0  0  0  0  0  0  0
  154.2676  132.5255  165.9413 H   0  0  0  0  0  0  0  0  0  0  0  0
  153.5038  131.1207  165.1913 H   0  0  0  0  0  0  0  0  0  0  0  0
  153.8575  134.7699  165.4374 H   0  0  0  0  0  0  0  0  0  0  0  0
  154.2467  137.1268  164.9020 H   0  0  0  0  0  0  0  0  0  0  0  0
  154.6673  138.8280  164.5558 H   0  0  0  0  0  0  0  0  0  0  0  0
  156.3941  138.6343  164.2364 H   0  0  0  0  0  0  0  0  0  0  0  0
  155.2046  141.0454  164.1551 H   0  0  0  0  0  0  0  0  0  0  0  0
  157.2218  141.2106  163.7653 H   0  0  0  0  0  0  0  0  0  0  0  0
  155.2774  140.8103  161.2132 H   0  0  0  0  0  0  0  0  0  0  0  0
  153.9973  139.8218  161.8750 H   0  0  0  0  0  0  0  0  0  0  0  0
  153.8412  142.3984  164.3454 H   0  0  0  0  0  0  0  0  0  0  0  0
  151.1840  145.2086  161.0721 H   0  0  0  0  0  0  0  0  0  0  0  0
  151.1554  144.5850  158.6516 H   0  0  0  0  0  0  0  0  0  0  0  0
  152.4051  142.6229  157.8306 H   0  0  0  0  0  0  0  0  0  0  0  0
  153.7363  141.1993  159.3891 H   0  0  0  0  0  0  0  0  0  0  0  0
  155.5821  136.0109  160.9440 H   0  0  0  0  0  0  0  0  0  0  0  0
  155.1961  133.6674  161.4676 H   0  0  0  0  0  0  0  0  0  0  0  0
  152.3167  144.3170  163.5757 H   0  0  0  0  0  0  0  0  0  0  0  0
  1  2  1  0  0  0  0
  1 24  1  0  0  0  0
  1 25  1  0  0  0  0
  1 26  1  0  0  0  0
  2  3  2  0  0  0  0
  2  4  1  0  0  0  0
  4 23  1  0  0  0  0
  4  5  2  0  0  0  0
  5  6  1  0  0  0  0
  5 27  1  0  0  0  0
  6  7  2  0  0  0  0
  6 28  1  0  0  0  0
  7  8  1  0  0  0  0
  7 22  1  0  0  0  0
  8  9  1  0  0  0  0
  9 10  1  0  0  0  0
  9 29  1  0  0  0  0
  9 30  1  0  0  0  0
 10 11  1  0  0  0  0
 10 12  1  0  0  0  0
 10 31  1  0  0  0  0
 11 32  1  0  0  0  0
 12 13  1  0  0  0  0
 12 33  1  0  0  0  0
 12 34  1  0  0  0  0
 13 21  1  0  0  0  0
 13 14  1  0  0  0  0
 14 15  2  0  0  0  0
 14 35  1  0  0  0  0
 15 16  1  0  0  0  0
 15 42  1  0  0  0  0
 16 21  2  0  0  0  0
 16 17  1  0  0  0  0
 17 18  2  0  0  0  0
 17 36  1  0  0  0  0
 18 19  1  0  0  0  0
 18 37  1  0  0  0  0
 19 20  2  0  0  0  0
 19 38  1  0  0  0  0
 20 21  1  0  0  0  0
 20 39  1  0  0  0  0
 22 23  2  0  0  0  0
 22 40  1  0  0  0  0
 23 41  1  0  0  0  0
M  CHG  1  15   1
M  END
> <s_m_source_file>
AV-unprocessed.smi

> <i_m_source_file_index>
2147

> <i_lp_mmshare_version>
43012

> <i_f3d_flags>
0

> <s_epik_input>
W0NIM11DKD1PKWMxW2NIXVtjSF1jKFtjSF1bY0hdMSlPW0NIMl1bQ0BIXShbT0hdKVtDSDJdbihbY0hdbjIpYyhjMjMpW2NIXVtjSF1bY0hdW2NIXTM=

> <s_epik_cmdline>
J2VwaWtfcHl0aG9uJywgJy1waCcsICc3LjAnLCAnLXRuJywgJzgnLCAnLW1hJywgJzIwMCcsICctbWV0YWxfYmluZGluZycsICctaW1hZScsICc8aW5maWxlLm1hZT4nLCAnLW9tYWUnLCAnPG91dGZpbGUubWFlPic=

> <r_lp_tautomer_probability>
0.99995

> <r_epik_Ionization_Penalty>
1.40272

> <r_epik_Ionization_Penalty_Charging>
1.40272

> <r_epik_Ionization_Penalty_Neutral>
2.3993e-06

> <r_epik_State_Penalty>
1.48501

> <r_epik_Charging_Adjusted_Penalty>
2.88772

> <i_epik_Tot_Q>
1

> <i_epik_Tot_abs_Q>
1

> <r_epik_Metal_State_Penalty>
5.5274

> <b_epik_Metal_Only>
0

> <s_lp_Force_Field>
OPLS_2005

> <r_lp_Energy>
26.1974

> <b_lp_Chiralities_Consistent>
1

> <s_lp_Variant>
AV-unprocessed.smi:2147-4

> <Gold.Version>
5.8.1

> <Gold.Id.Protein>
6NUR|6NUR_protein|mol2

> <Gold.PLP.Fitness>
53.7601

> <Gold.PLP.PLP>
-57.0205

> <Gold.PLP.part.hbond>
-2.0000

> <Gold.PLP.part.metal>
0.0000

> <Gold.PLP.part.buried>
-4.0380

> <Gold.PLP.part.nonpolar>
-51.3048

> <Gold.PLP.part.repulsive>
0.0950

> <Gold.PLP.ligand.clash>
0.0000

> <Gold.PLP.ligand.torsion>
1.6912

> <Gold.PLP.Chemscore.Hbond>
0.0000

> <Gold.PLP.Chemscore.CHOScore>
0.0000

> <Gold.PLP.Chemscore.Metal>
0.0000

> <Gold.PLP.Chemscore.Internal.Correction>
0.1219

> <Gold.Rescore>
     Score         DG    S(hbond)    S(metal)    S(lipo)     H(rot)  DE(clash)    DE(int)     intcor
     12.97     -16.03       0.00        0.00     144.48       2.48       1.34       1.71       ----

> <Gold.Chemscore.Fitness>
12.9697

> <Gold.Chemscore.DG>
-16.0253

> <Gold.Chemscore.ZeroCoef>
-5.4800

> <Gold.Chemscore.Hbond>
0.0000

> <Gold.Chemscore.Metal>
0.0000

> <Gold.Chemscore.Lipo>
144.4846

> <Gold.Chemscore.Internal_Hbond>
0.0000

> <Gold.Chemscore.DEClash>
1.3448

> <Gold.Chemscore.DEInternal>
1.7107

> <Gold.Chemscore.Rot>
2.4842

> <Gold.Chemscore.Internal.Correction>
   9.000000E+99

> <Gold.Chemscore.Hbond.Weighted>
-0.0000

> <Gold.Chemscore.Metal.Weighted>
-0.0000

> <Gold.Chemscore.Lipo.Weighted>
-16.9047

> <Gold.Chemscore.Internal_Hbond.Weighted>
0.0000

> <Gold.Chemscore.DEClash.Weighted>
1.3448

> <Gold.Chemscore.DEInternal.Weighted>
1.7107

> <Gold.Chemscore.Rot.Weighted>
6.3594

> <Gold.Chemscore.Internal.Correction.Weighted>
   9.000000E+99

> <Gold.Protein.RotatedTorsions>
[ 6907 6896 6895 6894 ] final  -68.39 input  -60.11 | X-H torsion
[ 7974 7965 7964 7962 ] final  121.58 input  175.53 | X-H torsion
[ 8008 7997 7996 7995 ] final -166.12 input   59.86 | X-H torsion
[ 10167 10162 10161 10158 ] final   21.59 input  -65.29 | X-H torsion
[ 10718 10713 10712 10709 ] final   -8.77 input   66.30 | X-H torsion
[ 10763 10752 10751 10750 ] final   46.17 input  -60.55 | X-H torsion
[ 11005 11000 10999 10996 ] final -161.32 input  -57.11 | X-H torsion

> <Gold.Protein.ActiveResidues>
 VAL166  LYS551  ARG553  GLY616  TRP617  ASP618  TYR619  PRO620  LYS621  CYS622 
 ASP623  PHE694  ASN695  SER759  ASP760  ASP761  ALA762  ILE779  LEU786  VAL792 
 PHE793  MET794  SER795  GLU796  ALA797  LYS798  CYS799  TRP800  GLU811  SER814 

> <Gold.Protein.RotatedAtoms>
  150.7358  134.5745  159.5907 H   0  0  0  0  0  0  0  0  0  0  0  0  # atno 6907 bound_to 6896
  152.3175  134.7418  160.0331 H   0  0  0  0  0  0  0  0  0  0  0  0  # atno 6908 bound_to 6896
  151.7945  133.3327  159.3545 H   0  0  0  0  0  0  0  0  0  0  0  0  # atno 6909 bound_to 6896
  145.1176  139.3410  143.4731 H   0  0  0  0  0  0  0  0  0  0  0  0  # atno 7974 bound_to 7965
  155.8593  140.0975  157.1624 H   0  0  0  0  0  0  0  0  0  0  0  0  # atno 8008 bound_to 7997
  154.3989  140.1368  156.4003 H   0  0  0  0  0  0  0  0  0  0  0  0  # atno 8009 bound_to 7997
  155.7874  140.3456  155.5333 H   0  0  0  0  0  0  0  0  0  0  0  0  # atno 8010 bound_to 7997
  140.5414  143.9670  150.6522 H   0  0  0  0  0  0  0  0  0  0  0  0  # atno 10167 bound_to 10162
  156.6977  130.5084  149.5926 H   0  0  0  0  0  0  0  0  0  0  0  0  # atno 10718 bound_to 10713
  152.9814  135.6016  154.3555 H   0  0  0  0  0  0  0  0  0  0  0  0  # atno 10763 bound_to 10752
  154.3241  135.2769  155.2506 H   0  0  0  0  0  0  0  0  0  0  0  0  # atno 10764 bound_to 10752
  154.4660  135.5954  153.6344 H   0  0  0  0  0  0  0  0  0  0  0  0  # atno 10765 bound_to 10752
  140.6217  134.4744  157.5224 H   0  0  0  0  0  0  0  0  0  0  0  0  # atno 11005 bound_to 11000
  146.3523  140.1122  142.8603 LP  0  0  0  0  0  0  0  0  0  0  0  0  # atno 17320 bound_to 7965
  145.0776  140.9199  143.4844 LP  0  0  0  0  0  0  0  0  0  0  0  0  # atno 17321 bound_to 7965
  140.3071  143.3222  152.0915 LP  0  0  0  0  0  0  0  0  0  0  0  0  # atno 17342 bound_to 10162
  139.4990  144.6660  151.6356 LP  0  0  0  0  0  0  0  0  0  0  0  0  # atno 17343 bound_to 10162
  156.1751  130.6462  151.0885 LP  0  0  0  0  0  0  0  0  0  0  0  0  # atno 17370 bound_to 10713
  157.6985  131.0785  150.6895 LP  0  0  0  0  0  0  0  0  0  0  0  0  # atno 17371 bound_to 10713
  139.9151  134.8263  156.1394 LP  0  0  0  0  0  0  0  0  0  0  0  0  # atno 17394 bound_to 11000
  141.0738  133.6785  156.2194 LP  0  0  0  0  0  0  0  0  0  0  0  0  # atno 17395 bound_to 11000

$$$$
