AV-unprocessed.smi:2|AV-procd|sdf|25|dock2
  -GOLD-   2262015133D 1   1.00000     0.00000
 Structure written by MMmdl.
 52 54  0  0  0  0  0  0  0  0  3 V2000
  149.5167  144.2339  159.6711 C   0  0  0  0  0  0  0  0  0  0  0  0
  150.6632  144.6282  160.6127 C   0  0  0  0  0  0  0  0  0  0  0  0
  151.1756  143.4391  161.4322 C   0  0  0  0  0  0  0  0  0  0  0  0
  150.9916  143.4484  162.6490 O   0  0  0  0  0  0  0  0  0  0  0  0
  151.8692  142.3236  160.7215 C   0  0  0  0  0  0  0  0  0  0  0  0
  151.5948  141.9994  159.3723 C   0  0  0  0  0  0  0  0  0  0  0  0
  152.2685  140.9364  158.7407 C   0  0  0  0  0  0  0  0  0  0  0  0
  153.2273  140.1719  159.4333 C   0  0  0  0  0  0  0  0  0  0  0  0
  153.8333  139.1468  158.7391 O   0  0  0  0  0  0  0  0  0  0  0  0
  153.1339  138.5704  157.6440 C   0  0  0  0  0  0  0  0  0  0  0  0
  152.1329  137.5353  158.1811 C   0  0  2  0  0  0  0  0  0  0  0  0
  152.8629  136.4540  158.7237 O   0  0  0  0  0  0  0  0  0  0  0  0
  151.1865  137.0227  157.0699 C   0  0  0  0  0  0  0  0  0  0  0  0
  149.8550  137.6380  157.1127 N   0  0  0  0  0  0  0  0  0  0  0  0
  148.8021  137.2653  157.9022 C   0  0  0  0  0  0  0  0  0  0  0  0
  148.7649  136.1673  158.8587 N   0  3  0  0  0  0  0  0  0  0  0  0
  147.9835  136.2144  159.8004 O   0  0  0  0  0  0  0  0  0  0  0  0
  149.5590  135.2473  158.6882 O   0  5  0  0  0  0  0  0  0  0  0  0
  147.7056  138.0031  157.7325 N   0  0  0  0  0  0  0  0  0  0  0  0
  148.0658  138.9087  156.7557 C   0  0  0  0  0  0  0  0  0  0  0  0
  147.2475  139.9574  156.1171 C   0  0  0  0  0  0  0  0  0  0  0  0
  146.0908  140.1715  156.4827 O   0  0  0  0  0  0  0  0  0  0  0  0
  147.8817  140.6183  155.0999 N   0  0  0  0  0  0  0  0  0  0  0  0
  147.1199  141.6347  154.3487 C   0  0  0  0  0  0  0  0  0  0  0  0
  149.1943  140.4178  154.7146 C   0  0  0  0  0  0  0  0  0  0  0  0
  149.6664  141.0419  153.7594 O   0  0  0  0  0  0  0  0  0  0  0  0
  149.9617  139.5184  155.4212 N   0  0  0  0  0  0  0  0  0  0  0  0
  151.3991  139.4454  155.1209 C   0  0  0  0  0  0  0  0  0  0  0  0
  149.3590  138.7379  156.3737 C   0  0  0  0  0  0  0  0  0  0  0  0
  153.5082  140.4974  160.7826 C   0  0  0  0  0  0  0  0  0  0  0  0
  152.8361  141.5611  161.4151 C   0  0  0  0  0  0  0  0  0  0  0  0
  149.1959  145.0907  159.0787 H   0  0  0  0  0  0  0  0  0  0  0  0
  148.6484  143.8695  160.2202 H   0  0  0  0  0  0  0  0  0  0  0  0
  149.8267  143.4514  158.9774 H   0  0  0  0  0  0  0  0  0  0  0  0
  151.4929  145.0194  160.0233 H   0  0  0  0  0  0  0  0  0  0  0  0
  150.3595  145.4377  161.2758 H   0  0  0  0  0  0  0  0  0  0  0  0
  150.8700  142.5526  158.7949 H   0  0  0  0  0  0  0  0  0  0  0  0
  152.0433  140.7038  157.7100 H   0  0  0  0  0  0  0  0  0  0  0  0
  152.5912  139.3657  157.1306 H   0  0  0  0  0  0  0  0  0  0  0  0
  153.8143  138.1116  156.9242 H   0  0  0  0  0  0  0  0  0  0  0  0
  151.5487  137.9779  158.9871 H   0  0  0  0  0  0  0  0  0  0  0  0
  153.6558  136.7908  159.1129 H   0  0  0  0  0  0  0  0  0  0  0  0
  151.6214  137.1719  156.0879 H   0  0  0  0  0  0  0  0  0  0  0  0
  151.1021  135.9403  157.1105 H   0  0  0  0  0  0  0  0  0  0  0  0
  147.5858  142.6152  154.4597 H   0  0  0  0  0  0  0  0  0  0  0  0
  146.0787  141.7478  154.6527 H   0  0  0  0  0  0  0  0  0  0  0  0
  147.1018  141.3907  153.2852 H   0  0  0  0  0  0  0  0  0  0  0  0
  151.6080  138.6113  154.4510 H   0  0  0  0  0  0  0  0  0  0  0  0
  151.9934  139.3474  156.0236 H   0  0  0  0  0  0  0  0  0  0  0  0
  151.7937  140.3425  154.6420 H   0  0  0  0  0  0  0  0  0  0  0  0
  154.2369  139.9465  161.3574 H   0  0  0  0  0  0  0  0  0  0  0  0
  153.0740  141.7814  162.4459 H   0  0  0  0  0  0  0  0  0  0  0  0
  1  2  1  0  0  0  0
  1 32  1  0  0  0  0
  1 33  1  0  0  0  0
  1 34  1  0  0  0  0
  2  3  1  0  0  0  0
  2 35  1  0  0  0  0
  2 36  1  0  0  0  0
  3  4  2  0  0  0  0
  3  5  1  0  0  0  0
  5 31  1  0  0  0  0
  5  6  2  0  0  0  0
  6  7  1  0  0  0  0
  6 37  1  0  0  0  0
  7  8  2  0  0  0  0
  7 38  1  0  0  0  0
  8  9  1  0  0  0  0
  8 30  1  0  0  0  0
  9 10  1  0  0  0  0
 10 11  1  0  0  0  0
 10 39  1  0  0  0  0
 10 40  1  0  0  0  0
 11 12  1  0  0  0  0
 11 13  1  0  0  0  0
 11 41  1  0  0  0  0
 12 42  1  0  0  0  0
 13 14  1  0  0  0  0
 13 43  1  0  0  0  0
 13 44  1  0  0  0  0
 14 29  1  0  0  0  0
 14 15  1  0  0  0  0
 15 16  1  0  0  0  0
 15 19  2  0  0  0  0
 16 17  2  0  0  0  0
 16 18  1  0  0  0  0
 19 20  1  0  0  0  0
 20 29  2  0  0  0  0
 20 21  1  0  0  0  0
 21 22  2  0  0  0  0
 21 23  1  0  0  0  0
 23 24  1  0  0  0  0
 23 25  1  0  0  0  0
 24 45  1  0  0  0  0
 24 46  1  0  0  0  0
 24 47  1  0  0  0  0
 25 26  2  0  0  0  0
 25 27  1  0  0  0  0
 27 28  1  0  0  0  0
 27 29  1  0  0  0  0
 28 48  1  0  0  0  0
 28 49  1  0  0  0  0
 28 50  1  0  0  0  0
 30 31  2  0  0  0  0
 30 51  1  0  0  0  0
 31 52  1  0  0  0  0
M  CHG  1  16   1
M  CHG  1  18  -1
M  END
> <s_m_source_file>
AV-unprocessed.smi

> <i_m_source_file_index>
2

> <i_lp_mmshare_version>
43012

> <i_f3d_flags>
0

> <s_epik_input>
W0NIM11bQ0gyXUMoPU8pYzFbY0hdW2NIXWMoW2NIXVtjSF0xKU9bQ0gyXVtDQEhdKFtPSF0pW0NIMl1uKGMobjIpW04rXSg9TylbTy1dKWMoYzIzKW4oW0NIM10pYyg9TyluKGMzPU8pW0NIM10=

> <s_epik_cmdline>
J2VwaWtfcHl0aG9uJywgJy1waCcsICc3LjAnLCAnLXRuJywgJzgnLCAnLW1hJywgJzIwMCcsICctbWV0YWxfYmluZGluZycsICctaW1hZScsICc8aW5maWxlLm1hZT4nLCAnLW9tYWUnLCAnPG91dGZpbGUubWFlPic=

> <r_lp_tautomer_probability>
1

> <r_epik_Ionization_Penalty>
1.02275e-06

> <r_epik_Ionization_Penalty_Charging>
4.46226e-11

> <r_epik_Ionization_Penalty_Neutral>
1.02271e-06

> <r_epik_State_Penalty>
-0

> <r_epik_Charging_Adjusted_Penalty>
4.46226e-11

> <i_epik_Tot_Q>
0

> <i_epik_Tot_abs_Q>
2

> <r_epik_Metal_State_Penalty>
-0

> <b_epik_Metal_Only>
0

> <s_lp_Force_Field>
OPLS_2005

> <r_lp_Energy>
60.0216

> <b_lp_Chiralities_Consistent>
1

> <s_lp_Variant>
AV-unprocessed.smi:2-1

> <Gold.Version>
5.8.1

> <Gold.Id.Protein>
6NUR|6NUR_protein|mol2

> <Gold.PLP.Fitness>
62.9074

> <Gold.PLP.PLP>
-51.1384

> <Gold.PLP.part.hbond>
-8.0000

> <Gold.PLP.part.metal>
0.0000

> <Gold.PLP.part.buried>
-6.1726

> <Gold.PLP.part.nonpolar>
-38.8769

> <Gold.PLP.part.repulsive>
2.6204

> <Gold.PLP.ligand.clash>
0.0844

> <Gold.PLP.ligand.torsion>
2.0641

> <Gold.PLP.Chemscore.Hbond>
5.0686

> <Gold.PLP.Chemscore.CHOScore>
0.0000

> <Gold.PLP.Chemscore.Metal>
0.0000

> <Gold.Chemscore.Hbonds>
donor molecule, donor type, donor heavy atom, donor atom, acceptor molecule, acceptor atom, score
      P1  H  6896  6907       L1    18  1.00
      P1  H  6896  6908       L1    12  0.52
      P1  H  6933  6945       L1     4  0.10
      P1  H  7989  7998       L1    26  0.34
      P1  H  7997  8010       L1     9  0.29
      P1  H  8011  8017       L1    26  0.94

> <Gold.PLP.Chemscore.Internal.Correction>
0.7761

> <Gold.Rescore>
     Score         DG    S(hbond)    S(metal)    S(lipo)     H(rot)  DE(clash)    DE(int)     intcor
     17.79     -22.54       4.08        0.00      98.49       3.16       1.48       3.27       ----

> <Gold.Chemscore.Fitness>
17.7924

> <Gold.Chemscore.DG>
-22.5421

> <Gold.Chemscore.ZeroCoef>
-5.4800

> <Gold.Chemscore.Hbond>
4.0800

> <Gold.Chemscore.Metal>
0.0000

> <Gold.Chemscore.Lipo>
98.4917

> <Gold.Chemscore.Internal_Hbond>
0.0000

> <Gold.Chemscore.DEClash>
1.4846

> <Gold.Chemscore.DEInternal>
3.2650

> <Gold.Chemscore.Rot>
3.1597

> <Gold.Chemscore.Internal.Correction>
   9.000000E+99

> <Gold.Chemscore.Hbonds>
donor molecule, donor type, donor heavy atom, donor atom, acceptor molecule, acceptor atom, score
      P1  H  6896  6907       L1    18  0.96
      P1  H  6896  6908       L1    12  0.27
      P1  H  7989  7998       L1    26  0.32
      P1  H  7997  8010       L1     9  0.01
      P1  H  8011  8017       L1    26  0.89

> <Gold.Chemscore.Hbond.Weighted>
-13.6274

> <Gold.Chemscore.Metal.Weighted>
-0.0000

> <Gold.Chemscore.Lipo.Weighted>
-11.5235

> <Gold.Chemscore.Internal_Hbond.Weighted>
0.0000

> <Gold.Chemscore.DEClash.Weighted>
1.4846

> <Gold.Chemscore.DEInternal.Weighted>
3.2650

> <Gold.Chemscore.Rot.Weighted>
8.0888

> <Gold.Chemscore.Internal.Correction.Weighted>
   9.000000E+99

> <Gold.Protein.RotatedTorsions>
[ 6907 6896 6895 6894 ] final  -76.64 input  -60.11 | X-H torsion
[ 7974 7965 7964 7962 ] final  158.69 input  175.53 | X-H torsion
[ 8008 7997 7996 7995 ] final   -7.26 input   59.86 | X-H torsion
[ 10167 10162 10161 10158 ] final  -44.46 input  -65.29 | X-H torsion
[ 10718 10713 10712 10709 ] final  145.28 input   66.30 | X-H torsion
[ 10763 10752 10751 10750 ] final -176.50 input  -60.55 | X-H torsion
[ 11005 11000 10999 10996 ] final  -62.93 input  -57.11 | X-H torsion

> <Gold.Protein.ActiveResidues>
 VAL166  LYS551  ARG553  GLY616  TRP617  ASP618  TYR619  PRO620  LYS621  CYS622 
 ASP623  PHE694  ASN695  SER759  ASP760  ASP761  ALA762  ILE779  LEU786  VAL792 
 PHE793  MET794  SER795  GLU796  ALA797  LYS798  CYS799  TRP800  GLU811  SER814 

> <Gold.Protein.RotatedAtoms>
  150.7021  134.4541  159.5349 H   0  0  0  0  0  0  0  0  0  0  0  0  # atno 6907 bound_to 6896
  152.2228  134.8393  160.0493 H   0  0  0  0  0  0  0  0  0  0  0  0  # atno 6908 bound_to 6896
  151.9237  133.3557  159.3943 H   0  0  0  0  0  0  0  0  0  0  0  0  # atno 6909 bound_to 6896
  144.7831  139.7514  143.6251 H   0  0  0  0  0  0  0  0  0  0  0  0  # atno 7974 bound_to 7965
  154.5856  140.2411  155.7993 H   0  0  0  0  0  0  0  0  0  0  0  0  # atno 8008 bound_to 7997
  156.2210  140.2997  155.9909 H   0  0  0  0  0  0  0  0  0  0  0  0  # atno 8009 bound_to 7997
  155.2464  140.0409  157.2972 H   0  0  0  0  0  0  0  0  0  0  0  0  # atno 8010 bound_to 7997
  140.6896  143.2929  151.3498 H   0  0  0  0  0  0  0  0  0  0  0  0  # atno 10167 bound_to 10162
  157.3471  131.0945  151.1032 H   0  0  0  0  0  0  0  0  0  0  0  0  # atno 10718 bound_to 10713
  154.5716  135.2828  155.0822 H   0  0  0  0  0  0  0  0  0  0  0  0  # atno 10763 bound_to 10752
  154.2192  135.6394  153.5143 H   0  0  0  0  0  0  0  0  0  0  0  0  # atno 10764 bound_to 10752
  153.0059  135.5510  154.6341 H   0  0  0  0  0  0  0  0  0  0  0  0  # atno 10765 bound_to 10752
  141.1376  133.6645  156.5602 H   0  0  0  0  0  0  0  0  0  0  0  0  # atno 11005 bound_to 11000
  146.2050  139.5368  142.9718 LP  0  0  0  0  0  0  0  0  0  0  0  0  # atno 17320 bound_to 7965
  145.5994  141.0357  143.2026 LP  0  0  0  0  0  0  0  0  0  0  0  0  # atno 17321 bound_to 7965
  139.6286  144.0765  152.2456 LP  0  0  0  0  0  0  0  0  0  0  0  0  # atno 17342 bound_to 10162
  140.0233  144.6137  150.7549 LP  0  0  0  0  0  0  0  0  0  0  0  0  # atno 17343 bound_to 10162
  157.2222  130.6486  149.5815 LP  0  0  0  0  0  0  0  0  0  0  0  0  # atno 17370 bound_to 10713
  155.9716  130.4625  150.6150 LP  0  0  0  0  0  0  0  0  0  0  0  0  # atno 17371 bound_to 10713
  140.3994  134.7370  157.4770 LP  0  0  0  0  0  0  0  0  0  0  0  0  # atno 17394 bound_to 11000
  140.0507  134.6135  155.8865 LP  0  0  0  0  0  0  0  0  0  0  0  0  # atno 17395 bound_to 11000

$$$$
