AV-unprocessed.smi:512|AV-procd|sdf|2770|dock4
  -GOLD-   2262023233D 1   1.00000     0.00000
 Structure written by MMmdl.
 48 50  0  0  0  0  0  0  0  0  3 V2000
  150.1117  129.5669  154.1925 C   0  0  0  0  0  0  0  0  0  0  0  0
  149.4466  130.9202  153.9313 C   0  0  0  0  0  0  0  0  0  0  0  0
  150.1473  131.9226  154.6477 O   0  0  0  0  0  0  0  0  0  0  0  0
  149.7363  133.2331  154.2975 C   0  0  0  0  0  0  0  0  0  0  0  0
  149.0115  133.8605  155.4948 C   0  0  0  0  0  0  0  0  0  0  0  0
  148.5220  135.2015  155.1818 N   0  0  0  0  0  0  0  0  0  0  0  0
  147.2536  135.5895  154.8809 C   0  0  0  0  0  0  0  0  0  0  0  0
  146.1809  134.6981  154.8992 N   0  0  0  0  0  0  0  0  0  0  0  0
  144.7748  135.0908  154.9687 C   0  0  0  0  0  0  0  0  0  0  0  0
  144.0990  135.0012  153.5876 C   0  0  0  0  0  0  0  0  0  0  0  0
  144.2371  133.6410  153.0138 N   0  3  0  0  0  0  0  0  0  0  0  0
  143.5924  133.5121  151.6899 C   0  0  0  0  0  0  0  0  0  0  0  0
  145.6477  133.1862  153.0091 C   0  0  0  0  0  0  0  0  0  0  0  0
  146.2655  133.3250  154.4113 C   0  0  0  0  0  0  0  0  0  0  0  0
  147.1254  136.8764  154.5529 N   0  0  0  0  0  0  0  0  0  0  0  0
  148.4180  137.3600  154.6880 C   0  0  0  0  0  0  0  0  0  0  0  0
  149.2752  136.3739  155.0655 C   0  0  0  0  0  0  0  0  0  0  0  0
  150.7257  136.5788  155.2713 C   0  0  0  0  0  0  0  0  0  0  0  0
  151.4558  135.6492  155.6088 O   0  0  0  0  0  0  0  0  0  0  0  0
  151.1020  137.8765  155.0409 N   0  5  0  0  0  0  0  0  0  0  0  0
  150.2691  138.9063  154.6587 C   0  0  0  0  0  0  0  0  0  0  0  0
  150.6914  140.0474  154.4678 O   0  0  0  0  0  0  0  0  0  0  0  0
  148.9311  138.6693  154.4808 N   0  0  0  0  0  0  0  0  0  0  0  0
  148.0218  139.7441  154.0732 C   0  0  0  0  0  0  0  0  0  0  0  0
  149.5979  128.7703  153.6544 H   0  0  0  0  0  0  0  0  0  0  0  0
  150.0931  129.3203  155.2542 H   0  0  0  0  0  0  0  0  0  0  0  0
  151.1521  129.5734  153.8674 H   0  0  0  0  0  0  0  0  0  0  0  0
  149.4614  131.1410  152.8630 H   0  0  0  0  0  0  0  0  0  0  0  0
  148.4032  130.8896  154.2487 H   0  0  0  0  0  0  0  0  0  0  0  0
  150.6013  133.8352  154.0169 H   0  0  0  0  0  0  0  0  0  0  0  0
  149.0689  133.1946  153.4351 H   0  0  0  0  0  0  0  0  0  0  0  0
  148.1887  133.2138  155.7866 H   0  0  0  0  0  0  0  0  0  0  0  0
  149.6658  133.9107  156.3643 H   0  0  0  0  0  0  0  0  0  0  0  0
  144.2575  134.4585  155.6915 H   0  0  0  0  0  0  0  0  0  0  0  0
  144.6913  136.1159  155.3289 H   0  0  0  0  0  0  0  0  0  0  0  0
  143.0426  135.2572  153.6748 H   0  0  0  0  0  0  0  0  0  0  0  0
  144.5489  135.7281  152.9090 H   0  0  0  0  0  0  0  0  0  0  0  0
  144.0749  134.1570  150.9543 H   0  0  0  0  0  0  0  0  0  0  0  0
  142.5386  133.7866  151.7473 H   0  0  0  0  0  0  0  0  0  0  0  0
  143.6499  132.4832  151.3331 H   0  0  0  0  0  0  0  0  0  0  0  0
  145.6972  132.1466  152.6835 H   0  0  0  0  0  0  0  0  0  0  0  0
  146.2204  133.7748  152.2902 H   0  0  0  0  0  0  0  0  0  0  0  0
  147.3097  133.0108  154.3900 H   0  0  0  0  0  0  0  0  0  0  0  0
  145.7593  132.6631  155.1154 H   0  0  0  0  0  0  0  0  0  0  0  0
  148.2950  140.1191  153.0862 H   0  0  0  0  0  0  0  0  0  0  0  0
  148.0685  140.5745  154.7784 H   0  0  0  0  0  0  0  0  0  0  0  0
  146.9829  139.4204  154.0243 H   0  0  0  0  0  0  0  0  0  0  0  0
  143.7425  133.0197  153.6380 H   0  0  0  0  0  0  0  0  0  0  0  0
  1  2  1  0  0  0  0
  1 25  1  0  0  0  0
  1 26  1  0  0  0  0
  1 27  1  0  0  0  0
  2  3  1  0  0  0  0
  2 28  1  0  0  0  0
  2 29  1  0  0  0  0
  3  4  1  0  0  0  0
  4  5  1  0  0  0  0
  4 30  1  0  0  0  0
  4 31  1  0  0  0  0
  5  6  1  0  0  0  0
  5 32  1  0  0  0  0
  5 33  1  0  0  0  0
  6 17  1  0  0  0  0
  6  7  1  0  0  0  0
  7  8  1  0  0  0  0
  7 15  2  0  0  0  0
  8 14  1  0  0  0  0
  8  9  1  0  0  0  0
  9 10  1  0  0  0  0
  9 34  1  0  0  0  0
  9 35  1  0  0  0  0
 10 11  1  0  0  0  0
 10 36  1  0  0  0  0
 10 37  1  0  0  0  0
 11 12  1  0  0  0  0
 11 13  1  0  0  0  0
 11 48  1  0  0  0  0
 12 38  1  0  0  0  0
 12 39  1  0  0  0  0
 12 40  1  0  0  0  0
 13 14  1  0  0  0  0
 13 41  1  0  0  0  0
 13 42  1  0  0  0  0
 14 43  1  0  0  0  0
 14 44  1  0  0  0  0
 15 16  1  0  0  0  0
 16 23  1  0  0  0  0
 16 17  2  0  0  0  0
 17 18  1  0  0  0  0
 18 19  2  0  0  0  0
 18 20  1  0  0  0  0
 20 21  1  0  0  0  0
 21 22  2  0  0  0  0
 21 23  1  0  0  0  0
 23 24  1  0  0  0  0
 24 45  1  0  0  0  0
 24 46  1  0  0  0  0
 24 47  1  0  0  0  0
M  CHG  1  11   1
M  CHG  1  20  -1
M  END
> <s_m_source_file>
AV-unprocessed.smi

> <i_m_source_file_index>
512

> <i_lp_mmshare_version>
43012

> <i_f3d_flags>
0

> <s_epik_input>
W0NIM11uMWMoPU8pW25IXWMoPU8pYyhjMTIpbihbQ0gyXVtDSDJdT1tDSDJdW0NIM10pYyhuMilOM1tDSDJdW0NIMl1OKFtDSDNdKVtDSDJdW0NIMl0z

> <s_epik_cmdline>
J2VwaWtfcHl0aG9uJywgJy1waCcsICc3LjAnLCAnLXRuJywgJzgnLCAnLW1hJywgJzIwMCcsICctbWV0YWxfYmluZGluZycsICctaW1hZScsICc8aW5maWxlLm1hZT4nLCAnLW9tYWUnLCAnPG91dGZpbGUubWFlPic=

> <r_epik_Ionization_Penalty>
5.9926

> <r_epik_Ionization_Penalty_Charging>
0.122107

> <r_epik_Ionization_Penalty_Neutral>
5.87049

> <r_epik_State_Penalty>
5.92685

> <r_epik_Charging_Adjusted_Penalty>
6.04896

> <i_epik_Tot_Q>
0

> <i_epik_Tot_abs_Q>
2

> <r_epik_Metal_State_Penalty>
1.88919

> <b_epik_Metal_Only>
1

> <s_lp_Force_Field>
OPLS_2005

> <r_lp_Energy>
50.2729

> <b_lp_Chiralities_Consistent>
1

> <s_lp_Variant>
AV-unprocessed.smi:512-3

> <Gold.Version>
5.8.1

> <Gold.Id.Protein>
6NUR|6NUR_protein|mol2

> <Gold.PLP.Fitness>
37.4790

> <Gold.PLP.PLP>
-26.8394

> <Gold.PLP.part.hbond>
-3.0000

> <Gold.PLP.part.metal>
0.0000

> <Gold.PLP.part.buried>
-4.3677

> <Gold.PLP.part.nonpolar>
-20.2760

> <Gold.PLP.part.repulsive>
0.3596

> <Gold.PLP.ligand.clash>
0.0000

> <Gold.PLP.ligand.torsion>
0.9816

> <Gold.PLP.Chemscore.Hbond>
4.0000

> <Gold.PLP.Chemscore.CHOScore>
0.0000

> <Gold.PLP.Chemscore.Metal>
0.0000

> <Gold.Chemscore.Hbonds>
donor molecule, donor type, donor heavy atom, donor atom, acceptor molecule, acceptor atom, score
      L1  H    11    48       P1 10957  2.00
      P1  H  7989  7998       L1    22  1.00
      P1  H 10752 10763       L1    19  1.00

> <Gold.PLP.Chemscore.Internal.Correction>
0.6027

> <Gold.Rescore>
     Score         DG    S(hbond)    S(metal)    S(lipo)     H(rot)  DE(clash)    DE(int)     intcor
     15.37     -16.45       2.96        0.00      44.88       1.63       0.01       1.07       ----

> <Gold.Chemscore.Fitness>
15.3711

> <Gold.Chemscore.DG>
-16.4482

> <Gold.Chemscore.ZeroCoef>
-5.4800

> <Gold.Chemscore.Hbond>
2.9633

> <Gold.Chemscore.Metal>
0.0000

> <Gold.Chemscore.Lipo>
44.8788

> <Gold.Chemscore.Internal_Hbond>
0.0000

> <Gold.Chemscore.DEClash>
0.0086

> <Gold.Chemscore.DEInternal>
1.0685

> <Gold.Chemscore.Rot>
1.6328

> <Gold.Chemscore.Internal.Correction>
   9.000000E+99

> <Gold.Chemscore.Hbonds>
donor molecule, donor type, donor heavy atom, donor atom, acceptor molecule, acceptor atom, score
      L1  H    11    48       P1 10957  0.88
      P1  H  7989  7998       L1    22  0.97
      P1  H 10752 10763       L1    19  0.93

> <Gold.Chemscore.Hbond.Weighted>
-9.8974

> <Gold.Chemscore.Metal.Weighted>
-0.0000

> <Gold.Chemscore.Lipo.Weighted>
-5.2508

> <Gold.Chemscore.Internal_Hbond.Weighted>
0.0000

> <Gold.Chemscore.DEClash.Weighted>
0.0086

> <Gold.Chemscore.DEInternal.Weighted>
1.0685

> <Gold.Chemscore.Rot.Weighted>
4.1800

> <Gold.Chemscore.Internal.Correction.Weighted>
   9.000000E+99

> <Gold.Protein.RotatedTorsions>
[ 6907 6896 6895 6894 ] final   30.93 input  -60.11 | X-H torsion
[ 7974 7965 7964 7962 ] final  -20.95 input  175.53 | X-H torsion
[ 8008 7997 7996 7995 ] final  178.19 input   59.86 | X-H torsion
[ 10167 10162 10161 10158 ] final  -14.03 input  -65.29 | X-H torsion
[ 10718 10713 10712 10709 ] final  -58.37 input   66.30 | X-H torsion
[ 10763 10752 10751 10750 ] final   70.46 input  -60.55 | X-H torsion
[ 11005 11000 10999 10996 ] final  156.38 input  -57.11 | X-H torsion

> <Gold.Protein.ActiveResidues>
 VAL166  LYS551  ARG553  GLY616  TRP617  ASP618  TYR619  PRO620  LYS621  CYS622 
 ASP623  PHE694  ASN695  SER759  ASP760  ASP761  ALA762  ILE779  LEU786  VAL792 
 PHE793  MET794  SER795  GLU796  ALA797  LYS798  CYS799  TRP800  GLU811  SER814 

> <Gold.Protein.RotatedAtoms>
  152.0530  134.9642  160.0574 H   0  0  0  0  0  0  0  0  0  0  0  0  # atno 6907 bound_to 6896
  152.1036  133.4258  159.4606 H   0  0  0  0  0  0  0  0  0  0  0  0  # atno 6908 bound_to 6896
  150.6840  134.2651  159.4608 H   0  0  0  0  0  0  0  0  0  0  0  0  # atno 6909 bound_to 6896
  146.1760  140.4274  142.8513 H   0  0  0  0  0  0  0  0  0  0  0  0  # atno 7974 bound_to 7965
  156.0574  140.1339  156.9981 H   0  0  0  0  0  0  0  0  0  0  0  0  # atno 8008 bound_to 7997
  154.4464  140.0998  156.6537 H   0  0  0  0  0  0  0  0  0  0  0  0  # atno 8009 bound_to 7997
  155.5430  140.3461  155.4453 H   0  0  0  0  0  0  0  0  0  0  0  0  # atno 8010 bound_to 7997
  140.7193  143.5364  150.9459 H   0  0  0  0  0  0  0  0  0  0  0  0  # atno 10167 bound_to 10162
  156.1140  130.4172  150.0569 H   0  0  0  0  0  0  0  0  0  0  0  0  # atno 10718 bound_to 10713
  153.0343  135.5173  154.7445 H   0  0  0  0  0  0  0  0  0  0  0  0  # atno 10763 bound_to 10752
  154.6434  135.2915  155.0077 H   0  0  0  0  0  0  0  0  0  0  0  0  # atno 10764 bound_to 10752
  154.0987  135.6639  153.4917 H   0  0  0  0  0  0  0  0  0  0  0  0  # atno 10765 bound_to 10752
  140.1669  134.8570  157.2643 H   0  0  0  0  0  0  0  0  0  0  0  0  # atno 11005 bound_to 11000
  144.8236  140.6592  143.6336 LP  0  0  0  0  0  0  0  0  0  0  0  0  # atno 17320 bound_to 7965
  145.4211  139.1564  143.4073 LP  0  0  0  0  0  0  0  0  0  0  0  0  # atno 17321 bound_to 7965
  139.9086  143.6748  152.3119 LP  0  0  0  0  0  0  0  0  0  0  0  0  # atno 17342 bound_to 10162
  139.7123  144.7618  151.1092 LP  0  0  0  0  0  0  0  0  0  0  0  0  # atno 17343 bound_to 10162
  156.8524  130.9463  151.3624 LP  0  0  0  0  0  0  0  0  0  0  0  0  # atno 17370 bound_to 10713
  157.6322  130.8738  149.9295 LP  0  0  0  0  0  0  0  0  0  0  0  0  # atno 17371 bound_to 10713
  140.2423  134.3781  155.7475 LP  0  0  0  0  0  0  0  0  0  0  0  0  # atno 17394 bound_to 11000
  141.2214  133.7272  156.8808 LP  0  0  0  0  0  0  0  0  0  0  0  0  # atno 17395 bound_to 11000

$$$$
